cand_042_out
     RDKit          3D

 38 40  0  0  0  0  0  0  0  0999 V2000
   46.8870   24.9530  -13.9280 C   0  0  0  0  0  0  0  0  0  0  0  0
   45.6840   24.7290  -13.0240 C   0  0  0  0  0  0  0  0  0  0  0  0
   44.4080   25.2640  -13.6360 C   0  0  0  0  0  0  0  0  0  0  0  0
   43.7110   24.4490  -14.5430 C   0  0  0  0  0  0  0  0  0  0  0  0
   42.5320   24.8910  -15.1490 C   0  0  0  0  0  0  0  0  0  0  0  0
   42.0140   26.1560  -14.8620 C   0  0  0  0  0  0  0  0  0  0  0  0
   40.7820   26.6590  -15.5070 C   0  0  0  0  0  0  0  0  0  0  0  0
   40.0220   27.4650  -14.6670 O   0  0  0  0  0  0  0  0  0  0  0  0
   38.8520   27.9980  -15.1400 C   0  0  0  0  0  0  0  0  0  0  0  0
   38.1280   28.8130  -14.2680 C   0  0  0  0  0  0  0  0  0  0  0  0
   36.9260   29.3870  -14.6870 C   0  0  0  0  0  0  0  0  0  0  0  0
   36.4460   29.1470  -15.9760 C   0  0  0  0  0  0  0  0  0  0  0  0
   37.1710   28.3340  -16.8440 C   0  0  0  0  0  0  0  0  0  0  0  0
   36.6440   28.1400  -18.0920 O   0  0  0  0  0  0  0  0  0  0  0  0
   38.3750   27.7600  -16.4260 C   0  0  0  0  0  0  0  0  0  0  0  0
   39.1650   26.9000  -17.3060 C   0  0  0  0  0  0  0  0  0  0  0  0
   38.8060   26.6360  -18.4520 O   0  0  0  0  0  0  0  0  0  0  0  0
   40.4300   26.3480  -16.7680 C   0  0  0  0  0  0  0  0  0  0  0  0
   41.1630   25.5260  -17.6060 O   0  0  0  0  0  0  0  0  0  0  0  0
   42.7190   26.9770  -13.9680 C   0  0  0  0  0  0  0  0  0  0  0  0
   43.9120   26.5510  -13.3540 C   0  0  0  0  0  0  0  0  0  0  0  0
   44.6040   27.4780  -12.3920 C   0  0  0  0  0  0  0  0  0  0  0  0
   47.7828   25.1198  -13.3117 H   0  0  0  0  0  0  0  0  0  0  0  0
   47.0384   24.0676  -14.5630 H   0  0  0  0  0  0  0  0  0  0  0  0
   46.7096   25.8336  -14.5630 H   0  0  0  0  0  0  0  0  0  0  0  0
   45.5681   23.6494  -12.8481 H   0  0  0  0  0  0  0  0  0  0  0  0
   45.8615   25.2687  -12.0821 H   0  0  0  0  0  0  0  0  0  0  0  0
   44.0992   23.4474  -14.7799 H   0  0  0  0  0  0  0  0  0  0  0  0
   42.0064   24.2359  -15.8594 H   0  0  0  0  0  0  0  0  0  0  0  0
   38.5040   29.0028  -13.2518 H   0  0  0  0  0  0  0  0  0  0  0  0
   36.3560   30.0297  -14.0000 H   0  0  0  0  0  0  0  0  0  0  0  0
   35.4984   29.5985  -16.3049 H   0  0  0  0  0  0  0  0  0  0  0  0
   36.2150   27.3330  -18.2990 H   0  0  0  0  0  0  0  0  0  0  0  0
   41.8020   25.8940  -18.1820 H   0  0  0  0  0  0  0  0  0  0  0  0
   42.3288   27.9801  -13.7411 H   0  0  0  0  0  0  0  0  0  0  0  0
   44.3760   27.1725  -11.3602 H   0  0  0  0  0  0  0  0  0  0  0  0
   45.6907   27.4323  -12.5563 H   0  0  0  0  0  0  0  0  0  0  0  0
   44.2513   28.5069  -12.5563 H   0  0  0  0  0  0  0  0  0  0  0  0
  1  2  1  0
  2  3  1  0
  3  4  2  0
  4  5  1  0
  5  6  2  0
  6  7  1  0
  7  8  1  0
  8  9  1  0
  9 10  2  0
 10 11  1  0
 11 12  2  0
 12 13  1  0
 13 14  1  0
 13 15  2  0
 15 16  1  0
 16 17  2  0
 16 18  1  0
 18 19  1  0
  6 20  1  0
 20 21  2  0
 21 22  1  0
 21  3  1  0
 18  7  2  0
 15  9  1  0
  1 23  1  0
  1 24  1  0
  1 25  1  0
  2 26  1  0
  2 27  1  0
  4 28  1  0
  5 29  1  0
 10 30  1  0
 11 31  1  0
 12 32  1  0
 14 33  1  0
 19 34  1  0
 20 35  1  0
 22 36  1  0
 22 37  1  0
 22 38  1  0
M  END
>  <meeko>  (1) 
{"is_sidechain": [false], "free_energy": -8.614, "intermolecular_energy": -10.125, "internal_energy": -0.04}

$$$$
cand_042_out
     RDKit          3D

 38 40  0  0  0  0  0  0  0  0999 V2000
   47.1240   25.1770  -14.3000 C   0  0  0  0  0  0  0  0  0  0  0  0
   46.0100   24.5210  -13.4980 C   0  0  0  0  0  0  0  0  0  0  0  0
   44.6760   25.1960  -13.7250 C   0  0  0  0  0  0  0  0  0  0  0  0
   43.7350   24.5570  -14.5480 C   0  0  0  0  0  0  0  0  0  0  0  0
   42.4900   25.1350  -14.8040 C   0  0  0  0  0  0  0  0  0  0  0  0
   42.1460   26.3660  -14.2390 C   0  0  0  0  0  0  0  0  0  0  0  0
   40.8450   27.0130  -14.5120 C   0  0  0  0  0  0  0  0  0  0  0  0
   40.3790   26.7710  -15.7990 O   0  0  0  0  0  0  0  0  0  0  0  0
   39.1810   27.3130  -16.1840 C   0  0  0  0  0  0  0  0  0  0  0  0
   38.7460   27.0320  -17.4800 C   0  0  0  0  0  0  0  0  0  0  0  0
   37.5340   27.5540  -17.9370 C   0  0  0  0  0  0  0  0  0  0  0  0
   36.7570   28.3580  -17.0990 C   0  0  0  0  0  0  0  0  0  0  0  0
   37.1940   28.6360  -15.8060 C   0  0  0  0  0  0  0  0  0  0  0  0
   36.3860   29.4300  -15.0390 O   0  0  0  0  0  0  0  0  0  0  0  0
   38.4070   28.1120  -15.3490 C   0  0  0  0  0  0  0  0  0  0  0  0
   38.9020   28.3800  -13.9990 C   0  0  0  0  0  0  0  0  0  0  0  0
   38.2790   29.0840  -13.2050 O   0  0  0  0  0  0  0  0  0  0  0  0
   40.1950   27.7720  -13.6100 C   0  0  0  0  0  0  0  0  0  0  0  0
   40.6580   28.0420  -12.3350 O   0  0  0  0  0  0  0  0  0  0  0  0
   43.0920   27.0130  -13.4280 C   0  0  0  0  0  0  0  0  0  0  0  0
   44.3540   26.4490  -13.1670 C   0  0  0  0  0  0  0  0  0  0  0  0
   45.3100   27.1910  -12.2740 C   0  0  0  0  0  0  0  0  0  0  0  0
   47.8636   25.6125  -13.6120 H   0  0  0  0  0  0  0  0  0  0  0  0
   47.6127   24.4225  -14.9339 H   0  0  0  0  0  0  0  0  0  0  0  0
   46.7012   25.9703  -14.9339 H   0  0  0  0  0  0  0  0  0  0  0  0
   45.9299   23.4659  -13.7985 H   0  0  0  0  0  0  0  0  0  0  0  0
   46.2601   24.6127  -12.4307 H   0  0  0  0  0  0  0  0  0  0  0  0
   43.9827   23.5846  -14.9987 H   0  0  0  0  0  0  0  0  0  0  0  0
   41.7728   24.6162  -15.4570 H   0  0  0  0  0  0  0  0  0  0  0  0
   39.3573   26.3999  -18.1409 H   0  0  0  0  0  0  0  0  0  0  0  0
   37.1905   27.3319  -18.9581 H   0  0  0  0  0  0  0  0  0  0  0  0
   35.8029   28.7702  -17.4594 H   0  0  0  0  0  0  0  0  0  0  0  0
   35.6620   29.8780  -15.4300 H   0  0  0  0  0  0  0  0  0  0  0  0
   40.8630   28.9220  -12.0880 H   0  0  0  0  0  0  0  0  0  0  0  0
   42.8394   27.9875  -12.9846 H   0  0  0  0  0  0  0  0  0  0  0  0
   45.0566   26.9943  -11.2218 H   0  0  0  0  0  0  0  0  0  0  0  0
   46.3370   26.8512  -12.4735 H   0  0  0  0  0  0  0  0  0  0  0  0
   45.2356   28.2702  -12.4735 H   0  0  0  0  0  0  0  0  0  0  0  0
  1  2  1  0
  2  3  1  0
  3  4  2  0
  4  5  1  0
  5  6  2  0
  6  7  1  0
  7  8  1  0
  8  9  1  0
  9 10  2  0
 10 11  1  0
 11 12  2  0
 12 13  1  0
 13 14  1  0
 13 15  2  0
 15 16  1  0
 16 17  2  0
 16 18  1  0
 18 19  1  0
  6 20  1  0
 20 21  2  0
 21 22  1  0
 21  3  1  0
 18  7  2  0
 15  9  1  0
  1 23  1  0
  1 24  1  0
  1 25  1  0
  2 26  1  0
  2 27  1  0
  4 28  1  0
  5 29  1  0
 10 30  1  0
 11 31  1  0
 12 32  1  0
 14 33  1  0
 19 34  1  0
 20 35  1  0
 22 36  1  0
 22 37  1  0
 22 38  1  0
M  END
>  <meeko>  (2) 
{"is_sidechain": [false], "free_energy": -8.548, "intermolecular_energy": -10.246, "internal_energy": 0.159}

$$$$
cand_042_out
     RDKit          3D

 38 40  0  0  0  0  0  0  0  0999 V2000
   34.9860   29.9320  -17.9860 C   0  0  0  0  0  0  0  0  0  0  0  0
   35.7100   28.6760  -18.4460 C   0  0  0  0  0  0  0  0  0  0  0  0
   36.8230   28.2850  -17.4990 C   0  0  0  0  0  0  0  0  0  0  0  0
   36.9640   29.0030  -16.3010 C   0  0  0  0  0  0  0  0  0  0  0  0
   37.9780   28.6960  -15.3910 C   0  0  0  0  0  0  0  0  0  0  0  0
   38.8770   27.6580  -15.6500 C   0  0  0  0  0  0  0  0  0  0  0  0
   39.9750   27.3260  -14.7160 C   0  0  0  0  0  0  0  0  0  0  0  0
   41.0130   26.6340  -15.3270 O   0  0  0  0  0  0  0  0  0  0  0  0
   42.0970   26.2640  -14.5740 C   0  0  0  0  0  0  0  0  0  0  0  0
   43.1230   25.5830  -15.2310 C   0  0  0  0  0  0  0  0  0  0  0  0
   44.2550   25.1760  -14.5220 C   0  0  0  0  0  0  0  0  0  0  0  0
   44.3620   25.4490  -13.1570 C   0  0  0  0  0  0  0  0  0  0  0  0
   43.3370   26.1290  -12.5040 C   0  0  0  0  0  0  0  0  0  0  0  0
   43.5050   26.3620  -11.1660 O   0  0  0  0  0  0  0  0  0  0  0  0
   42.2040   26.5370  -13.2140 C   0  0  0  0  0  0  0  0  0  0  0  0
   41.1050   27.2520  -12.5660 C   0  0  0  0  0  0  0  0  0  0  0  0
   41.1220   27.5230  -11.3660 O   0  0  0  0  0  0  0  0  0  0  0  0
   39.9540   27.6470  -13.4090 C   0  0  0  0  0  0  0  0  0  0  0  0
   38.9150   28.3120  -12.7830 O   0  0  0  0  0  0  0  0  0  0  0  0
   38.7470   26.9490  -16.8550 C   0  0  0  0  0  0  0  0  0  0  0  0
   37.7360   27.2510  -17.7860 C   0  0  0  0  0  0  0  0  0  0  0  0
   37.6460   26.4380  -19.0480 C   0  0  0  0  0  0  0  0  0  0  0  0
   34.9681   29.9630  -16.8866 H   0  0  0  0  0  0  0  0  0  0  0  0
   35.5113   30.8192  -18.3694 H   0  0  0  0  0  0  0  0  0  0  0  0
   33.9550   29.9221  -18.3694 H   0  0  0  0  0  0  0  0  0  0  0  0
   34.9861   27.8498  -18.5038 H   0  0  0  0  0  0  0  0  0  0  0  0
   36.1573   28.8824  -19.4295 H   0  0  0  0  0  0  0  0  0  0  0  0
   36.2642   29.8211  -16.0752 H   0  0  0  0  0  0  0  0  0  0  0  0
   38.0699   29.2769  -14.4614 H   0  0  0  0  0  0  0  0  0  0  0  0
   43.0399   25.3671  -16.3064 H   0  0  0  0  0  0  0  0  0  0  0  0
   45.0637   24.6394  -15.0397 H   0  0  0  0  0  0  0  0  0  0  0  0
   45.2537   25.1278  -12.5987 H   0  0  0  0  0  0  0  0  0  0  0  0
   43.1060   27.1090  -10.7670 H   0  0  0  0  0  0  0  0  0  0  0  0
   38.4570   27.9050  -12.0760 H   0  0  0  0  0  0  0  0  0  0  0  0
   39.4541   26.1361  -17.0770 H   0  0  0  0  0  0  0  0  0  0  0  0
   37.5283   25.3748  -18.7916 H   0  0  0  0  0  0  0  0  0  0  0  0
   36.7792   26.7711  -19.6377 H   0  0  0  0  0  0  0  0  0  0  0  0
   38.5646   26.5735  -19.6377 H   0  0  0  0  0  0  0  0  0  0  0  0
  1  2  1  0
  2  3  1  0
  3  4  2  0
  4  5  1  0
  5  6  2  0
  6  7  1  0
  7  8  1  0
  8  9  1  0
  9 10  2  0
 10 11  1  0
 11 12  2  0
 12 13  1  0
 13 14  1  0
 13 15  2  0
 15 16  1  0
 16 17  2  0
 16 18  1  0
 18 19  1  0
  6 20  1  0
 20 21  2  0
 21 22  1  0
 21  3  1  0
 18  7  2  0
 15  9  1  0
  1 23  1  0
  1 24  1  0
  1 25  1  0
  2 26  1  0
  2 27  1  0
  4 28  1  0
  5 29  1  0
 10 30  1  0
 11 31  1  0
 12 32  1  0
 14 33  1  0
 19 34  1  0
 20 35  1  0
 22 36  1  0
 22 37  1  0
 22 38  1  0
M  END
>  <meeko>  (3) 
{"is_sidechain": [false], "free_energy": -6.923, "intermolecular_energy": -8.26, "internal_energy": 0.083}

$$$$
cand_042_out
     RDKit          3D

 38 40  0  0  0  0  0  0  0  0999 V2000
   47.3440   25.2680  -14.0640 C   0  0  0  0  0  0  0  0  0  0  0  0
   46.3160   25.0670  -12.9600 C   0  0  0  0  0  0  0  0  0  0  0  0
   44.9470   25.5700  -13.3620 C   0  0  0  0  0  0  0  0  0  0  0  0
   44.6680   26.9380  -13.2120 C   0  0  0  0  0  0  0  0  0  0  0  0
   43.4200   27.4620  -13.5560 C   0  0  0  0  0  0  0  0  0  0  0  0
   42.4160   26.6340  -14.0660 C   0  0  0  0  0  0  0  0  0  0  0  0
   41.0780   27.1570  -14.4150 C   0  0  0  0  0  0  0  0  0  0  0  0
   40.6740   26.7960  -15.6960 O   0  0  0  0  0  0  0  0  0  0  0  0
   39.4510   27.2160  -16.1480 C   0  0  0  0  0  0  0  0  0  0  0  0
   39.0800   26.8190  -17.4340 C   0  0  0  0  0  0  0  0  0  0  0  0
   37.8460   27.2120  -17.9560 C   0  0  0  0  0  0  0  0  0  0  0  0
   36.9830   28.0030  -17.1950 C   0  0  0  0  0  0  0  0  0  0  0  0
   37.3560   28.3970  -15.9120 C   0  0  0  0  0  0  0  0  0  0  0  0
   36.4640   29.1720  -15.2210 O   0  0  0  0  0  0  0  0  0  0  0  0
   38.5900   28.0030  -15.3890 C   0  0  0  0  0  0  0  0  0  0  0  0
   39.0190   28.3950  -14.0470 C   0  0  0  0  0  0  0  0  0  0  0  0
   38.3190   29.0960  -13.3180 O   0  0  0  0  0  0  0  0  0  0  0  0
   40.3420   27.9180  -13.5840 C   0  0  0  0  0  0  0  0  0  0  0  0
   40.7430   28.3060  -12.3180 O   0  0  0  0  0  0  0  0  0  0  0  0
   42.6890   25.2640  -14.2020 C   0  0  0  0  0  0  0  0  0  0  0  0
   43.9390   24.7180  -13.8530 C   0  0  0  0  0  0  0  0  0  0  0  0
   44.1650   23.2440  -14.0430 C   0  0  0  0  0  0  0  0  0  0  0  0
   48.3300   25.4608  -13.6162 H   0  0  0  0  0  0  0  0  0  0  0  0
   47.3949   24.3628  -14.6869 H   0  0  0  0  0  0  0  0  0  0  0  0
   47.0502   26.1257  -14.6869 H   0  0  0  0  0  0  0  0  0  0  0  0
   46.2466   23.9934  -12.7305 H   0  0  0  0  0  0  0  0  0  0  0  0
   46.6445   25.6413  -12.0812 H   0  0  0  0  0  0  0  0  0  0  0  0
   45.4456   27.6083  -12.8169 H   0  0  0  0  0  0  0  0  0  0  0  0
   43.2253   28.5366  -13.4243 H   0  0  0  0  0  0  0  0  0  0  0  0
   39.7593   26.1971  -18.0355 H   0  0  0  0  0  0  0  0  0  0  0  0
   37.5532   26.8978  -18.9687 H   0  0  0  0  0  0  0  0  0  0  0  0
   36.0118   28.3140  -17.6073 H   0  0  0  0  0  0  0  0  0  0  0  0
   36.7730   29.8030  -14.6020 H   0  0  0  0  0  0  0  0  0  0  0  0
   41.6180   28.6050  -12.1740 H   0  0  0  0  0  0  0  0  0  0  0  0
   41.9048   24.5985  -14.5920 H   0  0  0  0  0  0  0  0  0  0  0  0
   44.2400   22.7549  -13.0606 H   0  0  0  0  0  0  0  0  0  0  0  0
   43.3224   22.8131  -14.6037 H   0  0  0  0  0  0  0  0  0  0  0  0
   45.0980   23.0854  -14.6037 H   0  0  0  0  0  0  0  0  0  0  0  0
  1  2  1  0
  2  3  1  0
  3  4  2  0
  4  5  1  0
  5  6  2  0
  6  7  1  0
  7  8  1  0
  8  9  1  0
  9 10  2  0
 10 11  1  0
 11 12  2  0
 12 13  1  0
 13 14  1  0
 13 15  2  0
 15 16  1  0
 16 17  2  0
 16 18  1  0
 18 19  1  0
  6 20  1  0
 20 21  2  0
 21 22  1  0
 21  3  1  0
 18  7  2  0
 15  9  1  0
  1 23  1  0
  1 24  1  0
  1 25  1  0
  2 26  1  0
  2 27  1  0
  4 28  1  0
  5 29  1  0
 10 30  1  0
 11 31  1  0
 12 32  1  0
 14 33  1  0
 19 34  1  0
 20 35  1  0
 22 36  1  0
 22 37  1  0
 22 38  1  0
M  END
>  <meeko>  (4) 
{"is_sidechain": [false], "free_energy": -5.665, "intermolecular_energy": -6.472, "internal_energy": -0.227}

$$$$
