cand_004_out
     RDKit          3D

 38 40  0  0  0  0  0  0  0  0999 V2000
   41.9050   26.9020  -11.0100 C   0  0  0  0  0  0  0  0  0  0  0  0
   43.2320   26.6370  -11.7050 C   0  0  0  0  0  0  0  0  0  0  0  0
   43.0430   26.2410  -13.1540 C   0  0  0  0  0  0  0  0  0  0  0  0
   41.8620   26.6550  -13.8050 C   0  0  0  0  0  0  0  0  0  0  0  0
   41.5940   26.3140  -15.1390 C   0  0  0  0  0  0  0  0  0  0  0  0
   40.3670   26.7660  -15.8260 C   0  0  0  0  0  0  0  0  0  0  0  0
   39.5750   27.5870  -15.0320 O   0  0  0  0  0  0  0  0  0  0  0  0
   38.4040   28.0790  -15.5490 C   0  0  0  0  0  0  0  0  0  0  0  0
   37.6310   28.8860  -14.7120 C   0  0  0  0  0  0  0  0  0  0  0  0
   36.4280   29.4220  -15.1770 C   0  0  0  0  0  0  0  0  0  0  0  0
   35.9970   29.1490  -16.4780 C   0  0  0  0  0  0  0  0  0  0  0  0
   36.7690   28.3440  -17.3100 C   0  0  0  0  0  0  0  0  0  0  0  0
   36.2880   28.1190  -18.5710 O   0  0  0  0  0  0  0  0  0  0  0  0
   37.9730   27.8090  -16.8450 C   0  0  0  0  0  0  0  0  0  0  0  0
   38.8140   26.9570  -17.6860 C   0  0  0  0  0  0  0  0  0  0  0  0
   38.5070   26.6780  -18.8440 O   0  0  0  0  0  0  0  0  0  0  0  0
   40.0670   26.4340  -17.0960 C   0  0  0  0  0  0  0  0  0  0  0  0
   40.8620   25.6420  -17.9030 O   0  0  0  0  0  0  0  0  0  0  0  0
   42.5430   25.5550  -15.8320 C   0  0  0  0  0  0  0  0  0  0  0  0
   43.7180   25.1340  -15.2030 C   0  0  0  0  0  0  0  0  0  0  0  0
   43.9830   25.4620  -13.8610 C   0  0  0  0  0  0  0  0  0  0  0  0
   45.2750   24.9830  -13.2300 C   0  0  0  0  0  0  0  0  0  0  0  0
   46.1570   25.9910  -12.9880 F   0  0  0  0  0  0  0  0  0  0  0  0
   45.9350   24.0830  -14.0110 F   0  0  0  0  0  0  0  0  0  0  0  0
   45.0950   24.3620  -12.0290 F   0  0  0  0  0  0  0  0  0  0  0  0
   42.0498   26.8731   -9.9200 H   0  0  0  0  0  0  0  0  0  0  0  0
   41.5287   27.8930  -11.3037 H   0  0  0  0  0  0  0  0  0  0  0  0
   41.1769   26.1315  -11.3037 H   0  0  0  0  0  0  0  0  0  0  0  0
   43.8437   27.5503  -11.6631 H   0  0  0  0  0  0  0  0  0  0  0  0
   43.7272   25.8030  -11.1862 H   0  0  0  0  0  0  0  0  0  0  0  0
   41.1309   27.2622  -13.2511 H   0  0  0  0  0  0  0  0  0  0  0  0
   37.9691   29.0995  -13.6873 H   0  0  0  0  0  0  0  0  0  0  0  0
   35.8194   30.0594  -14.5187 H   0  0  0  0  0  0  0  0  0  0  0  0
   35.0488   29.5699  -16.8438 H   0  0  0  0  0  0  0  0  0  0  0  0
   36.3250   27.2590  -18.9400 H   0  0  0  0  0  0  0  0  0  0  0  0
   41.7920   25.7580  -17.9050 H   0  0  0  0  0  0  0  0  0  0  0  0
   42.3625   25.2866  -16.8834 H   0  0  0  0  0  0  0  0  0  0  0  0
   44.4484   24.5356  -15.7673 H   0  0  0  0  0  0  0  0  0  0  0  0
  1  2  1  0
  2  3  1  0
  3  4  2  0
  4  5  1  0
  5  6  1  0
  6  7  1  0
  7  8  1  0
  8  9  2  0
  9 10  1  0
 10 11  2  0
 11 12  1  0
 12 13  1  0
 12 14  2  0
 14 15  1  0
 15 16  2  0
 15 17  1  0
 17 18  1  0
  5 19  2  0
 19 20  1  0
 20 21  2  0
 21 22  1  0
 22 23  1  0
 22 24  1  0
 22 25  1  0
 21  3  1  0
 17  6  2  0
 14  8  1  0
  1 26  1  0
  1 27  1  0
  1 28  1  0
  2 29  1  0
  2 30  1  0
  4 31  1  0
  9 32  1  0
 10 33  1  0
 11 34  1  0
 13 35  1  0
 18 36  1  0
 19 37  1  0
 20 38  1  0
M  END
>  <meeko>  (1) 
{"is_sidechain": [false], "free_energy": -7.533, "intermolecular_energy": -9.294, "internal_energy": 0.11}

$$$$
cand_004_out
     RDKit          3D

 38 40  0  0  0  0  0  0  0  0999 V2000
   46.6900   27.3220  -13.4970 C   0  0  0  0  0  0  0  0  0  0  0  0
   45.4260   27.1590  -12.6650 C   0  0  0  0  0  0  0  0  0  0  0  0
   44.3540   26.3920  -13.4110 C   0  0  0  0  0  0  0  0  0  0  0  0
   43.1160   27.0300  -13.6330 C   0  0  0  0  0  0  0  0  0  0  0  0
   42.0610   26.3860  -14.2950 C   0  0  0  0  0  0  0  0  0  0  0  0
   40.7720   27.0640  -14.5470 C   0  0  0  0  0  0  0  0  0  0  0  0
   40.2730   26.8200  -15.8210 O   0  0  0  0  0  0  0  0  0  0  0  0
   39.0800   27.3890  -16.1860 C   0  0  0  0  0  0  0  0  0  0  0  0
   38.6250   27.1310  -17.4800 C   0  0  0  0  0  0  0  0  0  0  0  0
   37.4160   27.6790  -17.9160 C   0  0  0  0  0  0  0  0  0  0  0  0
   36.6640   28.4860  -17.0580 C   0  0  0  0  0  0  0  0  0  0  0  0
   37.1210   28.7420  -15.7680 C   0  0  0  0  0  0  0  0  0  0  0  0
   36.3350   29.5380  -14.9820 O   0  0  0  0  0  0  0  0  0  0  0  0
   38.3300   28.1940  -15.3330 C   0  0  0  0  0  0  0  0  0  0  0  0
   38.8470   28.4380  -13.9860 C   0  0  0  0  0  0  0  0  0  0  0  0
   38.2400   29.1310  -13.1710 O   0  0  0  0  0  0  0  0  0  0  0  0
   40.1420   27.8170  -13.6260 C   0  0  0  0  0  0  0  0  0  0  0  0
   40.6150   28.0430  -12.3460 O   0  0  0  0  0  0  0  0  0  0  0  0
   42.2640   25.0810  -14.7530 C   0  0  0  0  0  0  0  0  0  0  0  0
   43.4830   24.4310  -14.5400 C   0  0  0  0  0  0  0  0  0  0  0  0
   44.5400   25.0690  -13.8640 C   0  0  0  0  0  0  0  0  0  0  0  0
   45.8410   24.3190  -13.6650 C   0  0  0  0  0  0  0  0  0  0  0  0
   46.8080   24.6840  -14.5510 F   0  0  0  0  0  0  0  0  0  0  0  0
   45.6940   22.9720  -13.8000 F   0  0  0  0  0  0  0  0  0  0  0  0
   46.3910   24.5050  -12.4300 F   0  0  0  0  0  0  0  0  0  0  0  0
   47.5568   27.4338  -12.8290 H   0  0  0  0  0  0  0  0  0  0  0  0
   46.8282   26.4342  -14.1316 H   0  0  0  0  0  0  0  0  0  0  0  0
   46.5985   28.2158  -14.1316 H   0  0  0  0  0  0  0  0  0  0  0  0
   45.6754   26.6150  -11.7420 H   0  0  0  0  0  0  0  0  0  0  0  0
   45.0339   28.1619  -12.4404 H   0  0  0  0  0  0  0  0  0  0  0  0
   42.9742   28.0611  -13.2771 H   0  0  0  0  0  0  0  0  0  0  0  0
   39.2176   26.4969  -18.1558 H   0  0  0  0  0  0  0  0  0  0  0  0
   37.0559   27.4751  -18.9352 H   0  0  0  0  0  0  0  0  0  0  0  0
   35.7125   28.9183  -17.4013 H   0  0  0  0  0  0  0  0  0  0  0  0
   35.9630   30.3230  -15.3330 H   0  0  0  0  0  0  0  0  0  0  0  0
   40.8450   27.3190  -11.7970 H   0  0  0  0  0  0  0  0  0  0  0  0
   41.4556   24.5599  -15.2869 H   0  0  0  0  0  0  0  0  0  0  0  0
   43.6186   23.4030  -14.9071 H   0  0  0  0  0  0  0  0  0  0  0  0
  1  2  1  0
  2  3  1  0
  3  4  2  0
  4  5  1  0
  5  6  1  0
  6  7  1  0
  7  8  1  0
  8  9  2  0
  9 10  1  0
 10 11  2  0
 11 12  1  0
 12 13  1  0
 12 14  2  0
 14 15  1  0
 15 16  2  0
 15 17  1  0
 17 18  1  0
  5 19  2  0
 19 20  1  0
 20 21  2  0
 21 22  1  0
 22 23  1  0
 22 24  1  0
 22 25  1  0
 21  3  1  0
 17  6  2  0
 14  8  1  0
  1 26  1  0
  1 27  1  0
  1 28  1  0
  2 29  1  0
  2 30  1  0
  4 31  1  0
  9 32  1  0
 10 33  1  0
 11 34  1  0
 13 35  1  0
 18 36  1  0
 19 37  1  0
 20 38  1  0
M  END
>  <meeko>  (2) 
{"is_sidechain": [false], "free_energy": -6.404, "intermolecular_energy": -8.31, "internal_energy": 0.519}

$$$$
cand_004_out
     RDKit          3D

 38 40  0  0  0  0  0  0  0  0999 V2000
   38.5380   26.5840  -19.2480 C   0  0  0  0  0  0  0  0  0  0  0  0
   37.2760   26.9160  -18.4650 C   0  0  0  0  0  0  0  0  0  0  0  0
   37.5790   27.7120  -17.2150 C   0  0  0  0  0  0  0  0  0  0  0  0
   38.6340   27.2720  -16.3880 C   0  0  0  0  0  0  0  0  0  0  0  0
   38.9690   27.9370  -15.1990 C   0  0  0  0  0  0  0  0  0  0  0  0
   40.0880   27.4880  -14.3460 C   0  0  0  0  0  0  0  0  0  0  0  0
   41.1140   26.8910  -15.0700 O   0  0  0  0  0  0  0  0  0  0  0  0
   42.2170   26.4280  -14.3980 C   0  0  0  0  0  0  0  0  0  0  0  0
   43.2150   25.8220  -15.1620 C   0  0  0  0  0  0  0  0  0  0  0  0
   44.3660   25.3300  -14.5410 C   0  0  0  0  0  0  0  0  0  0  0  0
   44.5170   25.4440  -13.1570 C   0  0  0  0  0  0  0  0  0  0  0  0
   43.5190   26.0490  -12.3980 C   0  0  0  0  0  0  0  0  0  0  0  0
   43.7320   26.1270  -11.0490 O   0  0  0  0  0  0  0  0  0  0  0  0
   42.3680   26.5400  -13.0190 C   0  0  0  0  0  0  0  0  0  0  0  0
   41.2960   27.1820  -12.2580 C   0  0  0  0  0  0  0  0  0  0  0  0
   41.3580   27.3260  -11.0380 O   0  0  0  0  0  0  0  0  0  0  0  0
   40.1140   27.6620  -13.0110 C   0  0  0  0  0  0  0  0  0  0  0  0
   39.1130   28.2790  -12.2850 O   0  0  0  0  0  0  0  0  0  0  0  0
   38.2370   29.0750  -14.8480 C   0  0  0  0  0  0  0  0  0  0  0  0
   37.1870   29.5260  -15.6530 C   0  0  0  0  0  0  0  0  0  0  0  0
   36.8380   28.8530  -16.8380 C   0  0  0  0  0  0  0  0  0  0  0  0
   35.6940   29.3870  -17.6760 C   0  0  0  0  0  0  0  0  0  0  0  0
   35.9170   30.6460  -18.1440 F   0  0  0  0  0  0  0  0  0  0  0  0
   34.5220   29.4440  -16.9830 F   0  0  0  0  0  0  0  0  0  0  0  0
   35.4300   28.6310  -18.7800 F   0  0  0  0  0  0  0  0  0  0  0  0
   39.3581   26.3683  -18.5474 H   0  0  0  0  0  0  0  0  0  0  0  0
   38.3555   25.7033  -19.8813 H   0  0  0  0  0  0  0  0  0  0  0  0
   38.8125   27.4405  -19.8813 H   0  0  0  0  0  0  0  0  0  0  0  0
   36.6041   27.5046  -19.1069 H   0  0  0  0  0  0  0  0  0  0  0  0
   36.8059   25.9694  -18.1600 H   0  0  0  0  0  0  0  0  0  0  0  0
   39.2099   26.3827  -16.6837 H   0  0  0  0  0  0  0  0  0  0  0  0
   43.0958   25.7317  -16.2518 H   0  0  0  0  0  0  0  0  0  0  0  0
   45.1537   24.8526  -15.1424 H   0  0  0  0  0  0  0  0  0  0  0  0
   45.4228   25.0565  -12.6678 H   0  0  0  0  0  0  0  0  0  0  0  0
   44.2060   25.4490  -10.6090 H   0  0  0  0  0  0  0  0  0  0  0  0
   38.7180   29.0670  -12.6060 H   0  0  0  0  0  0  0  0  0  0  0  0
   38.4902   29.6219  -13.9278 H   0  0  0  0  0  0  0  0  0  0  0  0
   36.6239   30.4226  -15.3547 H   0  0  0  0  0  0  0  0  0  0  0  0
  1  2  1  0
  2  3  1  0
  3  4  2  0
  4  5  1  0
  5  6  1  0
  6  7  1  0
  7  8  1  0
  8  9  2  0
  9 10  1  0
 10 11  2  0
 11 12  1  0
 12 13  1  0
 12 14  2  0
 14 15  1  0
 15 16  2  0
 15 17  1  0
 17 18  1  0
  5 19  2  0
 19 20  1  0
 20 21  2  0
 21 22  1  0
 22 23  1  0
 22 24  1  0
 22 25  1  0
 21  3  1  0
 17  6  2  0
 14  8  1  0
  1 26  1  0
  1 27  1  0
  1 28  1  0
  2 29  1  0
  2 30  1  0
  4 31  1  0
  9 32  1  0
 10 33  1  0
 11 34  1  0
 13 35  1  0
 18 36  1  0
 19 37  1  0
 20 38  1  0
M  END
>  <meeko>  (3) 
{"is_sidechain": [false], "free_energy": -6.134, "intermolecular_energy": -7.799, "internal_energy": 0.339}

$$$$
cand_004_out
     RDKit          3D

 38 40  0  0  0  0  0  0  0  0999 V2000
   42.5060   26.6670  -10.8450 C   0  0  0  0  0  0  0  0  0  0  0  0
   43.6100   26.6030  -11.8910 C   0  0  0  0  0  0  0  0  0  0  0  0
   43.0700   26.2510  -13.2610 C   0  0  0  0  0  0  0  0  0  0  0  0
   41.8480   26.8320  -13.6610 C   0  0  0  0  0  0  0  0  0  0  0  0
   41.2640   26.5440  -14.9030 C   0  0  0  0  0  0  0  0  0  0  0  0
   39.9950   27.1700  -15.3300 C   0  0  0  0  0  0  0  0  0  0  0  0
   39.5690   26.7310  -16.5780 O   0  0  0  0  0  0  0  0  0  0  0  0
   38.4010   27.2330  -17.0940 C   0  0  0  0  0  0  0  0  0  0  0  0
   38.0190   26.7770  -18.3560 C   0  0  0  0  0  0  0  0  0  0  0  0
   36.8390   27.2460  -18.9390 C   0  0  0  0  0  0  0  0  0  0  0  0
   36.0440   28.1730  -18.2600 C   0  0  0  0  0  0  0  0  0  0  0  0
   36.4280   28.6260  -17.0010 C   0  0  0  0  0  0  0  0  0  0  0  0
   35.6020   29.5310  -16.3930 O   0  0  0  0  0  0  0  0  0  0  0  0
   37.6080   28.1560  -16.4190 C   0  0  0  0  0  0  0  0  0  0  0  0
   38.0490   28.6070  -15.0980 C   0  0  0  0  0  0  0  0  0  0  0  0
   37.3990   29.4150  -14.4360 O   0  0  0  0  0  0  0  0  0  0  0  0
   39.3180   28.0540  -14.5730 C   0  0  0  0  0  0  0  0  0  0  0  0
   39.7180   28.4760  -13.3190 O   0  0  0  0  0  0  0  0  0  0  0  0
   41.9330   25.6690  -15.7640 C   0  0  0  0  0  0  0  0  0  0  0  0
   43.1440   25.0820  -15.3840 C   0  0  0  0  0  0  0  0  0  0  0  0
   43.7260   25.3560  -14.1330 C   0  0  0  0  0  0  0  0  0  0  0  0
   45.0420   24.6960  -13.7750 C   0  0  0  0  0  0  0  0  0  0  0  0
   44.9600   23.3380  -13.7190 F   0  0  0  0  0  0  0  0  0  0  0  0
   45.5130   25.0960  -12.5610 F   0  0  0  0  0  0  0  0  0  0  0  0
   46.0430   24.9630  -14.6620 F   0  0  0  0  0  0  0  0  0  0  0  0
   42.9515   26.6412   -9.8396 H   0  0  0  0  0  0  0  0  0  0  0  0
   41.9363   27.5997  -10.9698 H   0  0  0  0  0  0  0  0  0  0  0  0
   41.8324   25.8064  -10.9698 H   0  0  0  0  0  0  0  0  0  0  0  0
   44.1057   27.5835  -11.9453 H   0  0  0  0  0  0  0  0  0  0  0  0
   44.3183   25.8166  -11.5914 H   0  0  0  0  0  0  0  0  0  0  0  0
   41.3394   27.5301  -12.9798 H   0  0  0  0  0  0  0  0  0  0  0  0
   38.6461   26.0490  -18.8915 H   0  0  0  0  0  0  0  0  0  0  0  0
   36.5357   26.8853  -19.9329 H   0  0  0  0  0  0  0  0  0  0  0  0
   35.1161   28.5442  -18.7196 H   0  0  0  0  0  0  0  0  0  0  0  0
   35.1170   30.1440  -16.9100 H   0  0  0  0  0  0  0  0  0  0  0  0
   40.4640   29.0370  -13.2290 H   0  0  0  0  0  0  0  0  0  0  0  0
   41.5026   25.4400  -16.7500 H   0  0  0  0  0  0  0  0  0  0  0  0
   43.6508   24.3933  -16.0760 H   0  0  0  0  0  0  0  0  0  0  0  0
  1  2  1  0
  2  3  1  0
  3  4  2  0
  4  5  1  0
  5  6  1  0
  6  7  1  0
  7  8  1  0
  8  9  2  0
  9 10  1  0
 10 11  2  0
 11 12  1  0
 12 13  1  0
 12 14  2  0
 14 15  1  0
 15 16  2  0
 15 17  1  0
 17 18  1  0
  5 19  2  0
 19 20  1  0
 20 21  2  0
 21 22  1  0
 22 23  1  0
 22 24  1  0
 22 25  1  0
 21  3  1  0
 17  6  2  0
 14  8  1  0
  1 26  1  0
  1 27  1  0
  1 28  1  0
  2 29  1  0
  2 30  1  0
  4 31  1  0
  9 32  1  0
 10 33  1  0
 11 34  1  0
 13 35  1  0
 18 36  1  0
 19 37  1  0
 20 38  1  0
M  END
>  <meeko>  (4) 
{"is_sidechain": [false], "free_energy": -5.576, "intermolecular_energy": -7.285, "internal_energy": 0.515}

$$$$
