cand_052_out
     RDKit          3D

 44 46  0  0  0  0  0  0  0  0999 V2000
   48.2210   26.5060  -14.9820 C   0  0  0  0  0  0  0  0  0  0  0  0
   47.3630   26.1610  -13.7760 C   0  0  0  0  0  0  0  0  0  0  0  0
   46.6740   24.8070  -13.9480 C   0  0  0  0  0  0  0  0  0  0  0  0
   45.4650   24.6780  -13.0160 C   0  0  0  0  0  0  0  0  0  0  0  0
   44.2070   25.2290  -13.6510 C   0  0  0  0  0  0  0  0  0  0  0  0
   43.5590   24.4580  -14.6280 C   0  0  0  0  0  0  0  0  0  0  0  0
   42.3990   24.9170  -15.2560 C   0  0  0  0  0  0  0  0  0  0  0  0
   41.8500   26.1580  -14.9220 C   0  0  0  0  0  0  0  0  0  0  0  0
   40.6370   26.6790  -15.5870 C   0  0  0  0  0  0  0  0  0  0  0  0
   39.8680   27.4840  -14.7540 O   0  0  0  0  0  0  0  0  0  0  0  0
   38.7130   28.0350  -15.2440 C   0  0  0  0  0  0  0  0  0  0  0  0
   37.9810   28.8460  -14.3780 C   0  0  0  0  0  0  0  0  0  0  0  0
   36.7920   29.4380  -14.8140 C   0  0  0  0  0  0  0  0  0  0  0  0
   36.3360   29.2150  -16.1150 C   0  0  0  0  0  0  0  0  0  0  0  0
   37.0700   28.4040  -16.9780 C   0  0  0  0  0  0  0  0  0  0  0  0
   36.5660   28.2280  -18.2380 O   0  0  0  0  0  0  0  0  0  0  0  0
   38.2580   27.8140  -16.5410 C   0  0  0  0  0  0  0  0  0  0  0  0
   39.0590   26.9550  -17.4150 C   0  0  0  0  0  0  0  0  0  0  0  0
   38.7210   26.7060  -18.5710 O   0  0  0  0  0  0  0  0  0  0  0  0
   40.3070   26.3840  -16.8580 C   0  0  0  0  0  0  0  0  0  0  0  0
   41.0480   25.5630  -17.6880 O   0  0  0  0  0  0  0  0  0  0  0  0
   42.5060   26.9360  -13.9550 C   0  0  0  0  0  0  0  0  0  0  0  0
   43.6800   26.4920  -13.3180 C   0  0  0  0  0  0  0  0  0  0  0  0
   44.3190   27.3730  -12.2780 C   0  0  0  0  0  0  0  0  0  0  0  0
   49.1916   26.8963  -14.6419 H   0  0  0  0  0  0  0  0  0  0  0  0
   48.3813   25.6024  -15.5885 H   0  0  0  0  0  0  0  0  0  0  0  0
   47.7112   27.2690  -15.5885 H   0  0  0  0  0  0  0  0  0  0  0  0
   48.0017   26.1260  -12.8811 H   0  0  0  0  0  0  0  0  0  0  0  0
   46.5863   26.9330  -13.6726 H   0  0  0  0  0  0  0  0  0  0  0  0
   46.3361   24.7062  -14.9900 H   0  0  0  0  0  0  0  0  0  0  0  0
   47.3945   24.0151  -13.6954 H   0  0  0  0  0  0  0  0  0  0  0  0
   45.3089   23.6151  -12.7798 H   0  0  0  0  0  0  0  0  0  0  0  0
   45.6714   25.2584  -12.1046 H   0  0  0  0  0  0  0  0  0  0  0  0
   43.9713   23.4762  -14.9038 H   0  0  0  0  0  0  0  0  0  0  0  0
   41.9123   24.2950  -16.0217 H   0  0  0  0  0  0  0  0  0  0  0  0
   38.3387   29.0200  -13.3524 H   0  0  0  0  0  0  0  0  0  0  0  0
   36.2152   30.0799  -14.1319 H   0  0  0  0  0  0  0  0  0  0  0  0
   35.3992   29.6787  -16.4577 H   0  0  0  0  0  0  0  0  0  0  0  0
   36.2960   27.3770  -18.5200 H   0  0  0  0  0  0  0  0  0  0  0  0
   41.7530   25.0560  -17.3370 H   0  0  0  0  0  0  0  0  0  0  0  0
   42.0913   27.9192  -13.6879 H   0  0  0  0  0  0  0  0  0  0  0  0
   44.0540   27.0076  -11.2749 H   0  0  0  0  0  0  0  0  0  0  0  0
   45.4120   27.3503  -12.3996 H   0  0  0  0  0  0  0  0  0  0  0  0
   43.9579   28.4049  -12.3996 H   0  0  0  0  0  0  0  0  0  0  0  0
  1  2  1  0
  2  3  1  0
  3  4  1  0
  4  5  1  0
  5  6  2  0
  6  7  1  0
  7  8  2  0
  8  9  1  0
  9 10  1  0
 10 11  1  0
 11 12  2  0
 12 13  1  0
 13 14  2  0
 14 15  1  0
 15 16  1  0
 15 17  2  0
 17 18  1  0
 18 19  2  0
 18 20  1  0
 20 21  1  0
  8 22  1  0
 22 23  2  0
 23 24  1  0
 23  5  1  0
 20  9  2  0
 17 11  1  0
  1 25  1  0
  1 26  1  0
  1 27  1  0
  2 28  1  0
  2 29  1  0
  3 30  1  0
  3 31  1  0
  4 32  1  0
  4 33  1  0
  6 34  1  0
  7 35  1  0
 12 36  1  0
 13 37  1  0
 14 38  1  0
 16 39  1  0
 21 40  1  0
 22 41  1  0
 24 42  1  0
 24 43  1  0
 24 44  1  0
M  END
>  <meeko>  (1) 
{"is_sidechain": [false], "free_energy": -8.692, "intermolecular_energy": -11.232, "internal_energy": -0.306}

$$$$
cand_052_out
     RDKit          3D

 44 46  0  0  0  0  0  0  0  0999 V2000
   48.6680   26.6330  -14.9350 C   0  0  0  0  0  0  0  0  0  0  0  0
   47.3700   26.3980  -14.1790 C   0  0  0  0  0  0  0  0  0  0  0  0
   46.9030   24.9480  -14.3030 C   0  0  0  0  0  0  0  0  0  0  0  0
   45.8340   24.6180  -13.2570 C   0  0  0  0  0  0  0  0  0  0  0  0
   44.5080   25.2690  -13.5870 C   0  0  0  0  0  0  0  0  0  0  0  0
   43.6990   24.6750  -14.5680 C   0  0  0  0  0  0  0  0  0  0  0  0
   42.4680   25.2340  -14.9230 C   0  0  0  0  0  0  0  0  0  0  0  0
   42.0100   26.3990  -14.3030 C   0  0  0  0  0  0  0  0  0  0  0  0
   40.7230   27.0250  -14.6740 C   0  0  0  0  0  0  0  0  0  0  0  0
   40.3210   26.7050  -15.9670 O   0  0  0  0  0  0  0  0  0  0  0  0
   39.1420   27.2180  -16.4420 C   0  0  0  0  0  0  0  0  0  0  0  0
   38.7720   26.8600  -17.7380 C   0  0  0  0  0  0  0  0  0  0  0  0
   37.5820   27.3500  -18.2830 C   0  0  0  0  0  0  0  0  0  0  0  0
   36.7650   28.1980  -17.5330 C   0  0  0  0  0  0  0  0  0  0  0  0
   37.1380   28.5540  -16.2390 C   0  0  0  0  0  0  0  0  0  0  0  0
   36.2920   29.3890  -15.5600 O   0  0  0  0  0  0  0  0  0  0  0  0
   38.3280   28.0630  -15.6940 C   0  0  0  0  0  0  0  0  0  0  0  0
   38.7560   28.4120  -14.3390 C   0  0  0  0  0  0  0  0  0  0  0  0
   38.0950   29.1580  -13.6190 O   0  0  0  0  0  0  0  0  0  0  0  0
   40.0290   27.8320  -13.8520 C   0  0  0  0  0  0  0  0  0  0  0  0
   40.4310   28.1800  -12.5750 O   0  0  0  0  0  0  0  0  0  0  0  0
   42.8250   27.0010  -13.3320 C   0  0  0  0  0  0  0  0  0  0  0  0
   44.0710   26.4560  -12.9680 C   0  0  0  0  0  0  0  0  0  0  0  0
   44.8840   27.1470  -11.9070 C   0  0  0  0  0  0  0  0  0  0  0  0
   49.4885   26.7815  -14.2175 H   0  0  0  0  0  0  0  0  0  0  0  0
   48.8873   25.7600  -15.5672 H   0  0  0  0  0  0  0  0  0  0  0  0
   48.5673   27.5275  -15.5672 H   0  0  0  0  0  0  0  0  0  0  0  0
   47.5282   26.6327  -13.1160 H   0  0  0  0  0  0  0  0  0  0  0  0
   46.5958   27.0478  -14.6131 H   0  0  0  0  0  0  0  0  0  0  0  0
   46.4825   24.7913  -15.3073 H   0  0  0  0  0  0  0  0  0  0  0  0
   47.7676   24.2886  -14.1368 H   0  0  0  0  0  0  0  0  0  0  0  0
   45.6962   23.5273  -13.2200 H   0  0  0  0  0  0  0  0  0  0  0  0
   46.1739   25.0056  -12.2853 H   0  0  0  0  0  0  0  0  0  0  0  0
   44.0391   23.7548  -15.0655 H   0  0  0  0  0  0  0  0  0  0  0  0
   41.8540   24.7519  -15.6980 H   0  0  0  0  0  0  0  0  0  0  0  0
   39.4157   26.1931  -18.3303 H   0  0  0  0  0  0  0  0  0  0  0  0
   37.2886   27.0670  -19.3047 H   0  0  0  0  0  0  0  0  0  0  0  0
   35.8290   28.5841  -17.9629 H   0  0  0  0  0  0  0  0  0  0  0  0
   35.6430   29.0330  -14.9870 H   0  0  0  0  0  0  0  0  0  0  0  0
   39.8780   28.7140  -12.0400 H   0  0  0  0  0  0  0  0  0  0  0  0
   42.4809   27.9238  -12.8420 H   0  0  0  0  0  0  0  0  0  0  0  0
   44.5249   26.8418  -10.9131 H   0  0  0  0  0  0  0  0  0  0  0  0
   45.9424   26.8678  -12.0162 H   0  0  0  0  0  0  0  0  0  0  0  0
   44.7791   28.2365  -12.0162 H   0  0  0  0  0  0  0  0  0  0  0  0
  1  2  1  0
  2  3  1  0
  3  4  1  0
  4  5  1  0
  5  6  2  0
  6  7  1  0
  7  8  2  0
  8  9  1  0
  9 10  1  0
 10 11  1  0
 11 12  2  0
 12 13  1  0
 13 14  2  0
 14 15  1  0
 15 16  1  0
 15 17  2  0
 17 18  1  0
 18 19  2  0
 18 20  1  0
 20 21  1  0
  8 22  1  0
 22 23  2  0
 23 24  1  0
 23  5  1  0
 20  9  2  0
 17 11  1  0
  1 25  1  0
  1 26  1  0
  1 27  1  0
  2 28  1  0
  2 29  1  0
  3 30  1  0
  3 31  1  0
  4 32  1  0
  4 33  1  0
  6 34  1  0
  7 35  1  0
 12 36  1  0
 13 37  1  0
 14 38  1  0
 16 39  1  0
 21 40  1  0
 22 41  1  0
 24 42  1  0
 24 43  1  0
 24 44  1  0
M  END
>  <meeko>  (2) 
{"is_sidechain": [false], "free_energy": -8.425, "intermolecular_energy": -11.144, "internal_energy": -0.051}

$$$$
cand_052_out
     RDKit          3D

 44 46  0  0  0  0  0  0  0  0999 V2000
   47.7080   26.2110  -14.6140 C   0  0  0  0  0  0  0  0  0  0  0  0
   46.9580   25.3970  -13.5720 C   0  0  0  0  0  0  0  0  0  0  0  0
   46.1260   26.2920  -12.6530 C   0  0  0  0  0  0  0  0  0  0  0  0
   44.8790   25.5610  -12.1480 C   0  0  0  0  0  0  0  0  0  0  0  0
   43.6230   26.0570  -12.8300 C   0  0  0  0  0  0  0  0  0  0  0  0
   42.7840   26.9370  -12.1280 C   0  0  0  0  0  0  0  0  0  0  0  0
   41.6070   27.4220  -12.7010 C   0  0  0  0  0  0  0  0  0  0  0  0
   41.2360   27.0460  -13.9960 C   0  0  0  0  0  0  0  0  0  0  0  0
   39.9850   27.5260  -14.6180 C   0  0  0  0  0  0  0  0  0  0  0  0
   39.7670   26.9830  -15.8800 O   0  0  0  0  0  0  0  0  0  0  0  0
   38.6390   27.3430  -16.5720 C   0  0  0  0  0  0  0  0  0  0  0  0
   38.4550   26.7640  -17.8280 C   0  0  0  0  0  0  0  0  0  0  0  0
   37.3270   27.0890  -18.5870 C   0  0  0  0  0  0  0  0  0  0  0  0
   36.3870   27.9940  -18.0900 C   0  0  0  0  0  0  0  0  0  0  0  0
   36.5740   28.5710  -16.8360 C   0  0  0  0  0  0  0  0  0  0  0  0
   35.6150   29.4490  -16.4110 O   0  0  0  0  0  0  0  0  0  0  0  0
   37.7020   28.2440  -16.0780 C   0  0  0  0  0  0  0  0  0  0  0  0
   37.9360   28.8280  -14.7560 C   0  0  0  0  0  0  0  0  0  0  0  0
   37.1580   29.6360  -14.2530 O   0  0  0  0  0  0  0  0  0  0  0  0
   39.1580   28.4100  -14.0300 C   0  0  0  0  0  0  0  0  0  0  0  0
   39.3770   28.9780  -12.7880 O   0  0  0  0  0  0  0  0  0  0  0  0
   42.0680   26.1560  -14.6930 C   0  0  0  0  0  0  0  0  0  0  0  0
   43.2540   25.6510  -14.1270 C   0  0  0  0  0  0  0  0  0  0  0  0
   44.1050   24.7140  -14.9410 C   0  0  0  0  0  0  0  0  0  0  0  0
   48.3706   26.9301  -14.1102 H   0  0  0  0  0  0  0  0  0  0  0  0
   48.3086   25.5374  -15.2429 H   0  0  0  0  0  0  0  0  0  0  0  0
   46.9875   26.7545  -15.2429 H   0  0  0  0  0  0  0  0  0  0  0  0
   46.2885   24.6905  -14.0845 H   0  0  0  0  0  0  0  0  0  0  0  0
   47.6957   24.8616  -12.9563 H   0  0  0  0  0  0  0  0  0  0  0  0
   46.7404   26.5908  -11.7909 H   0  0  0  0  0  0  0  0  0  0  0  0
   45.8043   27.1749  -13.2249 H   0  0  0  0  0  0  0  0  0  0  0  0
   44.9915   24.4851  -12.3476 H   0  0  0  0  0  0  0  0  0  0  0  0
   44.7821   25.7547  -11.0695 H   0  0  0  0  0  0  0  0  0  0  0  0
   43.0586   27.2495  -11.1097 H   0  0  0  0  0  0  0  0  0  0  0  0
   40.9647   28.1070  -12.1280 H   0  0  0  0  0  0  0  0  0  0  0  0
   39.1966   26.0527  -18.2205 H   0  0  0  0  0  0  0  0  0  0  0  0
   37.1798   26.6315  -19.5764 H   0  0  0  0  0  0  0  0  0  0  0  0
   35.5001   28.2509  -18.6878 H   0  0  0  0  0  0  0  0  0  0  0  0
   34.7610   29.4330  -16.7960 H   0  0  0  0  0  0  0  0  0  0  0  0
   40.0710   29.5960  -12.6720 H   0  0  0  0  0  0  0  0  0  0  0  0
   41.7856   25.8445  -15.7095 H   0  0  0  0  0  0  0  0  0  0  0  0
   44.6895   24.0705  -14.2670 H   0  0  0  0  0  0  0  0  0  0  0  0
   43.4589   24.0895  -15.5755 H   0  0  0  0  0  0  0  0  0  0  0  0
   44.7886   25.2972  -15.5755 H   0  0  0  0  0  0  0  0  0  0  0  0
  1  2  1  0
  2  3  1  0
  3  4  1  0
  4  5  1  0
  5  6  2  0
  6  7  1  0
  7  8  2  0
  8  9  1  0
  9 10  1  0
 10 11  1  0
 11 12  2  0
 12 13  1  0
 13 14  2  0
 14 15  1  0
 15 16  1  0
 15 17  2  0
 17 18  1  0
 18 19  2  0
 18 20  1  0
 20 21  1  0
  8 22  1  0
 22 23  2  0
 23 24  1  0
 23  5  1  0
 20  9  2  0
 17 11  1  0
  1 25  1  0
  1 26  1  0
  1 27  1  0
  2 28  1  0
  2 29  1  0
  3 30  1  0
  3 31  1  0
  4 32  1  0
  4 33  1  0
  6 34  1  0
  7 35  1  0
 12 36  1  0
 13 37  1  0
 14 38  1  0
 16 39  1  0
 21 40  1  0
 22 41  1  0
 24 42  1  0
 24 43  1  0
 24 44  1  0
M  END
>  <meeko>  (3) 
{"is_sidechain": [false], "free_energy": -6.073, "intermolecular_energy": -8.387, "internal_energy": 0.233}

$$$$
