cand_036_out
     RDKit          3D

 35 37  0  0  0  0  0  0  0  0999 V2000
   45.9760   24.3780  -13.6690 C   0  0  0  0  0  0  0  0  0  0  0  0
   44.6700   25.0980  -13.8590 C   0  0  0  0  0  0  0  0  0  0  0  0
   43.6090   24.4420  -14.4970 C   0  0  0  0  0  0  0  0  0  0  0  0
   42.3820   25.0810  -14.6910 C   0  0  0  0  0  0  0  0  0  0  0  0
   42.1850   26.3960  -14.2580 C   0  0  0  0  0  0  0  0  0  0  0  0
   40.8870   27.0850  -14.4270 C   0  0  0  0  0  0  0  0  0  0  0  0
   40.3440   26.9080  -15.6930 O   0  0  0  0  0  0  0  0  0  0  0  0
   39.1390   27.4950  -15.9870 C   0  0  0  0  0  0  0  0  0  0  0  0
   38.6370   27.3040  -17.2750 C   0  0  0  0  0  0  0  0  0  0  0  0
   37.4140   27.8730  -17.6370 C   0  0  0  0  0  0  0  0  0  0  0  0
   36.6930   28.6310  -16.7130 C   0  0  0  0  0  0  0  0  0  0  0  0
   37.1960   28.8200  -15.4280 C   0  0  0  0  0  0  0  0  0  0  0  0
   36.4400   29.5730  -14.5730 O   0  0  0  0  0  0  0  0  0  0  0  0
   38.4210   28.2510  -15.0650 C   0  0  0  0  0  0  0  0  0  0  0  0
   38.9850   28.4260  -13.7260 C   0  0  0  0  0  0  0  0  0  0  0  0
   38.4070   29.0740  -12.8560 O   0  0  0  0  0  0  0  0  0  0  0  0
   40.2930   27.7880  -13.4460 C   0  0  0  0  0  0  0  0  0  0  0  0
   40.8090   27.9480  -12.1740 O   0  0  0  0  0  0  0  0  0  0  0  0
   43.2450   27.0490  -13.6100 C   0  0  0  0  0  0  0  0  0  0  0  0
   44.4850   26.4190  -13.4060 C   0  0  0  0  0  0  0  0  0  0  0  0
   45.5880   27.1720  -12.7130 C   0  0  0  0  0  0  0  0  0  0  0  0
   46.1797   24.2657  -12.5939 H   0  0  0  0  0  0  0  0  0  0  0  0
   45.9183   23.3842  -14.1370 H   0  0  0  0  0  0  0  0  0  0  0  0
   46.7855   24.9573  -14.1370 H   0  0  0  0  0  0  0  0  0  0  0  0
   43.7441   23.4090  -14.8502 H   0  0  0  0  0  0  0  0  0  0  0  0
   41.5618   24.5439  -15.1898 H   0  0  0  0  0  0  0  0  0  0  0  0
   39.2037   26.7062  -18.0040 H   0  0  0  0  0  0  0  0  0  0  0  0
   37.0182   27.7235  -18.6524 H   0  0  0  0  0  0  0  0  0  0  0  0
   35.7296   29.0782  -16.9990 H   0  0  0  0  0  0  0  0  0  0  0  0
   36.4040   30.5040  -14.6750 H   0  0  0  0  0  0  0  0  0  0  0  0
   40.2830   27.7470  -11.4250 H   0  0  0  0  0  0  0  0  0  0  0  0
   43.1019   28.0795  -13.2528 H   0  0  0  0  0  0  0  0  0  0  0  0
   45.4623   27.0862  -11.6236 H   0  0  0  0  0  0  0  0  0  0  0  0
   46.5604   26.7484  -13.0044 H   0  0  0  0  0  0  0  0  0  0  0  0
   45.5477   28.2319  -13.0044 H   0  0  0  0  0  0  0  0  0  0  0  0
  1  2  1  0
  2  3  2  0
  3  4  1  0
  4  5  2  0
  5  6  1  0
  6  7  1  0
  7  8  1  0
  8  9  2  0
  9 10  1  0
 10 11  2  0
 11 12  1  0
 12 13  1  0
 12 14  2  0
 14 15  1  0
 15 16  2  0
 15 17  1  0
 17 18  1  0
  5 19  1  0
 19 20  2  0
 20 21  1  0
 20  2  1  0
 17  6  2  0
 14  8  1  0
  1 22  1  0
  1 23  1  0
  1 24  1  0
  3 25  1  0
  4 26  1  0
  9 27  1  0
 10 28  1  0
 11 29  1  0
 13 30  1  0
 18 31  1  0
 19 32  1  0
 21 33  1  0
 21 34  1  0
 21 35  1  0
M  END
>  <meeko>  (1) 
{"is_sidechain": [false], "free_energy": -8.427, "intermolecular_energy": -9.412, "internal_energy": 0.035}

$$$$
cand_036_out
     RDKit          3D

 35 37  0  0  0  0  0  0  0  0999 V2000
   45.6220   24.7090  -13.0040 C   0  0  0  0  0  0  0  0  0  0  0  0
   44.3730   25.2330  -13.6590 C   0  0  0  0  0  0  0  0  0  0  0  0
   43.6350   24.3920  -14.5020 C   0  0  0  0  0  0  0  0  0  0  0  0
   42.4710   24.8460  -15.1270 C   0  0  0  0  0  0  0  0  0  0  0  0
   42.0180   26.1540  -14.9310 C   0  0  0  0  0  0  0  0  0  0  0  0
   40.7740   26.6500  -15.5590 C   0  0  0  0  0  0  0  0  0  0  0  0
   40.0300   27.4640  -14.7130 O   0  0  0  0  0  0  0  0  0  0  0  0
   38.8510   27.9940  -15.1700 C   0  0  0  0  0  0  0  0  0  0  0  0
   38.1280   28.7930  -14.2820 C   0  0  0  0  0  0  0  0  0  0  0  0
   36.9200   29.3650  -14.6850 C   0  0  0  0  0  0  0  0  0  0  0  0
   36.4340   29.1390  -15.9750 C   0  0  0  0  0  0  0  0  0  0  0  0
   37.1570   28.3410  -16.8590 C   0  0  0  0  0  0  0  0  0  0  0  0
   36.6230   28.1610  -18.1060 O   0  0  0  0  0  0  0  0  0  0  0  0
   38.3660   27.7680  -16.4550 C   0  0  0  0  0  0  0  0  0  0  0  0
   39.1560   26.9240  -17.3520 C   0  0  0  0  0  0  0  0  0  0  0  0
   38.7970   26.6830  -18.5030 O   0  0  0  0  0  0  0  0  0  0  0  0
   40.4190   26.3580  -16.8240 C   0  0  0  0  0  0  0  0  0  0  0  0
   41.1640   25.5730  -17.6840 O   0  0  0  0  0  0  0  0  0  0  0  0
   42.7530   26.9920  -14.0780 C   0  0  0  0  0  0  0  0  0  0  0  0
   43.9260   26.5500  -13.4400 C   0  0  0  0  0  0  0  0  0  0  0  0
   44.6780   27.4960  -12.5440 C   0  0  0  0  0  0  0  0  0  0  0  0
   45.5100   24.7560  -11.9107 H   0  0  0  0  0  0  0  0  0  0  0  0
   45.7871   23.6657  -13.3112 H   0  0  0  0  0  0  0  0  0  0  0  0
   46.4820   25.3222  -13.3112 H   0  0  0  0  0  0  0  0  0  0  0  0
   43.9765   23.3606  -14.6741 H   0  0  0  0  0  0  0  0  0  0  0  0
   41.9045   24.1666  -15.7808 H   0  0  0  0  0  0  0  0  0  0  0  0
   38.5099   28.9715  -13.2660 H   0  0  0  0  0  0  0  0  0  0  0  0
   36.3501   29.9945  -13.9858 H   0  0  0  0  0  0  0  0  0  0  0  0
   35.4823   29.5902  -16.2922 H   0  0  0  0  0  0  0  0  0  0  0  0
   37.1600   28.2700  -18.8650 H   0  0  0  0  0  0  0  0  0  0  0  0
   41.5180   25.9440  -18.4680 H   0  0  0  0  0  0  0  0  0  0  0  0
   42.4029   28.0202  -13.9041 H   0  0  0  0  0  0  0  0  0  0  0  0
   44.4769   27.2430  -11.4925 H   0  0  0  0  0  0  0  0  0  0  0  0
   45.7565   27.4094  -12.7422 H   0  0  0  0  0  0  0  0  0  0  0  0
   44.3504   28.5272  -12.7422 H   0  0  0  0  0  0  0  0  0  0  0  0
  1  2  1  0
  2  3  2  0
  3  4  1  0
  4  5  2  0
  5  6  1  0
  6  7  1  0
  7  8  1  0
  8  9  2  0
  9 10  1  0
 10 11  2  0
 11 12  1  0
 12 13  1  0
 12 14  2  0
 14 15  1  0
 15 16  2  0
 15 17  1  0
 17 18  1  0
  5 19  1  0
 19 20  2  0
 20 21  1  0
 20  2  1  0
 17  6  2  0
 14  8  1  0
  1 22  1  0
  1 23  1  0
  1 24  1  0
  3 25  1  0
  4 26  1  0
  9 27  1  0
 10 28  1  0
 11 29  1  0
 13 30  1  0
 18 31  1  0
 19 32  1  0
 21 33  1  0
 21 34  1  0
 21 35  1  0
M  END
>  <meeko>  (2) 
{"is_sidechain": [false], "free_energy": -8.148, "intermolecular_energy": -9.099, "internal_energy": 0.033}

$$$$
cand_036_out
     RDKit          3D

 35 37  0  0  0  0  0  0  0  0999 V2000
   35.5380   29.2460  -17.8320 C   0  0  0  0  0  0  0  0  0  0  0  0
   36.6930   28.7860  -16.9850 C   0  0  0  0  0  0  0  0  0  0  0  0
   36.9880   29.4680  -15.7970 C   0  0  0  0  0  0  0  0  0  0  0  0
   38.0540   29.0680  -14.9860 C   0  0  0  0  0  0  0  0  0  0  0  0
   38.8560   27.9810  -15.3450 C   0  0  0  0  0  0  0  0  0  0  0  0
   39.9730   27.5210  -14.4910 C   0  0  0  0  0  0  0  0  0  0  0  0
   40.9610   26.8580  -15.2070 O   0  0  0  0  0  0  0  0  0  0  0  0
   42.0580   26.3770  -14.5370 C   0  0  0  0  0  0  0  0  0  0  0  0
   43.0180   25.7040  -15.2930 C   0  0  0  0  0  0  0  0  0  0  0  0
   44.1600   25.1920  -14.6720 C   0  0  0  0  0  0  0  0  0  0  0  0
   44.3410   25.3530  -13.2970 C   0  0  0  0  0  0  0  0  0  0  0  0
   43.3800   26.0260  -12.5450 C   0  0  0  0  0  0  0  0  0  0  0  0
   43.6200   26.1480  -11.2040 O   0  0  0  0  0  0  0  0  0  0  0  0
   42.2380   26.5370  -13.1670 C   0  0  0  0  0  0  0  0  0  0  0  0
   41.2040   27.2500  -12.4140 C   0  0  0  0  0  0  0  0  0  0  0  0
   41.2950   27.4370  -11.2020 O   0  0  0  0  0  0  0  0  0  0  0  0
   40.0280   27.7460  -13.1660 C   0  0  0  0  0  0  0  0  0  0  0  0
   39.0650   28.4290  -12.4470 O   0  0  0  0  0  0  0  0  0  0  0  0
   38.5520   27.2930  -16.5300 C   0  0  0  0  0  0  0  0  0  0  0  0
   37.4830   27.6810  -17.3560 C   0  0  0  0  0  0  0  0  0  0  0  0
   37.2100   26.9110  -18.6190 C   0  0  0  0  0  0  0  0  0  0  0  0
   34.7140   29.5742  -17.1814 H   0  0  0  0  0  0  0  0  0  0  0  0
   35.8600   30.0845  -18.4670 H   0  0  0  0  0  0  0  0  0  0  0  0
   35.1954   28.4157  -18.4670 H   0  0  0  0  0  0  0  0  0  0  0  0
   36.3726   30.3295  -15.4986 H   0  0  0  0  0  0  0  0  0  0  0  0
   38.2640   29.6148  -14.0549 H   0  0  0  0  0  0  0  0  0  0  0  0
   42.8761   25.5766  -16.3763 H   0  0  0  0  0  0  0  0  0  0  0  0
   44.9176   24.6613  -15.2672 H   0  0  0  0  0  0  0  0  0  0  0  0
   45.2401   24.9495  -12.8084 H   0  0  0  0  0  0  0  0  0  0  0  0
   44.0260   26.9230  -10.8690 H   0  0  0  0  0  0  0  0  0  0  0  0
   38.6140   29.1510  -12.8370 H   0  0  0  0  0  0  0  0  0  0  0  0
   39.1663   26.4277  -16.8198 H   0  0  0  0  0  0  0  0  0  0  0  0
   36.8525   25.9026  -18.3636 H   0  0  0  0  0  0  0  0  0  0  0  0
   36.4424   27.4338  -19.2085 H   0  0  0  0  0  0  0  0  0  0  0  0
   38.1355   26.8335  -19.2085 H   0  0  0  0  0  0  0  0  0  0  0  0
  1  2  1  0
  2  3  2  0
  3  4  1  0
  4  5  2  0
  5  6  1  0
  6  7  1  0
  7  8  1  0
  8  9  2  0
  9 10  1  0
 10 11  2  0
 11 12  1  0
 12 13  1  0
 12 14  2  0
 14 15  1  0
 15 16  2  0
 15 17  1  0
 17 18  1  0
  5 19  1  0
 19 20  2  0
 20 21  1  0
 20  2  1  0
 17  6  2  0
 14  8  1  0
  1 22  1  0
  1 23  1  0
  1 24  1  0
  3 25  1  0
  4 26  1  0
  9 27  1  0
 10 28  1  0
 11 29  1  0
 13 30  1  0
 18 31  1  0
 19 32  1  0
 21 33  1  0
 21 34  1  0
 21 35  1  0
M  END
>  <meeko>  (3) 
{"is_sidechain": [false], "free_energy": -7.812, "intermolecular_energy": -8.899, "internal_energy": 0.207}

$$$$
cand_036_out
     RDKit          3D

 35 37  0  0  0  0  0  0  0  0999 V2000
   44.8010   25.6400  -11.8870 C   0  0  0  0  0  0  0  0  0  0  0  0
   43.5590   26.1050  -12.5980 C   0  0  0  0  0  0  0  0  0  0  0  0
   42.6040   26.8530  -11.8960 C   0  0  0  0  0  0  0  0  0  0  0  0
   41.4390   27.2990  -12.5250 C   0  0  0  0  0  0  0  0  0  0  0  0
   41.1940   27.0040  -13.8690 C   0  0  0  0  0  0  0  0  0  0  0  0
   39.9830   27.4880  -14.5650 C   0  0  0  0  0  0  0  0  0  0  0  0
   39.7960   26.8870  -15.8040 O   0  0  0  0  0  0  0  0  0  0  0  0
   38.7070   27.2450  -16.5580 C   0  0  0  0  0  0  0  0  0  0  0  0
   38.5660   26.6280  -17.8020 C   0  0  0  0  0  0  0  0  0  0  0  0
   37.4790   26.9450  -18.6180 C   0  0  0  0  0  0  0  0  0  0  0  0
   36.5320   27.8790  -18.1910 C   0  0  0  0  0  0  0  0  0  0  0  0
   36.6750   28.4930  -16.9490 C   0  0  0  0  0  0  0  0  0  0  0  0
   35.7120   29.3980  -16.5930 O   0  0  0  0  0  0  0  0  0  0  0  0
   37.7640   28.1760  -16.1330 C   0  0  0  0  0  0  0  0  0  0  0  0
   37.9520   28.7980  -14.8210 C   0  0  0  0  0  0  0  0  0  0  0  0
   37.1580   29.6240  -14.3740 O   0  0  0  0  0  0  0  0  0  0  0  0
   39.1430   28.3980  -14.0380 C   0  0  0  0  0  0  0  0  0  0  0  0
   39.3030   28.9830  -12.7950 O   0  0  0  0  0  0  0  0  0  0  0  0
   42.1570   26.2630  -14.5740 C   0  0  0  0  0  0  0  0  0  0  0  0
   43.3350   25.8080  -13.9560 C   0  0  0  0  0  0  0  0  0  0  0  0
   44.3260   25.0100  -14.7590 C   0  0  0  0  0  0  0  0  0  0  0  0
   44.6447   25.6985  -10.7997 H   0  0  0  0  0  0  0  0  0  0  0  0
   45.0182   24.5997  -12.1708 H   0  0  0  0  0  0  0  0  0  0  0  0
   45.6480   26.2819  -12.1708 H   0  0  0  0  0  0  0  0  0  0  0  0
   42.7740   27.0920  -10.8358 H   0  0  0  0  0  0  0  0  0  0  0  0
   40.7059   27.8893  -11.9557 H   0  0  0  0  0  0  0  0  0  0  0  0
   39.3111   25.8924  -18.1391 H   0  0  0  0  0  0  0  0  0  0  0  0
   37.3678   26.4588  -19.5985 H   0  0  0  0  0  0  0  0  0  0  0  0
   35.6753   28.1290  -18.8342 H   0  0  0  0  0  0  0  0  0  0  0  0
   35.8460   29.9580  -15.8540 H   0  0  0  0  0  0  0  0  0  0  0  0
   40.1570   29.2360  -12.5030 H   0  0  0  0  0  0  0  0  0  0  0  0
   41.9851   26.0331  -15.6359 H   0  0  0  0  0  0  0  0  0  0  0  0
   44.9986   24.4684  -14.0777 H   0  0  0  0  0  0  0  0  0  0  0  0
   43.7887   24.2896  -15.3932 H   0  0  0  0  0  0  0  0  0  0  0  0
   44.9153   25.6886  -15.3932 H   0  0  0  0  0  0  0  0  0  0  0  0
  1  2  1  0
  2  3  2  0
  3  4  1  0
  4  5  2  0
  5  6  1  0
  6  7  1  0
  7  8  1  0
  8  9  2  0
  9 10  1  0
 10 11  2  0
 11 12  1  0
 12 13  1  0
 12 14  2  0
 14 15  1  0
 15 16  2  0
 15 17  1  0
 17 18  1  0
  5 19  1  0
 19 20  2  0
 20 21  1  0
 20  2  1  0
 17  6  2  0
 14  8  1  0
  1 22  1  0
  1 23  1  0
  1 24  1  0
  3 25  1  0
  4 26  1  0
  9 27  1  0
 10 28  1  0
 11 29  1  0
 13 30  1  0
 18 31  1  0
 19 32  1  0
 21 33  1  0
 21 34  1  0
 21 35  1  0
M  END
>  <meeko>  (4) 
{"is_sidechain": [false], "free_energy": -6.885, "intermolecular_energy": -7.958, "internal_energy": 0.302}

$$$$
cand_036_out
     RDKit          3D

 35 37  0  0  0  0  0  0  0  0999 V2000
   44.8550   25.8570  -11.7450 C   0  0  0  0  0  0  0  0  0  0  0  0
   43.6990   26.1370  -12.6660 C   0  0  0  0  0  0  0  0  0  0  0  0
   42.6260   26.9120  -12.2060 C   0  0  0  0  0  0  0  0  0  0  0  0
   41.5360   27.1910  -13.0340 C   0  0  0  0  0  0  0  0  0  0  0  0
   41.4860   26.6970  -14.3410 C   0  0  0  0  0  0  0  0  0  0  0  0
   40.3560   27.0010  -15.2460 C   0  0  0  0  0  0  0  0  0  0  0  0
   39.4130   27.8420  -14.6680 O   0  0  0  0  0  0  0  0  0  0  0  0
   38.3110   28.2050  -15.3990 C   0  0  0  0  0  0  0  0  0  0  0  0
   37.3810   29.0380  -14.7740 C   0  0  0  0  0  0  0  0  0  0  0  0
   36.2380   29.4470  -15.4630 C   0  0  0  0  0  0  0  0  0  0  0  0
   36.0240   29.0240  -16.7770 C   0  0  0  0  0  0  0  0  0  0  0  0
   36.9530   28.1930  -17.3980 C   0  0  0  0  0  0  0  0  0  0  0  0
   36.6810   27.8160  -18.6850 O   0  0  0  0  0  0  0  0  0  0  0  0
   38.0970   27.7830  -16.7070 C   0  0  0  0  0  0  0  0  0  0  0  0
   39.0970   26.9100  -17.3230 C   0  0  0  0  0  0  0  0  0  0  0  0
   38.9820   26.5010  -18.4760 O   0  0  0  0  0  0  0  0  0  0  0  0
   40.2700   26.5270  -16.5020 C   0  0  0  0  0  0  0  0  0  0  0  0
   41.2150   25.7130  -17.0990 O   0  0  0  0  0  0  0  0  0  0  0  0
   42.5660   25.9290  -14.8030 C   0  0  0  0  0  0  0  0  0  0  0  0
   43.6710   25.6410  -13.9830 C   0  0  0  0  0  0  0  0  0  0  0  0
   44.7960   24.8050  -14.5310 C   0  0  0  0  0  0  0  0  0  0  0  0
   44.5197   25.9382  -10.7005 H   0  0  0  0  0  0  0  0  0  0  0  0
   45.2339   24.8411  -11.9305 H   0  0  0  0  0  0  0  0  0  0  0  0
   45.6567   26.5869  -11.9305 H   0  0  0  0  0  0  0  0  0  0  0  0
   42.6422   27.3060  -11.1791 H   0  0  0  0  0  0  0  0  0  0  0  0
   40.7075   27.8064  -12.6533 H   0  0  0  0  0  0  0  0  0  0  0  0
   37.5489   29.3717  -13.7394 H   0  0  0  0  0  0  0  0  0  0  0  0
   35.5050   30.1031  -14.9707 H   0  0  0  0  0  0  0  0  0  0  0  0
   35.1235   29.3467  -17.3201 H   0  0  0  0  0  0  0  0  0  0  0  0
   36.1200   27.0840  -18.8500 H   0  0  0  0  0  0  0  0  0  0  0  0
   41.7160   25.1180  -16.5770 H   0  0  0  0  0  0  0  0  0  0  0  0
   42.5474   25.5426  -15.8327 H   0  0  0  0  0  0  0  0  0  0  0  0
   45.3732   24.3761  -13.6986 H   0  0  0  0  0  0  0  0  0  0  0  0
   44.3828   23.9930  -15.1475 H   0  0  0  0  0  0  0  0  0  0  0  0
   45.4542   25.4348  -15.1475 H   0  0  0  0  0  0  0  0  0  0  0  0
  1  2  1  0
  2  3  2  0
  3  4  1  0
  4  5  2  0
  5  6  1  0
  6  7  1  0
  7  8  1  0
  8  9  2  0
  9 10  1  0
 10 11  2  0
 11 12  1  0
 12 13  1  0
 12 14  2  0
 14 15  1  0
 15 16  2  0
 15 17  1  0
 17 18  1  0
  5 19  1  0
 19 20  2  0
 20 21  1  0
 20  2  1  0
 17  6  2  0
 14  8  1  0
  1 22  1  0
  1 23  1  0
  1 24  1  0
  3 25  1  0
  4 26  1  0
  9 27  1  0
 10 28  1  0
 11 29  1  0
 13 30  1  0
 18 31  1  0
 19 32  1  0
 21 33  1  0
 21 34  1  0
 21 35  1  0
M  END
>  <meeko>  (5) 
{"is_sidechain": [false], "free_energy": -6.814, "intermolecular_energy": -7.974, "internal_energy": 0.398}

$$$$
cand_036_out
     RDKit          3D

 35 37  0  0  0  0  0  0  0  0999 V2000
   34.4940   29.4480  -18.9380 C   0  0  0  0  0  0  0  0  0  0  0  0
   35.6930   28.9120  -18.2040 C   0  0  0  0  0  0  0  0  0  0  0  0
   36.1570   29.5820  -17.0640 C   0  0  0  0  0  0  0  0  0  0  0  0
   37.2680   29.1130  -16.3580 C   0  0  0  0  0  0  0  0  0  0  0  0
   37.9490   27.9660  -16.7780 C   0  0  0  0  0  0  0  0  0  0  0  0
   39.1100   27.4340  -16.0340 C   0  0  0  0  0  0  0  0  0  0  0  0
   39.0710   27.7430  -14.6790 O   0  0  0  0  0  0  0  0  0  0  0  0
   40.0890   27.3100  -13.8690 C   0  0  0  0  0  0  0  0  0  0  0  0
   40.0170   27.6560  -12.5190 C   0  0  0  0  0  0  0  0  0  0  0  0
   41.0210   27.2440  -11.6400 C   0  0  0  0  0  0  0  0  0  0  0  0
   42.0950   26.4870  -12.1090 C   0  0  0  0  0  0  0  0  0  0  0  0
   42.1650   26.1420  -13.4570 C   0  0  0  0  0  0  0  0  0  0  0  0
   43.2450   25.3990  -13.8500 O   0  0  0  0  0  0  0  0  0  0  0  0
   41.1610   26.5550  -14.3370 C   0  0  0  0  0  0  0  0  0  0  0  0
   41.1960   26.2160  -15.7610 C   0  0  0  0  0  0  0  0  0  0  0  0
   42.1050   25.5470  -16.2480 O   0  0  0  0  0  0  0  0  0  0  0  0
   40.0870   26.7090  -16.6100 C   0  0  0  0  0  0  0  0  0  0  0  0
   40.1230   26.3710  -17.9490 O   0  0  0  0  0  0  0  0  0  0  0  0
   37.4770   27.2910  -17.9150 C   0  0  0  0  0  0  0  0  0  0  0  0
   36.3600   27.7490  -18.6350 C   0  0  0  0  0  0  0  0  0  0  0  0
   35.9050   26.9890  -19.8500 C   0  0  0  0  0  0  0  0  0  0  0  0
   33.7399   29.7851  -18.2116 H   0  0  0  0  0  0  0  0  0  0  0  0
   34.7993   30.2953  -19.5695 H   0  0  0  0  0  0  0  0  0  0  0  0
   34.0662   28.6554  -19.5695 H   0  0  0  0  0  0  0  0  0  0  0  0
   35.6395   30.4897  -16.7201 H   0  0  0  0  0  0  0  0  0  0  0  0
   37.6106   29.6518  -15.4623 H   0  0  0  0  0  0  0  0  0  0  0  0
   39.1706   28.2524  -12.1477 H   0  0  0  0  0  0  0  0  0  0  0  0
   40.9649   27.5169  -10.5759 H   0  0  0  0  0  0  0  0  0  0  0  0
   42.8852   26.1631  -11.4157 H   0  0  0  0  0  0  0  0  0  0  0  0
   43.5150   24.6600  -13.3420 H   0  0  0  0  0  0  0  0  0  0  0  0
   39.3250   26.2090  -18.4140 H   0  0  0  0  0  0  0  0  0  0  0  0
   37.9946   26.3804  -18.2510 H   0  0  0  0  0  0  0  0  0  0  0  0
   35.3636   26.0847  -19.5353 H   0  0  0  0  0  0  0  0  0  0  0  0
   35.2387   27.6245  -20.4518 H   0  0  0  0  0  0  0  0  0  0  0  0
   36.7799   26.7018  -20.4518 H   0  0  0  0  0  0  0  0  0  0  0  0
  1  2  1  0
  2  3  2  0
  3  4  1  0
  4  5  2  0
  5  6  1  0
  6  7  1  0
  7  8  1  0
  8  9  2  0
  9 10  1  0
 10 11  2  0
 11 12  1  0
 12 13  1  0
 12 14  2  0
 14 15  1  0
 15 16  2  0
 15 17  1  0
 17 18  1  0
  5 19  1  0
 19 20  2  0
 20 21  1  0
 20  2  1  0
 17  6  2  0
 14  8  1  0
  1 22  1  0
  1 23  1  0
  1 24  1  0
  3 25  1  0
  4 26  1  0
  9 27  1  0
 10 28  1  0
 11 29  1  0
 13 30  1  0
 18 31  1  0
 19 32  1  0
 21 33  1  0
 21 34  1  0
 21 35  1  0
M  END
>  <meeko>  (6) 
{"is_sidechain": [false], "free_energy": -5.912, "intermolecular_energy": -6.789, "internal_energy": 0.221}

$$$$
cand_036_out
     RDKit          3D

 35 37  0  0  0  0  0  0  0  0999 V2000
   34.9410   28.0960  -19.6670 C   0  0  0  0  0  0  0  0  0  0  0  0
   36.0950   27.8130  -18.7450 C   0  0  0  0  0  0  0  0  0  0  0  0
   36.8790   26.6700  -18.9550 C   0  0  0  0  0  0  0  0  0  0  0  0
   37.9580   26.3770  -18.1180 C   0  0  0  0  0  0  0  0  0  0  0  0
   38.2790   27.2140  -17.0450 C   0  0  0  0  0  0  0  0  0  0  0  0
   39.4320   26.9400  -16.1610 C   0  0  0  0  0  0  0  0  0  0  0  0
   39.1880   27.2780  -14.8350 O   0  0  0  0  0  0  0  0  0  0  0  0
   40.1750   27.0750  -13.9050 C   0  0  0  0  0  0  0  0  0  0  0  0
   39.8920   27.4420  -12.5890 C   0  0  0  0  0  0  0  0  0  0  0  0
   40.8540   27.2600  -11.5930 C   0  0  0  0  0  0  0  0  0  0  0  0
   42.0980   26.7110  -11.9130 C   0  0  0  0  0  0  0  0  0  0  0  0
   42.3770   26.3450  -13.2270 C   0  0  0  0  0  0  0  0  0  0  0  0
   43.6140   25.8140  -13.4710 O   0  0  0  0  0  0  0  0  0  0  0  0
   41.4150   26.5280  -14.2240 C   0  0  0  0  0  0  0  0  0  0  0  0
   41.6680   26.1580  -15.6170 C   0  0  0  0  0  0  0  0  0  0  0  0
   42.7350   25.6640  -15.9750 O   0  0  0  0  0  0  0  0  0  0  0  0
   40.5850   26.4010  -16.5980 C   0  0  0  0  0  0  0  0  0  0  0  0
   40.8300   26.0350  -17.9080 O   0  0  0  0  0  0  0  0  0  0  0  0
   37.4990   28.3640  -16.8430 C   0  0  0  0  0  0  0  0  0  0  0  0
   36.4110   28.6740  -17.6770 C   0  0  0  0  0  0  0  0  0  0  0  0
   35.6070   29.9160  -17.4060 C   0  0  0  0  0  0  0  0  0  0  0  0
   34.0422   28.3164  -19.0724 H   0  0  0  0  0  0  0  0  0  0  0  0
   35.1823   28.9616  -20.3015 H   0  0  0  0  0  0  0  0  0  0  0  0
   34.7545   27.2170  -20.3015 H   0  0  0  0  0  0  0  0  0  0  0  0
   36.6412   25.9948  -19.7902 H   0  0  0  0  0  0  0  0  0  0  0  0
   38.5624   25.4772  -18.3051 H   0  0  0  0  0  0  0  0  0  0  0  0
   38.9125   27.8741  -12.3363 H   0  0  0  0  0  0  0  0  0  0  0  0
   40.6318   27.5493  -10.5553 H   0  0  0  0  0  0  0  0  0  0  0  0
   42.8556   26.5681  -11.1284 H   0  0  0  0  0  0  0  0  0  0  0  0
   44.2630   25.8070  -12.7950 H   0  0  0  0  0  0  0  0  0  0  0  0
   40.1900   25.5450  -18.3860 H   0  0  0  0  0  0  0  0  0  0  0  0
   37.7458   29.0396  -16.0107 H   0  0  0  0  0  0  0  0  0  0  0  0
   35.5125   30.0619  -16.3198 H   0  0  0  0  0  0  0  0  0  0  0  0
   36.1142   30.7853  -17.8500 H   0  0  0  0  0  0  0  0  0  0  0  0
   34.6063   29.8091  -17.8500 H   0  0  0  0  0  0  0  0  0  0  0  0
  1  2  1  0
  2  3  2  0
  3  4  1  0
  4  5  2  0
  5  6  1  0
  6  7  1  0
  7  8  1  0
  8  9  2  0
  9 10  1  0
 10 11  2  0
 11 12  1  0
 12 13  1  0
 12 14  2  0
 14 15  1  0
 15 16  2  0
 15 17  1  0
 17 18  1  0
  5 19  1  0
 19 20  2  0
 20 21  1  0
 20  2  1  0
 17  6  2  0
 14  8  1  0
  1 22  1  0
  1 23  1  0
  1 24  1  0
  3 25  1  0
  4 26  1  0
  9 27  1  0
 10 28  1  0
 11 29  1  0
 13 30  1  0
 18 31  1  0
 19 32  1  0
 21 33  1  0
 21 34  1  0
 21 35  1  0
M  END
>  <meeko>  (7) 
{"is_sidechain": [false], "free_energy": -5.706, "intermolecular_energy": -6.436, "internal_energy": 0.098}

$$$$
cand_036_out
     RDKit          3D

 35 37  0  0  0  0  0  0  0  0999 V2000
   47.1780   24.5670  -13.0910 C   0  0  0  0  0  0  0  0  0  0  0  0
   45.8250   25.0700  -13.5140 C   0  0  0  0  0  0  0  0  0  0  0  0
   44.9400   24.1980  -14.1640 C   0  0  0  0  0  0  0  0  0  0  0  0
   43.6760   24.6320  -14.5710 C   0  0  0  0  0  0  0  0  0  0  0  0
   43.2650   25.9500  -14.3470 C   0  0  0  0  0  0  0  0  0  0  0  0
   41.9230   26.4250  -14.7440 C   0  0  0  0  0  0  0  0  0  0  0  0
   41.3230   27.2200  -13.7740 O   0  0  0  0  0  0  0  0  0  0  0  0
   40.0730   27.7300  -14.0130 C   0  0  0  0  0  0  0  0  0  0  0  0
   39.5020   28.5090  -13.0050 C   0  0  0  0  0  0  0  0  0  0  0  0
   38.2320   29.0600  -13.1860 C   0  0  0  0  0  0  0  0  0  0  0  0
   37.5330   28.8320  -14.3730 C   0  0  0  0  0  0  0  0  0  0  0  0
   38.1040   28.0540  -15.3770 C   0  0  0  0  0  0  0  0  0  0  0  0
   37.3650   27.8710  -16.5140 O   0  0  0  0  0  0  0  0  0  0  0  0
   39.3750   27.5020  -15.1950 C   0  0  0  0  0  0  0  0  0  0  0  0
   40.0120   26.6790  -16.2240 C   0  0  0  0  0  0  0  0  0  0  0  0
   39.4630   26.4390  -17.2980 O   0  0  0  0  0  0  0  0  0  0  0  0
   41.3580   26.1340  -15.9300 C   0  0  0  0  0  0  0  0  0  0  0  0
   41.9550   25.3690  -16.9140 O   0  0  0  0  0  0  0  0  0  0  0  0
   44.1490   26.8180  -13.6870 C   0  0  0  0  0  0  0  0  0  0  0  0
   45.4240   26.3970  -13.2690 C   0  0  0  0  0  0  0  0  0  0  0  0
   46.3310   27.3750  -12.5740 C   0  0  0  0  0  0  0  0  0  0  0  0
   47.2344   24.5460  -11.9926 H   0  0  0  0  0  0  0  0  0  0  0  0
   47.3315   23.5517  -13.4855 H   0  0  0  0  0  0  0  0  0  0  0  0
   47.9575   25.2354  -13.4855 H   0  0  0  0  0  0  0  0  0  0  0  0
   45.2449   23.1587  -14.3559 H   0  0  0  0  0  0  0  0  0  0  0  0
   42.9958   23.9287  -15.0737 H   0  0  0  0  0  0  0  0  0  0  0  0
   40.0520   28.6884  -12.0694 H   0  0  0  0  0  0  0  0  0  0  0  0
   37.7816   29.6744  -12.3926 H   0  0  0  0  0  0  0  0  0  0  0  0
   36.5324   29.2664  -14.5149 H   0  0  0  0  0  0  0  0  0  0  0  0
   36.4570   28.1030  -16.5240 H   0  0  0  0  0  0  0  0  0  0  0  0
   41.4570   24.7180  -17.3680 H   0  0  0  0  0  0  0  0  0  0  0  0
   43.8363   27.8544  -13.4917 H   0  0  0  0  0  0  0  0  0  0  0  0
   46.2262   27.2620  -11.4848 H   0  0  0  0  0  0  0  0  0  0  0  0
   47.3736   27.1784  -12.8644 H   0  0  0  0  0  0  0  0  0  0  0  0
   46.0565   28.3998  -12.8644 H   0  0  0  0  0  0  0  0  0  0  0  0
  1  2  1  0
  2  3  2  0
  3  4  1  0
  4  5  2  0
  5  6  1  0
  6  7  1  0
  7  8  1  0
  8  9  2  0
  9 10  1  0
 10 11  2  0
 11 12  1  0
 12 13  1  0
 12 14  2  0
 14 15  1  0
 15 16  2  0
 15 17  1  0
 17 18  1  0
  5 19  1  0
 19 20  2  0
 20 21  1  0
 20  2  1  0
 17  6  2  0
 14  8  1  0
  1 22  1  0
  1 23  1  0
  1 24  1  0
  3 25  1  0
  4 26  1  0
  9 27  1  0
 10 28  1  0
 11 29  1  0
 13 30  1  0
 18 31  1  0
 19 32  1  0
 21 33  1  0
 21 34  1  0
 21 35  1  0
M  END
>  <meeko>  (8) 
{"is_sidechain": [false], "free_energy": -5.678, "intermolecular_energy": -6.303, "internal_energy": -0.004}

$$$$
