cand_012_out
     RDKit          3D

 40 42  0  0  0  0  0  0  0  0999 V2000
   46.4280   25.9310  -13.5260 C   0  0  0  0  0  0  0  0  0  0  0  0
   45.2740   25.0730  -13.2420 N   0  0  0  0  0  0  0  0  0  0  0  0
   45.5330   23.6410  -13.4240 C   0  0  0  0  0  0  0  0  0  0  0  0
   44.0960   25.4850  -13.8930 C   0  0  0  0  0  0  0  0  0  0  0  0
   43.8270   25.1370  -15.2260 C   0  0  0  0  0  0  0  0  0  0  0  0
   42.6490   25.5440  -15.8610 C   0  0  0  0  0  0  0  0  0  0  0  0
   41.6980   26.3060  -15.1780 C   0  0  0  0  0  0  0  0  0  0  0  0
   40.4570   26.7740  -15.8310 C   0  0  0  0  0  0  0  0  0  0  0  0
   39.6810   27.5770  -15.0040 O   0  0  0  0  0  0  0  0  0  0  0  0
   38.4980   28.0770  -15.4840 C   0  0  0  0  0  0  0  0  0  0  0  0
   37.7570   28.8880  -14.6230 C   0  0  0  0  0  0  0  0  0  0  0  0
   36.5420   29.4290  -15.0500 C   0  0  0  0  0  0  0  0  0  0  0  0
   36.0690   29.1590  -16.3350 C   0  0  0  0  0  0  0  0  0  0  0  0
   36.8100   28.3490  -17.1910 C   0  0  0  0  0  0  0  0  0  0  0  0
   36.2870   28.1260  -18.4360 O   0  0  0  0  0  0  0  0  0  0  0  0
   38.0250   27.8090  -16.7650 C   0  0  0  0  0  0  0  0  0  0  0  0
   38.8350   26.9520  -17.6320 C   0  0  0  0  0  0  0  0  0  0  0  0
   38.4840   26.6640  -18.7750 O   0  0  0  0  0  0  0  0  0  0  0  0
   40.1100   26.4340  -17.0870 C   0  0  0  0  0  0  0  0  0  0  0  0
   40.8610   25.6130  -17.9090 O   0  0  0  0  0  0  0  0  0  0  0  0
   41.9660   26.6630  -13.8490 C   0  0  0  0  0  0  0  0  0  0  0  0
   43.1510   26.2590  -13.1960 C   0  0  0  0  0  0  0  0  0  0  0  0
   43.3900   26.6670  -11.7630 C   0  0  0  0  0  0  0  0  0  0  0  0
   43.8190   25.6470  -10.9650 F   0  0  0  0  0  0  0  0  0  0  0  0
   42.2540   27.1310  -11.1520 F   0  0  0  0  0  0  0  0  0  0  0  0
   44.2950   27.6780  -11.6230 F   0  0  0  0  0  0  0  0  0  0  0  0
   46.8779   26.2655  -12.5796 H   0  0  0  0  0  0  0  0  0  0  0  0
   47.1719   25.3649  -14.1058 H   0  0  0  0  0  0  0  0  0  0  0  0
   46.1002   26.8064  -14.1058 H   0  0  0  0  0  0  0  0  0  0  0  0
   45.6207   23.1563  -12.4404 H   0  0  0  0  0  0  0  0  0  0  0  0
   44.7025   23.1864  -13.9840 H   0  0  0  0  0  0  0  0  0  0  0  0
   46.4701   23.5062  -13.9840 H   0  0  0  0  0  0  0  0  0  0  0  0
   44.5576   24.5318  -15.7827 H   0  0  0  0  0  0  0  0  0  0  0  0
   42.4696   25.2612  -16.9088 H   0  0  0  0  0  0  0  0  0  0  0  0
   38.1291   29.1008  -13.6100 H   0  0  0  0  0  0  0  0  0  0  0  0
   35.9573   30.0687  -14.3726 H   0  0  0  0  0  0  0  0  0  0  0  0
   35.1123   29.5855  -16.6708 H   0  0  0  0  0  0  0  0  0  0  0  0
   35.5040   28.5660  -18.7020 H   0  0  0  0  0  0  0  0  0  0  0  0
   41.5380   25.0780  -17.5440 H   0  0  0  0  0  0  0  0  0  0  0  0
   41.2339   27.2739  -13.3005 H   0  0  0  0  0  0  0  0  0  0  0  0
  1  2  1  0
  2  3  1  0
  2  4  1  0
  4  5  2  0
  5  6  1  0
  6  7  2  0
  7  8  1  0
  8  9  1  0
  9 10  1  0
 10 11  2  0
 11 12  1  0
 12 13  2  0
 13 14  1  0
 14 15  1  0
 14 16  2  0
 16 17  1  0
 17 18  2  0
 17 19  1  0
 19 20  1  0
  7 21  1  0
 21 22  2  0
 22 23  1  0
 23 24  1  0
 23 25  1  0
 23 26  1  0
 22  4  1  0
 19  8  2  0
 16 10  1  0
  1 27  1  0
  1 28  1  0
  1 29  1  0
  3 30  1  0
  3 31  1  0
  3 32  1  0
  5 33  1  0
  6 34  1  0
 11 35  1  0
 12 36  1  0
 13 37  1  0
 15 38  1  0
 20 39  1  0
 21 40  1  0
M  END
>  <meeko>  (1) 
{"is_sidechain": [false], "free_energy": -5.311, "intermolecular_energy": -6.553, "internal_energy": 0.122}

$$$$
cand_012_out
     RDKit          3D

 40 42  0  0  0  0  0  0  0  0999 V2000
   46.1610   25.8720  -13.8850 C   0  0  0  0  0  0  0  0  0  0  0  0
   45.0050   25.0440  -13.5290 N   0  0  0  0  0  0  0  0  0  0  0  0
   45.1590   23.6240  -13.8640 C   0  0  0  0  0  0  0  0  0  0  0  0
   43.7810   25.5660  -13.9850 C   0  0  0  0  0  0  0  0  0  0  0  0
   43.3080   25.3180  -15.2840 C   0  0  0  0  0  0  0  0  0  0  0  0
   42.0860   25.8340  -15.7240 C   0  0  0  0  0  0  0  0  0  0  0  0
   41.2910   26.6080  -14.8750 C   0  0  0  0  0  0  0  0  0  0  0  0
   40.0070   27.1890  -15.3210 C   0  0  0  0  0  0  0  0  0  0  0  0
   39.6200   26.7430  -16.5790 O   0  0  0  0  0  0  0  0  0  0  0  0
   38.4470   27.2060  -17.1170 C   0  0  0  0  0  0  0  0  0  0  0  0
   38.0920   26.7220  -18.3770 C   0  0  0  0  0  0  0  0  0  0  0  0
   36.9090   27.1550  -18.9810 C   0  0  0  0  0  0  0  0  0  0  0  0
   36.0830   28.0700  -18.3260 C   0  0  0  0  0  0  0  0  0  0  0  0
   36.4410   28.5520  -17.0690 C   0  0  0  0  0  0  0  0  0  0  0  0
   35.5860   29.4470  -16.4850 O   0  0  0  0  0  0  0  0  0  0  0  0
   37.6230   28.1180  -16.4650 C   0  0  0  0  0  0  0  0  0  0  0  0
   38.0360   28.6000  -15.1460 C   0  0  0  0  0  0  0  0  0  0  0  0
   37.3660   29.4110  -14.5090 O   0  0  0  0  0  0  0  0  0  0  0  0
   39.3040   28.0740  -14.5910 C   0  0  0  0  0  0  0  0  0  0  0  0
   39.6930   28.5470  -13.3510 O   0  0  0  0  0  0  0  0  0  0  0  0
   41.7620   26.8650  -13.5790 C   0  0  0  0  0  0  0  0  0  0  0  0
   42.9950   26.3500  -13.1210 C   0  0  0  0  0  0  0  0  0  0  0  0
   43.4550   26.6530  -11.7170 C   0  0  0  0  0  0  0  0  0  0  0  0
   44.4090   27.6260  -11.6500 F   0  0  0  0  0  0  0  0  0  0  0  0
   44.0220   25.5670  -11.1030 F   0  0  0  0  0  0  0  0  0  0  0  0
   42.4480   27.0360  -10.8790 F   0  0  0  0  0  0  0  0  0  0  0  0
   46.6549   26.2258  -12.9680 H   0  0  0  0  0  0  0  0  0  0  0  0
   46.8708   25.2756  -14.4771 H   0  0  0  0  0  0  0  0  0  0  0  0
   45.8248   26.7360  -14.4771 H   0  0  0  0  0  0  0  0  0  0  0  0
   45.2230   23.0337  -12.9380 H   0  0  0  0  0  0  0  0  0  0  0  0
   44.2918   23.2900  -14.4526 H   0  0  0  0  0  0  0  0  0  0  0  0
   46.0776   23.4837  -14.4526 H   0  0  0  0  0  0  0  0  0  0  0  0
   43.9119   24.7050  -15.9692 H   0  0  0  0  0  0  0  0  0  0  0  0
   41.7464   25.6285  -16.7499 H   0  0  0  0  0  0  0  0  0  0  0  0
   38.7425   26.0009  -18.8936 H   0  0  0  0  0  0  0  0  0  0  0  0
   36.6281   26.7744  -19.9741 H   0  0  0  0  0  0  0  0  0  0  0  0
   35.1511   28.4098  -18.8015 H   0  0  0  0  0  0  0  0  0  0  0  0
   35.6100   29.5810  -15.5580 H   0  0  0  0  0  0  0  0  0  0  0  0
   40.3810   29.1800  -13.2860 H   0  0  0  0  0  0  0  0  0  0  0  0
   41.1553   27.4838  -12.9016 H   0  0  0  0  0  0  0  0  0  0  0  0
  1  2  1  0
  2  3  1  0
  2  4  1  0
  4  5  2  0
  5  6  1  0
  6  7  2  0
  7  8  1  0
  8  9  1  0
  9 10  1  0
 10 11  2  0
 11 12  1  0
 12 13  2  0
 13 14  1  0
 14 15  1  0
 14 16  2  0
 16 17  1  0
 17 18  2  0
 17 19  1  0
 19 20  1  0
  7 21  1  0
 21 22  2  0
 22 23  1  0
 23 24  1  0
 23 25  1  0
 23 26  1  0
 22  4  1  0
 19  8  2  0
 16 10  1  0
  1 27  1  0
  1 28  1  0
  1 29  1  0
  3 30  1  0
  3 31  1  0
  3 32  1  0
  5 33  1  0
  6 34  1  0
 11 35  1  0
 12 36  1  0
 13 37  1  0
 15 38  1  0
 20 39  1  0
 21 40  1  0
M  END
>  <meeko>  (2) 
{"is_sidechain": [false], "free_energy": -4.036, "intermolecular_energy": -5.15, "internal_energy": 0.292}

$$$$
cand_012_out
     RDKit          3D

 40 42  0  0  0  0  0  0  0  0999 V2000
   45.8170   24.3830  -12.2870 C   0  0  0  0  0  0  0  0  0  0  0  0
   45.4940   24.4110  -13.7160 N   0  0  0  0  0  0  0  0  0  0  0  0
   46.5750   24.9250  -14.5640 C   0  0  0  0  0  0  0  0  0  0  0  0
   44.2600   25.0270  -14.0000 C   0  0  0  0  0  0  0  0  0  0  0  0
   43.1760   24.3050  -14.5230 C   0  0  0  0  0  0  0  0  0  0  0  0
   41.9520   24.9250  -14.7930 C   0  0  0  0  0  0  0  0  0  0  0  0
   41.7710   26.2870  -14.5380 C   0  0  0  0  0  0  0  0  0  0  0  0
   40.4970   26.9750  -14.8380 C   0  0  0  0  0  0  0  0  0  0  0  0
   40.0330   26.7160  -16.1220 O   0  0  0  0  0  0  0  0  0  0  0  0
   38.8600   27.2960  -16.5330 C   0  0  0  0  0  0  0  0  0  0  0  0
   38.4250   26.9990  -17.8260 C   0  0  0  0  0  0  0  0  0  0  0  0
   37.2380   27.5570  -18.3060 C   0  0  0  0  0  0  0  0  0  0  0  0
   36.4880   28.4100  -17.4960 C   0  0  0  0  0  0  0  0  0  0  0  0
   36.9240   28.7050  -16.2070 C   0  0  0  0  0  0  0  0  0  0  0  0
   36.1400   29.5480  -15.4670 O   0  0  0  0  0  0  0  0  0  0  0  0
   38.1100   28.1460  -15.7260 C   0  0  0  0  0  0  0  0  0  0  0  0
   38.6050   28.4290  -14.3780 C   0  0  0  0  0  0  0  0  0  0  0  0
   38.0040   29.1750  -13.6070 O   0  0  0  0  0  0  0  0  0  0  0  0
   39.8710   27.7830  -13.9620 C   0  0  0  0  0  0  0  0  0  0  0  0
   40.3380   28.0690  -12.6920 O   0  0  0  0  0  0  0  0  0  0  0  0
   42.8540   27.0130  -14.0220 C   0  0  0  0  0  0  0  0  0  0  0  0
   44.0950   26.4000  -13.7440 C   0  0  0  0  0  0  0  0  0  0  0  0
   45.2270   27.2270  -13.1870 C   0  0  0  0  0  0  0  0  0  0  0  0
   45.6200   26.8480  -11.9360 F   0  0  0  0  0  0  0  0  0  0  0  0
   44.9000   28.5510  -13.0610 F   0  0  0  0  0  0  0  0  0  0  0  0
   46.3480   27.2210  -13.9650 F   0  0  0  0  0  0  0  0  0  0  0  0
   44.8902   24.4633  -11.7000 H   0  0  0  0  0  0  0  0  0  0  0  0
   46.3241   23.4375  -12.0442 H   0  0  0  0  0  0  0  0  0  0  0  0
   46.4792   25.2271  -12.0442 H   0  0  0  0  0  0  0  0  0  0  0  0
   47.3866   25.3109  -13.9297 H   0  0  0  0  0  0  0  0  0  0  0  0
   46.9602   24.1136  -15.1991 H   0  0  0  0  0  0  0  0  0  0  0  0
   46.1888   25.7359  -15.1991 H   0  0  0  0  0  0  0  0  0  0  0  0
   43.2916   23.2298  -14.7246 H   0  0  0  0  0  0  0  0  0  0  0  0
   41.1231   24.3345  -15.2104 H   0  0  0  0  0  0  0  0  0  0  0  0
   39.0160   26.3268  -18.4655 H   0  0  0  0  0  0  0  0  0  0  0  0
   36.8939   27.3235  -19.3244 H   0  0  0  0  0  0  0  0  0  0  0  0
   35.5534   28.8490  -17.8752 H   0  0  0  0  0  0  0  0  0  0  0  0
   36.4880   30.3630  -15.1610 H   0  0  0  0  0  0  0  0  0  0  0  0
   41.1560   27.7140  -12.4030 H   0  0  0  0  0  0  0  0  0  0  0  0
   42.7334   28.0891  -13.8286 H   0  0  0  0  0  0  0  0  0  0  0  0
  1  2  1  0
  2  3  1  0
  2  4  1  0
  4  5  2  0
  5  6  1  0
  6  7  2  0
  7  8  1  0
  8  9  1  0
  9 10  1  0
 10 11  2  0
 11 12  1  0
 12 13  2  0
 13 14  1  0
 14 15  1  0
 14 16  2  0
 16 17  1  0
 17 18  2  0
 17 19  1  0
 19 20  1  0
  7 21  1  0
 21 22  2  0
 22 23  1  0
 23 24  1  0
 23 25  1  0
 23 26  1  0
 22  4  1  0
 19  8  2  0
 16 10  1  0
  1 27  1  0
  1 28  1  0
  1 29  1  0
  3 30  1  0
  3 31  1  0
  3 32  1  0
  5 33  1  0
  6 34  1  0
 11 35  1  0
 12 36  1  0
 13 37  1  0
 15 38  1  0
 20 39  1  0
 21 40  1  0
M  END
>  <meeko>  (3) 
{"is_sidechain": [false], "free_energy": -3.427, "intermolecular_energy": -6.42, "internal_energy": 2.313}

$$$$
cand_012_out
     RDKit          3D

 40 42  0  0  0  0  0  0  0  0999 V2000
   42.1840   26.6080  -10.8460 C   0  0  0  0  0  0  0  0  0  0  0  0
   42.7260   26.6070  -12.2070 N   0  0  0  0  0  0  0  0  0  0  0  0
   43.8710   27.5060  -12.3970 C   0  0  0  0  0  0  0  0  0  0  0  0
   41.7450   26.7840  -13.2010 C   0  0  0  0  0  0  0  0  0  0  0  0
   40.6160   27.5920  -12.9910 C   0  0  0  0  0  0  0  0  0  0  0  0
   39.6510   27.7670  -13.9880 C   0  0  0  0  0  0  0  0  0  0  0  0
   39.7910   27.1470  -15.2320 C   0  0  0  0  0  0  0  0  0  0  0  0
   38.7750   27.2930  -16.2950 C   0  0  0  0  0  0  0  0  0  0  0  0
   37.9220   28.3700  -16.0840 O   0  0  0  0  0  0  0  0  0  0  0  0
   36.9280   28.6190  -16.9960 C   0  0  0  0  0  0  0  0  0  0  0  0
   36.1040   29.7180  -16.7500 C   0  0  0  0  0  0  0  0  0  0  0  0
   35.0710   30.0260  -17.6390 C   0  0  0  0  0  0  0  0  0  0  0  0
   34.8640   29.2370  -18.7710 C   0  0  0  0  0  0  0  0  0  0  0  0
   35.6880   28.1410  -19.0130 C   0  0  0  0  0  0  0  0  0  0  0  0
   35.4280   27.4100  -20.1410 O   0  0  0  0  0  0  0  0  0  0  0  0
   36.7210   27.8330  -18.1250 C   0  0  0  0  0  0  0  0  0  0  0  0
   37.6090   26.6900  -18.3410 C   0  0  0  0  0  0  0  0  0  0  0  0
   37.4860   25.9440  -19.3110 O   0  0  0  0  0  0  0  0  0  0  0  0
   38.6760   26.4530  -17.3430 C   0  0  0  0  0  0  0  0  0  0  0  0
   39.5000   25.3610  -17.5480 O   0  0  0  0  0  0  0  0  0  0  0  0
   40.9130   26.3330  -15.4440 C   0  0  0  0  0  0  0  0  0  0  0  0
   41.8950   26.1480  -14.4460 C   0  0  0  0  0  0  0  0  0  0  0  0
   43.0860   25.2640  -14.7260 C   0  0  0  0  0  0  0  0  0  0  0  0
   44.2650   25.7680  -14.2610 F   0  0  0  0  0  0  0  0  0  0  0  0
   43.2950   25.0730  -16.0670 F   0  0  0  0  0  0  0  0  0  0  0  0
   42.9700   24.0060  -14.2120 F   0  0  0  0  0  0  0  0  0  0  0  0
   43.0118   26.6065  -10.1217 H   0  0  0  0  0  0  0  0  0  0  0  0
   41.5682   27.5073  -10.6972 H   0  0  0  0  0  0  0  0  0  0  0  0
   41.5649   25.7110  -10.6972 H   0  0  0  0  0  0  0  0  0  0  0  0
   44.2625   27.8134  -11.4161 H   0  0  0  0  0  0  0  0  0  0  0  0
   44.6588   26.9827  -12.9586 H   0  0  0  0  0  0  0  0  0  0  0  0
   43.5495   28.3955  -12.9586 H   0  0  0  0  0  0  0  0  0  0  0  0
   40.4879   28.0977  -12.0225 H   0  0  0  0  0  0  0  0  0  0  0  0
   38.7728   28.3993  -13.7906 H   0  0  0  0  0  0  0  0  0  0  0  0
   36.2674   30.3406  -15.8580 H   0  0  0  0  0  0  0  0  0  0  0  0
   34.4201   30.8916  -17.4462 H   0  0  0  0  0  0  0  0  0  0  0  0
   34.0512   29.4804  -19.4711 H   0  0  0  0  0  0  0  0  0  0  0  0
   35.6230   27.7670  -20.9850 H   0  0  0  0  0  0  0  0  0  0  0  0
   40.0280   25.3120  -18.3210 H   0  0  0  0  0  0  0  0  0  0  0  0
   41.0313   25.8254  -16.4127 H   0  0  0  0  0  0  0  0  0  0  0  0
  1  2  1  0
  2  3  1  0
  2  4  1  0
  4  5  2  0
  5  6  1  0
  6  7  2  0
  7  8  1  0
  8  9  1  0
  9 10  1  0
 10 11  2  0
 11 12  1  0
 12 13  2  0
 13 14  1  0
 14 15  1  0
 14 16  2  0
 16 17  1  0
 17 18  2  0
 17 19  1  0
 19 20  1  0
  7 21  1  0
 21 22  2  0
 22 23  1  0
 23 24  1  0
 23 25  1  0
 23 26  1  0
 22  4  1  0
 19  8  2  0
 16 10  1  0
  1 27  1  0
  1 28  1  0
  1 29  1  0
  3 30  1  0
  3 31  1  0
  3 32  1  0
  5 33  1  0
  6 34  1  0
 11 35  1  0
 12 36  1  0
 13 37  1  0
 15 38  1  0
 20 39  1  0
 21 40  1  0
M  END
>  <meeko>  (4) 
{"is_sidechain": [false], "free_energy": -2.405, "intermolecular_energy": -3.86, "internal_energy": 1.014}

$$$$
