cand_027_out
     RDKit          3D

 44 46  0  0  0  0  0  0  0  0999 V2000
   36.7680   27.1740  -18.8730 C   0  0  0  0  0  0  0  0  0  0  0  0
   37.7840   27.1330  -17.7630 C   0  0  0  0  0  0  0  0  0  0  0  0
   38.6700   26.0330  -17.7960 C   0  0  0  0  0  0  0  0  0  0  0  0
   39.6670   25.8610  -16.8400 C   0  0  0  0  0  0  0  0  0  0  0  0
   39.8170   26.7890  -15.8180 C   0  0  0  0  0  0  0  0  0  0  0  0
   40.8520   26.6360  -14.7730 C   0  0  0  0  0  0  0  0  0  0  0  0
   42.0150   26.0400  -15.2490 O   0  0  0  0  0  0  0  0  0  0  0  0
   43.0570   25.8360  -14.3820 C   0  0  0  0  0  0  0  0  0  0  0  0
   44.2090   25.2470  -14.9040 C   0  0  0  0  0  0  0  0  0  0  0  0
   45.3080   25.0090  -14.0760 C   0  0  0  0  0  0  0  0  0  0  0  0
   45.2540   25.3590  -12.7240 C   0  0  0  0  0  0  0  0  0  0  0  0
   44.1030   25.9460  -12.2060 C   0  0  0  0  0  0  0  0  0  0  0  0
   44.1180   26.2630  -10.8750 O   0  0  0  0  0  0  0  0  0  0  0  0
   43.0050   26.1850  -13.0360 C   0  0  0  0  0  0  0  0  0  0  0  0
   41.7770   26.7990  -12.5310 C   0  0  0  0  0  0  0  0  0  0  0  0
   41.6510   27.1290  -11.3540 O   0  0  0  0  0  0  0  0  0  0  0  0
   40.6720   27.0150  -13.4940 C   0  0  0  0  0  0  0  0  0  0  0  0
   39.5110   27.5830  -13.0040 O   0  0  0  0  0  0  0  0  0  0  0  0
   38.9210   27.8740  -15.7660 C   0  0  0  0  0  0  0  0  0  0  0  0
   37.8770   28.0780  -16.7070 C   0  0  0  0  0  0  0  0  0  0  0  0
   36.9520   29.3150  -16.5450 C   0  0  0  0  0  0  0  0  0  0  0  0
   37.6640   30.6490  -16.8640 C   0  0  0  0  0  0  0  0  0  0  0  0
   36.3970   29.3460  -15.1050 C   0  0  0  0  0  0  0  0  0  0  0  0
   35.7170   29.2890  -17.4910 C   0  0  0  0  0  0  0  0  0  0  0  0
   35.7564   27.2148  -18.4428 H   0  0  0  0  0  0  0  0  0  0  0  0
   36.9388   28.0660  -19.4936 H   0  0  0  0  0  0  0  0  0  0  0  0
   36.8664   26.2712  -19.4936 H   0  0  0  0  0  0  0  0  0  0  0  0
   38.5689   25.2904  -18.6012 H   0  0  0  0  0  0  0  0  0  0  0  0
   40.3362   24.9897  -16.8941 H   0  0  0  0  0  0  0  0  0  0  0  0
   44.2516   24.9701  -15.9677 H   0  0  0  0  0  0  0  0  0  0  0  0
   46.2167   24.5458  -14.4881 H   0  0  0  0  0  0  0  0  0  0  0  0
   46.1189   25.1711  -12.0708 H   0  0  0  0  0  0  0  0  0  0  0  0
   44.8860   26.1020  -10.3640 H   0  0  0  0  0  0  0  0  0  0  0  0
   39.2590   27.4390  -12.1130 H   0  0  0  0  0  0  0  0  0  0  0  0
   39.0360   28.6041  -14.9513 H   0  0  0  0  0  0  0  0  0  0  0  0
   37.9337   31.1544  -15.9249 H   0  0  0  0  0  0  0  0  0  0  0  0
   38.5749   30.4482  -17.4471 H   0  0  0  0  0  0  0  0  0  0  0  0
   36.9902   31.2940  -17.4471 H   0  0  0  0  0  0  0  0  0  0  0  0
   37.2312   29.2994  -14.3895 H   0  0  0  0  0  0  0  0  0  0  0  0
   35.8322   30.2771  -14.9497 H   0  0  0  0  0  0  0  0  0  0  0  0
   35.7321   28.4836  -14.9497 H   0  0  0  0  0  0  0  0  0  0  0  0
   34.7955   29.2696  -16.8906 H   0  0  0  0  0  0  0  0  0  0  0  0
   35.7223   30.1875  -18.1256 H   0  0  0  0  0  0  0  0  0  0  0  0
   35.7601   28.3916  -18.1256 H   0  0  0  0  0  0  0  0  0  0  0  0
  1  2  1  0
  2  3  2  0
  3  4  1  0
  4  5  2  0
  5  6  1  0
  6  7  1  0
  7  8  1  0
  8  9  2  0
  9 10  1  0
 10 11  2  0
 11 12  1  0
 12 13  1  0
 12 14  2  0
 14 15  1  0
 15 16  2  0
 15 17  1  0
 17 18  1  0
  5 19  1  0
 19 20  2  0
 20 21  1  0
 21 22  1  0
 21 23  1  0
 21 24  1  0
 20  2  1  0
 17  6  2  0
 14  8  1  0
  1 25  1  0
  1 26  1  0
  1 27  1  0
  3 28  1  0
  4 29  1  0
  9 30  1  0
 10 31  1  0
 11 32  1  0
 13 33  1  0
 18 34  1  0
 19 35  1  0
 22 36  1  0
 22 37  1  0
 22 38  1  0
 23 39  1  0
 23 40  1  0
 23 41  1  0
 24 42  1  0
 24 43  1  0
 24 44  1  0
M  END
>  <meeko>  (1) 
{"is_sidechain": [false], "free_energy": -5.804, "intermolecular_energy": -6.822, "internal_energy": 0.71}

$$$$
cand_027_out
     RDKit          3D

 44 46  0  0  0  0  0  0  0  0999 V2000
   44.0030   25.9590  -10.7970 C   0  0  0  0  0  0  0  0  0  0  0  0
   42.9410   26.3810  -11.7790 C   0  0  0  0  0  0  0  0  0  0  0  0
   41.7230   26.8040  -11.2040 C   0  0  0  0  0  0  0  0  0  0  0  0
   40.6500   27.2280  -11.9820 C   0  0  0  0  0  0  0  0  0  0  0  0
   40.7610   27.2490  -13.3670 C   0  0  0  0  0  0  0  0  0  0  0  0
   39.6400   27.6760  -14.2310 C   0  0  0  0  0  0  0  0  0  0  0  0
   39.6110   27.0050  -15.4490 O   0  0  0  0  0  0  0  0  0  0  0  0
   38.6210   27.3070  -16.3490 C   0  0  0  0  0  0  0  0  0  0  0  0
   38.6230   26.6000  -17.5520 C   0  0  0  0  0  0  0  0  0  0  0  0
   37.6440   26.8600  -18.5140 C   0  0  0  0  0  0  0  0  0  0  0  0
   36.6650   27.8270  -18.2720 C   0  0  0  0  0  0  0  0  0  0  0  0
   36.6670   28.5300  -17.0710 C   0  0  0  0  0  0  0  0  0  0  0  0
   35.6790   29.4620  -16.9010 O   0  0  0  0  0  0  0  0  0  0  0  0
   37.6450   28.2690  -16.1090 C   0  0  0  0  0  0  0  0  0  0  0  0
   37.6830   28.9860  -14.8340 C   0  0  0  0  0  0  0  0  0  0  0  0
   36.8600   29.8540  -14.5510 O   0  0  0  0  0  0  0  0  0  0  0  0
   38.7590   28.6310  -13.8790 C   0  0  0  0  0  0  0  0  0  0  0  0
   38.7940   29.3230  -12.6840 O   0  0  0  0  0  0  0  0  0  0  0  0
   41.9650   26.8050  -13.9450 C   0  0  0  0  0  0  0  0  0  0  0  0
   43.0770   26.3450  -13.1910 C   0  0  0  0  0  0  0  0  0  0  0  0
   44.3540   25.8800  -13.9450 C   0  0  0  0  0  0  0  0  0  0  0  0
   45.4260   26.9880  -14.0580 C   0  0  0  0  0  0  0  0  0  0  0  0
   43.9580   25.3840  -15.3520 C   0  0  0  0  0  0  0  0  0  0  0  0
   45.0820   24.6930  -13.2500 C   0  0  0  0  0  0  0  0  0  0  0  0
   43.6333   26.1059   -9.7715 H   0  0  0  0  0  0  0  0  0  0  0  0
   44.2438   24.8968  -10.9513 H   0  0  0  0  0  0  0  0  0  0  0  0
   44.9072   26.5662  -10.9513 H   0  0  0  0  0  0  0  0  0  0  0  0
   41.6191   26.7983  -10.1089 H   0  0  0  0  0  0  0  0  0  0  0  0
   39.7137   27.5466  -11.5005 H   0  0  0  0  0  0  0  0  0  0  0  0
   39.3942   25.8391  -17.7425 H   0  0  0  0  0  0  0  0  0  0  0  0
   37.6439   26.3031  -19.4626 H   0  0  0  0  0  0  0  0  0  0  0  0
   35.8941   28.0323  -19.0294 H   0  0  0  0  0  0  0  0  0  0  0  0
   35.5540   30.1340  -17.5410 H   0  0  0  0  0  0  0  0  0  0  0  0
   39.1780   30.1770  -12.6480 H   0  0  0  0  0  0  0  0  0  0  0  0
   42.0493   26.8148  -15.0417 H   0  0  0  0  0  0  0  0  0  0  0  0
   45.7330   27.3053  -13.0505 H   0  0  0  0  0  0  0  0  0  0  0  0
   46.2994   26.5991  -14.6020 H   0  0  0  0  0  0  0  0  0  0  0  0
   45.0084   27.8481  -14.6020 H   0  0  0  0  0  0  0  0  0  0  0  0
   43.2741   24.5274  -15.2598 H   0  0  0  0  0  0  0  0  0  0  0  0
   43.4570   26.1959  -15.8995 H   0  0  0  0  0  0  0  0  0  0  0  0
   44.8607   25.0752  -15.8995 H   0  0  0  0  0  0  0  0  0  0  0  0
   45.0114   24.8081  -12.1583 H   0  0  0  0  0  0  0  0  0  0  0  0
   44.6090   23.7464  -13.5502 H   0  0  0  0  0  0  0  0  0  0  0  0
   46.1402   24.6855  -13.5502 H   0  0  0  0  0  0  0  0  0  0  0  0
  1  2  1  0
  2  3  2  0
  3  4  1  0
  4  5  2  0
  5  6  1  0
  6  7  1  0
  7  8  1  0
  8  9  2  0
  9 10  1  0
 10 11  2  0
 11 12  1  0
 12 13  1  0
 12 14  2  0
 14 15  1  0
 15 16  2  0
 15 17  1  0
 17 18  1  0
  5 19  1  0
 19 20  2  0
 20 21  1  0
 21 22  1  0
 21 23  1  0
 21 24  1  0
 20  2  1  0
 17  6  2  0
 14  8  1  0
  1 25  1  0
  1 26  1  0
  1 27  1  0
  3 28  1  0
  4 29  1  0
  9 30  1  0
 10 31  1  0
 11 32  1  0
 13 33  1  0
 18 34  1  0
 19 35  1  0
 22 36  1  0
 22 37  1  0
 22 38  1  0
 23 39  1  0
 23 40  1  0
 23 41  1  0
 24 42  1  0
 24 43  1  0
 24 44  1  0
M  END
>  <meeko>  (2) 
{"is_sidechain": [false], "free_energy": -5.148, "intermolecular_energy": -5.631, "internal_energy": 0.289}

$$$$
cand_027_out
     RDKit          3D

 44 46  0  0  0  0  0  0  0  0999 V2000
   42.0080   27.0060  -11.2010 C   0  0  0  0  0  0  0  0  0  0  0  0
   41.2210   27.0640  -12.4830 C   0  0  0  0  0  0  0  0  0  0  0  0
   39.8590   27.4080  -12.3400 C   0  0  0  0  0  0  0  0  0  0  0  0
   39.0050   27.5060  -13.4350 C   0  0  0  0  0  0  0  0  0  0  0  0
   39.4880   27.2690  -14.7160 C   0  0  0  0  0  0  0  0  0  0  0  0
   38.6120   27.3470  -15.9040 C   0  0  0  0  0  0  0  0  0  0  0  0
   37.6880   28.3840  -15.8270 O   0  0  0  0  0  0  0  0  0  0  0  0
   36.8110   28.5690  -16.8640 C   0  0  0  0  0  0  0  0  0  0  0  0
   35.9100   29.6290  -16.7500 C   0  0  0  0  0  0  0  0  0  0  0  0
   34.9870   29.8720  -17.7700 C   0  0  0  0  0  0  0  0  0  0  0  0
   34.9650   29.0550  -18.9030 C   0  0  0  0  0  0  0  0  0  0  0  0
   35.8650   27.9980  -19.0130 C   0  0  0  0  0  0  0  0  0  0  0  0
   35.7870   27.2380  -20.1490 O   0  0  0  0  0  0  0  0  0  0  0  0
   36.7880   27.7560  -17.9930 C   0  0  0  0  0  0  0  0  0  0  0  0
   37.7500   26.6570  -18.0700 C   0  0  0  0  0  0  0  0  0  0  0  0
   37.7890   25.8910  -19.0310 O   0  0  0  0  0  0  0  0  0  0  0  0
   38.6910   26.4880  -16.9380 C   0  0  0  0  0  0  0  0  0  0  0  0
   39.5860   25.4380  -17.0130 O   0  0  0  0  0  0  0  0  0  0  0  0
   40.8390   26.9030  -14.8620 C   0  0  0  0  0  0  0  0  0  0  0  0
   41.7400   26.7700  -13.7720 C   0  0  0  0  0  0  0  0  0  0  0  0
   43.2110   26.3600  -14.0600 C   0  0  0  0  0  0  0  0  0  0  0  0
   44.1360   27.5700  -14.3230 C   0  0  0  0  0  0  0  0  0  0  0  0
   43.2410   25.4020  -15.2700 C   0  0  0  0  0  0  0  0  0  0  0  0
   43.8810   25.5980  -12.8800 C   0  0  0  0  0  0  0  0  0  0  0  0
   41.3189   27.0568  -10.3451 H   0  0  0  0  0  0  0  0  0  0  0  0
   42.5741   26.0637  -11.1606 H   0  0  0  0  0  0  0  0  0  0  0  0
   42.7061   27.8551  -11.1606 H   0  0  0  0  0  0  0  0  0  0  0  0
   39.4610   27.6044  -11.3335 H   0  0  0  0  0  0  0  0  0  0  0  0
   37.9479   27.7711  -13.2861 H   0  0  0  0  0  0  0  0  0  0  0  0
   35.9268   30.2723  -15.8579 H   0  0  0  0  0  0  0  0  0  0  0  0
   34.2769   30.7074  -17.6810 H   0  0  0  0  0  0  0  0  0  0  0  0
   34.2384   29.2462  -19.7064 H   0  0  0  0  0  0  0  0  0  0  0  0
   35.1010   26.6090  -20.2450 H   0  0  0  0  0  0  0  0  0  0  0  0
   40.0370   25.2650  -17.8160 H   0  0  0  0  0  0  0  0  0  0  0  0
   41.2182   26.7092  -15.8762 H   0  0  0  0  0  0  0  0  0  0  0  0
   44.4626   27.9972  -13.3634 H   0  0  0  0  0  0  0  0  0  0  0  0
   45.0154   27.2415  -14.8964 H   0  0  0  0  0  0  0  0  0  0  0  0
   43.5883   28.3324  -14.8964 H   0  0  0  0  0  0  0  0  0  0  0  0
   43.2736   24.3619  -14.9135 H   0  0  0  0  0  0  0  0  0  0  0  0
   42.3377   25.5526  -15.8794 H   0  0  0  0  0  0  0  0  0  0  0  0
   44.1331   25.6088  -15.8794 H   0  0  0  0  0  0  0  0  0  0  0  0
   43.5196   26.0090  -11.9258 H   0  0  0  0  0  0  0  0  0  0  0  0
   43.6240   24.5301  -12.9401 H   0  0  0  0  0  0  0  0  0  0  0  0
   44.9730   25.7163  -12.9401 H   0  0  0  0  0  0  0  0  0  0  0  0
  1  2  1  0
  2  3  2  0
  3  4  1  0
  4  5  2  0
  5  6  1  0
  6  7  1  0
  7  8  1  0
  8  9  2  0
  9 10  1  0
 10 11  2  0
 11 12  1  0
 12 13  1  0
 12 14  2  0
 14 15  1  0
 15 16  2  0
 15 17  1  0
 17 18  1  0
  5 19  1  0
 19 20  2  0
 20 21  1  0
 21 22  1  0
 21 23  1  0
 21 24  1  0
 20  2  1  0
 17  6  2  0
 14  8  1  0
  1 25  1  0
  1 26  1  0
  1 27  1  0
  3 28  1  0
  4 29  1  0
  9 30  1  0
 10 31  1  0
 11 32  1  0
 13 33  1  0
 18 34  1  0
 19 35  1  0
 22 36  1  0
 22 37  1  0
 22 38  1  0
 23 39  1  0
 23 40  1  0
 23 41  1  0
 24 42  1  0
 24 43  1  0
 24 44  1  0
M  END
>  <meeko>  (3) 
{"is_sidechain": [false], "free_energy": -4.912, "intermolecular_energy": -5.47, "internal_energy": 0.405}

$$$$
cand_027_out
     RDKit          3D

 44 46  0  0  0  0  0  0  0  0999 V2000
   44.0070   26.2220  -10.6120 C   0  0  0  0  0  0  0  0  0  0  0  0
   43.0910   26.4290  -11.7890 C   0  0  0  0  0  0  0  0  0  0  0  0
   41.7770   26.8350  -11.4670 C   0  0  0  0  0  0  0  0  0  0  0  0
   40.8180   27.0700  -12.4470 C   0  0  0  0  0  0  0  0  0  0  0  0
   41.1430   26.9130  -13.7890 C   0  0  0  0  0  0  0  0  0  0  0  0
   40.1500   27.1380  -14.8610 C   0  0  0  0  0  0  0  0  0  0  0  0
   39.1280   27.9990  -14.4790 O   0  0  0  0  0  0  0  0  0  0  0  0
   38.1360   28.2930  -15.3790 C   0  0  0  0  0  0  0  0  0  0  0  0
   37.1370   29.1710  -14.9570 C   0  0  0  0  0  0  0  0  0  0  0  0
   36.0960   29.5110  -15.8240 C   0  0  0  0  0  0  0  0  0  0  0  0
   36.0540   28.9720  -17.1130 C   0  0  0  0  0  0  0  0  0  0  0  0
   37.0530   28.0960  -17.5300 C   0  0  0  0  0  0  0  0  0  0  0  0
   36.9490   27.6050  -18.8030 O   0  0  0  0  0  0  0  0  0  0  0  0
   38.0940   27.7570  -16.6630 C   0  0  0  0  0  0  0  0  0  0  0  0
   39.1620   26.8400  -17.0620 C   0  0  0  0  0  0  0  0  0  0  0  0
   39.1910   26.3210  -18.1760 O   0  0  0  0  0  0  0  0  0  0  0  0
   40.2230   26.5500  -16.0700 C   0  0  0  0  0  0  0  0  0  0  0  0
   41.2200   25.6720  -16.4520 O   0  0  0  0  0  0  0  0  0  0  0  0
   42.4440   26.4860  -14.1140 C   0  0  0  0  0  0  0  0  0  0  0  0
   43.4470   26.2140  -13.1470 C   0  0  0  0  0  0  0  0  0  0  0  0
   44.8490   25.7470  -13.6290 C   0  0  0  0  0  0  0  0  0  0  0  0
   45.8910   26.8890  -13.6510 C   0  0  0  0  0  0  0  0  0  0  0  0
   44.7180   25.1270  -15.0360 C   0  0  0  0  0  0  0  0  0  0  0  0
   45.4800   24.6520  -12.7230 C   0  0  0  0  0  0  0  0  0  0  0  0
   43.4393   26.3503   -9.6786 H   0  0  0  0  0  0  0  0  0  0  0  0
   44.4275   25.2062  -10.6488 H   0  0  0  0  0  0  0  0  0  0  0  0
   44.8234   26.9583  -10.6488 H   0  0  0  0  0  0  0  0  0  0  0  0
   41.5039   26.9694  -10.4100 H   0  0  0  0  0  0  0  0  0  0  0  0
   39.8025   27.3801  -12.1597 H   0  0  0  0  0  0  0  0  0  0  0  0
   37.1692   29.5950  -13.9425 H   0  0  0  0  0  0  0  0  0  0  0  0
   35.3085   30.2036  -15.4921 H   0  0  0  0  0  0  0  0  0  0  0  0
   35.2342   29.2390  -17.7961 H   0  0  0  0  0  0  0  0  0  0  0  0
   36.5730   26.7610  -18.9510 H   0  0  0  0  0  0  0  0  0  0  0  0
   41.7250   25.2250  -15.8020 H   0  0  0  0  0  0  0  0  0  0  0  0
   42.6978   26.3558  -15.1764 H   0  0  0  0  0  0  0  0  0  0  0  0
   46.1481   27.1707  -12.6192 H   0  0  0  0  0  0  0  0  0  0  0  0
   46.7966   26.5490  -14.1747 H   0  0  0  0  0  0  0  0  0  0  0  0
   45.4697   27.7598  -14.1747 H   0  0  0  0  0  0  0  0  0  0  0  0
   44.4914   24.0545  -14.9444 H   0  0  0  0  0  0  0  0  0  0  0  0
   43.9059   25.6279  -15.5833 H   0  0  0  0  0  0  0  0  0  0  0  0
   45.6634   25.2566  -15.5833 H   0  0  0  0  0  0  0  0  0  0  0  0
   45.3271   24.9173  -11.6665 H   0  0  0  0  0  0  0  0  0  0  0  0
   45.0015   23.6836  -12.9308 H   0  0  0  0  0  0  0  0  0  0  0  0
   46.5578   24.5805  -12.9308 H   0  0  0  0  0  0  0  0  0  0  0  0
  1  2  1  0
  2  3  2  0
  3  4  1  0
  4  5  2  0
  5  6  1  0
  6  7  1  0
  7  8  1  0
  8  9  2  0
  9 10  1  0
 10 11  2  0
 11 12  1  0
 12 13  1  0
 12 14  2  0
 14 15  1  0
 15 16  2  0
 15 17  1  0
 17 18  1  0
  5 19  1  0
 19 20  2  0
 20 21  1  0
 21 22  1  0
 21 23  1  0
 21 24  1  0
 20  2  1  0
 17  6  2  0
 14  8  1  0
  1 25  1  0
  1 26  1  0
  1 27  1  0
  3 28  1  0
  4 29  1  0
  9 30  1  0
 10 31  1  0
 11 32  1  0
 13 33  1  0
 18 34  1  0
 19 35  1  0
 22 36  1  0
 22 37  1  0
 22 38  1  0
 23 39  1  0
 23 40  1  0
 23 41  1  0
 24 42  1  0
 24 43  1  0
 24 44  1  0
M  END
>  <meeko>  (4) 
{"is_sidechain": [false], "free_energy": -4.825, "intermolecular_energy": -5.348, "internal_energy": 0.386}

$$$$
cand_027_out
     RDKit          3D

 44 46  0  0  0  0  0  0  0  0999 V2000
   45.3320   24.0210  -13.2690 C   0  0  0  0  0  0  0  0  0  0  0  0
   44.1660   24.7580  -13.8730 C   0  0  0  0  0  0  0  0  0  0  0  0
   43.1610   23.9390  -14.4330 C   0  0  0  0  0  0  0  0  0  0  0  0
   42.0200   24.4730  -15.0240 C   0  0  0  0  0  0  0  0  0  0  0  0
   41.8410   25.8500  -15.0690 C   0  0  0  0  0  0  0  0  0  0  0  0
   40.6520   26.4600  -15.7020 C   0  0  0  0  0  0  0  0  0  0  0  0
   39.9140   27.2440  -14.8210 O   0  0  0  0  0  0  0  0  0  0  0  0
   38.7820   27.8680  -15.2780 C   0  0  0  0  0  0  0  0  0  0  0  0
   38.0790   28.6540  -14.3630 C   0  0  0  0  0  0  0  0  0  0  0  0
   36.9160   29.3160  -14.7630 C   0  0  0  0  0  0  0  0  0  0  0  0
   36.4560   29.1910  -16.0750 C   0  0  0  0  0  0  0  0  0  0  0  0
   37.1590   28.4060  -16.9850 C   0  0  0  0  0  0  0  0  0  0  0  0
   36.6510   28.3270  -18.2530 O   0  0  0  0  0  0  0  0  0  0  0  0
   38.3220   27.7440  -16.5860 C   0  0  0  0  0  0  0  0  0  0  0  0
   39.0900   26.9100  -17.5090 C   0  0  0  0  0  0  0  0  0  0  0  0
   38.7460   26.7460  -18.6780 O   0  0  0  0  0  0  0  0  0  0  0  0
   40.3130   26.2560  -16.9880 C   0  0  0  0  0  0  0  0  0  0  0  0
   41.0240   25.4580  -17.8660 O   0  0  0  0  0  0  0  0  0  0  0  0
   42.8510   26.6710  -14.5340 C   0  0  0  0  0  0  0  0  0  0  0  0
   44.0400   26.1700  -13.9410 C   0  0  0  0  0  0  0  0  0  0  0  0
   45.0830   27.1780  -13.3830 C   0  0  0  0  0  0  0  0  0  0  0  0
   45.2090   27.1270  -11.8430 C   0  0  0  0  0  0  0  0  0  0  0  0
   44.7000   28.6030  -13.8330 C   0  0  0  0  0  0  0  0  0  0  0  0
   46.5260   26.9250  -13.9070 C   0  0  0  0  0  0  0  0  0  0  0  0
   45.2643   24.0638  -12.1719 H   0  0  0  0  0  0  0  0  0  0  0  0
   45.3119   22.9712  -13.5969 H   0  0  0  0  0  0  0  0  0  0  0  0
   46.2716   24.4896  -13.5969 H   0  0  0  0  0  0  0  0  0  0  0  0
   43.2838   22.8463  -14.4010 H   0  0  0  0  0  0  0  0  0  0  0  0
   41.2599   23.8050  -15.4555 H   0  0  0  0  0  0  0  0  0  0  0  0
   38.4405   28.7518  -13.3287 H   0  0  0  0  0  0  0  0  0  0  0  0
   36.3619   29.9366  -14.0433 H   0  0  0  0  0  0  0  0  0  0  0  0
   35.5396   29.7119  -16.3894 H   0  0  0  0  0  0  0  0  0  0  0  0
   36.4910   29.1090  -18.7430 H   0  0  0  0  0  0  0  0  0  0  0  0
   40.5720   24.8490  -18.4150 H   0  0  0  0  0  0  0  0  0  0  0  0
   42.7117   27.7613  -14.5776 H   0  0  0  0  0  0  0  0  0  0  0  0
   44.2813   27.5025  -11.3866 H   0  0  0  0  0  0  0  0  0  0  0  0
   45.3807   26.0886  -11.5233 H   0  0  0  0  0  0  0  0  0  0  0  0
   46.0547   27.7536  -11.5233 H   0  0  0  0  0  0  0  0  0  0  0  0
   44.5304   29.2339  -12.9480 H   0  0  0  0  0  0  0  0  0  0  0  0
   45.5156   29.0287  -14.4360 H   0  0  0  0  0  0  0  0  0  0  0  0
   43.7809   28.5625  -14.4360 H   0  0  0  0  0  0  0  0  0  0  0  0
   47.2101   26.8051  -13.0540 H   0  0  0  0  0  0  0  0  0  0  0  0
   46.5389   26.0109  -14.5187 H   0  0  0  0  0  0  0  0  0  0  0  0
   46.8492   27.7802  -14.5187 H   0  0  0  0  0  0  0  0  0  0  0  0
  1  2  1  0
  2  3  2  0
  3  4  1  0
  4  5  2  0
  5  6  1  0
  6  7  1  0
  7  8  1  0
  8  9  2  0
  9 10  1  0
 10 11  2  0
 11 12  1  0
 12 13  1  0
 12 14  2  0
 14 15  1  0
 15 16  2  0
 15 17  1  0
 17 18  1  0
  5 19  1  0
 19 20  2  0
 20 21  1  0
 21 22  1  0
 21 23  1  0
 21 24  1  0
 20  2  1  0
 17  6  2  0
 14  8  1  0
  1 25  1  0
  1 26  1  0
  1 27  1  0
  3 28  1  0
  4 29  1  0
  9 30  1  0
 10 31  1  0
 11 32  1  0
 13 33  1  0
 18 34  1  0
 19 35  1  0
 22 36  1  0
 22 37  1  0
 22 38  1  0
 23 39  1  0
 23 40  1  0
 23 41  1  0
 24 42  1  0
 24 43  1  0
 24 44  1  0
M  END
>  <meeko>  (5) 
{"is_sidechain": [false], "free_energy": -4.526, "intermolecular_energy": -4.472, "internal_energy": -0.138}

$$$$
cand_027_out
     RDKit          3D

 44 46  0  0  0  0  0  0  0  0999 V2000
   45.6150   23.8160  -13.8590 C   0  0  0  0  0  0  0  0  0  0  0  0
   44.4060   24.6990  -14.0200 C   0  0  0  0  0  0  0  0  0  0  0  0
   43.2190   24.0330  -14.3990 C   0  0  0  0  0  0  0  0  0  0  0  0
   42.0190   24.7130  -14.5820 C   0  0  0  0  0  0  0  0  0  0  0  0
   41.9630   26.0870  -14.3850 C   0  0  0  0  0  0  0  0  0  0  0  0
   40.7120   26.8510  -14.5840 C   0  0  0  0  0  0  0  0  0  0  0  0
   40.1960   26.7170  -15.8690 O   0  0  0  0  0  0  0  0  0  0  0  0
   39.0380   27.3760  -16.1900 C   0  0  0  0  0  0  0  0  0  0  0  0
   38.5490   27.2030  -17.4860 C   0  0  0  0  0  0  0  0  0  0  0  0
   37.3740   27.8480  -17.8800 C   0  0  0  0  0  0  0  0  0  0  0  0
   36.6890   28.6650  -16.9780 C   0  0  0  0  0  0  0  0  0  0  0  0
   37.1790   28.8350  -15.6860 C   0  0  0  0  0  0  0  0  0  0  0  0
   36.4580   29.6500  -14.8550 O   0  0  0  0  0  0  0  0  0  0  0  0
   38.3540   28.1900  -15.2920 C   0  0  0  0  0  0  0  0  0  0  0  0
   38.9020   28.3420  -13.9450 C   0  0  0  0  0  0  0  0  0  0  0  0
   38.3600   29.0490  -13.0970 O   0  0  0  0  0  0  0  0  0  0  0  0
   40.1510   27.6110  -13.6260 C   0  0  0  0  0  0  0  0  0  0  0  0
   40.6680   27.7730  -12.3540 O   0  0  0  0  0  0  0  0  0  0  0  0
   43.1480   26.7590  -14.0320 C   0  0  0  0  0  0  0  0  0  0  0  0
   44.3980   26.1090  -13.8550 C   0  0  0  0  0  0  0  0  0  0  0  0
   45.6380   26.9590  -13.4630 C   0  0  0  0  0  0  0  0  0  0  0  0
   46.2620   26.5330  -12.1140 C   0  0  0  0  0  0  0  0  0  0  0  0
   45.2320   28.4470  -13.4080 C   0  0  0  0  0  0  0  0  0  0  0  0
   46.8040   26.8590  -14.4880 C   0  0  0  0  0  0  0  0  0  0  0  0
   45.8199   23.6664  -12.7886 H   0  0  0  0  0  0  0  0  0  0  0  0
   45.4245   22.8430  -14.3354 H   0  0  0  0  0  0  0  0  0  0  0  0
   46.4839   24.2936  -14.3354 H   0  0  0  0  0  0  0  0  0  0  0  0
   43.2443   22.9443  -14.5540 H   0  0  0  0  0  0  0  0  0  0  0  0
   41.1151   24.1629  -14.8825 H   0  0  0  0  0  0  0  0  0  0  0  0
   39.0884   26.5593  -18.1965 H   0  0  0  0  0  0  0  0  0  0  0  0
   36.9882   27.7123  -18.9012 H   0  0  0  0  0  0  0  0  0  0  0  0
   35.7640   29.1733  -17.2878 H   0  0  0  0  0  0  0  0  0  0  0  0
   35.6200   29.9680  -15.1240 H   0  0  0  0  0  0  0  0  0  0  0  0
   41.4880   27.3790  -12.1290 H   0  0  0  0  0  0  0  0  0  0  0  0
   43.1035   27.8482  -13.8850 H   0  0  0  0  0  0  0  0  0  0  0  0
   45.6627   26.9422  -11.2873 H   0  0  0  0  0  0  0  0  0  0  0  0
   46.2772   25.4351  -12.0475 H   0  0  0  0  0  0  0  0  0  0  0  0
   47.2900   26.9187  -12.0475 H   0  0  0  0  0  0  0  0  0  0  0  0
   45.1453   28.7649  -12.3585 H   0  0  0  0  0  0  0  0  0  0  0  0
   45.9971   29.0548  -13.9131 H   0  0  0  0  0  0  0  0  0  0  0  0
   44.2642   28.5819  -13.9131 H   0  0  0  0  0  0  0  0  0  0  0  0
   47.7596   26.7770  -13.9494 H   0  0  0  0  0  0  0  0  0  0  0  0
   46.6617   25.9698  -15.1197 H   0  0  0  0  0  0  0  0  0  0  0  0
   46.8152   27.7595  -15.1197 H   0  0  0  0  0  0  0  0  0  0  0  0
  1  2  1  0
  2  3  2  0
  3  4  1  0
  4  5  2  0
  5  6  1  0
  6  7  1  0
  7  8  1  0
  8  9  2  0
  9 10  1  0
 10 11  2  0
 11 12  1  0
 12 13  1  0
 12 14  2  0
 14 15  1  0
 15 16  2  0
 15 17  1  0
 17 18  1  0
  5 19  1  0
 19 20  2  0
 20 21  1  0
 21 22  1  0
 21 23  1  0
 21 24  1  0
 20  2  1  0
 17  6  2  0
 14  8  1  0
  1 25  1  0
  1 26  1  0
  1 27  1  0
  3 28  1  0
  4 29  1  0
  9 30  1  0
 10 31  1  0
 11 32  1  0
 13 33  1  0
 18 34  1  0
 19 35  1  0
 22 36  1  0
 22 37  1  0
 22 38  1  0
 23 39  1  0
 23 40  1  0
 23 41  1  0
 24 42  1  0
 24 43  1  0
 24 44  1  0
M  END
>  <meeko>  (6) 
{"is_sidechain": [false], "free_energy": -4.439, "intermolecular_energy": -4.38, "internal_energy": -0.128}

$$$$
cand_027_out
     RDKit          3D

 44 46  0  0  0  0  0  0  0  0999 V2000
   44.9340   24.0410  -13.8450 C   0  0  0  0  0  0  0  0  0  0  0  0
   43.7210   24.8790  -14.1490 C   0  0  0  0  0  0  0  0  0  0  0  0
   42.7240   24.2410  -14.9200 C   0  0  0  0  0  0  0  0  0  0  0  0
   41.5440   24.8860  -15.2770 C   0  0  0  0  0  0  0  0  0  0  0  0
   41.3160   26.1940  -14.8690 C   0  0  0  0  0  0  0  0  0  0  0  0
   40.0830   26.9210  -15.2390 C   0  0  0  0  0  0  0  0  0  0  0  0
   39.6150   26.5810  -16.5040 O   0  0  0  0  0  0  0  0  0  0  0  0
   38.4770   27.1850  -16.9740 C   0  0  0  0  0  0  0  0  0  0  0  0
   38.0370   26.8040  -18.2430 C   0  0  0  0  0  0  0  0  0  0  0  0
   36.8850   27.3820  -18.7830 C   0  0  0  0  0  0  0  0  0  0  0  0
   36.1760   28.3400  -18.0550 C   0  0  0  0  0  0  0  0  0  0  0  0
   36.6180   28.7170  -16.7900 C   0  0  0  0  0  0  0  0  0  0  0  0
   35.8760   29.6600  -16.1330 O   0  0  0  0  0  0  0  0  0  0  0  0
   37.7690   28.1390  -16.2490 C   0  0  0  0  0  0  0  0  0  0  0  0
   38.2680   28.5070  -14.9250 C   0  0  0  0  0  0  0  0  0  0  0  0
   37.7020   29.3460  -14.2260 O   0  0  0  0  0  0  0  0  0  0  0  0
   39.4940   27.8310  -14.4410 C   0  0  0  0  0  0  0  0  0  0  0  0
   39.9650   28.1970  -13.1940 O   0  0  0  0  0  0  0  0  0  0  0  0
   42.3170   26.8430  -14.1210 C   0  0  0  0  0  0  0  0  0  0  0  0
   43.5440   26.2310  -13.7520 C   0  0  0  0  0  0  0  0  0  0  0  0
   44.5720   27.0500  -12.9230 C   0  0  0  0  0  0  0  0  0  0  0  0
   44.3170   28.5740  -12.9800 C   0  0  0  0  0  0  0  0  0  0  0  0
   45.9950   26.7350  -13.4310 C   0  0  0  0  0  0  0  0  0  0  0  0
   44.5590   26.7020  -11.4070 C   0  0  0  0  0  0  0  0  0  0  0  0
   45.0571   23.9559  -12.7552 H   0  0  0  0  0  0  0  0  0  0  0  0
   44.8051   23.0384  -14.2788 H   0  0  0  0  0  0  0  0  0  0  0  0
   45.8261   24.5163  -14.2788 H   0  0  0  0  0  0  0  0  0  0  0  0
   42.8853   23.2035  -15.2479 H   0  0  0  0  0  0  0  0  0  0  0  0
   40.7914   24.3599  -15.8826 H   0  0  0  0  0  0  0  0  0  0  0  0
   38.5961   26.0502  -18.8167 H   0  0  0  0  0  0  0  0  0  0  0  0
   36.5363   27.0822  -19.7823 H   0  0  0  0  0  0  0  0  0  0  0  0
   35.2698   28.7959  -18.4805 H   0  0  0  0  0  0  0  0  0  0  0  0
   36.2950   30.2680  -15.5570 H   0  0  0  0  0  0  0  0  0  0  0  0
   40.3400   29.0460  -13.0650 H   0  0  0  0  0  0  0  0  0  0  0  0
   42.1386   27.8814  -13.8051 H   0  0  0  0  0  0  0  0  0  0  0  0
   44.2502   28.9731  -11.9571 H   0  0  0  0  0  0  0  0  0  0  0  0
   45.1455   29.0648  -13.5117 H   0  0  0  0  0  0  0  0  0  0  0  0
   43.3739   28.7683  -13.5117 H   0  0  0  0  0  0  0  0  0  0  0  0
   46.6663   26.5864  -12.5724 H   0  0  0  0  0  0  0  0  0  0  0  0
   45.9723   25.8201  -14.0413 H   0  0  0  0  0  0  0  0  0  0  0  0
   46.3605   27.5740  -14.0413 H   0  0  0  0  0  0  0  0  0  0  0  0
   44.5937   27.6300  -10.8175 H   0  0  0  0  0  0  0  0  0  0  0  0
   43.6395   26.1485  -11.1657 H   0  0  0  0  0  0  0  0  0  0  0  0
   45.4346   26.0814  -11.1657 H   0  0  0  0  0  0  0  0  0  0  0  0
  1  2  1  0
  2  3  2  0
  3  4  1  0
  4  5  2  0
  5  6  1  0
  6  7  1  0
  7  8  1  0
  8  9  2  0
  9 10  1  0
 10 11  2  0
 11 12  1  0
 12 13  1  0
 12 14  2  0
 14 15  1  0
 15 16  2  0
 15 17  1  0
 17 18  1  0
  5 19  1  0
 19 20  2  0
 20 21  1  0
 21 22  1  0
 21 23  1  0
 21 24  1  0
 20  2  1  0
 17  6  2  0
 14  8  1  0
  1 25  1  0
  1 26  1  0
  1 27  1  0
  3 28  1  0
  4 29  1  0
  9 30  1  0
 10 31  1  0
 11 32  1  0
 13 33  1  0
 18 34  1  0
 19 35  1  0
 22 36  1  0
 22 37  1  0
 22 38  1  0
 23 39  1  0
 23 40  1  0
 23 41  1  0
 24 42  1  0
 24 43  1  0
 24 44  1  0
M  END
>  <meeko>  (7) 
{"is_sidechain": [false], "free_energy": -3.719, "intermolecular_energy": -4.074, "internal_energy": 0.412}

$$$$
cand_027_out
     RDKit          3D

 44 46  0  0  0  0  0  0  0  0999 V2000
   36.0420   27.3330  -19.2170 C   0  0  0  0  0  0  0  0  0  0  0  0
   37.1730   27.2220  -18.2290 C   0  0  0  0  0  0  0  0  0  0  0  0
   37.9670   26.0610  -18.3500 C   0  0  0  0  0  0  0  0  0  0  0  0
   39.0520   25.8200  -17.5120 C   0  0  0  0  0  0  0  0  0  0  0  0
   39.3840   26.7390  -16.5250 C   0  0  0  0  0  0  0  0  0  0  0  0
   40.5180   26.5140  -15.6030 C   0  0  0  0  0  0  0  0  0  0  0  0
   40.2410   26.9090  -14.2990 O   0  0  0  0  0  0  0  0  0  0  0  0
   41.2090   26.7580  -13.3400 C   0  0  0  0  0  0  0  0  0  0  0  0
   40.8840   27.1560  -12.0430 C   0  0  0  0  0  0  0  0  0  0  0  0
   41.8250   27.0310  -11.0180 C   0  0  0  0  0  0  0  0  0  0  0  0
   43.0910   26.5090  -11.2920 C   0  0  0  0  0  0  0  0  0  0  0  0
   43.4130   26.1130  -12.5870 C   0  0  0  0  0  0  0  0  0  0  0  0
   44.6710   25.6110  -12.7840 O   0  0  0  0  0  0  0  0  0  0  0  0
   42.4710   26.2370  -13.6110 C   0  0  0  0  0  0  0  0  0  0  0  0
   42.7690   25.8340  -14.9850 C   0  0  0  0  0  0  0  0  0  0  0  0
   43.8620   25.3720  -15.3050 O   0  0  0  0  0  0  0  0  0  0  0  0
   41.6990   26.0010  -15.9960 C   0  0  0  0  0  0  0  0  0  0  0  0
   41.9960   25.6300  -17.2940 O   0  0  0  0  0  0  0  0  0  0  0  0
   38.5820   27.8860  -16.3840 C   0  0  0  0  0  0  0  0  0  0  0  0
   37.4540   28.1620  -17.2030 C   0  0  0  0  0  0  0  0  0  0  0  0
   36.6450   29.4650  -16.9520 C   0  0  0  0  0  0  0  0  0  0  0  0
   37.4630   30.7470  -17.2290 C   0  0  0  0  0  0  0  0  0  0  0  0
   36.1360   29.4700  -15.4950 C   0  0  0  0  0  0  0  0  0  0  0  0
   35.3870   29.5930  -17.8580 C   0  0  0  0  0  0  0  0  0  0  0  0
   35.0894   27.4265  -18.6749 H   0  0  0  0  0  0  0  0  0  0  0  0
   36.1929   28.2206  -19.8489 H   0  0  0  0  0  0  0  0  0  0  0  0
   36.0175   26.4329  -19.8489 H   0  0  0  0  0  0  0  0  0  0  0  0
   37.7210   25.3250  -19.1296 H   0  0  0  0  0  0  0  0  0  0  0  0
   39.6462   24.9021  -17.6314 H   0  0  0  0  0  0  0  0  0  0  0  0
   39.8871   27.5681  -11.8275 H   0  0  0  0  0  0  0  0  0  0  0  0
   41.5687   27.3438   -9.9950 H   0  0  0  0  0  0  0  0  0  0  0  0
   43.8327   26.4109  -10.4856 H   0  0  0  0  0  0  0  0  0  0  0  0
   44.7860   24.8040  -13.2450 H   0  0  0  0  0  0  0  0  0  0  0  0
   41.6910   26.1500  -18.0110 H   0  0  0  0  0  0  0  0  0  0  0  0
   38.8422   28.6088  -15.5967 H   0  0  0  0  0  0  0  0  0  0  0  0
   37.7570   31.2078  -16.2744 H   0  0  0  0  0  0  0  0  0  0  0  0
   38.3642   30.4897  -17.8049 H   0  0  0  0  0  0  0  0  0  0  0  0
   36.8499   31.4559  -17.8049 H   0  0  0  0  0  0  0  0  0  0  0  0
   36.9941   29.4616  -14.8068 H   0  0  0  0  0  0  0  0  0  0  0  0
   35.5344   30.3741  -15.3199 H   0  0  0  0  0  0  0  0  0  0  0  0
   35.5167   28.5779  -15.3199 H   0  0  0  0  0  0  0  0  0  0  0  0
   34.4896   29.6843  -17.2285 H   0  0  0  0  0  0  0  0  0  0  0  0
   35.4819   30.4861  -18.4931 H   0  0  0  0  0  0  0  0  0  0  0  0
   35.3000   28.6991  -18.4931 H   0  0  0  0  0  0  0  0  0  0  0  0
  1  2  1  0
  2  3  2  0
  3  4  1  0
  4  5  2  0
  5  6  1  0
  6  7  1  0
  7  8  1  0
  8  9  2  0
  9 10  1  0
 10 11  2  0
 11 12  1  0
 12 13  1  0
 12 14  2  0
 14 15  1  0
 15 16  2  0
 15 17  1  0
 17 18  1  0
  5 19  1  0
 19 20  2  0
 20 21  1  0
 21 22  1  0
 21 23  1  0
 21 24  1  0
 20  2  1  0
 17  6  2  0
 14  8  1  0
  1 25  1  0
  1 26  1  0
  1 27  1  0
  3 28  1  0
  4 29  1  0
  9 30  1  0
 10 31  1  0
 11 32  1  0
 13 33  1  0
 18 34  1  0
 19 35  1  0
 22 36  1  0
 22 37  1  0
 22 38  1  0
 23 39  1  0
 23 40  1  0
 23 41  1  0
 24 42  1  0
 24 43  1  0
 24 44  1  0
M  END
>  <meeko>  (8) 
{"is_sidechain": [false], "free_energy": -3.332, "intermolecular_energy": -3.797, "internal_energy": 0.59}

$$$$
