cand_003_out
     RDKit          3D

 35 37  0  0  0  0  0  0  0  0999 V2000
   44.2130   27.3190  -12.2230 C   0  0  0  0  0  0  0  0  0  0  0  0
   43.6520   26.5010  -13.3550 C   0  0  0  0  0  0  0  0  0  0  0  0
   42.4740   26.9340  -13.9940 C   0  0  0  0  0  0  0  0  0  0  0  0
   41.9120   26.2190  -15.0630 C   0  0  0  0  0  0  0  0  0  0  0  0
   40.6600   26.6950  -15.6890 C   0  0  0  0  0  0  0  0  0  0  0  0
   39.9140   27.5140  -14.8500 O   0  0  0  0  0  0  0  0  0  0  0  0
   38.7260   28.0260  -15.3080 C   0  0  0  0  0  0  0  0  0  0  0  0
   38.0020   28.8320  -14.4290 C   0  0  0  0  0  0  0  0  0  0  0  0
   36.7860   29.3860  -14.8330 C   0  0  0  0  0  0  0  0  0  0  0  0
   36.2940   29.1360  -16.1160 C   0  0  0  0  0  0  0  0  0  0  0  0
   37.0190   28.3320  -16.9920 C   0  0  0  0  0  0  0  0  0  0  0  0
   36.4810   28.1290  -18.2330 O   0  0  0  0  0  0  0  0  0  0  0  0
   38.2360   27.7760  -16.5860 C   0  0  0  0  0  0  0  0  0  0  0  0
   39.0280   26.9270  -17.4750 C   0  0  0  0  0  0  0  0  0  0  0  0
   38.6670   26.6660  -18.6210 O   0  0  0  0  0  0  0  0  0  0  0  0
   40.3010   26.3810  -16.9470 C   0  0  0  0  0  0  0  0  0  0  0  0
   41.0490   25.5900  -17.8000 O   0  0  0  0  0  0  0  0  0  0  0  0
   42.5410   25.0420  -15.4800 C   0  0  0  0  0  0  0  0  0  0  0  0
   43.7120   24.6000  -14.8580 C   0  0  0  0  0  0  0  0  0  0  0  0
   44.2850   25.3190  -13.7950 C   0  0  0  0  0  0  0  0  0  0  0  0
   45.5540   24.8090  -13.1470 C   0  0  0  0  0  0  0  0  0  0  0  0
   45.3490   24.3200  -11.8930 F   0  0  0  0  0  0  0  0  0  0  0  0
   46.5190   25.7640  -13.0130 F   0  0  0  0  0  0  0  0  0  0  0  0
   46.1360   23.7990  -13.8540 F   0  0  0  0  0  0  0  0  0  0  0  0
   43.9085   26.8750  -11.2638 H   0  0  0  0  0  0  0  0  0  0  0  0
   45.3109   27.3319  -12.2890 H   0  0  0  0  0  0  0  0  0  0  0  0
   43.8296   28.3479  -12.2890 H   0  0  0  0  0  0  0  0  0  0  0  0
   41.9825   27.8548  -13.6469 H   0  0  0  0  0  0  0  0  0  0  0  0
   38.3889   29.0307  -13.4187 H   0  0  0  0  0  0  0  0  0  0  0  0
   36.2144   30.0205  -14.1397 H   0  0  0  0  0  0  0  0  0  0  0  0
   35.3360   29.5732  -16.4339 H   0  0  0  0  0  0  0  0  0  0  0  0
   35.7330   27.5730  -18.3340 H   0  0  0  0  0  0  0  0  0  0  0  0
   40.6230   24.9720  -18.3590 H   0  0  0  0  0  0  0  0  0  0  0  0
   42.1098   24.4578  -16.3062 H   0  0  0  0  0  0  0  0  0  0  0  0
   44.1931   23.6741  -15.2062 H   0  0  0  0  0  0  0  0  0  0  0  0
  1  2  1  0
  2  3  2  0
  3  4  1  0
  4  5  1  0
  5  6  1  0
  6  7  1  0
  7  8  2  0
  8  9  1  0
  9 10  2  0
 10 11  1  0
 11 12  1  0
 11 13  2  0
 13 14  1  0
 14 15  2  0
 14 16  1  0
 16 17  1  0
  4 18  2  0
 18 19  1  0
 19 20  2  0
 20 21  1  0
 21 22  1  0
 21 23  1  0
 21 24  1  0
 20  2  1  0
 16  5  2  0
 13  7  1  0
  1 25  1  0
  1 26  1  0
  1 27  1  0
  3 28  1  0
  8 29  1  0
  9 30  1  0
 10 31  1  0
 12 32  1  0
 17 33  1  0
 18 34  1  0
 19 35  1  0
M  END
>  <meeko>  (1) 
{"is_sidechain": [false], "free_energy": -8.236, "intermolecular_energy": -9.68, "internal_energy": 0.141}

$$$$
cand_003_out
     RDKit          3D

 35 37  0  0  0  0  0  0  0  0999 V2000
   45.5910   27.4280  -12.4200 C   0  0  0  0  0  0  0  0  0  0  0  0
   44.6200   26.6260  -13.2440 C   0  0  0  0  0  0  0  0  0  0  0  0
   43.3480   27.1640  -13.5180 C   0  0  0  0  0  0  0  0  0  0  0  0
   42.4060   26.4680  -14.2910 C   0  0  0  0  0  0  0  0  0  0  0  0
   41.0730   27.0580  -14.5330 C   0  0  0  0  0  0  0  0  0  0  0  0
   40.5730   26.7650  -15.7970 O   0  0  0  0  0  0  0  0  0  0  0  0
   39.3410   27.2520  -16.1510 C   0  0  0  0  0  0  0  0  0  0  0  0
   38.8830   26.9460  -17.4340 C   0  0  0  0  0  0  0  0  0  0  0  0
   37.6360   27.4090  -17.8580 C   0  0  0  0  0  0  0  0  0  0  0  0
   36.8460   28.1770  -17.0000 C   0  0  0  0  0  0  0  0  0  0  0  0
   37.3040   28.4800  -15.7210 C   0  0  0  0  0  0  0  0  0  0  0  0
   36.4800   29.2350  -14.9320 O   0  0  0  0  0  0  0  0  0  0  0  0
   38.5530   28.0180  -15.2970 C   0  0  0  0  0  0  0  0  0  0  0  0
   39.0710   28.3140  -13.9610 C   0  0  0  0  0  0  0  0  0  0  0  0
   38.4330   28.9770  -13.1460 O   0  0  0  0  0  0  0  0  0  0  0  0
   40.4100   27.7830  -13.6120 C   0  0  0  0  0  0  0  0  0  0  0  0
   40.8850   28.0560  -12.3430 O   0  0  0  0  0  0  0  0  0  0  0  0
   42.7500   25.2020  -14.7780 C   0  0  0  0  0  0  0  0  0  0  0  0
   44.0090   24.6560  -14.5170 C   0  0  0  0  0  0  0  0  0  0  0  0
   44.9590   25.3550  -13.7540 C   0  0  0  0  0  0  0  0  0  0  0  0
   46.3130   24.7300  -13.4930 C   0  0  0  0  0  0  0  0  0  0  0  0
   46.5060   24.4130  -12.1820 F   0  0  0  0  0  0  0  0  0  0  0  0
   47.3600   25.5360  -13.8320 F   0  0  0  0  0  0  0  0  0  0  0  0
   46.5020   23.5740  -14.1910 F   0  0  0  0  0  0  0  0  0  0  0  0
   45.3898   27.2618  -11.3514 H   0  0  0  0  0  0  0  0  0  0  0  0
   46.6184   27.1117  -12.6532 H   0  0  0  0  0  0  0  0  0  0  0  0
   45.4745   28.4967  -12.6532 H   0  0  0  0  0  0  0  0  0  0  0  0
   43.0863   28.1540  -13.1163 H   0  0  0  0  0  0  0  0  0  0  0  0
   39.5043   26.3405  -18.1103 H   0  0  0  0  0  0  0  0  0  0  0  0
   37.2754   27.1686  -18.8690 H   0  0  0  0  0  0  0  0  0  0  0  0
   35.8636   28.5418  -17.3343 H   0  0  0  0  0  0  0  0  0  0  0  0
   35.6290   29.4790  -15.2420 H   0  0  0  0  0  0  0  0  0  0  0  0
   41.7920   27.9310  -12.1460 H   0  0  0  0  0  0  0  0  0  0  0  0
   42.0216   24.6310  -15.3724 H   0  0  0  0  0  0  0  0  0  0  0  0
   44.2607   23.6621  -14.9156 H   0  0  0  0  0  0  0  0  0  0  0  0
  1  2  1  0
  2  3  2  0
  3  4  1  0
  4  5  1  0
  5  6  1  0
  6  7  1  0
  7  8  2  0
  8  9  1  0
  9 10  2  0
 10 11  1  0
 11 12  1  0
 11 13  2  0
 13 14  1  0
 14 15  2  0
 14 16  1  0
 16 17  1  0
  4 18  2  0
 18 19  1  0
 19 20  2  0
 20 21  1  0
 21 22  1  0
 21 23  1  0
 21 24  1  0
 20  2  1  0
 16  5  2  0
 13  7  1  0
  1 25  1  0
  1 26  1  0
  1 27  1  0
  3 28  1  0
  8 29  1  0
  9 30  1  0
 10 31  1  0
 12 32  1  0
 17 33  1  0
 18 34  1  0
 19 35  1  0
M  END
>  <meeko>  (2) 
{"is_sidechain": [false], "free_energy": -8.228, "intermolecular_energy": -9.588, "internal_energy": 0.058}

$$$$
cand_003_out
     RDKit          3D

 35 37  0  0  0  0  0  0  0  0999 V2000
   37.3400   26.9270  -18.4510 C   0  0  0  0  0  0  0  0  0  0  0  0
   37.6400   27.7050  -17.1980 C   0  0  0  0  0  0  0  0  0  0  0  0
   38.7040   27.2910  -16.3740 C   0  0  0  0  0  0  0  0  0  0  0  0
   39.0370   27.9840  -15.2000 C   0  0  0  0  0  0  0  0  0  0  0  0
   40.1450   27.5000  -14.3500 C   0  0  0  0  0  0  0  0  0  0  0  0
   41.1450   26.8620  -15.0750 O   0  0  0  0  0  0  0  0  0  0  0  0
   42.2340   26.3650  -14.4070 C   0  0  0  0  0  0  0  0  0  0  0  0
   43.2070   25.7200  -15.1710 C   0  0  0  0  0  0  0  0  0  0  0  0
   44.3430   25.1920  -14.5530 C   0  0  0  0  0  0  0  0  0  0  0  0
   44.5060   25.3100  -13.1710 C   0  0  0  0  0  0  0  0  0  0  0  0
   43.5350   25.9550  -12.4100 C   0  0  0  0  0  0  0  0  0  0  0  0
   43.7580   26.0360  -11.0630 O   0  0  0  0  0  0  0  0  0  0  0  0
   42.3980   26.4820  -13.0300 C   0  0  0  0  0  0  0  0  0  0  0  0
   41.3530   27.1670  -12.2670 C   0  0  0  0  0  0  0  0  0  0  0  0
   41.4280   27.3170  -11.0490 O   0  0  0  0  0  0  0  0  0  0  0  0
   40.1840   27.6830  -13.0170 C   0  0  0  0  0  0  0  0  0  0  0  0
   39.2090   28.3410  -12.2890 O   0  0  0  0  0  0  0  0  0  0  0  0
   38.2730   29.1010  -14.8470 C   0  0  0  0  0  0  0  0  0  0  0  0
   37.2160   29.5260  -15.6560 C   0  0  0  0  0  0  0  0  0  0  0  0
   36.8860   28.8420  -16.8380 C   0  0  0  0  0  0  0  0  0  0  0  0
   35.7340   29.3340  -17.6880 C   0  0  0  0  0  0  0  0  0  0  0  0
   34.5570   29.3910  -17.0030 F   0  0  0  0  0  0  0  0  0  0  0  0
   35.4860   28.5490  -18.7760 F   0  0  0  0  0  0  0  0  0  0  0  0
   35.9430   30.5870  -18.1830 F   0  0  0  0  0  0  0  0  0  0  0  0
   36.9563   25.9319  -18.1817 H   0  0  0  0  0  0  0  0  0  0  0  0
   36.5842   27.4634  -19.0435 H   0  0  0  0  0  0  0  0  0  0  0  0
   38.2602   26.8171  -19.0435 H   0  0  0  0  0  0  0  0  0  0  0  0
   39.2882   26.4031  -16.6573 H   0  0  0  0  0  0  0  0  0  0  0  0
   43.0796   25.6273  -16.2597 H   0  0  0  0  0  0  0  0  0  0  0  0
   45.1098   24.6829  -15.1553 H   0  0  0  0  0  0  0  0  0  0  0  0
   45.4005   24.8938  -12.6844 H   0  0  0  0  0  0  0  0  0  0  0  0
   44.0600   26.8390  -10.6860 H   0  0  0  0  0  0  0  0  0  0  0  0
   38.4270   28.6330  -12.7130 H   0  0  0  0  0  0  0  0  0  0  0  0
   38.5066   29.6505  -13.9232 H   0  0  0  0  0  0  0  0  0  0  0  0
   36.6324   30.4110  -15.3625 H   0  0  0  0  0  0  0  0  0  0  0  0
  1  2  1  0
  2  3  2  0
  3  4  1  0
  4  5  1  0
  5  6  1  0
  6  7  1  0
  7  8  2  0
  8  9  1  0
  9 10  2  0
 10 11  1  0
 11 12  1  0
 11 13  2  0
 13 14  1  0
 14 15  2  0
 14 16  1  0
 16 17  1  0
  4 18  2  0
 18 19  1  0
 19 20  2  0
 20 21  1  0
 21 22  1  0
 21 23  1  0
 21 24  1  0
 20  2  1  0
 16  5  2  0
 13  7  1  0
  1 25  1  0
  1 26  1  0
  1 27  1  0
  3 28  1  0
  8 29  1  0
  9 30  1  0
 10 31  1  0
 12 32  1  0
 17 33  1  0
 18 34  1  0
 19 35  1  0
M  END
>  <meeko>  (3) 
{"is_sidechain": [false], "free_energy": -7.399, "intermolecular_energy": -9.159, "internal_energy": 0.603}

$$$$
cand_003_out
     RDKit          3D

 35 37  0  0  0  0  0  0  0  0999 V2000
   44.0560   23.2800  -14.0290 C   0  0  0  0  0  0  0  0  0  0  0  0
   43.8630   24.7700  -13.9410 C   0  0  0  0  0  0  0  0  0  0  0  0
   42.5930   25.3120  -14.2190 C   0  0  0  0  0  0  0  0  0  0  0  0
   42.3510   26.6920  -14.1410 C   0  0  0  0  0  0  0  0  0  0  0  0
   41.0100   27.2230  -14.4670 C   0  0  0  0  0  0  0  0  0  0  0  0
   40.5750   26.8540  -15.7340 O   0  0  0  0  0  0  0  0  0  0  0  0
   39.3440   27.2800  -16.1630 C   0  0  0  0  0  0  0  0  0  0  0  0
   38.9530   26.8990  -17.4470 C   0  0  0  0  0  0  0  0  0  0  0  0
   37.7110   27.2980  -17.9450 C   0  0  0  0  0  0  0  0  0  0  0  0
   36.8590   28.0760  -17.1580 C   0  0  0  0  0  0  0  0  0  0  0  0
   37.2510   28.4540  -15.8760 C   0  0  0  0  0  0  0  0  0  0  0  0
   36.3680   29.2160  -15.1600 O   0  0  0  0  0  0  0  0  0  0  0  0
   38.4950   28.0560  -15.3800 C   0  0  0  0  0  0  0  0  0  0  0  0
   38.9450   28.4320  -14.0390 C   0  0  0  0  0  0  0  0  0  0  0  0
   38.2500   29.1090  -13.2840 O   0  0  0  0  0  0  0  0  0  0  0  0
   40.2840   27.9660  -13.6100 C   0  0  0  0  0  0  0  0  0  0  0  0
   40.6950   28.3140  -12.3360 O   0  0  0  0  0  0  0  0  0  0  0  0
   43.4110   27.5360  -13.7930 C   0  0  0  0  0  0  0  0  0  0  0  0
   44.6760   27.0130  -13.5120 C   0  0  0  0  0  0  0  0  0  0  0  0
   44.9200   25.6310  -13.5770 C   0  0  0  0  0  0  0  0  0  0  0  0
   46.3040   25.1020  -13.2640 C   0  0  0  0  0  0  0  0  0  0  0  0
   46.8390   24.3810  -14.2890 F   0  0  0  0  0  0  0  0  0  0  0  0
   46.3390   24.2760  -12.1780 F   0  0  0  0  0  0  0  0  0  0  0  0
   47.1980   26.0950  -12.9960 F   0  0  0  0  0  0  0  0  0  0  0  0
   44.1108   22.8569  -13.0151 H   0  0  0  0  0  0  0  0  0  0  0  0
   43.2084   22.8317  -14.5681 H   0  0  0  0  0  0  0  0  0  0  0  0
   44.9898   23.0624  -14.5681 H   0  0  0  0  0  0  0  0  0  0  0  0
   41.7718   24.6378  -14.5039 H   0  0  0  0  0  0  0  0  0  0  0  0
   39.6228   26.2846  -18.0666 H   0  0  0  0  0  0  0  0  0  0  0  0
   37.4034   26.9993  -18.9580 H   0  0  0  0  0  0  0  0  0  0  0  0
   35.8802   28.3897  -17.5499 H   0  0  0  0  0  0  0  0  0  0  0  0
   35.8940   29.9050  -15.5820 H   0  0  0  0  0  0  0  0  0  0  0  0
   40.3680   29.0960  -11.9370 H   0  0  0  0  0  0  0  0  0  0  0  0
   43.2470   28.6224  -13.7400 H   0  0  0  0  0  0  0  0  0  0  0  0
   45.4940   27.6944  -13.2354 H   0  0  0  0  0  0  0  0  0  0  0  0
  1  2  1  0
  2  3  2  0
  3  4  1  0
  4  5  1  0
  5  6  1  0
  6  7  1  0
  7  8  2  0
  8  9  1  0
  9 10  2  0
 10 11  1  0
 11 12  1  0
 11 13  2  0
 13 14  1  0
 14 15  2  0
 14 16  1  0
 16 17  1  0
  4 18  2  0
 18 19  1  0
 19 20  2  0
 20 21  1  0
 21 22  1  0
 21 23  1  0
 21 24  1  0
 20  2  1  0
 16  5  2  0
 13  7  1  0
  1 25  1  0
  1 26  1  0
  1 27  1  0
  3 28  1  0
  8 29  1  0
  9 30  1  0
 10 31  1  0
 12 32  1  0
 17 33  1  0
 18 34  1  0
 19 35  1  0
M  END
>  <meeko>  (4) 
{"is_sidechain": [false], "free_energy": -6.088, "intermolecular_energy": -6.759, "internal_energy": -0.256}

$$$$
cand_003_out
     RDKit          3D

 35 37  0  0  0  0  0  0  0  0999 V2000
   44.2530   25.0440  -14.9000 C   0  0  0  0  0  0  0  0  0  0  0  0
   43.0850   25.8550  -14.4070 C   0  0  0  0  0  0  0  0  0  0  0  0
   41.9950   26.0800  -15.2700 C   0  0  0  0  0  0  0  0  0  0  0  0
   40.8740   26.8180  -14.8620 C   0  0  0  0  0  0  0  0  0  0  0  0
   39.7630   27.0530  -15.8080 C   0  0  0  0  0  0  0  0  0  0  0  0
   38.8500   27.9940  -15.3480 O   0  0  0  0  0  0  0  0  0  0  0  0
   37.7690   28.3070  -16.1320 C   0  0  0  0  0  0  0  0  0  0  0  0
   36.8690   29.2470  -15.6260 C   0  0  0  0  0  0  0  0  0  0  0  0
   35.7480   29.6120  -16.3740 C   0  0  0  0  0  0  0  0  0  0  0  0
   35.5260   29.0380  -17.6270 C   0  0  0  0  0  0  0  0  0  0  0  0
   36.4250   28.1020  -18.1310 C   0  0  0  0  0  0  0  0  0  0  0  0
   36.1480   27.5810  -19.3650 O   0  0  0  0  0  0  0  0  0  0  0  0
   37.5460   27.7360  -17.3810 C   0  0  0  0  0  0  0  0  0  0  0  0
   38.5150   26.7560  -17.8730 C   0  0  0  0  0  0  0  0  0  0  0  0
   38.3940   26.2120  -18.9700 O   0  0  0  0  0  0  0  0  0  0  0  0
   39.6670   26.4310  -16.9990 C   0  0  0  0  0  0  0  0  0  0  0  0
   40.5840   25.5140  -17.4790 O   0  0  0  0  0  0  0  0  0  0  0  0
   40.8620   27.3490  -13.5680 C   0  0  0  0  0  0  0  0  0  0  0  0
   41.9340   27.1330  -12.6990 C   0  0  0  0  0  0  0  0  0  0  0  0
   43.0540   26.3850  -13.0990 C   0  0  0  0  0  0  0  0  0  0  0  0
   44.1960   26.1710  -12.1290 C   0  0  0  0  0  0  0  0  0  0  0  0
   45.1880   27.0940  -12.2660 F   0  0  0  0  0  0  0  0  0  0  0  0
   44.8040   24.9570  -12.2620 F   0  0  0  0  0  0  0  0  0  0  0  0
   43.7980   26.2380  -10.8260 F   0  0  0  0  0  0  0  0  0  0  0  0
   44.8166   24.6527  -14.0402 H   0  0  0  0  0  0  0  0  0  0  0  0
   43.8858   24.2056  -15.5100 H   0  0  0  0  0  0  0  0  0  0  0  0
   44.9103   25.6810  -15.5100 H   0  0  0  0  0  0  0  0  0  0  0  0
   42.0234   25.6669  -16.2891 H   0  0  0  0  0  0  0  0  0  0  0  0
   37.0431   29.6997  -14.6387 H   0  0  0  0  0  0  0  0  0  0  0  0
   35.0390   30.3526  -15.9756 H   0  0  0  0  0  0  0  0  0  0  0  0
   34.6419   29.3249  -18.2153 H   0  0  0  0  0  0  0  0  0  0  0  0
   36.5730   26.7950  -19.6480 H   0  0  0  0  0  0  0  0  0  0  0  0
   41.1510   25.0660  -16.8840 H   0  0  0  0  0  0  0  0  0  0  0  0
   39.9994   27.9428  -13.2313 H   0  0  0  0  0  0  0  0  0  0  0  0
   41.9008   27.5558  -11.6840 H   0  0  0  0  0  0  0  0  0  0  0  0
  1  2  1  0
  2  3  2  0
  3  4  1  0
  4  5  1  0
  5  6  1  0
  6  7  1  0
  7  8  2  0
  8  9  1  0
  9 10  2  0
 10 11  1  0
 11 12  1  0
 11 13  2  0
 13 14  1  0
 14 15  2  0
 14 16  1  0
 16 17  1  0
  4 18  2  0
 18 19  1  0
 19 20  2  0
 20 21  1  0
 21 22  1  0
 21 23  1  0
 21 24  1  0
 20  2  1  0
 16  5  2  0
 13  7  1  0
  1 25  1  0
  1 26  1  0
  1 27  1  0
  3 28  1  0
  8 29  1  0
  9 30  1  0
 10 31  1  0
 12 32  1  0
 17 33  1  0
 18 34  1  0
 19 35  1  0
M  END
>  <meeko>  (5) 
{"is_sidechain": [false], "free_energy": -5.607, "intermolecular_energy": -6.948, "internal_energy": 0.498}

$$$$
