cand_021_out
     RDKit          3D

 36 38  0  0  0  0  0  0  0  0999 V2000
   46.6550   27.3190  -13.2920 C   0  0  0  0  0  0  0  0  0  0  0  0
   45.5050   26.9850  -12.6940 C   0  0  0  0  0  0  0  0  0  0  0  0
   44.4250   26.2770  -13.3940 C   0  0  0  0  0  0  0  0  0  0  0  0
   43.1980   26.9330  -13.6020 C   0  0  0  0  0  0  0  0  0  0  0  0
   42.1370   26.3070  -14.2710 C   0  0  0  0  0  0  0  0  0  0  0  0
   40.8540   27.0000  -14.5090 C   0  0  0  0  0  0  0  0  0  0  0  0
   40.3400   26.7670  -15.7790 O   0  0  0  0  0  0  0  0  0  0  0  0
   39.1510   27.3540  -16.1300 C   0  0  0  0  0  0  0  0  0  0  0  0
   38.6790   27.1070  -17.4200 C   0  0  0  0  0  0  0  0  0  0  0  0
   37.4730   27.6740  -17.8410 C   0  0  0  0  0  0  0  0  0  0  0  0
   36.7400   28.4840  -16.9720 C   0  0  0  0  0  0  0  0  0  0  0  0
   37.2130   28.7290  -15.6850 C   0  0  0  0  0  0  0  0  0  0  0  0
   36.4450   29.5310  -14.8870 O   0  0  0  0  0  0  0  0  0  0  0  0
   38.4200   28.1630  -15.2650 C   0  0  0  0  0  0  0  0  0  0  0  0
   38.9520   28.3940  -13.9220 C   0  0  0  0  0  0  0  0  0  0  0  0
   38.3620   29.0900  -13.0970 O   0  0  0  0  0  0  0  0  0  0  0  0
   40.2430   27.7560  -13.5770 C   0  0  0  0  0  0  0  0  0  0  0  0
   40.7320   27.9690  -12.3020 O   0  0  0  0  0  0  0  0  0  0  0  0
   42.3290   25.0090  -14.7590 C   0  0  0  0  0  0  0  0  0  0  0  0
   43.5440   24.3480  -14.5640 C   0  0  0  0  0  0  0  0  0  0  0  0
   44.6040   24.9690  -13.8810 C   0  0  0  0  0  0  0  0  0  0  0  0
   45.8960   24.2190  -13.6710 C   0  0  0  0  0  0  0  0  0  0  0  0
   46.3650   24.3240  -12.3950 F   0  0  0  0  0  0  0  0  0  0  0  0
   46.9150   24.6630  -14.4660 F   0  0  0  0  0  0  0  0  0  0  0  0
   47.4353   27.8493  -12.7263 H   0  0  0  0  0  0  0  0  0  0  0  0
   46.8198   27.0632  -14.3491 H   0  0  0  0  0  0  0  0  0  0  0  0
   45.3630   27.2513  -11.6362 H   0  0  0  0  0  0  0  0  0  0  0  0
   43.0682   27.9605  -13.2313 H   0  0  0  0  0  0  0  0  0  0  0  0
   39.2553   26.4670  -18.1043 H   0  0  0  0  0  0  0  0  0  0  0  0
   37.1010   27.4818  -18.8582 H   0  0  0  0  0  0  0  0  0  0  0  0
   35.7898   28.9283  -17.3032 H   0  0  0  0  0  0  0  0  0  0  0  0
   35.7860   29.1540  -14.3370 H   0  0  0  0  0  0  0  0  0  0  0  0
   40.2930   27.5940  -11.5630 H   0  0  0  0  0  0  0  0  0  0  0  0
   41.5154   24.5049  -15.3011 H   0  0  0  0  0  0  0  0  0  0  0  0
   43.6732   23.3263  -14.9507 H   0  0  0  0  0  0  0  0  0  0  0  0
   45.6269   23.1816  -13.9189 H   0  0  0  0  0  0  0  0  0  0  0  0
  1  2  2  0
  2  3  1  0
  3  4  2  0
  4  5  1  0
  5  6  1  0
  6  7  1  0
  7  8  1  0
  8  9  2  0
  9 10  1  0
 10 11  2  0
 11 12  1  0
 12 13  1  0
 12 14  2  0
 14 15  1  0
 15 16  2  0
 15 17  1  0
 17 18  1  0
  5 19  2  0
 19 20  1  0
 20 21  2  0
 21 22  1  0
 22 23  1  0
 22 24  1  0
 21  3  1  0
 17  6  2  0
 14  8  1  0
  1 25  1  0
  1 26  1  0
  2 27  1  0
  4 28  1  0
  9 29  1  0
 10 30  1  0
 11 31  1  0
 13 32  1  0
 18 33  1  0
 19 34  1  0
 20 35  1  0
 22 36  1  0
M  END
>  <meeko>  (1) 
{"is_sidechain": [false], "free_energy": -7.476, "intermolecular_energy": -9.224, "internal_energy": 0.438}

$$$$
cand_021_out
     RDKit          3D

 36 38  0  0  0  0  0  0  0  0999 V2000
   42.0730   26.9300  -10.9350 C   0  0  0  0  0  0  0  0  0  0  0  0
   43.0900   26.5610  -11.7240 C   0  0  0  0  0  0  0  0  0  0  0  0
   42.9050   26.1810  -13.1300 C   0  0  0  0  0  0  0  0  0  0  0  0
   41.7450   26.5990  -13.8060 C   0  0  0  0  0  0  0  0  0  0  0  0
   41.5220   26.2720  -15.1510 C   0  0  0  0  0  0  0  0  0  0  0  0
   40.3130   26.7260  -15.8690 C   0  0  0  0  0  0  0  0  0  0  0  0
   39.5330   27.5970  -15.1190 O   0  0  0  0  0  0  0  0  0  0  0  0
   38.3780   28.0940  -15.6680 C   0  0  0  0  0  0  0  0  0  0  0  0
   37.6170   28.9530  -14.8740 C   0  0  0  0  0  0  0  0  0  0  0  0
   36.4310   29.4950  -15.3750 C   0  0  0  0  0  0  0  0  0  0  0  0
   36.0080   29.1800  -16.6670 C   0  0  0  0  0  0  0  0  0  0  0  0
   36.7690   28.3230  -17.4570 C   0  0  0  0  0  0  0  0  0  0  0  0
   36.2960   28.0570  -18.7130 O   0  0  0  0  0  0  0  0  0  0  0  0
   37.9550   27.7790  -16.9560 C   0  0  0  0  0  0  0  0  0  0  0  0
   38.7850   26.8750  -17.7530 C   0  0  0  0  0  0  0  0  0  0  0  0
   38.4840   26.5550  -18.9020 O   0  0  0  0  0  0  0  0  0  0  0  0
   40.0190   26.3470  -17.1270 C   0  0  0  0  0  0  0  0  0  0  0  0
   40.8040   25.5050  -17.8920 O   0  0  0  0  0  0  0  0  0  0  0  0
   42.4990   25.5330  -15.8280 C   0  0  0  0  0  0  0  0  0  0  0  0
   43.6590   25.1160  -15.1710 C   0  0  0  0  0  0  0  0  0  0  0  0
   43.8770   25.4310  -13.8190 C   0  0  0  0  0  0  0  0  0  0  0  0
   45.1310   24.9480  -13.1340 C   0  0  0  0  0  0  0  0  0  0  0  0
   46.0870   25.9160  -13.0400 F   0  0  0  0  0  0  0  0  0  0  0  0
   45.7350   23.9080  -13.7810 F   0  0  0  0  0  0  0  0  0  0  0  0
   42.2620   27.2061   -9.8871 H   0  0  0  0  0  0  0  0  0  0  0  0
   41.0486   26.9570  -11.3347 H   0  0  0  0  0  0  0  0  0  0  0  0
   44.1054   26.5418  -11.3015 H   0  0  0  0  0  0  0  0  0  0  0  0
   40.9950   27.1965  -13.2670 H   0  0  0  0  0  0  0  0  0  0  0  0
   37.9503   29.2027  -13.8559 H   0  0  0  0  0  0  0  0  0  0  0  0
   35.8294   30.1713  -14.7500 H   0  0  0  0  0  0  0  0  0  0  0  0
   35.0744   29.6084  -17.0606 H   0  0  0  0  0  0  0  0  0  0  0  0
   35.8440   28.7220  -19.1950 H   0  0  0  0  0  0  0  0  0  0  0  0
   40.9550   25.6980  -18.7970 H   0  0  0  0  0  0  0  0  0  0  0  0
   42.3519   25.2781  -16.8879 H   0  0  0  0  0  0  0  0  0  0  0  0
   44.4128   24.5325  -15.7199 H   0  0  0  0  0  0  0  0  0  0  0  0
   44.7708   24.6379  -12.1420 H   0  0  0  0  0  0  0  0  0  0  0  0
  1  2  2  0
  2  3  1  0
  3  4  2  0
  4  5  1  0
  5  6  1  0
  6  7  1  0
  7  8  1  0
  8  9  2  0
  9 10  1  0
 10 11  2  0
 11 12  1  0
 12 13  1  0
 12 14  2  0
 14 15  1  0
 15 16  2  0
 15 17  1  0
 17 18  1  0
  5 19  2  0
 19 20  1  0
 20 21  2  0
 21 22  1  0
 22 23  1  0
 22 24  1  0
 21  3  1  0
 17  6  2  0
 14  8  1  0
  1 25  1  0
  1 26  1  0
  2 27  1  0
  4 28  1  0
  9 29  1  0
 10 30  1  0
 11 31  1  0
 13 32  1  0
 18 33  1  0
 19 34  1  0
 20 35  1  0
 22 36  1  0
M  END
>  <meeko>  (2) 
{"is_sidechain": [false], "free_energy": -7.281, "intermolecular_energy": -8.591, "internal_energy": 0.045}

$$$$
cand_021_out
     RDKit          3D

 36 38  0  0  0  0  0  0  0  0999 V2000
   38.1450   26.5190  -19.2130 C   0  0  0  0  0  0  0  0  0  0  0  0
   37.2260   26.8750  -18.3070 C   0  0  0  0  0  0  0  0  0  0  0  0
   37.5610   27.6280  -17.0910 C   0  0  0  0  0  0  0  0  0  0  0  0
   38.6290   27.1900  -16.2870 C   0  0  0  0  0  0  0  0  0  0  0  0
   38.9970   27.8750  -15.1200 C   0  0  0  0  0  0  0  0  0  0  0  0
   40.1300   27.4290  -14.2840 C   0  0  0  0  0  0  0  0  0  0  0  0
   41.1450   26.8310  -15.0220 O   0  0  0  0  0  0  0  0  0  0  0  0
   42.2580   26.3690  -14.3670 C   0  0  0  0  0  0  0  0  0  0  0  0
   43.2450   25.7620  -15.1440 C   0  0  0  0  0  0  0  0  0  0  0  0
   44.4050   25.2710  -14.5380 C   0  0  0  0  0  0  0  0  0  0  0  0
   44.5770   25.3890  -13.1580 C   0  0  0  0  0  0  0  0  0  0  0  0
   43.5900   25.9960  -12.3850 C   0  0  0  0  0  0  0  0  0  0  0  0
   43.8240   26.0780  -11.0400 O   0  0  0  0  0  0  0  0  0  0  0  0
   42.4300   26.4860  -12.9910 C   0  0  0  0  0  0  0  0  0  0  0  0
   41.3690   27.1300  -12.2150 C   0  0  0  0  0  0  0  0  0  0  0  0
   41.4500   27.2780  -10.9970 O   0  0  0  0  0  0  0  0  0  0  0  0
   40.1760   27.6080  -12.9510 C   0  0  0  0  0  0  0  0  0  0  0  0
   39.1860   28.2280  -12.2120 O   0  0  0  0  0  0  0  0  0  0  0  0
   38.2910   29.0340  -14.7770 C   0  0  0  0  0  0  0  0  0  0  0  0
   37.2320   29.4840  -15.5690 C   0  0  0  0  0  0  0  0  0  0  0  0
   36.8530   28.7890  -16.7310 C   0  0  0  0  0  0  0  0  0  0  0  0
   35.6920   29.2910  -17.5540 C   0  0  0  0  0  0  0  0  0  0  0  0
   35.5220   28.5880  -18.7090 F   0  0  0  0  0  0  0  0  0  0  0  0
   35.8260   30.5940  -17.9420 F   0  0  0  0  0  0  0  0  0  0  0  0
   37.8449   25.9551  -20.1085 H   0  0  0  0  0  0  0  0  0  0  0  0
   39.2002   26.7904  -19.0619 H   0  0  0  0  0  0  0  0  0  0  0  0
   36.1772   26.5921  -18.4802 H   0  0  0  0  0  0  0  0  0  0  0  0
   39.1884   26.2894  -16.5805 H   0  0  0  0  0  0  0  0  0  0  0  0
   43.1106   25.6699  -16.2319 H   0  0  0  0  0  0  0  0  0  0  0  0
   45.1832   24.7910  -15.1495 H   0  0  0  0  0  0  0  0  0  0  0  0
   45.4904   25.0033  -12.6816 H   0  0  0  0  0  0  0  0  0  0  0  0
   44.1010   26.8900  -10.6600 H   0  0  0  0  0  0  0  0  0  0  0  0
   38.3890   28.4950  -12.6270 H   0  0  0  0  0  0  0  0  0  0  0  0
   38.5730   29.5962  -13.8745 H   0  0  0  0  0  0  0  0  0  0  0  0
   36.6871   30.3947  -15.2796 H   0  0  0  0  0  0  0  0  0  0  0  0
   34.8338   29.1694  -16.8767 H   0  0  0  0  0  0  0  0  0  0  0  0
  1  2  2  0
  2  3  1  0
  3  4  2  0
  4  5  1  0
  5  6  1  0
  6  7  1  0
  7  8  1  0
  8  9  2  0
  9 10  1  0
 10 11  2  0
 11 12  1  0
 12 13  1  0
 12 14  2  0
 14 15  1  0
 15 16  2  0
 15 17  1  0
 17 18  1  0
  5 19  2  0
 19 20  1  0
 20 21  2  0
 21 22  1  0
 22 23  1  0
 22 24  1  0
 21  3  1  0
 17  6  2  0
 14  8  1  0
  1 25  1  0
  1 26  1  0
  2 27  1  0
  4 28  1  0
  9 29  1  0
 10 30  1  0
 11 31  1  0
 13 32  1  0
 18 33  1  0
 19 34  1  0
 20 35  1  0
 22 36  1  0
M  END
>  <meeko>  (3) 
{"is_sidechain": [false], "free_energy": -6.711, "intermolecular_energy": -8.388, "internal_energy": 0.545}

$$$$
cand_021_out
     RDKit          3D

 36 38  0  0  0  0  0  0  0  0999 V2000
   46.6600   27.2520  -14.0420 C   0  0  0  0  0  0  0  0  0  0  0  0
   45.4850   27.1350  -13.4110 C   0  0  0  0  0  0  0  0  0  0  0  0
   44.4180   26.2430  -13.8800 C   0  0  0  0  0  0  0  0  0  0  0  0
   43.2280   26.8020  -14.3810 C   0  0  0  0  0  0  0  0  0  0  0  0
   42.1800   25.9970  -14.8510 C   0  0  0  0  0  0  0  0  0  0  0  0
   40.9380   26.5820  -15.3950 C   0  0  0  0  0  0  0  0  0  0  0  0
   40.2870   27.4100  -14.4890 O   0  0  0  0  0  0  0  0  0  0  0  0
   39.1170   28.0180  -14.8670 C   0  0  0  0  0  0  0  0  0  0  0  0
   38.4880   28.8280  -13.9200 C   0  0  0  0  0  0  0  0  0  0  0  0
   37.2940   29.4770  -14.2430 C   0  0  0  0  0  0  0  0  0  0  0  0
   36.7310   29.3180  -15.5100 C   0  0  0  0  0  0  0  0  0  0  0  0
   37.3600   28.5080  -16.4530 C   0  0  0  0  0  0  0  0  0  0  0  0
   36.7540   28.3960  -17.6740 O   0  0  0  0  0  0  0  0  0  0  0  0
   38.5540   27.8580  -16.1300 C   0  0  0  0  0  0  0  0  0  0  0  0
   39.2480   27.0000  -17.0910 C   0  0  0  0  0  0  0  0  0  0  0  0
   38.8190   26.8140  -18.2280 O   0  0  0  0  0  0  0  0  0  0  0  0
   40.5020   26.3500  -16.6470 C   0  0  0  0  0  0  0  0  0  0  0  0
   41.1580   25.5520  -17.5660 O   0  0  0  0  0  0  0  0  0  0  0  0
   42.3500   24.6080  -14.8370 C   0  0  0  0  0  0  0  0  0  0  0  0
   43.5280   24.0390  -14.3480 C   0  0  0  0  0  0  0  0  0  0  0  0
   44.5730   24.8440  -13.8640 C   0  0  0  0  0  0  0  0  0  0  0  0
   45.8250   24.1970  -13.3240 C   0  0  0  0  0  0  0  0  0  0  0  0
   46.1880   24.6870  -12.1050 F   0  0  0  0  0  0  0  0  0  0  0  0
   46.9160   24.3790  -14.1250 F   0  0  0  0  0  0  0  0  0  0  0  0
   47.4287   27.9347  -13.6509 H   0  0  0  0  0  0  0  0  0  0  0  0
   46.8567   26.6654  -14.9515 H   0  0  0  0  0  0  0  0  0  0  0  0
   45.3121   27.7321  -12.5035 H   0  0  0  0  0  0  0  0  0  0  0  0
   43.1169   27.8961  -14.4046 H   0  0  0  0  0  0  0  0  0  0  0  0
   38.9317   28.9549  -12.9215 H   0  0  0  0  0  0  0  0  0  0  0  0
   36.7966   30.1146  -13.4973 H   0  0  0  0  0  0  0  0  0  0  0  0
   35.7919   29.8315  -15.7638 H   0  0  0  0  0  0  0  0  0  0  0  0
   36.8380   29.0850  -18.3050 H   0  0  0  0  0  0  0  0  0  0  0  0
   42.0790   25.4010  -17.4830 H   0  0  0  0  0  0  0  0  0  0  0  0
   41.5475   23.9576  -15.2151 H   0  0  0  0  0  0  0  0  0  0  0  0
   43.6393   22.9447  -14.3417 H   0  0  0  0  0  0  0  0  0  0  0  0
   45.5529   23.1328  -13.2663 H   0  0  0  0  0  0  0  0  0  0  0  0
  1  2  2  0
  2  3  1  0
  3  4  2  0
  4  5  1  0
  5  6  1  0
  6  7  1  0
  7  8  1  0
  8  9  2  0
  9 10  1  0
 10 11  2  0
 11 12  1  0
 12 13  1  0
 12 14  2  0
 14 15  1  0
 15 16  2  0
 15 17  1  0
 17 18  1  0
  5 19  2  0
 19 20  1  0
 20 21  2  0
 21 22  1  0
 22 23  1  0
 22 24  1  0
 21  3  1  0
 17  6  2  0
 14  8  1  0
  1 25  1  0
  1 26  1  0
  2 27  1  0
  4 28  1  0
  9 29  1  0
 10 30  1  0
 11 31  1  0
 13 32  1  0
 18 33  1  0
 19 34  1  0
 20 35  1  0
 22 36  1  0
M  END
>  <meeko>  (4) 
{"is_sidechain": [false], "free_energy": -6.223, "intermolecular_energy": -7.467, "internal_energy": 0.227}

$$$$
cand_021_out
     RDKit          3D

 36 38  0  0  0  0  0  0  0  0999 V2000
   36.3940   29.5490  -14.5020 C   0  0  0  0  0  0  0  0  0  0  0  0
   36.5920   29.1120  -15.7520 C   0  0  0  0  0  0  0  0  0  0  0  0
   37.6270   28.1270  -16.0920 C   0  0  0  0  0  0  0  0  0  0  0  0
   38.6950   27.9200  -15.2010 C   0  0  0  0  0  0  0  0  0  0  0  0
   39.7060   26.9860  -15.4720 C   0  0  0  0  0  0  0  0  0  0  0  0
   40.8190   26.7530  -14.5290 C   0  0  0  0  0  0  0  0  0  0  0  0
   41.9320   26.1840  -15.1360 O   0  0  0  0  0  0  0  0  0  0  0  0
   43.0380   25.9140  -14.3710 C   0  0  0  0  0  0  0  0  0  0  0  0
   44.1280   25.3280  -15.0180 C   0  0  0  0  0  0  0  0  0  0  0  0
   45.2860   25.0290  -14.2960 C   0  0  0  0  0  0  0  0  0  0  0  0
   45.3550   25.3150  -12.9320 C   0  0  0  0  0  0  0  0  0  0  0  0
   44.2660   25.8990  -12.2890 C   0  0  0  0  0  0  0  0  0  0  0  0
   44.4010   26.1520  -10.9520 O   0  0  0  0  0  0  0  0  0  0  0  0
   43.1070   26.1970  -13.0110 C   0  0  0  0  0  0  0  0  0  0  0  0
   41.9410   26.8120  -12.3750 C   0  0  0  0  0  0  0  0  0  0  0  0
   41.9260   27.1000  -11.1790 O   0  0  0  0  0  0  0  0  0  0  0  0
   40.7590   27.0810  -13.2250 C   0  0  0  0  0  0  0  0  0  0  0  0
   39.6670   27.6740  -12.6190 O   0  0  0  0  0  0  0  0  0  0  0  0
   39.6190   26.2340  -16.6500 C   0  0  0  0  0  0  0  0  0  0  0  0
   38.5610   26.4250  -17.5410 C   0  0  0  0  0  0  0  0  0  0  0  0
   37.5560   27.3710  -17.2770 C   0  0  0  0  0  0  0  0  0  0  0  0
   36.4360   27.5660  -18.2700 C   0  0  0  0  0  0  0  0  0  0  0  0
   36.6890   26.9750  -19.4720 F   0  0  0  0  0  0  0  0  0  0  0  0
   36.1930   28.8790  -18.5590 F   0  0  0  0  0  0  0  0  0  0  0  0
   35.6057   30.2881  -14.2961 H   0  0  0  0  0  0  0  0  0  0  0  0
   37.0196   29.1690  -13.6809 H   0  0  0  0  0  0  0  0  0  0  0  0
   35.9539   29.5065  -16.5565 H   0  0  0  0  0  0  0  0  0  0  0  0
   38.7387   28.5040  -14.2699 H   0  0  0  0  0  0  0  0  0  0  0  0
   44.0749   25.1024  -16.0933 H   0  0  0  0  0  0  0  0  0  0  0  0
   46.1454   24.5670  -14.8040 H   0  0  0  0  0  0  0  0  0  0  0  0
   46.2680   25.0797  -12.3653 H   0  0  0  0  0  0  0  0  0  0  0  0
   44.3610   25.4470  -10.3350 H   0  0  0  0  0  0  0  0  0  0  0  0
   38.9400   27.1490  -12.3470 H   0  0  0  0  0  0  0  0  0  0  0  0
   40.3922   25.4849  -16.8758 H   0  0  0  0  0  0  0  0  0  0  0  0
   38.5136   25.8264  -18.4627 H   0  0  0  0  0  0  0  0  0  0  0  0
   35.5717   27.1068  -17.7679 H   0  0  0  0  0  0  0  0  0  0  0  0
  1  2  2  0
  2  3  1  0
  3  4  2  0
  4  5  1  0
  5  6  1  0
  6  7  1  0
  7  8  1  0
  8  9  2  0
  9 10  1  0
 10 11  2  0
 11 12  1  0
 12 13  1  0
 12 14  2  0
 14 15  1  0
 15 16  2  0
 15 17  1  0
 17 18  1  0
  5 19  2  0
 19 20  1  0
 20 21  2  0
 21 22  1  0
 22 23  1  0
 22 24  1  0
 21  3  1  0
 17  6  2  0
 14  8  1  0
  1 25  1  0
  1 26  1  0
  2 27  1  0
  4 28  1  0
  9 29  1  0
 10 30  1  0
 11 31  1  0
 13 32  1  0
 18 33  1  0
 19 34  1  0
 20 35  1  0
 22 36  1  0
M  END
>  <meeko>  (5) 
{"is_sidechain": [false], "free_energy": -5.692, "intermolecular_energy": -6.75, "internal_energy": 0.165}

$$$$
cand_021_out
     RDKit          3D

 36 38  0  0  0  0  0  0  0  0999 V2000
   45.3100   24.9510  -14.1810 C   0  0  0  0  0  0  0  0  0  0  0  0
   44.0400   24.7840  -14.5690 C   0  0  0  0  0  0  0  0  0  0  0  0
   42.9730   25.7310  -14.2210 C   0  0  0  0  0  0  0  0  0  0  0  0
   41.9340   25.9600  -15.1410 C   0  0  0  0  0  0  0  0  0  0  0  0
   40.8860   26.8480  -14.8570 C   0  0  0  0  0  0  0  0  0  0  0  0
   39.7830   27.0760  -15.8120 C   0  0  0  0  0  0  0  0  0  0  0  0
   38.8570   28.0070  -15.3580 O   0  0  0  0  0  0  0  0  0  0  0  0
   37.7790   28.3120  -16.1510 C   0  0  0  0  0  0  0  0  0  0  0  0
   36.8660   29.2400  -15.6490 C   0  0  0  0  0  0  0  0  0  0  0  0
   35.7470   29.5950  -16.4070 C   0  0  0  0  0  0  0  0  0  0  0  0
   35.5430   29.0240  -17.6640 C   0  0  0  0  0  0  0  0  0  0  0  0
   36.4560   28.0980  -18.1620 C   0  0  0  0  0  0  0  0  0  0  0  0
   36.1950   27.5780  -19.4000 O   0  0  0  0  0  0  0  0  0  0  0  0
   37.5740   27.7420  -17.4040 C   0  0  0  0  0  0  0  0  0  0  0  0
   38.5580   26.7730  -17.8900 C   0  0  0  0  0  0  0  0  0  0  0  0
   38.4530   26.2320  -18.9890 O   0  0  0  0  0  0  0  0  0  0  0  0
   39.7040   26.4580  -17.0060 C   0  0  0  0  0  0  0  0  0  0  0  0
   40.6350   25.5530  -17.4790 O   0  0  0  0  0  0  0  0  0  0  0  0
   40.8770   27.4920  -13.6140 C   0  0  0  0  0  0  0  0  0  0  0  0
   41.8990   27.2690  -12.6890 C   0  0  0  0  0  0  0  0  0  0  0  0
   42.9570   26.3910  -12.9790 C   0  0  0  0  0  0  0  0  0  0  0  0
   44.0570   26.1880  -11.9650 C   0  0  0  0  0  0  0  0  0  0  0  0
   43.5940   26.1700  -10.6830 F   0  0  0  0  0  0  0  0  0  0  0  0
   45.0050   27.1710  -11.9910 F   0  0  0  0  0  0  0  0  0  0  0  0
   46.0741   24.2132  -14.4672 H   0  0  0  0  0  0  0  0  0  0  0  0
   45.5897   25.8260  -13.5759 H   0  0  0  0  0  0  0  0  0  0  0  0
   43.7850   23.9010  -15.1734 H   0  0  0  0  0  0  0  0  0  0  0  0
   41.9435   25.4306  -16.1052 H   0  0  0  0  0  0  0  0  0  0  0  0
   37.0267   29.6912  -14.6587 H   0  0  0  0  0  0  0  0  0  0  0  0
   35.0257   30.3257  -16.0123 H   0  0  0  0  0  0  0  0  0  0  0  0
   34.6624   29.3050  -18.2604 H   0  0  0  0  0  0  0  0  0  0  0  0
   36.5490   26.7440  -19.6430 H   0  0  0  0  0  0  0  0  0  0  0  0
   41.5380   25.7970  -17.5400 H   0  0  0  0  0  0  0  0  0  0  0  0
   40.0566   28.1806  -13.3635 H   0  0  0  0  0  0  0  0  0  0  0  0
   41.8755   27.7881  -11.7195 H   0  0  0  0  0  0  0  0  0  0  0  0
   44.4886   25.2181  -12.2531 H   0  0  0  0  0  0  0  0  0  0  0  0
  1  2  2  0
  2  3  1  0
  3  4  2  0
  4  5  1  0
  5  6  1  0
  6  7  1  0
  7  8  1  0
  8  9  2  0
  9 10  1  0
 10 11  2  0
 11 12  1  0
 12 13  1  0
 12 14  2  0
 14 15  1  0
 15 16  2  0
 15 17  1  0
 17 18  1  0
  5 19  2  0
 19 20  1  0
 20 21  2  0
 21 22  1  0
 22 23  1  0
 22 24  1  0
 21  3  1  0
 17  6  2  0
 14  8  1  0
  1 25  1  0
  1 26  1  0
  2 27  1  0
  4 28  1  0
  9 29  1  0
 10 30  1  0
 11 31  1  0
 13 32  1  0
 18 33  1  0
 19 34  1  0
 20 35  1  0
 22 36  1  0
M  END
>  <meeko>  (6) 
{"is_sidechain": [false], "free_energy": -5.636, "intermolecular_energy": -7.313, "internal_energy": 0.797}

$$$$
cand_021_out
     RDKit          3D

 36 38  0  0  0  0  0  0  0  0999 V2000
   45.9040   25.3270  -14.8680 C   0  0  0  0  0  0  0  0  0  0  0  0
   44.6200   24.9710  -14.7320 C   0  0  0  0  0  0  0  0  0  0  0  0
   43.6580   25.7570  -13.9480 C   0  0  0  0  0  0  0  0  0  0  0  0
   42.4840   26.2200  -14.5700 C   0  0  0  0  0  0  0  0  0  0  0  0
   41.5290   26.9670  -13.8670 C   0  0  0  0  0  0  0  0  0  0  0  0
   40.2860   27.4390  -14.5110 C   0  0  0  0  0  0  0  0  0  0  0  0
   40.0640   26.8520  -15.7520 O   0  0  0  0  0  0  0  0  0  0  0  0
   38.9420   27.2040  -16.4600 C   0  0  0  0  0  0  0  0  0  0  0  0
   38.7670   26.6030  -17.7070 C   0  0  0  0  0  0  0  0  0  0  0  0
   37.6450   26.9160  -18.4790 C   0  0  0  0  0  0  0  0  0  0  0  0
   36.7000   27.8270  -18.0030 C   0  0  0  0  0  0  0  0  0  0  0  0
   36.8780   28.4250  -16.7570 C   0  0  0  0  0  0  0  0  0  0  0  0
   35.9150   29.3080  -16.3530 O   0  0  0  0  0  0  0  0  0  0  0  0
   38.0010   28.1130  -15.9870 C   0  0  0  0  0  0  0  0  0  0  0  0
   38.2260   28.7170  -14.6730 C   0  0  0  0  0  0  0  0  0  0  0  0
   37.4370   29.5230  -14.1820 O   0  0  0  0  0  0  0  0  0  0  0  0
   39.4510   28.3260  -13.9390 C   0  0  0  0  0  0  0  0  0  0  0  0
   39.6480   28.8920  -12.6930 O   0  0  0  0  0  0  0  0  0  0  0  0
   41.7520   27.2270  -12.5100 C   0  0  0  0  0  0  0  0  0  0  0  0
   42.9110   26.7680  -11.8780 C   0  0  0  0  0  0  0  0  0  0  0  0
   43.8760   26.0320  -12.5850 C   0  0  0  0  0  0  0  0  0  0  0  0
   45.1260   25.5680  -11.8780 C   0  0  0  0  0  0  0  0  0  0  0  0
   46.2360   26.2580  -12.2640 F   0  0  0  0  0  0  0  0  0  0  0  0
   45.4210   24.2550  -12.1070 F   0  0  0  0  0  0  0  0  0  0  0  0
   46.5868   24.7053  -15.4658 H   0  0  0  0  0  0  0  0  0  0  0  0
   46.2758   26.2411  -14.3819 H   0  0  0  0  0  0  0  0  0  0  0  0
   44.2717   24.0528  -15.2275 H   0  0  0  0  0  0  0  0  0  0  0  0
   42.3118   25.9905  -15.6319 H   0  0  0  0  0  0  0  0  0  0  0  0
   39.5107   25.8843  -18.0816 H   0  0  0  0  0  0  0  0  0  0  0  0
   37.5061   26.4441  -19.4629 H   0  0  0  0  0  0  0  0  0  0  0  0
   35.8164   28.0723  -18.6106 H   0  0  0  0  0  0  0  0  0  0  0  0
   35.0740   28.9930  -16.0830 H   0  0  0  0  0  0  0  0  0  0  0  0
   38.9740   28.8410  -12.0430 H   0  0  0  0  0  0  0  0  0  0  0  0
   41.0079   27.7981  -11.9353 H   0  0  0  0  0  0  0  0  0  0  0  0
   43.0697   26.9863  -10.8116 H   0  0  0  0  0  0  0  0  0  0  0  0
   44.8924   25.7389  -10.8168 H   0  0  0  0  0  0  0  0  0  0  0  0
  1  2  2  0
  2  3  1  0
  3  4  2  0
  4  5  1  0
  5  6  1  0
  6  7  1  0
  7  8  1  0
  8  9  2  0
  9 10  1  0
 10 11  2  0
 11 12  1  0
 12 13  1  0
 12 14  2  0
 14 15  1  0
 15 16  2  0
 15 17  1  0
 17 18  1  0
  5 19  2  0
 19 20  1  0
 20 21  2  0
 21 22  1  0
 22 23  1  0
 22 24  1  0
 21  3  1  0
 17  6  2  0
 14  8  1  0
  1 25  1  0
  1 26  1  0
  2 27  1  0
  4 28  1  0
  9 29  1  0
 10 30  1  0
 11 31  1  0
 13 32  1  0
 18 33  1  0
 19 34  1  0
 20 35  1  0
 22 36  1  0
M  END
>  <meeko>  (7) 
{"is_sidechain": [false], "free_energy": -5.216, "intermolecular_energy": -7.108, "internal_energy": 1.111}

$$$$
cand_021_out
     RDKit          3D

 36 38  0  0  0  0  0  0  0  0999 V2000
   36.9900   26.3510  -20.4320 C   0  0  0  0  0  0  0  0  0  0  0  0
   36.1450   26.9810  -19.6060 C   0  0  0  0  0  0  0  0  0  0  0  0
   36.5910   27.6590  -18.3820 C   0  0  0  0  0  0  0  0  0  0  0  0
   37.7310   27.1810  -17.7110 C   0  0  0  0  0  0  0  0  0  0  0  0
   38.2060   27.7960  -16.5430 C   0  0  0  0  0  0  0  0  0  0  0  0
   39.4140   27.3090  -15.8470 C   0  0  0  0  0  0  0  0  0  0  0  0
   39.4180   27.6140  -14.4910 O   0  0  0  0  0  0  0  0  0  0  0  0
   40.4850   27.2190  -13.7250 C   0  0  0  0  0  0  0  0  0  0  0  0
   40.4550   27.5600  -12.3720 C   0  0  0  0  0  0  0  0  0  0  0  0
   41.5110   27.1860  -11.5370 C   0  0  0  0  0  0  0  0  0  0  0  0
   42.5930   26.4720  -12.0530 C   0  0  0  0  0  0  0  0  0  0  0  0
   42.6200   26.1320  -13.4040 C   0  0  0  0  0  0  0  0  0  0  0  0
   43.7100   25.4320  -13.8430 O   0  0  0  0  0  0  0  0  0  0  0  0
   41.5650   26.5070  -14.2400 C   0  0  0  0  0  0  0  0  0  0  0  0
   41.5530   26.1710  -15.6640 C   0  0  0  0  0  0  0  0  0  0  0  0
   42.4660   25.5370  -16.1920 O   0  0  0  0  0  0  0  0  0  0  0  0
   40.3920   26.6210  -16.4650 C   0  0  0  0  0  0  0  0  0  0  0  0
   40.3840   26.2870  -17.8060 O   0  0  0  0  0  0  0  0  0  0  0  0
   37.5320   28.9250  -16.0630 C   0  0  0  0  0  0  0  0  0  0  0  0
   36.4010   29.4140  -16.7230 C   0  0  0  0  0  0  0  0  0  0  0  0
   35.9170   28.7900  -17.8850 C   0  0  0  0  0  0  0  0  0  0  0  0
   34.6820   29.3320  -18.5620 C   0  0  0  0  0  0  0  0  0  0  0  0
   34.4400   28.7430  -19.7670 F   0  0  0  0  0  0  0  0  0  0  0  0
   34.7510   30.6700  -18.8230 F   0  0  0  0  0  0  0  0  0  0  0  0
   36.6081   25.8571  -21.3377 H   0  0  0  0  0  0  0  0  0  0  0  0
   38.0660   26.3274  -20.2048 H   0  0  0  0  0  0  0  0  0  0  0  0
   35.0734   26.9911  -19.8543 H   0  0  0  0  0  0  0  0  0  0  0  0
   38.2623   26.3049  -18.1112 H   0  0  0  0  0  0  0  0  0  0  0  0
   39.6019   28.1219  -11.9639 H   0  0  0  0  0  0  0  0  0  0  0  0
   41.4893   27.4550  -10.4706 H   0  0  0  0  0  0  0  0  0  0  0  0
   43.4234   26.1780  -11.3943 H   0  0  0  0  0  0  0  0  0  0  0  0
   43.6860   24.4950  -13.8680 H   0  0  0  0  0  0  0  0  0  0  0  0
   39.5700   26.1330  -18.2460 H   0  0  0  0  0  0  0  0  0  0  0  0
   37.8960   29.4324  -15.1574 H   0  0  0  0  0  0  0  0  0  0  0  0
   35.8827   30.2998  -16.3271 H   0  0  0  0  0  0  0  0  0  0  0  0
   33.8832   29.1137  -17.8379 H   0  0  0  0  0  0  0  0  0  0  0  0
  1  2  2  0
  2  3  1  0
  3  4  2  0
  4  5  1  0
  5  6  1  0
  6  7  1  0
  7  8  1  0
  8  9  2  0
  9 10  1  0
 10 11  2  0
 11 12  1  0
 12 13  1  0
 12 14  2  0
 14 15  1  0
 15 16  2  0
 15 17  1  0
 17 18  1  0
  5 19  2  0
 19 20  1  0
 20 21  2  0
 21 22  1  0
 22 23  1  0
 22 24  1  0
 21  3  1  0
 17  6  2  0
 14  8  1  0
  1 25  1  0
  1 26  1  0
  2 27  1  0
  4 28  1  0
  9 29  1  0
 10 30  1  0
 11 31  1  0
 13 32  1  0
 18 33  1  0
 19 34  1  0
 20 35  1  0
 22 36  1  0
M  END
>  <meeko>  (8) 
{"is_sidechain": [false], "free_energy": -4.973, "intermolecular_energy": -6.27, "internal_energy": 0.573}

$$$$
