cand_011_out
     RDKit          3D

 35 37  0  0  0  0  0  0  0  0999 V2000
   36.4520   27.4250  -18.9570 C   0  0  0  0  0  0  0  0  0  0  0  0
   37.4830   27.2920  -17.8680 C   0  0  0  0  0  0  0  0  0  0  0  0
   38.4330   26.2640  -17.9490 C   0  0  0  0  0  0  0  0  0  0  0  0
   39.4080   26.1120  -16.9600 C   0  0  0  0  0  0  0  0  0  0  0  0
   39.4600   26.9790  -15.8640 C   0  0  0  0  0  0  0  0  0  0  0  0
   40.5120   26.8110  -14.8400 C   0  0  0  0  0  0  0  0  0  0  0  0
   41.6650   26.2170  -15.3410 O   0  0  0  0  0  0  0  0  0  0  0  0
   42.7210   26.0010  -14.4930 C   0  0  0  0  0  0  0  0  0  0  0  0
   43.8640   25.4150  -15.0400 C   0  0  0  0  0  0  0  0  0  0  0  0
   44.9750   25.1680  -14.2310 C   0  0  0  0  0  0  0  0  0  0  0  0
   44.9430   25.5040  -12.8750 C   0  0  0  0  0  0  0  0  0  0  0  0
   43.8020   26.0890  -12.3320 C   0  0  0  0  0  0  0  0  0  0  0  0
   43.8390   26.3910  -10.9990 O   0  0  0  0  0  0  0  0  0  0  0  0
   42.6900   26.3370  -13.1420 C   0  0  0  0  0  0  0  0  0  0  0  0
   41.4720   26.9490  -12.6110 C   0  0  0  0  0  0  0  0  0  0  0  0
   41.3630   27.2660  -11.4280 O   0  0  0  0  0  0  0  0  0  0  0  0
   40.3540   27.1780  -13.5540 C   0  0  0  0  0  0  0  0  0  0  0  0
   39.2010   27.7440  -13.0430 O   0  0  0  0  0  0  0  0  0  0  0  0
   38.5200   28.0180  -15.7920 C   0  0  0  0  0  0  0  0  0  0  0  0
   37.5280   28.1900  -16.7800 C   0  0  0  0  0  0  0  0  0  0  0  0
   36.5360   29.3240  -16.6440 C   0  0  0  0  0  0  0  0  0  0  0  0
   37.0700   30.5310  -16.9860 F   0  0  0  0  0  0  0  0  0  0  0  0
   35.4260   29.1800  -17.4230 F   0  0  0  0  0  0  0  0  0  0  0  0
   36.0700   29.4680  -15.3710 F   0  0  0  0  0  0  0  0  0  0  0  0
   35.4569   27.5534  -18.5061 H   0  0  0  0  0  0  0  0  0  0  0  0
   36.6878   28.3002  -19.5803 H   0  0  0  0  0  0  0  0  0  0  0  0
   36.4580   26.5186  -19.5803 H   0  0  0  0  0  0  0  0  0  0  0  0
   38.4104   25.5690  -18.8013 H   0  0  0  0  0  0  0  0  0  0  0  0
   40.1446   25.2995  -17.0445 H   0  0  0  0  0  0  0  0  0  0  0  0
   43.8893   25.1482  -16.1069 H   0  0  0  0  0  0  0  0  0  0  0  0
   45.8767   24.7083  -14.6618 H   0  0  0  0  0  0  0  0  0  0  0  0
   45.8176   25.3067  -12.2377 H   0  0  0  0  0  0  0  0  0  0  0  0
   43.1300   26.1360  -10.4410 H   0  0  0  0  0  0  0  0  0  0  0  0
   39.2590   28.4290  -12.4050 H   0  0  0  0  0  0  0  0  0  0  0  0
   38.5575   28.7166  -14.9431 H   0  0  0  0  0  0  0  0  0  0  0  0
  1  2  1  0
  2  3  2  0
  3  4  1  0
  4  5  2  0
  5  6  1  0
  6  7  1  0
  7  8  1  0
  8  9  2  0
  9 10  1  0
 10 11  2  0
 11 12  1  0
 12 13  1  0
 12 14  2  0
 14 15  1  0
 15 16  2  0
 15 17  1  0
 17 18  1  0
  5 19  1  0
 19 20  2  0
 20 21  1  0
 21 22  1  0
 21 23  1  0
 21 24  1  0
 20  2  1  0
 17  6  2  0
 14  8  1  0
  1 25  1  0
  1 26  1  0
  1 27  1  0
  3 28  1  0
  4 29  1  0
  9 30  1  0
 10 31  1  0
 11 32  1  0
 13 33  1  0
 18 34  1  0
 19 35  1  0
M  END
>  <meeko>  (1) 
{"is_sidechain": [false], "free_energy": -7.695, "intermolecular_energy": -9.045, "internal_energy": 0.454}

$$$$
cand_011_out
     RDKit          3D

 35 37  0  0  0  0  0  0  0  0999 V2000
   45.3650   24.4480  -13.2750 C   0  0  0  0  0  0  0  0  0  0  0  0
   44.1380   25.0540  -13.9030 C   0  0  0  0  0  0  0  0  0  0  0  0
   43.4100   24.3070  -14.8400 C   0  0  0  0  0  0  0  0  0  0  0  0
   42.2640   24.8340  -15.4400 C   0  0  0  0  0  0  0  0  0  0  0  0
   41.8150   26.1200  -15.1220 C   0  0  0  0  0  0  0  0  0  0  0  0
   40.5890   26.6500  -15.7550 C   0  0  0  0  0  0  0  0  0  0  0  0
   39.8320   27.4370  -14.8950 O   0  0  0  0  0  0  0  0  0  0  0  0
   38.6660   27.9910  -15.3580 C   0  0  0  0  0  0  0  0  0  0  0  0
   37.9450   28.7860  -14.4660 C   0  0  0  0  0  0  0  0  0  0  0  0
   36.7470   29.3800  -14.8730 C   0  0  0  0  0  0  0  0  0  0  0  0
   36.2720   29.1780  -16.1710 C   0  0  0  0  0  0  0  0  0  0  0  0
   36.9930   28.3840  -17.0590 C   0  0  0  0  0  0  0  0  0  0  0  0
   36.4690   28.2270  -18.3120 O   0  0  0  0  0  0  0  0  0  0  0  0
   38.1920   27.7910  -16.6510 C   0  0  0  0  0  0  0  0  0  0  0  0
   38.9800   26.9500  -17.5530 C   0  0  0  0  0  0  0  0  0  0  0  0
   38.6240   26.7180  -18.7070 O   0  0  0  0  0  0  0  0  0  0  0  0
   40.2390   26.3750  -17.0260 C   0  0  0  0  0  0  0  0  0  0  0  0
   40.9720   25.5710  -17.8790 O   0  0  0  0  0  0  0  0  0  0  0  0
   42.5330   26.8610  -14.1720 C   0  0  0  0  0  0  0  0  0  0  0  0
   43.6930   26.3470  -13.5540 C   0  0  0  0  0  0  0  0  0  0  0  0
   44.4300   27.1960  -12.5420 C   0  0  0  0  0  0  0  0  0  0  0  0
   44.1210   26.8660  -11.2570 F   0  0  0  0  0  0  0  0  0  0  0  0
   45.7880   27.1000  -12.6300 F   0  0  0  0  0  0  0  0  0  0  0  0
   44.1520   28.5250  -12.6650 F   0  0  0  0  0  0  0  0  0  0  0  0
   45.2760   24.4920  -12.1795 H   0  0  0  0  0  0  0  0  0  0  0  0
   45.4600   23.3994  -13.5934 H   0  0  0  0  0  0  0  0  0  0  0  0
   46.2554   25.0099  -13.5934 H   0  0  0  0  0  0  0  0  0  0  0  0
   43.7454   23.2937  -15.1058 H   0  0  0  0  0  0  0  0  0  0  0  0
   41.7076   24.2300  -16.1719 H   0  0  0  0  0  0  0  0  0  0  0  0
   38.3190   28.9450  -13.4438 H   0  0  0  0  0  0  0  0  0  0  0  0
   36.1779   30.0069  -14.1708 H   0  0  0  0  0  0  0  0  0  0  0  0
   35.3293   29.6457  -16.4913 H   0  0  0  0  0  0  0  0  0  0  0  0
   36.7260   28.8060  -19.0030 H   0  0  0  0  0  0  0  0  0  0  0  0
   41.3700   24.7870  -17.5560 H   0  0  0  0  0  0  0  0  0  0  0  0
   42.1831   27.8683  -13.9018 H   0  0  0  0  0  0  0  0  0  0  0  0
  1  2  1  0
  2  3  2  0
  3  4  1  0
  4  5  2  0
  5  6  1  0
  6  7  1  0
  7  8  1  0
  8  9  2  0
  9 10  1  0
 10 11  2  0
 11 12  1  0
 12 13  1  0
 12 14  2  0
 14 15  1  0
 15 16  2  0
 15 17  1  0
 17 18  1  0
  5 19  1  0
 19 20  2  0
 20 21  1  0
 21 22  1  0
 21 23  1  0
 21 24  1  0
 20  2  1  0
 17  6  2  0
 14  8  1  0
  1 25  1  0
  1 26  1  0
  1 27  1  0
  3 28  1  0
  4 29  1  0
  9 30  1  0
 10 31  1  0
 11 32  1  0
 13 33  1  0
 18 34  1  0
 19 35  1  0
M  END
>  <meeko>  (2) 
{"is_sidechain": [false], "free_energy": -7.678, "intermolecular_energy": -8.725, "internal_energy": 0.154}

$$$$
cand_011_out
     RDKit          3D

 35 37  0  0  0  0  0  0  0  0999 V2000
   45.7400   23.9540  -13.8090 C   0  0  0  0  0  0  0  0  0  0  0  0
   44.4800   24.7500  -14.0190 C   0  0  0  0  0  0  0  0  0  0  0  0
   43.3110   24.0870  -14.4200 C   0  0  0  0  0  0  0  0  0  0  0  0
   42.1220   24.7920  -14.6200 C   0  0  0  0  0  0  0  0  0  0  0  0
   42.0680   26.1770  -14.4280 C   0  0  0  0  0  0  0  0  0  0  0  0
   40.7930   26.8990  -14.6280 C   0  0  0  0  0  0  0  0  0  0  0  0
   40.2710   26.7310  -15.9050 O   0  0  0  0  0  0  0  0  0  0  0  0
   39.0890   27.3510  -16.2230 C   0  0  0  0  0  0  0  0  0  0  0  0
   38.5920   27.1450  -17.5110 C   0  0  0  0  0  0  0  0  0  0  0  0
   37.3930   27.7470  -17.9000 C   0  0  0  0  0  0  0  0  0  0  0  0
   36.6930   28.5550  -17.0020 C   0  0  0  0  0  0  0  0  0  0  0  0
   37.1900   28.7590  -15.7180 C   0  0  0  0  0  0  0  0  0  0  0  0
   36.4540   29.5630  -14.8910 O   0  0  0  0  0  0  0  0  0  0  0  0
   38.3890   28.1560  -15.3280 C   0  0  0  0  0  0  0  0  0  0  0  0
   38.9470   28.3440  -13.9890 C   0  0  0  0  0  0  0  0  0  0  0  0
   38.3940   29.0470  -13.1450 O   0  0  0  0  0  0  0  0  0  0  0  0
   40.2180   27.6540  -13.6730 C   0  0  0  0  0  0  0  0  0  0  0  0
   40.7460   27.8470  -12.4100 O   0  0  0  0  0  0  0  0  0  0  0  0
   43.2320   26.8370  -14.0100 C   0  0  0  0  0  0  0  0  0  0  0  0
   44.4430   26.1440  -13.8020 C   0  0  0  0  0  0  0  0  0  0  0  0
   45.6690   26.9120  -13.3600 C   0  0  0  0  0  0  0  0  0  0  0  0
   45.3600   27.9930  -12.5890 F   0  0  0  0  0  0  0  0  0  0  0  0
   46.5440   26.1730  -12.6200 F   0  0  0  0  0  0  0  0  0  0  0  0
   46.3960   27.3950  -14.4070 F   0  0  0  0  0  0  0  0  0  0  0  0
   45.9246   23.8374  -12.7309 H   0  0  0  0  0  0  0  0  0  0  0  0
   45.6284   22.9621  -14.2713 H   0  0  0  0  0  0  0  0  0  0  0  0
   46.5878   24.4808  -14.2713 H   0  0  0  0  0  0  0  0  0  0  0  0
   43.3308   22.9987  -14.5789 H   0  0  0  0  0  0  0  0  0  0  0  0
   41.2163   24.2515  -14.9325 H   0  0  0  0  0  0  0  0  0  0  0  0
   39.1439   26.5093  -18.2190 H   0  0  0  0  0  0  0  0  0  0  0  0
   37.0001   27.5843  -18.9145 H   0  0  0  0  0  0  0  0  0  0  0  0
   35.7495   29.0300  -17.3090 H   0  0  0  0  0  0  0  0  0  0  0  0
   36.5240   29.4670  -13.9610 H   0  0  0  0  0  0  0  0  0  0  0  0
   40.9390   28.7140  -12.1110 H   0  0  0  0  0  0  0  0  0  0  0  0
   43.2002   27.9233  -13.8398 H   0  0  0  0  0  0  0  0  0  0  0  0
  1  2  1  0
  2  3  2  0
  3  4  1  0
  4  5  2  0
  5  6  1  0
  6  7  1  0
  7  8  1  0
  8  9  2  0
  9 10  1  0
 10 11  2  0
 11 12  1  0
 12 13  1  0
 12 14  2  0
 14 15  1  0
 15 16  2  0
 15 17  1  0
 17 18  1  0
  5 19  1  0
 19 20  2  0
 20 21  1  0
 21 22  1  0
 21 23  1  0
 21 24  1  0
 20  2  1  0
 17  6  2  0
 14  8  1  0
  1 25  1  0
  1 26  1  0
  1 27  1  0
  3 28  1  0
  4 29  1  0
  9 30  1  0
 10 31  1  0
 11 32  1  0
 13 33  1  0
 18 34  1  0
 19 35  1  0
M  END
>  <meeko>  (3) 
{"is_sidechain": [false], "free_energy": -7.11, "intermolecular_energy": -7.948, "internal_energy": 0.044}

$$$$
cand_011_out
     RDKit          3D

 35 37  0  0  0  0  0  0  0  0999 V2000
   44.4120   25.8790  -11.2600 C   0  0  0  0  0  0  0  0  0  0  0  0
   43.2400   26.2880  -12.1120 C   0  0  0  0  0  0  0  0  0  0  0  0
   42.1440   26.9230  -11.5090 C   0  0  0  0  0  0  0  0  0  0  0  0
   41.0410   27.3200  -12.2670 C   0  0  0  0  0  0  0  0  0  0  0  0
   41.0000   27.0940  -13.6470 C   0  0  0  0  0  0  0  0  0  0  0  0
   39.8300   27.5400  -14.4320 C   0  0  0  0  0  0  0  0  0  0  0  0
   39.7410   26.9180  -15.6720 O   0  0  0  0  0  0  0  0  0  0  0  0
   38.6990   27.2430  -16.5030 C   0  0  0  0  0  0  0  0  0  0  0  0
   38.6390   26.5840  -17.7320 C   0  0  0  0  0  0  0  0  0  0  0  0
   37.6050   26.8690  -18.6260 C   0  0  0  0  0  0  0  0  0  0  0  0
   36.6310   27.8140  -18.2910 C   0  0  0  0  0  0  0  0  0  0  0  0
   36.6930   28.4690  -17.0640 C   0  0  0  0  0  0  0  0  0  0  0  0
   35.7090   29.3820  -16.8020 O   0  0  0  0  0  0  0  0  0  0  0  0
   37.7280   28.1830  -16.1700 C   0  0  0  0  0  0  0  0  0  0  0  0
   37.8300   28.8500  -14.8710 C   0  0  0  0  0  0  0  0  0  0  0  0
   37.0170   29.6970  -14.5070 O   0  0  0  0  0  0  0  0  0  0  0  0
   38.9600   28.4690  -13.9930 C   0  0  0  0  0  0  0  0  0  0  0  0
   39.0570   29.1120  -12.7730 O   0  0  0  0  0  0  0  0  0  0  0  0
   42.1030   26.4740  -14.2530 C   0  0  0  0  0  0  0  0  0  0  0  0
   43.2270   26.0660  -13.5050 C   0  0  0  0  0  0  0  0  0  0  0  0
   44.3830   25.3950  -14.2140 C   0  0  0  0  0  0  0  0  0  0  0  0
   45.5110   26.1590  -14.2150 F   0  0  0  0  0  0  0  0  0  0  0  0
   44.7480   24.2020  -13.6630 F   0  0  0  0  0  0  0  0  0  0  0  0
   44.1140   25.1220  -15.5220 F   0  0  0  0  0  0  0  0  0  0  0  0
   44.1433   25.9728  -10.1974 H   0  0  0  0  0  0  0  0  0  0  0  0
   44.6786   24.8347  -11.4800 H   0  0  0  0  0  0  0  0  0  0  0  0
   45.2704   26.5307  -11.4800 H   0  0  0  0  0  0  0  0  0  0  0  0
   42.1539   27.1105  -10.4251 H   0  0  0  0  0  0  0  0  0  0  0  0
   40.1932   27.8169  -11.7728 H   0  0  0  0  0  0  0  0  0  0  0  0
   39.4057   25.8407  -17.9960 H   0  0  0  0  0  0  0  0  0  0  0  0
   37.5569   26.3496  -19.5944 H   0  0  0  0  0  0  0  0  0  0  0  0
   35.8170   28.0398  -18.9956 H   0  0  0  0  0  0  0  0  0  0  0  0
   34.8620   29.2820  -17.1910 H   0  0  0  0  0  0  0  0  0  0  0  0
   39.8910   29.4070  -12.4650 H   0  0  0  0  0  0  0  0  0  0  0  0
   42.0909   26.3017  -15.3393 H   0  0  0  0  0  0  0  0  0  0  0  0
  1  2  1  0
  2  3  2  0
  3  4  1  0
  4  5  2  0
  5  6  1  0
  6  7  1  0
  7  8  1  0
  8  9  2  0
  9 10  1  0
 10 11  2  0
 11 12  1  0
 12 13  1  0
 12 14  2  0
 14 15  1  0
 15 16  2  0
 15 17  1  0
 17 18  1  0
  5 19  1  0
 19 20  2  0
 20 21  1  0
 21 22  1  0
 21 23  1  0
 21 24  1  0
 20  2  1  0
 17  6  2  0
 14  8  1  0
  1 25  1  0
  1 26  1  0
  1 27  1  0
  3 28  1  0
  4 29  1  0
  9 30  1  0
 10 31  1  0
 11 32  1  0
 13 33  1  0
 18 34  1  0
 19 35  1  0
M  END
>  <meeko>  (4) 
{"is_sidechain": [false], "free_energy": -6.916, "intermolecular_energy": -7.884, "internal_energy": 0.209}

$$$$
cand_011_out
     RDKit          3D

 35 37  0  0  0  0  0  0  0  0999 V2000
   44.4030   26.1110  -11.0330 C   0  0  0  0  0  0  0  0  0  0  0  0
   43.3540   26.3270  -12.0910 C   0  0  0  0  0  0  0  0  0  0  0  0
   42.1220   26.8900  -11.7280 C   0  0  0  0  0  0  0  0  0  0  0  0
   41.1260   27.1080  -12.6820 C   0  0  0  0  0  0  0  0  0  0  0  0
   41.3310   26.7690  -14.0240 C   0  0  0  0  0  0  0  0  0  0  0  0
   40.2700   27.0270  -15.0200 C   0  0  0  0  0  0  0  0  0  0  0  0
   39.2960   27.9050  -14.5580 O   0  0  0  0  0  0  0  0  0  0  0  0
   38.2510   28.2290  -15.3850 C   0  0  0  0  0  0  0  0  0  0  0  0
   37.3040   29.1250  -14.8870 C   0  0  0  0  0  0  0  0  0  0  0  0
   36.2140   29.4980  -15.6780 C   0  0  0  0  0  0  0  0  0  0  0  0
   36.0710   28.9730  -16.9650 C   0  0  0  0  0  0  0  0  0  0  0  0
   37.0180   28.0800  -17.4590 C   0  0  0  0  0  0  0  0  0  0  0  0
   36.8160   27.6040  -18.7250 O   0  0  0  0  0  0  0  0  0  0  0  0
   38.1090   27.7080  -16.6680 C   0  0  0  0  0  0  0  0  0  0  0  0
   39.1250   26.7720  -17.1490 C   0  0  0  0  0  0  0  0  0  0  0  0
   39.0660   26.2620  -18.2660 O   0  0  0  0  0  0  0  0  0  0  0  0
   40.2460   26.4500  -16.2360 C   0  0  0  0  0  0  0  0  0  0  0  0
   41.1960   25.5550  -16.6920 O   0  0  0  0  0  0  0  0  0  0  0  0
   42.5690   26.2210  -14.3900 C   0  0  0  0  0  0  0  0  0  0  0  0
   43.5880   25.9930  -13.4420 C   0  0  0  0  0  0  0  0  0  0  0  0
   44.9000   25.3920  -13.8960 C   0  0  0  0  0  0  0  0  0  0  0  0
   45.8720   26.3300  -14.0780 F   0  0  0  0  0  0  0  0  0  0  0  0
   45.4230   24.4880  -13.0180 F   0  0  0  0  0  0  0  0  0  0  0  0
   44.7950   24.7270  -15.0810 F   0  0  0  0  0  0  0  0  0  0  0  0
   43.9446   26.2054  -10.0375 H   0  0  0  0  0  0  0  0  0  0  0  0
   44.8343   25.1052  -11.1442 H   0  0  0  0  0  0  0  0  0  0  0  0
   45.1966   26.8646  -11.1442 H   0  0  0  0  0  0  0  0  0  0  0  0
   41.9379   27.1633  -10.6785 H   0  0  0  0  0  0  0  0  0  0  0  0
   40.1677   27.5520  -12.3746 H   0  0  0  0  0  0  0  0  0  0  0  0
   37.4154   29.5371  -13.8732 H   0  0  0  0  0  0  0  0  0  0  0  0
   35.4679   30.2055  -15.2871 H   0  0  0  0  0  0  0  0  0  0  0  0
   35.2117   29.2647  -17.5867 H   0  0  0  0  0  0  0  0  0  0  0  0
   36.3860   28.1390  -19.3630 H   0  0  0  0  0  0  0  0  0  0  0  0
   41.7740   25.1370  -16.0850 H   0  0  0  0  0  0  0  0  0  0  0  0
   42.7499   25.9623  -15.4437 H   0  0  0  0  0  0  0  0  0  0  0  0
  1  2  1  0
  2  3  2  0
  3  4  1  0
  4  5  2  0
  5  6  1  0
  6  7  1  0
  7  8  1  0
  8  9  2  0
  9 10  1  0
 10 11  2  0
 11 12  1  0
 12 13  1  0
 12 14  2  0
 14 15  1  0
 15 16  2  0
 15 17  1  0
 17 18  1  0
  5 19  1  0
 19 20  2  0
 20 21  1  0
 21 22  1  0
 21 23  1  0
 21 24  1  0
 20  2  1  0
 17  6  2  0
 14  8  1  0
  1 25  1  0
  1 26  1  0
  1 27  1  0
  3 28  1  0
  4 29  1  0
  9 30  1  0
 10 31  1  0
 11 32  1  0
 13 33  1  0
 18 34  1  0
 19 35  1  0
M  END
>  <meeko>  (5) 
{"is_sidechain": [false], "free_energy": -6.898, "intermolecular_energy": -7.935, "internal_energy": 0.281}

$$$$
cand_011_out
     RDKit          3D

 35 37  0  0  0  0  0  0  0  0999 V2000
   35.7150   29.3460  -17.3510 C   0  0  0  0  0  0  0  0  0  0  0  0
   36.8920   28.8440  -16.5590 C   0  0  0  0  0  0  0  0  0  0  0  0
   37.1890   29.4390  -15.3240 C   0  0  0  0  0  0  0  0  0  0  0  0
   38.2700   28.9970  -14.5590 C   0  0  0  0  0  0  0  0  0  0  0  0
   39.0860   27.9520  -15.0050 C   0  0  0  0  0  0  0  0  0  0  0  0
   40.2130   27.4890  -14.1690 C   0  0  0  0  0  0  0  0  0  0  0  0
   41.2180   26.8760  -14.9070 O   0  0  0  0  0  0  0  0  0  0  0  0
   42.3250   26.3980  -14.2520 C   0  0  0  0  0  0  0  0  0  0  0  0
   43.3160   25.8030  -15.0330 C   0  0  0  0  0  0  0  0  0  0  0  0
   44.4680   25.2950  -14.4280 C   0  0  0  0  0  0  0  0  0  0  0  0
   44.6280   25.3820  -13.0430 C   0  0  0  0  0  0  0  0  0  0  0  0
   43.6380   25.9770  -12.2660 C   0  0  0  0  0  0  0  0  0  0  0  0
   43.8580   26.0270  -10.9170 O   0  0  0  0  0  0  0  0  0  0  0  0
   42.4850   26.4850  -12.8720 C   0  0  0  0  0  0  0  0  0  0  0  0
   41.4200   27.1170  -12.0920 C   0  0  0  0  0  0  0  0  0  0  0  0
   41.4830   27.2250  -10.8690 O   0  0  0  0  0  0  0  0  0  0  0  0
   40.2440   27.6320  -12.8310 C   0  0  0  0  0  0  0  0  0  0  0  0
   39.2370   28.2160  -12.0860 O   0  0  0  0  0  0  0  0  0  0  0  0
   38.7790   27.3450  -16.2320 C   0  0  0  0  0  0  0  0  0  0  0  0
   37.6910   27.7760  -17.0190 C   0  0  0  0  0  0  0  0  0  0  0  0
   37.4140   27.0880  -18.3380 C   0  0  0  0  0  0  0  0  0  0  0  0
   37.2070   25.7480  -18.1970 F   0  0  0  0  0  0  0  0  0  0  0  0
   36.3130   27.5640  -18.9860 F   0  0  0  0  0  0  0  0  0  0  0  0
   38.4410   27.2150  -19.2260 F   0  0  0  0  0  0  0  0  0  0  0  0
   34.9262   29.6824  -16.6621 H   0  0  0  0  0  0  0  0  0  0  0  0
   36.0316   30.1874  -17.9849 H   0  0  0  0  0  0  0  0  0  0  0  0
   35.3269   28.5351  -17.9849 H   0  0  0  0  0  0  0  0  0  0  0  0
   36.5626   30.2639  -14.9537 H   0  0  0  0  0  0  0  0  0  0  0  0
   38.4829   29.4770  -13.5924 H   0  0  0  0  0  0  0  0  0  0  0  0
   43.1904   25.7340  -16.1236 H   0  0  0  0  0  0  0  0  0  0  0  0
   45.2502   24.8259  -15.0429 H   0  0  0  0  0  0  0  0  0  0  0  0
   45.5350   24.9809  -12.5671 H   0  0  0  0  0  0  0  0  0  0  0  0
   44.0730   26.8420  -10.5080 H   0  0  0  0  0  0  0  0  0  0  0  0
   38.3600   27.8910  -12.1480 H   0  0  0  0  0  0  0  0  0  0  0  0
   39.4025   26.5121  -16.5891 H   0  0  0  0  0  0  0  0  0  0  0  0
  1  2  1  0
  2  3  2  0
  3  4  1  0
  4  5  2  0
  5  6  1  0
  6  7  1  0
  7  8  1  0
  8  9  2  0
  9 10  1  0
 10 11  2  0
 11 12  1  0
 12 13  1  0
 12 14  2  0
 14 15  1  0
 15 16  2  0
 15 17  1  0
 17 18  1  0
  5 19  1  0
 19 20  2  0
 20 21  1  0
 21 22  1  0
 21 23  1  0
 21 24  1  0
 20  2  1  0
 17  6  2  0
 14  8  1  0
  1 25  1  0
  1 26  1  0
  1 27  1  0
  3 28  1  0
  4 29  1  0
  9 30  1  0
 10 31  1  0
 11 32  1  0
 13 33  1  0
 18 34  1  0
 19 35  1  0
M  END
>  <meeko>  (6) 
{"is_sidechain": [false], "free_energy": -6.818, "intermolecular_energy": -8.188, "internal_energy": 0.627}

$$$$
cand_011_out
     RDKit          3D

 35 37  0  0  0  0  0  0  0  0999 V2000
   46.9070   24.0010  -13.5240 C   0  0  0  0  0  0  0  0  0  0  0  0
   45.5850   24.6890  -13.7380 C   0  0  0  0  0  0  0  0  0  0  0  0
   44.4710   23.9260  -14.1160 C   0  0  0  0  0  0  0  0  0  0  0  0
   43.2280   24.5280  -14.3200 C   0  0  0  0  0  0  0  0  0  0  0  0
   43.0630   25.9070  -14.1540 C   0  0  0  0  0  0  0  0  0  0  0  0
   41.7330   26.5200  -14.3560 C   0  0  0  0  0  0  0  0  0  0  0  0
   41.2320   26.3150  -15.6360 O   0  0  0  0  0  0  0  0  0  0  0  0
   40.0030   26.8340  -15.9580 C   0  0  0  0  0  0  0  0  0  0  0  0
   39.5310   26.5930  -17.2490 C   0  0  0  0  0  0  0  0  0  0  0  0
   38.2880   27.0940  -17.6410 C   0  0  0  0  0  0  0  0  0  0  0  0
   37.5170   27.8360  -16.7430 C   0  0  0  0  0  0  0  0  0  0  0  0
   37.9900   28.0750  -15.4550 C   0  0  0  0  0  0  0  0  0  0  0  0
   37.1850   28.8090  -14.6290 O   0  0  0  0  0  0  0  0  0  0  0  0
   39.2340   27.5730  -15.0630 C   0  0  0  0  0  0  0  0  0  0  0  0
   39.7680   27.8020  -13.7200 C   0  0  0  0  0  0  0  0  0  0  0  0
   39.1540   28.4510  -12.8750 O   0  0  0  0  0  0  0  0  0  0  0  0
   41.0920   27.2200  -13.4010 C   0  0  0  0  0  0  0  0  0  0  0  0
   41.5950   27.4510  -12.1350 O   0  0  0  0  0  0  0  0  0  0  0  0
   44.1730   26.6680  -13.7590 C   0  0  0  0  0  0  0  0  0  0  0  0
   45.4370   26.0790  -13.5480 C   0  0  0  0  0  0  0  0  0  0  0  0
   46.6000   26.9530  -13.1310 C   0  0  0  0  0  0  0  0  0  0  0  0
   47.3120   27.4210  -14.1950 F   0  0  0  0  0  0  0  0  0  0  0  0
   46.2310   28.0570  -12.4210 F   0  0  0  0  0  0  0  0  0  0  0  0
   47.4970   26.2960  -12.3410 F   0  0  0  0  0  0  0  0  0  0  0  0
   47.0982   23.9015  -12.4453 H   0  0  0  0  0  0  0  0  0  0  0  0
   46.8797   23.0027  -13.9852 H   0  0  0  0  0  0  0  0  0  0  0  0
   47.7090   24.5961  -13.9852 H   0  0  0  0  0  0  0  0  0  0  0  0
   44.5777   22.8399  -14.2535 H   0  0  0  0  0  0  0  0  0  0  0  0
   42.3673   23.9099  -14.6151 H   0  0  0  0  0  0  0  0  0  0  0  0
   40.1375   26.0090  -17.9570 H   0  0  0  0  0  0  0  0  0  0  0  0
   37.9154   26.9041  -18.6584 H   0  0  0  0  0  0  0  0  0  0  0  0
   36.5381   28.2308  -17.0526 H   0  0  0  0  0  0  0  0  0  0  0  0
   37.1920   28.6500  -13.7050 H   0  0  0  0  0  0  0  0  0  0  0  0
   41.9390   26.7400  -11.6300 H   0  0  0  0  0  0  0  0  0  0  0  0
   44.0547   27.7514  -13.6100 H   0  0  0  0  0  0  0  0  0  0  0  0
  1  2  1  0
  2  3  2  0
  3  4  1  0
  4  5  2  0
  5  6  1  0
  6  7  1  0
  7  8  1  0
  8  9  2  0
  9 10  1  0
 10 11  2  0
 11 12  1  0
 12 13  1  0
 12 14  2  0
 14 15  1  0
 15 16  2  0
 15 17  1  0
 17 18  1  0
  5 19  1  0
 19 20  2  0
 20 21  1  0
 21 22  1  0
 21 23  1  0
 21 24  1  0
 20  2  1  0
 17  6  2  0
 14  8  1  0
  1 25  1  0
  1 26  1  0
  1 27  1  0
  3 28  1  0
  4 29  1  0
  9 30  1  0
 10 31  1  0
 11 32  1  0
 13 33  1  0
 18 34  1  0
 19 35  1  0
M  END
>  <meeko>  (7) 
{"is_sidechain": [false], "free_energy": -6.093, "intermolecular_energy": -6.725, "internal_energy": 0.018}

$$$$
cand_011_out
     RDKit          3D

 35 37  0  0  0  0  0  0  0  0999 V2000
   35.6640   27.5990  -19.4200 C   0  0  0  0  0  0  0  0  0  0  0  0
   36.8030   27.3820  -18.4600 C   0  0  0  0  0  0  0  0  0  0  0  0
   37.6600   26.2880  -18.6520 C   0  0  0  0  0  0  0  0  0  0  0  0
   38.7300   26.0570  -17.7840 C   0  0  0  0  0  0  0  0  0  0  0  0
   38.9730   26.9080  -16.7010 C   0  0  0  0  0  0  0  0  0  0  0  0
   40.1220   26.6540  -15.8080 C   0  0  0  0  0  0  0  0  0  0  0  0
   39.8890   27.0560  -14.4980 O   0  0  0  0  0  0  0  0  0  0  0  0
   40.8780   26.8780  -13.5640 C   0  0  0  0  0  0  0  0  0  0  0  0
   40.5960   27.2820  -12.2580 C   0  0  0  0  0  0  0  0  0  0  0  0
   41.5600   27.1290  -11.2590 C   0  0  0  0  0  0  0  0  0  0  0  0
   42.8040   26.5730  -11.5650 C   0  0  0  0  0  0  0  0  0  0  0  0
   43.0820   26.1700  -12.8680 C   0  0  0  0  0  0  0  0  0  0  0  0
   44.3200   25.6350  -13.0990 O   0  0  0  0  0  0  0  0  0  0  0  0
   42.1170   26.3230  -13.8680 C   0  0  0  0  0  0  0  0  0  0  0  0
   42.3690   25.9130  -15.2500 C   0  0  0  0  0  0  0  0  0  0  0  0
   43.4410   25.4220  -15.6010 O   0  0  0  0  0  0  0  0  0  0  0  0
   41.2780   26.1090  -16.2320 C   0  0  0  0  0  0  0  0  0  0  0  0
   41.5280   25.7310  -17.5380 O   0  0  0  0  0  0  0  0  0  0  0  0
   38.1260   28.0120  -16.5190 C   0  0  0  0  0  0  0  0  0  0  0  0
   37.0410   28.2630  -17.3840 C   0  0  0  0  0  0  0  0  0  0  0  0
   36.1570   29.4660  -17.1320 C   0  0  0  0  0  0  0  0  0  0  0  0
   36.8120   30.6460  -17.3190 F   0  0  0  0  0  0  0  0  0  0  0  0
   35.0610   29.5220  -17.9410 F   0  0  0  0  0  0  0  0  0  0  0  0
   35.6710   29.5060  -15.8590 F   0  0  0  0  0  0  0  0  0  0  0  0
   34.7369   27.7756  -18.8550 H   0  0  0  0  0  0  0  0  0  0  0  0
   35.8795   28.4722  -20.0533 H   0  0  0  0  0  0  0  0  0  0  0  0
   35.5433   26.7077  -20.0533 H   0  0  0  0  0  0  0  0  0  0  0  0
   37.4874   25.6040  -19.4960 H   0  0  0  0  0  0  0  0  0  0  0  0
   39.3904   25.1940  -17.9546 H   0  0  0  0  0  0  0  0  0  0  0  0
   39.6164   27.7200  -12.0161 H   0  0  0  0  0  0  0  0  0  0  0  0
   41.3390   27.4470  -10.2294 H   0  0  0  0  0  0  0  0  0  0  0  0
   43.5629   26.4537  -10.7777 H   0  0  0  0  0  0  0  0  0  0  0  0
   45.0050   26.1720  -13.4450 H   0  0  0  0  0  0  0  0  0  0  0  0
   40.8460   25.7820  -18.1790 H   0  0  0  0  0  0  0  0  0  0  0  0
   38.3132   28.6989  -15.6804 H   0  0  0  0  0  0  0  0  0  0  0  0
  1  2  1  0
  2  3  2  0
  3  4  1  0
  4  5  2  0
  5  6  1  0
  6  7  1  0
  7  8  1  0
  8  9  2  0
  9 10  1  0
 10 11  2  0
 11 12  1  0
 12 13  1  0
 12 14  2  0
 14 15  1  0
 15 16  2  0
 15 17  1  0
 17 18  1  0
  5 19  1  0
 19 20  2  0
 20 21  1  0
 21 22  1  0
 21 23  1  0
 21 24  1  0
 20  2  1  0
 17  6  2  0
 14  8  1  0
  1 25  1  0
  1 26  1  0
  1 27  1  0
  3 28  1  0
  4 29  1  0
  9 30  1  0
 10 31  1  0
 11 32  1  0
 13 33  1  0
 18 34  1  0
 19 35  1  0
M  END
>  <meeko>  (8) 
{"is_sidechain": [false], "free_energy": -5.844, "intermolecular_energy": -6.961, "internal_energy": 0.546}

$$$$
cand_011_out
     RDKit          3D

 35 37  0  0  0  0  0  0  0  0999 V2000
   42.9680   26.6500  -11.3750 C   0  0  0  0  0  0  0  0  0  0  0  0
   42.0130   26.7640  -12.5330 C   0  0  0  0  0  0  0  0  0  0  0  0
   40.7240   27.2710  -12.3100 C   0  0  0  0  0  0  0  0  0  0  0  0
   39.8130   27.3960  -13.3610 C   0  0  0  0  0  0  0  0  0  0  0  0
   40.1600   27.0150  -14.6610 C   0  0  0  0  0  0  0  0  0  0  0  0
   39.1850   27.1740  -15.7610 C   0  0  0  0  0  0  0  0  0  0  0  0
   38.2730   28.1970  -15.5320 O   0  0  0  0  0  0  0  0  0  0  0  0
   37.3100   28.4500  -16.4760 C   0  0  0  0  0  0  0  0  0  0  0  0
   36.4240   29.4950  -16.2130 C   0  0  0  0  0  0  0  0  0  0  0  0
   35.4190   29.8050  -17.1330 C   0  0  0  0  0  0  0  0  0  0  0  0
   35.3010   29.0700  -18.3140 C   0  0  0  0  0  0  0  0  0  0  0  0
   36.1870   28.0280  -18.5750 C   0  0  0  0  0  0  0  0  0  0  0  0
   36.0140   27.3490  -19.7490 O   0  0  0  0  0  0  0  0  0  0  0  0
   37.1930   27.7180  -17.6540 C   0  0  0  0  0  0  0  0  0  0  0  0
   38.1440   26.6310  -17.8890 C   0  0  0  0  0  0  0  0  0  0  0  0
   38.1010   25.9340  -18.9010 O   0  0  0  0  0  0  0  0  0  0  0  0
   39.1770   26.3900  -16.8560 C   0  0  0  0  0  0  0  0  0  0  0  0
   40.0640   25.3540  -17.0780 O   0  0  0  0  0  0  0  0  0  0  0  0
   41.4540   26.5240  -14.8880 C   0  0  0  0  0  0  0  0  0  0  0  0
   42.3900   26.3910  -13.8410 C   0  0  0  0  0  0  0  0  0  0  0  0
   43.7690   25.8460  -14.1450 C   0  0  0  0  0  0  0  0  0  0  0  0
   43.8230   25.1950  -15.3410 F   0  0  0  0  0  0  0  0  0  0  0  0
   44.7370   26.8050  -14.2060 F   0  0  0  0  0  0  0  0  0  0  0  0
   44.2010   24.9520  -13.2120 F   0  0  0  0  0  0  0  0  0  0  0  0
   42.4084   26.7168  -10.4303 H   0  0  0  0  0  0  0  0  0  0  0  0
   43.4903   25.6831  -11.4242 H   0  0  0  0  0  0  0  0  0  0  0  0
   43.7032   27.4668  -11.4242 H   0  0  0  0  0  0  0  0  0  0  0  0
   40.4273   27.5737  -11.2949 H   0  0  0  0  0  0  0  0  0  0  0  0
   38.8089   27.7996  -13.1636 H   0  0  0  0  0  0  0  0  0  0  0  0
   36.5164   30.0743  -15.2825 H   0  0  0  0  0  0  0  0  0  0  0  0
   34.7201   30.6290  -16.9265 H   0  0  0  0  0  0  0  0  0  0  0  0
   34.5091   29.3137  -19.0375 H   0  0  0  0  0  0  0  0  0  0  0  0
   35.1610   27.2870  -20.1330 H   0  0  0  0  0  0  0  0  0  0  0  0
   39.8720   24.7050  -17.7260 H   0  0  0  0  0  0  0  0  0  0  0  0
   41.7464   26.2353  -15.9084 H   0  0  0  0  0  0  0  0  0  0  0  0
  1  2  1  0
  2  3  2  0
  3  4  1  0
  4  5  2  0
  5  6  1  0
  6  7  1  0
  7  8  1  0
  8  9  2  0
  9 10  1  0
 10 11  2  0
 11 12  1  0
 12 13  1  0
 12 14  2  0
 14 15  1  0
 15 16  2  0
 15 17  1  0
 17 18  1  0
  5 19  1  0
 19 20  2  0
 20 21  1  0
 21 22  1  0
 21 23  1  0
 21 24  1  0
 20  2  1  0
 17  6  2  0
 14  8  1  0
  1 25  1  0
  1 26  1  0
  1 27  1  0
  3 28  1  0
  4 29  1  0
  9 30  1  0
 10 31  1  0
 11 32  1  0
 13 33  1  0
 18 34  1  0
 19 35  1  0
M  END
>  <meeko>  (9) 
{"is_sidechain": [false], "free_energy": -5.791, "intermolecular_energy": -6.505, "internal_energy": 0.152}

$$$$
