cand_053_out
     RDKit          3D

 44 46  0  0  0  0  0  0  0  0999 V2000
   47.1640   25.9620  -14.1100 C   0  0  0  0  0  0  0  0  0  0  0  0
   46.2860   24.7230  -14.0220 C   0  0  0  0  0  0  0  0  0  0  0  0
   45.1540   24.9140  -13.0100 C   0  0  0  0  0  0  0  0  0  0  0  0
   43.8910   25.4240  -13.6720 C   0  0  0  0  0  0  0  0  0  0  0  0
   43.6670   25.0850  -15.0180 C   0  0  0  0  0  0  0  0  0  0  0  0
   42.5170   25.5090  -15.6870 C   0  0  0  0  0  0  0  0  0  0  0  0
   41.5520   26.2770  -15.0300 C   0  0  0  0  0  0  0  0  0  0  0  0
   40.3560   26.7420  -15.7640 C   0  0  0  0  0  0  0  0  0  0  0  0
   39.5450   27.5760  -15.0020 O   0  0  0  0  0  0  0  0  0  0  0  0
   38.3990   28.0800  -15.5620 C   0  0  0  0  0  0  0  0  0  0  0  0
   37.6080   28.9000  -14.7560 C   0  0  0  0  0  0  0  0  0  0  0  0
   36.4280   29.4480  -15.2650 C   0  0  0  0  0  0  0  0  0  0  0  0
   36.0410   29.1780  -16.5800 C   0  0  0  0  0  0  0  0  0  0  0  0
   36.8330   28.3600  -17.3810 C   0  0  0  0  0  0  0  0  0  0  0  0
   36.3960   28.1370  -18.6580 O   0  0  0  0  0  0  0  0  0  0  0  0
   38.0130   27.8110  -16.8710 C   0  0  0  0  0  0  0  0  0  0  0  0
   38.8740   26.9470  -17.6800 C   0  0  0  0  0  0  0  0  0  0  0  0
   38.6050   26.6690  -18.8470 O   0  0  0  0  0  0  0  0  0  0  0  0
   40.0970   26.4090  -17.0420 C   0  0  0  0  0  0  0  0  0  0  0  0
   40.9100   25.6040  -17.8210 O   0  0  0  0  0  0  0  0  0  0  0  0
   41.7750   26.6190  -13.6900 C   0  0  0  0  0  0  0  0  0  0  0  0
   42.9260   26.1930  -12.9930 C   0  0  0  0  0  0  0  0  0  0  0  0
   43.0770   26.6180  -11.5500 C   0  0  0  0  0  0  0  0  0  0  0  0
   41.7330   26.9130  -10.9000 C   0  0  0  0  0  0  0  0  0  0  0  0
   47.4103   26.3096  -13.0959 H   0  0  0  0  0  0  0  0  0  0  0  0
   48.0911   25.7169  -14.6489 H   0  0  0  0  0  0  0  0  0  0  0  0
   46.6255   26.7555  -14.6489 H   0  0  0  0  0  0  0  0  0  0  0  0
   45.8512   24.5210  -15.0120 H   0  0  0  0  0  0  0  0  0  0  0  0
   46.9089   23.8790  -13.6908 H   0  0  0  0  0  0  0  0  0  0  0  0
   44.9393   23.9484  -12.5288 H   0  0  0  0  0  0  0  0  0  0  0  0
   45.4783   25.6600  -12.2695 H   0  0  0  0  0  0  0  0  0  0  0  0
   44.4102   24.4755  -15.5530 H   0  0  0  0  0  0  0  0  0  0  0  0
   42.3692   25.2356  -16.7422 H   0  0  0  0  0  0  0  0  0  0  0  0
   37.9133   29.1146  -13.7212 H   0  0  0  0  0  0  0  0  0  0  0  0
   35.8029   30.0928  -14.6297 H   0  0  0  0  0  0  0  0  0  0  0  0
   35.1128   29.6107  -16.9814 H   0  0  0  0  0  0  0  0  0  0  0  0
   36.8870   28.4650  -19.3860 H   0  0  0  0  0  0  0  0  0  0  0  0
   41.1750   24.7630  -17.5060 H   0  0  0  0  0  0  0  0  0  0  0  0
   41.0316   27.2375  -13.1658 H   0  0  0  0  0  0  0  0  0  0  0  0
   43.5720   25.8099  -10.9915 H   0  0  0  0  0  0  0  0  0  0  0  0
   43.6754   27.5407  -11.5280 H   0  0  0  0  0  0  0  0  0  0  0  0
   41.8418   26.8891   -9.8057 H   0  0  0  0  0  0  0  0  0  0  0  0
   41.3854   27.9088  -11.2122 H   0  0  0  0  0  0  0  0  0  0  0  0
   41.0003   26.1543  -11.2122 H   0  0  0  0  0  0  0  0  0  0  0  0
  1  2  1  0
  2  3  1  0
  3  4  1  0
  4  5  2  0
  5  6  1  0
  6  7  2  0
  7  8  1  0
  8  9  1  0
  9 10  1  0
 10 11  2  0
 11 12  1  0
 12 13  2  0
 13 14  1  0
 14 15  1  0
 14 16  2  0
 16 17  1  0
 17 18  2  0
 17 19  1  0
 19 20  1  0
  7 21  1  0
 21 22  2  0
 22 23  1  0
 23 24  1  0
 22  4  1  0
 19  8  2  0
 16 10  1  0
  1 25  1  0
  1 26  1  0
  1 27  1  0
  2 28  1  0
  2 29  1  0
  3 30  1  0
  3 31  1  0
  5 32  1  0
  6 33  1  0
 11 34  1  0
 12 35  1  0
 13 36  1  0
 15 37  1  0
 20 38  1  0
 21 39  1  0
 23 40  1  0
 23 41  1  0
 24 42  1  0
 24 43  1  0
 24 44  1  0
M  END
>  <meeko>  (1) 
{"is_sidechain": [false], "free_energy": -7.735, "intermolecular_energy": -9.995, "internal_energy": -0.071}

$$$$
cand_053_out
     RDKit          3D

 44 46  0  0  0  0  0  0  0  0999 V2000
   47.3510   25.9930  -14.1350 C   0  0  0  0  0  0  0  0  0  0  0  0
   46.5920   24.7270  -14.5000 C   0  0  0  0  0  0  0  0  0  0  0  0
   45.5050   24.4140  -13.4700 C   0  0  0  0  0  0  0  0  0  0  0  0
   44.2150   25.1450  -13.7760 C   0  0  0  0  0  0  0  0  0  0  0  0
   43.4210   24.6690  -14.8340 C   0  0  0  0  0  0  0  0  0  0  0  0
   42.2120   25.2860  -15.1630 C   0  0  0  0  0  0  0  0  0  0  0  0
   41.7550   26.3910  -14.4400 C   0  0  0  0  0  0  0  0  0  0  0  0
   40.4880   27.0500  -14.8240 C   0  0  0  0  0  0  0  0  0  0  0  0
   40.0610   26.6980  -16.0990 O   0  0  0  0  0  0  0  0  0  0  0  0
   38.8970   27.2390  -16.5830 C   0  0  0  0  0  0  0  0  0  0  0  0
   38.5160   26.8700  -17.8730 C   0  0  0  0  0  0  0  0  0  0  0  0
   37.3390   27.3830  -18.4250 C   0  0  0  0  0  0  0  0  0  0  0  0
   36.5460   28.2630  -17.6870 C   0  0  0  0  0  0  0  0  0  0  0  0
   36.9300   28.6300  -16.3990 C   0  0  0  0  0  0  0  0  0  0  0  0
   36.1070   29.4950  -15.7320 O   0  0  0  0  0  0  0  0  0  0  0  0
   38.1070   28.1170  -15.8480 C   0  0  0  0  0  0  0  0  0  0  0  0
   38.5470   28.4750  -14.4990 C   0  0  0  0  0  0  0  0  0  0  0  0
   37.8980   29.2380  -13.7850 O   0  0  0  0  0  0  0  0  0  0  0  0
   39.8130   27.8840  -14.0110 C   0  0  0  0  0  0  0  0  0  0  0  0
   40.2120   28.2200  -12.7290 O   0  0  0  0  0  0  0  0  0  0  0  0
   42.5470   26.8690  -13.3870 C   0  0  0  0  0  0  0  0  0  0  0  0
   43.7670   26.2550  -13.0340 C   0  0  0  0  0  0  0  0  0  0  0  0
   44.5500   26.8480  -11.8850 C   0  0  0  0  0  0  0  0  0  0  0  0
   45.3400   28.0770  -12.3090 C   0  0  0  0  0  0  0  0  0  0  0  0
   47.4060   26.0848  -13.0402 H   0  0  0  0  0  0  0  0  0  0  0  0
   48.3683   25.9432  -14.5504 H   0  0  0  0  0  0  0  0  0  0  0  0
   46.8277   26.8669  -14.5504 H   0  0  0  0  0  0  0  0  0  0  0  0
   46.1232   24.8620  -15.4859 H   0  0  0  0  0  0  0  0  0  0  0  0
   47.3040   23.8887  -14.5190 H   0  0  0  0  0  0  0  0  0  0  0  0
   45.3108   23.3313  -13.4748 H   0  0  0  0  0  0  0  0  0  0  0  0
   45.8615   24.7467  -12.4840 H   0  0  0  0  0  0  0  0  0  0  0  0
   43.7576   23.7960  -15.4124 H   0  0  0  0  0  0  0  0  0  0  0  0
   41.6132   24.8980  -16.0002 H   0  0  0  0  0  0  0  0  0  0  0  0
   39.1408   26.1764  -18.4549 H   0  0  0  0  0  0  0  0  0  0  0  0
   37.0373   27.0929  -19.4422 H   0  0  0  0  0  0  0  0  0  0  0  0
   35.6194   28.6661  -18.1215 H   0  0  0  0  0  0  0  0  0  0  0  0
   36.4490   30.0290  -15.0430 H   0  0  0  0  0  0  0  0  0  0  0  0
   40.9060   27.7460  -12.3160 H   0  0  0  0  0  0  0  0  0  0  0  0
   42.2075   27.7481  -12.8196 H   0  0  0  0  0  0  0  0  0  0  0  0
   43.8487   27.1342  -11.0874 H   0  0  0  0  0  0  0  0  0  0  0  0
   45.2644   26.0893  -11.5328 H   0  0  0  0  0  0  0  0  0  0  0  0
   45.6867   28.6164  -11.4152 H   0  0  0  0  0  0  0  0  0  0  0  0
   46.2078   27.7660  -12.9092 H   0  0  0  0  0  0  0  0  0  0  0  0
   44.6967   28.7373  -12.9092 H   0  0  0  0  0  0  0  0  0  0  0  0
  1  2  1  0
  2  3  1  0
  3  4  1  0
  4  5  2  0
  5  6  1  0
  6  7  2  0
  7  8  1  0
  8  9  1  0
  9 10  1  0
 10 11  2  0
 11 12  1  0
 12 13  2  0
 13 14  1  0
 14 15  1  0
 14 16  2  0
 16 17  1  0
 17 18  2  0
 17 19  1  0
 19 20  1  0
  7 21  1  0
 21 22  2  0
 22 23  1  0
 23 24  1  0
 22  4  1  0
 19  8  2  0
 16 10  1  0
  1 25  1  0
  1 26  1  0
  1 27  1  0
  2 28  1  0
  2 29  1  0
  3 30  1  0
  3 31  1  0
  5 32  1  0
  6 33  1  0
 11 34  1  0
 12 35  1  0
 13 36  1  0
 15 37  1  0
 20 38  1  0
 21 39  1  0
 23 40  1  0
 23 41  1  0
 24 42  1  0
 24 43  1  0
 24 44  1  0
M  END
>  <meeko>  (2) 
{"is_sidechain": [false], "free_energy": -6.444, "intermolecular_energy": -8.11, "internal_energy": -0.289}

$$$$
cand_053_out
     RDKit          3D

 44 46  0  0  0  0  0  0  0  0999 V2000
   47.0520   25.0710  -14.0440 C   0  0  0  0  0  0  0  0  0  0  0  0
   45.7380   25.7400  -13.6690 C   0  0  0  0  0  0  0  0  0  0  0  0
   44.5730   24.7510  -13.7280 C   0  0  0  0  0  0  0  0  0  0  0  0
   43.2860   25.4240  -14.1540 C   0  0  0  0  0  0  0  0  0  0  0  0
   42.8250   25.2020  -15.4630 C   0  0  0  0  0  0  0  0  0  0  0  0
   41.6390   25.7800  -15.9190 C   0  0  0  0  0  0  0  0  0  0  0  0
   40.8720   26.5920  -15.0780 C   0  0  0  0  0  0  0  0  0  0  0  0
   39.6350   27.2200  -15.5890 C   0  0  0  0  0  0  0  0  0  0  0  0
   39.2430   26.7150  -16.8230 O   0  0  0  0  0  0  0  0  0  0  0  0
   38.1090   27.2120  -17.4140 C   0  0  0  0  0  0  0  0  0  0  0  0
   37.7620   26.6870  -18.6590 C   0  0  0  0  0  0  0  0  0  0  0  0
   36.6170   27.1470  -19.3150 C   0  0  0  0  0  0  0  0  0  0  0  0
   35.8210   28.1320  -18.7250 C   0  0  0  0  0  0  0  0  0  0  0  0
   36.1710   28.6540  -17.4820 C   0  0  0  0  0  0  0  0  0  0  0  0
   35.3480   29.6140  -16.9620 O   0  0  0  0  0  0  0  0  0  0  0  0
   37.3160   28.1930  -16.8270 C   0  0  0  0  0  0  0  0  0  0  0  0
   37.7190   28.7140  -15.5210 C   0  0  0  0  0  0  0  0  0  0  0  0
   37.0660   29.5760  -14.9340 O   0  0  0  0  0  0  0  0  0  0  0  0
   38.9540   28.1650  -14.9150 C   0  0  0  0  0  0  0  0  0  0  0  0
   39.3180   28.6560  -13.6740 O   0  0  0  0  0  0  0  0  0  0  0  0
   41.3320   26.8180  -13.7740 C   0  0  0  0  0  0  0  0  0  0  0  0
   42.5230   26.2360  -13.2910 C   0  0  0  0  0  0  0  0  0  0  0  0
   42.9360   26.5440  -11.8700 C   0  0  0  0  0  0  0  0  0  0  0  0
   41.7430   26.9020  -10.9960 C   0  0  0  0  0  0  0  0  0  0  0  0
   47.5965   24.7938  -13.1293 H   0  0  0  0  0  0  0  0  0  0  0  0
   46.8473   24.1674  -14.6369 H   0  0  0  0  0  0  0  0  0  0  0  0
   47.6623   25.7681  -14.6369 H   0  0  0  0  0  0  0  0  0  0  0  0
   45.8180   26.1386  -12.6469 H   0  0  0  0  0  0  0  0  0  0  0  0
   45.5430   26.5488  -14.3886 H   0  0  0  0  0  0  0  0  0  0  0  0
   44.8158   23.9574  -14.4499 H   0  0  0  0  0  0  0  0  0  0  0  0
   44.4248   24.3364  -12.7200 H   0  0  0  0  0  0  0  0  0  0  0  0
   43.4091   24.5615  -16.1402 H   0  0  0  0  0  0  0  0  0  0  0  0
   41.3045   25.5948  -16.9504 H   0  0  0  0  0  0  0  0  0  0  0  0
   38.3889   25.9118  -19.1238 H   0  0  0  0  0  0  0  0  0  0  0  0
   36.3423   26.7333  -20.2965 H   0  0  0  0  0  0  0  0  0  0  0  0
   34.9197   28.4945  -19.2411 H   0  0  0  0  0  0  0  0  0  0  0  0
   35.6510   30.1660  -16.2680 H   0  0  0  0  0  0  0  0  0  0  0  0
   40.1750   29.0100  -13.5430 H   0  0  0  0  0  0  0  0  0  0  0  0
   40.7472   27.4685  -13.1070 H   0  0  0  0  0  0  0  0  0  0  0  0
   43.4351   25.6604  -11.4455 H   0  0  0  0  0  0  0  0  0  0  0  0
   43.6135   27.4103  -11.8926 H   0  0  0  0  0  0  0  0  0  0  0  0
   42.0261   26.8171   -9.9364 H   0  0  0  0  0  0  0  0  0  0  0  0
   41.4284   27.9341  -11.2099 H   0  0  0  0  0  0  0  0  0  0  0  0
   40.9121   26.2136  -11.2099 H   0  0  0  0  0  0  0  0  0  0  0  0
  1  2  1  0
  2  3  1  0
  3  4  1  0
  4  5  2  0
  5  6  1  0
  6  7  2  0
  7  8  1  0
  8  9  1  0
  9 10  1  0
 10 11  2  0
 11 12  1  0
 12 13  2  0
 13 14  1  0
 14 15  1  0
 14 16  2  0
 16 17  1  0
 17 18  2  0
 17 19  1  0
 19 20  1  0
  7 21  1  0
 21 22  2  0
 22 23  1  0
 23 24  1  0
 22  4  1  0
 19  8  2  0
 16 10  1  0
  1 25  1  0
  1 26  1  0
  1 27  1  0
  2 28  1  0
  2 29  1  0
  3 30  1  0
  3 31  1  0
  5 32  1  0
  6 33  1  0
 11 34  1  0
 12 35  1  0
 13 36  1  0
 15 37  1  0
 20 38  1  0
 21 39  1  0
 23 40  1  0
 23 41  1  0
 24 42  1  0
 24 43  1  0
 24 44  1  0
M  END
>  <meeko>  (3) 
{"is_sidechain": [false], "free_energy": -5.878, "intermolecular_energy": -7.676, "internal_energy": 0.009}

$$$$
cand_053_out
     RDKit          3D

 44 46  0  0  0  0  0  0  0  0999 V2000
   34.5730   29.5490  -18.9700 C   0  0  0  0  0  0  0  0  0  0  0  0
   35.7050   29.3300  -17.9780 C   0  0  0  0  0  0  0  0  0  0  0  0
   36.4420   28.0180  -18.2550 C   0  0  0  0  0  0  0  0  0  0  0  0
   37.5320   27.7610  -17.2360 C   0  0  0  0  0  0  0  0  0  0  0  0
   38.5920   26.9130  -17.6020 C   0  0  0  0  0  0  0  0  0  0  0  0
   39.6380   26.6420  -16.7180 C   0  0  0  0  0  0  0  0  0  0  0  0
   39.6620   27.2180  -15.4440 C   0  0  0  0  0  0  0  0  0  0  0  0
   40.7620   26.8950  -14.5100 C   0  0  0  0  0  0  0  0  0  0  0  0
   41.8560   26.3160  -15.1440 O   0  0  0  0  0  0  0  0  0  0  0  0
   42.9490   25.9640  -14.3940 C   0  0  0  0  0  0  0  0  0  0  0  0
   44.0170   25.3730  -15.0700 C   0  0  0  0  0  0  0  0  0  0  0  0
   45.1620   24.9930  -14.3650 C   0  0  0  0  0  0  0  0  0  0  0  0
   45.2380   25.2060  -12.9870 C   0  0  0  0  0  0  0  0  0  0  0  0
   44.1700   25.7960  -12.3160 C   0  0  0  0  0  0  0  0  0  0  0  0
   44.3120   25.9750  -10.9670 O   0  0  0  0  0  0  0  0  0  0  0  0
   43.0250   26.1750  -13.0210 C   0  0  0  0  0  0  0  0  0  0  0  0
   41.8810   26.7990  -12.3550 C   0  0  0  0  0  0  0  0  0  0  0  0
   41.8770   27.0260  -11.1460 O   0  0  0  0  0  0  0  0  0  0  0  0
   40.7120   27.1560  -13.1910 C   0  0  0  0  0  0  0  0  0  0  0  0
   39.6420   27.7570  -12.5530 O   0  0  0  0  0  0  0  0  0  0  0  0
   38.6050   28.0610  -15.0770 C   0  0  0  0  0  0  0  0  0  0  0  0
   37.5430   28.3530  -15.9580 C   0  0  0  0  0  0  0  0  0  0  0  0
   36.4470   29.2710  -15.4660 C   0  0  0  0  0  0  0  0  0  0  0  0
   36.7320   29.7990  -14.0680 C   0  0  0  0  0  0  0  0  0  0  0  0
   33.6360   29.7303  -18.4230 H   0  0  0  0  0  0  0  0  0  0  0  0
   34.8027   30.4194  -19.6022 H   0  0  0  0  0  0  0  0  0  0  0  0
   34.4616   28.6558  -19.6022 H   0  0  0  0  0  0  0  0  0  0  0  0
   36.4172   30.1645  -18.0573 H   0  0  0  0  0  0  0  0  0  0  0  0
   35.2751   29.2795  -16.9668 H   0  0  0  0  0  0  0  0  0  0  0  0
   35.7195   27.1893  -18.2206 H   0  0  0  0  0  0  0  0  0  0  0  0
   36.9112   28.0916  -19.2472 H   0  0  0  0  0  0  0  0  0  0  0  0
   38.5973   26.4551  -18.6022 H   0  0  0  0  0  0  0  0  0  0  0  0
   40.4513   25.9687  -17.0267 H   0  0  0  0  0  0  0  0  0  0  0  0
   43.9577   25.2066  -16.1557 H   0  0  0  0  0  0  0  0  0  0  0  0
   46.0044   24.5256  -14.8960 H   0  0  0  0  0  0  0  0  0  0  0  0
   46.1401   24.9082  -12.4325 H   0  0  0  0  0  0  0  0  0  0  0  0
   44.3730   26.8410  -10.6140 H   0  0  0  0  0  0  0  0  0  0  0  0
   38.7660   27.5360  -12.7990 H   0  0  0  0  0  0  0  0  0  0  0  0
   38.6033   28.5084  -14.0721 H   0  0  0  0  0  0  0  0  0  0  0  0
   36.3602   30.1227  -16.1567 H   0  0  0  0  0  0  0  0  0  0  0  0
   35.5115   28.6937  -15.4275 H   0  0  0  0  0  0  0  0  0  0  0  0
   36.3480   29.0876  -13.3220 H   0  0  0  0  0  0  0  0  0  0  0  0
   37.8174   29.9190  -13.9356 H   0  0  0  0  0  0  0  0  0  0  0  0
   36.2367   30.7722  -13.9356 H   0  0  0  0  0  0  0  0  0  0  0  0
  1  2  1  0
  2  3  1  0
  3  4  1  0
  4  5  2  0
  5  6  1  0
  6  7  2  0
  7  8  1  0
  8  9  1  0
  9 10  1  0
 10 11  2  0
 11 12  1  0
 12 13  2  0
 13 14  1  0
 14 15  1  0
 14 16  2  0
 16 17  1  0
 17 18  2  0
 17 19  1  0
 19 20  1  0
  7 21  1  0
 21 22  2  0
 22 23  1  0
 23 24  1  0
 22  4  1  0
 19  8  2  0
 16 10  1  0
  1 25  1  0
  1 26  1  0
  1 27  1  0
  2 28  1  0
  2 29  1  0
  3 30  1  0
  3 31  1  0
  5 32  1  0
  6 33  1  0
 11 34  1  0
 12 35  1  0
 13 36  1  0
 15 37  1  0
 20 38  1  0
 21 39  1  0
 23 40  1  0
 23 41  1  0
 24 42  1  0
 24 43  1  0
 24 44  1  0
M  END
>  <meeko>  (4) 
{"is_sidechain": [false], "free_energy": -5.367, "intermolecular_energy": -7.966, "internal_energy": 0.959}

$$$$
cand_053_out
     RDKit          3D

 44 46  0  0  0  0  0  0  0  0999 V2000
   34.5080   29.6030  -19.0000 C   0  0  0  0  0  0  0  0  0  0  0  0
   35.8310   29.6800  -18.2540 C   0  0  0  0  0  0  0  0  0  0  0  0
   35.6340   29.4850  -16.7500 C   0  0  0  0  0  0  0  0  0  0  0  0
   36.8670   28.9010  -16.0940 C   0  0  0  0  0  0  0  0  0  0  0  0
   37.2930   29.4570  -14.8750 C   0  0  0  0  0  0  0  0  0  0  0  0
   38.4150   28.9600  -14.2080 C   0  0  0  0  0  0  0  0  0  0  0  0
   39.1390   27.8860  -14.7330 C   0  0  0  0  0  0  0  0  0  0  0  0
   40.3420   27.3940  -14.0280 C   0  0  0  0  0  0  0  0  0  0  0  0
   41.2740   26.8200  -14.8850 O   0  0  0  0  0  0  0  0  0  0  0  0
   42.4390   26.3200  -14.3620 C   0  0  0  0  0  0  0  0  0  0  0  0
   43.3370   25.7390  -15.2570 C   0  0  0  0  0  0  0  0  0  0  0  0
   44.5440   25.2130  -14.7900 C   0  0  0  0  0  0  0  0  0  0  0  0
   44.8520   25.2690  -13.4290 C   0  0  0  0  0  0  0  0  0  0  0  0
   43.9520   25.8490  -12.5380 C   0  0  0  0  0  0  0  0  0  0  0  0
   44.3160   25.8700  -11.2190 O   0  0  0  0  0  0  0  0  0  0  0  0
   42.7450   26.3750  -13.0060 C   0  0  0  0  0  0  0  0  0  0  0  0
   41.7720   26.9930  -12.1040 C   0  0  0  0  0  0  0  0  0  0  0  0
   41.9750   27.0870  -10.8950 O   0  0  0  0  0  0  0  0  0  0  0  0
   40.5200   27.5120  -12.6990 C   0  0  0  0  0  0  0  0  0  0  0  0
   39.6140   28.1070  -11.8390 O   0  0  0  0  0  0  0  0  0  0  0  0
   38.7180   27.3330  -15.9500 C   0  0  0  0  0  0  0  0  0  0  0  0
   37.5830   27.8160  -16.6350 C   0  0  0  0  0  0  0  0  0  0  0  0
   37.2130   27.1540  -17.9430 C   0  0  0  0  0  0  0  0  0  0  0  0
   38.4320   26.6020  -18.6670 C   0  0  0  0  0  0  0  0  0  0  0  0
   33.6811   29.5549  -18.2761 H   0  0  0  0  0  0  0  0  0  0  0  0
   34.3908   30.4958  -19.6317 H   0  0  0  0  0  0  0  0  0  0  0  0
   34.4951   28.7026  -19.6317 H   0  0  0  0  0  0  0  0  0  0  0  0
   36.5017   28.8944  -18.6322 H   0  0  0  0  0  0  0  0  0  0  0  0
   36.2656   30.6767  -18.4205 H   0  0  0  0  0  0  0  0  0  0  0  0
   35.4135   30.4597  -16.2902 H   0  0  0  0  0  0  0  0  0  0  0  0
   34.8015   28.7815  -16.6020 H   0  0  0  0  0  0  0  0  0  0  0  0
   36.7332   30.2976  -14.4392 H   0  0  0  0  0  0  0  0  0  0  0  0
   38.7321   29.4186  -13.2598 H   0  0  0  0  0  0  0  0  0  0  0  0
   43.0952   25.6950  -16.3292 H   0  0  0  0  0  0  0  0  0  0  0  0
   45.2527   24.7541  -15.4952 H   0  0  0  0  0  0  0  0  0  0  0  0
   45.8030   24.8561  -13.0615 H   0  0  0  0  0  0  0  0  0  0  0  0
   43.6580   25.8650  -10.5520 H   0  0  0  0  0  0  0  0  0  0  0  0
   39.4780   27.7510  -10.9830 H   0  0  0  0  0  0  0  0  0  0  0  0
   39.2887   26.4986  -16.3835 H   0  0  0  0  0  0  0  0  0  0  0  0
   36.5169   26.3272  -17.7382 H   0  0  0  0  0  0  0  0  0  0  0  0
   36.7491   27.9138  -18.5892 H   0  0  0  0  0  0  0  0  0  0  0  0
   39.1753   26.2654  -17.9293 H   0  0  0  0  0  0  0  0  0  0  0  0
   38.1305   25.7526  -19.2976 H   0  0  0  0  0  0  0  0  0  0  0  0
   38.8715   27.3889  -19.2976 H   0  0  0  0  0  0  0  0  0  0  0  0
  1  2  1  0
  2  3  1  0
  3  4  1  0
  4  5  2  0
  5  6  1  0
  6  7  2  0
  7  8  1  0
  8  9  1  0
  9 10  1  0
 10 11  2  0
 11 12  1  0
 12 13  2  0
 13 14  1  0
 14 15  1  0
 14 16  2  0
 16 17  1  0
 17 18  2  0
 17 19  1  0
 19 20  1  0
  7 21  1  0
 21 22  2  0
 22 23  1  0
 23 24  1  0
 22  4  1  0
 19  8  2  0
 16 10  1  0
  1 25  1  0
  1 26  1  0
  1 27  1  0
  2 28  1  0
  2 29  1  0
  3 30  1  0
  3 31  1  0
  5 32  1  0
  6 33  1  0
 11 34  1  0
 12 35  1  0
 13 36  1  0
 15 37  1  0
 20 38  1  0
 21 39  1  0
 23 40  1  0
 23 41  1  0
 24 42  1  0
 24 43  1  0
 24 44  1  0
M  END
>  <meeko>  (5) 
{"is_sidechain": [false], "free_energy": -5.169, "intermolecular_energy": -7.162, "internal_energy": 0.411}

$$$$
