cand_013_out
     RDKit          3D

 50 53  0  0  0  0  0  0  0  0999 V2000
   48.3650   23.9280  -12.9600 C   0  0  0  0  0  0  0  0  0  0  0  0
   47.1910   24.3900  -13.6970 N   0  0  0  0  0  0  0  0  0  0  0  0
   46.0170   23.5380  -13.3920 C   0  0  0  0  0  0  0  0  0  0  0  0
   44.7330   24.0220  -14.1060 C   0  0  0  0  0  0  0  0  0  0  0  0
   44.4560   25.4330  -13.7430 N   0  0  0  0  0  0  0  0  0  0  0  0
   43.2310   25.9030  -14.2450 C   0  0  0  0  0  0  0  0  0  0  0  0
   42.8040   25.6210  -15.5510 C   0  0  0  0  0  0  0  0  0  0  0  0
   41.5790   26.0930  -16.0320 C   0  0  0  0  0  0  0  0  0  0  0  0
   40.7380   26.8560  -15.2180 C   0  0  0  0  0  0  0  0  0  0  0  0
   39.4510   27.3900  -15.7080 C   0  0  0  0  0  0  0  0  0  0  0  0
   39.1030   26.8950  -16.9610 O   0  0  0  0  0  0  0  0  0  0  0  0
   37.9310   27.3130  -17.5370 C   0  0  0  0  0  0  0  0  0  0  0  0
   37.6160   26.7820  -18.7880 C   0  0  0  0  0  0  0  0  0  0  0  0
   36.4360   27.1660  -19.4300 C   0  0  0  0  0  0  0  0  0  0  0  0
   35.5730   28.0800  -18.8220 C   0  0  0  0  0  0  0  0  0  0  0  0
   35.8900   28.6070  -17.5730 C   0  0  0  0  0  0  0  0  0  0  0  0
   35.0010   29.4980  -17.0350 O   0  0  0  0  0  0  0  0  0  0  0  0
   37.0700   28.2230  -16.9310 C   0  0  0  0  0  0  0  0  0  0  0  0
   37.4410   28.7550  -15.6180 C   0  0  0  0  0  0  0  0  0  0  0  0
   36.7380   29.5670  -15.0220 O   0  0  0  0  0  0  0  0  0  0  0  0
   38.7090   28.2780  -15.0200 C   0  0  0  0  0  0  0  0  0  0  0  0
   39.0590   28.7990  -13.7880 O   0  0  0  0  0  0  0  0  0  0  0  0
   41.1650   27.1460  -13.9140 C   0  0  0  0  0  0  0  0  0  0  0  0
   42.4000   26.6760  -13.4160 C   0  0  0  0  0  0  0  0  0  0  0  0
   42.8140   27.0100  -12.0040 C   0  0  0  0  0  0  0  0  0  0  0  0
   43.7200   28.0350  -11.9490 F   0  0  0  0  0  0  0  0  0  0  0  0
   43.4200   25.9760  -11.3510 F   0  0  0  0  0  0  0  0  0  0  0  0
   41.7810   27.4170  -11.2110 F   0  0  0  0  0  0  0  0  0  0  0  0
   45.6070   26.3120  -14.0610 C   0  0  0  0  0  0  0  0  0  0  0  0
   46.8770   25.7950  -13.3460 C   0  0  0  0  0  0  0  0  0  0  0  0
   48.1728   24.0036  -11.8796 H   0  0  0  0  0  0  0  0  0  0  0  0
   48.5741   22.8805  -13.2228 H   0  0  0  0  0  0  0  0  0  0  0  0
   49.2319   24.5520  -13.2228 H   0  0  0  0  0  0  0  0  0  0  0  0
   47.4020   24.3300  -14.6930 H   0  0  0  0  0  0  0  0  0  0  0  0
   46.2341   22.5092  -13.7153 H   0  0  0  0  0  0  0  0  0  0  0  0
   45.8374   23.5916  -12.3081 H   0  0  0  0  0  0  0  0  0  0  0  0
   44.8700   23.9455  -15.1948 H   0  0  0  0  0  0  0  0  0  0  0  0
   43.8857   23.3941  -13.7932 H   0  0  0  0  0  0  0  0  0  0  0  0
   43.4453   25.0168  -16.2095 H   0  0  0  0  0  0  0  0  0  0  0  0
   41.2739   25.8610  -17.0631 H   0  0  0  0  0  0  0  0  0  0  0  0
   38.2954   26.0623  -19.2681 H   0  0  0  0  0  0  0  0  0  0  0  0
   36.1864   26.7476  -20.4162 H   0  0  0  0  0  0  0  0  0  0  0  0
   34.6448   28.3829  -19.3287 H   0  0  0  0  0  0  0  0  0  0  0  0
   34.7710   29.4390  -16.1280 H   0  0  0  0  0  0  0  0  0  0  0  0
   39.9510   29.0200  -13.6090 H   0  0  0  0  0  0  0  0  0  0  0  0
   40.5214   27.7552  -13.2624 H   0  0  0  0  0  0  0  0  0  0  0  0
   45.7754   26.3135  -15.1480 H   0  0  0  0  0  0  0  0  0  0  0  0
   45.3883   27.3338  -13.7173 H   0  0  0  0  0  0  0  0  0  0  0  0
   47.7278   26.4297  -13.6345 H   0  0  0  0  0  0  0  0  0  0  0  0
   46.6920   25.8365  -12.2625 H   0  0  0  0  0  0  0  0  0  0  0  0
  1  2  1  0
  2  3  1  0
  3  4  1  0
  4  5  1  0
  5  6  1  0
  6  7  2  0
  7  8  1  0
  8  9  2  0
  9 10  1  0
 10 11  1  0
 11 12  1  0
 12 13  2  0
 13 14  1  0
 14 15  2  0
 15 16  1  0
 16 17  1  0
 16 18  2  0
 18 19  1  0
 19 20  2  0
 19 21  1  0
 21 22  1  0
  9 23  1  0
 23 24  2  0
 24 25  1  0
 25 26  1  0
 25 27  1  0
 25 28  1  0
  5 29  1  0
 29 30  1  0
 30  2  1  0
 24  6  1  0
 21 10  2  0
 18 12  1  0
  1 31  1  0
  1 32  1  0
  1 33  1  0
  2 34  1  0
  3 35  1  0
  3 36  1  0
  4 37  1  0
  4 38  1  0
  7 39  1  0
  8 40  1  0
 13 41  1  0
 14 42  1  0
 15 43  1  0
 17 44  1  0
 22 45  1  0
 23 46  1  0
 29 47  1  0
 29 48  1  0
 30 49  1  0
 30 50  1  0
M  CHG  1   2   1
M  END
>  <meeko>  (1) 
{"is_sidechain": [false], "free_energy": -0.449, "intermolecular_energy": -0.554, "internal_energy": 0.15}

$$$$
cand_013_out
     RDKit          3D

 50 53  0  0  0  0  0  0  0  0999 V2000
   48.3720   24.1890  -12.4140 C   0  0  0  0  0  0  0  0  0  0  0  0
   47.2670   24.5040  -13.3170 N   0  0  0  0  0  0  0  0  0  0  0  0
   46.0860   23.6650  -13.0070 C   0  0  0  0  0  0  0  0  0  0  0  0
   44.8690   24.0010  -13.9000 C   0  0  0  0  0  0  0  0  0  0  0  0
   44.5300   25.4380  -13.7700 N   0  0  0  0  0  0  0  0  0  0  0  0
   43.3510   25.7930  -14.4470 C   0  0  0  0  0  0  0  0  0  0  0  0
   43.0780   25.3470  -15.7490 C   0  0  0  0  0  0  0  0  0  0  0  0
   41.8970   25.7050  -16.4070 C   0  0  0  0  0  0  0  0  0  0  0  0
   40.9480   26.5150  -15.7780 C   0  0  0  0  0  0  0  0  0  0  0  0
   39.7040   26.9320  -16.4580 C   0  0  0  0  0  0  0  0  0  0  0  0
   38.9550   27.8340  -15.7110 O   0  0  0  0  0  0  0  0  0  0  0  0
   37.7720   28.3000  -16.2240 C   0  0  0  0  0  0  0  0  0  0  0  0
   37.0600   29.2120  -15.4450 C   0  0  0  0  0  0  0  0  0  0  0  0
   35.8460   29.7260  -15.9100 C   0  0  0  0  0  0  0  0  0  0  0  0
   35.3470   29.3280  -17.1510 C   0  0  0  0  0  0  0  0  0  0  0  0
   36.0600   28.4180  -17.9260 C   0  0  0  0  0  0  0  0  0  0  0  0
   35.5140   28.0700  -19.1310 O   0  0  0  0  0  0  0  0  0  0  0  0
   37.2740   27.9040  -17.4610 C   0  0  0  0  0  0  0  0  0  0  0  0
   38.0540   26.9450  -18.2450 C   0  0  0  0  0  0  0  0  0  0  0  0
   37.6790   26.5410  -19.3420 O   0  0  0  0  0  0  0  0  0  0  0  0
   39.3310   26.4660  -17.6650 C   0  0  0  0  0  0  0  0  0  0  0  0
   40.0530   25.5480  -18.4050 O   0  0  0  0  0  0  0  0  0  0  0  0
   41.2220   26.9700  -14.4800 C   0  0  0  0  0  0  0  0  0  0  0  0
   42.4100   26.6150  -13.8060 C   0  0  0  0  0  0  0  0  0  0  0  0
   42.6570   27.1250  -12.4070 C   0  0  0  0  0  0  0  0  0  0  0  0
   43.3850   28.2850  -12.3900 F   0  0  0  0  0  0  0  0  0  0  0  0
   43.3670   26.2590  -11.6250 F   0  0  0  0  0  0  0  0  0  0  0  0
   41.5160   27.4200  -11.7200 F   0  0  0  0  0  0  0  0  0  0  0  0
   45.6890   26.3020  -14.1000 C   0  0  0  0  0  0  0  0  0  0  0  0
   46.8920   25.9330  -13.2010 C   0  0  0  0  0  0  0  0  0  0  0  0
   48.0330   24.2856  -11.3720 H   0  0  0  0  0  0  0  0  0  0  0  0
   48.7112   23.1584  -12.5951 H   0  0  0  0  0  0  0  0  0  0  0  0
   49.2036   24.8859  -12.5951 H   0  0  0  0  0  0  0  0  0  0  0  0
   47.5760   24.3130  -14.2700 H   0  0  0  0  0  0  0  0  0  0  0  0
   46.3540   22.6090  -13.1589 H   0  0  0  0  0  0  0  0  0  0  0  0
   45.7997   23.8640  -11.9637 H   0  0  0  0  0  0  0  0  0  0  0  0
   45.1133   23.7772  -14.9489 H   0  0  0  0  0  0  0  0  0  0  0  0
   44.0077   23.3953  -13.5817 H   0  0  0  0  0  0  0  0  0  0  0  0
   43.8073   24.7031  -16.2623 H   0  0  0  0  0  0  0  0  0  0  0  0
   41.7133   25.3452  -17.4302 H   0  0  0  0  0  0  0  0  0  0  0  0
   37.4530   29.5261  -14.4668 H   0  0  0  0  0  0  0  0  0  0  0  0
   35.2832   30.4452  -15.2968 H   0  0  0  0  0  0  0  0  0  0  0  0
   34.3916   29.7329  -17.5161 H   0  0  0  0  0  0  0  0  0  0  0  0
   35.3660   28.7260  -19.7850 H   0  0  0  0  0  0  0  0  0  0  0  0
   40.6640   24.9800  -17.9790 H   0  0  0  0  0  0  0  0  0  0  0  0
   40.4926   27.6199  -13.9746 H   0  0  0  0  0  0  0  0  0  0  0  0
   45.9638   26.1567  -15.1552 H   0  0  0  0  0  0  0  0  0  0  0  0
   45.4174   27.3541  -13.9286 H   0  0  0  0  0  0  0  0  0  0  0  0
   47.7545   26.5494  -13.4945 H   0  0  0  0  0  0  0  0  0  0  0  0
   46.5999   26.1193  -12.1570 H   0  0  0  0  0  0  0  0  0  0  0  0
  1  2  1  0
  2  3  1  0
  3  4  1  0
  4  5  1  0
  5  6  1  0
  6  7  2  0
  7  8  1  0
  8  9  2  0
  9 10  1  0
 10 11  1  0
 11 12  1  0
 12 13  2  0
 13 14  1  0
 14 15  2  0
 15 16  1  0
 16 17  1  0
 16 18  2  0
 18 19  1  0
 19 20  2  0
 19 21  1  0
 21 22  1  0
  9 23  1  0
 23 24  2  0
 24 25  1  0
 25 26  1  0
 25 27  1  0
 25 28  1  0
  5 29  1  0
 29 30  1  0
 30  2  1  0
 24  6  1  0
 21 10  2  0
 18 12  1  0
  1 31  1  0
  1 32  1  0
  1 33  1  0
  2 34  1  0
  3 35  1  0
  3 36  1  0
  4 37  1  0
  4 38  1  0
  7 39  1  0
  8 40  1  0
 13 41  1  0
 14 42  1  0
 15 43  1  0
 17 44  1  0
 22 45  1  0
 23 46  1  0
 29 47  1  0
 29 48  1  0
 30 49  1  0
 30 50  1  0
M  CHG  1   2   1
M  END
>  <meeko>  (2) 
{"is_sidechain": [false], "free_energy": 0.708, "intermolecular_energy": 0.893, "internal_energy": 0.131}

$$$$
cand_013_out
     RDKit          3D

 50 53  0  0  0  0  0  0  0  0999 V2000
   34.3310   29.5250  -18.9940 C   0  0  0  0  0  0  0  0  0  0  0  0
   35.7050   29.1540  -18.6650 N   0  0  0  0  0  0  0  0  0  0  0  0
   36.0820   29.6820  -17.3330 C   0  0  0  0  0  0  0  0  0  0  0  0
   37.5120   29.2670  -16.9130 C   0  0  0  0  0  0  0  0  0  0  0  0
   37.6350   27.7900  -16.9370 N   0  0  0  0  0  0  0  0  0  0  0  0
   38.8650   27.3290  -16.4380 C   0  0  0  0  0  0  0  0  0  0  0  0
   39.7160   26.5120  -17.1950 C   0  0  0  0  0  0  0  0  0  0  0  0
   40.9390   26.0660  -16.6850 C   0  0  0  0  0  0  0  0  0  0  0  0
   41.3520   26.4320  -15.4010 C   0  0  0  0  0  0  0  0  0  0  0  0
   42.6260   25.9540  -14.8260 C   0  0  0  0  0  0  0  0  0  0  0  0
   43.5920   26.9520  -14.7480 O   0  0  0  0  0  0  0  0  0  0  0  0
   44.8260   26.6420  -14.2350 C   0  0  0  0  0  0  0  0  0  0  0  0
   45.7590   27.6770  -14.1650 C   0  0  0  0  0  0  0  0  0  0  0  0
   47.0360   27.4290  -13.6530 C   0  0  0  0  0  0  0  0  0  0  0  0
   47.3770   26.1490  -13.2130 C   0  0  0  0  0  0  0  0  0  0  0  0
   46.4430   25.1190  -13.2840 C   0  0  0  0  0  0  0  0  0  0  0  0
   46.8440   23.8890  -12.8370 O   0  0  0  0  0  0  0  0  0  0  0  0
   45.1660   25.3670  -13.7960 C   0  0  0  0  0  0  0  0  0  0  0  0
   44.1560   24.3120  -13.8900 C   0  0  0  0  0  0  0  0  0  0  0  0
   44.3820   23.1590  -13.5300 O   0  0  0  0  0  0  0  0  0  0  0  0
   42.8310   24.6800  -14.4410 C   0  0  0  0  0  0  0  0  0  0  0  0
   41.8890   23.6730  -14.5400 O   0  0  0  0  0  0  0  0  0  0  0  0
   40.5000   27.2420  -14.6380 C   0  0  0  0  0  0  0  0  0  0  0  0
   39.2630   27.6990  -15.1420 C   0  0  0  0  0  0  0  0  0  0  0  0
   38.3820   28.5740  -14.2840 C   0  0  0  0  0  0  0  0  0  0  0  0
   38.7050   28.5050  -12.9550 F   0  0  0  0  0  0  0  0  0  0  0  0
   37.0590   28.2400  -14.3370 F   0  0  0  0  0  0  0  0  0  0  0  0
   38.4600   29.9010  -14.5920 F   0  0  0  0  0  0  0  0  0  0  0  0
   37.2880   27.2370  -18.2680 C   0  0  0  0  0  0  0  0  0  0  0  0
   35.8600   27.6800  -18.6650 C   0  0  0  0  0  0  0  0  0  0  0  0
   33.7606   29.6790  -18.0661 H   0  0  0  0  0  0  0  0  0  0  0  0
   34.3330   30.4548  -19.5818 H   0  0  0  0  0  0  0  0  0  0  0  0
   33.8647   28.7206  -19.5818 H   0  0  0  0  0  0  0  0  0  0  0  0
   36.3180   29.5580  -19.3740 H   0  0  0  0  0  0  0  0  0  0  0  0
   36.0275   30.7803  -17.3608 H   0  0  0  0  0  0  0  0  0  0  0  0
   35.3822   29.2602  -16.5965 H   0  0  0  0  0  0  0  0  0  0  0  0
   38.2394   29.7052  -17.6122 H   0  0  0  0  0  0  0  0  0  0  0  0
   37.7107   29.6309  -15.8941 H   0  0  0  0  0  0  0  0  0  0  0  0
   39.4155   26.2158  -18.2109 H   0  0  0  0  0  0  0  0  0  0  0  0
   41.5827   25.4205  -17.3006 H   0  0  0  0  0  0  0  0  0  0  0  0
   45.4904   28.6857  -14.5119 H   0  0  0  0  0  0  0  0  0  0  0  0
   47.7730   28.2436  -13.5968 H   0  0  0  0  0  0  0  0  0  0  0  0
   48.3821   25.9544  -12.8108 H   0  0  0  0  0  0  0  0  0  0  0  0
   47.3890   23.8220  -12.0770 H   0  0  0  0  0  0  0  0  0  0  0  0
   42.1320   22.8360  -14.8840 H   0  0  0  0  0  0  0  0  0  0  0  0
   40.8029   27.5291  -13.6202 H   0  0  0  0  0  0  0  0  0  0  0  0
   38.0057   27.6067  -19.0152 H   0  0  0  0  0  0  0  0  0  0  0  0
   37.3284   26.1385  -18.2260 H   0  0  0  0  0  0  0  0  0  0  0  0
   35.6406   27.3018  -19.6744 H   0  0  0  0  0  0  0  0  0  0  0  0
   35.1623   27.2695  -17.9202 H   0  0  0  0  0  0  0  0  0  0  0  0
  1  2  1  0
  2  3  1  0
  3  4  1  0
  4  5  1  0
  5  6  1  0
  6  7  2  0
  7  8  1  0
  8  9  2  0
  9 10  1  0
 10 11  1  0
 11 12  1  0
 12 13  2  0
 13 14  1  0
 14 15  2  0
 15 16  1  0
 16 17  1  0
 16 18  2  0
 18 19  1  0
 19 20  2  0
 19 21  1  0
 21 22  1  0
  9 23  1  0
 23 24  2  0
 24 25  1  0
 25 26  1  0
 25 27  1  0
 25 28  1  0
  5 29  1  0
 29 30  1  0
 30  2  1  0
 24  6  1  0
 21 10  2  0
 18 12  1  0
  1 31  1  0
  1 32  1  0
  1 33  1  0
  2 34  1  0
  3 35  1  0
  3 36  1  0
  4 37  1  0
  4 38  1  0
  7 39  1  0
  8 40  1  0
 13 41  1  0
 14 42  1  0
 15 43  1  0
 17 44  1  0
 22 45  1  0
 23 46  1  0
 29 47  1  0
 29 48  1  0
 30 49  1  0
 30 50  1  0
M  CHG  1   2   1
M  END
>  <meeko>  (3) 
{"is_sidechain": [false], "free_energy": 1.363, "intermolecular_energy": 0.825, "internal_energy": 1.007}

$$$$
