cand_039_out
     RDKit          3D

 41 43  0  0  0  0  0  0  0  0999 V2000
   46.3730   24.9810  -13.9280 C   0  0  0  0  0  0  0  0  0  0  0  0
   45.1460   24.8370  -13.0380 C   0  0  0  0  0  0  0  0  0  0  0  0
   43.9020   25.3830  -13.7000 C   0  0  0  0  0  0  0  0  0  0  0  0
   43.6670   25.0460  -15.0440 C   0  0  0  0  0  0  0  0  0  0  0  0
   42.5330   25.5070  -15.7170 C   0  0  0  0  0  0  0  0  0  0  0  0
   41.6020   26.3240  -15.0690 C   0  0  0  0  0  0  0  0  0  0  0  0
   40.3970   26.7860  -15.7910 C   0  0  0  0  0  0  0  0  0  0  0  0
   39.5750   27.5890  -15.0100 O   0  0  0  0  0  0  0  0  0  0  0  0
   38.4200   28.0870  -15.5570 C   0  0  0  0  0  0  0  0  0  0  0  0
   37.6320   28.9010  -14.7420 C   0  0  0  0  0  0  0  0  0  0  0  0
   36.4420   29.4390  -15.2370 C   0  0  0  0  0  0  0  0  0  0  0  0
   36.0400   29.1630  -16.5460 C   0  0  0  0  0  0  0  0  0  0  0  0
   36.8270   28.3500  -17.3560 C   0  0  0  0  0  0  0  0  0  0  0  0
   36.3760   28.1210  -18.6270 O   0  0  0  0  0  0  0  0  0  0  0  0
   38.0190   27.8130  -16.8610 C   0  0  0  0  0  0  0  0  0  0  0  0
   38.8760   26.9540  -17.6790 C   0  0  0  0  0  0  0  0  0  0  0  0
   38.5860   26.6600  -18.8370 O   0  0  0  0  0  0  0  0  0  0  0  0
   40.1220   26.4420  -17.0630 C   0  0  0  0  0  0  0  0  0  0  0  0
   40.9170   25.6210  -17.8410 O   0  0  0  0  0  0  0  0  0  0  0  0
   41.8260   26.6470  -13.7230 C   0  0  0  0  0  0  0  0  0  0  0  0
   42.9610   26.1850  -13.0250 C   0  0  0  0  0  0  0  0  0  0  0  0
   43.1240   26.6090  -11.5830 C   0  0  0  0  0  0  0  0  0  0  0  0
   41.7850   26.9090  -10.9240 C   0  0  0  0  0  0  0  0  0  0  0  0
   47.2705   25.0863  -13.3008 H   0  0  0  0  0  0  0  0  0  0  0  0
   46.4721   24.0883  -14.5631 H   0  0  0  0  0  0  0  0  0  0  0  0
   46.2628   25.8724  -14.5631 H   0  0  0  0  0  0  0  0  0  0  0  0
   44.9915   23.7709  -12.8152 H   0  0  0  0  0  0  0  0  0  0  0  0
   45.3231   25.4130  -12.1177 H   0  0  0  0  0  0  0  0  0  0  0  0
   44.3886   24.4081  -15.5753 H   0  0  0  0  0  0  0  0  0  0  0  0
   42.3710   25.2242  -16.7676 H   0  0  0  0  0  0  0  0  0  0  0  0
   37.9478   29.1186  -13.7110 H   0  0  0  0  0  0  0  0  0  0  0  0
   35.8205   30.0809  -14.5953 H   0  0  0  0  0  0  0  0  0  0  0  0
   35.1031   29.5875  -16.9358 H   0  0  0  0  0  0  0  0  0  0  0  0
   35.7630   27.4300  -18.7880 H   0  0  0  0  0  0  0  0  0  0  0  0
   41.3130   24.8600  -17.4650 H   0  0  0  0  0  0  0  0  0  0  0  0
   41.0955   27.2788  -13.1965 H   0  0  0  0  0  0  0  0  0  0  0  0
   43.6197   25.7988  -11.0281 H   0  0  0  0  0  0  0  0  0  0  0  0
   43.7265   27.5292  -11.5646 H   0  0  0  0  0  0  0  0  0  0  0  0
   41.9006   26.8831   -9.8304 H   0  0  0  0  0  0  0  0  0  0  0  0
   41.4398   27.9068  -11.2327 H   0  0  0  0  0  0  0  0  0  0  0  0
   41.0471   26.1539  -11.2327 H   0  0  0  0  0  0  0  0  0  0  0  0
  1  2  1  0
  2  3  1  0
  3  4  2  0
  4  5  1  0
  5  6  2  0
  6  7  1  0
  7  8  1  0
  8  9  1  0
  9 10  2  0
 10 11  1  0
 11 12  2  0
 12 13  1  0
 13 14  1  0
 13 15  2  0
 15 16  1  0
 16 17  2  0
 16 18  1  0
 18 19  1  0
  6 20  1  0
 20 21  2  0
 21 22  1  0
 22 23  1  0
 21  3  1  0
 18  7  2  0
 15  9  1  0
  1 24  1  0
  1 25  1  0
  1 26  1  0
  2 27  1  0
  2 28  1  0
  4 29  1  0
  5 30  1  0
 10 31  1  0
 11 32  1  0
 12 33  1  0
 14 34  1  0
 19 35  1  0
 20 36  1  0
 22 37  1  0
 22 38  1  0
 23 39  1  0
 23 40  1  0
 23 41  1  0
M  END
>  <meeko>  (1) 
{"is_sidechain": [false], "free_energy": -7.355, "intermolecular_energy": -9.075, "internal_energy": 0.089}

$$$$
cand_039_out
     RDKit          3D

 41 43  0  0  0  0  0  0  0  0999 V2000
   46.6490   24.6990  -13.8890 C   0  0  0  0  0  0  0  0  0  0  0  0
   45.3760   24.4150  -13.1050 C   0  0  0  0  0  0  0  0  0  0  0  0
   44.1640   25.0500  -13.7470 C   0  0  0  0  0  0  0  0  0  0  0  0
   43.3590   24.2490  -14.5750 C   0  0  0  0  0  0  0  0  0  0  0  0
   42.2190   24.7670  -15.1940 C   0  0  0  0  0  0  0  0  0  0  0  0
   41.8510   26.1030  -15.0100 C   0  0  0  0  0  0  0  0  0  0  0  0
   40.6300   26.6280  -15.6570 C   0  0  0  0  0  0  0  0  0  0  0  0
   39.8700   27.4260  -14.8080 O   0  0  0  0  0  0  0  0  0  0  0  0
   38.7080   27.9790  -15.2820 C   0  0  0  0  0  0  0  0  0  0  0  0
   37.9860   28.7850  -14.4020 C   0  0  0  0  0  0  0  0  0  0  0  0
   36.7910   29.3770  -14.8200 C   0  0  0  0  0  0  0  0  0  0  0  0
   36.3210   29.1630  -16.1170 C   0  0  0  0  0  0  0  0  0  0  0  0
   37.0430   28.3580  -16.9930 C   0  0  0  0  0  0  0  0  0  0  0  0
   36.5260   28.1900  -18.2480 O   0  0  0  0  0  0  0  0  0  0  0  0
   38.2390   27.7660  -16.5750 C   0  0  0  0  0  0  0  0  0  0  0  0
   39.0290   26.9130  -17.4630 C   0  0  0  0  0  0  0  0  0  0  0  0
   38.6770   26.6720  -18.6160 O   0  0  0  0  0  0  0  0  0  0  0  0
   40.2850   26.3400  -16.9250 C   0  0  0  0  0  0  0  0  0  0  0  0
   41.0160   25.5260  -17.7690 O   0  0  0  0  0  0  0  0  0  0  0  0
   42.6430   26.8990  -14.1700 C   0  0  0  0  0  0  0  0  0  0  0  0
   43.7940   26.3930  -13.5310 C   0  0  0  0  0  0  0  0  0  0  0  0
   44.5950   27.3390  -12.6650 C   0  0  0  0  0  0  0  0  0  0  0  0
   44.3750   28.7930  -13.0580 C   0  0  0  0  0  0  0  0  0  0  0  0
   47.4772   24.8838  -13.1890 H   0  0  0  0  0  0  0  0  0  0  0  0
   46.8905   23.8327  -14.5223 H   0  0  0  0  0  0  0  0  0  0  0  0
   46.4994   25.5859  -14.5223 H   0  0  0  0  0  0  0  0  0  0  0  0
   45.2235   23.3267  -13.0569 H   0  0  0  0  0  0  0  0  0  0  0  0
   45.4927   24.8445  -12.0991 H   0  0  0  0  0  0  0  0  0  0  0  0
   43.6314   23.1959  -14.7384 H   0  0  0  0  0  0  0  0  0  0  0  0
   41.6041   24.1165  -15.8333 H   0  0  0  0  0  0  0  0  0  0  0  0
   38.3567   28.9545  -13.3803 H   0  0  0  0  0  0  0  0  0  0  0  0
   36.2203   30.0121  -14.1265 H   0  0  0  0  0  0  0  0  0  0  0  0
   35.3811   29.6301  -16.4462 H   0  0  0  0  0  0  0  0  0  0  0  0
   35.5980   28.1460  -18.3700 H   0  0  0  0  0  0  0  0  0  0  0  0
   41.4320   25.8880  -18.5270 H   0  0  0  0  0  0  0  0  0  0  0  0
   42.3583   27.9486  -14.0047 H   0  0  0  0  0  0  0  0  0  0  0  0
   44.2915   27.2043  -11.6163 H   0  0  0  0  0  0  0  0  0  0  0  0
   45.6613   27.1065  -12.8024 H   0  0  0  0  0  0  0  0  0  0  0  0
   44.2819   29.4080  -12.1507 H   0  0  0  0  0  0  0  0  0  0  0  0
   45.2301   29.1452  -13.6536 H   0  0  0  0  0  0  0  0  0  0  0  0
   43.4540   28.8765  -13.6536 H   0  0  0  0  0  0  0  0  0  0  0  0
  1  2  1  0
  2  3  1  0
  3  4  2  0
  4  5  1  0
  5  6  2  0
  6  7  1  0
  7  8  1  0
  8  9  1  0
  9 10  2  0
 10 11  1  0
 11 12  2  0
 12 13  1  0
 13 14  1  0
 13 15  2  0
 15 16  1  0
 16 17  2  0
 16 18  1  0
 18 19  1  0
  6 20  1  0
 20 21  2  0
 21 22  1  0
 22 23  1  0
 21  3  1  0
 18  7  2  0
 15  9  1  0
  1 24  1  0
  1 25  1  0
  1 26  1  0
  2 27  1  0
  2 28  1  0
  4 29  1  0
  5 30  1  0
 10 31  1  0
 11 32  1  0
 12 33  1  0
 14 34  1  0
 19 35  1  0
 20 36  1  0
 22 37  1  0
 22 38  1  0
 23 39  1  0
 23 40  1  0
 23 41  1  0
M  END
>  <meeko>  (2) 
{"is_sidechain": [false], "free_energy": -6.892, "intermolecular_energy": -8.194, "internal_energy": -0.221}

$$$$
cand_039_out
     RDKit          3D

 41 43  0  0  0  0  0  0  0  0999 V2000
   47.0010   24.8340  -14.3960 C   0  0  0  0  0  0  0  0  0  0  0  0
   45.9080   24.3970  -13.4320 C   0  0  0  0  0  0  0  0  0  0  0  0
   44.6130   25.1370  -13.6740 C   0  0  0  0  0  0  0  0  0  0  0  0
   43.7080   24.5970  -14.6050 C   0  0  0  0  0  0  0  0  0  0  0  0
   42.4880   25.2230  -14.8730 C   0  0  0  0  0  0  0  0  0  0  0  0
   42.1370   26.4100  -14.2230 C   0  0  0  0  0  0  0  0  0  0  0  0
   40.8320   27.0470  -14.5040 C   0  0  0  0  0  0  0  0  0  0  0  0
   40.3750   26.7930  -15.7920 O   0  0  0  0  0  0  0  0  0  0  0  0
   39.1730   27.3260  -16.1860 C   0  0  0  0  0  0  0  0  0  0  0  0
   38.7450   27.0330  -17.4810 C   0  0  0  0  0  0  0  0  0  0  0  0
   37.5310   27.5460  -17.9460 C   0  0  0  0  0  0  0  0  0  0  0  0
   36.7480   28.3500  -17.1160 C   0  0  0  0  0  0  0  0  0  0  0  0
   37.1780   28.6410  -15.8250 C   0  0  0  0  0  0  0  0  0  0  0  0
   36.3630   29.4340  -15.0650 O   0  0  0  0  0  0  0  0  0  0  0  0
   38.3920   28.1270  -15.3590 C   0  0  0  0  0  0  0  0  0  0  0  0
   38.8810   28.4080  -14.0090 C   0  0  0  0  0  0  0  0  0  0  0  0
   38.2510   29.1130  -13.2230 O   0  0  0  0  0  0  0  0  0  0  0  0
   40.1760   27.8090  -13.6100 C   0  0  0  0  0  0  0  0  0  0  0  0
   40.6340   28.0920  -12.3370 O   0  0  0  0  0  0  0  0  0  0  0  0
   43.0300   26.9400  -13.2820 C   0  0  0  0  0  0  0  0  0  0  0  0
   44.2630   26.3200  -12.9920 C   0  0  0  0  0  0  0  0  0  0  0  0
   45.1680   26.9840  -11.9790 C   0  0  0  0  0  0  0  0  0  0  0  0
   46.4930   27.4100  -12.5940 C   0  0  0  0  0  0  0  0  0  0  0  0
   47.8745   25.1833  -13.8260 H   0  0  0  0  0  0  0  0  0  0  0  0
   47.2928   23.9834  -15.0295 H   0  0  0  0  0  0  0  0  0  0  0  0
   46.6259   25.6513  -15.0295 H   0  0  0  0  0  0  0  0  0  0  0  0
   45.7308   23.3190  -13.5606 H   0  0  0  0  0  0  0  0  0  0  0  0
   46.2445   24.6249  -12.4098 H   0  0  0  0  0  0  0  0  0  0  0  0
   43.9650   23.6659  -15.1313 H   0  0  0  0  0  0  0  0  0  0  0  0
   41.7964   24.7773  -15.6031 H   0  0  0  0  0  0  0  0  0  0  0  0
   39.3620   26.3993  -18.1350 H   0  0  0  0  0  0  0  0  0  0  0  0
   37.1922   27.3160  -18.9669 H   0  0  0  0  0  0  0  0  0  0  0  0
   35.7922   28.7531  -17.4820 H   0  0  0  0  0  0  0  0  0  0  0  0
   35.6340   29.8710  -15.4610 H   0  0  0  0  0  0  0  0  0  0  0  0
   40.0240   28.2580  -11.6460 H   0  0  0  0  0  0  0  0  0  0  0  0
   42.7613   27.8669  -12.7541 H   0  0  0  0  0  0  0  0  0  0  0  0
   44.6601   27.8734  -11.5776 H   0  0  0  0  0  0  0  0  0  0  0  0
   45.3807   26.2552  -11.1830 H   0  0  0  0  0  0  0  0  0  0  0  0
   47.2113   27.6410  -11.7936 H   0  0  0  0  0  0  0  0  0  0  0  0
   46.8877   26.5935  -13.2165 H   0  0  0  0  0  0  0  0  0  0  0  0
   46.3379   28.3035  -13.2165 H   0  0  0  0  0  0  0  0  0  0  0  0
  1  2  1  0
  2  3  1  0
  3  4  2  0
  4  5  1  0
  5  6  2  0
  6  7  1  0
  7  8  1  0
  8  9  1  0
  9 10  2  0
 10 11  1  0
 11 12  2  0
 12 13  1  0
 13 14  1  0
 13 15  2  0
 15 16  1  0
 16 17  2  0
 16 18  1  0
 18 19  1  0
  6 20  1  0
 20 21  2  0
 21 22  1  0
 22 23  1  0
 21  3  1  0
 18  7  2  0
 15  9  1  0
  1 24  1  0
  1 25  1  0
  1 26  1  0
  2 27  1  0
  2 28  1  0
  4 29  1  0
  5 30  1  0
 10 31  1  0
 11 32  1  0
 12 33  1  0
 14 34  1  0
 19 35  1  0
 20 36  1  0
 22 37  1  0
 22 38  1  0
 23 39  1  0
 23 40  1  0
 23 41  1  0
M  END
>  <meeko>  (3) 
{"is_sidechain": [false], "free_energy": -6.726, "intermolecular_energy": -8.719, "internal_energy": 0.509}

$$$$
cand_039_out
     RDKit          3D

 41 43  0  0  0  0  0  0  0  0999 V2000
   46.3860   25.0900  -14.1010 C   0  0  0  0  0  0  0  0  0  0  0  0
   45.1460   24.3660  -13.5960 C   0  0  0  0  0  0  0  0  0  0  0  0
   43.8770   25.1120  -13.9390 C   0  0  0  0  0  0  0  0  0  0  0  0
   43.1810   24.7310  -15.1000 C   0  0  0  0  0  0  0  0  0  0  0  0
   41.9970   25.3710  -15.4740 C   0  0  0  0  0  0  0  0  0  0  0  0
   41.4750   26.4130  -14.7030 C   0  0  0  0  0  0  0  0  0  0  0  0
   40.2090   27.0650  -15.1030 C   0  0  0  0  0  0  0  0  0  0  0  0
   39.7800   26.6790  -16.3680 O   0  0  0  0  0  0  0  0  0  0  0  0
   38.6160   27.2090  -16.8650 C   0  0  0  0  0  0  0  0  0  0  0  0
   38.2160   26.7830  -18.1310 C   0  0  0  0  0  0  0  0  0  0  0  0
   37.0410   27.2860  -18.6950 C   0  0  0  0  0  0  0  0  0  0  0  0
   36.2680   28.2130  -17.9940 C   0  0  0  0  0  0  0  0  0  0  0  0
   36.6710   28.6370  -16.7310 C   0  0  0  0  0  0  0  0  0  0  0  0
   35.8680   29.5470  -16.0990 O   0  0  0  0  0  0  0  0  0  0  0  0
   37.8460   28.1330  -16.1650 C   0  0  0  0  0  0  0  0  0  0  0  0
   38.3050   28.5520  -14.8400 C   0  0  0  0  0  0  0  0  0  0  0  0
   37.6830   29.3700  -14.1650 O   0  0  0  0  0  0  0  0  0  0  0  0
   39.5590   27.9530  -14.3280 C   0  0  0  0  0  0  0  0  0  0  0  0
   39.9900   28.3660  -13.0820 O   0  0  0  0  0  0  0  0  0  0  0  0
   42.1580   26.7820  -13.5360 C   0  0  0  0  0  0  0  0  0  0  0  0
   43.3520   26.1440  -13.1380 C   0  0  0  0  0  0  0  0  0  0  0  0
   44.0270   26.6320  -11.8760 C   0  0  0  0  0  0  0  0  0  0  0  0
   45.0110   27.7590  -12.1580 C   0  0  0  0  0  0  0  0  0  0  0  0
   46.9819   25.4379  -13.2443 H   0  0  0  0  0  0  0  0  0  0  0  0
   46.9890   24.4020  -14.7118 H   0  0  0  0  0  0  0  0  0  0  0  0
   46.0833   25.9533  -14.7118 H   0  0  0  0  0  0  0  0  0  0  0  0
   45.1061   23.3671  -14.0550 H   0  0  0  0  0  0  0  0  0  0  0  0
   45.2147   24.2973  -12.5003 H   0  0  0  0  0  0  0  0  0  0  0  0
   43.5754   23.9155  -15.7240 H   0  0  0  0  0  0  0  0  0  0  0  0
   41.4700   25.0513  -16.3851 H   0  0  0  0  0  0  0  0  0  0  0  0
   38.8243   26.0525  -18.6845 H   0  0  0  0  0  0  0  0  0  0  0  0
   36.7243   26.9508  -19.6937 H   0  0  0  0  0  0  0  0  0  0  0  0
   35.3425   28.6075  -18.4387 H   0  0  0  0  0  0  0  0  0  0  0  0
   34.9390   29.5100  -16.2130 H   0  0  0  0  0  0  0  0  0  0  0  0
   40.9070   28.4220  -12.8980 H   0  0  0  0  0  0  0  0  0  0  0  0
   41.7516   27.5921  -12.9126 H   0  0  0  0  0  0  0  0  0  0  0  0
   43.2578   26.9974  -11.1797 H   0  0  0  0  0  0  0  0  0  0  0  0
   44.5873   25.7908  -11.4419 H   0  0  0  0  0  0  0  0  0  0  0  0
   45.3743   28.1751  -11.2068 H   0  0  0  0  0  0  0  0  0  0  0  0
   45.8614   27.3674  -12.7355 H   0  0  0  0  0  0  0  0  0  0  0  0
   44.5083   28.5488  -12.7355 H   0  0  0  0  0  0  0  0  0  0  0  0
  1  2  1  0
  2  3  1  0
  3  4  2  0
  4  5  1  0
  5  6  2  0
  6  7  1  0
  7  8  1  0
  8  9  1  0
  9 10  2  0
 10 11  1  0
 11 12  2  0
 12 13  1  0
 13 14  1  0
 13 15  2  0
 15 16  1  0
 16 17  2  0
 16 18  1  0
 18 19  1  0
  6 20  1  0
 20 21  2  0
 21 22  1  0
 22 23  1  0
 21  3  1  0
 18  7  2  0
 15  9  1  0
  1 24  1  0
  1 25  1  0
  1 26  1  0
  2 27  1  0
  2 28  1  0
  4 29  1  0
  5 30  1  0
 10 31  1  0
 11 32  1  0
 12 33  1  0
 14 34  1  0
 19 35  1  0
 20 36  1  0
 22 37  1  0
 22 38  1  0
 23 39  1  0
 23 40  1  0
 23 41  1  0
M  END
>  <meeko>  (4) 
{"is_sidechain": [false], "free_energy": -6.18, "intermolecular_energy": -7.562, "internal_energy": 0.026}

$$$$
cand_039_out
     RDKit          3D

 41 43  0  0  0  0  0  0  0  0999 V2000
   36.6420   26.6450  -19.7180 C   0  0  0  0  0  0  0  0  0  0  0  0
   36.5220   27.6960  -18.6230 C   0  0  0  0  0  0  0  0  0  0  0  0
   37.5640   27.5080  -17.5440 C   0  0  0  0  0  0  0  0  0  0  0  0
   38.6190   26.6140  -17.7940 C   0  0  0  0  0  0  0  0  0  0  0  0
   39.6220   26.3970  -16.8460 C   0  0  0  0  0  0  0  0  0  0  0  0
   39.5990   27.0640  -15.6180 C   0  0  0  0  0  0  0  0  0  0  0  0
   40.6810   26.8380  -14.6350 C   0  0  0  0  0  0  0  0  0  0  0  0
   41.7940   26.2200  -15.1910 O   0  0  0  0  0  0  0  0  0  0  0  0
   42.8740   25.9500  -14.3890 C   0  0  0  0  0  0  0  0  0  0  0  0
   43.9760   25.3440  -14.9920 C   0  0  0  0  0  0  0  0  0  0  0  0
   45.1070   25.0400  -14.2300 C   0  0  0  0  0  0  0  0  0  0  0  0
   45.1350   25.3430  -12.8680 C   0  0  0  0  0  0  0  0  0  0  0  0
   44.0340   25.9480  -12.2690 C   0  0  0  0  0  0  0  0  0  0  0  0
   44.1290   26.2170  -10.9310 O   0  0  0  0  0  0  0  0  0  0  0  0
   42.9030   26.2530  -13.0310 C   0  0  0  0  0  0  0  0  0  0  0  0
   41.7240   26.8890  -12.4410 C   0  0  0  0  0  0  0  0  0  0  0  0
   41.6710   27.1790  -11.2470 O   0  0  0  0  0  0  0  0  0  0  0  0
   40.5800   27.1770  -13.3360 C   0  0  0  0  0  0  0  0  0  0  0  0
   39.4670   27.7650  -12.7650 O   0  0  0  0  0  0  0  0  0  0  0  0
   38.5580   27.9700  -15.3750 C   0  0  0  0  0  0  0  0  0  0  0  0
   37.5400   28.2070  -16.3210 C   0  0  0  0  0  0  0  0  0  0  0  0
   36.4460   29.1860  -15.9540 C   0  0  0  0  0  0  0  0  0  0  0  0
   36.4660   29.5280  -14.4710 C   0  0  0  0  0  0  0  0  0  0  0  0
   36.7555   25.6508  -19.2611 H   0  0  0  0  0  0  0  0  0  0  0  0
   35.7362   26.6605  -20.3420 H   0  0  0  0  0  0  0  0  0  0  0  0
   37.5209   26.8643  -20.3420 H   0  0  0  0  0  0  0  0  0  0  0  0
   36.6499   28.6924  -19.0710 H   0  0  0  0  0  0  0  0  0  0  0  0
   35.5295   27.5937  -18.1598 H   0  0  0  0  0  0  0  0  0  0  0  0
   38.6557   26.0758  -18.7526 H   0  0  0  0  0  0  0  0  0  0  0  0
   40.4382   25.6939  -17.0684 H   0  0  0  0  0  0  0  0  0  0  0  0
   43.9548   25.1058  -16.0657 H   0  0  0  0  0  0  0  0  0  0  0  0
   45.9764   24.5612  -14.7042 H   0  0  0  0  0  0  0  0  0  0  0  0
   46.0260   25.1040  -12.2688 H   0  0  0  0  0  0  0  0  0  0  0  0
   43.4220   26.6440  -10.4880 H   0  0  0  0  0  0  0  0  0  0  0  0
   38.6450   27.3160  -12.7710 H   0  0  0  0  0  0  0  0  0  0  0  0
   38.5344   28.5121  -14.4182 H   0  0  0  0  0  0  0  0  0  0  0  0
   36.5860   30.1100  -16.5342 H   0  0  0  0  0  0  0  0  0  0  0  0
   35.4776   28.7174  -16.1833 H   0  0  0  0  0  0  0  0  0  0  0  0
   36.4118   28.6016  -13.8803 H   0  0  0  0  0  0  0  0  0  0  0  0
   37.3969   30.0623  -14.2305 H   0  0  0  0  0  0  0  0  0  0  0  0
   35.6037   30.1672  -14.2305 H   0  0  0  0  0  0  0  0  0  0  0  0
  1  2  1  0
  2  3  1  0
  3  4  2  0
  4  5  1  0
  5  6  2  0
  6  7  1  0
  7  8  1  0
  8  9  1  0
  9 10  2  0
 10 11  1  0
 11 12  2  0
 12 13  1  0
 13 14  1  0
 13 15  2  0
 15 16  1  0
 16 17  2  0
 16 18  1  0
 18 19  1  0
  6 20  1  0
 20 21  2  0
 21 22  1  0
 22 23  1  0
 21  3  1  0
 18  7  2  0
 15  9  1  0
  1 24  1  0
  1 25  1  0
  1 26  1  0
  2 27  1  0
  2 28  1  0
  4 29  1  0
  5 30  1  0
 10 31  1  0
 11 32  1  0
 12 33  1  0
 14 34  1  0
 19 35  1  0
 20 36  1  0
 22 37  1  0
 22 38  1  0
 23 39  1  0
 23 40  1  0
 23 41  1  0
M  END
>  <meeko>  (5) 
{"is_sidechain": [false], "free_energy": -5.377, "intermolecular_energy": -6.492, "internal_energy": -0.053}

$$$$
cand_039_out
     RDKit          3D

 41 43  0  0  0  0  0  0  0  0999 V2000
   36.0870   30.2310  -18.0470 C   0  0  0  0  0  0  0  0  0  0  0  0
   35.7430   29.1610  -17.0200 C   0  0  0  0  0  0  0  0  0  0  0  0
   36.9710   28.6510  -16.3030 C   0  0  0  0  0  0  0  0  0  0  0  0
   37.3240   29.2560  -15.0850 C   0  0  0  0  0  0  0  0  0  0  0  0
   38.4420   28.8300  -14.3640 C   0  0  0  0  0  0  0  0  0  0  0  0
   39.2440   27.7900  -14.8400 C   0  0  0  0  0  0  0  0  0  0  0  0
   40.4110   27.3380  -14.0520 C   0  0  0  0  0  0  0  0  0  0  0  0
   41.4090   26.7770  -14.8400 O   0  0  0  0  0  0  0  0  0  0  0  0
   42.5510   26.3160  -14.2360 C   0  0  0  0  0  0  0  0  0  0  0  0
   43.5330   25.7760  -15.0660 C   0  0  0  0  0  0  0  0  0  0  0  0
   44.7200   25.2860  -14.5140 C   0  0  0  0  0  0  0  0  0  0  0  0
   44.9220   25.3360  -13.1330 C   0  0  0  0  0  0  0  0  0  0  0  0
   43.9400   25.8760  -12.3070 C   0  0  0  0  0  0  0  0  0  0  0  0
   44.2030   25.8950  -10.9650 O   0  0  0  0  0  0  0  0  0  0  0  0
   42.7540   26.3670  -12.8600 C   0  0  0  0  0  0  0  0  0  0  0  0
   41.6970   26.9420  -12.0280 C   0  0  0  0  0  0  0  0  0  0  0  0
   41.7980   27.0150  -10.8050 O   0  0  0  0  0  0  0  0  0  0  0  0
   40.4810   27.4420  -12.7120 C   0  0  0  0  0  0  0  0  0  0  0  0
   39.4840   27.9700  -11.9150 O   0  0  0  0  0  0  0  0  0  0  0  0
   38.8830   27.1730  -16.0450 C   0  0  0  0  0  0  0  0  0  0  0  0
   37.7550   27.5840  -16.7850 C   0  0  0  0  0  0  0  0  0  0  0  0
   37.4640   26.8700  -18.0870 C   0  0  0  0  0  0  0  0  0  0  0  0
   38.6920   26.8030  -18.9830 C   0  0  0  0  0  0  0  0  0  0  0  0
   36.3840   31.1547  -17.5287 H   0  0  0  0  0  0  0  0  0  0  0  0
   36.9178   29.8808  -18.6771 H   0  0  0  0  0  0  0  0  0  0  0  0
   35.2077   30.4306  -18.6771 H   0  0  0  0  0  0  0  0  0  0  0  0
   35.0510   29.5886  -16.2795 H   0  0  0  0  0  0  0  0  0  0  0  0
   35.2830   28.3147  -17.5513 H   0  0  0  0  0  0  0  0  0  0  0  0
   36.7093   30.0794  -14.6924 H   0  0  0  0  0  0  0  0  0  0  0  0
   38.6936   29.3187  -13.4112 H   0  0  0  0  0  0  0  0  0  0  0  0
   43.3737   25.7357  -16.1537 H   0  0  0  0  0  0  0  0  0  0  0  0
   45.4956   24.8607  -15.1678 H   0  0  0  0  0  0  0  0  0  0  0  0
   45.8556   24.9493  -12.6985 H   0  0  0  0  0  0  0  0  0  0  0  0
   45.0780   26.0380  -10.6610 H   0  0  0  0  0  0  0  0  0  0  0  0
   39.2970   27.5860  -11.0800 H   0  0  0  0  0  0  0  0  0  0  0  0
   39.4975   26.3436  -16.4251 H   0  0  0  0  0  0  0  0  0  0  0  0
   37.1298   25.8460  -17.8642 H   0  0  0  0  0  0  0  0  0  0  0  0
   36.6838   27.4344  -18.6188 H   0  0  0  0  0  0  0  0  0  0  0  0
   39.5977   26.7536  -18.3607 H   0  0  0  0  0  0  0  0  0  0  0  0
   38.6341   25.9067  -19.6180 H   0  0  0  0  0  0  0  0  0  0  0  0
   38.7320   27.7003  -19.6180 H   0  0  0  0  0  0  0  0  0  0  0  0
  1  2  1  0
  2  3  1  0
  3  4  2  0
  4  5  1  0
  5  6  2  0
  6  7  1  0
  7  8  1  0
  8  9  1  0
  9 10  2  0
 10 11  1  0
 11 12  2  0
 12 13  1  0
 13 14  1  0
 13 15  2  0
 15 16  1  0
 16 17  2  0
 16 18  1  0
 18 19  1  0
  6 20  1  0
 20 21  2  0
 21 22  1  0
 22 23  1  0
 21  3  1  0
 18  7  2  0
 15  9  1  0
  1 24  1  0
  1 25  1  0
  1 26  1  0
  2 27  1  0
  2 28  1  0
  4 29  1  0
  5 30  1  0
 10 31  1  0
 11 32  1  0
 12 33  1  0
 14 34  1  0
 19 35  1  0
 20 36  1  0
 22 37  1  0
 22 38  1  0
 23 39  1  0
 23 40  1  0
 23 41  1  0
M  END
>  <meeko>  (6) 
{"is_sidechain": [false], "free_energy": -5.029, "intermolecular_energy": -6.0, "internal_energy": -0.117}

$$$$
cand_039_out
     RDKit          3D

 41 43  0  0  0  0  0  0  0  0999 V2000
   46.0470   26.8730  -12.0770 C   0  0  0  0  0  0  0  0  0  0  0  0
   44.8890   25.9200  -11.8140 C   0  0  0  0  0  0  0  0  0  0  0  0
   43.7410   26.1490  -12.7700 C   0  0  0  0  0  0  0  0  0  0  0  0
   42.7440   27.0670  -12.3970 C   0  0  0  0  0  0  0  0  0  0  0  0
   41.6590   27.3340  -13.2340 C   0  0  0  0  0  0  0  0  0  0  0  0
   41.5330   26.6890  -14.4680 C   0  0  0  0  0  0  0  0  0  0  0  0
   40.3880   27.0010  -15.3500 C   0  0  0  0  0  0  0  0  0  0  0  0
   39.4440   27.8180  -14.7400 O   0  0  0  0  0  0  0  0  0  0  0  0
   38.3280   28.1860  -15.4480 C   0  0  0  0  0  0  0  0  0  0  0  0
   37.4140   29.0190  -14.8030 C   0  0  0  0  0  0  0  0  0  0  0  0
   36.2550   29.4290  -15.4670 C   0  0  0  0  0  0  0  0  0  0  0  0
   36.0110   29.0040  -16.7750 C   0  0  0  0  0  0  0  0  0  0  0  0
   36.9240   28.1730  -17.4160 C   0  0  0  0  0  0  0  0  0  0  0  0
   36.6240   27.7950  -18.6960 O   0  0  0  0  0  0  0  0  0  0  0  0
   38.0850   27.7640  -16.7520 C   0  0  0  0  0  0  0  0  0  0  0  0
   39.0700   26.8900  -17.3890 C   0  0  0  0  0  0  0  0  0  0  0  0
   38.9220   26.4700  -18.5350 O   0  0  0  0  0  0  0  0  0  0  0  0
   40.2690   26.5210  -16.6020 C   0  0  0  0  0  0  0  0  0  0  0  0
   41.1870   25.6850  -17.2090 O   0  0  0  0  0  0  0  0  0  0  0  0
   42.5360   25.7870  -14.8490 C   0  0  0  0  0  0  0  0  0  0  0  0
   43.6430   25.5080  -14.0210 C   0  0  0  0  0  0  0  0  0  0  0  0
   44.6570   24.5000  -14.5120 C   0  0  0  0  0  0  0  0  0  0  0  0
   46.0640   25.0800  -14.5420 C   0  0  0  0  0  0  0  0  0  0  0  0
   46.4642   27.2163  -11.1188 H   0  0  0  0  0  0  0  0  0  0  0  0
   46.8274   26.3521  -12.6511 H   0  0  0  0  0  0  0  0  0  0  0  0
   45.6860   27.7391  -12.6511 H   0  0  0  0  0  0  0  0  0  0  0  0
   45.2464   24.8861  -11.9290 H   0  0  0  0  0  0  0  0  0  0  0  0
   44.5232   26.1024  -10.7928 H   0  0  0  0  0  0  0  0  0  0  0  0
   42.8200   27.5839  -11.4290 H   0  0  0  0  0  0  0  0  0  0  0  0
   40.8948   28.0599  -12.9191 H   0  0  0  0  0  0  0  0  0  0  0  0
   37.6054   29.3529  -13.7725 H   0  0  0  0  0  0  0  0  0  0  0  0
   35.5343   30.0869  -14.9593 H   0  0  0  0  0  0  0  0  0  0  0  0
   35.0981   29.3260  -17.2975 H   0  0  0  0  0  0  0  0  0  0  0  0
   36.0230   27.0920  -18.8480 H   0  0  0  0  0  0  0  0  0  0  0  0
   41.2000   24.7720  -16.9990 H   0  0  0  0  0  0  0  0  0  0  0  0
   42.4573   25.2817  -15.8229 H   0  0  0  0  0  0  0  0  0  0  0  0
   44.6457   23.6283  -13.8411 H   0  0  0  0  0  0  0  0  0  0  0  0
   44.3840   24.2135  -15.5384 H   0  0  0  0  0  0  0  0  0  0  0  0
   46.4218   25.2275  -13.5123 H   0  0  0  0  0  0  0  0  0  0  0  0
   46.7358   24.3855  -15.0677 H   0  0  0  0  0  0  0  0  0  0  0  0
   46.0512   26.0462  -15.0677 H   0  0  0  0  0  0  0  0  0  0  0  0
  1  2  1  0
  2  3  1  0
  3  4  2  0
  4  5  1  0
  5  6  2  0
  6  7  1  0
  7  8  1  0
  8  9  1  0
  9 10  2  0
 10 11  1  0
 11 12  2  0
 12 13  1  0
 13 14  1  0
 13 15  2  0
 15 16  1  0
 16 17  2  0
 16 18  1  0
 18 19  1  0
  6 20  1  0
 20 21  2  0
 21 22  1  0
 22 23  1  0
 21  3  1  0
 18  7  2  0
 15  9  1  0
  1 24  1  0
  1 25  1  0
  1 26  1  0
  2 27  1  0
  2 28  1  0
  4 29  1  0
  5 30  1  0
 10 31  1  0
 11 32  1  0
 12 33  1  0
 14 34  1  0
 19 35  1  0
 20 36  1  0
 22 37  1  0
 22 38  1  0
 23 39  1  0
 23 40  1  0
 23 41  1  0
M  END
>  <meeko>  (7) 
{"is_sidechain": [false], "free_energy": -4.76, "intermolecular_energy": -6.704, "internal_energy": 0.92}

$$$$
cand_039_out
     RDKit          3D

 41 43  0  0  0  0  0  0  0  0999 V2000
   46.0230   26.6900  -12.2740 C   0  0  0  0  0  0  0  0  0  0  0  0
   44.8460   25.7810  -11.9510 C   0  0  0  0  0  0  0  0  0  0  0  0
   43.5970   26.1870  -12.6970 C   0  0  0  0  0  0  0  0  0  0  0  0
   42.6390   26.9550  -12.0130 C   0  0  0  0  0  0  0  0  0  0  0  0
   41.4640   27.3720  -12.6430 C   0  0  0  0  0  0  0  0  0  0  0  0
   41.2080   27.0310  -13.9740 C   0  0  0  0  0  0  0  0  0  0  0  0
   39.9690   27.5000  -14.6310 C   0  0  0  0  0  0  0  0  0  0  0  0
   39.7790   26.9390  -15.8890 O   0  0  0  0  0  0  0  0  0  0  0  0
   38.6660   27.2880  -16.6100 C   0  0  0  0  0  0  0  0  0  0  0  0
   38.5070   26.6890  -17.8600 C   0  0  0  0  0  0  0  0  0  0  0  0
   37.3960   27.0030  -18.6470 C   0  0  0  0  0  0  0  0  0  0  0  0
   36.4460   27.9150  -18.1840 C   0  0  0  0  0  0  0  0  0  0  0  0
   36.6070   28.5110  -16.9360 C   0  0  0  0  0  0  0  0  0  0  0  0
   35.6390   29.3950  -16.5440 O   0  0  0  0  0  0  0  0  0  0  0  0
   37.7180   28.1960  -16.1480 C   0  0  0  0  0  0  0  0  0  0  0  0
   37.9250   28.8000  -14.8320 C   0  0  0  0  0  0  0  0  0  0  0  0
   37.1370   29.6170  -14.3590 O   0  0  0  0  0  0  0  0  0  0  0  0
   39.1310   28.3940  -14.0740 C   0  0  0  0  0  0  0  0  0  0  0  0
   39.3230   28.9810  -12.8370 O   0  0  0  0  0  0  0  0  0  0  0  0
   42.1710   26.2800  -14.6630 C   0  0  0  0  0  0  0  0  0  0  0  0
   43.3660   25.8550  -14.0470 C   0  0  0  0  0  0  0  0  0  0  0  0
   44.3290   25.0280  -14.8680 C   0  0  0  0  0  0  0  0  0  0  0  0
   45.2590   24.2010  -13.9910 C   0  0  0  0  0  0  0  0  0  0  0  0
   46.4808   27.0436  -11.3384 H   0  0  0  0  0  0  0  0  0  0  0  0
   46.7685   26.1309  -12.8586 H   0  0  0  0  0  0  0  0  0  0  0  0
   45.6705   27.5526  -12.8586 H   0  0  0  0  0  0  0  0  0  0  0  0
   45.1068   24.7494  -12.2299 H   0  0  0  0  0  0  0  0  0  0  0  0
   44.6398   25.8615  -10.8735 H   0  0  0  0  0  0  0  0  0  0  0  0
   42.8175   27.2324  -10.9636 H   0  0  0  0  0  0  0  0  0  0  0  0
   40.7324   27.9752  -12.0855 H   0  0  0  0  0  0  0  0  0  0  0  0
   39.2554   25.9704  -18.2255 H   0  0  0  0  0  0  0  0  0  0  0  0
   37.2698   26.5310  -19.6325 H   0  0  0  0  0  0  0  0  0  0  0  0
   35.5717   28.1624  -18.8040 H   0  0  0  0  0  0  0  0  0  0  0  0
   34.7640   29.0950  -16.3950 H   0  0  0  0  0  0  0  0  0  0  0  0
   39.7180   28.4910  -12.1420 H   0  0  0  0  0  0  0  0  0  0  0  0
   41.9889   26.0146  -15.7149 H   0  0  0  0  0  0  0  0  0  0  0  0
   43.7531   24.3494  -15.5144 H   0  0  0  0  0  0  0  0  0  0  0  0
   44.9460   25.7161  -15.4645 H   0  0  0  0  0  0  0  0  0  0  0  0
   45.0366   24.3988  -12.9320 H   0  0  0  0  0  0  0  0  0  0  0  0
   45.1094   23.1322  -14.2037 H   0  0  0  0  0  0  0  0  0  0  0  0
   46.3030   24.4745  -14.2037 H   0  0  0  0  0  0  0  0  0  0  0  0
  1  2  1  0
  2  3  1  0
  3  4  2  0
  4  5  1  0
  5  6  2  0
  6  7  1  0
  7  8  1  0
  8  9  1  0
  9 10  2  0
 10 11  1  0
 11 12  2  0
 12 13  1  0
 13 14  1  0
 13 15  2  0
 15 16  1  0
 16 17  2  0
 16 18  1  0
 18 19  1  0
  6 20  1  0
 20 21  2  0
 21 22  1  0
 22 23  1  0
 21  3  1  0
 18  7  2  0
 15  9  1  0
  1 24  1  0
  1 25  1  0
  1 26  1  0
  2 27  1  0
  2 28  1  0
  4 29  1  0
  5 30  1  0
 10 31  1  0
 11 32  1  0
 12 33  1  0
 14 34  1  0
 19 35  1  0
 20 36  1  0
 22 37  1  0
 22 38  1  0
 23 39  1  0
 23 40  1  0
 23 41  1  0
M  END
>  <meeko>  (8) 
{"is_sidechain": [false], "free_energy": -4.698, "intermolecular_energy": -7.404, "internal_energy": 1.697}

$$$$
