cand_025_out
     RDKit          3D

 53 56  0  0  0  0  0  0  0  0999 V2000
   41.0590   26.9220  -11.1090 C   0  0  0  0  0  0  0  0  0  0  0  0
   42.3370   26.9170  -11.9340 C   0  0  0  0  0  0  0  0  0  0  0  0
   42.0610   26.6900  -13.4040 C   0  0  0  0  0  0  0  0  0  0  0  0
   40.8580   27.1820  -13.9500 C   0  0  0  0  0  0  0  0  0  0  0  0
   40.5360   26.9990  -15.3000 C   0  0  0  0  0  0  0  0  0  0  0  0
   39.2650   27.4900  -15.8720 C   0  0  0  0  0  0  0  0  0  0  0  0
   38.9660   26.9120  -17.1010 O   0  0  0  0  0  0  0  0  0  0  0  0
   37.8110   27.2780  -17.7440 C   0  0  0  0  0  0  0  0  0  0  0  0
   37.5430   26.6610  -18.9650 C   0  0  0  0  0  0  0  0  0  0  0  0
   36.3840   26.9900  -19.6730 C   0  0  0  0  0  0  0  0  0  0  0  0
   35.4960   27.9360  -19.1580 C   0  0  0  0  0  0  0  0  0  0  0  0
   35.7650   28.5500  -17.9380 C   0  0  0  0  0  0  0  0  0  0  0  0
   34.8530   29.4670  -17.4930 O   0  0  0  0  0  0  0  0  0  0  0  0
   36.9240   28.2200  -17.2310 C   0  0  0  0  0  0  0  0  0  0  0  0
   37.2450   28.8420  -15.9450 C   0  0  0  0  0  0  0  0  0  0  0  0
   36.5160   29.6870  -15.4310 O   0  0  0  0  0  0  0  0  0  0  0  0
   38.4940   28.4170  -15.2710 C   0  0  0  0  0  0  0  0  0  0  0  0
   38.7940   29.0190  -14.0650 O   0  0  0  0  0  0  0  0  0  0  0  0
   41.4360   26.2930  -16.1050 C   0  0  0  0  0  0  0  0  0  0  0  0
   42.6290   25.7930  -15.5750 C   0  0  0  0  0  0  0  0  0  0  0  0
   42.9590   25.9760  -14.2230 C   0  0  0  0  0  0  0  0  0  0  0  0
   44.1570   25.4840  -13.6710 N   0  0  0  0  0  0  0  0  0  0  0  0
   44.5800   24.1720  -14.2060 C   0  0  0  0  0  0  0  0  0  0  0  0
   45.8240   23.6710  -13.4350 C   0  0  0  0  0  0  0  0  0  0  0  0
   46.9510   24.6310  -13.4950 N   0  0  0  0  0  0  0  0  0  0  0  0
   48.0840   24.1450  -12.7100 C   0  0  0  0  0  0  0  0  0  0  0  0
   46.4940   25.9480  -12.9890 C   0  0  0  0  0  0  0  0  0  0  0  0
   45.2510   26.4790  -13.7430 C   0  0  0  0  0  0  0  0  0  0  0  0
   41.3134   26.9210  -10.0388 H   0  0  0  0  0  0  0  0  0  0  0  0
   40.4732   27.8224  -11.3458 H   0  0  0  0  0  0  0  0  0  0  0  0
   40.4662   26.0262  -11.3458 H   0  0  0  0  0  0  0  0  0  0  0  0
   42.8418   27.8868  -11.8129 H   0  0  0  0  0  0  0  0  0  0  0  0
   42.9699   26.0919  -11.5755 H   0  0  0  0  0  0  0  0  0  0  0  0
   40.1551   27.7229  -13.2993 H   0  0  0  0  0  0  0  0  0  0  0  0
   38.2432   25.9159  -19.3707 H   0  0  0  0  0  0  0  0  0  0  0  0
   36.1714   26.5034  -20.6363 H   0  0  0  0  0  0  0  0  0  0  0  0
   34.5843   28.1961  -19.7159 H   0  0  0  0  0  0  0  0  0  0  0  0
   34.2370   29.8440  -18.0910 H   0  0  0  0  0  0  0  0  0  0  0  0
   39.6870   29.1360  -13.8070 H   0  0  0  0  0  0  0  0  0  0  0  0
   41.2023   26.1293  -17.1674 H   0  0  0  0  0  0  0  0  0  0  0  0
   43.3226   25.2455  -16.2301 H   0  0  0  0  0  0  0  0  0  0  0  0
   43.7606   23.4477  -14.0882 H   0  0  0  0  0  0  0  0  0  0  0  0
   44.8300   24.2768  -15.2721 H   0  0  0  0  0  0  0  0  0  0  0  0
   45.5478   23.5160  -12.3816 H   0  0  0  0  0  0  0  0  0  0  0  0
   46.1560   22.7345  -13.9070 H   0  0  0  0  0  0  0  0  0  0  0  0
   47.2600   24.7290  -14.4620 H   0  0  0  0  0  0  0  0  0  0  0  0
   47.8563   24.2427  -11.6383 H   0  0  0  0  0  0  0  0  0  0  0  0
   48.2701   23.0879  -12.9505 H   0  0  0  0  0  0  0  0  0  0  0  0
   48.9783   24.7387  -12.9505 H   0  0  0  0  0  0  0  0  0  0  0  0
   46.2425   25.8474  -11.9229 H   0  0  0  0  0  0  0  0  0  0  0  0
   47.3113   26.6668  -13.1481 H   0  0  0  0  0  0  0  0  0  0  0  0
   44.9189   27.4207  -13.2817 H   0  0  0  0  0  0  0  0  0  0  0  0
   45.5133   26.6544  -14.7968 H   0  0  0  0  0  0  0  0  0  0  0  0
  1  2  1  0
  2  3  1  0
  3  4  2  0
  4  5  1  0
  5  6  1  0
  6  7  1  0
  7  8  1  0
  8  9  2  0
  9 10  1  0
 10 11  2  0
 11 12  1  0
 12 13  1  0
 12 14  2  0
 14 15  1  0
 15 16  2  0
 15 17  1  0
 17 18  1  0
  5 19  2  0
 19 20  1  0
 20 21  2  0
 21 22  1  0
 22 23  1  0
 23 24  1  0
 24 25  1  0
 25 26  1  0
 25 27  1  0
 27 28  1  0
 21  3  1  0
 28 22  1  0
 17  6  2  0
 14  8  1  0
  1 29  1  0
  1 30  1  0
  1 31  1  0
  2 32  1  0
  2 33  1  0
  4 34  1  0
  9 35  1  0
 10 36  1  0
 11 37  1  0
 13 38  1  0
 18 39  1  0
 19 40  1  0
 20 41  1  0
 23 42  1  0
 23 43  1  0
 24 44  1  0
 24 45  1  0
 25 46  1  0
 26 47  1  0
 26 48  1  0
 26 49  1  0
 27 50  1  0
 27 51  1  0
 28 52  1  0
 28 53  1  0
M  CHG  1  25   1
M  END
>  <meeko>  (1) 
{"is_sidechain": [false], "free_energy": -0.785, "intermolecular_energy": -0.968, "internal_energy": -0.023}

$$$$
cand_025_out
     RDKit          3D

 53 56  0  0  0  0  0  0  0  0999 V2000
   39.5880   28.5790  -12.5400 C   0  0  0  0  0  0  0  0  0  0  0  0
   38.8430   28.2190  -13.8160 C   0  0  0  0  0  0  0  0  0  0  0  0
   39.7050   27.4220  -14.7690 C   0  0  0  0  0  0  0  0  0  0  0  0
   40.9560   26.9530  -14.3180 C   0  0  0  0  0  0  0  0  0  0  0  0
   41.8070   26.2170  -15.1510 C   0  0  0  0  0  0  0  0  0  0  0  0
   43.1300   25.7440  -14.6930 C   0  0  0  0  0  0  0  0  0  0  0  0
   44.1060   26.7320  -14.7490 O   0  0  0  0  0  0  0  0  0  0  0  0
   45.3830   26.4280  -14.3510 C   0  0  0  0  0  0  0  0  0  0  0  0
   46.3260   27.4540  -14.4090 C   0  0  0  0  0  0  0  0  0  0  0  0
   47.6460   27.2100  -14.0190 C   0  0  0  0  0  0  0  0  0  0  0  0
   48.0190   25.9420  -13.5710 C   0  0  0  0  0  0  0  0  0  0  0  0
   47.0760   24.9200  -13.5140 C   0  0  0  0  0  0  0  0  0  0  0  0
   47.5100   23.7020  -13.0660 O   0  0  0  0  0  0  0  0  0  0  0  0
   45.7560   25.1640  -13.9030 C   0  0  0  0  0  0  0  0  0  0  0  0
   44.7330   24.1180  -13.8580 C   0  0  0  0  0  0  0  0  0  0  0  0
   44.9870   22.9760  -13.4830 O   0  0  0  0  0  0  0  0  0  0  0  0
   43.3620   24.4820  -14.2860 C   0  0  0  0  0  0  0  0  0  0  0  0
   42.4080   23.4830  -14.2510 O   0  0  0  0  0  0  0  0  0  0  0  0
   41.3950   25.9680  -16.4650 C   0  0  0  0  0  0  0  0  0  0  0  0
   40.1600   26.4330  -16.9270 C   0  0  0  0  0  0  0  0  0  0  0  0
   39.3020   27.1690  -16.0960 C   0  0  0  0  0  0  0  0  0  0  0  0
   38.0520   27.6430  -16.5410 N   0  0  0  0  0  0  0  0  0  0  0  0
   37.7750   29.0510  -16.1840 C   0  0  0  0  0  0  0  0  0  0  0  0
   36.3300   29.4190  -16.6000 C   0  0  0  0  0  0  0  0  0  0  0  0
   36.0850   29.2020  -18.0460 N   0  0  0  0  0  0  0  0  0  0  0  0
   34.6970   29.5090  -18.3840 C   0  0  0  0  0  0  0  0  0  0  0  0
   36.4060   27.7950  -18.3870 C   0  0  0  0  0  0  0  0  0  0  0  0
   37.8460   27.3960  -17.9860 C   0  0  0  0  0  0  0  0  0  0  0  0
   38.9841   28.2872  -11.6681 H   0  0  0  0  0  0  0  0  0  0  0  0
   40.5501   28.0464  -12.5145 H   0  0  0  0  0  0  0  0  0  0  0  0
   39.7686   29.6638  -12.5145 H   0  0  0  0  0  0  0  0  0  0  0  0
   37.9574   27.6215  -13.5537 H   0  0  0  0  0  0  0  0  0  0  0  0
   38.5568   29.1549  -14.3182 H   0  0  0  0  0  0  0  0  0  0  0  0
   41.2708   27.1707  -13.2867 H   0  0  0  0  0  0  0  0  0  0  0  0
   46.0315   28.4536  -14.7611 H   0  0  0  0  0  0  0  0  0  0  0  0
   48.3911   28.0179  -14.0652 H   0  0  0  0  0  0  0  0  0  0  0  0
   49.0575   25.7505  -13.2632 H   0  0  0  0  0  0  0  0  0  0  0  0
   47.4670   22.9540  -13.6290 H   0  0  0  0  0  0  0  0  0  0  0  0
   42.1060   23.1510  -13.4290 H   0  0  0  0  0  0  0  0  0  0  0  0
   42.0501   25.4001  -17.1420 H   0  0  0  0  0  0  0  0  0  0  0  0
   39.8553   26.2177  -17.9618 H   0  0  0  0  0  0  0  0  0  0  0  0
   37.8875   29.1819  -15.0976 H   0  0  0  0  0  0  0  0  0  0  0  0
   38.4843   29.7070  -16.7100 H   0  0  0  0  0  0  0  0  0  0  0  0
   35.6279   28.7969  -16.0256 H   0  0  0  0  0  0  0  0  0  0  0  0
   36.1837   30.4892  -16.3922 H   0  0  0  0  0  0  0  0  0  0  0  0
   36.6840   29.8260  -18.5870 H   0  0  0  0  0  0  0  0  0  0  0  0
   34.1145   29.6378  -17.4599 H   0  0  0  0  0  0  0  0  0  0  0  0
   34.6598   30.4371  -18.9733 H   0  0  0  0  0  0  0  0  0  0  0  0
   34.2718   28.6832  -18.9733 H   0  0  0  0  0  0  0  0  0  0  0  0
   35.6992   27.1358  -17.8618 H   0  0  0  0  0  0  0  0  0  0  0  0
   36.3249   27.6915  -19.4791 H   0  0  0  0  0  0  0  0  0  0  0  0
   38.0017   26.3282  -18.1996 H   0  0  0  0  0  0  0  0  0  0  0  0
   38.5632   27.9984  -18.5628 H   0  0  0  0  0  0  0  0  0  0  0  0
  1  2  1  0
  2  3  1  0
  3  4  2  0
  4  5  1  0
  5  6  1  0
  6  7  1  0
  7  8  1  0
  8  9  2  0
  9 10  1  0
 10 11  2  0
 11 12  1  0
 12 13  1  0
 12 14  2  0
 14 15  1  0
 15 16  2  0
 15 17  1  0
 17 18  1  0
  5 19  2  0
 19 20  1  0
 20 21  2  0
 21 22  1  0
 22 23  1  0
 23 24  1  0
 24 25  1  0
 25 26  1  0
 25 27  1  0
 27 28  1  0
 21  3  1  0
 28 22  1  0
 17  6  2  0
 14  8  1  0
  1 29  1  0
  1 30  1  0
  1 31  1  0
  2 32  1  0
  2 33  1  0
  4 34  1  0
  9 35  1  0
 10 36  1  0
 11 37  1  0
 13 38  1  0
 18 39  1  0
 19 40  1  0
 20 41  1  0
 23 42  1  0
 23 43  1  0
 24 44  1  0
 24 45  1  0
 25 46  1  0
 26 47  1  0
 26 48  1  0
 26 49  1  0
 27 50  1  0
 27 51  1  0
 28 52  1  0
 28 53  1  0
M  CHG  1  25   1
M  END
>  <meeko>  (2) 
{"is_sidechain": [false], "free_energy": 0.518, "intermolecular_energy": 0.392, "internal_energy": 0.224}

$$$$
cand_025_out
     RDKit          3D

 53 56  0  0  0  0  0  0  0  0999 V2000
   40.3320   27.1950  -11.8820 C   0  0  0  0  0  0  0  0  0  0  0  0
   41.7230   26.8970  -12.4220 C   0  0  0  0  0  0  0  0  0  0  0  0
   41.7000   26.5810  -13.9010 C   0  0  0  0  0  0  0  0  0  0  0  0
   40.5530   26.9190  -14.6470 C   0  0  0  0  0  0  0  0  0  0  0  0
   40.4630   26.6480  -16.0170 C   0  0  0  0  0  0  0  0  0  0  0  0
   39.2530   26.9760  -16.8000 C   0  0  0  0  0  0  0  0  0  0  0  0
   38.5170   28.0170  -16.2450 O   0  0  0  0  0  0  0  0  0  0  0  0
   37.3680   28.4260  -16.8730 C   0  0  0  0  0  0  0  0  0  0  0  0
   36.6700   29.4840  -16.2910 C   0  0  0  0  0  0  0  0  0  0  0  0
   35.4900   29.9480  -16.8780 C   0  0  0  0  0  0  0  0  0  0  0  0
   35.0100   29.3530  -18.0470 C   0  0  0  0  0  0  0  0  0  0  0  0
   35.7090   28.2970  -18.6260 C   0  0  0  0  0  0  0  0  0  0  0  0
   35.1830   27.7610  -19.7690 O   0  0  0  0  0  0  0  0  0  0  0  0
   36.8890   27.8340  -18.0380 C   0  0  0  0  0  0  0  0  0  0  0  0
   37.6550   26.7270  -18.6140 C   0  0  0  0  0  0  0  0  0  0  0  0
   37.2920   26.1490  -19.6370 O   0  0  0  0  0  0  0  0  0  0  0  0
   38.8960   26.3170  -17.9180 C   0  0  0  0  0  0  0  0  0  0  0  0
   39.6030   25.2630  -18.4640 O   0  0  0  0  0  0  0  0  0  0  0  0
   41.5410   26.0080  -16.6370 C   0  0  0  0  0  0  0  0  0  0  0  0
   42.6830   25.6600  -15.9070 C   0  0  0  0  0  0  0  0  0  0  0  0
   42.7800   25.9330  -14.5340 C   0  0  0  0  0  0  0  0  0  0  0  0
   43.9210   25.5950  -13.7830 N   0  0  0  0  0  0  0  0  0  0  0  0
   44.5770   24.3380  -14.2050 C   0  0  0  0  0  0  0  0  0  0  0  0
   45.7290   23.9980  -13.2290 C   0  0  0  0  0  0  0  0  0  0  0  0
   46.7300   25.0880  -13.1340 N   0  0  0  0  0  0  0  0  0  0  0  0
   47.7680   24.7490  -12.1640 C   0  0  0  0  0  0  0  0  0  0  0  0
   46.0440   26.3440  -12.7460 C   0  0  0  0  0  0  0  0  0  0  0  0
   44.8870   26.7140  -13.7050 C   0  0  0  0  0  0  0  0  0  0  0  0
   40.3567   27.1897  -10.7823 H   0  0  0  0  0  0  0  0  0  0  0  0
   40.0050   28.1836  -12.2367 H   0  0  0  0  0  0  0  0  0  0  0  0
   39.6287   26.4271  -12.2367 H   0  0  0  0  0  0  0  0  0  0  0  0
   42.3642   27.7753  -12.2563 H   0  0  0  0  0  0  0  0  0  0  0  0
   42.1120   26.0152  -11.8918 H   0  0  0  0  0  0  0  0  0  0  0  0
   39.7079   27.4077  -14.1400 H   0  0  0  0  0  0  0  0  0  0  0  0
   37.0482   29.9528  -15.3706 H   0  0  0  0  0  0  0  0  0  0  0  0
   34.9388   30.7822  -16.4193 H   0  0  0  0  0  0  0  0  0  0  0  0
   34.0812   29.7181  -18.5096 H   0  0  0  0  0  0  0  0  0  0  0  0
   34.3390   27.3520  -19.7500 H   0  0  0  0  0  0  0  0  0  0  0  0
   39.3160   24.3820  -18.3240 H   0  0  0  0  0  0  0  0  0  0  0  0
   41.4906   25.7755  -17.7110 H   0  0  0  0  0  0  0  0  0  0  0  0
   43.5203   25.1632  -16.4190 H   0  0  0  0  0  0  0  0  0  0  0  0
   43.8402   23.5213  -14.1997 H   0  0  0  0  0  0  0  0  0  0  0  0
   44.9836   24.4619  -15.2196 H   0  0  0  0  0  0  0  0  0  0  0  0
   45.3046   23.8202  -12.2299 H   0  0  0  0  0  0  0  0  0  0  0  0
   46.2419   23.1044  -13.6141 H   0  0  0  0  0  0  0  0  0  0  0  0
   47.1790   25.2140  -14.0410 H   0  0  0  0  0  0  0  0  0  0  0  0
   47.3739   24.8777  -11.1451 H   0  0  0  0  0  0  0  0  0  0  0  0
   48.0771   23.7032  -12.3082 H   0  0  0  0  0  0  0  0  0  0  0  0
   48.6348   25.4108  -12.3082 H   0  0  0  0  0  0  0  0  0  0  0  0
   45.6353   26.2229  -11.7319 H   0  0  0  0  0  0  0  0  0  0  0  0
   46.7855   27.1552  -12.7918 H   0  0  0  0  0  0  0  0  0  0  0  0
   44.3752   27.6124  -13.3297 H   0  0  0  0  0  0  0  0  0  0  0  0
   45.2956   26.9107  -14.7072 H   0  0  0  0  0  0  0  0  0  0  0  0
  1  2  1  0
  2  3  1  0
  3  4  2  0
  4  5  1  0
  5  6  1  0
  6  7  1  0
  7  8  1  0
  8  9  2  0
  9 10  1  0
 10 11  2  0
 11 12  1  0
 12 13  1  0
 12 14  2  0
 14 15  1  0
 15 16  2  0
 15 17  1  0
 17 18  1  0
  5 19  2  0
 19 20  1  0
 20 21  2  0
 21 22  1  0
 22 23  1  0
 23 24  1  0
 24 25  1  0
 25 26  1  0
 25 27  1  0
 27 28  1  0
 21  3  1  0
 28 22  1  0
 17  6  2  0
 14  8  1  0
  1 29  1  0
  1 30  1  0
  1 31  1  0
  2 32  1  0
  2 33  1  0
  4 34  1  0
  9 35  1  0
 10 36  1  0
 11 37  1  0
 13 38  1  0
 18 39  1  0
 19 40  1  0
 20 41  1  0
 23 42  1  0
 23 43  1  0
 24 44  1  0
 24 45  1  0
 25 46  1  0
 26 47  1  0
 26 48  1  0
 26 49  1  0
 27 50  1  0
 27 51  1  0
 28 52  1  0
 28 53  1  0
M  CHG  1  25   1
M  END
>  <meeko>  (3) 
{"is_sidechain": [false], "free_energy": 0.701, "intermolecular_energy": 0.845, "internal_energy": -0.002}

$$$$
cand_025_out
     RDKit          3D

 53 56  0  0  0  0  0  0  0  0999 V2000
   37.2710   29.8920  -13.6000 C   0  0  0  0  0  0  0  0  0  0  0  0
   36.7760   29.1470  -14.8310 C   0  0  0  0  0  0  0  0  0  0  0  0
   37.8170   28.1920  -15.3710 C   0  0  0  0  0  0  0  0  0  0  0  0
   38.9500   27.9110  -14.5820 C   0  0  0  0  0  0  0  0  0  0  0  0
   39.9550   27.0430  -15.0250 C   0  0  0  0  0  0  0  0  0  0  0  0
   41.1590   26.7640  -14.2140 C   0  0  0  0  0  0  0  0  0  0  0  0
   42.1820   26.1760  -14.9490 O   0  0  0  0  0  0  0  0  0  0  0  0
   43.3590   25.8650  -14.3170 C   0  0  0  0  0  0  0  0  0  0  0  0
   44.3640   25.2920  -15.0960 C   0  0  0  0  0  0  0  0  0  0  0  0
   45.5870   24.9490  -14.5140 C   0  0  0  0  0  0  0  0  0  0  0  0
   45.8030   25.1780  -13.1540 C   0  0  0  0  0  0  0  0  0  0  0  0
   44.7980   25.7510  -12.3780 C   0  0  0  0  0  0  0  0  0  0  0  0
   45.0760   25.9480  -11.0530 O   0  0  0  0  0  0  0  0  0  0  0  0
   43.5750   26.0940  -12.9610 C   0  0  0  0  0  0  0  0  0  0  0  0
   42.4930   26.6980  -12.1820 C   0  0  0  0  0  0  0  0  0  0  0  0
   42.6050   26.9240  -10.9790 O   0  0  0  0  0  0  0  0  0  0  0  0
   41.2390   27.0320  -12.8960 C   0  0  0  0  0  0  0  0  0  0  0  0
   40.2190   27.5890  -12.1490 O   0  0  0  0  0  0  0  0  0  0  0  0
   39.8210   26.4660  -16.2920 C   0  0  0  0  0  0  0  0  0  0  0  0
   38.7050   26.7420  -17.0890 C   0  0  0  0  0  0  0  0  0  0  0  0
   37.6930   27.6090  -16.6490 C   0  0  0  0  0  0  0  0  0  0  0  0
   36.5590   27.8970  -17.4330 N   0  0  0  0  0  0  0  0  0  0  0  0
   36.2590   29.3390  -17.5610 C   0  0  0  0  0  0  0  0  0  0  0  0
   34.9260   29.5290  -18.3220 C   0  0  0  0  0  0  0  0  0  0  0  0
   34.9430   28.8920  -19.6610 N   0  0  0  0  0  0  0  0  0  0  0  0
   33.6490   29.0480  -20.3220 C   0  0  0  0  0  0  0  0  0  0  0  0
   35.2820   27.4560  -19.5110 C   0  0  0  0  0  0  0  0  0  0  0  0
   36.6140   27.2330  -18.7550 C   0  0  0  0  0  0  0  0  0  0  0  0
   36.9260   29.3727  -12.6938 H   0  0  0  0  0  0  0  0  0  0  0  0
   38.3705   29.9239  -13.6082 H   0  0  0  0  0  0  0  0  0  0  0  0
   36.8744   30.9180  -13.6082 H   0  0  0  0  0  0  0  0  0  0  0  0
   35.8752   28.5757  -14.5622 H   0  0  0  0  0  0  0  0  0  0  0  0
   36.5574   29.8893  -15.6128 H   0  0  0  0  0  0  0  0  0  0  0  0
   39.0472   28.3851  -13.5942 H   0  0  0  0  0  0  0  0  0  0  0  0
   44.1939   25.1103  -16.1675 H   0  0  0  0  0  0  0  0  0  0  0  0
   46.3805   24.4981  -15.1281 H   0  0  0  0  0  0  0  0  0  0  0  0
   46.7654   24.9064  -12.6958 H   0  0  0  0  0  0  0  0  0  0  0  0
   45.4330   25.2490  -10.5400 H   0  0  0  0  0  0  0  0  0  0  0  0
   39.9090   28.4510  -12.3470 H   0  0  0  0  0  0  0  0  0  0  0  0
   40.6019   25.7875  -16.6660 H   0  0  0  0  0  0  0  0  0  0  0  0
   38.6191   26.2706  -18.0792 H   0  0  0  0  0  0  0  0  0  0  0  0
   36.1748   29.7852  -16.5591 H   0  0  0  0  0  0  0  0  0  0  0  0
   37.0697   29.8315  -18.1180 H   0  0  0  0  0  0  0  0  0  0  0  0
   34.1141   29.0828  -17.7289 H   0  0  0  0  0  0  0  0  0  0  0  0
   34.7736   30.6088  -18.4665 H   0  0  0  0  0  0  0  0  0  0  0  0
   35.6480   29.3470  -20.2420 H   0  0  0  0  0  0  0  0  0  0  0  0
   32.8586   29.1433  -19.5629 H   0  0  0  0  0  0  0  0  0  0  0  0
   33.6647   29.9508  -20.9503 H   0  0  0  0  0  0  0  0  0  0  0  0
   33.4497   28.1674  -20.9503 H   0  0  0  0  0  0  0  0  0  0  0  0
   34.4737   26.9598  -18.9538 H   0  0  0  0  0  0  0  0  0  0  0  0
   35.3981   27.0346  -20.5204 H   0  0  0  0  0  0  0  0  0  0  0  0
   36.7780   26.1543  -18.6151 H   0  0  0  0  0  0  0  0  0  0  0  0
   37.4401   27.6611  -19.3418 H   0  0  0  0  0  0  0  0  0  0  0  0
  1  2  1  0
  2  3  1  0
  3  4  2  0
  4  5  1  0
  5  6  1  0
  6  7  1  0
  7  8  1  0
  8  9  2  0
  9 10  1  0
 10 11  2  0
 11 12  1  0
 12 13  1  0
 12 14  2  0
 14 15  1  0
 15 16  2  0
 15 17  1  0
 17 18  1  0
  5 19  2  0
 19 20  1  0
 20 21  2  0
 21 22  1  0
 22 23  1  0
 23 24  1  0
 24 25  1  0
 25 26  1  0
 25 27  1  0
 27 28  1  0
 21  3  1  0
 28 22  1  0
 17  6  2  0
 14  8  1  0
  1 29  1  0
  1 30  1  0
  1 31  1  0
  2 32  1  0
  2 33  1  0
  4 34  1  0
  9 35  1  0
 10 36  1  0
 11 37  1  0
 13 38  1  0
 18 39  1  0
 19 40  1  0
 20 41  1  0
 23 42  1  0
 23 43  1  0
 24 44  1  0
 24 45  1  0
 25 46  1  0
 26 47  1  0
 26 48  1  0
 26 49  1  0
 27 50  1  0
 27 51  1  0
 28 52  1  0
 28 53  1  0
M  CHG  1  25   1
M  END
>  <meeko>  (4) 
{"is_sidechain": [false], "free_energy": 1.759, "intermolecular_energy": 1.455, "internal_energy": 0.693}

$$$$
