cand_050_out
     RDKit          3D

 38 40  0  0  0  0  0  0  0  0999 V2000
   46.5820   24.6990  -14.1700 C   0  0  0  0  0  0  0  0  0  0  0  0
   45.3670   24.4800  -13.2790 C   0  0  0  0  0  0  0  0  0  0  0  0
   44.1140   25.0870  -13.8710 C   0  0  0  0  0  0  0  0  0  0  0  0
   43.3910   24.3310  -14.8110 C   0  0  0  0  0  0  0  0  0  0  0  0
   42.2310   24.8370  -15.4020 C   0  0  0  0  0  0  0  0  0  0  0  0
   41.7550   26.1080  -15.0690 C   0  0  0  0  0  0  0  0  0  0  0  0
   40.5350   26.6320  -15.7200 C   0  0  0  0  0  0  0  0  0  0  0  0
   39.7800   27.4430  -14.8810 O   0  0  0  0  0  0  0  0  0  0  0  0
   38.6190   27.9940  -15.3620 C   0  0  0  0  0  0  0  0  0  0  0  0
   37.8840   28.7890  -14.4820 C   0  0  0  0  0  0  0  0  0  0  0  0
   36.6940   29.3830  -14.9090 C   0  0  0  0  0  0  0  0  0  0  0  0
   36.2400   29.1820  -16.2140 C   0  0  0  0  0  0  0  0  0  0  0  0
   36.9760   28.3880  -17.0900 C   0  0  0  0  0  0  0  0  0  0  0  0
   36.4730   28.2330  -18.3530 O   0  0  0  0  0  0  0  0  0  0  0  0
   38.1670   27.7930  -16.6620 C   0  0  0  0  0  0  0  0  0  0  0  0
   38.9690   26.9520  -17.5510 C   0  0  0  0  0  0  0  0  0  0  0  0
   38.6410   26.7330  -18.7150 O   0  0  0  0  0  0  0  0  0  0  0  0
   40.2100   26.3630  -16.9980 C   0  0  0  0  0  0  0  0  0  0  0  0
   40.9700   25.5800  -17.8470 O   0  0  0  0  0  0  0  0  0  0  0  0
   42.4840   26.8700  -14.1440 C   0  0  0  0  0  0  0  0  0  0  0  0
   43.6600   26.3810  -13.5360 C   0  0  0  0  0  0  0  0  0  0  0  0
   44.3810   27.2550  -12.5330 C   0  0  0  0  0  0  0  0  0  0  0  0
   45.7400   27.2110  -12.6450 F   0  0  0  0  0  0  0  0  0  0  0  0
   44.1150   26.9110  -11.2410 F   0  0  0  0  0  0  0  0  0  0  0  0
   44.0470   28.5700  -12.6480 F   0  0  0  0  0  0  0  0  0  0  0  0
   47.4719   24.8594  -13.5436 H   0  0  0  0  0  0  0  0  0  0  0  0
   46.7353   23.8140  -14.8051 H   0  0  0  0  0  0  0  0  0  0  0  0
   46.4166   25.5818  -14.8051 H   0  0  0  0  0  0  0  0  0  0  0  0
   45.2112   23.3987  -13.1501 H   0  0  0  0  0  0  0  0  0  0  0  0
   45.5599   24.9717  -12.3141 H   0  0  0  0  0  0  0  0  0  0  0  0
   43.7444   23.3260  -15.0849 H   0  0  0  0  0  0  0  0  0  0  0  0
   41.6858   24.2280  -16.1381 H   0  0  0  0  0  0  0  0  0  0  0  0
   38.2410   28.9477  -13.4537 H   0  0  0  0  0  0  0  0  0  0  0  0
   36.1137   30.0100  -14.2161 H   0  0  0  0  0  0  0  0  0  0  0  0
   35.3027   29.6499  -16.5496 H   0  0  0  0  0  0  0  0  0  0  0  0
   35.6380   27.8300  -18.4780 H   0  0  0  0  0  0  0  0  0  0  0  0
   41.9010   25.6790  -17.8670 H   0  0  0  0  0  0  0  0  0  0  0  0
   42.1286   27.8783  -13.8849 H   0  0  0  0  0  0  0  0  0  0  0  0
  1  2  1  0
  2  3  1  0
  3  4  2  0
  4  5  1  0
  5  6  2  0
  6  7  1  0
  7  8  1  0
  8  9  1  0
  9 10  2  0
 10 11  1  0
 11 12  2  0
 12 13  1  0
 13 14  1  0
 13 15  2  0
 15 16  1  0
 16 17  2  0
 16 18  1  0
 18 19  1  0
  6 20  1  0
 20 21  2  0
 21 22  1  0
 22 23  1  0
 22 24  1  0
 22 25  1  0
 21  3  1  0
 18  7  2  0
 15  9  1  0
  1 26  1  0
  1 27  1  0
  1 28  1  0
  2 29  1  0
  2 30  1  0
  4 31  1  0
  5 32  1  0
 10 33  1  0
 11 34  1  0
 12 35  1  0
 14 36  1  0
 19 37  1  0
 20 38  1  0
M  END
>  <meeko>  (1) 
{"is_sidechain": [false], "free_energy": -7.813, "intermolecular_energy": -9.64, "internal_energy": 0.002}

$$$$
cand_050_out
     RDKit          3D

 38 40  0  0  0  0  0  0  0  0999 V2000
   46.1870   25.4050  -14.1870 C   0  0  0  0  0  0  0  0  0  0  0  0
   44.9800   24.5630  -13.7990 C   0  0  0  0  0  0  0  0  0  0  0  0
   43.6760   25.2510  -14.1380 C   0  0  0  0  0  0  0  0  0  0  0  0
   43.0700   24.9540  -15.3720 C   0  0  0  0  0  0  0  0  0  0  0  0
   41.8710   25.5620  -15.7500 C   0  0  0  0  0  0  0  0  0  0  0  0
   41.2390   26.4800  -14.9070 C   0  0  0  0  0  0  0  0  0  0  0  0
   39.9790   27.1260  -15.3340 C   0  0  0  0  0  0  0  0  0  0  0  0
   39.5480   26.6980  -16.5860 O   0  0  0  0  0  0  0  0  0  0  0  0
   38.3900   27.2210  -17.1010 C   0  0  0  0  0  0  0  0  0  0  0  0
   38.0030   26.7750  -18.3660 C   0  0  0  0  0  0  0  0  0  0  0  0
   36.8310   27.2660  -18.9480 C   0  0  0  0  0  0  0  0  0  0  0  0
   36.0490   28.1990  -18.2660 C   0  0  0  0  0  0  0  0  0  0  0  0
   36.4370   28.6420  -17.0050 C   0  0  0  0  0  0  0  0  0  0  0  0
   35.6240   29.5580  -16.3940 O   0  0  0  0  0  0  0  0  0  0  0  0
   37.6100   28.1520  -16.4220 C   0  0  0  0  0  0  0  0  0  0  0  0
   38.0540   28.5910  -15.0990 C   0  0  0  0  0  0  0  0  0  0  0  0
   37.4170   29.4050  -14.4340 O   0  0  0  0  0  0  0  0  0  0  0  0
   39.3150   28.0170  -14.5760 C   0  0  0  0  0  0  0  0  0  0  0  0
   39.7210   28.4270  -13.3190 O   0  0  0  0  0  0  0  0  0  0  0  0
   41.8490   26.7910  -13.6830 C   0  0  0  0  0  0  0  0  0  0  0  0
   43.0620   26.1910  -13.2820 C   0  0  0  0  0  0  0  0  0  0  0  0
   43.6510   26.5630  -11.9380 C   0  0  0  0  0  0  0  0  0  0  0  0
   44.3110   25.5370  -11.3260 F   0  0  0  0  0  0  0  0  0  0  0  0
   42.7100   26.9710  -11.0400 F   0  0  0  0  0  0  0  0  0  0  0  0
   44.5530   27.5790  -12.0250 F   0  0  0  0  0  0  0  0  0  0  0  0
   46.6946   25.7591  -13.2777 H   0  0  0  0  0  0  0  0  0  0  0  0
   46.8832   24.7956  -14.7819 H   0  0  0  0  0  0  0  0  0  0  0  0
   45.8555   26.2688  -14.7819 H   0  0  0  0  0  0  0  0  0  0  0  0
   45.0269   23.6054  -14.3383 H   0  0  0  0  0  0  0  0  0  0  0  0
   45.0095   24.4086  -12.7103 H   0  0  0  0  0  0  0  0  0  0  0  0
   43.5480   24.2315  -16.0499 H   0  0  0  0  0  0  0  0  0  0  0  0
   41.4190   25.3156  -16.7221 H   0  0  0  0  0  0  0  0  0  0  0  0
   38.6190   26.0389  -18.9034 H   0  0  0  0  0  0  0  0  0  0  0  0
   36.5246   26.9165  -19.9450 H   0  0  0  0  0  0  0  0  0  0  0  0
   35.1264   28.5841  -18.7248 H   0  0  0  0  0  0  0  0  0  0  0  0
   34.9380   29.2690  -15.8260 H   0  0  0  0  0  0  0  0  0  0  0  0
   40.6020   28.7180  -13.1840 H   0  0  0  0  0  0  0  0  0  0  0  0
   41.3687   27.5229  -13.0170 H   0  0  0  0  0  0  0  0  0  0  0  0
  1  2  1  0
  2  3  1  0
  3  4  2  0
  4  5  1  0
  5  6  2  0
  6  7  1  0
  7  8  1  0
  8  9  1  0
  9 10  2  0
 10 11  1  0
 11 12  2  0
 12 13  1  0
 13 14  1  0
 13 15  2  0
 15 16  1  0
 16 17  2  0
 16 18  1  0
 18 19  1  0
  6 20  1  0
 20 21  2  0
 21 22  1  0
 22 23  1  0
 22 24  1  0
 22 25  1  0
 21  3  1  0
 18  7  2  0
 15  9  1  0
  1 26  1  0
  1 27  1  0
  1 28  1  0
  2 29  1  0
  2 30  1  0
  4 31  1  0
  5 32  1  0
 10 33  1  0
 11 34  1  0
 12 35  1  0
 14 36  1  0
 19 37  1  0
 20 38  1  0
M  END
>  <meeko>  (2) 
{"is_sidechain": [false], "free_energy": -6.488, "intermolecular_energy": -8.164, "internal_energy": 0.161}

$$$$
cand_050_out
     RDKit          3D

 38 40  0  0  0  0  0  0  0  0999 V2000
   46.5600   24.8330  -14.4220 C   0  0  0  0  0  0  0  0  0  0  0  0
   45.4080   24.4050  -13.5240 C   0  0  0  0  0  0  0  0  0  0  0  0
   44.1230   25.1240  -13.8690 C   0  0  0  0  0  0  0  0  0  0  0  0
   43.2080   24.4760  -14.7180 C   0  0  0  0  0  0  0  0  0  0  0  0
   42.0070   25.0890  -15.0830 C   0  0  0  0  0  0  0  0  0  0  0  0
   41.6820   26.3640  -14.6090 C   0  0  0  0  0  0  0  0  0  0  0  0
   40.4140   27.0020  -15.0220 C   0  0  0  0  0  0  0  0  0  0  0  0
   39.9890   26.5960  -16.2820 O   0  0  0  0  0  0  0  0  0  0  0  0
   38.8240   27.1150  -16.7860 C   0  0  0  0  0  0  0  0  0  0  0  0
   38.4420   26.6930  -18.0610 C   0  0  0  0  0  0  0  0  0  0  0  0
   37.2640   27.1800  -18.6330 C   0  0  0  0  0  0  0  0  0  0  0  0
   36.4690   28.0870  -17.9300 C   0  0  0  0  0  0  0  0  0  0  0  0
   36.8520   28.5070  -16.6590 C   0  0  0  0  0  0  0  0  0  0  0  0
   36.0270   29.3970  -16.0280 O   0  0  0  0  0  0  0  0  0  0  0  0
   38.0310   28.0200  -16.0870 C   0  0  0  0  0  0  0  0  0  0  0  0
   38.4690   28.4350  -14.7550 C   0  0  0  0  0  0  0  0  0  0  0  0
   37.8210   29.2250  -14.0710 O   0  0  0  0  0  0  0  0  0  0  0  0
   39.7370   27.8670  -14.2430 C   0  0  0  0  0  0  0  0  0  0  0  0
   40.1390   28.2530  -12.9780 O   0  0  0  0  0  0  0  0  0  0  0  0
   42.6010   27.0180  -13.7750 C   0  0  0  0  0  0  0  0  0  0  0  0
   43.8210   26.4190  -13.3950 C   0  0  0  0  0  0  0  0  0  0  0  0
   44.7530   27.1810  -12.4780 C   0  0  0  0  0  0  0  0  0  0  0  0
   46.0750   26.9730  -12.7460 F   0  0  0  0  0  0  0  0  0  0  0  0
   44.5960   26.8490  -11.1660 F   0  0  0  0  0  0  0  0  0  0  0  0
   44.5720   28.5290  -12.5490 F   0  0  0  0  0  0  0  0  0  0  0  0
   47.4111   25.1492  -13.8010 H   0  0  0  0  0  0  0  0  0  0  0  0
   46.8635   23.9876  -15.0570 H   0  0  0  0  0  0  0  0  0  0  0  0
   46.2379   25.6715  -15.0570 H   0  0  0  0  0  0  0  0  0  0  0  0
   45.2511   23.3224  -13.6394 H   0  0  0  0  0  0  0  0  0  0  0  0
   45.6724   24.6606  -12.4873 H   0  0  0  0  0  0  0  0  0  0  0  0
   43.4416   23.4714  -15.1004 H   0  0  0  0  0  0  0  0  0  0  0  0
   41.3090   24.5629  -15.7508 H   0  0  0  0  0  0  0  0  0  0  0  0
   39.0680   25.9777  -18.6146 H   0  0  0  0  0  0  0  0  0  0  0  0
   36.9628   26.8486  -19.6377 H   0  0  0  0  0  0  0  0  0  0  0  0
   35.5409   28.4695  -18.3798 H   0  0  0  0  0  0  0  0  0  0  0  0
   35.2770   29.0900  -15.5590 H   0  0  0  0  0  0  0  0  0  0  0  0
   40.6550   29.0270  -12.8670 H   0  0  0  0  0  0  0  0  0  0  0  0
   42.3638   28.0270  -13.4065 H   0  0  0  0  0  0  0  0  0  0  0  0
  1  2  1  0
  2  3  1  0
  3  4  2  0
  4  5  1  0
  5  6  2  0
  6  7  1  0
  7  8  1  0
  8  9  1  0
  9 10  2  0
 10 11  1  0
 11 12  2  0
 12 13  1  0
 13 14  1  0
 13 15  2  0
 15 16  1  0
 16 17  2  0
 16 18  1  0
 18 19  1  0
  6 20  1  0
 20 21  2  0
 21 22  1  0
 22 23  1  0
 22 24  1  0
 22 25  1  0
 21  3  1  0
 18  7  2  0
 15  9  1  0
  1 26  1  0
  1 27  1  0
  1 28  1  0
  2 29  1  0
  2 30  1  0
  4 31  1  0
  5 32  1  0
 10 33  1  0
 11 34  1  0
 12 35  1  0
 14 36  1  0
 19 37  1  0
 20 38  1  0
M  END
>  <meeko>  (3) 
{"is_sidechain": [false], "free_energy": -6.34, "intermolecular_energy": -8.176, "internal_energy": 0.355}

$$$$
cand_050_out
     RDKit          3D

 38 40  0  0  0  0  0  0  0  0999 V2000
   36.7800   26.5550  -19.9490 C   0  0  0  0  0  0  0  0  0  0  0  0
   36.4850   27.4550  -18.7570 C   0  0  0  0  0  0  0  0  0  0  0  0
   37.5460   27.3390  -17.6840 C   0  0  0  0  0  0  0  0  0  0  0  0
   38.4980   26.3120  -17.8000 C   0  0  0  0  0  0  0  0  0  0  0  0
   39.4970   26.1440  -16.8390 C   0  0  0  0  0  0  0  0  0  0  0  0
   39.5780   27.0000  -15.7360 C   0  0  0  0  0  0  0  0  0  0  0  0
   40.6330   26.7940  -14.7200 C   0  0  0  0  0  0  0  0  0  0  0  0
   41.7800   26.2060  -15.2420 O   0  0  0  0  0  0  0  0  0  0  0  0
   42.8370   25.9590  -14.4040 C   0  0  0  0  0  0  0  0  0  0  0  0
   43.9620   25.3550  -14.9660 C   0  0  0  0  0  0  0  0  0  0  0  0
   45.0750   25.0770  -14.1680 C   0  0  0  0  0  0  0  0  0  0  0  0
   45.0620   25.4050  -12.8110 C   0  0  0  0  0  0  0  0  0  0  0  0
   43.9380   26.0080  -12.2530 C   0  0  0  0  0  0  0  0  0  0  0  0
   43.9930   26.3020  -10.9180 O   0  0  0  0  0  0  0  0  0  0  0  0
   42.8240   26.2850  -13.0510 C   0  0  0  0  0  0  0  0  0  0  0  0
   41.6240   26.9170  -12.5040 C   0  0  0  0  0  0  0  0  0  0  0  0
   41.5380   27.2410  -11.3220 O   0  0  0  0  0  0  0  0  0  0  0  0
   40.4960   27.1600  -13.4320 C   0  0  0  0  0  0  0  0  0  0  0  0
   39.3690   27.7690  -12.9120 O   0  0  0  0  0  0  0  0  0  0  0  0
   38.6200   28.0150  -15.6100 C   0  0  0  0  0  0  0  0  0  0  0  0
   37.6000   28.2020  -16.5680 C   0  0  0  0  0  0  0  0  0  0  0  0
   36.6120   29.3320  -16.3720 C   0  0  0  0  0  0  0  0  0  0  0  0
   35.4280   29.1430  -17.0230 F   0  0  0  0  0  0  0  0  0  0  0  0
   37.0820   30.5310  -16.8190 F   0  0  0  0  0  0  0  0  0  0  0  0
   36.2850   29.5210  -15.0630 F   0  0  0  0  0  0  0  0  0  0  0  0
   37.1040   25.5667  -19.5909 H   0  0  0  0  0  0  0  0  0  0  0  0
   35.8711   26.4443  -20.5587 H   0  0  0  0  0  0  0  0  0  0  0  0
   37.5781   27.0038  -20.5587 H   0  0  0  0  0  0  0  0  0  0  0  0
   36.4411   28.4986  -19.1020 H   0  0  0  0  0  0  0  0  0  0  0  0
   35.5252   27.1396  -18.3219 H   0  0  0  0  0  0  0  0  0  0  0  0
   38.4556   25.6295  -18.6616 H   0  0  0  0  0  0  0  0  0  0  0  0
   40.2281   25.3297  -16.9507 H   0  0  0  0  0  0  0  0  0  0  0  0
   43.9729   25.0980  -16.0355 H   0  0  0  0  0  0  0  0  0  0  0  0
   45.9621   24.5993  -14.6094 H   0  0  0  0  0  0  0  0  0  0  0  0
   45.9388   25.1873  -12.1834 H   0  0  0  0  0  0  0  0  0  0  0  0
   43.6490   27.1130  -10.6020 H   0  0  0  0  0  0  0  0  0  0  0  0
   39.0110   27.4740  -12.0980 H   0  0  0  0  0  0  0  0  0  0  0  0
   38.6641   28.6856  -14.7392 H   0  0  0  0  0  0  0  0  0  0  0  0
  1  2  1  0
  2  3  1  0
  3  4  2  0
  4  5  1  0
  5  6  2  0
  6  7  1  0
  7  8  1  0
  8  9  1  0
  9 10  2  0
 10 11  1  0
 11 12  2  0
 12 13  1  0
 13 14  1  0
 13 15  2  0
 15 16  1  0
 16 17  2  0
 16 18  1  0
 18 19  1  0
  6 20  1  0
 20 21  2  0
 21 22  1  0
 22 23  1  0
 22 24  1  0
 22 25  1  0
 21  3  1  0
 18  7  2  0
 15  9  1  0
  1 26  1  0
  1 27  1  0
  1 28  1  0
  2 29  1  0
  2 30  1  0
  4 31  1  0
  5 32  1  0
 10 33  1  0
 11 34  1  0
 12 35  1  0
 14 36  1  0
 19 37  1  0
 20 38  1  0
M  END
>  <meeko>  (4) 
{"is_sidechain": [false], "free_energy": -5.978, "intermolecular_energy": -7.6, "internal_energy": 0.226}

$$$$
cand_050_out
     RDKit          3D

 38 40  0  0  0  0  0  0  0  0999 V2000
   36.1610   30.3260  -17.9990 C   0  0  0  0  0  0  0  0  0  0  0  0
   35.7910   29.1670  -17.0840 C   0  0  0  0  0  0  0  0  0  0  0  0
   36.9910   28.6340  -16.3310 C   0  0  0  0  0  0  0  0  0  0  0  0
   37.2730   29.1760  -15.0650 C   0  0  0  0  0  0  0  0  0  0  0  0
   38.3710   28.7360  -14.3220 C   0  0  0  0  0  0  0  0  0  0  0  0
   39.2160   27.7390  -14.8180 C   0  0  0  0  0  0  0  0  0  0  0  0
   40.3820   27.3000  -14.0230 C   0  0  0  0  0  0  0  0  0  0  0  0
   41.4020   26.7670  -14.8050 O   0  0  0  0  0  0  0  0  0  0  0  0
   42.5430   26.3200  -14.1900 C   0  0  0  0  0  0  0  0  0  0  0  0
   43.5340   25.7800  -15.0110 C   0  0  0  0  0  0  0  0  0  0  0  0
   44.7230   25.3080  -14.4500 C   0  0  0  0  0  0  0  0  0  0  0  0
   44.9210   25.3790  -13.0700 C   0  0  0  0  0  0  0  0  0  0  0  0
   43.9310   25.9190  -12.2530 C   0  0  0  0  0  0  0  0  0  0  0  0
   44.1900   25.9560  -10.9100 O   0  0  0  0  0  0  0  0  0  0  0  0
   42.7400   26.3890  -12.8150 C   0  0  0  0  0  0  0  0  0  0  0  0
   41.6750   26.9630  -11.9920 C   0  0  0  0  0  0  0  0  0  0  0  0
   41.7770   27.0660  -10.7720 O   0  0  0  0  0  0  0  0  0  0  0  0
   40.4510   27.4260  -12.6850 C   0  0  0  0  0  0  0  0  0  0  0  0
   39.4540   27.9790  -11.9030 O   0  0  0  0  0  0  0  0  0  0  0  0
   38.9450   27.2080  -16.0880 C   0  0  0  0  0  0  0  0  0  0  0  0
   37.8430   27.6400  -16.8570 C   0  0  0  0  0  0  0  0  0  0  0  0
   37.6050   27.0060  -18.2110 C   0  0  0  0  0  0  0  0  0  0  0  0
   36.4660   27.4380  -18.8250 F   0  0  0  0  0  0  0  0  0  0  0  0
   37.4890   25.6490  -18.1500 F   0  0  0  0  0  0  0  0  0  0  0  0
   38.6140   27.2570  -19.0920 F   0  0  0  0  0  0  0  0  0  0  0  0
   36.4397   31.1990  -17.3905 H   0  0  0  0  0  0  0  0  0  0  0  0
   37.0109   30.0351  -18.6338 H   0  0  0  0  0  0  0  0  0  0  0  0
   35.2997   30.5814  -18.6338 H   0  0  0  0  0  0  0  0  0  0  0  0
   35.0410   29.5133  -16.3576 H   0  0  0  0  0  0  0  0  0  0  0  0
   35.3934   28.3539  -17.7092 H   0  0  0  0  0  0  0  0  0  0  0  0
   36.6190   29.9587  -14.6531 H   0  0  0  0  0  0  0  0  0  0  0  0
   38.5730   29.1790  -13.3356 H   0  0  0  0  0  0  0  0  0  0  0  0
   43.3790   25.7261  -16.0987 H   0  0  0  0  0  0  0  0  0  0  0  0
   45.5037   24.8801  -15.0960 H   0  0  0  0  0  0  0  0  0  0  0  0
   45.8580   25.0088  -12.6284 H   0  0  0  0  0  0  0  0  0  0  0  0
   43.6840   25.4340  -10.3200 H   0  0  0  0  0  0  0  0  0  0  0  0
   38.7150   27.4610  -11.6500 H   0  0  0  0  0  0  0  0  0  0  0  0
   39.6103   26.4329  -16.4961 H   0  0  0  0  0  0  0  0  0  0  0  0
  1  2  1  0
  2  3  1  0
  3  4  2  0
  4  5  1  0
  5  6  2  0
  6  7  1  0
  7  8  1  0
  8  9  1  0
  9 10  2  0
 10 11  1  0
 11 12  2  0
 12 13  1  0
 13 14  1  0
 13 15  2  0
 15 16  1  0
 16 17  2  0
 16 18  1  0
 18 19  1  0
  6 20  1  0
 20 21  2  0
 21 22  1  0
 22 23  1  0
 22 24  1  0
 22 25  1  0
 21  3  1  0
 18  7  2  0
 15  9  1  0
  1 26  1  0
  1 27  1  0
  1 28  1  0
  2 29  1  0
  2 30  1  0
  4 31  1  0
  5 32  1  0
 10 33  1  0
 11 34  1  0
 12 35  1  0
 14 36  1  0
 19 37  1  0
 20 38  1  0
M  END
>  <meeko>  (5) 
{"is_sidechain": [false], "free_energy": -5.165, "intermolecular_energy": -6.87, "internal_energy": 0.5}

$$$$
