
 OpenBabel09242623443D

 84 89  0  0  0  0  0  0  0  0999 V2000
   56.4190  140.5270   16.9090 P   0  0  1  0  0  0  0  0  0  0  0  0
   57.2930  141.7880   16.8690 O   0  0  0  0  0  0  0  0  0  0  0  0
   55.0330  140.7720   16.4350 O   0  5  0  0  0  0  0  0  0  0  0  0
   57.1240  139.3440   16.0760 O   0  0  0  0  0  0  0  0  0  0  0  0
   56.3680  138.2930   15.5260 C   0  0  0  0  0  0  0  0  0  0  0  0
   56.9820  137.9230   14.1840 C   0  0  1  0  0  0  0  0  0  0  0  0
   56.3740  136.7500   13.6920 O   0  0  0  0  0  0  0  0  0  0  0  0
   56.7670  139.0070   13.1380 C   0  0  1  0  0  0  0  0  0  0  0  0
   58.0120  139.3110   12.5470 O   0  0  0  0  0  0  0  0  0  0  0  0
   55.8160  138.3870   12.1310 C   0  0  1  0  0  0  0  0  0  0  0  0
   56.0890  138.8180   10.8170 O   0  0  0  0  0  0  0  0  0  0  0  0
   56.0760  136.9010   12.3210 C   0  0  2  0  0  0  0  0  0  0  0  0
   54.9510  136.0220   11.9570 N   0  0  0  0  0  0  0  0  0  0  0  0
   53.6070  136.2080   12.1690 C   0  0  0  0  0  0  0  0  0  0  0  0
   52.9440  135.1380   11.6750 N   0  0  0  0  0  0  0  0  0  0  0  0
   53.8410  134.2690   11.1580 C   0  0  0  0  0  0  0  0  0  0  0  0
   53.7160  133.0290   10.5330 C   0  0  0  0  0  0  0  0  0  0  0  0
   52.5260  132.4530   10.3800 N   0  0  0  0  0  0  0  0  0  0  0  0
   54.8540  132.3720   10.1050 N   0  0  0  0  0  0  0  0  0  0  0  0
   56.1040  132.9310   10.2860 C   0  0  0  0  0  0  0  0  0  0  0  0
   56.2210  134.1590   10.9040 N   0  0  0  0  0  0  0  0  0  0  0  0
   55.1090  134.8140   11.3330 C   0  0  0  0  0  0  0  0  0  0  0  0
   57.3410  148.3540   22.9110 N   0  0  0  0  0  0  0  0  0  0  0  0
   58.2780  148.9730   23.7170 C   0  0  0  0  0  0  0  0  0  0  0  0
   58.9760  148.2990   24.4690 O   0  0  0  0  0  0  0  0  0  0  0  0
   58.4280  150.3470   23.6770 N   0  0  0  0  0  0  0  0  0  0  0  0
   57.6440  151.1060   22.8270 C   0  0  0  0  0  0  0  0  0  0  0  0
   57.7850  152.3260   22.7930 O   0  0  0  0  0  0  0  0  0  0  0  0
   56.6960  150.4860   22.0140 C   0  0  0  0  0  0  0  0  0  0  0  0
   55.9040  151.2410   21.1680 N   0  0  0  0  0  0  0  0  0  0  0  0
   54.9390  150.6400   20.3850 C   0  0  0  0  0  0  0  0  0  0  0  0
   54.4240  151.4330   19.3600 C   0  0  0  0  0  0  0  0  0  0  0  0
   54.0770  150.8780   18.1370 C   0  0  0  0  0  0  0  0  0  0  0  0
   53.5400  151.7670   17.0500 C   0  0  0  0  0  0  0  0  0  0  0  0
   54.2340  149.5090   17.9460 C   0  0  0  0  0  0  0  0  0  0  0  0
   53.8830  148.8840   16.6360 C   0  0  0  0  0  0  0  0  0  0  0  0
   54.7300  148.7020   18.9660 C   0  0  0  0  0  0  0  0  0  0  0  0
   55.0710  149.2600   20.1970 C   0  0  0  0  0  0  0  0  0  0  0  0
   55.6140  148.4940   21.2240 N   0  0  0  0  0  0  0  0  0  0  0  0
   56.5450  149.0990   22.0560 C   0  0  0  0  0  0  0  0  0  0  0  0
   55.3610  147.0080   21.3000 C   0  0  0  0  0  0  0  0  0  0  0  0
   56.5680  146.1740   20.8550 C   0  0  2  0  0  0  0  0  0  0  0  0
   56.9390  146.5410   19.5430 O   0  0  0  0  0  0  0  0  0  0  0  0
   56.2410  144.6800   20.9420 C   0  0  2  0  0  0  0  0  0  0  0  0
   55.8730  144.3650   22.2690 O   0  0  0  0  0  0  0  0  0  0  0  0
   57.3820  143.7420   20.5420 C   0  0  2  0  0  0  0  0  0  0  0  0
   58.0430  144.1720   19.3720 O   0  0  0  0  0  0  0  0  0  0  0  0
   56.8130  142.3480   20.3150 C   0  0  0  0  0  0  0  0  0  0  0  0
   57.8360  141.4420   19.9710 O   0  0  0  0  0  0  0  0  0  0  0  0
   57.4480  139.9070   19.6860 P   0  0  1  0  0  0  0  0  0  0  0  0
   58.6480  139.2090   19.1750 O   0  0  0  0  0  0  0  0  0  0  0  0
   56.8880  139.2460   20.9540 O   0  5  0  0  0  0  0  0  0  0  0  0
   56.3710  139.8460   18.6860 O   0  0  0  0  0  0  0  0  0  0  0  0
   55.3551  138.6086   15.3870 H   0  0  0  0  0  0  0  0  0  0  0  0
   56.3740  137.4482   16.1826 H   0  0  0  0  0  0  0  0  0  0  0  0
   58.0307  137.7902   14.3498 H   0  0  0  0  0  0  0  0  0  0  0  0
   56.3682  139.9171   13.5349 H   0  0  0  0  0  0  0  0  0  0  0  0
   58.4001  138.5028   12.1767 H   0  0  0  0  0  0  0  0  0  0  0  0
   54.7918  138.6587   12.2794 H   0  0  0  0  0  0  0  0  0  0  0  0
   57.0095  138.6096   10.5930 H   0  0  0  0  0  0  0  0  0  0  0  0
   56.8669  136.6017   11.6654 H   0  0  0  0  0  0  0  0  0  0  0  0
   53.1760  137.0259   12.6276 H   0  0  0  0  0  0  0  0  0  0  0  0
   51.7121  132.9166   10.6831 H   0  0  0  0  0  0  0  0  0  0  0  0
   52.4596  131.5633    9.9637 H   0  0  0  0  0  0  0  0  0  0  0  0
   56.9468  132.4323    9.9604 H   0  0  0  0  0  0  0  0  0  0  0  0
   59.0938  150.7857   24.2544 H   0  0  0  0  0  0  0  0  0  0  0  0
   54.2994  152.4459   19.5133 H   0  0  0  0  0  0  0  0  0  0  0  0
   53.5001  152.7766   17.4021 H   0  0  0  0  0  0  0  0  0  0  0  0
   52.5564  151.4446   16.7790 H   0  0  0  0  0  0  0  0  0  0  0  0
   54.1813  151.7124   16.1952 H   0  0  0  0  0  0  0  0  0  0  0  0
   53.5195  149.6365   15.9678 H   0  0  0  0  0  0  0  0  0  0  0  0
   53.1251  148.1437   16.7857 H   0  0  0  0  0  0  0  0  0  0  0  0
   54.7529  148.4239   16.2158 H   0  0  0  0  0  0  0  0  0  0  0  0
   54.8455  147.6883   18.8105 H   0  0  0  0  0  0  0  0  0  0  0  0
   54.5304  146.7703   20.6688 H   0  0  0  0  0  0  0  0  0  0  0  0
   55.1645  146.7676   22.3240 H   0  0  0  0  0  0  0  0  0  0  0  0
   57.3945  146.3659   21.5069 H   0  0  0  0  0  0  0  0  0  0  0  0
   56.1991  146.3728   18.9387 H   0  0  0  0  0  0  0  0  0  0  0  0
   55.4501  144.5222   20.2388 H   0  0  0  0  0  0  0  0  0  0  0  0
   56.6250  144.5263   22.8600 H   0  0  0  0  0  0  0  0  0  0  0  0
   58.1012  143.7395   21.3342 H   0  0  0  0  0  0  0  0  0  0  0  0
   57.4155  144.1852   18.6324 H   0  0  0  0  0  0  0  0  0  0  0  0
   56.0963  142.3862   19.5215 H   0  0  0  0  0  0  0  0  0  0  0  0
   56.3484  142.0148   21.2194 H   0  0  0  0  0  0  0  0  0  0  0  0
  1  2  2  6  0  0  0
  3  1  1  0  0  0  0
  4  1  1  0  0  0  0
  5  4  1  0  0  0  0
  5 54  1  0  0  0  0
  5 55  1  0  0  0  0
  6  5  1  0  0  0  0
  6 56  1  1  0  0  0
  7  6  1  0  0  0  0
  8  6  1  0  0  0  0
  8  9  1  0  0  0  0
  8 57  1  1  0  0  0
  9 58  1  0  0  0  0
 10  8  1  0  0  0  0
 10 11  1  0  0  0  0
 10 59  1  1  0  0  0
 11 60  1  0  0  0  0
 12 10  1  0  0  0  0
 12  7  1  0  0  0  0
 12 13  1  0  0  0  0
 12 61  1  6  0  0  0
 14 13  1  0  0  0  0
 14 62  1  0  0  0  0
 15 14  2  0  0  0  0
 16 15  1  0  0  0  0
 17 16  2  0  0  0  0
 18 17  1  0  0  0  0
 18 63  1  0  0  0  0
 18 64  1  0  0  0  0
 19 17  1  0  0  0  0
 20 19  2  0  0  0  0
 20 65  1  0  0  0  0
 21 20  1  0  0  0  0
 22 16  1  0  0  0  0
 22 21  2  0  0  0  0
 22 13  1  0  0  0  0
 24 23  1  0  0  0  0
 25 24  2  0  0  0  0
 26 24  1  0  0  0  0
 26 66  1  0  0  0  0
 27 26  1  0  0  0  0
 28 27  2  0  0  0  0
 29 27  1  0  0  0  0
 30 29  2  0  0  0  0
 31 30  1  0  0  0  0
 32 31  2  0  0  0  0
 32 67  1  0  0  0  0
 33 32  1  0  0  0  0
 34 33  1  0  0  0  0
 34 68  1  0  0  0  0
 34 69  1  0  0  0  0
 34 70  1  0  0  0  0
 35 33  2  0  0  0  0
 36 35  1  0  0  0  0
 36 71  1  0  0  0  0
 36 72  1  0  0  0  0
 36 73  1  0  0  0  0
 37 35  1  0  0  0  0
 37 74  1  0  0  0  0
 38 37  2  0  0  0  0
 38 31  1  0  0  0  0
 39 38  1  0  0  0  0
 40 39  1  0  0  0  0
 40 29  1  0  0  0  0
 40 23  2  0  0  0  0
 41 39  1  0  0  0  0
 41 75  1  0  0  0  0
 41 76  1  0  0  0  0
 42 41  1  0  0  0  0
 42 43  1  0  0  0  0
 42 77  1  1  0  0  0
 43 78  1  0  0  0  0
 44 42  1  0  0  0  0
 44 45  1  0  0  0  0
 44 79  1  6  0  0  0
 45 80  1  0  0  0  0
 46 44  1  0  0  0  0
 46 47  1  0  0  0  0
 46 81  1  1  0  0  0
 47 82  1  0  0  0  0
 48 46  1  0  0  0  0
 48 83  1  0  0  0  0
 48 84  1  0  0  0  0
 49 48  1  0  0  0  0
 50 49  1  0  0  0  0
 50 51  2  6  0  0  0
 52 50  1  0  0  0  0
 53 50  1  0  0  0  0
 53  1  1  0  0  0  0
M  CHG  2   3  -1  52  -1
M  END
$$$$
