03_receptors/2V5Z/native_SAG.pdb
 OpenBabel08202615273D

 39 40  0  0  1  0  0  0  0  0999 V2000
   47.1530  159.9800   32.0100 F   0  0  0  0  0  0  0  0  0  0  0  0
   48.3850  160.2610   31.8350 C   0  0  0  0  0  0  0  0  0  0  0  0
   49.1650  159.5160   30.9410 C   0  0  0  0  0  0  0  0  0  0  0  0
   48.9530  161.3100   32.5280 C   0  0  0  0  0  0  0  0  0  0  0  0
   50.2720  161.6360   32.3310 C   0  0  0  0  0  0  0  0  0  0  0  0
   51.0530  160.9240   31.4430 C   0  0  0  0  0  0  0  0  0  0  0  0
   50.4850  159.8520   30.7440 C   0  0  0  0  0  0  0  0  0  0  0  0
   51.3280  159.0110   29.7940 C   0  0  0  0  0  0  0  0  0  0  0  0
   51.0540  157.6380   29.9830 O   0  0  0  0  0  0  0  0  0  0  0  0
   51.5330  156.6540   29.1670 C   0  0  0  0  0  0  0  0  0  0  0  0
   51.0810  155.3840   29.3060 C   0  0  0  0  0  0  0  0  0  0  0  0
   51.5320  154.3980   28.4740 C   0  0  0  0  0  0  0  0  0  0  0  0
   52.4340  156.8960   28.1560 C   0  0  0  0  0  0  0  0  0  0  0  0
   52.8680  155.8980   27.2900 C   0  0  0  0  0  0  0  0  0  0  0  0
   52.4150  154.6130   27.4780 C   0  0  0  0  0  0  0  0  0  0  0  0
   52.7430  153.5590   26.7790 C   0  0  0  0  0  0  0  0  0  0  0  0
   53.8220  153.5990   25.8650 N   0  0  0  0  0  0  0  0  0  0  0  0
   54.0270  152.5730   24.8680 C   0  0  1  0  0  0  0  0  0  0  0  0
   54.3110  153.2250   23.5410 C   0  0  0  0  0  0  0  0  0  0  0  0
   55.2770  151.8310   25.1690 C   0  0  0  0  0  0  0  0  0  0  0  0
   55.3880  150.7070   24.7610 O   0  0  0  0  0  0  0  0  0  0  0  0
   56.2150  152.4970   25.8380 N   0  0  0  0  0  0  0  0  0  0  0  0
   48.7516  158.7188   30.4324 H   0  0  0  0  0  0  0  0  0  0  0  0
   48.3841  161.8518   33.1972 H   0  0  0  0  0  0  0  0  0  0  0  0
   50.6852  162.4240   32.8539 H   0  0  0  0  0  0  0  0  0  0  0  0
   52.0423  161.1784   31.2963 H   0  0  0  0  0  0  0  0  0  0  0  0
   51.0985  159.2814   28.7845 H   0  0  0  0  0  0  0  0  0  0  0  0
   52.3636  159.1909   29.9943 H   0  0  0  0  0  0  0  0  0  0  0  0
   50.3938  155.1606   30.0428 H   0  0  0  0  0  0  0  0  0  0  0  0
   51.1783  153.4389   28.6155 H   0  0  0  0  0  0  0  0  0  0  0  0
   52.8012  157.8529   28.0358 H   0  0  0  0  0  0  0  0  0  0  0  0
   53.5187  156.1178   26.5197 H   0  0  0  0  0  0  0  0  0  0  0  0
   52.2072  152.6847   26.8953 H   0  0  0  0  0  0  0  0  0  0  0  0
   53.1602  151.9458   24.8571 H   0  0  0  0  0  0  0  0  0  0  0  0
   55.1865  153.8346   23.6232 H   0  0  0  0  0  0  0  0  0  0  0  0
   53.4780  153.8336   23.2571 H   0  0  0  0  0  0  0  0  0  0  0  0
   54.4703  152.4702   22.7996 H   0  0  0  0  0  0  0  0  0  0  0  0
   57.0649  152.0552   26.0654 H   0  0  0  0  0  0  0  0  0  0  0  0
   56.0590  153.4315   26.1055 H   0  0  0  0  0  0  0  0  0  0  0  0
  2  1  1  0  0  0  0
  2  4  1  0  0  0  0
  3  2  2  0  0  0  0
  3 23  1  0  0  0  0
  4 24  1  0  0  0  0
  5  4  2  0  0  0  0
  5 25  1  0  0  0  0
  6  5  1  0  0  0  0
  6 26  1  0  0  0  0
  7  3  1  0  0  0  0
  7  6  2  0  0  0  0
  8  9  1  0  0  0  0
  8  7  1  0  0  0  0
  8 27  1  0  0  0  0
  8 28  1  0  0  0  0
 10 11  1  0  0  0  0
 10  9  1  0  0  0  0
 11 29  1  0  0  0  0
 12 11  2  0  0  0  0
 12 30  1  0  0  0  0
 13 10  2  0  0  0  0
 13 31  1  0  0  0  0
 14 15  2  0  0  0  0
 14 13  1  0  0  0  0
 14 32  1  0  0  0  0
 15 12  1  0  0  0  0
 16 15  1  0  0  0  0
 16 33  1  0  0  0  0
 17 16  2  0  0  0  0
 18 20  1  0  0  0  0
 18 17  1  0  0  0  0
 18 34  1  6  0  0  0
 19 18  1  0  0  0  0
 19 35  1  0  0  0  0
 19 36  1  0  0  0  0
 19 37  1  0  0  0  0
 20 22  1  0  0  0  0
 21 20  2  0  0  0  0
 22 38  1  0  0  0  0
 22 39  1  0  0  0  0
M  END
$$$$
