native_9IV_out
     RDKit          3D

 37 40  0  0  0  0  0  0  0  0999 V2000
   19.4310  -22.7410   40.2780 Cl  0  0  0  0  0  0  0  0  0  0  0  0
   18.8540  -23.0530   38.6820 C   0  0  0  0  0  0  0  0  0  0  0  0
   19.1020  -22.1070   37.6850 C   0  0  0  0  0  0  0  0  0  0  0  0
   18.6490  -22.3290   36.3820 C   0  0  0  0  0  0  0  0  0  0  0  0
   17.9550  -23.4990   36.0740 C   0  0  0  0  0  0  0  0  0  0  0  0
   17.7060  -24.4470   37.0680 C   0  0  0  0  0  0  0  0  0  0  0  0
   18.1400  -24.2170   38.3790 C   0  0  0  0  0  0  0  0  0  0  0  0
   17.9380  -25.1590   39.3630 O   0  0  0  0  0  0  0  0  0  0  0  0
   19.0430  -25.8470   39.8080 C   0  0  0  0  0  0  0  0  0  0  0  0
   20.1460  -26.1220   38.9980 C   0  0  0  0  0  0  0  0  0  0  0  0
   21.2180  -26.8540   39.5140 C   0  0  0  0  0  0  0  0  0  0  0  0
   21.2070  -27.3200   40.8360 C   0  0  0  0  0  0  0  0  0  0  0  0
   22.3080  -28.0780   41.2860 N   0  0  0  0  0  0  0  0  0  0  0  0
   22.9850  -27.9760   42.5120 C   0  0  0  0  0  0  0  0  0  0  0  0
   22.6770  -26.9080   43.2900 N   0  0  0  0  0  0  0  0  0  0  0  0
   23.2960  -26.7760   44.4800 C   0  0  0  0  0  0  0  0  0  0  0  0
   24.2050  -27.5910   45.0390 N   0  0  0  0  0  0  0  0  0  0  0  0
   24.4570  -28.6480   44.2530 C   0  0  0  0  0  0  0  0  0  0  0  0
   25.3200  -29.6600   44.5680 N   0  0  0  0  0  0  0  0  0  0  0  0
   25.3260  -30.5940   43.5630 C   0  0  0  0  0  0  0  0  0  0  0  0
   24.4520  -30.1640   42.5880 C   0  0  0  0  0  0  0  0  0  0  0  0
   23.9040  -28.9170   43.0100 C   0  0  0  0  0  0  0  0  0  0  0  0
   20.0740  -27.0720   41.6200 C   0  0  0  0  0  0  0  0  0  0  0  0
   18.9970  -26.3400   41.1100 C   0  0  0  0  0  0  0  0  0  0  0  0
   19.6543  -21.1866   37.9257 H   0  0  0  0  0  0  0  0  0  0  0  0
   18.8398  -21.5807   35.5987 H   0  0  0  0  0  0  0  0  0  0  0  0
   17.6035  -23.6749   35.0466 H   0  0  0  0  0  0  0  0  0  0  0  0
   17.1688  -25.3747   36.8212 H   0  0  0  0  0  0  0  0  0  0  0  0
   20.1709  -25.7640   37.9582 H   0  0  0  0  0  0  0  0  0  0  0  0
   22.0853  -27.0683   38.8722 H   0  0  0  0  0  0  0  0  0  0  0  0
   22.6430  -28.7630   40.6640 H   0  0  0  0  0  0  0  0  0  0  0  0
   23.0216  -25.8877   45.0680 H   0  0  0  0  0  0  0  0  0  0  0  0
   25.8560  -29.7120   45.3920 H   0  0  0  0  0  0  0  0  0  0  0  0
   25.9209  -31.5189   43.5397 H   0  0  0  0  0  0  0  0  0  0  0  0
   24.2185  -30.6896   41.6504 H   0  0  0  0  0  0  0  0  0  0  0  0
   20.0303  -27.4574   42.6493 H   0  0  0  0  0  0  0  0  0  0  0  0
   18.1130  -26.1534   41.7374 H   0  0  0  0  0  0  0  0  0  0  0  0
  1  2  1  0
  2  3  2  0
  3  4  1  0
  4  5  2  0
  5  6  1  0
  6  7  2  0
  7  8  1  0
  8  9  1  0
  9 10  2  0
 10 11  1  0
 11 12  2  0
 12 13  1  0
 13 14  1  0
 14 15  2  0
 15 16  1  0
 16 17  2  0
 17 18  1  0
 18 19  1  0
 19 20  1  0
 20 21  2  0
 21 22  1  0
 12 23  1  0
 23 24  2  0
  7  2  1  0
 24  9  1  0
 22 14  1  0
 22 18  2  0
  3 25  1  0
  4 26  1  0
  5 27  1  0
  6 28  1  0
 10 29  1  0
 11 30  1  0
 13 31  1  0
 16 32  1  0
 19 33  1  0
 20 34  1  0
 21 35  1  0
 23 36  1  0
 24 37  1  0
M  END
>  <meeko>  (1) 
{"is_sidechain": [false], "free_energy": -8.653, "intermolecular_energy": -10.676, "internal_energy": -0.146}

$$$$
native_9IV_out
     RDKit          3D

 37 40  0  0  0  0  0  0  0  0999 V2000
   18.1240  -23.9300   36.9380 Cl  0  0  0  0  0  0  0  0  0  0  0  0
   18.5950  -24.1180   38.5870 C   0  0  0  0  0  0  0  0  0  0  0  0
   19.2840  -23.0750   39.2090 C   0  0  0  0  0  0  0  0  0  0  0  0
   19.6790  -23.1950   40.5430 C   0  0  0  0  0  0  0  0  0  0  0  0
   19.3800  -24.3540   41.2590 C   0  0  0  0  0  0  0  0  0  0  0  0
   18.6910  -25.3990   40.6410 C   0  0  0  0  0  0  0  0  0  0  0  0
   18.3130  -25.2900   39.2970 C   0  0  0  0  0  0  0  0  0  0  0  0
   17.5980  -26.2950   38.6830 O   0  0  0  0  0  0  0  0  0  0  0  0
   18.3020  -27.4040   38.2750 C   0  0  0  0  0  0  0  0  0  0  0  0
   18.7320  -27.5920   36.9610 C   0  0  0  0  0  0  0  0  0  0  0  0
   19.4150  -28.7620   36.6170 C   0  0  0  0  0  0  0  0  0  0  0  0
   19.6760  -29.7540   37.5720 C   0  0  0  0  0  0  0  0  0  0  0  0
   20.3440  -30.9240   37.1530 N   0  0  0  0  0  0  0  0  0  0  0  0
   19.7840  -32.1660   36.8160 C   0  0  0  0  0  0  0  0  0  0  0  0
   19.8020  -32.5060   35.5020 N   0  0  0  0  0  0  0  0  0  0  0  0
   19.2830  -33.6940   35.1350 C   0  0  0  0  0  0  0  0  0  0  0  0
   18.7380  -34.6400   35.9160 N   0  0  0  0  0  0  0  0  0  0  0  0
   18.7690  -34.2790   37.2080 C   0  0  0  0  0  0  0  0  0  0  0  0
   18.3090  -35.0510   38.2390 N   0  0  0  0  0  0  0  0  0  0  0  0
   18.5110  -34.4010   39.4300 C   0  0  0  0  0  0  0  0  0  0  0  0
   19.1090  -33.1900   39.1490 C   0  0  0  0  0  0  0  0  0  0  0  0
   19.2640  -33.0960   37.7350 C   0  0  0  0  0  0  0  0  0  0  0  0
   19.1990  -29.5680   38.8750 C   0  0  0  0  0  0  0  0  0  0  0  0
   18.5140  -28.4010   39.2260 C   0  0  0  0  0  0  0  0  0  0  0  0
   19.5159  -22.1579   38.6477 H   0  0  0  0  0  0  0  0  0  0  0  0
   20.2266  -22.3745   41.0297 H   0  0  0  0  0  0  0  0  0  0  0  0
   19.6873  -24.4447   42.3113 H   0  0  0  0  0  0  0  0  0  0  0  0
   18.4450  -26.3079   41.2096 H   0  0  0  0  0  0  0  0  0  0  0  0
   18.5345  -26.8232   36.1995 H   0  0  0  0  0  0  0  0  0  0  0  0
   19.7530  -28.9065   35.5802 H   0  0  0  0  0  0  0  0  0  0  0  0
   21.3240  -30.8610   37.0900 H   0  0  0  0  0  0  0  0  0  0  0  0
   19.3092  -33.9171   34.0582 H   0  0  0  0  0  0  0  0  0  0  0  0
   17.8940  -35.9380   38.1420 H   0  0  0  0  0  0  0  0  0  0  0  0
   18.2443  -34.7774   40.4286 H   0  0  0  0  0  0  0  0  0  0  0  0
   19.4124  -32.4314   39.8855 H   0  0  0  0  0  0  0  0  0  0  0  0
   19.3651  -30.3492   39.6314 H   0  0  0  0  0  0  0  0  0  0  0  0
   18.1422  -28.2694   40.2529 H   0  0  0  0  0  0  0  0  0  0  0  0
  1  2  1  0
  2  3  2  0
  3  4  1  0
  4  5  2  0
  5  6  1  0
  6  7  2  0
  7  8  1  0
  8  9  1  0
  9 10  2  0
 10 11  1  0
 11 12  2  0
 12 13  1  0
 13 14  1  0
 14 15  2  0
 15 16  1  0
 16 17  2  0
 17 18  1  0
 18 19  1  0
 19 20  1  0
 20 21  2  0
 21 22  1  0
 12 23  1  0
 23 24  2  0
  7  2  1  0
 24  9  1  0
 22 14  1  0
 22 18  2  0
  3 25  1  0
  4 26  1  0
  5 27  1  0
  6 28  1  0
 10 29  1  0
 11 30  1  0
 13 31  1  0
 16 32  1  0
 19 33  1  0
 20 34  1  0
 21 35  1  0
 23 36  1  0
 24 37  1  0
M  END
>  <meeko>  (2) 
{"is_sidechain": [false], "free_energy": -8.46, "intermolecular_energy": -9.835, "internal_energy": -0.748}

$$$$
native_9IV_out
     RDKit          3D

 37 40  0  0  0  0  0  0  0  0999 V2000
   16.6520  -24.6770   35.8160 Cl  0  0  0  0  0  0  0  0  0  0  0  0
   17.7380  -24.0950   37.0230 C   0  0  0  0  0  0  0  0  0  0  0  0
   18.3290  -22.8420   36.8430 C   0  0  0  0  0  0  0  0  0  0  0  0
   19.2120  -22.3410   37.8020 C   0  0  0  0  0  0  0  0  0  0  0  0
   19.5010  -23.0880   38.9440 C   0  0  0  0  0  0  0  0  0  0  0  0
   18.9120  -24.3400   39.1280 C   0  0  0  0  0  0  0  0  0  0  0  0
   18.0430  -24.8530   38.1580 C   0  0  0  0  0  0  0  0  0  0  0  0
   17.4220  -26.0700   38.3420 O   0  0  0  0  0  0  0  0  0  0  0  0
   18.1620  -27.1970   38.0690 C   0  0  0  0  0  0  0  0  0  0  0  0
   18.7710  -27.4280   36.8360 C   0  0  0  0  0  0  0  0  0  0  0  0
   19.4800  -28.6140   36.6250 C   0  0  0  0  0  0  0  0  0  0  0  0
   19.5900  -29.5800   37.6350 C   0  0  0  0  0  0  0  0  0  0  0  0
   20.2940  -30.7680   37.3480 N   0  0  0  0  0  0  0  0  0  0  0  0
   19.7710  -32.0120   36.9620 C   0  0  0  0  0  0  0  0  0  0  0  0
   19.8240  -32.3100   35.6380 N   0  0  0  0  0  0  0  0  0  0  0  0
   19.3420  -33.4990   35.2240 C   0  0  0  0  0  0  0  0  0  0  0  0
   18.8040  -34.4810   35.9650 N   0  0  0  0  0  0  0  0  0  0  0  0
   18.7990  -34.1600   37.2670 C   0  0  0  0  0  0  0  0  0  0  0  0
   18.3360  -34.9730   38.2650 N   0  0  0  0  0  0  0  0  0  0  0  0
   18.4990  -34.3550   39.4790 C   0  0  0  0  0  0  0  0  0  0  0  0
   19.0730  -33.1230   39.2470 C   0  0  0  0  0  0  0  0  0  0  0  0
   19.2550  -32.9820   37.8400 C   0  0  0  0  0  0  0  0  0  0  0  0
   18.9350  -29.3510   38.8510 C   0  0  0  0  0  0  0  0  0  0  0  0
   18.2240  -28.1670   39.0680 C   0  0  0  0  0  0  0  0  0  0  0  0
   18.0987  -22.2496   35.9452 H   0  0  0  0  0  0  0  0  0  0  0  0
   19.6801  -21.3562   37.6566 H   0  0  0  0  0  0  0  0  0  0  0  0
   20.1937  -22.6901   39.7002 H   0  0  0  0  0  0  0  0  0  0  0  0
   19.1306  -24.9231   40.0347 H   0  0  0  0  0  0  0  0  0  0  0  0
   18.6938  -26.6802   36.0330 H   0  0  0  0  0  0  0  0  0  0  0  0
   19.9592  -28.7922   35.6510 H   0  0  0  0  0  0  0  0  0  0  0  0
   21.2740  -30.7190   37.4290 H   0  0  0  0  0  0  0  0  0  0  0  0
   19.3964  -33.6887   34.1419 H   0  0  0  0  0  0  0  0  0  0  0  0
   17.9450  -35.8660   38.1320 H   0  0  0  0  0  0  0  0  0  0  0  0
   18.2218  -34.7678   40.4602 H   0  0  0  0  0  0  0  0  0  0  0  0
   19.3428  -32.3802   40.0122 H   0  0  0  0  0  0  0  0  0  0  0  0
   18.9803  -30.1113   39.6447 H   0  0  0  0  0  0  0  0  0  0  0  0
   17.7131  -28.0008   40.0279 H   0  0  0  0  0  0  0  0  0  0  0  0
  1  2  1  0
  2  3  2  0
  3  4  1  0
  4  5  2  0
  5  6  1  0
  6  7  2  0
  7  8  1  0
  8  9  1  0
  9 10  2  0
 10 11  1  0
 11 12  2  0
 12 13  1  0
 13 14  1  0
 14 15  2  0
 15 16  1  0
 16 17  2  0
 17 18  1  0
 18 19  1  0
 19 20  1  0
 20 21  2  0
 21 22  1  0
 12 23  1  0
 23 24  2  0
  7  2  1  0
 24  9  1  0
 22 14  1  0
 22 18  2  0
  3 25  1  0
  4 26  1  0
  5 27  1  0
  6 28  1  0
 10 29  1  0
 11 30  1  0
 13 31  1  0
 16 32  1  0
 19 33  1  0
 20 34  1  0
 21 35  1  0
 23 36  1  0
 24 37  1  0
M  END
>  <meeko>  (3) 
{"is_sidechain": [false], "free_energy": -8.453, "intermolecular_energy": -9.682, "internal_energy": -0.893}

$$$$
native_9IV_out
     RDKit          3D

 37 40  0  0  0  0  0  0  0  0999 V2000
   19.6650  -24.4650   40.2560 Cl  0  0  0  0  0  0  0  0  0  0  0  0
   18.9120  -23.9140   38.8050 C   0  0  0  0  0  0  0  0  0  0  0  0
   19.3400  -22.7060   38.2470 C   0  0  0  0  0  0  0  0  0  0  0  0
   18.7520  -22.2310   37.0720 C   0  0  0  0  0  0  0  0  0  0  0  0
   17.7430  -22.9660   36.4500 C   0  0  0  0  0  0  0  0  0  0  0  0
   17.3140  -24.1740   37.0030 C   0  0  0  0  0  0  0  0  0  0  0  0
   17.8860  -24.6400   38.1920 C   0  0  0  0  0  0  0  0  0  0  0  0
   17.5020  -25.8490   38.7310 O   0  0  0  0  0  0  0  0  0  0  0  0
   18.2220  -26.9590   38.3520 C   0  0  0  0  0  0  0  0  0  0  0  0
   18.5800  -27.2200   37.0290 C   0  0  0  0  0  0  0  0  0  0  0  0
   19.2840  -28.3860   36.7190 C   0  0  0  0  0  0  0  0  0  0  0  0
   19.6390  -29.3040   37.7180 C   0  0  0  0  0  0  0  0  0  0  0  0
   20.3240  -30.4760   37.3350 N   0  0  0  0  0  0  0  0  0  0  0  0
   19.7800  -31.7270   37.0040 C   0  0  0  0  0  0  0  0  0  0  0  0
   19.8160  -32.0780   35.6930 N   0  0  0  0  0  0  0  0  0  0  0  0
   19.3130  -33.2760   35.3320 C   0  0  0  0  0  0  0  0  0  0  0  0
   18.7680  -34.2190   36.1160 N   0  0  0  0  0  0  0  0  0  0  0  0
   18.7810  -33.8460   37.4040 C   0  0  0  0  0  0  0  0  0  0  0  0
   18.3170  -34.6120   38.4380 N   0  0  0  0  0  0  0  0  0  0  0  0
   18.5000  -33.9480   39.6250 C   0  0  0  0  0  0  0  0  0  0  0  0
   19.0890  -32.7350   39.3380 C   0  0  0  0  0  0  0  0  0  0  0  0
   19.2590  -32.6530   37.9250 C   0  0  0  0  0  0  0  0  0  0  0  0
   19.2330  -29.0470   39.0330 C   0  0  0  0  0  0  0  0  0  0  0  0
   18.5280  -27.8830   39.3500 C   0  0  0  0  0  0  0  0  0  0  0  0
   20.1403  -22.1289   38.7333 H   0  0  0  0  0  0  0  0  0  0  0  0
   19.0850  -21.2770   36.6373 H   0  0  0  0  0  0  0  0  0  0  0  0
   17.2845  -22.5933   35.5222 H   0  0  0  0  0  0  0  0  0  0  0  0
   16.5270  -24.7589   36.5045 H   0  0  0  0  0  0  0  0  0  0  0  0
   18.3090  -26.5105   36.2333 H   0  0  0  0  0  0  0  0  0  0  0  0
   19.5644  -28.5874   35.6746 H   0  0  0  0  0  0  0  0  0  0  0  0
   21.3050  -30.4080   37.2960 H   0  0  0  0  0  0  0  0  0  0  0  0
   19.3547  -33.5101   34.2580 H   0  0  0  0  0  0  0  0  0  0  0  0
   17.9120  -35.5040   38.3450 H   0  0  0  0  0  0  0  0  0  0  0  0
   18.2263  -34.3169   40.6245 H   0  0  0  0  0  0  0  0  0  0  0  0
   19.3769  -31.9662   40.0701 H   0  0  0  0  0  0  0  0  0  0  0  0
   19.4720  -29.7704   39.8265 H   0  0  0  0  0  0  0  0  0  0  0  0
   18.2143  -27.6957   40.3875 H   0  0  0  0  0  0  0  0  0  0  0  0
  1  2  1  0
  2  3  2  0
  3  4  1  0
  4  5  2  0
  5  6  1  0
  6  7  2  0
  7  8  1  0
  8  9  1  0
  9 10  2  0
 10 11  1  0
 11 12  2  0
 12 13  1  0
 13 14  1  0
 14 15  2  0
 15 16  1  0
 16 17  2  0
 17 18  1  0
 18 19  1  0
 19 20  1  0
 20 21  2  0
 21 22  1  0
 12 23  1  0
 23 24  2  0
  7  2  1  0
 24  9  1  0
 22 14  1  0
 22 18  2  0
  3 25  1  0
  4 26  1  0
  5 27  1  0
  6 28  1  0
 10 29  1  0
 11 30  1  0
 13 31  1  0
 16 32  1  0
 19 33  1  0
 20 34  1  0
 21 35  1  0
 23 36  1  0
 24 37  1  0
M  END
>  <meeko>  (4) 
{"is_sidechain": [false], "free_energy": -8.42, "intermolecular_energy": -9.771, "internal_energy": -0.764}

$$$$
native_9IV_out
     RDKit          3D

 37 40  0  0  0  0  0  0  0  0999 V2000
   22.6540  -26.1070   45.3900 Cl  0  0  0  0  0  0  0  0  0  0  0  0
   23.2840  -27.3870   44.4190 C   0  0  0  0  0  0  0  0  0  0  0  0
   24.2110  -28.2640   44.9880 C   0  0  0  0  0  0  0  0  0  0  0  0
   24.7380  -29.3110   44.2300 C   0  0  0  0  0  0  0  0  0  0  0  0
   24.3370  -29.4870   42.9050 C   0  0  0  0  0  0  0  0  0  0  0  0
   23.4100  -28.6130   42.3330 C   0  0  0  0  0  0  0  0  0  0  0  0
   22.8960  -27.5490   43.0850 C   0  0  0  0  0  0  0  0  0  0  0  0
   21.9510  -26.7010   42.5500 O   0  0  0  0  0  0  0  0  0  0  0  0
   21.3610  -27.0880   41.3690 C   0  0  0  0  0  0  0  0  0  0  0  0
   21.7770  -26.6220   40.1210 C   0  0  0  0  0  0  0  0  0  0  0  0
   21.1060  -27.0380   38.9680 C   0  0  0  0  0  0  0  0  0  0  0  0
   20.0170  -27.9170   39.0420 C   0  0  0  0  0  0  0  0  0  0  0  0
   19.3640  -28.2740   37.8440 N   0  0  0  0  0  0  0  0  0  0  0  0
   19.6140  -29.3830   37.0200 C   0  0  0  0  0  0  0  0  0  0  0  0
   19.9880  -29.1200   35.7420 N   0  0  0  0  0  0  0  0  0  0  0  0
   20.2480  -30.1550   34.9190 C   0  0  0  0  0  0  0  0  0  0  0  0
   20.2010  -31.4680   35.1950 N   0  0  0  0  0  0  0  0  0  0  0  0
   19.8600  -31.6830   36.4740 C   0  0  0  0  0  0  0  0  0  0  0  0
   19.7560  -32.9180   37.0520 N   0  0  0  0  0  0  0  0  0  0  0  0
   19.4150  -32.7850   38.3740 C   0  0  0  0  0  0  0  0  0  0  0  0
   19.2960  -31.4370   38.6400 C   0  0  0  0  0  0  0  0  0  0  0  0
   19.5630  -30.7270   37.4330 C   0  0  0  0  0  0  0  0  0  0  0  0
   19.5860  -28.3390   40.3060 C   0  0  0  0  0  0  0  0  0  0  0  0
   20.2520  -27.9270   41.4630 C   0  0  0  0  0  0  0  0  0  0  0  0
   24.5256  -28.1294   46.0334 H   0  0  0  0  0  0  0  0  0  0  0  0
   25.4706  -29.9985   44.6779 H   0  0  0  0  0  0  0  0  0  0  0  0
   24.7513  -30.3147   42.3107 H   0  0  0  0  0  0  0  0  0  0  0  0
   23.0838  -28.7601   41.2928 H   0  0  0  0  0  0  0  0  0  0  0  0
   22.6291  -25.9305   40.0453 H   0  0  0  0  0  0  0  0  0  0  0  0
   21.4380  -26.6695   37.9862 H   0  0  0  0  0  0  0  0  0  0  0  0
   18.6450  -27.6710   37.5480 H   0  0  0  0  0  0  0  0  0  0  0  0
   20.5352  -29.8904   33.8906 H   0  0  0  0  0  0  0  0  0  0  0  0
   19.9040  -33.7750   36.5890 H   0  0  0  0  0  0  0  0  0  0  0  0
   19.2639  -33.6048   39.0917 H   0  0  0  0  0  0  0  0  0  0  0  0
   19.0403  -30.9890   39.6115 H   0  0  0  0  0  0  0  0  0  0  0  0
   18.7127  -29.0027   40.3888 H   0  0  0  0  0  0  0  0  0  0  0  0
   19.9008  -28.2651   42.4491 H   0  0  0  0  0  0  0  0  0  0  0  0
  1  2  1  0
  2  3  2  0
  3  4  1  0
  4  5  2  0
  5  6  1  0
  6  7  2  0
  7  8  1  0
  8  9  1  0
  9 10  2  0
 10 11  1  0
 11 12  2  0
 12 13  1  0
 13 14  1  0
 14 15  2  0
 15 16  1  0
 16 17  2  0
 17 18  1  0
 18 19  1  0
 19 20  1  0
 20 21  2  0
 21 22  1  0
 12 23  1  0
 23 24  2  0
  7  2  1  0
 24  9  1  0
 22 14  1  0
 22 18  2  0
  3 25  1  0
  4 26  1  0
  5 27  1  0
  6 28  1  0
 10 29  1  0
 11 30  1  0
 13 31  1  0
 16 32  1  0
 19 33  1  0
 20 34  1  0
 21 35  1  0
 23 36  1  0
 24 37  1  0
M  END
>  <meeko>  (5) 
{"is_sidechain": [false], "free_energy": -8.09, "intermolecular_energy": -9.529, "internal_energy": -0.598}

$$$$
native_9IV_out
     RDKit          3D

 37 40  0  0  0  0  0  0  0  0999 V2000
   19.6650  -32.5750   35.4710 Cl  0  0  0  0  0  0  0  0  0  0  0  0
   19.3080  -32.9290   37.1210 C   0  0  0  0  0  0  0  0  0  0  0  0
   18.6170  -34.1060   37.4180 C   0  0  0  0  0  0  0  0  0  0  0  0
   18.3130  -34.4230   38.7440 C   0  0  0  0  0  0  0  0  0  0  0  0
   18.7060  -33.5690   39.7750 C   0  0  0  0  0  0  0  0  0  0  0  0
   19.3980  -32.3920   39.4820 C   0  0  0  0  0  0  0  0  0  0  0  0
   19.6840  -32.0610   38.1520 C   0  0  0  0  0  0  0  0  0  0  0  0
   20.4010  -30.9240   37.8480 O   0  0  0  0  0  0  0  0  0  0  0  0
   19.6930  -29.7510   37.7340 C   0  0  0  0  0  0  0  0  0  0  0  0
   19.6620  -28.9890   36.5650 C   0  0  0  0  0  0  0  0  0  0  0  0
   18.9450  -27.7910   36.5370 C   0  0  0  0  0  0  0  0  0  0  0  0
   18.2520  -27.3360   37.6690 C   0  0  0  0  0  0  0  0  0  0  0  0
   17.5720  -26.1040   37.5840 N   0  0  0  0  0  0  0  0  0  0  0  0
   18.1000  -24.8120   37.7350 C   0  0  0  0  0  0  0  0  0  0  0  0
   17.9810  -23.9770   36.6720 N   0  0  0  0  0  0  0  0  0  0  0  0
   18.4650  -22.7240   36.7760 C   0  0  0  0  0  0  0  0  0  0  0  0
   19.0650  -22.1510   37.8320 N   0  0  0  0  0  0  0  0  0  0  0  0
   19.1350  -22.9970   38.8690 C   0  0  0  0  0  0  0  0  0  0  0  0
   19.6690  -22.6870   40.0890 N   0  0  0  0  0  0  0  0  0  0  0  0
   19.5610  -23.7640   40.9310 C   0  0  0  0  0  0  0  0  0  0  0  0
   18.9470  -24.7810   40.2300 C   0  0  0  0  0  0  0  0  0  0  0  0
   18.6850  -24.3080   38.9110 C   0  0  0  0  0  0  0  0  0  0  0  0
   18.3310  -28.0900   38.8460 C   0  0  0  0  0  0  0  0  0  0  0  0
   19.0470  -29.2900   38.8800 C   0  0  0  0  0  0  0  0  0  0  0  0
   18.3120  -34.7838   36.6071 H   0  0  0  0  0  0  0  0  0  0  0  0
   17.7631  -35.3471   38.9757 H   0  0  0  0  0  0  0  0  0  0  0  0
   18.4706  -33.8230   40.8191 H   0  0  0  0  0  0  0  0  0  0  0  0
   19.7183  -31.7250   40.2960 H   0  0  0  0  0  0  0  0  0  0  0  0
   20.2005  -29.3310   35.6689 H   0  0  0  0  0  0  0  0  0  0  0  0
   18.9232  -27.1946   35.6129 H   0  0  0  0  0  0  0  0  0  0  0  0
   16.6070  -26.1560   37.3960 H   0  0  0  0  0  0  0  0  0  0  0  0
   18.3548  -22.0905   35.8835 H   0  0  0  0  0  0  0  0  0  0  0  0
   20.0720  -21.8210   40.3280 H   0  0  0  0  0  0  0  0  0  0  0  0
   19.9021  -23.8088   41.9758 H   0  0  0  0  0  0  0  0  0  0  0  0
   18.7028  -25.7802   40.6198 H   0  0  0  0  0  0  0  0  0  0  0  0
   17.8236  -27.7339   39.7547 H   0  0  0  0  0  0  0  0  0  0  0  0
   19.1008  -29.8713   39.8123 H   0  0  0  0  0  0  0  0  0  0  0  0
  1  2  1  0
  2  3  2  0
  3  4  1  0
  4  5  2  0
  5  6  1  0
  6  7  2  0
  7  8  1  0
  8  9  1  0
  9 10  2  0
 10 11  1  0
 11 12  2  0
 12 13  1  0
 13 14  1  0
 14 15  2  0
 15 16  1  0
 16 17  2  0
 17 18  1  0
 18 19  1  0
 19 20  1  0
 20 21  2  0
 21 22  1  0
 12 23  1  0
 23 24  2  0
  7  2  1  0
 24  9  1  0
 22 14  1  0
 22 18  2  0
  3 25  1  0
  4 26  1  0
  5 27  1  0
  6 28  1  0
 10 29  1  0
 11 30  1  0
 13 31  1  0
 16 32  1  0
 19 33  1  0
 20 34  1  0
 21 35  1  0
 23 36  1  0
 24 37  1  0
M  END
>  <meeko>  (6) 
{"is_sidechain": [false], "free_energy": -8.041, "intermolecular_energy": -9.395, "internal_energy": -0.672}

$$$$
native_9IV_out
     RDKit          3D

 37 40  0  0  0  0  0  0  0  0999 V2000
   19.3510  -24.4270   40.1680 Cl  0  0  0  0  0  0  0  0  0  0  0  0
   18.8580  -23.8850   38.6060 C   0  0  0  0  0  0  0  0  0  0  0  0
   19.4000  -22.6970   38.1090 C   0  0  0  0  0  0  0  0  0  0  0  0
   19.0230  -22.2320   36.8470 C   0  0  0  0  0  0  0  0  0  0  0  0
   18.1100  -22.9550   36.0790 C   0  0  0  0  0  0  0  0  0  0  0  0
   17.5670  -24.1420   36.5720 C   0  0  0  0  0  0  0  0  0  0  0  0
   17.9270  -24.6000   37.8460 C   0  0  0  0  0  0  0  0  0  0  0  0
   17.4310  -25.7900   38.3320 O   0  0  0  0  0  0  0  0  0  0  0  0
   18.1680  -26.9240   38.0790 C   0  0  0  0  0  0  0  0  0  0  0  0
   18.6190  -27.2720   36.8050 C   0  0  0  0  0  0  0  0  0  0  0  0
   19.3360  -28.4580   36.6240 C   0  0  0  0  0  0  0  0  0  0  0  0
   19.6100  -29.3090   37.7040 C   0  0  0  0  0  0  0  0  0  0  0  0
   20.3130  -30.5050   37.4490 N   0  0  0  0  0  0  0  0  0  0  0  0
   19.8290  -31.6820   36.8560 C   0  0  0  0  0  0  0  0  0  0  0  0
   19.0950  -32.5050   37.6480 N   0  0  0  0  0  0  0  0  0  0  0  0
   18.6020  -33.6420   37.1170 C   0  0  0  0  0  0  0  0  0  0  0  0
   18.7270  -34.0930   35.8590 N   0  0  0  0  0  0  0  0  0  0  0  0
   19.4300  -33.2370   35.1030 C   0  0  0  0  0  0  0  0  0  0  0  0
   19.6980  -33.4160   33.7740 N   0  0  0  0  0  0  0  0  0  0  0  0
   20.4150  -32.3470   33.2990 C   0  0  0  0  0  0  0  0  0  0  0  0
   20.6090  -31.4740   34.3480 C   0  0  0  0  0  0  0  0  0  0  0  0
   19.9990  -32.0380   35.5060 C   0  0  0  0  0  0  0  0  0  0  0  0
   19.1120  -28.9660   38.9670 C   0  0  0  0  0  0  0  0  0  0  0  0
   18.3940  -27.7810   39.1550 C   0  0  0  0  0  0  0  0  0  0  0  0
   20.1234  -22.1280   38.7114 H   0  0  0  0  0  0  0  0  0  0  0  0
   19.4467  -21.2943   36.4581 H   0  0  0  0  0  0  0  0  0  0  0  0
   17.8179  -22.5889   35.0837 H   0  0  0  0  0  0  0  0  0  0  0  0
   16.8566  -24.7178   35.9606 H   0  0  0  0  0  0  0  0  0  0  0  0
   18.4111  -26.6158   35.9470 H   0  0  0  0  0  0  0  0  0  0  0  0
   19.6909  -28.7280   35.6184 H   0  0  0  0  0  0  0  0  0  0  0  0
   21.2590  -30.5160   37.7210 H   0  0  0  0  0  0  0  0  0  0  0  0
   18.0243  -34.2808   37.8012 H   0  0  0  0  0  0  0  0  0  0  0  0
   19.4200  -34.1930   33.2390 H   0  0  0  0  0  0  0  0  0  0  0  0
   20.7709  -32.2111   32.2671 H   0  0  0  0  0  0  0  0  0  0  0  0
   21.1406  -30.5122   34.2998 H   0  0  0  0  0  0  0  0  0  0  0  0
   19.2877  -29.6365   39.8211 H   0  0  0  0  0  0  0  0  0  0  0  0
   18.0073  -27.5249   40.1524 H   0  0  0  0  0  0  0  0  0  0  0  0
  1  2  1  0
  2  3  2  0
  3  4  1  0
  4  5  2  0
  5  6  1  0
  6  7  2  0
  7  8  1  0
  8  9  1  0
  9 10  2  0
 10 11  1  0
 11 12  2  0
 12 13  1  0
 13 14  1  0
 14 15  2  0
 15 16  1  0
 16 17  2  0
 17 18  1  0
 18 19  1  0
 19 20  1  0
 20 21  2  0
 21 22  1  0
 12 23  1  0
 23 24  2  0
  7  2  1  0
 24  9  1  0
 22 14  1  0
 22 18  2  0
  3 25  1  0
  4 26  1  0
  5 27  1  0
  6 28  1  0
 10 29  1  0
 11 30  1  0
 13 31  1  0
 16 32  1  0
 19 33  1  0
 20 34  1  0
 21 35  1  0
 23 36  1  0
 24 37  1  0
M  END
>  <meeko>  (7) 
{"is_sidechain": [false], "free_energy": -8.004, "intermolecular_energy": -9.278, "internal_energy": -0.743}

$$$$
native_9IV_out
     RDKit          3D

 37 40  0  0  0  0  0  0  0  0999 V2000
   23.3790  -26.6360   45.2910 Cl  0  0  0  0  0  0  0  0  0  0  0  0
   23.7320  -27.9040   44.1760 C   0  0  0  0  0  0  0  0  0  0  0  0
   24.5380  -28.9630   44.6010 C   0  0  0  0  0  0  0  0  0  0  0  0
   24.8420  -30.0060   43.7240 C   0  0  0  0  0  0  0  0  0  0  0  0
   24.3370  -29.9960   42.4240 C   0  0  0  0  0  0  0  0  0  0  0  0
   23.5300  -28.9400   41.9950 C   0  0  0  0  0  0  0  0  0  0  0  0
   23.2420  -27.8820   42.8660 C   0  0  0  0  0  0  0  0  0  0  0  0
   22.4160  -26.8520   42.4730 O   0  0  0  0  0  0  0  0  0  0  0  0
   21.5400  -27.1110   41.4450 C   0  0  0  0  0  0  0  0  0  0  0  0
   21.8320  -26.8390   40.1080 C   0  0  0  0  0  0  0  0  0  0  0  0
   20.8770  -27.1010   39.1220 C   0  0  0  0  0  0  0  0  0  0  0  0
   19.6230  -27.6340   39.4540 C   0  0  0  0  0  0  0  0  0  0  0  0
   18.6930  -27.8470   38.4160 N   0  0  0  0  0  0  0  0  0  0  0  0
   18.9300  -27.8660   37.0330 C   0  0  0  0  0  0  0  0  0  0  0  0
   18.6110  -26.7400   36.3450 N   0  0  0  0  0  0  0  0  0  0  0  0
   18.8310  -26.7110   35.0150 C   0  0  0  0  0  0  0  0  0  0  0  0
   19.3560  -27.6730   34.2390 N   0  0  0  0  0  0  0  0  0  0  0  0
   19.6860  -28.7530   34.9610 C   0  0  0  0  0  0  0  0  0  0  0  0
   20.2650  -29.8810   34.4490 N   0  0  0  0  0  0  0  0  0  0  0  0
   20.4950  -30.7830   35.4560 C   0  0  0  0  0  0  0  0  0  0  0  0
   20.0500  -30.2180   36.6330 C   0  0  0  0  0  0  0  0  0  0  0  0
   19.5190  -28.9310   36.3270 C   0  0  0  0  0  0  0  0  0  0  0  0
   19.3310  -27.8590   40.8050 C   0  0  0  0  0  0  0  0  0  0  0  0
   20.2820  -27.5980   41.7960 C   0  0  0  0  0  0  0  0  0  0  0  0
   24.9334  -28.9751   45.6274 H   0  0  0  0  0  0  0  0  0  0  0  0
   25.4806  -30.8367   44.0588 H   0  0  0  0  0  0  0  0  0  0  0  0
   24.5746  -30.8207   41.7359 H   0  0  0  0  0  0  0  0  0  0  0  0
   23.1210  -28.9393   40.9739 H   0  0  0  0  0  0  0  0  0  0  0  0
   22.8105  -26.4198   39.8310 H   0  0  0  0  0  0  0  0  0  0  0  0
   21.1125  -26.8859   38.0693 H   0  0  0  0  0  0  0  0  0  0  0  0
   17.7620  -28.0020   38.6970 H   0  0  0  0  0  0  0  0  0  0  0  0
   18.5442  -25.7819   34.5007 H   0  0  0  0  0  0  0  0  0  0  0  0
   20.4840  -30.0250   33.5000 H   0  0  0  0  0  0  0  0  0  0  0  0
   20.9519  -31.7775   35.3451 H   0  0  0  0  0  0  0  0  0  0  0  0
   20.0966  -30.6788   37.6307 H   0  0  0  0  0  0  0  0  0  0  0  0
   18.3414  -28.2458   41.0899 H   0  0  0  0  0  0  0  0  0  0  0  0
   20.0373  -27.7771   42.8534 H   0  0  0  0  0  0  0  0  0  0  0  0
  1  2  1  0
  2  3  2  0
  3  4  1  0
  4  5  2  0
  5  6  1  0
  6  7  2  0
  7  8  1  0
  8  9  1  0
  9 10  2  0
 10 11  1  0
 11 12  2  0
 12 13  1  0
 13 14  1  0
 14 15  2  0
 15 16  1  0
 16 17  2  0
 17 18  1  0
 18 19  1  0
 19 20  1  0
 20 21  2  0
 21 22  1  0
 12 23  1  0
 23 24  2  0
  7  2  1  0
 24  9  1  0
 22 14  1  0
 22 18  2  0
  3 25  1  0
  4 26  1  0
  5 27  1  0
  6 28  1  0
 10 29  1  0
 11 30  1  0
 13 31  1  0
 16 32  1  0
 19 33  1  0
 20 34  1  0
 21 35  1  0
 23 36  1  0
 24 37  1  0
M  END
>  <meeko>  (8) 
{"is_sidechain": [false], "free_energy": -7.871, "intermolecular_energy": -9.211, "internal_energy": -0.646}

$$$$
native_9IV_out
     RDKit          3D

 37 40  0  0  0  0  0  0  0  0999 V2000
   19.7410  -32.3490   35.4880 Cl  0  0  0  0  0  0  0  0  0  0  0  0
   19.3300  -32.6930   37.1270 C   0  0  0  0  0  0  0  0  0  0  0  0
   18.6660  -33.8890   37.4140 C   0  0  0  0  0  0  0  0  0  0  0  0
   18.3200  -34.1980   38.7310 C   0  0  0  0  0  0  0  0  0  0  0  0
   18.6430  -33.3180   39.7640 C   0  0  0  0  0  0  0  0  0  0  0  0
   19.3070  -32.1220   39.4820 C   0  0  0  0  0  0  0  0  0  0  0  0
   19.6360  -31.8000   38.1590 C   0  0  0  0  0  0  0  0  0  0  0  0
   20.3260  -30.6440   37.8680 O   0  0  0  0  0  0  0  0  0  0  0  0
   19.6060  -29.4720   37.8540 C   0  0  0  0  0  0  0  0  0  0  0  0
   19.3210  -28.7660   36.6850 C   0  0  0  0  0  0  0  0  0  0  0  0
   18.6100  -27.5650   36.7560 C   0  0  0  0  0  0  0  0  0  0  0  0
   18.1770  -27.0530   37.9880 C   0  0  0  0  0  0  0  0  0  0  0  0
   17.4900  -25.8220   37.9940 N   0  0  0  0  0  0  0  0  0  0  0  0
   18.0280  -24.5310   37.8720 C   0  0  0  0  0  0  0  0  0  0  0  0
   18.5280  -23.9700   39.0030 N   0  0  0  0  0  0  0  0  0  0  0  0
   19.0640  -22.7360   38.9300 C   0  0  0  0  0  0  0  0  0  0  0  0
   19.1920  -21.9490   37.8500 N   0  0  0  0  0  0  0  0  0  0  0  0
   18.7160  -22.5510   36.7510 C   0  0  0  0  0  0  0  0  0  0  0  0
   18.7350  -22.0050   35.4970 N   0  0  0  0  0  0  0  0  0  0  0  0
   18.1960  -22.8900   34.5980 C   0  0  0  0  0  0  0  0  0  0  0  0
   17.8250  -24.0200   35.2950 C   0  0  0  0  0  0  0  0  0  0  0  0
   18.1380  -23.8090   36.6700 C   0  0  0  0  0  0  0  0  0  0  0  0
   18.5110  -27.7520   39.1540 C   0  0  0  0  0  0  0  0  0  0  0  0
   19.2220  -28.9540   39.0900 C   0  0  0  0  0  0  0  0  0  0  0  0
   18.4158  -34.5873   36.6017 H   0  0  0  0  0  0  0  0  0  0  0  0
   17.7919  -35.1368   38.9543 H   0  0  0  0  0  0  0  0  0  0  0  0
   18.3746  -33.5662   40.8015 H   0  0  0  0  0  0  0  0  0  0  0  0
   19.5714  -31.4335   40.2981 H   0  0  0  0  0  0  0  0  0  0  0  0
   19.6547  -29.1532   35.7110 H   0  0  0  0  0  0  0  0  0  0  0  0
   18.3865  -27.0126   35.8314 H   0  0  0  0  0  0  0  0  0  0  0  0
   16.5130  -25.8740   38.0970 H   0  0  0  0  0  0  0  0  0  0  0  0
   19.4449  -22.3209   39.8748 H   0  0  0  0  0  0  0  0  0  0  0  0
   19.0820  -21.1110   35.2740 H   0  0  0  0  0  0  0  0  0  0  0  0
   18.0807  -22.7273   33.5162 H   0  0  0  0  0  0  0  0  0  0  0  0
   17.3684  -24.9243   34.8663 H   0  0  0  0  0  0  0  0  0  0  0  0
   18.2102  -27.3504   40.1329 H   0  0  0  0  0  0  0  0  0  0  0  0
   19.4785  -29.4911   40.0150 H   0  0  0  0  0  0  0  0  0  0  0  0
  1  2  1  0
  2  3  2  0
  3  4  1  0
  4  5  2  0
  5  6  1  0
  6  7  2  0
  7  8  1  0
  8  9  1  0
  9 10  2  0
 10 11  1  0
 11 12  2  0
 12 13  1  0
 13 14  1  0
 14 15  2  0
 15 16  1  0
 16 17  2  0
 17 18  1  0
 18 19  1  0
 19 20  1  0
 20 21  2  0
 21 22  1  0
 12 23  1  0
 23 24  2  0
  7  2  1  0
 24  9  1  0
 22 14  1  0
 22 18  2  0
  3 25  1  0
  4 26  1  0
  5 27  1  0
  6 28  1  0
 10 29  1  0
 11 30  1  0
 13 31  1  0
 16 32  1  0
 19 33  1  0
 20 34  1  0
 21 35  1  0
 23 36  1  0
 24 37  1  0
M  END
>  <meeko>  (9) 
{"is_sidechain": [false], "free_energy": -7.837, "intermolecular_energy": -9.179, "internal_energy": -0.637}

$$$$
