cand_051_out
     RDKit          3D

 44 46  0  0  0  0  0  0  0  0999 V2000
   19.4490  -26.7430   41.2930 C   0  0  0  0  0  0  0  0  0  0  0  0
   20.4590  -27.7620   40.8420 C   0  0  0  0  0  0  0  0  0  0  0  0
   20.0600  -28.7410   39.9120 C   0  0  0  0  0  0  0  0  0  0  0  0
   20.9450  -29.7270   39.4480 C   0  0  0  0  0  0  0  0  0  0  0  0
   20.4740  -30.7500   38.4900 C   0  0  0  0  0  0  0  0  0  0  0  0
   19.9990  -31.8970   39.1160 O   0  0  0  0  0  0  0  0  0  0  0  0
   19.5300  -32.9280   38.3430 C   0  0  0  0  0  0  0  0  0  0  0  0
   19.0760  -34.0660   39.0120 C   0  0  0  0  0  0  0  0  0  0  0  0
   18.5840  -35.1520   38.2840 C   0  0  0  0  0  0  0  0  0  0  0  0
   18.5440  -35.1000   36.8900 C   0  0  0  0  0  0  0  0  0  0  0  0
   18.9970  -33.9630   36.2250 C   0  0  0  0  0  0  0  0  0  0  0  0
   18.9290  -33.9780   34.8580 O   0  0  0  0  0  0  0  0  0  0  0  0
   19.4910  -32.8770   36.9530 C   0  0  0  0  0  0  0  0  0  0  0  0
   19.9760  -31.6640   36.2940 C   0  0  0  0  0  0  0  0  0  0  0  0
   19.9660  -31.5390   35.0700 O   0  0  0  0  0  0  0  0  0  0  0  0
   20.4860  -30.5730   37.1560 C   0  0  0  0  0  0  0  0  0  0  0  0
   20.9300  -29.4260   36.5240 O   0  0  0  0  0  0  0  0  0  0  0  0
   22.2490  -29.7340   39.9500 C   0  0  0  0  0  0  0  0  0  0  0  0
   22.6610  -28.7710   40.8740 C   0  0  0  0  0  0  0  0  0  0  0  0
   21.7810  -27.7740   41.3290 C   0  0  0  0  0  0  0  0  0  0  0  0
   22.3010  -26.7610   42.3300 C   0  0  0  0  0  0  0  0  0  0  0  0
   23.4990  -27.2600   43.1630 C   0  0  0  0  0  0  0  0  0  0  0  0
   22.9950  -27.9420   44.4380 C   0  0  0  0  0  0  0  0  0  0  0  0
   24.4590  -26.1270   43.5310 C   0  0  0  0  0  0  0  0  0  0  0  0
   19.4217  -26.7155   42.3923 H   0  0  0  0  0  0  0  0  0  0  0  0
   19.7312  -25.7519   40.9083 H   0  0  0  0  0  0  0  0  0  0  0  0
   18.4554  -27.0164   40.9083 H   0  0  0  0  0  0  0  0  0  0  0  0
   19.0254  -28.7330   39.5384 H   0  0  0  0  0  0  0  0  0  0  0  0
   19.1056  -34.1075   40.1108 H   0  0  0  0  0  0  0  0  0  0  0  0
   18.2275  -36.0497   38.8104 H   0  0  0  0  0  0  0  0  0  0  0  0
   18.1555  -35.9552   36.3175 H   0  0  0  0  0  0  0  0  0  0  0  0
   18.9270  -33.1730   34.3800 H   0  0  0  0  0  0  0  0  0  0  0  0
   20.5400  -28.5990   36.7270 H   0  0  0  0  0  0  0  0  0  0  0  0
   22.9578  -30.5053   39.6143 H   0  0  0  0  0  0  0  0  0  0  0  0
   23.6935  -28.7933   41.2527 H   0  0  0  0  0  0  0  0  0  0  0  0
   22.6129  -25.8606   41.7805 H   0  0  0  0  0  0  0  0  0  0  0  0
   21.4820  -26.5633   43.0373 H   0  0  0  0  0  0  0  0  0  0  0  0
   24.0551  -27.9791   42.5436 H   0  0  0  0  0  0  0  0  0  0  0  0
   23.3875  -27.4108   45.3176 H   0  0  0  0  0  0  0  0  0  0  0  0
   21.8954  -27.9188   44.4561 H   0  0  0  0  0  0  0  0  0  0  0  0
   23.3400  -28.9863   44.4561 H   0  0  0  0  0  0  0  0  0  0  0  0
   24.5278  -26.0458   44.6258 H   0  0  0  0  0  0  0  0  0  0  0  0
   25.4549  -26.3409   43.1159 H   0  0  0  0  0  0  0  0  0  0  0  0
   24.0845  -25.1797   43.1159 H   0  0  0  0  0  0  0  0  0  0  0  0
  1  2  1  0
  2  3  2  0
  3  4  1  0
  4  5  1  0
  5  6  1  0
  6  7  1  0
  7  8  2  0
  8  9  1  0
  9 10  2  0
 10 11  1  0
 11 12  1  0
 11 13  2  0
 13 14  1  0
 14 15  2  0
 14 16  1  0
 16 17  1  0
  4 18  2  0
 18 19  1  0
 19 20  2  0
 20 21  1  0
 21 22  1  0
 22 23  1  0
 22 24  1  0
 20  2  1  0
 16  5  2  0
 13  7  1  0
  1 25  1  0
  1 26  1  0
  1 27  1  0
  3 28  1  0
  8 29  1  0
  9 30  1  0
 10 31  1  0
 12 32  1  0
 17 33  1  0
 18 34  1  0
 19 35  1  0
 21 36  1  0
 21 37  1  0
 22 38  1  0
 23 39  1  0
 23 40  1  0
 23 41  1  0
 24 42  1  0
 24 43  1  0
 24 44  1  0
M  END
>  <meeko>  (1) 
{"is_sidechain": [false], "free_energy": -9.835, "intermolecular_energy": -12.135, "internal_energy": -0.683}

$$$$
cand_051_out
     RDKit          3D

 44 46  0  0  0  0  0  0  0  0999 V2000
   24.1600  -29.4770   42.2200 C   0  0  0  0  0  0  0  0  0  0  0  0
   22.9720  -29.0220   41.4180 C   0  0  0  0  0  0  0  0  0  0  0  0
   22.3910  -29.9220   40.5040 C   0  0  0  0  0  0  0  0  0  0  0  0
   21.2830  -29.5670   39.7180 C   0  0  0  0  0  0  0  0  0  0  0  0
   20.7220  -30.5380   38.7540 C   0  0  0  0  0  0  0  0  0  0  0  0
   20.1370  -31.6360   39.3740 O   0  0  0  0  0  0  0  0  0  0  0  0
   19.5770  -32.6170   38.5940 C   0  0  0  0  0  0  0  0  0  0  0  0
   19.0130  -33.7080   39.2570 C   0  0  0  0  0  0  0  0  0  0  0  0
   18.4230  -34.7400   38.5230 C   0  0  0  0  0  0  0  0  0  0  0  0
   18.3980  -34.6810   37.1280 C   0  0  0  0  0  0  0  0  0  0  0  0
   18.9610  -33.5900   36.4700 C   0  0  0  0  0  0  0  0  0  0  0  0
   18.9000  -33.5960   35.1030 O   0  0  0  0  0  0  0  0  0  0  0  0
   19.5510  -32.5580   37.2040 C   0  0  0  0  0  0  0  0  0  0  0  0
   20.1530  -31.3950   36.5520 C   0  0  0  0  0  0  0  0  0  0  0  0
   20.1630  -31.2670   35.3290 O   0  0  0  0  0  0  0  0  0  0  0  0
   20.7600  -30.3600   37.4210 C   0  0  0  0  0  0  0  0  0  0  0  0
   21.3140  -29.2590   36.7950 O   0  0  0  0  0  0  0  0  0  0  0  0
   20.7680  -28.2750   39.8460 C   0  0  0  0  0  0  0  0  0  0  0  0
   21.3330  -27.3690   40.7460 C   0  0  0  0  0  0  0  0  0  0  0  0
   22.4330  -27.7260   41.5450 C   0  0  0  0  0  0  0  0  0  0  0  0
   22.9910  -26.6920   42.5020 C   0  0  0  0  0  0  0  0  0  0  0  0
   22.3570  -26.7320   43.9080 C   0  0  0  0  0  0  0  0  0  0  0  0
   21.7790  -25.3580   44.2560 C   0  0  0  0  0  0  0  0  0  0  0  0
   23.3620  -27.1550   44.9830 C   0  0  0  0  0  0  0  0  0  0  0  0
   23.9332  -29.3901   43.2928 H   0  0  0  0  0  0  0  0  0  0  0  0
   24.3867  -30.5256   41.9769 H   0  0  0  0  0  0  0  0  0  0  0  0
   25.0291  -28.8481   41.9769 H   0  0  0  0  0  0  0  0  0  0  0  0
   22.8170  -30.9311   40.4030 H   0  0  0  0  0  0  0  0  0  0  0  0
   19.0330  -33.7553   40.3558 H   0  0  0  0  0  0  0  0  0  0  0  0
   17.9776  -35.6000   39.0445 H   0  0  0  0  0  0  0  0  0  0  0  0
   17.9347  -35.4943   36.5501 H   0  0  0  0  0  0  0  0  0  0  0  0
   18.9250  -34.4070   34.6360 H   0  0  0  0  0  0  0  0  0  0  0  0
   21.5070  -29.2890   35.8780 H   0  0  0  0  0  0  0  0  0  0  0  0
   19.9087  -27.9681   39.2317 H   0  0  0  0  0  0  0  0  0  0  0  0
   20.9095  -26.3574   40.8312 H   0  0  0  0  0  0  0  0  0  0  0  0
   24.0725  -26.8641   42.6052 H   0  0  0  0  0  0  0  0  0  0  0  0
   22.7581  -25.7051   42.0757 H   0  0  0  0  0  0  0  0  0  0  0  0
   21.5551  -27.4847   43.8869 H   0  0  0  0  0  0  0  0  0  0  0  0
   21.7320  -25.2462   45.3493 H   0  0  0  0  0  0  0  0  0  0  0  0
   22.4227  -24.5719   43.8344 H   0  0  0  0  0  0  0  0  0  0  0  0
   20.7670  -25.2685   43.8344 H   0  0  0  0  0  0  0  0  0  0  0  0
   22.9316  -26.9738   45.9789 H   0  0  0  0  0  0  0  0  0  0  0  0
   23.5898  -28.2253   44.8712 H   0  0  0  0  0  0  0  0  0  0  0  0
   24.2866  -26.5697   44.8712 H   0  0  0  0  0  0  0  0  0  0  0  0
  1  2  1  0
  2  3  2  0
  3  4  1  0
  4  5  1  0
  5  6  1  0
  6  7  1  0
  7  8  2  0
  8  9  1  0
  9 10  2  0
 10 11  1  0
 11 12  1  0
 11 13  2  0
 13 14  1  0
 14 15  2  0
 14 16  1  0
 16 17  1  0
  4 18  2  0
 18 19  1  0
 19 20  2  0
 20 21  1  0
 21 22  1  0
 22 23  1  0
 22 24  1  0
 20  2  1  0
 16  5  2  0
 13  7  1  0
  1 25  1  0
  1 26  1  0
  1 27  1  0
  3 28  1  0
  8 29  1  0
  9 30  1  0
 10 31  1  0
 12 32  1  0
 17 33  1  0
 18 34  1  0
 19 35  1  0
 21 36  1  0
 21 37  1  0
 22 38  1  0
 23 39  1  0
 23 40  1  0
 23 41  1  0
 24 42  1  0
 24 43  1  0
 24 44  1  0
M  END
>  <meeko>  (2) 
{"is_sidechain": [false], "free_energy": -9.263, "intermolecular_energy": -11.491, "internal_energy": -0.622}

$$$$
cand_051_out
     RDKit          3D

 44 46  0  0  0  0  0  0  0  0999 V2000
   19.4520  -26.7420   41.0370 C   0  0  0  0  0  0  0  0  0  0  0  0
   20.4460  -27.8010   40.6470 C   0  0  0  0  0  0  0  0  0  0  0  0
   20.0460  -28.7990   39.7370 C   0  0  0  0  0  0  0  0  0  0  0  0
   20.9170  -29.8220   39.3300 C   0  0  0  0  0  0  0  0  0  0  0  0
   20.4450  -30.8620   38.3910 C   0  0  0  0  0  0  0  0  0  0  0  0
   20.7610  -30.5770   37.0680 O   0  0  0  0  0  0  0  0  0  0  0  0
   20.3800  -31.4610   36.0900 C   0  0  0  0  0  0  0  0  0  0  0  0
   20.7060  -31.1290   34.7740 C   0  0  0  0  0  0  0  0  0  0  0  0
   20.3490  -31.9870   33.7310 C   0  0  0  0  0  0  0  0  0  0  0  0
   19.6690  -33.1750   34.0030 C   0  0  0  0  0  0  0  0  0  0  0  0
   19.3460  -33.5040   35.3170 C   0  0  0  0  0  0  0  0  0  0  0  0
   18.6800  -34.6840   35.5130 O   0  0  0  0  0  0  0  0  0  0  0  0
   19.7020  -32.6460   36.3610 C   0  0  0  0  0  0  0  0  0  0  0  0
   19.3820  -32.9530   37.7550 C   0  0  0  0  0  0  0  0  0  0  0  0
   18.7920  -33.9840   38.0760 O   0  0  0  0  0  0  0  0  0  0  0  0
   19.7970  -31.9730   38.7860 C   0  0  0  0  0  0  0  0  0  0  0  0
   19.5010  -32.2810   40.1010 O   0  0  0  0  0  0  0  0  0  0  0  0
   22.2060  -29.8470   39.8680 C   0  0  0  0  0  0  0  0  0  0  0  0
   22.6180  -28.8660   40.7730 C   0  0  0  0  0  0  0  0  0  0  0  0
   21.7530  -27.8320   41.1710 C   0  0  0  0  0  0  0  0  0  0  0  0
   22.2720  -26.8010   42.1540 C   0  0  0  0  0  0  0  0  0  0  0  0
   23.4010  -27.3190   43.0680 C   0  0  0  0  0  0  0  0  0  0  0  0
   22.7990  -27.9800   44.3110 C   0  0  0  0  0  0  0  0  0  0  0  0
   24.3590  -26.2030   43.4930 C   0  0  0  0  0  0  0  0  0  0  0  0
   19.3937  -26.6799   42.1337 H   0  0  0  0  0  0  0  0  0  0  0  0
   19.7725  -25.7711   40.6313 H   0  0  0  0  0  0  0  0  0  0  0  0
   18.4628  -27.0004   40.6313 H   0  0  0  0  0  0  0  0  0  0  0  0
   19.0227  -28.7762   39.3341 H   0  0  0  0  0  0  0  0  0  0  0  0
   21.2430  -30.1935   34.5586 H   0  0  0  0  0  0  0  0  0  0  0  0
   20.6043  -31.7258   32.6934 H   0  0  0  0  0  0  0  0  0  0  0  0
   19.3887  -33.8502   33.1810 H   0  0  0  0  0  0  0  0  0  0  0  0
   18.5370  -35.0030   36.3820 H   0  0  0  0  0  0  0  0  0  0  0  0
   20.1830  -32.5560   40.6820 H   0  0  0  0  0  0  0  0  0  0  0  0
   22.9029  -30.6465   39.5763 H   0  0  0  0  0  0  0  0  0  0  0  0
   23.6385  -28.9033   41.1819 H   0  0  0  0  0  0  0  0  0  0  0  0
   22.6551  -25.9417   41.5841 H   0  0  0  0  0  0  0  0  0  0  0  0
   21.4298  -26.5331   42.8089 H   0  0  0  0  0  0  0  0  0  0  0  0
   23.9811  -28.0543   42.4911 H   0  0  0  0  0  0  0  0  0  0  0  0
   23.2217  -27.5158   45.2142 H   0  0  0  0  0  0  0  0  0  0  0  0
   21.7074  -27.8448   44.3059 H   0  0  0  0  0  0  0  0  0  0  0  0
   23.0354  -29.0543   44.3059 H   0  0  0  0  0  0  0  0  0  0  0  0
   24.4009  -26.1542   44.5911 H   0  0  0  0  0  0  0  0  0  0  0  0
   25.3637  -26.4115   43.0966 H   0  0  0  0  0  0  0  0  0  0  0  0
   24.0007  -25.2415   43.0966 H   0  0  0  0  0  0  0  0  0  0  0  0
  1  2  1  0
  2  3  2  0
  3  4  1  0
  4  5  1  0
  5  6  1  0
  6  7  1  0
  7  8  2  0
  8  9  1  0
  9 10  2  0
 10 11  1  0
 11 12  1  0
 11 13  2  0
 13 14  1  0
 14 15  2  0
 14 16  1  0
 16 17  1  0
  4 18  2  0
 18 19  1  0
 19 20  2  0
 20 21  1  0
 21 22  1  0
 22 23  1  0
 22 24  1  0
 20  2  1  0
 16  5  2  0
 13  7  1  0
  1 25  1  0
  1 26  1  0
  1 27  1  0
  3 28  1  0
  8 29  1  0
  9 30  1  0
 10 31  1  0
 12 32  1  0
 17 33  1  0
 18 34  1  0
 19 35  1  0
 21 36  1  0
 21 37  1  0
 22 38  1  0
 23 39  1  0
 23 40  1  0
 23 41  1  0
 24 42  1  0
 24 43  1  0
 24 44  1  0
M  END
>  <meeko>  (3) 
{"is_sidechain": [false], "free_energy": -9.133, "intermolecular_energy": -11.263, "internal_energy": -0.69}

$$$$
cand_051_out
     RDKit          3D

 44 46  0  0  0  0  0  0  0  0999 V2000
   23.7900  -28.2580   42.8630 C   0  0  0  0  0  0  0  0  0  0  0  0
   22.7220  -27.8710   41.8790 C   0  0  0  0  0  0  0  0  0  0  0  0
   22.2420  -28.8480   40.9860 C   0  0  0  0  0  0  0  0  0  0  0  0
   21.2480  -28.5600   40.0360 C   0  0  0  0  0  0  0  0  0  0  0  0
   20.7930  -29.6130   39.1030 C   0  0  0  0  0  0  0  0  0  0  0  0
   20.0780  -30.6220   39.7370 O   0  0  0  0  0  0  0  0  0  0  0  0
   19.5950  -31.6650   38.9870 C   0  0  0  0  0  0  0  0  0  0  0  0
   18.8950  -32.6630   39.6650 C   0  0  0  0  0  0  0  0  0  0  0  0
   18.3760  -33.7510   38.9600 C   0  0  0  0  0  0  0  0  0  0  0  0
   18.5550  -33.8410   37.5790 C   0  0  0  0  0  0  0  0  0  0  0  0
   19.2540  -32.8430   36.9040 C   0  0  0  0  0  0  0  0  0  0  0  0
   19.3920  -32.9930   35.5510 O   0  0  0  0  0  0  0  0  0  0  0  0
   19.7740  -31.7540   37.6090 C   0  0  0  0  0  0  0  0  0  0  0  0
   20.5140  -30.6850   36.9400 C   0  0  0  0  0  0  0  0  0  0  0  0
   20.7070  -30.6880   35.7250 O   0  0  0  0  0  0  0  0  0  0  0  0
   21.0310  -29.5790   37.7790 C   0  0  0  0  0  0  0  0  0  0  0  0
   21.7170  -28.5670   37.1330 O   0  0  0  0  0  0  0  0  0  0  0  0
   20.7480  -27.2570   39.9760 C   0  0  0  0  0  0  0  0  0  0  0  0
   21.2150  -26.2750   40.8530 C   0  0  0  0  0  0  0  0  0  0  0  0
   22.1980  -26.5650   41.8140 C   0  0  0  0  0  0  0  0  0  0  0  0
   22.6530  -25.4490   42.7350 C   0  0  0  0  0  0  0  0  0  0  0  0
   21.6710  -25.1450   43.8850 C   0  0  0  0  0  0  0  0  0  0  0  0
   21.1520  -23.7110   43.7580 C   0  0  0  0  0  0  0  0  0  0  0  0
   22.3130  -25.3400   45.2600 C   0  0  0  0  0  0  0  0  0  0  0  0
   23.4122  -28.1211   43.8870 H   0  0  0  0  0  0  0  0  0  0  0  0
   24.0638  -29.3125   42.7111 H   0  0  0  0  0  0  0  0  0  0  0  0
   24.6758  -27.6237   42.7111 H   0  0  0  0  0  0  0  0  0  0  0  0
   22.6571  -29.8656   41.0335 H   0  0  0  0  0  0  0  0  0  0  0  0
   18.7520  -32.5931   40.7534 H   0  0  0  0  0  0  0  0  0  0  0  0
   17.8249  -34.5388   39.4944 H   0  0  0  0  0  0  0  0  0  0  0  0
   18.1450  -34.6981   37.0247 H   0  0  0  0  0  0  0  0  0  0  0  0
   20.0410  -33.5750   35.2080 H   0  0  0  0  0  0  0  0  0  0  0  0
   21.3420  -27.7100   37.0760 H   0  0  0  0  0  0  0  0  0  0  0  0
   19.9796  -27.0019   39.2314 H   0  0  0  0  0  0  0  0  0  0  0  0
   20.8056  -25.2560   40.7900 H   0  0  0  0  0  0  0  0  0  0  0  0
   23.6207  -25.7349   43.1730 H   0  0  0  0  0  0  0  0  0  0  0  0
   22.7179  -24.5375   42.1226 H   0  0  0  0  0  0  0  0  0  0  0  0
   20.8369  -25.8575   43.8034 H   0  0  0  0  0  0  0  0  0  0  0  0
   20.9984  -23.2865   44.7611 H   0  0  0  0  0  0  0  0  0  0  0  0
   21.8868  -23.1022   43.2108 H   0  0  0  0  0  0  0  0  0  0  0  0
   20.1978  -23.7135   43.2108 H   0  0  0  0  0  0  0  0  0  0  0  0
   21.5750  -25.1159   46.0443 H   0  0  0  0  0  0  0  0  0  0  0  0
   22.6517  -26.3815   45.3621 H   0  0  0  0  0  0  0  0  0  0  0  0
   23.1738  -24.6628   45.3621 H   0  0  0  0  0  0  0  0  0  0  0  0
  1  2  1  0
  2  3  2  0
  3  4  1  0
  4  5  1  0
  5  6  1  0
  6  7  1  0
  7  8  2  0
  8  9  1  0
  9 10  2  0
 10 11  1  0
 11 12  1  0
 11 13  2  0
 13 14  1  0
 14 15  2  0
 14 16  1  0
 16 17  1  0
  4 18  2  0
 18 19  1  0
 19 20  2  0
 20 21  1  0
 21 22  1  0
 22 23  1  0
 22 24  1  0
 20  2  1  0
 16  5  2  0
 13  7  1  0
  1 25  1  0
  1 26  1  0
  1 27  1  0
  3 28  1  0
  8 29  1  0
  9 30  1  0
 10 31  1  0
 12 32  1  0
 17 33  1  0
 18 34  1  0
 19 35  1  0
 21 36  1  0
 21 37  1  0
 22 38  1  0
 23 39  1  0
 23 40  1  0
 23 41  1  0
 24 42  1  0
 24 43  1  0
 24 44  1  0
M  END
>  <meeko>  (4) 
{"is_sidechain": [false], "free_energy": -8.933, "intermolecular_energy": -11.057, "internal_energy": -0.647}

$$$$
cand_051_out
     RDKit          3D

 44 46  0  0  0  0  0  0  0  0999 V2000
   23.0480  -28.8350   41.3060 C   0  0  0  0  0  0  0  0  0  0  0  0
   21.8070  -28.7390   40.4620 C   0  0  0  0  0  0  0  0  0  0  0  0
   21.4600  -29.8320   39.6450 C   0  0  0  0  0  0  0  0  0  0  0  0
   20.3190  -29.8130   38.8270 C   0  0  0  0  0  0  0  0  0  0  0  0
   20.0080  -30.9760   37.9680 C   0  0  0  0  0  0  0  0  0  0  0  0
   20.3820  -30.7820   36.6430 O   0  0  0  0  0  0  0  0  0  0  0  0
   20.1510  -31.7850   35.7360 C   0  0  0  0  0  0  0  0  0  0  0  0
   20.5300  -31.5430   34.4140 C   0  0  0  0  0  0  0  0  0  0  0  0
   20.3240  -32.5240   33.4410 C   0  0  0  0  0  0  0  0  0  0  0  0
   19.7410  -33.7440   33.7880 C   0  0  0  0  0  0  0  0  0  0  0  0
   19.3640  -33.9820   35.1080 C   0  0  0  0  0  0  0  0  0  0  0  0
   18.8000  -35.1990   35.3780 O   0  0  0  0  0  0  0  0  0  0  0  0
   19.5690  -33.0010   36.0820 C   0  0  0  0  0  0  0  0  0  0  0  0
   19.1890  -33.2110   37.4780 C   0  0  0  0  0  0  0  0  0  0  0  0
   18.6780  -34.2610   37.8630 O   0  0  0  0  0  0  0  0  0  0  0  0
   19.4420  -32.1050   38.4310 C   0  0  0  0  0  0  0  0  0  0  0  0
   19.0910  -32.3200   39.7510 O   0  0  0  0  0  0  0  0  0  0  0  0
   19.5290  -28.6610   38.8200 C   0  0  0  0  0  0  0  0  0  0  0  0
   19.8600  -27.5660   39.6220 C   0  0  0  0  0  0  0  0  0  0  0  0
   20.9930  -27.5880   40.4530 C   0  0  0  0  0  0  0  0  0  0  0  0
   21.2870  -26.3650   41.2990 C   0  0  0  0  0  0  0  0  0  0  0  0
   20.8080  -26.4830   42.7610 C   0  0  0  0  0  0  0  0  0  0  0  0
   19.7410  -25.4220   43.0440 C   0  0  0  0  0  0  0  0  0  0  0  0
   21.9580  -26.3340   43.7590 C   0  0  0  0  0  0  0  0  0  0  0  0
   22.7703  -28.8135   42.3701 H   0  0  0  0  0  0  0  0  0  0  0  0
   23.5715  -29.7763   41.0826 H   0  0  0  0  0  0  0  0  0  0  0  0
   23.7100  -27.9854   41.0826 H   0  0  0  0  0  0  0  0  0  0  0  0
   22.1009  -30.7260   39.6477 H   0  0  0  0  0  0  0  0  0  0  0  0
   20.9897  -30.5821   34.1394 H   0  0  0  0  0  0  0  0  0  0  0  0
   20.6218  -32.3347   32.3991 H   0  0  0  0  0  0  0  0  0  0  0  0
   19.5796  -34.5157   33.0210 H   0  0  0  0  0  0  0  0  0  0  0  0
   18.0610  -35.2550   35.9510 H   0  0  0  0  0  0  0  0  0  0  0  0
   18.6040  -33.0840   39.9880 H   0  0  0  0  0  0  0  0  0  0  0  0
   18.6378  -28.6156   38.1769 H   0  0  0  0  0  0  0  0  0  0  0  0
   19.2220  -26.6701   39.6026 H   0  0  0  0  0  0  0  0  0  0  0  0
   22.3747  -26.2010   41.3036 H   0  0  0  0  0  0  0  0  0  0  0  0
   20.7340  -25.5269   40.8497 H   0  0  0  0  0  0  0  0  0  0  0  0
   20.3838  -27.4898   42.8892 H   0  0  0  0  0  0  0  0  0  0  0  0
   19.6214  -25.3031   44.1310 H   0  0  0  0  0  0  0  0  0  0  0  0
   20.0508  -24.4635   42.6022 H   0  0  0  0  0  0  0  0  0  0  0  0
   18.7842  -25.7372   42.6022 H   0  0  0  0  0  0  0  0  0  0  0  0
   21.5627  -26.3852   44.7842 H   0  0  0  0  0  0  0  0  0  0  0  0
   22.6845  -27.1455   43.6052 H   0  0  0  0  0  0  0  0  0  0  0  0
   22.4537  -25.3641   43.6052 H   0  0  0  0  0  0  0  0  0  0  0  0
  1  2  1  0
  2  3  2  0
  3  4  1  0
  4  5  1  0
  5  6  1  0
  6  7  1  0
  7  8  2  0
  8  9  1  0
  9 10  2  0
 10 11  1  0
 11 12  1  0
 11 13  2  0
 13 14  1  0
 14 15  2  0
 14 16  1  0
 16 17  1  0
  4 18  2  0
 18 19  1  0
 19 20  2  0
 20 21  1  0
 21 22  1  0
 22 23  1  0
 22 24  1  0
 20  2  1  0
 16  5  2  0
 13  7  1  0
  1 25  1  0
  1 26  1  0
  1 27  1  0
  3 28  1  0
  8 29  1  0
  9 30  1  0
 10 31  1  0
 12 32  1  0
 17 33  1  0
 18 34  1  0
 19 35  1  0
 21 36  1  0
 21 37  1  0
 22 38  1  0
 23 39  1  0
 23 40  1  0
 23 41  1  0
 24 42  1  0
 24 43  1  0
 24 44  1  0
M  END
>  <meeko>  (5) 
{"is_sidechain": [false], "free_energy": -8.73, "intermolecular_energy": -10.788, "internal_energy": -0.666}

$$$$
cand_051_out
     RDKit          3D

 44 46  0  0  0  0  0  0  0  0999 V2000
   19.0500  -32.7700   38.5160 C   0  0  0  0  0  0  0  0  0  0  0  0
   20.0190  -31.6520   38.2470 C   0  0  0  0  0  0  0  0  0  0  0  0
   20.6280  -31.0100   39.3420 C   0  0  0  0  0  0  0  0  0  0  0  0
   21.5380  -29.9550   39.1710 C   0  0  0  0  0  0  0  0  0  0  0  0
   22.1340  -29.2950   40.3520 C   0  0  0  0  0  0  0  0  0  0  0  0
   23.0890  -30.0830   40.9850 O   0  0  0  0  0  0  0  0  0  0  0  0
   23.7220  -29.5920   42.0990 C   0  0  0  0  0  0  0  0  0  0  0  0
   24.6630  -30.4210   42.7110 C   0  0  0  0  0  0  0  0  0  0  0  0
   25.3450  -29.9800   43.8470 C   0  0  0  0  0  0  0  0  0  0  0  0
   25.0880  -28.7120   44.3700 C   0  0  0  0  0  0  0  0  0  0  0  0
   24.1490  -27.8860   43.7560 C   0  0  0  0  0  0  0  0  0  0  0  0
   23.9470  -26.6560   44.3210 O   0  0  0  0  0  0  0  0  0  0  0  0
   23.4660  -28.3270   42.6200 C   0  0  0  0  0  0  0  0  0  0  0  0
   22.4720  -27.4920   41.9460 C   0  0  0  0  0  0  0  0  0  0  0  0
   22.1960  -26.3600   42.3410 O   0  0  0  0  0  0  0  0  0  0  0  0
   21.7990  -28.0560   40.7530 C   0  0  0  0  0  0  0  0  0  0  0  0
   20.8710  -27.2520   40.1160 O   0  0  0  0  0  0  0  0  0  0  0  0
   21.8210  -29.5300   37.8700 C   0  0  0  0  0  0  0  0  0  0  0  0
   21.2240  -30.1550   36.7720 C   0  0  0  0  0  0  0  0  0  0  0  0
   20.3240  -31.2200   36.9410 C   0  0  0  0  0  0  0  0  0  0  0  0
   19.7180  -31.8510   35.7030 C   0  0  0  0  0  0  0  0  0  0  0  0
   20.4900  -31.5450   34.4020 C   0  0  0  0  0  0  0  0  0  0  0  0
   19.8850  -30.3150   33.7190 C   0  0  0  0  0  0  0  0  0  0  0  0
   20.4800  -32.7280   33.4310 C   0  0  0  0  0  0  0  0  0  0  0  0
   18.9352  -32.9024   39.6020 H   0  0  0  0  0  0  0  0  0  0  0  0
   18.0743  -32.5245   38.0714 H   0  0  0  0  0  0  0  0  0  0  0  0
   19.4317  -33.7010   38.0714 H   0  0  0  0  0  0  0  0  0  0  0  0
   20.3837  -31.3448   40.3609 H   0  0  0  0  0  0  0  0  0  0  0  0
   24.8672  -31.4204   42.2992 H   0  0  0  0  0  0  0  0  0  0  0  0
   26.0862  -30.6334   44.3305 H   0  0  0  0  0  0  0  0  0  0  0  0
   25.6256  -28.3655   45.2650 H   0  0  0  0  0  0  0  0  0  0  0  0
   23.2300  -26.1230   44.0390 H   0  0  0  0  0  0  0  0  0  0  0  0
   20.0830  -27.0040   40.5580 H   0  0  0  0  0  0  0  0  0  0  0  0
   22.5200  -28.6960   37.7089 H   0  0  0  0  0  0  0  0  0  0  0  0
   21.4633  -29.8065   35.7565 H   0  0  0  0  0  0  0  0  0  0  0  0
   19.6976  -32.9416   35.8450 H   0  0  0  0  0  0  0  0  0  0  0  0
   18.7124  -31.4209   35.5857 H   0  0  0  0  0  0  0  0  0  0  0  0
   21.5369  -31.3499   34.6777 H   0  0  0  0  0  0  0  0  0  0  0  0
   19.5360  -29.6055   34.4837 H   0  0  0  0  0  0  0  0  0  0  0  0
   20.6481  -29.8316   33.0914 H   0  0  0  0  0  0  0  0  0  0  0  0
   19.0363  -30.6244   33.0914 H   0  0  0  0  0  0  0  0  0  0  0  0
   20.4720  -33.6694   34.0000 H   0  0  0  0  0  0  0  0  0  0  0  0
   19.5823  -32.6749   32.7975 H   0  0  0  0  0  0  0  0  0  0  0  0
   21.3785  -32.6900   32.7975 H   0  0  0  0  0  0  0  0  0  0  0  0
  1  2  1  0
  2  3  2  0
  3  4  1  0
  4  5  1  0
  5  6  1  0
  6  7  1  0
  7  8  2  0
  8  9  1  0
  9 10  2  0
 10 11  1  0
 11 12  1  0
 11 13  2  0
 13 14  1  0
 14 15  2  0
 14 16  1  0
 16 17  1  0
  4 18  2  0
 18 19  1  0
 19 20  2  0
 20 21  1  0
 21 22  1  0
 22 23  1  0
 22 24  1  0
 20  2  1  0
 16  5  2  0
 13  7  1  0
  1 25  1  0
  1 26  1  0
  1 27  1  0
  3 28  1  0
  8 29  1  0
  9 30  1  0
 10 31  1  0
 12 32  1  0
 17 33  1  0
 18 34  1  0
 19 35  1  0
 21 36  1  0
 21 37  1  0
 22 38  1  0
 23 39  1  0
 23 40  1  0
 23 41  1  0
 24 42  1  0
 24 43  1  0
 24 44  1  0
M  END
>  <meeko>  (6) 
{"is_sidechain": [false], "free_energy": -8.529, "intermolecular_energy": -10.79, "internal_energy": -0.417}

$$$$
cand_051_out
     RDKit          3D

 44 46  0  0  0  0  0  0  0  0999 V2000
   23.1210  -29.0340   41.3330 C   0  0  0  0  0  0  0  0  0  0  0  0
   21.8510  -28.8890   40.5410 C   0  0  0  0  0  0  0  0  0  0  0  0
   21.6480  -29.7330   39.4320 C   0  0  0  0  0  0  0  0  0  0  0  0
   20.4900  -29.6540   38.6420 C   0  0  0  0  0  0  0  0  0  0  0  0
   20.3320  -30.5450   37.4730 C   0  0  0  0  0  0  0  0  0  0  0  0
   19.8460  -31.8020   37.8150 O   0  0  0  0  0  0  0  0  0  0  0  0
   19.6520  -32.7300   36.8230 C   0  0  0  0  0  0  0  0  0  0  0  0
   19.1750  -33.9820   37.2120 C   0  0  0  0  0  0  0  0  0  0  0  0
   18.9540  -34.9720   36.2520 C   0  0  0  0  0  0  0  0  0  0  0  0
   19.2070  -34.7100   34.9050 C   0  0  0  0  0  0  0  0  0  0  0  0
   19.6820  -33.4580   34.5190 C   0  0  0  0  0  0  0  0  0  0  0  0
   19.9090  -33.2690   33.1830 O   0  0  0  0  0  0  0  0  0  0  0  0
   19.9050  -32.4680   35.4800 C   0  0  0  0  0  0  0  0  0  0  0  0
   20.4030  -31.1410   35.1180 C   0  0  0  0  0  0  0  0  0  0  0  0
   20.6420  -30.8310   33.9520 O   0  0  0  0  0  0  0  0  0  0  0  0
   20.6120  -30.1660   36.2130 C   0  0  0  0  0  0  0  0  0  0  0  0
   21.0700  -28.9100   35.8580 O   0  0  0  0  0  0  0  0  0  0  0  0
   19.5320  -28.6910   38.9690 C   0  0  0  0  0  0  0  0  0  0  0  0
   19.7180  -27.8440   40.0640 C   0  0  0  0  0  0  0  0  0  0  0  0
   20.8700  -27.9320   40.8640 C   0  0  0  0  0  0  0  0  0  0  0  0
   21.0010  -26.9820   42.0390 C   0  0  0  0  0  0  0  0  0  0  0  0
   21.6810  -25.6420   41.6890 C   0  0  0  0  0  0  0  0  0  0  0  0
   22.8200  -25.3670   42.6750 C   0  0  0  0  0  0  0  0  0  0  0  0
   20.6950  -24.4720   41.7030 C   0  0  0  0  0  0  0  0  0  0  0  0
   22.8880  -29.0074   42.4077 H   0  0  0  0  0  0  0  0  0  0  0  0
   23.6001  -29.9927   41.0853 H   0  0  0  0  0  0  0  0  0  0  0  0
   23.8039  -28.2080   41.0853 H   0  0  0  0  0  0  0  0  0  0  0  0
   22.4188  -30.4754   39.1774 H   0  0  0  0  0  0  0  0  0  0  0  0
   18.9732  -34.1891   38.2733 H   0  0  0  0  0  0  0  0  0  0  0  0
   18.5798  -35.9600   36.5583 H   0  0  0  0  0  0  0  0  0  0  0  0
   19.0319  -35.4900   34.1494 H   0  0  0  0  0  0  0  0  0  0  0  0
   19.6140  -33.9060   32.5630 H   0  0  0  0  0  0  0  0  0  0  0  0
   21.1470  -28.6780   34.9530 H   0  0  0  0  0  0  0  0  0  0  0  0
   18.6220  -28.5989   38.3579 H   0  0  0  0  0  0  0  0  0  0  0  0
   18.9492  -27.0949   40.3044 H   0  0  0  0  0  0  0  0  0  0  0  0
   19.9934  -26.7682   42.4251 H   0  0  0  0  0  0  0  0  0  0  0  0
   21.6419  -27.4801   42.7814 H   0  0  0  0  0  0  0  0  0  0  0  0
   22.0776  -25.7300   40.6668 H   0  0  0  0  0  0  0  0  0  0  0  0
   22.4436  -25.4579   43.7046 H   0  0  0  0  0  0  0  0  0  0  0  0
   23.6281  -26.0959   42.5143 H   0  0  0  0  0  0  0  0  0  0  0  0
   23.2065  -24.3497   42.5143 H   0  0  0  0  0  0  0  0  0  0  0  0
   20.4648  -24.1989   42.7434 H   0  0  0  0  0  0  0  0  0  0  0  0
   21.1425  -23.6092   41.1878 H   0  0  0  0  0  0  0  0  0  0  0  0
   19.7689  -24.7668   41.1878 H   0  0  0  0  0  0  0  0  0  0  0  0
  1  2  1  0
  2  3  2  0
  3  4  1  0
  4  5  1  0
  5  6  1  0
  6  7  1  0
  7  8  2  0
  8  9  1  0
  9 10  2  0
 10 11  1  0
 11 12  1  0
 11 13  2  0
 13 14  1  0
 14 15  2  0
 14 16  1  0
 16 17  1  0
  4 18  2  0
 18 19  1  0
 19 20  2  0
 20 21  1  0
 21 22  1  0
 22 23  1  0
 22 24  1  0
 20  2  1  0
 16  5  2  0
 13  7  1  0
  1 25  1  0
  1 26  1  0
  1 27  1  0
  3 28  1  0
  8 29  1  0
  9 30  1  0
 10 31  1  0
 12 32  1  0
 17 33  1  0
 18 34  1  0
 19 35  1  0
 21 36  1  0
 21 37  1  0
 22 38  1  0
 23 39  1  0
 23 40  1  0
 23 41  1  0
 24 42  1  0
 24 43  1  0
 24 44  1  0
M  END
>  <meeko>  (7) 
{"is_sidechain": [false], "free_energy": -8.482, "intermolecular_energy": -10.403, "internal_energy": -0.746}

$$$$
cand_051_out
     RDKit          3D

 44 46  0  0  0  0  0  0  0  0999 V2000
   20.5670  -30.5350   35.3310 C   0  0  0  0  0  0  0  0  0  0  0  0
   20.4020  -30.9200   36.7750 C   0  0  0  0  0  0  0  0  0  0  0  0
   21.0020  -30.1140   37.7610 C   0  0  0  0  0  0  0  0  0  0  0  0
   20.8950  -30.4120   39.1280 C   0  0  0  0  0  0  0  0  0  0  0  0
   21.5630  -29.5500   40.1260 C   0  0  0  0  0  0  0  0  0  0  0  0
   22.5800  -30.2060   40.8100 O   0  0  0  0  0  0  0  0  0  0  0  0
   23.2850  -29.5200   41.7680 C   0  0  0  0  0  0  0  0  0  0  0  0
   24.2880  -30.2210   42.4400 C   0  0  0  0  0  0  0  0  0  0  0  0
   25.0440  -29.5820   43.4240 C   0  0  0  0  0  0  0  0  0  0  0  0
   24.7990  -28.2430   43.7370 C   0  0  0  0  0  0  0  0  0  0  0  0
   23.7980  -27.5460   43.0640 C   0  0  0  0  0  0  0  0  0  0  0  0
   23.6110  -26.2380   43.4180 O   0  0  0  0  0  0  0  0  0  0  0  0
   23.0400  -28.1860   42.0790 C   0  0  0  0  0  0  0  0  0  0  0  0
   21.9800  -27.4910   41.3490 C   0  0  0  0  0  0  0  0  0  0  0  0
   21.7100  -26.3100   41.5610 O   0  0  0  0  0  0  0  0  0  0  0  0
   21.2310  -28.2620   40.3300 C   0  0  0  0  0  0  0  0  0  0  0  0
   20.2400  -27.5910   39.6360 O   0  0  0  0  0  0  0  0  0  0  0  0
   20.1850  -31.5560   39.5020 C   0  0  0  0  0  0  0  0  0  0  0  0
   19.5850  -32.3680   38.5370 C   0  0  0  0  0  0  0  0  0  0  0  0
   19.6780  -32.0630   37.1680 C   0  0  0  0  0  0  0  0  0  0  0  0
   18.9980  -32.9890   36.1790 C   0  0  0  0  0  0  0  0  0  0  0  0
   19.6850  -34.3620   36.0310 C   0  0  0  0  0  0  0  0  0  0  0  0
   19.8080  -34.7220   34.5470 C   0  0  0  0  0  0  0  0  0  0  0  0
   18.9280  -35.4700   36.7670 C   0  0  0  0  0  0  0  0  0  0  0  0
   20.9996  -29.5256   35.2678 H   0  0  0  0  0  0  0  0  0  0  0  0
   21.2366  -31.2527   34.8344 H   0  0  0  0  0  0  0  0  0  0  0  0
   19.5855  -30.5451   34.8344 H   0  0  0  0  0  0  0  0  0  0  0  0
   21.5710  -29.2251   37.4509 H   0  0  0  0  0  0  0  0  0  0  0  0
   24.4822  -31.2755   42.1943 H   0  0  0  0  0  0  0  0  0  0  0  0
   25.8342  -30.1339   43.9540 H   0  0  0  0  0  0  0  0  0  0  0  0
   25.3949  -27.7401   44.5129 H   0  0  0  0  0  0  0  0  0  0  0  0
   23.6620  -25.5650   42.7690 H   0  0  0  0  0  0  0  0  0  0  0  0
   19.3910  -27.9760   39.5440 H   0  0  0  0  0  0  0  0  0  0  0  0
   20.0979  -31.8195   40.5664 H   0  0  0  0  0  0  0  0  0  0  0  0
   19.0294  -33.2628   38.8542 H   0  0  0  0  0  0  0  0  0  0  0  0
   17.9636  -33.1542   36.5146 H   0  0  0  0  0  0  0  0  0  0  0  0
   19.0510  -32.4988   35.1957 H   0  0  0  0  0  0  0  0  0  0  0  0
   20.6833  -34.2821   36.4860 H   0  0  0  0  0  0  0  0  0  0  0  0
   20.1622  -35.7588   34.4494 H   0  0  0  0  0  0  0  0  0  0  0  0
   18.8251  -34.6232   34.0630 H   0  0  0  0  0  0  0  0  0  0  0  0
   20.5249  -34.0425   34.0630 H   0  0  0  0  0  0  0  0  0  0  0  0
   19.0280  -35.3237   37.8526 H   0  0  0  0  0  0  0  0  0  0  0  0
   17.8644  -35.4347   36.4887 H   0  0  0  0  0  0  0  0  0  0  0  0
   19.3476  -36.4480   36.4887 H   0  0  0  0  0  0  0  0  0  0  0  0
  1  2  1  0
  2  3  2  0
  3  4  1  0
  4  5  1  0
  5  6  1  0
  6  7  1  0
  7  8  2  0
  8  9  1  0
  9 10  2  0
 10 11  1  0
 11 12  1  0
 11 13  2  0
 13 14  1  0
 14 15  2  0
 14 16  1  0
 16 17  1  0
  4 18  2  0
 18 19  1  0
 19 20  2  0
 20 21  1  0
 21 22  1  0
 22 23  1  0
 22 24  1  0
 20  2  1  0
 16  5  2  0
 13  7  1  0
  1 25  1  0
  1 26  1  0
  1 27  1  0
  3 28  1  0
  8 29  1  0
  9 30  1  0
 10 31  1  0
 12 32  1  0
 17 33  1  0
 18 34  1  0
 19 35  1  0
 21 36  1  0
 21 37  1  0
 22 38  1  0
 23 39  1  0
 23 40  1  0
 23 41  1  0
 24 42  1  0
 24 43  1  0
 24 44  1  0
M  END
>  <meeko>  (8) 
{"is_sidechain": [false], "free_energy": -8.328, "intermolecular_energy": -10.392, "internal_energy": -0.567}

$$$$
cand_051_out
     RDKit          3D

 44 46  0  0  0  0  0  0  0  0999 V2000
   19.6990  -32.6060   38.8690 C   0  0  0  0  0  0  0  0  0  0  0  0
   20.3930  -31.2880   38.6630 C   0  0  0  0  0  0  0  0  0  0  0  0
   20.8730  -30.5940   39.7900 C   0  0  0  0  0  0  0  0  0  0  0  0
   21.5270  -29.3570   39.6770 C   0  0  0  0  0  0  0  0  0  0  0  0
   21.9910  -28.6540   40.8920 C   0  0  0  0  0  0  0  0  0  0  0  0
   21.1560  -27.6040   41.2590 O   0  0  0  0  0  0  0  0  0  0  0  0
   21.4710  -26.8650   42.3710 C   0  0  0  0  0  0  0  0  0  0  0  0
   20.6140  -25.8130   42.6960 C   0  0  0  0  0  0  0  0  0  0  0  0
   20.8750  -25.0220   43.8170 C   0  0  0  0  0  0  0  0  0  0  0  0
   21.9920  -25.2840   44.6140 C   0  0  0  0  0  0  0  0  0  0  0  0
   22.8450  -26.3360   44.2880 C   0  0  0  0  0  0  0  0  0  0  0  0
   23.9190  -26.5370   45.1110 O   0  0  0  0  0  0  0  0  0  0  0  0
   22.5840  -27.1260   43.1650 C   0  0  0  0  0  0  0  0  0  0  0  0
   23.4540  -28.2400   42.7880 C   0  0  0  0  0  0  0  0  0  0  0  0
   24.4520  -28.5380   43.4430 O   0  0  0  0  0  0  0  0  0  0  0  0
   23.0930  -29.0110   41.5760 C   0  0  0  0  0  0  0  0  0  0  0  0
   23.9150  -30.0700   41.2360 O   0  0  0  0  0  0  0  0  0  0  0  0
   21.6800  -28.8040   38.4030 C   0  0  0  0  0  0  0  0  0  0  0  0
   21.2080  -29.4780   37.2740 C   0  0  0  0  0  0  0  0  0  0  0  0
   20.5670  -30.7230   37.3830 C   0  0  0  0  0  0  0  0  0  0  0  0
   20.0850  -31.3970   36.1130 C   0  0  0  0  0  0  0  0  0  0  0  0
   20.5760  -30.7170   34.8180 C   0  0  0  0  0  0  0  0  0  0  0  0
   19.5420  -29.6900   34.3490 C   0  0  0  0  0  0  0  0  0  0  0  0
   20.8410  -31.7280   33.7000 C   0  0  0  0  0  0  0  0  0  0  0  0
   19.5960  -32.8017   39.9465 H   0  0  0  0  0  0  0  0  0  0  0  0
   18.7020  -32.5718   38.4056 H   0  0  0  0  0  0  0  0  0  0  0  0
   20.2914  -33.4087   38.4056 H   0  0  0  0  0  0  0  0  0  0  0  0
   20.7314  -31.0339   40.7882 H   0  0  0  0  0  0  0  0  0  0  0  0
   19.7335  -25.6068   42.0698 H   0  0  0  0  0  0  0  0  0  0  0  0
   20.2003  -24.1917   44.0727 H   0  0  0  0  0  0  0  0  0  0  0  0
   22.1975  -24.6610   45.4970 H   0  0  0  0  0  0  0  0  0  0  0  0
   24.0380  -25.9960   45.8660 H   0  0  0  0  0  0  0  0  0  0  0  0
   23.5970  -30.9490   41.3000 H   0  0  0  0  0  0  0  0  0  0  0  0
   22.1765  -27.8292   38.2880 H   0  0  0  0  0  0  0  0  0  0  0  0
   21.3409  -29.0249   36.2805 H   0  0  0  0  0  0  0  0  0  0  0  0
   20.4438  -32.4368   36.1154 H   0  0  0  0  0  0  0  0  0  0  0  0
   18.9871  -31.3284   36.1126 H   0  0  0  0  0  0  0  0  0  0  0  0
   21.5287  -30.2171   35.0473 H   0  0  0  0  0  0  0  0  0  0  0  0
   19.0689  -29.2201   35.2239 H   0  0  0  0  0  0  0  0  0  0  0  0
   20.0400  -28.9187   33.7431 H   0  0  0  0  0  0  0  0  0  0  0  0
   18.7741  -30.1932   33.7431 H   0  0  0  0  0  0  0  0  0  0  0  0
   21.0966  -32.7031   34.1404 H   0  0  0  0  0  0  0  0  0  0  0  0
   19.9396  -31.8315   33.0780 H   0  0  0  0  0  0  0  0  0  0  0  0
   21.6772  -31.3761   33.0780 H   0  0  0  0  0  0  0  0  0  0  0  0
  1  2  1  0
  2  3  2  0
  3  4  1  0
  4  5  1  0
  5  6  1  0
  6  7  1  0
  7  8  2  0
  8  9  1  0
  9 10  2  0
 10 11  1  0
 11 12  1  0
 11 13  2  0
 13 14  1  0
 14 15  2  0
 14 16  1  0
 16 17  1  0
  4 18  2  0
 18 19  1  0
 19 20  2  0
 20 21  1  0
 21 22  1  0
 22 23  1  0
 22 24  1  0
 20  2  1  0
 16  5  2  0
 13  7  1  0
  1 25  1  0
  1 26  1  0
  1 27  1  0
  3 28  1  0
  8 29  1  0
  9 30  1  0
 10 31  1  0
 12 32  1  0
 17 33  1  0
 18 34  1  0
 19 35  1  0
 21 36  1  0
 21 37  1  0
 22 38  1  0
 23 39  1  0
 23 40  1  0
 23 41  1  0
 24 42  1  0
 24 43  1  0
 24 44  1  0
M  END
>  <meeko>  (9) 
{"is_sidechain": [false], "free_energy": -8.318, "intermolecular_energy": -10.48, "internal_energy": -0.466}

$$$$
