cand_034_out
     RDKit          3D

 40 42  0  0  0  0  0  0  0  0999 V2000
   24.3630  -25.7240   43.4470 C   0  0  0  0  0  0  0  0  0  0  0  0
   24.0060  -27.1160   43.7400 N   0  0  0  0  0  0  0  0  0  0  0  0
   23.2520  -27.2780   44.9920 C   0  0  0  0  0  0  0  0  0  0  0  0
   23.3720  -27.8000   42.6800 C   0  0  0  0  0  0  0  0  0  0  0  0
   22.2950  -27.2460   41.9710 C   0  0  0  0  0  0  0  0  0  0  0  0
   21.6670  -27.9510   40.9370 C   0  0  0  0  0  0  0  0  0  0  0  0
   22.0970  -29.2310   40.5790 C   0  0  0  0  0  0  0  0  0  0  0  0
   21.4300  -30.0100   39.5140 C   0  0  0  0  0  0  0  0  0  0  0  0
   20.6270  -31.0300   40.0120 O   0  0  0  0  0  0  0  0  0  0  0  0
   19.9530  -31.8350   39.1300 C   0  0  0  0  0  0  0  0  0  0  0  0
   19.1510  -32.8390   39.6760 C   0  0  0  0  0  0  0  0  0  0  0  0
   18.4370  -33.6940   38.8340 C   0  0  0  0  0  0  0  0  0  0  0  0
   18.5260  -33.5470   37.4480 C   0  0  0  0  0  0  0  0  0  0  0  0
   19.3280  -32.5450   36.9060 C   0  0  0  0  0  0  0  0  0  0  0  0
   19.3700  -32.4570   35.5420 O   0  0  0  0  0  0  0  0  0  0  0  0
   20.0410  -31.6880   37.7500 C   0  0  0  0  0  0  0  0  0  0  0  0
   20.8950  -30.6230   37.2230 C   0  0  0  0  0  0  0  0  0  0  0  0
   21.0310  -30.4350   36.0160 O   0  0  0  0  0  0  0  0  0  0  0  0
   21.6050  -29.7680   38.2010 C   0  0  0  0  0  0  0  0  0  0  0  0
   22.4220  -28.7750   37.6920 O   0  0  0  0  0  0  0  0  0  0  0  0
   23.1630  -29.7940   41.2940 C   0  0  0  0  0  0  0  0  0  0  0  0
   23.8100  -29.0910   42.3290 C   0  0  0  0  0  0  0  0  0  0  0  0
   24.9510  -29.7470   43.0630 C   0  0  0  0  0  0  0  0  0  0  0  0
   25.5800  -30.7040   42.3130 F   0  0  0  0  0  0  0  0  0  0  0  0
   24.5410  -30.3950   44.1920 F   0  0  0  0  0  0  0  0  0  0  0  0
   24.5037  -25.1753   44.3899 H   0  0  0  0  0  0  0  0  0  0  0  0
   25.2965  -25.6995   42.8657 H   0  0  0  0  0  0  0  0  0  0  0  0
   23.5565  -25.2532   42.8657 H   0  0  0  0  0  0  0  0  0  0  0  0
   23.9273  -27.1329   45.8481 H   0  0  0  0  0  0  0  0  0  0  0  0
   22.4437  -26.5330   45.0322 H   0  0  0  0  0  0  0  0  0  0  0  0
   22.8210  -28.2892   45.0322 H   0  0  0  0  0  0  0  0  0  0  0  0
   21.9375  -26.2391   42.2325 H   0  0  0  0  0  0  0  0  0  0  0  0
   20.8244  -27.4911   40.3998 H   0  0  0  0  0  0  0  0  0  0  0  0
   19.0817  -32.9563   40.7675 H   0  0  0  0  0  0  0  0  0  0  0  0
   17.8036  -34.4844   39.2629 H   0  0  0  0  0  0  0  0  0  0  0  0
   17.9637  -34.2213   36.7853 H   0  0  0  0  0  0  0  0  0  0  0  0
   19.3620  -31.6170   35.1260 H   0  0  0  0  0  0  0  0  0  0  0  0
   22.2220  -27.8750   37.8560 H   0  0  0  0  0  0  0  0  0  0  0  0
   23.5025  -30.8092   41.0408 H   0  0  0  0  0  0  0  0  0  0  0  0
   25.6273  -28.9118   43.2979 H   0  0  0  0  0  0  0  0  0  0  0  0
  1  2  1  0
  2  3  1  0
  2  4  1  0
  4  5  2  0
  5  6  1  0
  6  7  2  0
  7  8  1  0
  8  9  1  0
  9 10  1  0
 10 11  2  0
 11 12  1  0
 12 13  2  0
 13 14  1  0
 14 15  1  0
 14 16  2  0
 16 17  1  0
 17 18  2  0
 17 19  1  0
 19 20  1  0
  7 21  1  0
 21 22  2  0
 22 23  1  0
 23 24  1  0
 23 25  1  0
 22  4  1  0
 19  8  2  0
 16 10  1  0
  1 26  1  0
  1 27  1  0
  1 28  1  0
  3 29  1  0
  3 30  1  0
  3 31  1  0
  5 32  1  0
  6 33  1  0
 11 34  1  0
 12 35  1  0
 13 36  1  0
 15 37  1  0
 20 38  1  0
 21 39  1  0
 23 40  1  0
M  END
>  <meeko>  (1) 
{"is_sidechain": [false], "free_energy": -9.378, "intermolecular_energy": -11.571, "internal_energy": -0.614}

$$$$
cand_034_out
     RDKit          3D

 40 42  0  0  0  0  0  0  0  0999 V2000
   23.1610  -24.8150   42.3040 C   0  0  0  0  0  0  0  0  0  0  0  0
   22.8400  -26.1420   42.8410 N   0  0  0  0  0  0  0  0  0  0  0  0
   21.9870  -26.1020   44.0380 C   0  0  0  0  0  0  0  0  0  0  0  0
   22.3330  -27.0560   41.8930 C   0  0  0  0  0  0  0  0  0  0  0  0
   21.2620  -26.7370   41.0440 C   0  0  0  0  0  0  0  0  0  0  0  0
   20.7600  -27.6670   40.1260 C   0  0  0  0  0  0  0  0  0  0  0  0
   21.3130  -28.9460   40.0270 C   0  0  0  0  0  0  0  0  0  0  0  0
   20.7810  -29.9580   39.0900 C   0  0  0  0  0  0  0  0  0  0  0  0
   20.1090  -30.9910   39.7340 O   0  0  0  0  0  0  0  0  0  0  0  0
   19.5680  -32.0020   38.9820 C   0  0  0  0  0  0  0  0  0  0  0  0
   18.8940  -33.0120   39.6710 C   0  0  0  0  0  0  0  0  0  0  0  0
   18.3210  -34.0720   38.9650 C   0  0  0  0  0  0  0  0  0  0  0  0
   18.4220  -34.1220   37.5740 C   0  0  0  0  0  0  0  0  0  0  0  0
   19.0950  -33.1140   36.8890 C   0  0  0  0  0  0  0  0  0  0  0  0
   19.1570  -33.2260   35.5270 O   0  0  0  0  0  0  0  0  0  0  0  0
   19.6690  -32.0520   37.5960 C   0  0  0  0  0  0  0  0  0  0  0  0
   20.3860  -30.9730   36.9170 C   0  0  0  0  0  0  0  0  0  0  0  0
   20.5230  -30.9500   35.6960 O   0  0  0  0  0  0  0  0  0  0  0  0
   20.9530  -29.8930   37.7560 C   0  0  0  0  0  0  0  0  0  0  0  0
   21.6430  -28.8860   37.1050 O   0  0  0  0  0  0  0  0  0  0  0  0
   22.3740  -29.2750   40.8830 C   0  0  0  0  0  0  0  0  0  0  0  0
   22.8950  -28.3440   41.8040 C   0  0  0  0  0  0  0  0  0  0  0  0
   24.0350  -28.7550   42.6990 C   0  0  0  0  0  0  0  0  0  0  0  0
   24.6890  -29.8680   42.2440 F   0  0  0  0  0  0  0  0  0  0  0  0
   23.6200  -29.0770   43.9580 F   0  0  0  0  0  0  0  0  0  0  0  0
   23.3305  -24.1144   43.1349 H   0  0  0  0  0  0  0  0  0  0  0  0
   24.0696  -24.8790   41.6872 H   0  0  0  0  0  0  0  0  0  0  0  0
   22.3236  -24.4567   41.6872 H   0  0  0  0  0  0  0  0  0  0  0  0
   22.6176  -26.1316   44.9388 H   0  0  0  0  0  0  0  0  0  0  0  0
   21.3947  -25.1751   44.0353 H   0  0  0  0  0  0  0  0  0  0  0  0
   21.3105  -26.9694   44.0353 H   0  0  0  0  0  0  0  0  0  0  0  0
   20.8081  -25.7366   41.1010 H   0  0  0  0  0  0  0  0  0  0  0  0
   19.9193  -27.3871   39.4742 H   0  0  0  0  0  0  0  0  0  0  0  0
   18.8145  -32.9730   40.7674 H   0  0  0  0  0  0  0  0  0  0  0  0
   17.7893  -34.8686   39.5061 H   0  0  0  0  0  0  0  0  0  0  0  0
   17.9701  -34.9574   37.0191 H   0  0  0  0  0  0  0  0  0  0  0  0
   18.5570  -33.7850   35.0750 H   0  0  0  0  0  0  0  0  0  0  0  0
   21.4660  -28.7060   36.2030 H   0  0  0  0  0  0  0  0  0  0  0  0
   22.8100  -30.2837   40.8345 H   0  0  0  0  0  0  0  0  0  0  0  0
   24.6956  -27.8755   42.7031 H   0  0  0  0  0  0  0  0  0  0  0  0
  1  2  1  0
  2  3  1  0
  2  4  1  0
  4  5  2  0
  5  6  1  0
  6  7  2  0
  7  8  1  0
  8  9  1  0
  9 10  1  0
 10 11  2  0
 11 12  1  0
 12 13  2  0
 13 14  1  0
 14 15  1  0
 14 16  2  0
 16 17  1  0
 17 18  2  0
 17 19  1  0
 19 20  1  0
  7 21  1  0
 21 22  2  0
 22 23  1  0
 23 24  1  0
 23 25  1  0
 22  4  1  0
 19  8  2  0
 16 10  1  0
  1 26  1  0
  1 27  1  0
  1 28  1  0
  3 29  1  0
  3 30  1  0
  3 31  1  0
  5 32  1  0
  6 33  1  0
 11 34  1  0
 12 35  1  0
 13 36  1  0
 15 37  1  0
 20 38  1  0
 21 39  1  0
 23 40  1  0
M  END
>  <meeko>  (2) 
{"is_sidechain": [false], "free_energy": -9.208, "intermolecular_energy": -11.37, "internal_energy": -0.605}

$$$$
cand_034_out
     RDKit          3D

 40 42  0  0  0  0  0  0  0  0999 V2000
   23.6470  -27.5690   44.8010 C   0  0  0  0  0  0  0  0  0  0  0  0
   23.1950  -26.8320   43.6170 N   0  0  0  0  0  0  0  0  0  0  0  0
   24.1830  -25.8680   43.1110 C   0  0  0  0  0  0  0  0  0  0  0  0
   22.7000  -27.6400   42.5710 C   0  0  0  0  0  0  0  0  0  0  0  0
   23.4400  -28.7040   42.0330 C   0  0  0  0  0  0  0  0  0  0  0  0
   22.9390  -29.4780   40.9800 C   0  0  0  0  0  0  0  0  0  0  0  0
   21.6820  -29.2150   40.4320 C   0  0  0  0  0  0  0  0  0  0  0  0
   21.1430  -29.9960   39.2980 C   0  0  0  0  0  0  0  0  0  0  0  0
   20.3940  -31.0940   39.7060 O   0  0  0  0  0  0  0  0  0  0  0  0
   19.8390  -31.9100   38.7540 C   0  0  0  0  0  0  0  0  0  0  0  0
   19.0870  -32.9940   39.2090 C   0  0  0  0  0  0  0  0  0  0  0  0
   18.4950  -33.8650   38.2920 C   0  0  0  0  0  0  0  0  0  0  0  0
   18.6540  -33.6520   36.9220 C   0  0  0  0  0  0  0  0  0  0  0  0
   19.4050  -32.5700   36.4700 C   0  0  0  0  0  0  0  0  0  0  0  0
   19.5220  -32.4210   35.1150 O   0  0  0  0  0  0  0  0  0  0  0  0
   19.9980  -31.6980   37.3880 C   0  0  0  0  0  0  0  0  0  0  0  0
   20.7960  -30.5500   36.9570 C   0  0  0  0  0  0  0  0  0  0  0  0
   20.9870  -30.3000   35.7690 O   0  0  0  0  0  0  0  0  0  0  0  0
   21.3770  -29.6850   38.0090 C   0  0  0  0  0  0  0  0  0  0  0  0
   22.1420  -28.6120   37.5900 O   0  0  0  0  0  0  0  0  0  0  0  0
   20.9440  -28.1440   40.9560 C   0  0  0  0  0  0  0  0  0  0  0  0
   21.4330  -27.3630   42.0230 C   0  0  0  0  0  0  0  0  0  0  0  0
   20.5950  -26.2240   42.5440 C   0  0  0  0  0  0  0  0  0  0  0  0
   19.2680  -26.5450   42.6380 F   0  0  0  0  0  0  0  0  0  0  0  0
   20.6390  -25.1300   41.7310 F   0  0  0  0  0  0  0  0  0  0  0  0
   23.3222  -27.0393   45.7087 H   0  0  0  0  0  0  0  0  0  0  0  0
   23.2134  -28.5799   44.7913 H   0  0  0  0  0  0  0  0  0  0  0  0
   24.7446  -27.6408   44.7913 H   0  0  0  0  0  0  0  0  0  0  0  0
   24.6849  -25.3783   43.9585 H   0  0  0  0  0  0  0  0  0  0  0  0
   24.9289  -26.3951   42.4979 H   0  0  0  0  0  0  0  0  0  0  0  0
   23.6744  -25.1094   42.4979 H   0  0  0  0  0  0  0  0  0  0  0  0
   24.4329  -28.9342   42.4468 H   0  0  0  0  0  0  0  0  0  0  0  0
   23.5437  -30.3046   40.5787 H   0  0  0  0  0  0  0  0  0  0  0  0
   18.9607  -33.1621   40.2887 H   0  0  0  0  0  0  0  0  0  0  0  0
   17.9027  -34.7200   38.6499 H   0  0  0  0  0  0  0  0  0  0  0  0
   18.1867  -34.3379   36.2001 H   0  0  0  0  0  0  0  0  0  0  0  0
   20.2990  -32.7070   34.6770 H   0  0  0  0  0  0  0  0  0  0  0  0
   21.7770  -27.7500   37.5890 H   0  0  0  0  0  0  0  0  0  0  0  0
   19.9602  -27.9076   40.5243 H   0  0  0  0  0  0  0  0  0  0  0  0
   21.0269  -26.0109   43.5330 H   0  0  0  0  0  0  0  0  0  0  0  0
  1  2  1  0
  2  3  1  0
  2  4  1  0
  4  5  2  0
  5  6  1  0
  6  7  2  0
  7  8  1  0
  8  9  1  0
  9 10  1  0
 10 11  2  0
 11 12  1  0
 12 13  2  0
 13 14  1  0
 14 15  1  0
 14 16  2  0
 16 17  1  0
 17 18  2  0
 17 19  1  0
 19 20  1  0
  7 21  1  0
 21 22  2  0
 22 23  1  0
 23 24  1  0
 23 25  1  0
 22  4  1  0
 19  8  2  0
 16 10  1  0
  1 26  1  0
  1 27  1  0
  1 28  1  0
  3 29  1  0
  3 30  1  0
  3 31  1  0
  5 32  1  0
  6 33  1  0
 11 34  1  0
 12 35  1  0
 13 36  1  0
 15 37  1  0
 20 38  1  0
 21 39  1  0
 23 40  1  0
M  END
>  <meeko>  (3) 
{"is_sidechain": [false], "free_energy": -8.846, "intermolecular_energy": -10.883, "internal_energy": -0.646}

$$$$
cand_034_out
     RDKit          3D

 40 42  0  0  0  0  0  0  0  0999 V2000
   20.4460  -25.0600   40.7080 C   0  0  0  0  0  0  0  0  0  0  0  0
   20.5280  -26.3720   41.3590 N   0  0  0  0  0  0  0  0  0  0  0  0
   19.6860  -26.4870   42.5590 C   0  0  0  0  0  0  0  0  0  0  0  0
   20.3260  -27.4720   40.4970 C   0  0  0  0  0  0  0  0  0  0  0  0
   19.1500  -27.6300   39.7470 C   0  0  0  0  0  0  0  0  0  0  0  0
   18.9630  -28.7410   38.9170 C   0  0  0  0  0  0  0  0  0  0  0  0
   19.9440  -29.7290   38.8090 C   0  0  0  0  0  0  0  0  0  0  0  0
   19.7570  -30.9290   37.9640 C   0  0  0  0  0  0  0  0  0  0  0  0
   20.1670  -30.7330   36.6500 O   0  0  0  0  0  0  0  0  0  0  0  0
   20.0440  -31.7660   35.7560 C   0  0  0  0  0  0  0  0  0  0  0  0
   20.4770  -31.5280   34.4510 C   0  0  0  0  0  0  0  0  0  0  0  0
   20.3790  -32.5370   33.4900 C   0  0  0  0  0  0  0  0  0  0  0  0
   19.8490  -33.7820   33.8340 C   0  0  0  0  0  0  0  0  0  0  0  0
   19.4170  -34.0170   35.1370 C   0  0  0  0  0  0  0  0  0  0  0  0
   18.9080  -35.2570   35.4060 O   0  0  0  0  0  0  0  0  0  0  0  0
   19.5160  -33.0060   36.0990 C   0  0  0  0  0  0  0  0  0  0  0  0
   19.0730  -33.2100   37.4780 C   0  0  0  0  0  0  0  0  0  0  0  0
   18.5900  -34.2750   37.8570 O   0  0  0  0  0  0  0  0  0  0  0  0
   19.2240  -32.0780   38.4210 C   0  0  0  0  0  0  0  0  0  0  0  0
   18.7880  -32.2760   39.7180 O   0  0  0  0  0  0  0  0  0  0  0  0
   21.1140  -29.5830   39.5670 C   0  0  0  0  0  0  0  0  0  0  0  0
   21.3200  -28.4650   40.3990 C   0  0  0  0  0  0  0  0  0  0  0  0
   22.5970  -28.3630   41.1910 C   0  0  0  0  0  0  0  0  0  0  0  0
   23.4230  -29.4370   41.0020 F   0  0  0  0  0  0  0  0  0  0  0  0
   22.3750  -28.3200   42.5370 F   0  0  0  0  0  0  0  0  0  0  0  0
   20.3968  -24.2727   41.4747 H   0  0  0  0  0  0  0  0  0  0  0  0
   21.3363  -24.9057   40.0806 H   0  0  0  0  0  0  0  0  0  0  0  0
   19.5435  -25.0178   40.0806 H   0  0  0  0  0  0  0  0  0  0  0  0
   20.3146  -26.4011   43.4576 H   0  0  0  0  0  0  0  0  0  0  0  0
   18.9352  -25.6831   42.5585 H   0  0  0  0  0  0  0  0  0  0  0  0
   19.1783  -27.4628   42.5585 H   0  0  0  0  0  0  0  0  0  0  0  0
   18.3609  -26.8664   39.8129 H   0  0  0  0  0  0  0  0  0  0  0  0
   18.0304  -28.8374   38.3417 H   0  0  0  0  0  0  0  0  0  0  0  0
   20.8948  -30.5474   34.1795 H   0  0  0  0  0  0  0  0  0  0  0  0
   20.7198  -32.3504   32.4609 H   0  0  0  0  0  0  0  0  0  0  0  0
   19.7727  -34.5763   33.0768 H   0  0  0  0  0  0  0  0  0  0  0  0
   18.7760  -35.5280   36.2930 H   0  0  0  0  0  0  0  0  0  0  0  0
   19.0610  -33.0360   40.1920 H   0  0  0  0  0  0  0  0  0  0  0  0
   21.8902  -30.3604   39.5108 H   0  0  0  0  0  0  0  0  0  0  0  0
   23.0575  -27.4330   40.8262 H   0  0  0  0  0  0  0  0  0  0  0  0
  1  2  1  0
  2  3  1  0
  2  4  1  0
  4  5  2  0
  5  6  1  0
  6  7  2  0
  7  8  1  0
  8  9  1  0
  9 10  1  0
 10 11  2  0
 11 12  1  0
 12 13  2  0
 13 14  1  0
 14 15  1  0
 14 16  2  0
 16 17  1  0
 17 18  2  0
 17 19  1  0
 19 20  1  0
  7 21  1  0
 21 22  2  0
 22 23  1  0
 23 24  1  0
 23 25  1  0
 22  4  1  0
 19  8  2  0
 16 10  1  0
  1 26  1  0
  1 27  1  0
  1 28  1  0
  3 29  1  0
  3 30  1  0
  3 31  1  0
  5 32  1  0
  6 33  1  0
 11 34  1  0
 12 35  1  0
 13 36  1  0
 15 37  1  0
 20 38  1  0
 21 39  1  0
 23 40  1  0
M  END
>  <meeko>  (4) 
{"is_sidechain": [false], "free_energy": -8.495, "intermolecular_energy": -10.554, "internal_energy": -0.543}

$$$$
cand_034_out
     RDKit          3D

 40 42  0  0  0  0  0  0  0  0999 V2000
   19.3290  -29.3610   34.7040 C   0  0  0  0  0  0  0  0  0  0  0  0
   19.8690  -30.4230   35.5580 N   0  0  0  0  0  0  0  0  0  0  0  0
   20.7840  -31.3350   34.8560 C   0  0  0  0  0  0  0  0  0  0  0  0
   20.4380  -29.9750   36.7700 C   0  0  0  0  0  0  0  0  0  0  0  0
   21.2960  -28.8660   36.8290 C   0  0  0  0  0  0  0  0  0  0  0  0
   21.8660  -28.4520   38.0390 C   0  0  0  0  0  0  0  0  0  0  0  0
   21.5970  -29.1340   39.2280 C   0  0  0  0  0  0  0  0  0  0  0  0
   22.2130  -28.7390   40.5130 C   0  0  0  0  0  0  0  0  0  0  0  0
   23.1260  -29.6750   40.9850 O   0  0  0  0  0  0  0  0  0  0  0  0
   23.7680  -29.4350   42.1730 C   0  0  0  0  0  0  0  0  0  0  0  0
   24.6830  -30.3980   42.6030 C   0  0  0  0  0  0  0  0  0  0  0  0
   25.3710  -30.2160   43.8050 C   0  0  0  0  0  0  0  0  0  0  0  0
   25.1440  -29.0740   44.5750 C   0  0  0  0  0  0  0  0  0  0  0  0
   24.2300  -28.1160   44.1440 C   0  0  0  0  0  0  0  0  0  0  0  0
   24.0550  -27.0220   44.9470 O   0  0  0  0  0  0  0  0  0  0  0  0
   23.5420  -28.2980   42.9400 C   0  0  0  0  0  0  0  0  0  0  0  0
   22.5730  -27.3170   42.4510 C   0  0  0  0  0  0  0  0  0  0  0  0
   22.3140  -26.2900   43.0750 O   0  0  0  0  0  0  0  0  0  0  0  0
   21.9010  -27.6020   41.1620 C   0  0  0  0  0  0  0  0  0  0  0  0
   20.9750  -26.6760   40.7170 O   0  0  0  0  0  0  0  0  0  0  0  0
   20.7530  -30.2520   39.1720 C   0  0  0  0  0  0  0  0  0  0  0  0
   20.1640  -30.6720   37.9630 C   0  0  0  0  0  0  0  0  0  0  0  0
   19.2650  -31.8810   37.9640 C   0  0  0  0  0  0  0  0  0  0  0  0
   18.3350  -31.8470   38.9670 F   0  0  0  0  0  0  0  0  0  0  0  0
   19.9540  -33.0430   38.1590 F   0  0  0  0  0  0  0  0  0  0  0  0
   18.9201  -28.5568   35.3333 H   0  0  0  0  0  0  0  0  0  0  0  0
   20.1314  -28.9576   34.0689 H   0  0  0  0  0  0  0  0  0  0  0  0
   18.5303  -29.7717   34.0689 H   0  0  0  0  0  0  0  0  0  0  0  0
   21.3629  -31.9120   35.5922 H   0  0  0  0  0  0  0  0  0  0  0  0
   20.2028  -32.0238   34.2253 H   0  0  0  0  0  0  0  0  0  0  0  0
   21.4709  -30.7515   34.2253 H   0  0  0  0  0  0  0  0  0  0  0  0
   21.5251  -28.3114   35.9071 H   0  0  0  0  0  0  0  0  0  0  0  0
   22.5343  -27.5784   38.0535 H   0  0  0  0  0  0  0  0  0  0  0  0
   24.8617  -31.2981   41.9965 H   0  0  0  0  0  0  0  0  0  0  0  0
   26.0925  -30.9735   44.1452 H   0  0  0  0  0  0  0  0  0  0  0  0
   25.6865  -28.9311   45.5212 H   0  0  0  0  0  0  0  0  0  0  0  0
   23.1910  -26.7320   45.1620 H   0  0  0  0  0  0  0  0  0  0  0  0
   20.5370  -26.8090   39.9000 H   0  0  0  0  0  0  0  0  0  0  0  0
   20.5457  -30.8148   40.0941 H   0  0  0  0  0  0  0  0  0  0  0  0
   18.7876  -31.8538   36.9734 H   0  0  0  0  0  0  0  0  0  0  0  0
  1  2  1  0
  2  3  1  0
  2  4  1  0
  4  5  2  0
  5  6  1  0
  6  7  2  0
  7  8  1  0
  8  9  1  0
  9 10  1  0
 10 11  2  0
 11 12  1  0
 12 13  2  0
 13 14  1  0
 14 15  1  0
 14 16  2  0
 16 17  1  0
 17 18  2  0
 17 19  1  0
 19 20  1  0
  7 21  1  0
 21 22  2  0
 22 23  1  0
 23 24  1  0
 23 25  1  0
 22  4  1  0
 19  8  2  0
 16 10  1  0
  1 26  1  0
  1 27  1  0
  1 28  1  0
  3 29  1  0
  3 30  1  0
  3 31  1  0
  5 32  1  0
  6 33  1  0
 11 34  1  0
 12 35  1  0
 13 36  1  0
 15 37  1  0
 20 38  1  0
 21 39  1  0
 23 40  1  0
M  END
>  <meeko>  (5) 
{"is_sidechain": [false], "free_energy": -8.394, "intermolecular_energy": -10.46, "internal_energy": -0.511}

$$$$
cand_034_out
     RDKit          3D

 40 42  0  0  0  0  0  0  0  0999 V2000
   19.7350  -32.6470   35.2500 C   0  0  0  0  0  0  0  0  0  0  0  0
   19.3150  -32.7030   36.6540 N   0  0  0  0  0  0  0  0  0  0  0  0
   19.5540  -34.0080   37.2890 C   0  0  0  0  0  0  0  0  0  0  0  0
   19.8090  -31.6540   37.4610 C   0  0  0  0  0  0  0  0  0  0  0  0
   20.8150  -30.7810   37.0200 C   0  0  0  0  0  0  0  0  0  0  0  0
   21.3060  -29.7620   37.8450 C   0  0  0  0  0  0  0  0  0  0  0  0
   20.8070  -29.5840   39.1370 C   0  0  0  0  0  0  0  0  0  0  0  0
   21.3310  -28.5370   40.0410 C   0  0  0  0  0  0  0  0  0  0  0  0
   22.2530  -29.0280   40.9580 O   0  0  0  0  0  0  0  0  0  0  0  0
   22.8150  -28.1620   41.8610 C   0  0  0  0  0  0  0  0  0  0  0  0
   23.7430  -28.6970   42.7570 C   0  0  0  0  0  0  0  0  0  0  0  0
   24.3530  -27.8710   43.7030 C   0  0  0  0  0  0  0  0  0  0  0  0
   24.0350  -26.5120   43.7550 C   0  0  0  0  0  0  0  0  0  0  0  0
   23.1080  -25.9820   42.8610 C   0  0  0  0  0  0  0  0  0  0  0  0
   22.8420  -24.6440   42.9670 O   0  0  0  0  0  0  0  0  0  0  0  0
   22.4990  -26.8090   41.9130 C   0  0  0  0  0  0  0  0  0  0  0  0
   21.5190  -26.2930   40.9560 C   0  0  0  0  0  0  0  0  0  0  0  0
   21.1820  -25.1110   40.9420 O   0  0  0  0  0  0  0  0  0  0  0  0
   20.9350  -27.2520   39.9900 C   0  0  0  0  0  0  0  0  0  0  0  0
   19.9980  -26.7560   39.1010 O   0  0  0  0  0  0  0  0  0  0  0  0
   19.8120  -30.4630   39.5880 C   0  0  0  0  0  0  0  0  0  0  0  0
   19.3020  -31.4860   38.7640 C   0  0  0  0  0  0  0  0  0  0  0  0
   18.2340  -32.4010   39.3030 C   0  0  0  0  0  0  0  0  0  0  0  0
   17.1300  -31.7220   39.7420 F   0  0  0  0  0  0  0  0  0  0  0  0
   18.6600  -33.1210   40.3820 F   0  0  0  0  0  0  0  0  0  0  0  0
   20.8242  -32.5018   35.1986 H   0  0  0  0  0  0  0  0  0  0  0  0
   19.4666  -33.5889   34.7491 H   0  0  0  0  0  0  0  0  0  0  0  0
   19.2292  -31.8083   34.7491 H   0  0  0  0  0  0  0  0  0  0  0  0
   19.5329  -33.8929   38.3828 H   0  0  0  0  0  0  0  0  0  0  0  0
   18.7705  -34.7153   36.9796 H   0  0  0  0  0  0  0  0  0  0  0  0
   20.5374  -34.3917   36.9796 H   0  0  0  0  0  0  0  0  0  0  0  0
   21.2258  -30.8995   36.0065 H   0  0  0  0  0  0  0  0  0  0  0  0
   22.0949  -29.0931   37.4707 H   0  0  0  0  0  0  0  0  0  0  0  0
   23.9930  -29.7675   42.7175 H   0  0  0  0  0  0  0  0  0  0  0  0
   25.0851  -28.2911   44.4084 H   0  0  0  0  0  0  0  0  0  0  0  0
   24.5158  -25.8616   44.5006 H   0  0  0  0  0  0  0  0  0  0  0  0
   22.8330  -24.1060   42.2000 H   0  0  0  0  0  0  0  0  0  0  0  0
   20.1580  -25.9470   38.6560 H   0  0  0  0  0  0  0  0  0  0  0  0
   19.4201  -30.3513   40.6097 H   0  0  0  0  0  0  0  0  0  0  0  0
   17.9915  -33.0530   38.4509 H   0  0  0  0  0  0  0  0  0  0  0  0
  1  2  1  0
  2  3  1  0
  2  4  1  0
  4  5  2  0
  5  6  1  0
  6  7  2  0
  7  8  1  0
  8  9  1  0
  9 10  1  0
 10 11  2  0
 11 12  1  0
 12 13  2  0
 13 14  1  0
 14 15  1  0
 14 16  2  0
 16 17  1  0
 17 18  2  0
 17 19  1  0
 19 20  1  0
  7 21  1  0
 21 22  2  0
 22 23  1  0
 23 24  1  0
 23 25  1  0
 22  4  1  0
 19  8  2  0
 16 10  1  0
  1 26  1  0
  1 27  1  0
  1 28  1  0
  3 29  1  0
  3 30  1  0
  3 31  1  0
  5 32  1  0
  6 33  1  0
 11 34  1  0
 12 35  1  0
 13 36  1  0
 15 37  1  0
 20 38  1  0
 21 39  1  0
 23 40  1  0
M  END
>  <meeko>  (6) 
{"is_sidechain": [false], "free_energy": -8.359, "intermolecular_energy": -10.98, "internal_energy": 0.052}

$$$$
cand_034_out
     RDKit          3D

 40 42  0  0  0  0  0  0  0  0999 V2000
   19.7210  -26.4940   42.4460 C   0  0  0  0  0  0  0  0  0  0  0  0
   20.4210  -26.4670   41.1580 N   0  0  0  0  0  0  0  0  0  0  0  0
   21.8400  -26.0980   41.2680 C   0  0  0  0  0  0  0  0  0  0  0  0
   20.2640  -27.6310   40.3750 C   0  0  0  0  0  0  0  0  0  0  0  0
   21.1480  -28.7170   40.4630 C   0  0  0  0  0  0  0  0  0  0  0  0
   20.9860  -29.8530   39.6610 C   0  0  0  0  0  0  0  0  0  0  0  0
   19.9350  -29.9390   38.7460 C   0  0  0  0  0  0  0  0  0  0  0  0
   19.7610  -31.1130   37.8630 C   0  0  0  0  0  0  0  0  0  0  0  0
   20.1780  -30.8750   36.5590 O   0  0  0  0  0  0  0  0  0  0  0  0
   20.0670  -31.8800   35.6320 C   0  0  0  0  0  0  0  0  0  0  0  0
   20.5080  -31.5990   34.3380 C   0  0  0  0  0  0  0  0  0  0  0  0
   20.4230  -32.5780   33.3460 C   0  0  0  0  0  0  0  0  0  0  0  0
   19.8970  -33.8360   33.6470 C   0  0  0  0  0  0  0  0  0  0  0  0
   19.4570  -34.1130   34.9390 C   0  0  0  0  0  0  0  0  0  0  0  0
   18.9530  -35.3640   35.1660 O   0  0  0  0  0  0  0  0  0  0  0  0
   19.5440  -33.1330   35.9320 C   0  0  0  0  0  0  0  0  0  0  0  0
   19.0920  -33.3810   37.3020 C   0  0  0  0  0  0  0  0  0  0  0  0
   18.6120  -34.4600   37.6430 O   0  0  0  0  0  0  0  0  0  0  0  0
   19.2310  -32.2780   38.2800 C   0  0  0  0  0  0  0  0  0  0  0  0
   18.7860  -32.5190   39.5670 O   0  0  0  0  0  0  0  0  0  0  0  0
   19.0580  -28.8500   38.6430 C   0  0  0  0  0  0  0  0  0  0  0  0
   19.2040  -27.7060   39.4520 C   0  0  0  0  0  0  0  0  0  0  0  0
   18.2300  -26.5670   39.2970 C   0  0  0  0  0  0  0  0  0  0  0  0
   17.0760  -26.9410   38.6630 F   0  0  0  0  0  0  0  0  0  0  0  0
   18.7350  -25.5490   38.5410 F   0  0  0  0  0  0  0  0  0  0  0  0
   20.4563  -26.4656   43.2636 H   0  0  0  0  0  0  0  0  0  0  0  0
   19.0561  -25.6208   42.5204 H   0  0  0  0  0  0  0  0  0  0  0  0
   19.1254  -27.4158   42.5204 H   0  0  0  0  0  0  0  0  0  0  0  0
   22.1188  -26.0255   42.3296 H   0  0  0  0  0  0  0  0  0  0  0  0
   22.4575  -26.8655   40.7783 H   0  0  0  0  0  0  0  0  0  0  0  0
   22.0054  -25.1270   40.7783 H   0  0  0  0  0  0  0  0  0  0  0  0
   21.9846  -28.6750   41.1760 H   0  0  0  0  0  0  0  0  0  0  0  0
   21.6957  -30.6884   39.7529 H   0  0  0  0  0  0  0  0  0  0  0  0
   20.9218  -30.6080   34.1000 H   0  0  0  0  0  0  0  0  0  0  0  0
   20.7709  -32.3579   32.3259 H   0  0  0  0  0  0  0  0  0  0  0  0
   19.8303  -34.6068   32.8651 H   0  0  0  0  0  0  0  0  0  0  0  0
   18.0260  -35.4960   35.2060 H   0  0  0  0  0  0  0  0  0  0  0  0
   18.9270  -31.8800   40.2370 H   0  0  0  0  0  0  0  0  0  0  0  0
   18.2362  -28.8898   37.9129 H   0  0  0  0  0  0  0  0  0  0  0  0
   18.0339  -26.2466   40.3309 H   0  0  0  0  0  0  0  0  0  0  0  0
  1  2  1  0
  2  3  1  0
  2  4  1  0
  4  5  2  0
  5  6  1  0
  6  7  2  0
  7  8  1  0
  8  9  1  0
  9 10  1  0
 10 11  2  0
 11 12  1  0
 12 13  2  0
 13 14  1  0
 14 15  1  0
 14 16  2  0
 16 17  1  0
 17 18  2  0
 17 19  1  0
 19 20  1  0
  7 21  1  0
 21 22  2  0
 22 23  1  0
 23 24  1  0
 23 25  1  0
 22  4  1  0
 19  8  2  0
 16 10  1  0
  1 26  1  0
  1 27  1  0
  1 28  1  0
  3 29  1  0
  3 30  1  0
  3 31  1  0
  5 32  1  0
  6 33  1  0
 11 34  1  0
 12 35  1  0
 13 36  1  0
 15 37  1  0
 20 38  1  0
 21 39  1  0
 23 40  1  0
M  END
>  <meeko>  (7) 
{"is_sidechain": [false], "free_energy": -8.106, "intermolecular_energy": -10.071, "internal_energy": -0.545}

$$$$
cand_034_out
     RDKit          3D

 40 42  0  0  0  0  0  0  0  0999 V2000
   19.4950  -29.3620   34.8620 C   0  0  0  0  0  0  0  0  0  0  0  0
   19.9400  -30.3780   35.8220 N   0  0  0  0  0  0  0  0  0  0  0  0
   20.8830  -31.3520   35.2540 C   0  0  0  0  0  0  0  0  0  0  0  0
   20.4260  -29.8630   37.0440 C   0  0  0  0  0  0  0  0  0  0  0  0
   21.2150  -28.7040   37.1070 C   0  0  0  0  0  0  0  0  0  0  0  0
   21.7040  -28.2240   38.3280 C   0  0  0  0  0  0  0  0  0  0  0  0
   21.4200  -28.8870   39.5240 C   0  0  0  0  0  0  0  0  0  0  0  0
   21.9510  -28.4200   40.8230 C   0  0  0  0  0  0  0  0  0  0  0  0
   21.2790  -27.3060   41.3130 O   0  0  0  0  0  0  0  0  0  0  0  0
   21.6740  -26.7660   42.5090 C   0  0  0  0  0  0  0  0  0  0  0  0
   20.9640  -25.6550   42.9670 C   0  0  0  0  0  0  0  0  0  0  0  0
   21.3150  -25.0550   44.1780 C   0  0  0  0  0  0  0  0  0  0  0  0
   22.3750  -25.5650   44.9300 C   0  0  0  0  0  0  0  0  0  0  0  0
   23.0820  -26.6730   44.4710 C   0  0  0  0  0  0  0  0  0  0  0  0
   24.1090  -27.1210   45.2570 O   0  0  0  0  0  0  0  0  0  0  0  0
   22.7300  -27.2740   43.2590 C   0  0  0  0  0  0  0  0  0  0  0  0
   23.4470  -28.4380   42.7390 C   0  0  0  0  0  0  0  0  0  0  0  0
   24.3940  -28.9410   43.3390 O   0  0  0  0  0  0  0  0  0  0  0  0
   22.9920  -29.0020   41.4470 C   0  0  0  0  0  0  0  0  0  0  0  0
   23.6870  -30.0930   40.9570 O   0  0  0  0  0  0  0  0  0  0  0  0
   20.6440  -30.0530   39.4650 C   0  0  0  0  0  0  0  0  0  0  0  0
   20.1370  -30.5410   38.2440 C   0  0  0  0  0  0  0  0  0  0  0  0
   19.3090  -31.8000   38.2420 C   0  0  0  0  0  0  0  0  0  0  0  0
   18.2470  -31.7350   39.1020 F   0  0  0  0  0  0  0  0  0  0  0  0
   20.0220  -32.8930   38.6430 F   0  0  0  0  0  0  0  0  0  0  0  0
   19.1115  -28.4864   35.4062 H   0  0  0  0  0  0  0  0  0  0  0  0
   20.3426  -29.0586   34.2300 H   0  0  0  0  0  0  0  0  0  0  0  0
   18.6972  -29.7792   34.2300 H   0  0  0  0  0  0  0  0  0  0  0  0
   21.3970  -31.8829   36.0688 H   0  0  0  0  0  0  0  0  0  0  0  0
   20.3336  -32.0757   34.6340 H   0  0  0  0  0  0  0  0  0  0  0  0
   21.6241  -30.8263   34.6340 H   0  0  0  0  0  0  0  0  0  0  0  0
   21.4537  -28.1626   36.1797 H   0  0  0  0  0  0  0  0  0  0  0  0
   22.3199  -27.3128   38.3455 H   0  0  0  0  0  0  0  0  0  0  0  0
   20.1290  -25.2526   42.3747 H   0  0  0  0  0  0  0  0  0  0  0  0
   20.7558  -24.1796   44.5399 H   0  0  0  0  0  0  0  0  0  0  0  0
   22.6512  -25.0920   45.8839 H   0  0  0  0  0  0  0  0  0  0  0  0
   24.1600  -26.8600   46.1550 H   0  0  0  0  0  0  0  0  0  0  0  0
   24.1610  -30.0220   40.1530 H   0  0  0  0  0  0  0  0  0  0  0  0
   20.4256  -30.6001   40.3940 H   0  0  0  0  0  0  0  0  0  0  0  0
   18.9750  -31.8931   37.1981 H   0  0  0  0  0  0  0  0  0  0  0  0
  1  2  1  0
  2  3  1  0
  2  4  1  0
  4  5  2  0
  5  6  1  0
  6  7  2  0
  7  8  1  0
  8  9  1  0
  9 10  1  0
 10 11  2  0
 11 12  1  0
 12 13  2  0
 13 14  1  0
 14 15  1  0
 14 16  2  0
 16 17  1  0
 17 18  2  0
 17 19  1  0
 19 20  1  0
  7 21  1  0
 21 22  2  0
 22 23  1  0
 23 24  1  0
 23 25  1  0
 22  4  1  0
 19  8  2  0
 16 10  1  0
  1 26  1  0
  1 27  1  0
  1 28  1  0
  3 29  1  0
  3 30  1  0
  3 31  1  0
  5 32  1  0
  6 33  1  0
 11 34  1  0
 12 35  1  0
 13 36  1  0
 15 37  1  0
 20 38  1  0
 21 39  1  0
 23 40  1  0
M  END
>  <meeko>  (8) 
{"is_sidechain": [false], "free_energy": -7.904, "intermolecular_energy": -9.896, "internal_energy": -0.471}

$$$$
cand_034_out
     RDKit          3D

 40 42  0  0  0  0  0  0  0  0999 V2000
   21.1830  -22.5270   44.1740 C   0  0  0  0  0  0  0  0  0  0  0  0
   21.1900  -23.9690   44.4440 N   0  0  0  0  0  0  0  0  0  0  0  0
   20.2610  -24.3720   45.5100 C   0  0  0  0  0  0  0  0  0  0  0  0
   21.0310  -24.7850   43.3030 C   0  0  0  0  0  0  0  0  0  0  0  0
   19.8550  -24.7790   42.5370 C   0  0  0  0  0  0  0  0  0  0  0  0
   19.7100  -25.6130   41.4220 C   0  0  0  0  0  0  0  0  0  0  0  0
   20.7360  -26.4790   41.0370 C   0  0  0  0  0  0  0  0  0  0  0  0
   20.5960  -27.3930   39.8840 C   0  0  0  0  0  0  0  0  0  0  0  0
   20.4550  -28.7230   40.2630 O   0  0  0  0  0  0  0  0  0  0  0  0
   20.3210  -29.6800   39.2900 C   0  0  0  0  0  0  0  0  0  0  0  0
   20.1720  -31.0010   39.7180 C   0  0  0  0  0  0  0  0  0  0  0  0
   20.0320  -32.0250   38.7790 C   0  0  0  0  0  0  0  0  0  0  0  0
   20.0400  -31.7290   37.4140 C   0  0  0  0  0  0  0  0  0  0  0  0
   20.1890  -30.4110   36.9900 C   0  0  0  0  0  0  0  0  0  0  0  0
   20.1890  -30.1910   35.6400 O   0  0  0  0  0  0  0  0  0  0  0  0
   20.3290  -29.3860   37.9310 C   0  0  0  0  0  0  0  0  0  0  0  0
   20.4890  -27.9880   37.5290 C   0  0  0  0  0  0  0  0  0  0  0  0
   20.5130  -27.6490   36.3480 O   0  0  0  0  0  0  0  0  0  0  0  0
   20.6250  -26.9780   38.6030 C   0  0  0  0  0  0  0  0  0  0  0  0
   20.7920  -25.6620   38.2120 O   0  0  0  0  0  0  0  0  0  0  0  0
   21.9070  -26.4990   41.8070 C   0  0  0  0  0  0  0  0  0  0  0  0
   22.0690  -25.6570   42.9260 C   0  0  0  0  0  0  0  0  0  0  0  0
   23.3500  -25.7240   43.7160 C   0  0  0  0  0  0  0  0  0  0  0  0
   24.3230  -26.4500   43.0840 F   0  0  0  0  0  0  0  0  0  0  0  0
   23.1850  -26.3310   44.9270 F   0  0  0  0  0  0  0  0  0  0  0  0
   21.1803  -21.9757   45.1259 H   0  0  0  0  0  0  0  0  0  0  0  0
   22.0798  -22.2577   43.5968 H   0  0  0  0  0  0  0  0  0  0  0  0
   20.2836  -22.2664   43.5968 H   0  0  0  0  0  0  0  0  0  0  0  0
   20.7191  -24.1733   46.4901 H   0  0  0  0  0  0  0  0  0  0  0  0
   19.3270  -23.7982   45.4187 H   0  0  0  0  0  0  0  0  0  0  0  0
   20.0419  -25.4461   45.4187 H   0  0  0  0  0  0  0  0  0  0  0  0
   19.0315  -24.1061   42.8181 H   0  0  0  0  0  0  0  0  0  0  0  0
   18.7760  -25.5860   40.8416 H   0  0  0  0  0  0  0  0  0  0  0  0
   20.1649  -31.2344   40.7929 H   0  0  0  0  0  0  0  0  0  0  0  0
   19.9153  -33.0660   39.1147 H   0  0  0  0  0  0  0  0  0  0  0  0
   19.9287  -32.5360   36.6749 H   0  0  0  0  0  0  0  0  0  0  0  0
   20.9580  -29.8610   35.2190 H   0  0  0  0  0  0  0  0  0  0  0  0
   20.8070  -24.9810   38.8550 H   0  0  0  0  0  0  0  0  0  0  0  0
   22.7190  -27.1881   41.5316 H   0  0  0  0  0  0  0  0  0  0  0  0
   23.6447  -24.6701   43.8278 H   0  0  0  0  0  0  0  0  0  0  0  0
  1  2  1  0
  2  3  1  0
  2  4  1  0
  4  5  2  0
  5  6  1  0
  6  7  2  0
  7  8  1  0
  8  9  1  0
  9 10  1  0
 10 11  2  0
 11 12  1  0
 12 13  2  0
 13 14  1  0
 14 15  1  0
 14 16  2  0
 16 17  1  0
 17 18  2  0
 17 19  1  0
 19 20  1  0
  7 21  1  0
 21 22  2  0
 22 23  1  0
 23 24  1  0
 23 25  1  0
 22  4  1  0
 19  8  2  0
 16 10  1  0
  1 26  1  0
  1 27  1  0
  1 28  1  0
  3 29  1  0
  3 30  1  0
  3 31  1  0
  5 32  1  0
  6 33  1  0
 11 34  1  0
 12 35  1  0
 13 36  1  0
 15 37  1  0
 20 38  1  0
 21 39  1  0
 23 40  1  0
M  END
>  <meeko>  (9) 
{"is_sidechain": [false], "free_energy": -7.662, "intermolecular_energy": -9.445, "internal_energy": -0.623}

$$$$
