cand_024_out
     RDKit          3D

 47 49  0  0  0  0  0  0  0  0999 V2000
   20.1040  -32.8350   32.5800 C   0  0  0  0  0  0  0  0  0  0  0  0
   20.4700  -33.1090   33.9720 N   0  0  0  0  0  0  0  0  0  0  0  0
   19.7330  -34.2850   34.4480 C   0  0  0  0  0  0  0  0  0  0  0  0
   20.1930  -31.9550   34.8490 C   0  0  0  0  0  0  0  0  0  0  0  0
   19.6780  -32.3620   36.2420 C   0  0  0  0  0  0  0  0  0  0  0  0
   20.1070  -31.3770   37.3140 C   0  0  0  0  0  0  0  0  0  0  0  0
   20.7990  -30.2210   36.9130 C   0  0  0  0  0  0  0  0  0  0  0  0
   21.2310  -29.2810   37.8510 C   0  0  0  0  0  0  0  0  0  0  0  0
   20.9780  -29.4620   39.2150 C   0  0  0  0  0  0  0  0  0  0  0  0
   21.4590  -28.4630   40.1920 C   0  0  0  0  0  0  0  0  0  0  0  0
   22.3950  -28.9800   41.0800 O   0  0  0  0  0  0  0  0  0  0  0  0
   22.9250  -28.1550   42.0390 C   0  0  0  0  0  0  0  0  0  0  0  0
   23.8500  -28.7180   42.9180 C   0  0  0  0  0  0  0  0  0  0  0  0
   24.4290  -27.9340   43.9180 C   0  0  0  0  0  0  0  0  0  0  0  0
   24.0820  -26.5870   44.0380 C   0  0  0  0  0  0  0  0  0  0  0  0
   23.1590  -26.0260   43.1590 C   0  0  0  0  0  0  0  0  0  0  0  0
   22.8660  -24.7010   43.3330 O   0  0  0  0  0  0  0  0  0  0  0  0
   22.5800  -26.8120   42.1600 C   0  0  0  0  0  0  0  0  0  0  0  0
   21.6050  -26.2630   41.2160 C   0  0  0  0  0  0  0  0  0  0  0  0
   21.2550  -25.0860   41.2520 O   0  0  0  0  0  0  0  0  0  0  0  0
   21.0450  -27.1820   40.1980 C   0  0  0  0  0  0  0  0  0  0  0  0
   20.1350  -26.6520   39.3020 O   0  0  0  0  0  0  0  0  0  0  0  0
   20.3000  -30.6220   39.6170 C   0  0  0  0  0  0  0  0  0  0  0  0
   19.8570  -31.5880   38.6870 C   0  0  0  0  0  0  0  0  0  0  0  0
   19.1120  -32.8020   39.1970 C   0  0  0  0  0  0  0  0  0  0  0  0
   19.6660  -33.9880   38.8110 F   0  0  0  0  0  0  0  0  0  0  0  0
   19.0530  -32.8500   40.5570 F   0  0  0  0  0  0  0  0  0  0  0  0
   17.8200  -32.8520   38.7640 F   0  0  0  0  0  0  0  0  0  0  0  0
   19.2236  -32.1759   32.5553 H   0  0  0  0  0  0  0  0  0  0  0  0
   20.9450  -32.3427   32.0698 H   0  0  0  0  0  0  0  0  0  0  0  0
   19.8685  -33.7807   32.0698 H   0  0  0  0  0  0  0  0  0  0  0  0
   21.4740  -33.2890   34.0070 H   0  0  0  0  0  0  0  0  0  0  0  0
   19.7275  -34.2938   35.5480 H   0  0  0  0  0  0  0  0  0  0  0  0
   18.6984  -34.2445   34.0765 H   0  0  0  0  0  0  0  0  0  0  0  0
   20.2205  -35.1984   34.0765 H   0  0  0  0  0  0  0  0  0  0  0  0
   21.1223  -31.3798   34.9741 H   0  0  0  0  0  0  0  0  0  0  0  0
   19.4014  -31.3614   34.3682 H   0  0  0  0  0  0  0  0  0  0  0  0
   18.5791  -32.4038   36.2167 H   0  0  0  0  0  0  0  0  0  0  0  0
   20.1065  -33.3442   36.4903 H   0  0  0  0  0  0  0  0  0  0  0  0
   21.0031  -30.0545   35.8450 H   0  0  0  0  0  0  0  0  0  0  0  0
   21.7767  -28.3876   37.5134 H   0  0  0  0  0  0  0  0  0  0  0  0
   24.1234  -29.7793   42.8235 H   0  0  0  0  0  0  0  0  0  0  0  0
   25.1586  -28.3778   44.6113 H   0  0  0  0  0  0  0  0  0  0  0  0
   24.5373  -25.9694   44.8262 H   0  0  0  0  0  0  0  0  0  0  0  0
   22.8530  -24.1240   42.5950 H   0  0  0  0  0  0  0  0  0  0  0  0
   20.1440  -25.7340   39.1130 H   0  0  0  0  0  0  0  0  0  0  0  0
   20.1077  -30.7841   40.6879 H   0  0  0  0  0  0  0  0  0  0  0  0
  1  2  1  0
  2  3  1  0
  2  4  1  0
  4  5  1  0
  5  6  1  0
  6  7  2  0
  7  8  1  0
  8  9  2  0
  9 10  1  0
 10 11  1  0
 11 12  1  0
 12 13  2  0
 13 14  1  0
 14 15  2  0
 15 16  1  0
 16 17  1  0
 16 18  2  0
 18 19  1  0
 19 20  2  0
 19 21  1  0
 21 22  1  0
  9 23  1  0
 23 24  2  0
 24 25  1  0
 25 26  1  0
 25 27  1  0
 25 28  1  0
 24  6  1  0
 21 10  2  0
 18 12  1  0
  1 29  1  0
  1 30  1  0
  1 31  1  0
  2 32  1  0
  3 33  1  0
  3 34  1  0
  3 35  1  0
  4 36  1  0
  4 37  1  0
  5 38  1  0
  5 39  1  0
  7 40  1  0
  8 41  1  0
 13 42  1  0
 14 43  1  0
 15 44  1  0
 17 45  1  0
 22 46  1  0
 23 47  1  0
M  CHG  1   2   1
M  END
>  <meeko>  (1) 
{"is_sidechain": [false], "free_energy": -9.764, "intermolecular_energy": -13.188, "internal_energy": -0.565}

$$$$
cand_024_out
     RDKit          3D

 47 49  0  0  0  0  0  0  0  0999 V2000
   24.5140  -26.1000   43.5420 C   0  0  0  0  0  0  0  0  0  0  0  0
   23.6710  -27.0860   44.2250 N   0  0  0  0  0  0  0  0  0  0  0  0
   24.3560  -28.3820   44.2440 C   0  0  0  0  0  0  0  0  0  0  0  0
   22.3540  -27.2240   43.5740 C   0  0  0  0  0  0  0  0  0  0  0  0
   22.3380  -26.7110   42.1220 C   0  0  0  0  0  0  0  0  0  0  0  0
   21.7800  -27.7470   41.1620 C   0  0  0  0  0  0  0  0  0  0  0  0
   22.6130  -28.8110   40.7770 C   0  0  0  0  0  0  0  0  0  0  0  0
   22.1640  -29.7900   39.8890 C   0  0  0  0  0  0  0  0  0  0  0  0
   20.8690  -29.7400   39.3640 C   0  0  0  0  0  0  0  0  0  0  0  0
   20.4200  -30.7780   38.4120 C   0  0  0  0  0  0  0  0  0  0  0  0
   19.9740  -31.9340   39.0400 O   0  0  0  0  0  0  0  0  0  0  0  0
   19.5260  -32.9760   38.2700 C   0  0  0  0  0  0  0  0  0  0  0  0
   19.1020  -34.1240   38.9420 C   0  0  0  0  0  0  0  0  0  0  0  0
   18.6330  -35.2220   38.2170 C   0  0  0  0  0  0  0  0  0  0  0  0
   18.5890  -35.1720   36.8230 C   0  0  0  0  0  0  0  0  0  0  0  0
   19.0120  -34.0260   36.1550 C   0  0  0  0  0  0  0  0  0  0  0  0
   18.9410  -34.0460   34.7890 O   0  0  0  0  0  0  0  0  0  0  0  0
   19.4820  -32.9290   36.8800 C   0  0  0  0  0  0  0  0  0  0  0  0
   19.9370  -31.7050   36.2170 C   0  0  0  0  0  0  0  0  0  0  0  0
   19.9220  -31.5820   34.9940 O   0  0  0  0  0  0  0  0  0  0  0  0
   20.4230  -30.6020   37.0770 C   0  0  0  0  0  0  0  0  0  0  0  0
   20.8390  -29.4440   36.4440 O   0  0  0  0  0  0  0  0  0  0  0  0
   20.0410  -28.6710   39.7370 C   0  0  0  0  0  0  0  0  0  0  0  0
   20.4740  -27.6680   40.6310 C   0  0  0  0  0  0  0  0  0  0  0  0
   19.5150  -26.5590   41.0030 C   0  0  0  0  0  0  0  0  0  0  0  0
   19.9820  -25.3100   40.7150 F   0  0  0  0  0  0  0  0  0  0  0  0
   18.3190  -26.6610   40.3580 F   0  0  0  0  0  0  0  0  0  0  0  0
   19.2220  -26.5350   42.3340 F   0  0  0  0  0  0  0  0  0  0  0  0
   25.0388  -25.4862   44.2889 H   0  0  0  0  0  0  0  0  0  0  0  0
   25.2505  -26.6207   42.9123 H   0  0  0  0  0  0  0  0  0  0  0  0
   23.8852  -25.4534   42.9123 H   0  0  0  0  0  0  0  0  0  0  0  0
   23.5120  -26.7610   45.1790 H   0  0  0  0  0  0  0  0  0  0  0  0
   24.5210  -28.6943   45.2858 H   0  0  0  0  0  0  0  0  0  0  0  0
   23.7364  -29.1318   43.7302 H   0  0  0  0  0  0  0  0  0  0  0  0
   25.3245  -28.2924   43.7302 H   0  0  0  0  0  0  0  0  0  0  0  0
   22.0749  -28.2880   43.5719 H   0  0  0  0  0  0  0  0  0  0  0  0
   21.6413  -26.6108   44.1451 H   0  0  0  0  0  0  0  0  0  0  0  0
   21.7141  -25.8065   42.0712 H   0  0  0  0  0  0  0  0  0  0  0  0
   23.3749  -26.4945   41.8253 H   0  0  0  0  0  0  0  0  0  0  0  0
   23.6341  -28.8734   41.1813 H   0  0  0  0  0  0  0  0  0  0  0  0
   22.8368  -30.6104   39.5989 H   0  0  0  0  0  0  0  0  0  0  0  0
   19.1372  -34.1638   40.0407 H   0  0  0  0  0  0  0  0  0  0  0  0
   18.2981  -36.1268   38.7453 H   0  0  0  0  0  0  0  0  0  0  0  0
   18.2204  -36.0373   36.2525 H   0  0  0  0  0  0  0  0  0  0  0  0
   19.7090  -34.2260   34.2830 H   0  0  0  0  0  0  0  0  0  0  0  0
   20.5060  -29.2310   35.5940 H   0  0  0  0  0  0  0  0  0  0  0  0
   19.0245  -28.6125   39.3207 H   0  0  0  0  0  0  0  0  0  0  0  0
  1  2  1  0
  2  3  1  0
  2  4  1  0
  4  5  1  0
  5  6  1  0
  6  7  2  0
  7  8  1  0
  8  9  2  0
  9 10  1  0
 10 11  1  0
 11 12  1  0
 12 13  2  0
 13 14  1  0
 14 15  2  0
 15 16  1  0
 16 17  1  0
 16 18  2  0
 18 19  1  0
 19 20  2  0
 19 21  1  0
 21 22  1  0
  9 23  1  0
 23 24  2  0
 24 25  1  0
 25 26  1  0
 25 27  1  0
 25 28  1  0
 24  6  1  0
 21 10  2  0
 18 12  1  0
  1 29  1  0
  1 30  1  0
  1 31  1  0
  2 32  1  0
  3 33  1  0
  3 34  1  0
  3 35  1  0
  4 36  1  0
  4 37  1  0
  5 38  1  0
  5 39  1  0
  7 40  1  0
  8 41  1  0
 13 42  1  0
 14 43  1  0
 15 44  1  0
 17 45  1  0
 22 46  1  0
 23 47  1  0
M  CHG  1   2   1
M  END
>  <meeko>  (2) 
{"is_sidechain": [false], "free_energy": -9.639, "intermolecular_energy": -12.734, "internal_energy": -0.851}

$$$$
cand_024_out
     RDKit          3D

 47 49  0  0  0  0  0  0  0  0999 V2000
   21.8900  -24.8110   46.1890 C   0  0  0  0  0  0  0  0  0  0  0  0
   22.6020  -25.0530   44.9310 N   0  0  0  0  0  0  0  0  0  0  0  0
   21.8530  -24.4490   43.8240 C   0  0  0  0  0  0  0  0  0  0  0  0
   22.7920  -26.4950   44.6790 C   0  0  0  0  0  0  0  0  0  0  0  0
   23.8130  -26.7850   43.5630 C   0  0  0  0  0  0  0  0  0  0  0  0
   23.2310  -27.6820   42.4840 C   0  0  0  0  0  0  0  0  0  0  0  0
   22.2340  -27.1530   41.6480 C   0  0  0  0  0  0  0  0  0  0  0  0
   21.6510  -27.9290   40.6450 C   0  0  0  0  0  0  0  0  0  0  0  0
   22.0510  -29.2540   40.4410 C   0  0  0  0  0  0  0  0  0  0  0  0
   21.4080  -30.0630   39.3840 C   0  0  0  0  0  0  0  0  0  0  0  0
   20.5980  -31.0710   39.8910 O   0  0  0  0  0  0  0  0  0  0  0  0
   19.9390  -31.8950   39.0150 C   0  0  0  0  0  0  0  0  0  0  0  0
   19.1470  -32.9030   39.5670 C   0  0  0  0  0  0  0  0  0  0  0  0
   18.4490  -33.7770   38.7310 C   0  0  0  0  0  0  0  0  0  0  0  0
   18.5430  -33.6430   37.3450 C   0  0  0  0  0  0  0  0  0  0  0  0
   19.3330  -32.6360   36.7960 C   0  0  0  0  0  0  0  0  0  0  0  0
   19.3790  -32.5620   35.4310 O   0  0  0  0  0  0  0  0  0  0  0  0
   20.0330  -31.7630   37.6330 C   0  0  0  0  0  0  0  0  0  0  0  0
   20.8750  -30.6920   37.0980 C   0  0  0  0  0  0  0  0  0  0  0  0
   21.0020  -30.5060   35.8900 O   0  0  0  0  0  0  0  0  0  0  0  0
   21.5790  -29.8250   38.0710 C   0  0  0  0  0  0  0  0  0  0  0  0
   22.3620  -28.8080   37.5570 O   0  0  0  0  0  0  0  0  0  0  0  0
   23.0370  -29.7870   41.2840 C   0  0  0  0  0  0  0  0  0  0  0  0
   23.6380  -29.0220   42.3070 C   0  0  0  0  0  0  0  0  0  0  0  0
   24.7110  -29.6620   43.1610 C   0  0  0  0  0  0  0  0  0  0  0  0
   25.4170  -28.7700   43.9140 F   0  0  0  0  0  0  0  0  0  0  0  0
   24.2080  -30.5700   44.0440 F   0  0  0  0  0  0  0  0  0  0  0  0
   25.6440  -30.3310   42.4260 F   0  0  0  0  0  0  0  0  0  0  0  0
   22.5547  -25.0369   47.0358 H   0  0  0  0  0  0  0  0  0  0  0  0
   21.5795  -23.7569   46.2377 H   0  0  0  0  0  0  0  0  0  0  0  0
   21.0014  -25.4576   46.2377 H   0  0  0  0  0  0  0  0  0  0  0  0
   23.5260  -24.6270   45.0010 H   0  0  0  0  0  0  0  0  0  0  0  0
   21.0565  -23.8067   44.2276 H   0  0  0  0  0  0  0  0  0  0  0  0
   22.5342  -23.8445   43.2071 H   0  0  0  0  0  0  0  0  0  0  0  0
   21.4066  -25.2428   43.2071 H   0  0  0  0  0  0  0  0  0  0  0  0
   23.1441  -26.9690   45.6071 H   0  0  0  0  0  0  0  0  0  0  0  0
   21.8237  -26.9005   44.3505 H   0  0  0  0  0  0  0  0  0  0  0  0
   24.1211  -25.8329   43.1063 H   0  0  0  0  0  0  0  0  0  0  0  0
   24.6720  -27.3047   44.0125 H   0  0  0  0  0  0  0  0  0  0  0  0
   21.9078  -26.1116   41.7858 H   0  0  0  0  0  0  0  0  0  0  0  0
   20.8676  -27.4936   40.0073 H   0  0  0  0  0  0  0  0  0  0  0  0
   19.0727  -33.0088   40.6594 H   0  0  0  0  0  0  0  0  0  0  0  0
   17.8246  -34.5717   39.1652 H   0  0  0  0  0  0  0  0  0  0  0  0
   17.9936  -34.3322   36.6868 H   0  0  0  0  0  0  0  0  0  0  0  0
   18.6540  -32.8630   34.9210 H   0  0  0  0  0  0  0  0  0  0  0  0
   23.1020  -29.0120   37.0190 H   0  0  0  0  0  0  0  0  0  0  0  0
   23.3513  -30.8318   41.1440 H   0  0  0  0  0  0  0  0  0  0  0  0
  1  2  1  0
  2  3  1  0
  2  4  1  0
  4  5  1  0
  5  6  1  0
  6  7  2  0
  7  8  1  0
  8  9  2  0
  9 10  1  0
 10 11  1  0
 11 12  1  0
 12 13  2  0
 13 14  1  0
 14 15  2  0
 15 16  1  0
 16 17  1  0
 16 18  2  0
 18 19  1  0
 19 20  2  0
 19 21  1  0
 21 22  1  0
  9 23  1  0
 23 24  2  0
 24 25  1  0
 25 26  1  0
 25 27  1  0
 25 28  1  0
 24  6  1  0
 21 10  2  0
 18 12  1  0
  1 29  1  0
  1 30  1  0
  1 31  1  0
  2 32  1  0
  3 33  1  0
  3 34  1  0
  3 35  1  0
  4 36  1  0
  4 37  1  0
  5 38  1  0
  5 39  1  0
  7 40  1  0
  8 41  1  0
 13 42  1  0
 14 43  1  0
 15 44  1  0
 17 45  1  0
 22 46  1  0
 23 47  1  0
M  CHG  1   2   1
M  END
>  <meeko>  (3) 
{"is_sidechain": [false], "free_energy": -9.599, "intermolecular_energy": -13.309, "internal_energy": -0.222}

$$$$
cand_024_out
     RDKit          3D

 47 49  0  0  0  0  0  0  0  0999 V2000
   20.6700  -24.0800   44.4680 C   0  0  0  0  0  0  0  0  0  0  0  0
   21.6810  -23.3930   43.6610 N   0  0  0  0  0  0  0  0  0  0  0  0
   21.1560  -22.0950   43.2230 C   0  0  0  0  0  0  0  0  0  0  0  0
   22.0820  -24.1920   42.4870 C   0  0  0  0  0  0  0  0  0  0  0  0
   22.7110  -25.5470   42.8620 C   0  0  0  0  0  0  0  0  0  0  0  0
   22.2960  -26.6480   41.9030 C   0  0  0  0  0  0  0  0  0  0  0  0
   21.3670  -26.3360   40.8970 C   0  0  0  0  0  0  0  0  0  0  0  0
   20.9350  -27.3060   39.9900 C   0  0  0  0  0  0  0  0  0  0  0  0
   21.4240  -28.6150   40.0570 C   0  0  0  0  0  0  0  0  0  0  0  0
   20.9410  -29.6310   39.0980 C   0  0  0  0  0  0  0  0  0  0  0  0
   20.2020  -30.6400   39.7040 O   0  0  0  0  0  0  0  0  0  0  0  0
   19.6920  -31.6470   38.9250 C   0  0  0  0  0  0  0  0  0  0  0  0
   18.9690  -32.6480   39.5760 C   0  0  0  0  0  0  0  0  0  0  0  0
   18.4220  -33.7020   38.8420 C   0  0  0  0  0  0  0  0  0  0  0  0
   18.5980  -33.7560   37.4580 C   0  0  0  0  0  0  0  0  0  0  0  0
   19.3190  -32.7560   36.8100 C   0  0  0  0  0  0  0  0  0  0  0  0
   19.4530  -32.8710   35.4540 O   0  0  0  0  0  0  0  0  0  0  0  0
   19.8680  -31.7020   37.5450 C   0  0  0  0  0  0  0  0  0  0  0  0
   20.6330  -30.6320   36.9040 C   0  0  0  0  0  0  0  0  0  0  0  0
   20.8250  -30.6050   35.6910 O   0  0  0  0  0  0  0  0  0  0  0  0
   21.1780  -29.5650   37.7750 C   0  0  0  0  0  0  0  0  0  0  0  0
   21.8880  -28.5500   37.1600 O   0  0  0  0  0  0  0  0  0  0  0  0
   22.3410  -28.9320   41.0700 C   0  0  0  0  0  0  0  0  0  0  0  0
   22.7880  -27.9680   41.9990 C   0  0  0  0  0  0  0  0  0  0  0  0
   23.7960  -28.3810   43.0500 C   0  0  0  0  0  0  0  0  0  0  0  0
   24.7310  -27.4250   43.3190 F   0  0  0  0  0  0  0  0  0  0  0  0
   23.2160  -28.6750   44.2470 F   0  0  0  0  0  0  0  0  0  0  0  0
   24.5060  -29.4900   42.6960 F   0  0  0  0  0  0  0  0  0  0  0  0
   20.8895  -23.9308   45.5355 H   0  0  0  0  0  0  0  0  0  0  0  0
   19.6758  -23.6697   44.2373 H   0  0  0  0  0  0  0  0  0  0  0  0
   20.6854  -25.1554   44.2373 H   0  0  0  0  0  0  0  0  0  0  0  0
   22.5110  -23.2560   44.2390 H   0  0  0  0  0  0  0  0  0  0  0  0
   20.9087  -21.4836   44.1033 H   0  0  0  0  0  0  0  0  0  0  0  0
   21.9155  -21.5773   42.6186 H   0  0  0  0  0  0  0  0  0  0  0  0
   20.2502  -22.2509   42.6186 H   0  0  0  0  0  0  0  0  0  0  0  0
   21.1906  -24.3790   41.8702 H   0  0  0  0  0  0  0  0  0  0  0  0
   22.8460  -23.6157   41.9446 H   0  0  0  0  0  0  0  0  0  0  0  0
   23.8064  -25.4493   42.8388 H   0  0  0  0  0  0  0  0  0  0  0  0
   22.3587  -25.8199   43.8677 H   0  0  0  0  0  0  0  0  0  0  0  0
   20.9735  -25.3115   40.8223 H   0  0  0  0  0  0  0  0  0  0  0  0
   20.2023  -27.0379   39.2145 H   0  0  0  0  0  0  0  0  0  0  0  0
   18.8304  -32.6063   40.6664 H   0  0  0  0  0  0  0  0  0  0  0  0
   17.8518  -34.4907   39.3545 H   0  0  0  0  0  0  0  0  0  0  0  0
   18.1678  -34.5873   36.8802 H   0  0  0  0  0  0  0  0  0  0  0  0
   20.1580  -32.4370   35.0140 H   0  0  0  0  0  0  0  0  0  0  0  0
   21.6000  -28.2100   36.3340 H   0  0  0  0  0  0  0  0  0  0  0  0
   22.7226  -29.9611   41.1424 H   0  0  0  0  0  0  0  0  0  0  0  0
  1  2  1  0
  2  3  1  0
  2  4  1  0
  4  5  1  0
  5  6  1  0
  6  7  2  0
  7  8  1  0
  8  9  2  0
  9 10  1  0
 10 11  1  0
 11 12  1  0
 12 13  2  0
 13 14  1  0
 14 15  2  0
 15 16  1  0
 16 17  1  0
 16 18  2  0
 18 19  1  0
 19 20  2  0
 19 21  1  0
 21 22  1  0
  9 23  1  0
 23 24  2  0
 24 25  1  0
 25 26  1  0
 25 27  1  0
 25 28  1  0
 24  6  1  0
 21 10  2  0
 18 12  1  0
  1 29  1  0
  1 30  1  0
  1 31  1  0
  2 32  1  0
  3 33  1  0
  3 34  1  0
  3 35  1  0
  4 36  1  0
  4 37  1  0
  5 38  1  0
  5 39  1  0
  7 40  1  0
  8 41  1  0
 13 42  1  0
 14 43  1  0
 15 44  1  0
 17 45  1  0
 22 46  1  0
 23 47  1  0
M  CHG  1   2   1
M  END
>  <meeko>  (4) 
{"is_sidechain": [false], "free_energy": -9.47, "intermolecular_energy": -12.889, "internal_energy": -0.467}

$$$$
cand_024_out
     RDKit          3D

 47 49  0  0  0  0  0  0  0  0999 V2000
   20.1100  -32.8220   32.5230 C   0  0  0  0  0  0  0  0  0  0  0  0
   20.5330  -33.1130   33.8960 N   0  0  0  0  0  0  0  0  0  0  0  0
   19.8730  -34.3370   34.3600 C   0  0  0  0  0  0  0  0  0  0  0  0
   20.2230  -31.9980   34.8120 C   0  0  0  0  0  0  0  0  0  0  0  0
   19.5870  -32.4600   36.1360 C   0  0  0  0  0  0  0  0  0  0  0  0
   20.0500  -31.6180   37.3110 C   0  0  0  0  0  0  0  0  0  0  0  0
   20.8000  -30.4600   37.0410 C   0  0  0  0  0  0  0  0  0  0  0  0
   21.2650  -29.6480   38.0780 C   0  0  0  0  0  0  0  0  0  0  0  0
   20.9910  -29.9640   39.4120 C   0  0  0  0  0  0  0  0  0  0  0  0
   21.5080  -29.1000   40.4950 C   0  0  0  0  0  0  0  0  0  0  0  0
   20.6060  -28.1160   40.8800 O   0  0  0  0  0  0  0  0  0  0  0  0
   20.9610  -27.2470   41.8800 C   0  0  0  0  0  0  0  0  0  0  0  0
   20.0310  -26.2650   42.2250 C   0  0  0  0  0  0  0  0  0  0  0  0
   20.3290  -25.3480   43.2360 C   0  0  0  0  0  0  0  0  0  0  0  0
   21.5550  -25.4130   43.8990 C   0  0  0  0  0  0  0  0  0  0  0  0
   22.4810  -26.3930   43.5530 C   0  0  0  0  0  0  0  0  0  0  0  0
   23.6620  -26.3990   44.2440 O   0  0  0  0  0  0  0  0  0  0  0  0
   22.1830  -27.3100   42.5410 C   0  0  0  0  0  0  0  0  0  0  0  0
   23.1290  -28.3560   42.1470 C   0  0  0  0  0  0  0  0  0  0  0  0
   24.2240  -28.4820   42.6880 O   0  0  0  0  0  0  0  0  0  0  0  0
   22.7180  -29.2720   41.0580 C   0  0  0  0  0  0  0  0  0  0  0  0
   23.6110  -30.2660   40.7000 O   0  0  0  0  0  0  0  0  0  0  0  0
   20.2550  -31.1270   39.6830 C   0  0  0  0  0  0  0  0  0  0  0  0
   19.7770  -31.9640   38.6510 C   0  0  0  0  0  0  0  0  0  0  0  0
   18.9710  -33.1900   39.0220 C   0  0  0  0  0  0  0  0  0  0  0  0
   17.7660  -33.2680   38.3860 F   0  0  0  0  0  0  0  0  0  0  0  0
   19.6170  -34.3520   38.7280 F   0  0  0  0  0  0  0  0  0  0  0  0
   18.6790  -33.2500   40.3530 F   0  0  0  0  0  0  0  0  0  0  0  0
   19.2039  -32.1986   32.5428 H   0  0  0  0  0  0  0  0  0  0  0  0
   20.9134  -32.2845   31.9979 H   0  0  0  0  0  0  0  0  0  0  0  0
   19.8953  -33.7644   31.9979 H   0  0  0  0  0  0  0  0  0  0  0  0
   21.5460  -33.2410   33.8960 H   0  0  0  0  0  0  0  0  0  0  0  0
   19.8637  -34.3542   35.4598 H   0  0  0  0  0  0  0  0  0  0  0  0
   18.8395  -34.3613   33.9842 H   0  0  0  0  0  0  0  0  0  0  0  0
   20.4206  -35.2139   33.9842 H   0  0  0  0  0  0  0  0  0  0  0  0
   21.1567  -31.4632   35.0405 H   0  0  0  0  0  0  0  0  0  0  0  0
   19.4907  -31.3524   34.3052 H   0  0  0  0  0  0  0  0  0  0  0  0
   18.4931  -32.3814   36.0514 H   0  0  0  0  0  0  0  0  0  0  0  0
   19.8972  -33.4995   36.3185 H   0  0  0  0  0  0  0  0  0  0  0  0
   21.0238  -30.1896   35.9985 H   0  0  0  0  0  0  0  0  0  0  0  0
   21.8538  -28.7492   37.8423 H   0  0  0  0  0  0  0  0  0  0  0  0
   19.0649  -26.2132   41.7016 H   0  0  0  0  0  0  0  0  0  0  0  0
   19.5966  -24.5742   43.5095 H   0  0  0  0  0  0  0  0  0  0  0  0
   21.7896  -24.6904   44.6945 H   0  0  0  0  0  0  0  0  0  0  0  0
   23.7490  -26.9190   45.0190 H   0  0  0  0  0  0  0  0  0  0  0  0
   23.4140  -31.1630   40.8870 H   0  0  0  0  0  0  0  0  0  0  0  0
   20.0442  -31.3946   40.7289 H   0  0  0  0  0  0  0  0  0  0  0  0
  1  2  1  0
  2  3  1  0
  2  4  1  0
  4  5  1  0
  5  6  1  0
  6  7  2  0
  7  8  1  0
  8  9  2  0
  9 10  1  0
 10 11  1  0
 11 12  1  0
 12 13  2  0
 13 14  1  0
 14 15  2  0
 15 16  1  0
 16 17  1  0
 16 18  2  0
 18 19  1  0
 19 20  2  0
 19 21  1  0
 21 22  1  0
  9 23  1  0
 23 24  2  0
 24 25  1  0
 25 26  1  0
 25 27  1  0
 25 28  1  0
 24  6  1  0
 21 10  2  0
 18 12  1  0
  1 29  1  0
  1 30  1  0
  1 31  1  0
  2 32  1  0
  3 33  1  0
  3 34  1  0
  3 35  1  0
  4 36  1  0
  4 37  1  0
  5 38  1  0
  5 39  1  0
  7 40  1  0
  8 41  1  0
 13 42  1  0
 14 43  1  0
 15 44  1  0
 17 45  1  0
 22 46  1  0
 23 47  1  0
M  CHG  1   2   1
M  END
>  <meeko>  (5) 
{"is_sidechain": [false], "free_energy": -9.247, "intermolecular_energy": -12.332, "internal_energy": -0.723}

$$$$
cand_024_out
     RDKit          3D

 47 49  0  0  0  0  0  0  0  0999 V2000
   24.2580  -26.0590   43.5280 C   0  0  0  0  0  0  0  0  0  0  0  0
   23.5360  -27.1730   44.1460 N   0  0  0  0  0  0  0  0  0  0  0  0
   24.3970  -28.3600   44.1670 C   0  0  0  0  0  0  0  0  0  0  0  0
   22.2810  -27.4770   43.4300 C   0  0  0  0  0  0  0  0  0  0  0  0
   22.2650  -26.9490   41.9840 C   0  0  0  0  0  0  0  0  0  0  0  0
   21.7150  -27.9780   41.0130 C   0  0  0  0  0  0  0  0  0  0  0  0
   22.5540  -29.0350   40.6210 C   0  0  0  0  0  0  0  0  0  0  0  0
   22.1120  -30.0070   39.7220 C   0  0  0  0  0  0  0  0  0  0  0  0
   20.8190  -29.9580   39.1920 C   0  0  0  0  0  0  0  0  0  0  0  0
   20.3770  -30.9880   38.2280 C   0  0  0  0  0  0  0  0  0  0  0  0
   20.7360  -30.6940   36.9190 O   0  0  0  0  0  0  0  0  0  0  0  0
   20.3880  -31.5710   35.9240 C   0  0  0  0  0  0  0  0  0  0  0  0
   20.7550  -31.2300   34.6210 C   0  0  0  0  0  0  0  0  0  0  0  0
   20.4330  -32.0800   33.5610 C   0  0  0  0  0  0  0  0  0  0  0  0
   19.7440  -33.2690   33.8030 C   0  0  0  0  0  0  0  0  0  0  0  0
   19.3790  -33.6080   35.1030 C   0  0  0  0  0  0  0  0  0  0  0  0
   18.7060  -34.7880   35.2690 O   0  0  0  0  0  0  0  0  0  0  0  0
   19.7000  -32.7570   36.1640 C   0  0  0  0  0  0  0  0  0  0  0  0
   19.3350  -33.0750   37.5450 C   0  0  0  0  0  0  0  0  0  0  0  0
   18.7340  -34.1060   37.8390 O   0  0  0  0  0  0  0  0  0  0  0  0
   19.7170  -32.1020   38.5950 C   0  0  0  0  0  0  0  0  0  0  0  0
   19.3800  -32.4170   39.8990 O   0  0  0  0  0  0  0  0  0  0  0  0
   19.9850  -28.8950   39.5720 C   0  0  0  0  0  0  0  0  0  0  0  0
   20.4120  -27.8990   40.4770 C   0  0  0  0  0  0  0  0  0  0  0  0
   19.4460  -26.7970   40.8550 C   0  0  0  0  0  0  0  0  0  0  0  0
   18.2740  -26.8300   40.1570 F   0  0  0  0  0  0  0  0  0  0  0  0
   19.0930  -26.8360   42.1700 F   0  0  0  0  0  0  0  0  0  0  0  0
   19.9560  -25.5500   40.6410 F   0  0  0  0  0  0  0  0  0  0  0  0
   24.6768  -25.4128   44.3135 H   0  0  0  0  0  0  0  0  0  0  0  0
   25.0735  -26.4522   42.9031 H   0  0  0  0  0  0  0  0  0  0  0  0
   23.5661  -25.4752   42.9031 H   0  0  0  0  0  0  0  0  0  0  0  0
   23.2900  -26.9030   45.0990 H   0  0  0  0  0  0  0  0  0  0  0  0
   24.6035  -28.6448   45.2092 H   0  0  0  0  0  0  0  0  0  0  0  0
   23.8896  -29.1901   43.6538 H   0  0  0  0  0  0  0  0  0  0  0  0
   25.3437  -28.1354   43.6538 H   0  0  0  0  0  0  0  0  0  0  0  0
   22.1482  -28.5687   43.4051 H   0  0  0  0  0  0  0  0  0  0  0  0
   21.4658  -26.9740   43.9709 H   0  0  0  0  0  0  0  0  0  0  0  0
   21.6360  -26.0476   41.9413 H   0  0  0  0  0  0  0  0  0  0  0  0
   23.3011  -26.7231   41.6915 H   0  0  0  0  0  0  0  0  0  0  0  0
   23.5738  -29.0973   41.0285 H   0  0  0  0  0  0  0  0  0  0  0  0
   22.7894  -30.8218   39.4268 H   0  0  0  0  0  0  0  0  0  0  0  0
   21.2974  -30.2924   34.4294 H   0  0  0  0  0  0  0  0  0  0  0  0
   20.7228  -31.8120   32.5342 H   0  0  0  0  0  0  0  0  0  0  0  0
   19.4895  -33.9377   32.9675 H   0  0  0  0  0  0  0  0  0  0  0  0
   19.0970  -35.4850   35.7580 H   0  0  0  0  0  0  0  0  0  0  0  0
   19.7160  -33.1970   40.2940 H   0  0  0  0  0  0  0  0  0  0  0  0
   18.9697  -28.8362   39.1528 H   0  0  0  0  0  0  0  0  0  0  0  0
  1  2  1  0
  2  3  1  0
  2  4  1  0
  4  5  1  0
  5  6  1  0
  6  7  2  0
  7  8  1  0
  8  9  2  0
  9 10  1  0
 10 11  1  0
 11 12  1  0
 12 13  2  0
 13 14  1  0
 14 15  2  0
 15 16  1  0
 16 17  1  0
 16 18  2  0
 18 19  1  0
 19 20  2  0
 19 21  1  0
 21 22  1  0
  9 23  1  0
 23 24  2  0
 24 25  1  0
 25 26  1  0
 25 27  1  0
 25 28  1  0
 24  6  1  0
 21 10  2  0
 18 12  1  0
  1 29  1  0
  1 30  1  0
  1 31  1  0
  2 32  1  0
  3 33  1  0
  3 34  1  0
  3 35  1  0
  4 36  1  0
  4 37  1  0
  5 38  1  0
  5 39  1  0
  7 40  1  0
  8 41  1  0
 13 42  1  0
 14 43  1  0
 15 44  1  0
 17 45  1  0
 22 46  1  0
 23 47  1  0
M  CHG  1   2   1
M  END
>  <meeko>  (6) 
{"is_sidechain": [false], "free_energy": -9.185, "intermolecular_energy": -12.146, "internal_energy": -0.825}

$$$$
cand_024_out
     RDKit          3D

 47 49  0  0  0  0  0  0  0  0999 V2000
   18.7970  -35.4360   38.9160 C   0  0  0  0  0  0  0  0  0  0  0  0
   18.5250  -35.0750   37.5220 N   0  0  0  0  0  0  0  0  0  0  0  0
   19.6790  -35.4370   36.6920 C   0  0  0  0  0  0  0  0  0  0  0  0
   18.2340  -33.6360   37.3760 C   0  0  0  0  0  0  0  0  0  0  0  0
   19.3450  -32.8650   36.6400 C   0  0  0  0  0  0  0  0  0  0  0  0
   19.9020  -31.7320   37.4830 C   0  0  0  0  0  0  0  0  0  0  0  0
   19.8790  -31.8730   38.8810 C   0  0  0  0  0  0  0  0  0  0  0  0
   20.3660  -30.8640   39.7140 C   0  0  0  0  0  0  0  0  0  0  0  0
   20.8950  -29.6860   39.1760 C   0  0  0  0  0  0  0  0  0  0  0  0
   21.3890  -28.6220   40.0760 C   0  0  0  0  0  0  0  0  0  0  0  0
   22.3360  -29.0780   40.9850 O   0  0  0  0  0  0  0  0  0  0  0  0
   22.8790  -28.1900   41.8780 C   0  0  0  0  0  0  0  0  0  0  0  0
   23.8150  -28.6930   42.7830 C   0  0  0  0  0  0  0  0  0  0  0  0
   24.4070  -27.8420   43.7180 C   0  0  0  0  0  0  0  0  0  0  0  0
   24.0620  -26.4890   43.7500 C   0  0  0  0  0  0  0  0  0  0  0  0
   23.1280  -25.9890   42.8460 C   0  0  0  0  0  0  0  0  0  0  0  0
   22.8380  -24.6550   42.9320 O   0  0  0  0  0  0  0  0  0  0  0  0
   22.5350  -26.8410   41.9110 C   0  0  0  0  0  0  0  0  0  0  0  0
   21.5490  -26.3570   40.9440 C   0  0  0  0  0  0  0  0  0  0  0  0
   21.2000  -25.1800   40.9030 O   0  0  0  0  0  0  0  0  0  0  0  0
   20.9760  -27.3440   39.9990 C   0  0  0  0  0  0  0  0  0  0  0  0
   20.0540  -26.8750   39.0800 O   0  0  0  0  0  0  0  0  0  0  0  0
   20.9060  -29.5380   37.7820 C   0  0  0  0  0  0  0  0  0  0  0  0
   20.4160  -30.5440   36.9210 C   0  0  0  0  0  0  0  0  0  0  0  0
   20.4820  -30.3190   35.4260 C   0  0  0  0  0  0  0  0  0  0  0  0
   19.3100  -30.5810   34.7790 F   0  0  0  0  0  0  0  0  0  0  0  0
   20.8020  -29.0360   35.1010 F   0  0  0  0  0  0  0  0  0  0  0  0
   21.4130  -31.1040   34.8120 F   0  0  0  0  0  0  0  0  0  0  0  0
   18.2714  -34.7384   39.5847 H   0  0  0  0  0  0  0  0  0  0  0  0
   18.4446  -36.4608   39.1049 H   0  0  0  0  0  0  0  0  0  0  0  0
   19.8792  -35.3798   39.1049 H   0  0  0  0  0  0  0  0  0  0  0  0
   17.6990  -35.5900   37.2150 H   0  0  0  0  0  0  0  0  0  0  0  0
   20.5274  -35.7031   37.3396 H   0  0  0  0  0  0  0  0  0  0  0  0
   19.4187  -36.2966   36.0570 H   0  0  0  0  0  0  0  0  0  0  0  0
   19.9563  -34.5827   36.0570 H   0  0  0  0  0  0  0  0  0  0  0  0
   17.2971  -33.5242   36.8105 H   0  0  0  0  0  0  0  0  0  0  0  0
   18.1579  -33.2131   38.3886 H   0  0  0  0  0  0  0  0  0  0  0  0
   20.1607  -33.5620   36.3974 H   0  0  0  0  0  0  0  0  0  0  0  0
   18.9109  -32.4296   35.7279 H   0  0  0  0  0  0  0  0  0  0  0  0
   19.4710  -32.7926   39.3259 H   0  0  0  0  0  0  0  0  0  0  0  0
   20.3334  -30.9968   40.8055 H   0  0  0  0  0  0  0  0  0  0  0  0
   24.0859  -29.7589   42.7595 H   0  0  0  0  0  0  0  0  0  0  0  0
   25.1460  -28.2375   44.4303 H   0  0  0  0  0  0  0  0  0  0  0  0
   24.5273  -25.8193   44.4882 H   0  0  0  0  0  0  0  0  0  0  0  0
   23.0930  -24.0750   42.2420 H   0  0  0  0  0  0  0  0  0  0  0  0
   20.0770  -25.9780   38.8100 H   0  0  0  0  0  0  0  0  0  0  0  0
   21.3080  -28.6114   37.3464 H   0  0  0  0  0  0  0  0  0  0  0  0
  1  2  1  0
  2  3  1  0
  2  4  1  0
  4  5  1  0
  5  6  1  0
  6  7  2  0
  7  8  1  0
  8  9  2  0
  9 10  1  0
 10 11  1  0
 11 12  1  0
 12 13  2  0
 13 14  1  0
 14 15  2  0
 15 16  1  0
 16 17  1  0
 16 18  2  0
 18 19  1  0
 19 20  2  0
 19 21  1  0
 21 22  1  0
  9 23  1  0
 23 24  2  0
 24 25  1  0
 25 26  1  0
 25 27  1  0
 25 28  1  0
 24  6  1  0
 21 10  2  0
 18 12  1  0
  1 29  1  0
  1 30  1  0
  1 31  1  0
  2 32  1  0
  3 33  1  0
  3 34  1  0
  3 35  1  0
  4 36  1  0
  4 37  1  0
  5 38  1  0
  5 39  1  0
  7 40  1  0
  8 41  1  0
 13 42  1  0
 14 43  1  0
 15 44  1  0
 17 45  1  0
 22 46  1  0
 23 47  1  0
M  CHG  1   2   1
M  END
>  <meeko>  (7) 
{"is_sidechain": [false], "free_energy": -8.998, "intermolecular_energy": -12.172, "internal_energy": -0.547}

$$$$
cand_024_out
     RDKit          3D

 47 49  0  0  0  0  0  0  0  0999 V2000
   21.3850  -21.4500   45.6900 C   0  0  0  0  0  0  0  0  0  0  0  0
   21.5550  -22.4280   44.6120 N   0  0  0  0  0  0  0  0  0  0  0  0
   21.1970  -21.8090   43.3310 C   0  0  0  0  0  0  0  0  0  0  0  0
   20.7330  -23.6340   44.8320 C   0  0  0  0  0  0  0  0  0  0  0  0
   21.5640  -24.9280   44.9120 C   0  0  0  0  0  0  0  0  0  0  0  0
   21.4400  -25.7590   43.6480 C   0  0  0  0  0  0  0  0  0  0  0  0
   20.2330  -25.6990   42.9300 C   0  0  0  0  0  0  0  0  0  0  0  0
   20.0520  -26.4470   41.7660 C   0  0  0  0  0  0  0  0  0  0  0  0
   21.0710  -27.2720   41.2790 C   0  0  0  0  0  0  0  0  0  0  0  0
   20.8510  -28.0690   40.0530 C   0  0  0  0  0  0  0  0  0  0  0  0
   20.4980  -29.3860   40.3190 O   0  0  0  0  0  0  0  0  0  0  0  0
   20.2630  -30.2340   39.2670 C   0  0  0  0  0  0  0  0  0  0  0  0
   19.9260  -31.5520   39.5800 C   0  0  0  0  0  0  0  0  0  0  0  0
   19.6720  -32.4670   38.5560 C   0  0  0  0  0  0  0  0  0  0  0  0
   19.7570  -32.0660   37.2220 C   0  0  0  0  0  0  0  0  0  0  0  0
   20.0930  -30.7510   36.9130 C   0  0  0  0  0  0  0  0  0  0  0  0
   20.1580  -30.4250   35.5860 O   0  0  0  0  0  0  0  0  0  0  0  0
   20.3480  -29.8350   37.9370 C   0  0  0  0  0  0  0  0  0  0  0  0
   20.7050  -28.4440   37.6550 C   0  0  0  0  0  0  0  0  0  0  0  0
   20.7930  -28.0130   36.5080 O   0  0  0  0  0  0  0  0  0  0  0  0
   20.9620  -27.5560   38.8130 C   0  0  0  0  0  0  0  0  0  0  0  0
   21.2850  -26.2400   38.5390 O   0  0  0  0  0  0  0  0  0  0  0  0
   22.2710  -27.3430   42.0010 C   0  0  0  0  0  0  0  0  0  0  0  0
   22.4750  -26.5980   43.1830 C   0  0  0  0  0  0  0  0  0  0  0  0
   23.8060  -26.7120   43.8950 C   0  0  0  0  0  0  0  0  0  0  0  0
   24.5450  -25.5650   43.8650 F   0  0  0  0  0  0  0  0  0  0  0  0
   23.6710  -27.0270   45.2130 F   0  0  0  0  0  0  0  0  0  0  0  0
   24.6130  -27.6730   43.3600 F   0  0  0  0  0  0  0  0  0  0  0  0
   21.4731  -21.9569   46.6622 H   0  0  0  0  0  0  0  0  0  0  0  0
   22.1620  -20.6757   45.6085 H   0  0  0  0  0  0  0  0  0  0  0  0
   20.3923  -20.9833   45.6085 H   0  0  0  0  0  0  0  0  0  0  0  0
   22.5330  -22.7190   44.5980 H   0  0  0  0  0  0  0  0  0  0  0  0
   20.6542  -20.8704   43.5163 H   0  0  0  0  0  0  0  0  0  0  0  0
   22.1117  -21.5966   42.7581 H   0  0  0  0  0  0  0  0  0  0  0  0
   20.5567  -22.4959   42.7581 H   0  0  0  0  0  0  0  0  0  0  0  0
   20.1814  -23.5138   45.7761 H   0  0  0  0  0  0  0  0  0  0  0  0
   20.0581  -23.7316   43.9689 H   0  0  0  0  0  0  0  0  0  0  0  0
   22.6212  -24.6631   45.0612 H   0  0  0  0  0  0  0  0  0  0  0  0
   21.1828  -25.5266   45.7524 H   0  0  0  0  0  0  0  0  0  0  0  0
   19.4192  -25.0529   43.2910 H   0  0  0  0  0  0  0  0  0  0  0  0
   19.0962  -26.3871   41.2248 H   0  0  0  0  0  0  0  0  0  0  0  0
   19.8606  -31.8693   40.6312 H   0  0  0  0  0  0  0  0  0  0  0  0
   19.4045  -33.5054   38.8013 H   0  0  0  0  0  0  0  0  0  0  0  0
   19.5588  -32.7879   36.4160 H   0  0  0  0  0  0  0  0  0  0  0  0
   19.3690  -30.3170   35.0910 H   0  0  0  0  0  0  0  0  0  0  0  0
   21.7940  -25.7450   39.1520 H   0  0  0  0  0  0  0  0  0  0  0  0
   23.0762  -27.9976   41.6362 H   0  0  0  0  0  0  0  0  0  0  0  0
  1  2  1  0
  2  3  1  0
  2  4  1  0
  4  5  1  0
  5  6  1  0
  6  7  2  0
  7  8  1  0
  8  9  2  0
  9 10  1  0
 10 11  1  0
 11 12  1  0
 12 13  2  0
 13 14  1  0
 14 15  2  0
 15 16  1  0
 16 17  1  0
 16 18  2  0
 18 19  1  0
 19 20  2  0
 19 21  1  0
 21 22  1  0
  9 23  1  0
 23 24  2  0
 24 25  1  0
 25 26  1  0
 25 27  1  0
 25 28  1  0
 24  6  1  0
 21 10  2  0
 18 12  1  0
  1 29  1  0
  1 30  1  0
  1 31  1  0
  2 32  1  0
  3 33  1  0
  3 34  1  0
  3 35  1  0
  4 36  1  0
  4 37  1  0
  5 38  1  0
  5 39  1  0
  7 40  1  0
  8 41  1  0
 13 42  1  0
 14 43  1  0
 15 44  1  0
 17 45  1  0
 22 46  1  0
 23 47  1  0
M  CHG  1   2   1
M  END
>  <meeko>  (8) 
{"is_sidechain": [false], "free_energy": -8.968, "intermolecular_energy": -11.921, "internal_energy": -0.758}

$$$$
cand_024_out
     RDKit          3D

 47 49  0  0  0  0  0  0  0  0999 V2000
   21.6030  -24.7490   46.8470 C   0  0  0  0  0  0  0  0  0  0  0  0
   22.1780  -24.4640   45.5300 N   0  0  0  0  0  0  0  0  0  0  0  0
   21.4250  -23.3790   44.8930 C   0  0  0  0  0  0  0  0  0  0  0  0
   22.1700  -25.6570   44.6600 C   0  0  0  0  0  0  0  0  0  0  0  0
   22.6800  -25.3710   43.2350 C   0  0  0  0  0  0  0  0  0  0  0  0
   22.1500  -26.3790   42.2320 C   0  0  0  0  0  0  0  0  0  0  0  0
   22.8810  -27.5620   42.0320 C   0  0  0  0  0  0  0  0  0  0  0  0
   22.4530  -28.5250   41.1150 C   0  0  0  0  0  0  0  0  0  0  0  0
   21.2800  -28.3380   40.3770 C   0  0  0  0  0  0  0  0  0  0  0  0
   20.8540  -29.3630   39.3990 C   0  0  0  0  0  0  0  0  0  0  0  0
   20.2390  -30.4570   39.9940 O   0  0  0  0  0  0  0  0  0  0  0  0
   19.7930  -31.4800   39.1980 C   0  0  0  0  0  0  0  0  0  0  0  0
   19.1940  -32.5660   39.8380 C   0  0  0  0  0  0  0  0  0  0  0  0
   18.7160  -33.6420   39.0860 C   0  0  0  0  0  0  0  0  0  0  0  0
   18.8390  -33.6310   37.6950 C   0  0  0  0  0  0  0  0  0  0  0  0
   19.4360  -32.5470   37.0580 C   0  0  0  0  0  0  0  0  0  0  0  0
   19.5230  -32.6020   35.6940 O   0  0  0  0  0  0  0  0  0  0  0  0
   19.9150  -31.4710   37.8110 C   0  0  0  0  0  0  0  0  0  0  0  0
   20.5490  -30.3120   37.1820 C   0  0  0  0  0  0  0  0  0  0  0  0
   20.6870  -30.2260   35.9640 O   0  0  0  0  0  0  0  0  0  0  0  0
   21.0280  -29.2280   38.0710 C   0  0  0  0  0  0  0  0  0  0  0  0
   21.6150  -28.1310   37.4680 O   0  0  0  0  0  0  0  0  0  0  0  0
   20.5570  -27.1520   40.5660 C   0  0  0  0  0  0  0  0  0  0  0  0
   20.9720  -26.1630   41.4840 C   0  0  0  0  0  0  0  0  0  0  0  0
   20.1260  -24.9190   41.6480 C   0  0  0  0  0  0  0  0  0  0  0  0
   19.4630  -24.8590   42.8390 F   0  0  0  0  0  0  0  0  0  0  0  0
   20.8590  -23.7730   41.5770 F   0  0  0  0  0  0  0  0  0  0  0  0
   19.1600  -24.8060   40.6930 F   0  0  0  0  0  0  0  0  0  0  0  0
   22.2944  -24.4063   47.6309 H   0  0  0  0  0  0  0  0  0  0  0  0
   20.6426  -24.2226   46.9495 H   0  0  0  0  0  0  0  0  0  0  0  0
   21.4403  -25.8321   46.9495 H   0  0  0  0  0  0  0  0  0  0  0  0
   23.1510  -24.1840   45.6620 H   0  0  0  0  0  0  0  0  0  0  0  0
   20.9798  -22.7375   45.6678 H   0  0  0  0  0  0  0  0  0  0  0  0
   22.1030  -22.7807   44.2667 H   0  0  0  0  0  0  0  0  0  0  0  0
   20.6273  -23.8048   44.2667 H   0  0  0  0  0  0  0  0  0  0  0  0
   22.8130  -26.4253   45.1140 H   0  0  0  0  0  0  0  0  0  0  0  0
   21.1258  -25.9916   44.5729 H   0  0  0  0  0  0  0  0  0  0  0  0
   22.3522  -24.3647   42.9351 H   0  0  0  0  0  0  0  0  0  0  0  0
   23.7775  -25.4438   43.2444 H   0  0  0  0  0  0  0  0  0  0  0  0
   23.8038  -27.7324   42.6059 H   0  0  0  0  0  0  0  0  0  0  0  0
   23.0454  -29.4408   40.9718 H   0  0  0  0  0  0  0  0  0  0  0  0
   19.0983  -32.5747   40.9338 H   0  0  0  0  0  0  0  0  0  0  0  0
   18.2428  -34.4978   39.5896 H   0  0  0  0  0  0  0  0  0  0  0  0
   18.4641  -34.4789   37.1029 H   0  0  0  0  0  0  0  0  0  0  0  0
   18.9440  -32.0870   35.1670 H   0  0  0  0  0  0  0  0  0  0  0  0
   21.4190  -27.2670   37.7760 H   0  0  0  0  0  0  0  0  0  0  0  0
   19.6395  -26.9871   39.9820 H   0  0  0  0  0  0  0  0  0  0  0  0
  1  2  1  0
  2  3  1  0
  2  4  1  0
  4  5  1  0
  5  6  1  0
  6  7  2  0
  7  8  1  0
  8  9  2  0
  9 10  1  0
 10 11  1  0
 11 12  1  0
 12 13  2  0
 13 14  1  0
 14 15  2  0
 15 16  1  0
 16 17  1  0
 16 18  2  0
 18 19  1  0
 19 20  2  0
 19 21  1  0
 21 22  1  0
  9 23  1  0
 23 24  2  0
 24 25  1  0
 25 26  1  0
 25 27  1  0
 25 28  1  0
 24  6  1  0
 21 10  2  0
 18 12  1  0
  1 29  1  0
  1 30  1  0
  1 31  1  0
  2 32  1  0
  3 33  1  0
  3 34  1  0
  3 35  1  0
  4 36  1  0
  4 37  1  0
  5 38  1  0
  5 39  1  0
  7 40  1  0
  8 41  1  0
 13 42  1  0
 14 43  1  0
 15 44  1  0
 17 45  1  0
 22 46  1  0
 23 47  1  0
M  CHG  1   2   1
M  END
>  <meeko>  (9) 
{"is_sidechain": [false], "free_energy": -8.595, "intermolecular_energy": -11.411, "internal_energy": -0.763}

$$$$
