cand_046_out
     RDKit          3D

 39 41  0  0  0  0  0  0  0  0999 V2000
   25.0150  -30.9960   43.1160 C   0  0  0  0  0  0  0  0  0  0  0  0
   24.8630  -29.6670   43.0410 C   0  0  0  0  0  0  0  0  0  0  0  0
   23.7750  -29.0210   42.2930 C   0  0  0  0  0  0  0  0  0  0  0  0
   23.1110  -29.7510   41.2890 C   0  0  0  0  0  0  0  0  0  0  0  0
   22.0420  -29.2040   40.5640 C   0  0  0  0  0  0  0  0  0  0  0  0
   21.3940  -29.9960   39.4970 C   0  0  0  0  0  0  0  0  0  0  0  0
   20.5830  -31.0100   39.9940 O   0  0  0  0  0  0  0  0  0  0  0  0
   19.9190  -31.8220   39.1110 C   0  0  0  0  0  0  0  0  0  0  0  0
   19.1280  -32.8350   39.6540 C   0  0  0  0  0  0  0  0  0  0  0  0
   18.4230  -33.6970   38.8100 C   0  0  0  0  0  0  0  0  0  0  0  0
   18.5080  -33.5430   37.4250 C   0  0  0  0  0  0  0  0  0  0  0  0
   19.2990  -32.5320   36.8860 C   0  0  0  0  0  0  0  0  0  0  0  0
   19.3380  -32.4390   35.5210 O   0  0  0  0  0  0  0  0  0  0  0  0
   20.0050  -31.6710   37.7310 C   0  0  0  0  0  0  0  0  0  0  0  0
   20.8470  -30.5950   37.2060 C   0  0  0  0  0  0  0  0  0  0  0  0
   20.9680  -30.3930   35.9990 O   0  0  0  0  0  0  0  0  0  0  0  0
   21.5580  -29.7420   38.1850 C   0  0  0  0  0  0  0  0  0  0  0  0
   22.3390  -28.7190   37.6790 O   0  0  0  0  0  0  0  0  0  0  0  0
   21.6430  -27.8950   40.8530 C   0  0  0  0  0  0  0  0  0  0  0  0
   22.2850  -27.1610   41.8530 C   0  0  0  0  0  0  0  0  0  0  0  0
   23.3540  -27.7090   42.5840 C   0  0  0  0  0  0  0  0  0  0  0  0
   23.9970  -26.8590   43.6570 C   0  0  0  0  0  0  0  0  0  0  0  0
   23.2010  -26.8820   44.9540 C   0  0  0  0  0  0  0  0  0  0  0  0
   25.8498  -31.4225   43.6916 H   0  0  0  0  0  0  0  0  0  0  0  0
   24.3050  -31.6607   42.6020 H   0  0  0  0  0  0  0  0  0  0  0  0
   25.5884  -29.0275   43.5652 H   0  0  0  0  0  0  0  0  0  0  0  0
   23.4391  -30.7773   41.0672 H   0  0  0  0  0  0  0  0  0  0  0  0
   19.0595  -32.9549   40.7453 H   0  0  0  0  0  0  0  0  0  0  0  0
   17.8007  -34.4973   39.2370 H   0  0  0  0  0  0  0  0  0  0  0  0
   17.9507  -34.2196   36.7605 H   0  0  0  0  0  0  0  0  0  0  0  0
   19.3860  -31.5990   35.1100 H   0  0  0  0  0  0  0  0  0  0  0  0
   22.1420  -27.8290   37.8960 H   0  0  0  0  0  0  0  0  0  0  0  0
   20.8164  -27.4396   40.2879 H   0  0  0  0  0  0  0  0  0  0  0  0
   21.9487  -26.1369   42.0724 H   0  0  0  0  0  0  0  0  0  0  0  0
   25.0092  -27.2416   43.8544 H   0  0  0  0  0  0  0  0  0  0  0  0
   24.0284  -25.8206   43.2953 H   0  0  0  0  0  0  0  0  0  0  0  0
   23.8927  -26.8620   45.8091 H   0  0  0  0  0  0  0  0  0  0  0  0
   22.5416  -26.0025   44.9952 H   0  0  0  0  0  0  0  0  0  0  0  0
   22.5935  -27.7981   44.9952 H   0  0  0  0  0  0  0  0  0  0  0  0
  1  2  2  0
  2  3  1  0
  3  4  2  0
  4  5  1  0
  5  6  1  0
  6  7  1  0
  7  8  1  0
  8  9  2  0
  9 10  1  0
 10 11  2  0
 11 12  1  0
 12 13  1  0
 12 14  2  0
 14 15  1  0
 15 16  2  0
 15 17  1  0
 17 18  1  0
  5 19  2  0
 19 20  1  0
 20 21  2  0
 21 22  1  0
 22 23  1  0
 21  3  1  0
 17  6  2  0
 14  8  1  0
  1 24  1  0
  1 25  1  0
  2 26  1  0
  4 27  1  0
  9 28  1  0
 10 29  1  0
 11 30  1  0
 13 31  1  0
 18 32  1  0
 19 33  1  0
 20 34  1  0
 22 35  1  0
 22 36  1  0
 23 37  1  0
 23 38  1  0
 23 39  1  0
M  END
>  <meeko>  (1) 
{"is_sidechain": [false], "free_energy": -9.412, "intermolecular_energy": -11.613, "internal_energy": -0.599}

$$$$
cand_046_out
     RDKit          3D

 39 41  0  0  0  0  0  0  0  0999 V2000
   19.6220  -26.2840   42.5100 C   0  0  0  0  0  0  0  0  0  0  0  0
   20.7890  -26.2760   41.8550 C   0  0  0  0  0  0  0  0  0  0  0  0
   21.5180  -27.5010   41.4920 C   0  0  0  0  0  0  0  0  0  0  0  0
   20.9660  -28.3620   40.5260 C   0  0  0  0  0  0  0  0  0  0  0  0
   21.6290  -29.5270   40.1110 C   0  0  0  0  0  0  0  0  0  0  0  0
   20.9970  -30.4180   39.1150 C   0  0  0  0  0  0  0  0  0  0  0  0
   20.2940  -31.4670   39.6980 O   0  0  0  0  0  0  0  0  0  0  0  0
   19.6560  -32.3690   38.8870 C   0  0  0  0  0  0  0  0  0  0  0  0
   18.9740  -33.4130   39.5140 C   0  0  0  0  0  0  0  0  0  0  0  0
   18.3010  -34.3660   38.7460 C   0  0  0  0  0  0  0  0  0  0  0  0
   18.3080  -34.2740   37.3530 C   0  0  0  0  0  0  0  0  0  0  0  0
   18.9890  -33.2310   36.7290 C   0  0  0  0  0  0  0  0  0  0  0  0
   18.9560  -33.2020   35.3610 O   0  0  0  0  0  0  0  0  0  0  0  0
   19.6630  -32.2790   37.4980 C   0  0  0  0  0  0  0  0  0  0  0  0
   20.3910  -31.1670   36.8830 C   0  0  0  0  0  0  0  0  0  0  0  0
   20.4380  -31.0160   35.6640 O   0  0  0  0  0  0  0  0  0  0  0  0
   21.0770  -30.2160   37.7860 C   0  0  0  0  0  0  0  0  0  0  0  0
   21.7490  -29.1610   37.1960 O   0  0  0  0  0  0  0  0  0  0  0  0
   22.8650  -29.8290   40.6890 C   0  0  0  0  0  0  0  0  0  0  0  0
   23.4320  -28.9800   41.6430 C   0  0  0  0  0  0  0  0  0  0  0  0
   22.7710  -27.8110   42.0570 C   0  0  0  0  0  0  0  0  0  0  0  0
   23.4470  -26.9340   43.0870 C   0  0  0  0  0  0  0  0  0  0  0  0
   23.6450  -27.6580   44.4110 C   0  0  0  0  0  0  0  0  0  0  0  0
   19.1222  -25.3352   42.7548 H   0  0  0  0  0  0  0  0  0  0  0  0
   19.1626  -27.2394   42.8036 H   0  0  0  0  0  0  0  0  0  0  0  0
   21.2245  -25.3057   41.5743 H   0  0  0  0  0  0  0  0  0  0  0  0
   19.9891  -28.1155   40.0845 H   0  0  0  0  0  0  0  0  0  0  0  0
   18.9665  -33.4852   40.6116 H   0  0  0  0  0  0  0  0  0  0  0  0
   17.7648  -35.1900   39.2394 H   0  0  0  0  0  0  0  0  0  0  0  0
   17.7765  -35.0240   36.7489 H   0  0  0  0  0  0  0  0  0  0  0  0
   18.9210  -32.3820   34.9120 H   0  0  0  0  0  0  0  0  0  0  0  0
   22.4160  -29.3290   36.5590 H   0  0  0  0  0  0  0  0  0  0  0  0
   23.3969  -30.7443   40.3899 H   0  0  0  0  0  0  0  0  0  0  0  0
   24.4113  -29.2306   42.0768 H   0  0  0  0  0  0  0  0  0  0  0  0
   24.4296  -26.6253   42.7007 H   0  0  0  0  0  0  0  0  0  0  0  0
   22.7997  -26.0635   43.2694 H   0  0  0  0  0  0  0  0  0  0  0  0
   23.4547  -26.9622   45.2414 H   0  0  0  0  0  0  0  0  0  0  0  0
   22.9454  -28.5045   44.4742 H   0  0  0  0  0  0  0  0  0  0  0  0
   24.6780  -28.0306   44.4742 H   0  0  0  0  0  0  0  0  0  0  0  0
  1  2  2  0
  2  3  1  0
  3  4  2  0
  4  5  1  0
  5  6  1  0
  6  7  1  0
  7  8  1  0
  8  9  2  0
  9 10  1  0
 10 11  2  0
 11 12  1  0
 12 13  1  0
 12 14  2  0
 14 15  1  0
 15 16  2  0
 15 17  1  0
 17 18  1  0
  5 19  2  0
 19 20  1  0
 20 21  2  0
 21 22  1  0
 22 23  1  0
 21  3  1  0
 17  6  2  0
 14  8  1  0
  1 24  1  0
  1 25  1  0
  2 26  1  0
  4 27  1  0
  9 28  1  0
 10 29  1  0
 11 30  1  0
 13 31  1  0
 18 32  1  0
 19 33  1  0
 20 34  1  0
 22 35  1  0
 22 36  1  0
 23 37  1  0
 23 38  1  0
 23 39  1  0
M  END
>  <meeko>  (2) 
{"is_sidechain": [false], "free_energy": -9.257, "intermolecular_energy": -11.354, "internal_energy": -0.666}

$$$$
cand_046_out
     RDKit          3D

 39 41  0  0  0  0  0  0  0  0999 V2000
   18.1400  -32.5520   39.5150 C   0  0  0  0  0  0  0  0  0  0  0  0
   19.3920  -32.5420   39.0400 C   0  0  0  0  0  0  0  0  0  0  0  0
   20.0660  -31.3220   38.5720 C   0  0  0  0  0  0  0  0  0  0  0  0
   20.5220  -30.3880   39.5200 C   0  0  0  0  0  0  0  0  0  0  0  0
   21.2040  -29.2230   39.1400 C   0  0  0  0  0  0  0  0  0  0  0  0
   21.6390  -28.2540   40.1700 C   0  0  0  0  0  0  0  0  0  0  0  0
   22.5050  -28.8120   41.1030 O   0  0  0  0  0  0  0  0  0  0  0  0
   22.9870  -28.0220   42.1150 C   0  0  0  0  0  0  0  0  0  0  0  0
   23.8420  -28.6270   43.0370 C   0  0  0  0  0  0  0  0  0  0  0  0
   24.3710  -27.8780   44.0920 C   0  0  0  0  0  0  0  0  0  0  0  0
   24.0460  -26.5270   44.2220 C   0  0  0  0  0  0  0  0  0  0  0  0
   23.1930  -25.9260   43.3000 C   0  0  0  0  0  0  0  0  0  0  0  0
   22.9150  -24.5990   43.4880 O   0  0  0  0  0  0  0  0  0  0  0  0
   22.6630  -26.6760   42.2460 C   0  0  0  0  0  0  0  0  0  0  0  0
   21.7630  -26.0830   41.2550 C   0  0  0  0  0  0  0  0  0  0  0  0
   21.4350  -24.9000   41.3000 O   0  0  0  0  0  0  0  0  0  0  0  0
   21.2510  -26.9650   40.1810 C   0  0  0  0  0  0  0  0  0  0  0  0
   20.4130  -26.3930   39.2430 O   0  0  0  0  0  0  0  0  0  0  0  0
   21.4200  -28.9940   37.7770 C   0  0  0  0  0  0  0  0  0  0  0  0
   20.9820  -29.9160   36.8230 C   0  0  0  0  0  0  0  0  0  0  0  0
   20.3020  -31.0860   37.2030 C   0  0  0  0  0  0  0  0  0  0  0  0
   19.8640  -32.0430   36.1180 C   0  0  0  0  0  0  0  0  0  0  0  0
   20.3340  -31.5980   34.7410 C   0  0  0  0  0  0  0  0  0  0  0  0
   17.6869  -33.4962   39.8513 H   0  0  0  0  0  0  0  0  0  0  0  0
   17.5647  -31.6160   39.5689 H   0  0  0  0  0  0  0  0  0  0  0  0
   19.9431  -33.4930   38.9979 H   0  0  0  0  0  0  0  0  0  0  0  0
   20.3387  -30.5765   40.5881 H   0  0  0  0  0  0  0  0  0  0  0  0
   24.0993  -29.6915   42.9338 H   0  0  0  0  0  0  0  0  0  0  0  0
   25.0441  -28.3538   44.8204 H   0  0  0  0  0  0  0  0  0  0  0  0
   24.4632  -25.9376   45.0518 H   0  0  0  0  0  0  0  0  0  0  0  0
   23.6150  -23.9840   43.5870 H   0  0  0  0  0  0  0  0  0  0  0  0
   20.0290  -26.9240   38.5720 H   0  0  0  0  0  0  0  0  0  0  0  0
   21.9393  -28.0799   37.4534 H   0  0  0  0  0  0  0  0  0  0  0  0
   21.1725  -29.7231   35.7569 H   0  0  0  0  0  0  0  0  0  0  0  0
   20.2824  -33.0376   36.3317 H   0  0  0  0  0  0  0  0  0  0  0  0
   18.7643  -32.0670   36.1101 H   0  0  0  0  0  0  0  0  0  0  0  0
   21.1288  -30.8455   34.8503 H   0  0  0  0  0  0  0  0  0  0  0  0
   20.7240  -32.4656   34.1886 H   0  0  0  0  0  0  0  0  0  0  0  0
   19.4890  -31.1612   34.1886 H   0  0  0  0  0  0  0  0  0  0  0  0
  1  2  2  0
  2  3  1  0
  3  4  2  0
  4  5  1  0
  5  6  1  0
  6  7  1  0
  7  8  1  0
  8  9  2  0
  9 10  1  0
 10 11  2  0
 11 12  1  0
 12 13  1  0
 12 14  2  0
 14 15  1  0
 15 16  2  0
 15 17  1  0
 17 18  1  0
  5 19  2  0
 19 20  1  0
 20 21  2  0
 21 22  1  0
 22 23  1  0
 21  3  1  0
 17  6  2  0
 14  8  1  0
  1 24  1  0
  1 25  1  0
  2 26  1  0
  4 27  1  0
  9 28  1  0
 10 29  1  0
 11 30  1  0
 13 31  1  0
 18 32  1  0
 19 33  1  0
 20 34  1  0
 22 35  1  0
 22 36  1  0
 23 37  1  0
 23 38  1  0
 23 39  1  0
M  END
>  <meeko>  (3) 
{"is_sidechain": [false], "free_energy": -8.83, "intermolecular_energy": -11.046, "internal_energy": -0.447}

$$$$
cand_046_out
     RDKit          3D

 39 41  0  0  0  0  0  0  0  0999 V2000
   23.6240  -29.8890   41.6070 C   0  0  0  0  0  0  0  0  0  0  0  0
   23.0210  -28.7500   41.2420 C   0  0  0  0  0  0  0  0  0  0  0  0
   21.7610  -28.7120   40.4840 C   0  0  0  0  0  0  0  0  0  0  0  0
   21.4430  -29.7890   39.6360 C   0  0  0  0  0  0  0  0  0  0  0  0
   20.2400  -29.8290   38.9140 C   0  0  0  0  0  0  0  0  0  0  0  0
   19.9620  -30.9660   38.0110 C   0  0  0  0  0  0  0  0  0  0  0  0
   20.3550  -30.7230   36.7000 O   0  0  0  0  0  0  0  0  0  0  0  0
   20.1570  -31.6970   35.7560 C   0  0  0  0  0  0  0  0  0  0  0  0
   20.5540  -31.4050   34.4510 C   0  0  0  0  0  0  0  0  0  0  0  0
   20.3820  -32.3550   33.4410 C   0  0  0  0  0  0  0  0  0  0  0  0
   19.8150  -33.5950   33.7370 C   0  0  0  0  0  0  0  0  0  0  0  0
   19.4200  -33.8850   35.0410 C   0  0  0  0  0  0  0  0  0  0  0  0
   18.8700  -35.1190   35.2600 O   0  0  0  0  0  0  0  0  0  0  0  0
   19.5910  -32.9330   36.0500 C   0  0  0  0  0  0  0  0  0  0  0  0
   19.1890  -33.1970   37.4330 C   0  0  0  0  0  0  0  0  0  0  0  0
   18.6890  -34.2670   37.7720 O   0  0  0  0  0  0  0  0  0  0  0  0
   19.4080  -32.1210   38.4260 C   0  0  0  0  0  0  0  0  0  0  0  0
   19.0390  -32.3850   39.7320 O   0  0  0  0  0  0  0  0  0  0  0  0
   19.3500  -28.7600   39.0470 C   0  0  0  0  0  0  0  0  0  0  0  0
   19.6460  -27.6880   39.8930 C   0  0  0  0  0  0  0  0  0  0  0  0
   20.8480  -27.6470   40.6190 C   0  0  0  0  0  0  0  0  0  0  0  0
   21.0990  -26.4600   41.5220 C   0  0  0  0  0  0  0  0  0  0  0  0
   20.0830  -26.3780   42.6510 C   0  0  0  0  0  0  0  0  0  0  0  0
   24.5662  -29.8554   42.1737 H   0  0  0  0  0  0  0  0  0  0  0  0
   23.1770  -30.8580   41.3401 H   0  0  0  0  0  0  0  0  0  0  0  0
   23.4912  -27.7961   41.5229 H   0  0  0  0  0  0  0  0  0  0  0  0
   22.1556  -30.6210   39.5364 H   0  0  0  0  0  0  0  0  0  0  0  0
   21.0020  -30.4279   34.2174 H   0  0  0  0  0  0  0  0  0  0  0  0
   20.6939  -32.1251   32.4115 H   0  0  0  0  0  0  0  0  0  0  0  0
   19.6800  -34.3427   32.9416 H   0  0  0  0  0  0  0  0  0  0  0  0
   19.2470  -35.8770   34.8590 H   0  0  0  0  0  0  0  0  0  0  0  0
   19.0620  -31.7010   40.3720 H   0  0  0  0  0  0  0  0  0  0  0  0
   18.4073  -28.7624   38.4802 H   0  0  0  0  0  0  0  0  0  0  0  0
   18.9258  -26.8625   39.9922 H   0  0  0  0  0  0  0  0  0  0  0  0
   22.1057  -26.5506   41.9560 H   0  0  0  0  0  0  0  0  0  0  0  0
   21.0078  -25.5466   40.9158 H   0  0  0  0  0  0  0  0  0  0  0  0
   20.6054  -26.4202   43.6181 H   0  0  0  0  0  0  0  0  0  0  0  0
   19.5267  -25.4320   42.5757 H   0  0  0  0  0  0  0  0  0  0  0  0
   19.3822  -27.2225   42.5757 H   0  0  0  0  0  0  0  0  0  0  0  0
  1  2  2  0
  2  3  1  0
  3  4  2  0
  4  5  1  0
  5  6  1  0
  6  7  1  0
  7  8  1  0
  8  9  2  0
  9 10  1  0
 10 11  2  0
 11 12  1  0
 12 13  1  0
 12 14  2  0
 14 15  1  0
 15 16  2  0
 15 17  1  0
 17 18  1  0
  5 19  2  0
 19 20  1  0
 20 21  2  0
 21 22  1  0
 22 23  1  0
 21  3  1  0
 17  6  2  0
 14  8  1  0
  1 24  1  0
  1 25  1  0
  2 26  1  0
  4 27  1  0
  9 28  1  0
 10 29  1  0
 11 30  1  0
 13 31  1  0
 18 32  1  0
 19 33  1  0
 20 34  1  0
 22 35  1  0
 22 36  1  0
 23 37  1  0
 23 38  1  0
 23 39  1  0
M  END
>  <meeko>  (4) 
{"is_sidechain": [false], "free_energy": -8.634, "intermolecular_energy": -10.598, "internal_energy": -0.653}

$$$$
cand_046_out
     RDKit          3D

 39 41  0  0  0  0  0  0  0  0999 V2000
   24.6470  -28.9660   44.2630 C   0  0  0  0  0  0  0  0  0  0  0  0
   24.3840  -27.7390   43.7970 C   0  0  0  0  0  0  0  0  0  0  0  0
   23.1070  -27.3730   43.1660 C   0  0  0  0  0  0  0  0  0  0  0  0
   22.7300  -28.0090   41.9690 C   0  0  0  0  0  0  0  0  0  0  0  0
   21.5090  -27.7300   41.3380 C   0  0  0  0  0  0  0  0  0  0  0  0
   21.1690  -28.4000   40.0640 C   0  0  0  0  0  0  0  0  0  0  0  0
   20.7560  -29.7160   40.2410 O   0  0  0  0  0  0  0  0  0  0  0  0
   20.4070  -30.4550   39.1400 C   0  0  0  0  0  0  0  0  0  0  0  0
   20.0130  -31.7750   39.3610 C   0  0  0  0  0  0  0  0  0  0  0  0
   19.6430  -32.5820   38.2830 C   0  0  0  0  0  0  0  0  0  0  0  0
   19.6660  -32.0690   36.9850 C   0  0  0  0  0  0  0  0  0  0  0  0
   20.0600  -30.7510   36.7660 C   0  0  0  0  0  0  0  0  0  0  0  0
   20.0610  -30.3140   35.4690 O   0  0  0  0  0  0  0  0  0  0  0  0
   20.4320  -29.9450   37.8450 C   0  0  0  0  0  0  0  0  0  0  0  0
   20.8520  -28.5550   37.6600 C   0  0  0  0  0  0  0  0  0  0  0  0
   20.8930  -28.0310   36.5490 O   0  0  0  0  0  0  0  0  0  0  0  0
   21.2310  -27.7870   38.8670 C   0  0  0  0  0  0  0  0  0  0  0  0
   21.6130  -26.4710   38.6830 O   0  0  0  0  0  0  0  0  0  0  0  0
   20.6590  -26.7870   41.9230 C   0  0  0  0  0  0  0  0  0  0  0  0
   21.0130  -26.1540   43.1170 C   0  0  0  0  0  0  0  0  0  0  0  0
   22.2350  -26.4350   43.7530 C   0  0  0  0  0  0  0  0  0  0  0  0
   22.5500  -25.7180   45.0460 C   0  0  0  0  0  0  0  0  0  0  0  0
   21.5570  -24.6020   45.3360 C   0  0  0  0  0  0  0  0  0  0  0  0
   25.6214  -29.1814   44.7258 H   0  0  0  0  0  0  0  0  0  0  0  0
   23.8888  -29.7589   44.1831 H   0  0  0  0  0  0  0  0  0  0  0  0
   25.1614  -26.9664   43.8906 H   0  0  0  0  0  0  0  0  0  0  0  0
   23.4110  -28.7446   41.5160 H   0  0  0  0  0  0  0  0  0  0  0  0
   19.9938  -32.1798   40.3836 H   0  0  0  0  0  0  0  0  0  0  0  0
   19.3331  -33.6230   38.4569 H   0  0  0  0  0  0  0  0  0  0  0  0
   19.3734  -32.7047   36.1363 H   0  0  0  0  0  0  0  0  0  0  0  0
   20.4690  -30.8290   34.8020 H   0  0  0  0  0  0  0  0  0  0  0  0
   21.2230  -25.7940   39.2000 H   0  0  0  0  0  0  0  0  0  0  0  0
   19.7025  -26.5411   41.4387 H   0  0  0  0  0  0  0  0  0  0  0  0
   20.3243  -25.4237   43.5670 H   0  0  0  0  0  0  0  0  0  0  0  0
   22.5188  -26.4444   45.8715 H   0  0  0  0  0  0  0  0  0  0  0  0
   23.5488  -25.2673   44.9498 H   0  0  0  0  0  0  0  0  0  0  0  0
   21.4491  -24.4807   46.4240 H   0  0  0  0  0  0  0  0  0  0  0  0
   21.9230  -23.6622   44.8968 H   0  0  0  0  0  0  0  0  0  0  0  0
   20.5811  -24.8563   44.8968 H   0  0  0  0  0  0  0  0  0  0  0  0
  1  2  2  0
  2  3  1  0
  3  4  2  0
  4  5  1  0
  5  6  1  0
  6  7  1  0
  7  8  1  0
  8  9  2  0
  9 10  1  0
 10 11  2  0
 11 12  1  0
 12 13  1  0
 12 14  2  0
 14 15  1  0
 15 16  2  0
 15 17  1  0
 17 18  1  0
  5 19  2  0
 19 20  1  0
 20 21  2  0
 21 22  1  0
 22 23  1  0
 21  3  1  0
 17  6  2  0
 14  8  1  0
  1 24  1  0
  1 25  1  0
  2 26  1  0
  4 27  1  0
  9 28  1  0
 10 29  1  0
 11 30  1  0
 13 31  1  0
 18 32  1  0
 19 33  1  0
 20 34  1  0
 22 35  1  0
 22 36  1  0
 23 37  1  0
 23 38  1  0
 23 39  1  0
M  END
>  <meeko>  (5) 
{"is_sidechain": [false], "free_energy": -8.594, "intermolecular_energy": -10.609, "internal_energy": -0.594}

$$$$
cand_046_out
     RDKit          3D

 39 41  0  0  0  0  0  0  0  0999 V2000
   18.7440  -32.8920   39.8280 C   0  0  0  0  0  0  0  0  0  0  0  0
   19.6470  -32.6700   38.8640 C   0  0  0  0  0  0  0  0  0  0  0  0
   20.2990  -31.3690   38.6550 C   0  0  0  0  0  0  0  0  0  0  0  0
   20.7890  -30.6640   39.7700 C   0  0  0  0  0  0  0  0  0  0  0  0
   21.4520  -29.4350   39.6330 C   0  0  0  0  0  0  0  0  0  0  0  0
   21.9230  -28.7160   40.8360 C   0  0  0  0  0  0  0  0  0  0  0  0
   21.0960  -27.6570   41.1900 O   0  0  0  0  0  0  0  0  0  0  0  0
   21.4160  -26.9040   42.2910 C   0  0  0  0  0  0  0  0  0  0  0  0
   20.5650  -25.8430   42.6010 C   0  0  0  0  0  0  0  0  0  0  0  0
   20.8320  -25.0370   43.7110 C   0  0  0  0  0  0  0  0  0  0  0  0
   21.9480  -25.2950   44.5090 C   0  0  0  0  0  0  0  0  0  0  0  0
   22.7960  -26.3550   44.1980 C   0  0  0  0  0  0  0  0  0  0  0  0
   23.8710  -26.5500   45.0210 O   0  0  0  0  0  0  0  0  0  0  0  0
   22.5280  -27.1590   43.0860 C   0  0  0  0  0  0  0  0  0  0  0  0
   23.3930  -28.2840   42.7230 C   0  0  0  0  0  0  0  0  0  0  0  0
   24.3900  -28.5760   43.3800 O   0  0  0  0  0  0  0  0  0  0  0  0
   23.0250  -29.0700   41.5240 C   0  0  0  0  0  0  0  0  0  0  0  0
   23.8400  -30.1380   41.1980 O   0  0  0  0  0  0  0  0  0  0  0  0
   21.6130  -28.9070   38.3490 C   0  0  0  0  0  0  0  0  0  0  0  0
   21.1410  -29.5980   37.2310 C   0  0  0  0  0  0  0  0  0  0  0  0
   20.4800  -30.8320   37.3650 C   0  0  0  0  0  0  0  0  0  0  0  0
   20.0030  -31.5280   36.1110 C   0  0  0  0  0  0  0  0  0  0  0  0
   20.7200  -31.0210   34.8690 C   0  0  0  0  0  0  0  0  0  0  0  0
   18.2889  -33.8875   39.9366 H   0  0  0  0  0  0  0  0  0  0  0  0
   18.4575  -32.0788   40.5111 H   0  0  0  0  0  0  0  0  0  0  0  0
   19.9139  -33.5020   38.1958 H   0  0  0  0  0  0  0  0  0  0  0  0
   20.6486  -31.0876   40.7754 H   0  0  0  0  0  0  0  0  0  0  0  0
   19.6850  -25.6411   41.9726 H   0  0  0  0  0  0  0  0  0  0  0  0
   20.1627  -24.1991   43.9559 H   0  0  0  0  0  0  0  0  0  0  0  0
   22.1575  -24.6612   45.3833 H   0  0  0  0  0  0  0  0  0  0  0  0
   24.4500  -25.8390   45.2100 H   0  0  0  0  0  0  0  0  0  0  0  0
   24.6960  -29.9840   40.8480 H   0  0  0  0  0  0  0  0  0  0  0  0
   22.1164  -27.9378   38.2178 H   0  0  0  0  0  0  0  0  0  0  0  0
   21.2887  -29.1698   36.2286 H   0  0  0  0  0  0  0  0  0  0  0  0
   20.1882  -32.6076   36.2119 H   0  0  0  0  0  0  0  0  0  0  0  0
   18.9298  -31.3172   35.9932 H   0  0  0  0  0  0  0  0  0  0  0  0
   21.5842  -30.4099   35.1683 H   0  0  0  0  0  0  0  0  0  0  0  0
   21.0657  -31.8766   34.2702 H   0  0  0  0  0  0  0  0  0  0  0  0
   20.0286  -30.4099   34.2702 H   0  0  0  0  0  0  0  0  0  0  0  0
  1  2  2  0
  2  3  1  0
  3  4  2  0
  4  5  1  0
  5  6  1  0
  6  7  1  0
  7  8  1  0
  8  9  2  0
  9 10  1  0
 10 11  2  0
 11 12  1  0
 12 13  1  0
 12 14  2  0
 14 15  1  0
 15 16  2  0
 15 17  1  0
 17 18  1  0
  5 19  2  0
 19 20  1  0
 20 21  2  0
 21 22  1  0
 22 23  1  0
 21  3  1  0
 17  6  2  0
 14  8  1  0
  1 24  1  0
  1 25  1  0
  2 26  1  0
  4 27  1  0
  9 28  1  0
 10 29  1  0
 11 30  1  0
 13 31  1  0
 18 32  1  0
 19 33  1  0
 20 34  1  0
 22 35  1  0
 22 36  1  0
 23 37  1  0
 23 38  1  0
 23 39  1  0
M  END
>  <meeko>  (6) 
{"is_sidechain": [false], "free_energy": -8.534, "intermolecular_energy": -10.534, "internal_energy": -0.594}

$$$$
cand_046_out
     RDKit          3D

 39 41  0  0  0  0  0  0  0  0999 V2000
   18.7320  -26.1980   40.1660 C   0  0  0  0  0  0  0  0  0  0  0  0
   19.4590  -26.8970   41.0460 C   0  0  0  0  0  0  0  0  0  0  0  0
   20.4190  -27.9380   40.6520 C   0  0  0  0  0  0  0  0  0  0  0  0
   20.0200  -28.9190   39.7250 C   0  0  0  0  0  0  0  0  0  0  0  0
   20.8990  -29.9170   39.2810 C   0  0  0  0  0  0  0  0  0  0  0  0
   20.4270  -30.9450   38.3290 C   0  0  0  0  0  0  0  0  0  0  0  0
   20.7980  -30.6760   37.0160 O   0  0  0  0  0  0  0  0  0  0  0  0
   20.4260  -31.5510   36.0290 C   0  0  0  0  0  0  0  0  0  0  0  0
   20.8090  -31.2350   34.7250 C   0  0  0  0  0  0  0  0  0  0  0  0
   20.4630  -32.0850   33.6720 C   0  0  0  0  0  0  0  0  0  0  0  0
   19.7380  -33.2510   33.9230 C   0  0  0  0  0  0  0  0  0  0  0  0
   19.3570  -33.5650   35.2260 C   0  0  0  0  0  0  0  0  0  0  0  0
   18.6470  -34.7210   35.4010 O   0  0  0  0  0  0  0  0  0  0  0  0
   19.7020  -32.7120   36.2780 C   0  0  0  0  0  0  0  0  0  0  0  0
   19.3220  -33.0050   37.6620 C   0  0  0  0  0  0  0  0  0  0  0  0
   18.6880  -34.0140   37.9630 O   0  0  0  0  0  0  0  0  0  0  0  0
   19.7310  -32.0350   38.7030 C   0  0  0  0  0  0  0  0  0  0  0  0
   19.3800  -32.3270   40.0080 O   0  0  0  0  0  0  0  0  0  0  0  0
   22.2010  -29.9290   39.7910 C   0  0  0  0  0  0  0  0  0  0  0  0
   22.6170  -28.9580   40.7050 C   0  0  0  0  0  0  0  0  0  0  0  0
   21.7380  -27.9550   41.1470 C   0  0  0  0  0  0  0  0  0  0  0  0
   22.2580  -26.9310   42.1320 C   0  0  0  0  0  0  0  0  0  0  0  0
   23.1760  -27.5550   43.1720 C   0  0  0  0  0  0  0  0  0  0  0  0
   18.0285  -25.4302   40.5205 H   0  0  0  0  0  0  0  0  0  0  0  0
   18.8380  -26.3913   39.0883 H   0  0  0  0  0  0  0  0  0  0  0  0
   19.3317  -26.6817   42.1172 H   0  0  0  0  0  0  0  0  0  0  0  0
   18.9904  -28.9023   39.3383 H   0  0  0  0  0  0  0  0  0  0  0  0
   21.3827  -30.3177   34.5265 H   0  0  0  0  0  0  0  0  0  0  0  0
   20.7623  -31.8351   32.6434 H   0  0  0  0  0  0  0  0  0  0  0  0
   19.4678  -33.9210   33.0935 H   0  0  0  0  0  0  0  0  0  0  0  0
   18.9350  -35.3570   36.0250 H   0  0  0  0  0  0  0  0  0  0  0  0
   18.9350  -31.6860   40.5280 H   0  0  0  0  0  0  0  0  0  0  0  0
   22.9046  -30.7109   39.4692 H   0  0  0  0  0  0  0  0  0  0  0  0
   23.6492  -28.9790   41.0847 H   0  0  0  0  0  0  0  0  0  0  0  0
   22.8175  -26.1606   41.5811 H   0  0  0  0  0  0  0  0  0  0  0  0
   21.3949  -26.4967   42.6578 H   0  0  0  0  0  0  0  0  0  0  0  0
   22.8109  -27.3068   44.1795 H   0  0  0  0  0  0  0  0  0  0  0  0
   23.1856  -28.6475   43.0443 H   0  0  0  0  0  0  0  0  0  0  0  0
   24.1954  -27.1619   43.0443 H   0  0  0  0  0  0  0  0  0  0  0  0
  1  2  2  0
  2  3  1  0
  3  4  2  0
  4  5  1  0
  5  6  1  0
  6  7  1  0
  7  8  1  0
  8  9  2  0
  9 10  1  0
 10 11  2  0
 11 12  1  0
 12 13  1  0
 12 14  2  0
 14 15  1  0
 15 16  2  0
 15 17  1  0
 17 18  1  0
  5 19  2  0
 19 20  1  0
 20 21  2  0
 21 22  1  0
 22 23  1  0
 21  3  1  0
 17  6  2  0
 14  8  1  0
  1 24  1  0
  1 25  1  0
  2 26  1  0
  4 27  1  0
  9 28  1  0
 10 29  1  0
 11 30  1  0
 13 31  1  0
 18 32  1  0
 19 33  1  0
 20 34  1  0
 22 35  1  0
 22 36  1  0
 23 37  1  0
 23 38  1  0
 23 39  1  0
M  END
>  <meeko>  (7) 
{"is_sidechain": [false], "free_energy": -8.314, "intermolecular_energy": -10.23, "internal_energy": -0.627}

$$$$
cand_046_out
     RDKit          3D

 39 41  0  0  0  0  0  0  0  0999 V2000
   18.8940  -34.6800   38.9560 C   0  0  0  0  0  0  0  0  0  0  0  0
   18.5260  -33.8970   37.9330 C   0  0  0  0  0  0  0  0  0  0  0  0
   19.2900  -32.7150   37.5080 C   0  0  0  0  0  0  0  0  0  0  0  0
   19.7180  -31.7920   38.4810 C   0  0  0  0  0  0  0  0  0  0  0  0
   20.4800  -30.6640   38.1440 C   0  0  0  0  0  0  0  0  0  0  0  0
   20.8810  -29.7060   39.1970 C   0  0  0  0  0  0  0  0  0  0  0  0
   19.8940  -28.7680   39.4770 O   0  0  0  0  0  0  0  0  0  0  0  0
   20.1340  -27.8200   40.4380 C   0  0  0  0  0  0  0  0  0  0  0  0
   19.1210  -26.8900   40.6770 C   0  0  0  0  0  0  0  0  0  0  0  0
   19.3010  -25.8970   41.6440 C   0  0  0  0  0  0  0  0  0  0  0  0
   20.4910  -25.8360   42.3710 C   0  0  0  0  0  0  0  0  0  0  0  0
   21.5000  -26.7650   42.1300 C   0  0  0  0  0  0  0  0  0  0  0  0
   22.6410  -26.6470   42.8770 O   0  0  0  0  0  0  0  0  0  0  0  0
   21.3200  -27.7570   41.1620 C   0  0  0  0  0  0  0  0  0  0  0  0
   22.3550  -28.7530   40.8770 C   0  0  0  0  0  0  0  0  0  0  0  0
   23.4270  -28.7670   41.4790 O   0  0  0  0  0  0  0  0  0  0  0  0
   22.0690  -29.7570   39.8280 C   0  0  0  0  0  0  0  0  0  0  0  0
   23.0470  -30.7020   39.5780 O   0  0  0  0  0  0  0  0  0  0  0  0
   20.8080  -30.4610   36.8010 C   0  0  0  0  0  0  0  0  0  0  0  0
   20.3990  -31.3720   35.8230 C   0  0  0  0  0  0  0  0  0  0  0  0
   19.6390  -32.5050   36.1590 C   0  0  0  0  0  0  0  0  0  0  0  0
   19.2380  -33.4530   35.0510 C   0  0  0  0  0  0  0  0  0  0  0  0
   20.0570  -34.7350   35.0740 C   0  0  0  0  0  0  0  0  0  0  0  0
   18.2820  -35.5524   39.2288 H   0  0  0  0  0  0  0  0  0  0  0  0
   19.8082  -34.4505   39.5231 H   0  0  0  0  0  0  0  0  0  0  0  0
   17.6072  -34.1510   37.3842 H   0  0  0  0  0  0  0  0  0  0  0  0
   19.4475  -31.9601   39.5339 H   0  0  0  0  0  0  0  0  0  0  0  0
   18.1825  -26.9385   40.1052 H   0  0  0  0  0  0  0  0  0  0  0  0
   18.5039  -25.1627   41.8323 H   0  0  0  0  0  0  0  0  0  0  0  0
   20.6315  -25.0553   43.1331 H   0  0  0  0  0  0  0  0  0  0  0  0
   22.8070  -27.2470   43.5760 H   0  0  0  0  0  0  0  0  0  0  0  0
   23.6380  -30.9560   40.2590 H   0  0  0  0  0  0  0  0  0  0  0  0
   21.3935  -29.5761   36.5107 H   0  0  0  0  0  0  0  0  0  0  0  0
   20.6767  -31.1990   34.7728 H   0  0  0  0  0  0  0  0  0  0  0  0
   18.1747  -33.7086   35.1697 H   0  0  0  0  0  0  0  0  0  0  0  0
   19.4212  -32.9498   34.0902 H   0  0  0  0  0  0  0  0  0  0  0  0
   20.2459  -35.0307   36.1165 H   0  0  0  0  0  0  0  0  0  0  0  0
   19.5017  -35.5341   34.5611 H   0  0  0  0  0  0  0  0  0  0  0  0
   21.0155  -34.5670   34.5611 H   0  0  0  0  0  0  0  0  0  0  0  0
  1  2  2  0
  2  3  1  0
  3  4  2  0
  4  5  1  0
  5  6  1  0
  6  7  1  0
  7  8  1  0
  8  9  2  0
  9 10  1  0
 10 11  2  0
 11 12  1  0
 12 13  1  0
 12 14  2  0
 14 15  1  0
 15 16  2  0
 15 17  1  0
 17 18  1  0
  5 19  2  0
 19 20  1  0
 20 21  2  0
 21 22  1  0
 22 23  1  0
 21  3  1  0
 17  6  2  0
 14  8  1  0
  1 24  1  0
  1 25  1  0
  2 26  1  0
  4 27  1  0
  9 28  1  0
 10 29  1  0
 11 30  1  0
 13 31  1  0
 18 32  1  0
 19 33  1  0
 20 34  1  0
 22 35  1  0
 22 36  1  0
 23 37  1  0
 23 38  1  0
 23 39  1  0
M  END
>  <meeko>  (8) 
{"is_sidechain": [false], "free_energy": -7.772, "intermolecular_energy": -9.659, "internal_energy": -0.529}

$$$$
cand_046_out
     RDKit          3D

 39 41  0  0  0  0  0  0  0  0999 V2000
   24.1180  -25.8930   43.4970 C   0  0  0  0  0  0  0  0  0  0  0  0
   23.1500  -26.8180   43.5000 C   0  0  0  0  0  0  0  0  0  0  0  0
   22.9830  -27.8130   42.4310 C   0  0  0  0  0  0  0  0  0  0  0  0
   22.1720  -27.4970   41.3250 C   0  0  0  0  0  0  0  0  0  0  0  0
   22.0010  -28.3890   40.2560 C   0  0  0  0  0  0  0  0  0  0  0  0
   21.1140  -28.0270   39.1300 C   0  0  0  0  0  0  0  0  0  0  0  0
   19.8650  -27.5840   39.5480 O   0  0  0  0  0  0  0  0  0  0  0  0
   18.9430  -27.2130   38.6030 C   0  0  0  0  0  0  0  0  0  0  0  0
   17.6970  -26.7870   39.0670 C   0  0  0  0  0  0  0  0  0  0  0  0
   16.7120  -26.3930   38.1570 C   0  0  0  0  0  0  0  0  0  0  0  0
   16.9750  -26.4230   36.7870 C   0  0  0  0  0  0  0  0  0  0  0  0
   18.2190  -26.8470   36.3260 C   0  0  0  0  0  0  0  0  0  0  0  0
   18.4070  -26.8520   34.9710 O   0  0  0  0  0  0  0  0  0  0  0  0
   19.2020  -27.2430   37.2370 C   0  0  0  0  0  0  0  0  0  0  0  0
   20.5230  -27.6950   36.7960 C   0  0  0  0  0  0  0  0  0  0  0  0
   20.8310  -27.7440   35.6070 O   0  0  0  0  0  0  0  0  0  0  0  0
   21.4920  -28.0990   37.8400 C   0  0  0  0  0  0  0  0  0  0  0  0
   22.7410  -28.5110   37.4130 O   0  0  0  0  0  0  0  0  0  0  0  0
   22.6550  -29.6240   40.3100 C   0  0  0  0  0  0  0  0  0  0  0  0
   23.4720  -29.9490   41.3960 C   0  0  0  0  0  0  0  0  0  0  0  0
   23.6470  -29.0550   42.4660 C   0  0  0  0  0  0  0  0  0  0  0  0
   24.5530  -29.4700   43.6040 C   0  0  0  0  0  0  0  0  0  0  0  0
   25.2310  -30.8050   43.3360 C   0  0  0  0  0  0  0  0  0  0  0  0
   24.1936  -25.1734   44.3255 H   0  0  0  0  0  0  0  0  0  0  0  0
   24.8376  -25.8527   42.6660 H   0  0  0  0  0  0  0  0  0  0  0  0
   22.4449  -26.8342   44.3441 H   0  0  0  0  0  0  0  0  0  0  0  0
   21.6585  -26.5246   41.2982 H   0  0  0  0  0  0  0  0  0  0  0  0
   17.4908  -26.7615   40.1472 H   0  0  0  0  0  0  0  0  0  0  0  0
   15.7291  -26.0591   38.5210 H   0  0  0  0  0  0  0  0  0  0  0  0
   16.1999  -26.1118   36.0712 H   0  0  0  0  0  0  0  0  0  0  0  0
   18.8480  -27.5710   34.5630 H   0  0  0  0  0  0  0  0  0  0  0  0
   23.4870  -27.9590   37.5470 H   0  0  0  0  0  0  0  0  0  0  0  0
   22.5251  -30.3459   39.4903 H   0  0  0  0  0  0  0  0  0  0  0  0
   23.9868  -30.9209   41.4136 H   0  0  0  0  0  0  0  0  0  0  0  0
   25.3267  -28.7001   43.7407 H   0  0  0  0  0  0  0  0  0  0  0  0
   23.9350  -29.5785   44.5075 H   0  0  0  0  0  0  0  0  0  0  0  0
   25.4772  -31.2897   44.2923 H   0  0  0  0  0  0  0  0  0  0  0  0
   24.5523  -31.4520   42.7610 H   0  0  0  0  0  0  0  0  0  0  0  0
   26.1539  -30.6387   42.7610 H   0  0  0  0  0  0  0  0  0  0  0  0
  1  2  2  0
  2  3  1  0
  3  4  2  0
  4  5  1  0
  5  6  1  0
  6  7  1  0
  7  8  1  0
  8  9  2  0
  9 10  1  0
 10 11  2  0
 11 12  1  0
 12 13  1  0
 12 14  2  0
 14 15  1  0
 15 16  2  0
 15 17  1  0
 17 18  1  0
  5 19  2  0
 19 20  1  0
 20 21  2  0
 21 22  1  0
 22 23  1  0
 21  3  1  0
 17  6  2  0
 14  8  1  0
  1 24  1  0
  1 25  1  0
  2 26  1  0
  4 27  1  0
  9 28  1  0
 10 29  1  0
 11 30  1  0
 13 31  1  0
 18 32  1  0
 19 33  1  0
 20 34  1  0
 22 35  1  0
 22 36  1  0
 23 37  1  0
 23 38  1  0
 23 39  1  0
M  END
>  <meeko>  (9) 
{"is_sidechain": [false], "free_energy": -7.771, "intermolecular_energy": -9.804, "internal_energy": -0.383}

$$$$
