cand_048_out
     RDKit          3D

 37 39  0  0  0  0  0  0  0  0999 V2000
   23.3250  -26.7160   44.7980 C   0  0  0  0  0  0  0  0  0  0  0  0
   23.8560  -26.9090   43.5840 C   0  0  0  0  0  0  0  0  0  0  0  0
   23.2420  -27.7530   42.5430 C   0  0  0  0  0  0  0  0  0  0  0  0
   22.1710  -27.2430   41.7910 C   0  0  0  0  0  0  0  0  0  0  0  0
   21.5880  -27.9960   40.7680 C   0  0  0  0  0  0  0  0  0  0  0  0
   22.0650  -29.2740   40.4610 C   0  0  0  0  0  0  0  0  0  0  0  0
   21.4140  -30.0670   39.3970 C   0  0  0  0  0  0  0  0  0  0  0  0
   20.5990  -31.0760   39.8970 O   0  0  0  0  0  0  0  0  0  0  0  0
   19.9350  -31.8900   39.0150 C   0  0  0  0  0  0  0  0  0  0  0  0
   19.1410  -32.9000   39.5600 C   0  0  0  0  0  0  0  0  0  0  0  0
   18.4360  -33.7620   38.7180 C   0  0  0  0  0  0  0  0  0  0  0  0
   18.5230  -33.6130   37.3330 C   0  0  0  0  0  0  0  0  0  0  0  0
   19.3160  -32.6050   36.7910 C   0  0  0  0  0  0  0  0  0  0  0  0
   19.3560  -32.5160   35.4270 O   0  0  0  0  0  0  0  0  0  0  0  0
   20.0220  -31.7430   37.6340 C   0  0  0  0  0  0  0  0  0  0  0  0
   20.8670  -30.6700   37.1060 C   0  0  0  0  0  0  0  0  0  0  0  0
   20.9890  -30.4710   35.9000 O   0  0  0  0  0  0  0  0  0  0  0  0
   21.5800  -29.8160   38.0850 C   0  0  0  0  0  0  0  0  0  0  0  0
   22.3640  -28.7970   37.5780 O   0  0  0  0  0  0  0  0  0  0  0  0
   23.1340  -29.7850   41.2110 C   0  0  0  0  0  0  0  0  0  0  0  0
   23.7440  -29.0360   42.2360 C   0  0  0  0  0  0  0  0  0  0  0  0
   24.8450  -29.6390   43.0090 C   0  0  0  0  0  0  0  0  0  0  0  0
   25.0600  -30.9590   43.0890 C   0  0  0  0  0  0  0  0  0  0  0  0
   23.8386  -26.0719   45.5269 H   0  0  0  0  0  0  0  0  0  0  0  0
   22.3751  -27.2015   45.0664 H   0  0  0  0  0  0  0  0  0  0  0  0
   24.8068  -26.4080   43.3496 H   0  0  0  0  0  0  0  0  0  0  0  0
   21.7855  -26.2364   42.0103 H   0  0  0  0  0  0  0  0  0  0  0  0
   20.7447  -27.5787   40.1982 H   0  0  0  0  0  0  0  0  0  0  0  0
   19.0707  -33.0168   40.6515 H   0  0  0  0  0  0  0  0  0  0  0  0
   17.8113  -34.5595   39.1466 H   0  0  0  0  0  0  0  0  0  0  0  0
   17.9656  -34.2913   36.6702 H   0  0  0  0  0  0  0  0  0  0  0  0
   19.8820  -33.1140   34.9330 H   0  0  0  0  0  0  0  0  0  0  0  0
   22.7210  -28.8660   36.7150 H   0  0  0  0  0  0  0  0  0  0  0  0
   23.5058  -30.7971   40.9931 H   0  0  0  0  0  0  0  0  0  0  0  0
   25.5280  -28.9678   43.5502 H   0  0  0  0  0  0  0  0  0  0  0  0
   25.9012  -31.3442   43.6840 H   0  0  0  0  0  0  0  0  0  0  0  0
   24.3953  -31.6576   42.5596 H   0  0  0  0  0  0  0  0  0  0  0  0
  1  2  2  0
  2  3  1  0
  3  4  2  0
  4  5  1  0
  5  6  2  0
  6  7  1  0
  7  8  1  0
  8  9  1  0
  9 10  2  0
 10 11  1  0
 11 12  2  0
 12 13  1  0
 13 14  1  0
 13 15  2  0
 15 16  1  0
 16 17  2  0
 16 18  1  0
 18 19  1  0
  6 20  1  0
 20 21  2  0
 21 22  1  0
 22 23  2  0
 21  3  1  0
 18  7  2  0
 15  9  1  0
  1 24  1  0
  1 25  1  0
  2 26  1  0
  4 27  1  0
  5 28  1  0
 10 29  1  0
 11 30  1  0
 12 31  1  0
 14 32  1  0
 19 33  1  0
 20 34  1  0
 22 35  1  0
 23 36  1  0
 23 37  1  0
M  END
>  <meeko>  (1) 
{"is_sidechain": [false], "free_energy": -9.515, "intermolecular_energy": -11.74, "internal_energy": -0.597}

$$$$
cand_048_out
     RDKit          3D

 37 39  0  0  0  0  0  0  0  0999 V2000
   24.2600  -27.3970   43.8810 C   0  0  0  0  0  0  0  0  0  0  0  0
   23.4020  -26.9390   42.9610 C   0  0  0  0  0  0  0  0  0  0  0  0
   22.7500  -27.7900   41.9500 C   0  0  0  0  0  0  0  0  0  0  0  0
   23.3610  -28.9970   41.5730 C   0  0  0  0  0  0  0  0  0  0  0  0
   22.7550  -29.8520   40.6480 C   0  0  0  0  0  0  0  0  0  0  0  0
   21.5180  -29.5300   40.0810 C   0  0  0  0  0  0  0  0  0  0  0  0
   20.9090  -30.4310   39.0810 C   0  0  0  0  0  0  0  0  0  0  0  0
   20.2480  -31.5100   39.6550 O   0  0  0  0  0  0  0  0  0  0  0  0
   19.6390  -32.4270   38.8370 C   0  0  0  0  0  0  0  0  0  0  0  0
   19.0010  -33.5030   39.4550 C   0  0  0  0  0  0  0  0  0  0  0  0
   18.3590  -34.4710   38.6810 C   0  0  0  0  0  0  0  0  0  0  0  0
   18.3540  -34.3630   37.2890 C   0  0  0  0  0  0  0  0  0  0  0  0
   18.9920  -33.2880   36.6740 C   0  0  0  0  0  0  0  0  0  0  0  0
   18.9480  -33.2440   35.3080 O   0  0  0  0  0  0  0  0  0  0  0  0
   19.6350  -32.3200   37.4500 C   0  0  0  0  0  0  0  0  0  0  0  0
   20.3160  -31.1750   36.8430 C   0  0  0  0  0  0  0  0  0  0  0  0
   20.3490  -31.0070   35.6270 O   0  0  0  0  0  0  0  0  0  0  0  0
   20.9740  -30.2090   37.7550 C   0  0  0  0  0  0  0  0  0  0  0  0
   21.6030  -29.1240   37.1740 O   0  0  0  0  0  0  0  0  0  0  0  0
   20.9060  -28.3250   40.4560 C   0  0  0  0  0  0  0  0  0  0  0  0
   21.4940  -27.4580   41.3980 C   0  0  0  0  0  0  0  0  0  0  0  0
   20.8170  -26.1910   41.7290 C   0  0  0  0  0  0  0  0  0  0  0  0
   19.7740  -26.1020   42.5650 C   0  0  0  0  0  0  0  0  0  0  0  0
   24.7102  -26.7036   44.6066 H   0  0  0  0  0  0  0  0  0  0  0  0
   24.5147  -28.4667   43.9113 H   0  0  0  0  0  0  0  0  0  0  0  0
   23.1700  -25.8637   42.9597 H   0  0  0  0  0  0  0  0  0  0  0  0
   24.3308  -29.2737   42.0122 H   0  0  0  0  0  0  0  0  0  0  0  0
   23.2567  -30.7885   40.3630 H   0  0  0  0  0  0  0  0  0  0  0  0
   19.0040  -33.5884   40.5517 H   0  0  0  0  0  0  0  0  0  0  0  0
   17.8566  -35.3197   39.1681 H   0  0  0  0  0  0  0  0  0  0  0  0
   17.8472  -35.1253   36.6790 H   0  0  0  0  0  0  0  0  0  0  0  0
   19.7160  -33.0190   34.8210 H   0  0  0  0  0  0  0  0  0  0  0  0
   21.3380  -28.2540   37.3980 H   0  0  0  0  0  0  0  0  0  0  0  0
   19.9421  -28.0498   40.0030 H   0  0  0  0  0  0  0  0  0  0  0  0
   21.1892  -25.2666   41.2633 H   0  0  0  0  0  0  0  0  0  0  0  0
   19.3145  -25.1236   42.7689 H   0  0  0  0  0  0  0  0  0  0  0  0
   19.3771  -27.0073   43.0475 H   0  0  0  0  0  0  0  0  0  0  0  0
  1  2  2  0
  2  3  1  0
  3  4  2  0
  4  5  1  0
  5  6  2  0
  6  7  1  0
  7  8  1  0
  8  9  1  0
  9 10  2  0
 10 11  1  0
 11 12  2  0
 12 13  1  0
 13 14  1  0
 13 15  2  0
 15 16  1  0
 16 17  2  0
 16 18  1  0
 18 19  1  0
  6 20  1  0
 20 21  2  0
 21 22  1  0
 22 23  2  0
 21  3  1  0
 18  7  2  0
 15  9  1  0
  1 24  1  0
  1 25  1  0
  2 26  1  0
  4 27  1  0
  5 28  1  0
 10 29  1  0
 11 30  1  0
 12 31  1  0
 14 32  1  0
 19 33  1  0
 20 34  1  0
 22 35  1  0
 23 36  1  0
 23 37  1  0
M  END
>  <meeko>  (2) 
{"is_sidechain": [false], "free_energy": -9.195, "intermolecular_energy": -11.321, "internal_energy": -0.621}

$$$$
cand_048_out
     RDKit          3D

 37 39  0  0  0  0  0  0  0  0999 V2000
   22.8640  -24.7040   42.3410 C   0  0  0  0  0  0  0  0  0  0  0  0
   22.9040  -26.0100   42.6350 C   0  0  0  0  0  0  0  0  0  0  0  0
   22.3840  -27.0680   41.7510 C   0  0  0  0  0  0  0  0  0  0  0  0
   21.3780  -26.7520   40.8230 C   0  0  0  0  0  0  0  0  0  0  0  0
   20.8860  -27.7170   39.9390 C   0  0  0  0  0  0  0  0  0  0  0  0
   21.3920  -29.0200   39.9500 C   0  0  0  0  0  0  0  0  0  0  0  0
   20.8360  -30.0330   39.0290 C   0  0  0  0  0  0  0  0  0  0  0  0
   20.1580  -31.0500   39.6910 O   0  0  0  0  0  0  0  0  0  0  0  0
   19.5920  -32.0590   38.9530 C   0  0  0  0  0  0  0  0  0  0  0  0
   18.9350  -33.0680   39.6590 C   0  0  0  0  0  0  0  0  0  0  0  0
   18.3360  -34.1240   38.9690 C   0  0  0  0  0  0  0  0  0  0  0  0
   18.3920  -34.1700   37.5750 C   0  0  0  0  0  0  0  0  0  0  0  0
   19.0490  -33.1630   36.8730 C   0  0  0  0  0  0  0  0  0  0  0  0
   19.0670  -33.2700   35.5100 O   0  0  0  0  0  0  0  0  0  0  0  0
   19.6500  -32.1060   37.5640 C   0  0  0  0  0  0  0  0  0  0  0  0
   20.3490  -31.0280   36.8650 C   0  0  0  0  0  0  0  0  0  0  0  0
   20.4370  -30.9950   35.6400 O   0  0  0  0  0  0  0  0  0  0  0  0
   20.9590  -29.9590   37.6910 C   0  0  0  0  0  0  0  0  0  0  0  0
   21.6060  -28.9380   37.0210 O   0  0  0  0  0  0  0  0  0  0  0  0
   22.3970  -29.3370   40.8760 C   0  0  0  0  0  0  0  0  0  0  0  0
   22.9150  -28.3750   41.7640 C   0  0  0  0  0  0  0  0  0  0  0  0
   23.9500  -28.7770   42.7350 C   0  0  0  0  0  0  0  0  0  0  0  0
   24.5470  -29.9760   42.7300 C   0  0  0  0  0  0  0  0  0  0  0  0
   23.2718  -23.9680   43.0495 H   0  0  0  0  0  0  0  0  0  0  0  0
   22.4234  -24.3673   41.3910 H   0  0  0  0  0  0  0  0  0  0  0  0
   23.3518  -26.3108   43.5936 H   0  0  0  0  0  0  0  0  0  0  0  0
   20.9714  -25.7304   40.7913 H   0  0  0  0  0  0  0  0  0  0  0  0
   20.0919  -27.4479   39.2269 H   0  0  0  0  0  0  0  0  0  0  0  0
   18.8891  -33.0314   40.7574 H   0  0  0  0  0  0  0  0  0  0  0  0
   17.8194  -34.9205   39.5246 H   0  0  0  0  0  0  0  0  0  0  0  0
   17.9177  -35.0007   37.0319 H   0  0  0  0  0  0  0  0  0  0  0  0
   19.4650  -34.0140   35.1030 H   0  0  0  0  0  0  0  0  0  0  0  0
   21.1240  -28.1880   36.7330 H   0  0  0  0  0  0  0  0  0  0  0  0
   22.7905  -30.3637   40.9092 H   0  0  0  0  0  0  0  0  0  0  0  0
   24.2482  -28.0516   43.5063 H   0  0  0  0  0  0  0  0  0  0  0  0
   25.3125  -30.2124   43.4837 H   0  0  0  0  0  0  0  0  0  0  0  0
   24.2718  -30.7243   41.9721 H   0  0  0  0  0  0  0  0  0  0  0  0
  1  2  2  0
  2  3  1  0
  3  4  2  0
  4  5  1  0
  5  6  2  0
  6  7  1  0
  7  8  1  0
  8  9  1  0
  9 10  2  0
 10 11  1  0
 11 12  2  0
 12 13  1  0
 13 14  1  0
 13 15  2  0
 15 16  1  0
 16 17  2  0
 16 18  1  0
 18 19  1  0
  6 20  1  0
 20 21  2  0
 21 22  1  0
 22 23  2  0
 21  3  1  0
 18  7  2  0
 15  9  1  0
  1 24  1  0
  1 25  1  0
  2 26  1  0
  4 27  1  0
  5 28  1  0
 10 29  1  0
 11 30  1  0
 12 31  1  0
 14 32  1  0
 19 33  1  0
 20 34  1  0
 22 35  1  0
 23 36  1  0
 23 37  1  0
M  END
>  <meeko>  (3) 
{"is_sidechain": [false], "free_energy": -9.095, "intermolecular_energy": -11.314, "internal_energy": -0.505}

$$$$
cand_048_out
     RDKit          3D

 37 39  0  0  0  0  0  0  0  0999 V2000
   20.1520  -31.9730   34.9290 C   0  0  0  0  0  0  0  0  0  0  0  0
   19.7800  -32.0650   36.2120 C   0  0  0  0  0  0  0  0  0  0  0  0
   20.2270  -31.1370   37.2650 C   0  0  0  0  0  0  0  0  0  0  0  0
   21.1890  -30.1600   36.9560 C   0  0  0  0  0  0  0  0  0  0  0  0
   21.6100  -29.2360   37.9160 C   0  0  0  0  0  0  0  0  0  0  0  0
   21.0740  -29.2530   39.2080 C   0  0  0  0  0  0  0  0  0  0  0  0
   21.5560  -28.2880   40.2170 C   0  0  0  0  0  0  0  0  0  0  0  0
   22.4350  -28.8550   41.1320 O   0  0  0  0  0  0  0  0  0  0  0  0
   22.9570  -28.0680   42.1270 C   0  0  0  0  0  0  0  0  0  0  0  0
   23.8230  -28.6820   43.0320 C   0  0  0  0  0  0  0  0  0  0  0  0
   24.3910  -27.9370   44.0680 C   0  0  0  0  0  0  0  0  0  0  0  0
   24.0960  -26.5790   44.1960 C   0  0  0  0  0  0  0  0  0  0  0  0
   23.2310  -25.9680   43.2910 C   0  0  0  0  0  0  0  0  0  0  0  0
   22.9860  -24.6360   43.4750 O   0  0  0  0  0  0  0  0  0  0  0  0
   22.6620  -26.7140   42.2550 C   0  0  0  0  0  0  0  0  0  0  0  0
   21.7490  -26.1110   41.2830 C   0  0  0  0  0  0  0  0  0  0  0  0
   21.4460  -24.9210   41.3260 O   0  0  0  0  0  0  0  0  0  0  0  0
   21.1940  -26.9910   40.2290 C   0  0  0  0  0  0  0  0  0  0  0  0
   20.3430  -26.4100   39.3070 O   0  0  0  0  0  0  0  0  0  0  0  0
   20.1140  -30.2270   39.5190 C   0  0  0  0  0  0  0  0  0  0  0  0
   19.6670  -31.1580   38.5600 C   0  0  0  0  0  0  0  0  0  0  0  0
   18.6770  -32.1770   38.9560 C   0  0  0  0  0  0  0  0  0  0  0  0
   18.9740  -33.2540   39.6950 C   0  0  0  0  0  0  0  0  0  0  0  0
   19.7790  -32.7020   34.1946 H   0  0  0  0  0  0  0  0  0  0  0  0
   20.8306  -31.1684   34.6095 H   0  0  0  0  0  0  0  0  0  0  0  0
   19.1004  -32.8819   36.4965 H   0  0  0  0  0  0  0  0  0  0  0  0
   21.6169  -30.1222   35.9433 H   0  0  0  0  0  0  0  0  0  0  0  0
   22.3713  -28.4869   37.6528 H   0  0  0  0  0  0  0  0  0  0  0  0
   24.0583  -29.7517   42.9299 H   0  0  0  0  0  0  0  0  0  0  0  0
   25.0716  -28.4212   44.7838 H   0  0  0  0  0  0  0  0  0  0  0  0
   24.5458  -25.9920   45.0103 H   0  0  0  0  0  0  0  0  0  0  0  0
   23.6920  -24.0200   43.4470 H   0  0  0  0  0  0  0  0  0  0  0  0
   20.0460  -25.5310   39.4340 H   0  0  0  0  0  0  0  0  0  0  0  0
   19.6995  -30.2652   40.5372 H   0  0  0  0  0  0  0  0  0  0  0  0
   17.6360  -32.0451   38.6259 H   0  0  0  0  0  0  0  0  0  0  0  0
   18.1865  -33.9765   39.9554 H   0  0  0  0  0  0  0  0  0  0  0  0
   20.0054  -33.4159   40.0415 H   0  0  0  0  0  0  0  0  0  0  0  0
  1  2  2  0
  2  3  1  0
  3  4  2  0
  4  5  1  0
  5  6  2  0
  6  7  1  0
  7  8  1  0
  8  9  1  0
  9 10  2  0
 10 11  1  0
 11 12  2  0
 12 13  1  0
 13 14  1  0
 13 15  2  0
 15 16  1  0
 16 17  2  0
 16 18  1  0
 18 19  1  0
  6 20  1  0
 20 21  2  0
 21 22  1  0
 22 23  2  0
 21  3  1  0
 18  7  2  0
 15  9  1  0
  1 24  1  0
  1 25  1  0
  2 26  1  0
  4 27  1  0
  5 28  1  0
 10 29  1  0
 11 30  1  0
 12 31  1  0
 14 32  1  0
 19 33  1  0
 20 34  1  0
 22 35  1  0
 23 36  1  0
 23 37  1  0
M  END
>  <meeko>  (4) 
{"is_sidechain": [false], "free_energy": -8.771, "intermolecular_energy": -10.818, "internal_energy": -0.601}

$$$$
cand_048_out
     RDKit          3D

 37 39  0  0  0  0  0  0  0  0999 V2000
   21.9080  -24.9650   45.5640 C   0  0  0  0  0  0  0  0  0  0  0  0
   22.7230  -25.8560   44.9850 C   0  0  0  0  0  0  0  0  0  0  0  0
   22.3840  -26.6060   43.7620 C   0  0  0  0  0  0  0  0  0  0  0  0
   21.1720  -26.3370   43.1060 C   0  0  0  0  0  0  0  0  0  0  0  0
   20.8320  -26.9970   41.9220 C   0  0  0  0  0  0  0  0  0  0  0  0
   21.6980  -27.9370   41.3550 C   0  0  0  0  0  0  0  0  0  0  0  0
   21.3060  -28.6490   40.1210 C   0  0  0  0  0  0  0  0  0  0  0  0
   20.8130  -29.9250   40.3650 O   0  0  0  0  0  0  0  0  0  0  0  0
   20.4140  -30.6970   39.3030 C   0  0  0  0  0  0  0  0  0  0  0  0
   19.9410  -31.9770   39.5930 C   0  0  0  0  0  0  0  0  0  0  0  0
   19.5170  -32.8140   38.5590 C   0  0  0  0  0  0  0  0  0  0  0  0
   19.5630  -32.3700   37.2370 C   0  0  0  0  0  0  0  0  0  0  0  0
   20.0350  -31.0910   36.9500 C   0  0  0  0  0  0  0  0  0  0  0  0
   20.0520  -30.7200   35.6340 O   0  0  0  0  0  0  0  0  0  0  0  0
   20.4610  -30.2550   37.9850 C   0  0  0  0  0  0  0  0  0  0  0  0
   20.9630  -28.9050   37.7270 C   0  0  0  0  0  0  0  0  0  0  0  0
   21.0280  -28.4390   36.5920 O   0  0  0  0  0  0  0  0  0  0  0  0
   21.3970  -28.1010   38.8940 C   0  0  0  0  0  0  0  0  0  0  0  0
   21.8570  -26.8220   38.6420 O   0  0  0  0  0  0  0  0  0  0  0  0
   22.9090  -28.2080   42.0090 C   0  0  0  0  0  0  0  0  0  0  0  0
   23.2750  -27.5420   43.1940 C   0  0  0  0  0  0  0  0  0  0  0  0
   24.5480  -27.8920   43.8510 C   0  0  0  0  0  0  0  0  0  0  0  0
   24.9030  -29.1450   44.1640 C   0  0  0  0  0  0  0  0  0  0  0  0
   22.2262  -24.4407   46.4772 H   0  0  0  0  0  0  0  0  0  0  0  0
   20.9204  -24.7574   45.1264 H   0  0  0  0  0  0  0  0  0  0  0  0
   23.7032  -26.0390   45.4494 H   0  0  0  0  0  0  0  0  0  0  0  0
   20.4794  -25.5953   43.5306 H   0  0  0  0  0  0  0  0  0  0  0  0
   19.8731  -26.7747   41.4310 H   0  0  0  0  0  0  0  0  0  0  0  0
   19.9021  -32.3265   40.6353 H   0  0  0  0  0  0  0  0  0  0  0  0
   19.1464  -33.8243   38.7868 H   0  0  0  0  0  0  0  0  0  0  0  0
   19.2271  -33.0288   36.4227 H   0  0  0  0  0  0  0  0  0  0  0  0
   19.4460  -30.0790   35.3190 H   0  0  0  0  0  0  0  0  0  0  0  0
   21.6370  -26.3950   37.8380 H   0  0  0  0  0  0  0  0  0  0  0  0
   23.5903  -28.9604   41.5849 H   0  0  0  0  0  0  0  0  0  0  0  0
   25.2454  -27.0780   44.0980 H   0  0  0  0  0  0  0  0  0  0  0  0
   25.8689  -29.3368   44.6542 H   0  0  0  0  0  0  0  0  0  0  0  0
   24.2287  -29.9822   43.9308 H   0  0  0  0  0  0  0  0  0  0  0  0
  1  2  2  0
  2  3  1  0
  3  4  2  0
  4  5  1  0
  5  6  2  0
  6  7  1  0
  7  8  1  0
  8  9  1  0
  9 10  2  0
 10 11  1  0
 11 12  2  0
 12 13  1  0
 13 14  1  0
 13 15  2  0
 15 16  1  0
 16 17  2  0
 16 18  1  0
 18 19  1  0
  6 20  1  0
 20 21  2  0
 21 22  1  0
 22 23  2  0
 21  3  1  0
 18  7  2  0
 15  9  1  0
  1 24  1  0
  1 25  1  0
  2 26  1  0
  4 27  1  0
  5 28  1  0
 10 29  1  0
 11 30  1  0
 12 31  1  0
 14 32  1  0
 19 33  1  0
 20 34  1  0
 22 35  1  0
 23 36  1  0
 23 37  1  0
M  END
>  <meeko>  (5) 
{"is_sidechain": [false], "free_energy": -8.688, "intermolecular_energy": -10.707, "internal_energy": -0.609}

$$$$
cand_048_out
     RDKit          3D

 37 39  0  0  0  0  0  0  0  0999 V2000
   20.4920  -26.3600   42.7680 C   0  0  0  0  0  0  0  0  0  0  0  0
   21.1030  -26.5380   41.5900 C   0  0  0  0  0  0  0  0  0  0  0  0
   20.8600  -27.6920   40.7050 C   0  0  0  0  0  0  0  0  0  0  0  0
   19.6920  -27.7230   39.9240 C   0  0  0  0  0  0  0  0  0  0  0  0
   19.4440  -28.7790   39.0430 C   0  0  0  0  0  0  0  0  0  0  0  0
   20.3600  -29.8270   38.9080 C   0  0  0  0  0  0  0  0  0  0  0  0
   20.0640  -30.9500   37.9940 C   0  0  0  0  0  0  0  0  0  0  0  0
   20.4430  -30.6940   36.6820 O   0  0  0  0  0  0  0  0  0  0  0  0
   20.2230  -31.6560   35.7280 C   0  0  0  0  0  0  0  0  0  0  0  0
   20.6040  -31.3510   34.4210 C   0  0  0  0  0  0  0  0  0  0  0  0
   20.4100  -32.2860   33.4030 C   0  0  0  0  0  0  0  0  0  0  0  0
   19.8370  -33.5250   33.6910 C   0  0  0  0  0  0  0  0  0  0  0  0
   19.4570  -33.8270   34.9970 C   0  0  0  0  0  0  0  0  0  0  0  0
   18.9020  -35.0590   35.2090 O   0  0  0  0  0  0  0  0  0  0  0  0
   19.6500  -32.8900   36.0160 C   0  0  0  0  0  0  0  0  0  0  0  0
   19.2650  -33.1680   37.4000 C   0  0  0  0  0  0  0  0  0  0  0  0
   18.7620  -34.2380   37.7340 O   0  0  0  0  0  0  0  0  0  0  0  0
   19.5060  -32.1040   38.4040 C   0  0  0  0  0  0  0  0  0  0  0  0
   19.1520  -32.3810   39.7110 O   0  0  0  0  0  0  0  0  0  0  0  0
   21.5260  -29.7970   39.6860 C   0  0  0  0  0  0  0  0  0  0  0  0
   21.8000  -28.7350   40.5690 C   0  0  0  0  0  0  0  0  0  0  0  0
   23.0290  -28.7760   41.3830 C   0  0  0  0  0  0  0  0  0  0  0  0
   23.7240  -29.8960   41.6230 C   0  0  0  0  0  0  0  0  0  0  0  0
   20.7215  -25.4741   43.3783 H   0  0  0  0  0  0  0  0  0  0  0  0
   19.7605  -27.0997   43.1255 H   0  0  0  0  0  0  0  0  0  0  0  0
   21.8288  -25.7788   41.2633 H   0  0  0  0  0  0  0  0  0  0  0  0
   18.9624  -26.9041   40.0074 H   0  0  0  0  0  0  0  0  0  0  0  0
   18.5181  -28.7860   38.4492 H   0  0  0  0  0  0  0  0  0  0  0  0
   21.0568  -30.3748   34.1930 H   0  0  0  0  0  0  0  0  0  0  0  0
   20.7093  -32.0456   32.3722 H   0  0  0  0  0  0  0  0  0  0  0  0
   19.6855  -34.2620   32.8886 H   0  0  0  0  0  0  0  0  0  0  0  0
   18.4310  -35.2320   36.0010 H   0  0  0  0  0  0  0  0  0  0  0  0
   19.5090  -33.1300   40.1440 H   0  0  0  0  0  0  0  0  0  0  0  0
   22.2457  -30.6249   39.6044 H   0  0  0  0  0  0  0  0  0  0  0  0
   23.3957  -27.8343   41.8175 H   0  0  0  0  0  0  0  0  0  0  0  0
   24.6341  -29.8571   42.2397 H   0  0  0  0  0  0  0  0  0  0  0  0
   23.3846  -30.8545   41.2034 H   0  0  0  0  0  0  0  0  0  0  0  0
  1  2  2  0
  2  3  1  0
  3  4  2  0
  4  5  1  0
  5  6  2  0
  6  7  1  0
  7  8  1  0
  8  9  1  0
  9 10  2  0
 10 11  1  0
 11 12  2  0
 12 13  1  0
 13 14  1  0
 13 15  2  0
 15 16  1  0
 16 17  2  0
 16 18  1  0
 18 19  1  0
  6 20  1  0
 20 21  2  0
 21 22  1  0
 22 23  2  0
 21  3  1  0
 18  7  2  0
 15  9  1  0
  1 24  1  0
  1 25  1  0
  2 26  1  0
  4 27  1  0
  5 28  1  0
 10 29  1  0
 11 30  1  0
 12 31  1  0
 14 32  1  0
 19 33  1  0
 20 34  1  0
 22 35  1  0
 23 36  1  0
 23 37  1  0
M  END
>  <meeko>  (6) 
{"is_sidechain": [false], "free_energy": -8.55, "intermolecular_energy": -10.502, "internal_energy": -0.644}

$$$$
cand_048_out
     RDKit          3D

 37 39  0  0  0  0  0  0  0  0999 V2000
   20.7420  -31.0420   34.8550 C   0  0  0  0  0  0  0  0  0  0  0  0
   20.1670  -31.2530   36.0450 C   0  0  0  0  0  0  0  0  0  0  0  0
   20.6140  -30.6180   37.2980 C   0  0  0  0  0  0  0  0  0  0  0  0
   21.2680  -29.3760   37.2410 C   0  0  0  0  0  0  0  0  0  0  0  0
   21.6720  -28.7220   38.4090 C   0  0  0  0  0  0  0  0  0  0  0  0
   21.4250  -29.2840   39.6650 C   0  0  0  0  0  0  0  0  0  0  0  0
   21.8890  -28.5930   40.8850 C   0  0  0  0  0  0  0  0  0  0  0  0
   21.0500  -27.5530   41.2700 O   0  0  0  0  0  0  0  0  0  0  0  0
   21.3660  -26.8260   42.3890 C   0  0  0  0  0  0  0  0  0  0  0  0
   20.5050  -25.7820   42.7300 C   0  0  0  0  0  0  0  0  0  0  0  0
   20.7680  -25.0030   43.8580 C   0  0  0  0  0  0  0  0  0  0  0  0
   21.8890  -25.2680   44.6460 C   0  0  0  0  0  0  0  0  0  0  0  0
   22.7470  -26.3110   44.3040 C   0  0  0  0  0  0  0  0  0  0  0  0
   23.8250  -26.5160   45.1200 O   0  0  0  0  0  0  0  0  0  0  0  0
   22.4840  -27.0900   43.1740 C   0  0  0  0  0  0  0  0  0  0  0  0
   23.3590  -28.1940   42.7800 C   0  0  0  0  0  0  0  0  0  0  0  0
   24.3610  -28.4940   43.4250 O   0  0  0  0  0  0  0  0  0  0  0  0
   22.9960  -28.9530   41.5600 C   0  0  0  0  0  0  0  0  0  0  0  0
   23.8210  -30.0030   41.2030 O   0  0  0  0  0  0  0  0  0  0  0  0
   20.7720  -30.5250   39.7230 C   0  0  0  0  0  0  0  0  0  0  0  0
   20.3450  -31.1920   38.5590 C   0  0  0  0  0  0  0  0  0  0  0  0
   19.6910  -32.5080   38.6840 C   0  0  0  0  0  0  0  0  0  0  0  0
   18.9260  -32.8610   39.7250 C   0  0  0  0  0  0  0  0  0  0  0  0
   20.3554  -31.5505   33.9595 H   0  0  0  0  0  0  0  0  0  0  0  0
   21.6012  -30.3601   34.7725 H   0  0  0  0  0  0  0  0  0  0  0  0
   19.3100  -31.9411   36.0908 H   0  0  0  0  0  0  0  0  0  0  0  0
   21.4651  -28.9114   36.2636 H   0  0  0  0  0  0  0  0  0  0  0  0
   22.1901  -27.7542   38.3388 H   0  0  0  0  0  0  0  0  0  0  0  0
   19.6202  -25.5733   42.1107 H   0  0  0  0  0  0  0  0  0  0  0  0
   20.0906  -24.1789   44.1263 H   0  0  0  0  0  0  0  0  0  0  0  0
   22.0947  -24.6545   45.5355 H   0  0  0  0  0  0  0  0  0  0  0  0
   24.5890  -26.9460   44.7880 H   0  0  0  0  0  0  0  0  0  0  0  0
   23.8710  -30.7650   41.7460 H   0  0  0  0  0  0  0  0  0  0  0  0
   20.5890  -30.9886   40.7036 H   0  0  0  0  0  0  0  0  0  0  0  0
   19.8399  -33.2406   37.8770 H   0  0  0  0  0  0  0  0  0  0  0  0
   18.4667  -33.8600   39.7563 H   0  0  0  0  0  0  0  0  0  0  0  0
   18.7569  -32.1519   40.5488 H   0  0  0  0  0  0  0  0  0  0  0  0
  1  2  2  0
  2  3  1  0
  3  4  2  0
  4  5  1  0
  5  6  2  0
  6  7  1  0
  7  8  1  0
  8  9  1  0
  9 10  2  0
 10 11  1  0
 11 12  2  0
 12 13  1  0
 13 14  1  0
 13 15  2  0
 15 16  1  0
 16 17  2  0
 16 18  1  0
 18 19  1  0
  6 20  1  0
 20 21  2  0
 21 22  1  0
 22 23  2  0
 21  3  1  0
 18  7  2  0
 15  9  1  0
  1 24  1  0
  1 25  1  0
  2 26  1  0
  4 27  1  0
  5 28  1  0
 10 29  1  0
 11 30  1  0
 12 31  1  0
 14 32  1  0
 19 33  1  0
 20 34  1  0
 22 35  1  0
 23 36  1  0
 23 37  1  0
M  END
>  <meeko>  (7) 
{"is_sidechain": [false], "free_energy": -8.511, "intermolecular_energy": -10.496, "internal_energy": -0.603}

$$$$
cand_048_out
     RDKit          3D

 37 39  0  0  0  0  0  0  0  0999 V2000
   20.0050  -34.6770   34.4690 C   0  0  0  0  0  0  0  0  0  0  0  0
   19.1200  -34.0140   35.2240 C   0  0  0  0  0  0  0  0  0  0  0  0
   19.4910  -32.9890   36.2160 C   0  0  0  0  0  0  0  0  0  0  0  0
   20.0700  -31.7870   35.7760 C   0  0  0  0  0  0  0  0  0  0  0  0
   20.3990  -30.7730   36.6800 C   0  0  0  0  0  0  0  0  0  0  0  0
   20.1490  -30.9270   38.0470 C   0  0  0  0  0  0  0  0  0  0  0  0
   20.5350  -29.8570   38.9900 C   0  0  0  0  0  0  0  0  0  0  0  0
   21.6630  -30.1740   39.7370 O   0  0  0  0  0  0  0  0  0  0  0  0
   22.1290  -29.2660   40.6540 C   0  0  0  0  0  0  0  0  0  0  0  0
   23.2550  -29.6330   41.3930 C   0  0  0  0  0  0  0  0  0  0  0  0
   23.7810  -28.7540   42.3420 C   0  0  0  0  0  0  0  0  0  0  0  0
   23.1840  -27.5100   42.5510 C   0  0  0  0  0  0  0  0  0  0  0  0
   22.0600  -27.1470   41.8130 C   0  0  0  0  0  0  0  0  0  0  0  0
   21.5250  -25.9140   42.0680 O   0  0  0  0  0  0  0  0  0  0  0  0
   21.5330  -28.0270   40.8630 C   0  0  0  0  0  0  0  0  0  0  0  0
   20.3540  -27.6840   40.0670 C   0  0  0  0  0  0  0  0  0  0  0  0
   19.7760  -26.6060   40.1880 O   0  0  0  0  0  0  0  0  0  0  0  0
   19.8700  -28.6910   39.0930 C   0  0  0  0  0  0  0  0  0  0  0  0
   18.7640  -28.3530   38.3350 O   0  0  0  0  0  0  0  0  0  0  0  0
   19.5720  -32.1260   38.4890 C   0  0  0  0  0  0  0  0  0  0  0  0
   19.2200  -33.1530   37.5910 C   0  0  0  0  0  0  0  0  0  0  0  0
   18.6440  -34.4030   38.1200 C   0  0  0  0  0  0  0  0  0  0  0  0
   18.4480  -34.6370   39.4240 C   0  0  0  0  0  0  0  0  0  0  0  0
   19.6569  -35.4306   33.7473 H   0  0  0  0  0  0  0  0  0  0  0  0
   21.0802  -34.4681   34.5705 H   0  0  0  0  0  0  0  0  0  0  0  0
   18.0528  -34.2482   35.0963 H   0  0  0  0  0  0  0  0  0  0  0  0
   20.2674  -31.6416   34.7037 H   0  0  0  0  0  0  0  0  0  0  0  0
   20.8594  -29.8442   36.3121 H   0  0  0  0  0  0  0  0  0  0  0  0
   23.7270  -30.6128   41.2281 H   0  0  0  0  0  0  0  0  0  0  0  0
   24.6675  -29.0426   42.9259 H   0  0  0  0  0  0  0  0  0  0  0  0
   23.6004  -26.8174   43.2973 H   0  0  0  0  0  0  0  0  0  0  0  0
   21.8600  -25.3950   42.7720 H   0  0  0  0  0  0  0  0  0  0  0  0
   17.9340  -28.7490   38.5150 H   0  0  0  0  0  0  0  0  0  0  0  0
   19.3895  -32.2685   39.5644 H   0  0  0  0  0  0  0  0  0  0  0  0
   18.3593  -35.1874   37.4033 H   0  0  0  0  0  0  0  0  0  0  0  0
   18.0132  -35.5927   39.7520 H   0  0  0  0  0  0  0  0  0  0  0  0
   18.7218  -33.8735   40.1670 H   0  0  0  0  0  0  0  0  0  0  0  0
  1  2  2  0
  2  3  1  0
  3  4  2  0
  4  5  1  0
  5  6  2  0
  6  7  1  0
  7  8  1  0
  8  9  1  0
  9 10  2  0
 10 11  1  0
 11 12  2  0
 12 13  1  0
 13 14  1  0
 13 15  2  0
 15 16  1  0
 16 17  2  0
 16 18  1  0
 18 19  1  0
  6 20  1  0
 20 21  2  0
 21 22  1  0
 22 23  2  0
 21  3  1  0
 18  7  2  0
 15  9  1  0
  1 24  1  0
  1 25  1  0
  2 26  1  0
  4 27  1  0
  5 28  1  0
 10 29  1  0
 11 30  1  0
 12 31  1  0
 14 32  1  0
 19 33  1  0
 20 34  1  0
 22 35  1  0
 23 36  1  0
 23 37  1  0
M  END
>  <meeko>  (8) 
{"is_sidechain": [false], "free_energy": -8.127, "intermolecular_energy": -10.047, "internal_energy": -0.577}

$$$$
cand_048_out
     RDKit          3D

 37 39  0  0  0  0  0  0  0  0999 V2000
   18.2650  -33.6970   37.1310 C   0  0  0  0  0  0  0  0  0  0  0  0
   19.3550  -32.9840   36.8200 C   0  0  0  0  0  0  0  0  0  0  0  0
   19.8490  -31.8480   37.6190 C   0  0  0  0  0  0  0  0  0  0  0  0
   19.8330  -31.9370   39.0210 C   0  0  0  0  0  0  0  0  0  0  0  0
   20.3290  -30.8980   39.8130 C   0  0  0  0  0  0  0  0  0  0  0  0
   20.8660  -29.7470   39.2280 C   0  0  0  0  0  0  0  0  0  0  0  0
   21.3560  -28.6460   40.0840 C   0  0  0  0  0  0  0  0  0  0  0  0
   22.2900  -29.0660   41.0230 O   0  0  0  0  0  0  0  0  0  0  0  0
   22.8260  -28.1420   41.8840 C   0  0  0  0  0  0  0  0  0  0  0  0
   23.7480  -28.6100   42.8210 C   0  0  0  0  0  0  0  0  0  0  0  0
   24.3330  -27.7230   43.7260 C   0  0  0  0  0  0  0  0  0  0  0  0
   23.9980  -26.3680   43.6930 C   0  0  0  0  0  0  0  0  0  0  0  0
   23.0770  -25.9030   42.7570 C   0  0  0  0  0  0  0  0  0  0  0  0
   22.7950  -24.5660   42.7800 O   0  0  0  0  0  0  0  0  0  0  0  0
   22.4910  -26.7930   41.8520 C   0  0  0  0  0  0  0  0  0  0  0  0
   21.5200  -26.3460   40.8530 C   0  0  0  0  0  0  0  0  0  0  0  0
   21.1790  -25.1690   40.7560 O   0  0  0  0  0  0  0  0  0  0  0  0
   20.9510  -27.3700   39.9450 C   0  0  0  0  0  0  0  0  0  0  0  0
   20.0450  -26.9370   38.9960 O   0  0  0  0  0  0  0  0  0  0  0  0
   20.8830  -29.6560   37.8280 C   0  0  0  0  0  0  0  0  0  0  0  0
   20.4000  -30.6990   37.0140 C   0  0  0  0  0  0  0  0  0  0  0  0
   20.4180  -30.5310   35.5490 C   0  0  0  0  0  0  0  0  0  0  0  0
   19.9170  -29.4620   34.9170 C   0  0  0  0  0  0  0  0  0  0  0  0
   17.9532  -34.5336   36.4884 H   0  0  0  0  0  0  0  0  0  0  0  0
   17.6814  -33.4461   38.0290 H   0  0  0  0  0  0  0  0  0  0  0  0
   19.9147  -33.2624   35.9149 H   0  0  0  0  0  0  0  0  0  0  0  0
   19.4241  -32.8376   39.5023 H   0  0  0  0  0  0  0  0  0  0  0  0
   20.2966  -30.9866   40.9090 H   0  0  0  0  0  0  0  0  0  0  0  0
   24.0136  -29.6772   42.8464 H   0  0  0  0  0  0  0  0  0  0  0  0
   25.0586  -28.0918   44.4659 H   0  0  0  0  0  0  0  0  0  0  0  0
   24.4606  -25.6687   44.4050 H   0  0  0  0  0  0  0  0  0  0  0  0
   23.0090  -24.0280   42.0440 H   0  0  0  0  0  0  0  0  0  0  0  0
   20.3490  -26.6250   38.1660 H   0  0  0  0  0  0  0  0  0  0  0  0
   21.2835  -28.7475   37.3544 H   0  0  0  0  0  0  0  0  0  0  0  0
   20.8686  -31.3292   34.9408 H   0  0  0  0  0  0  0  0  0  0  0  0
   19.9631  -29.4001   33.8197 H   0  0  0  0  0  0  0  0  0  0  0  0
   19.4593  -28.6457   35.4951 H   0  0  0  0  0  0  0  0  0  0  0  0
  1  2  2  0
  2  3  1  0
  3  4  2  0
  4  5  1  0
  5  6  2  0
  6  7  1  0
  7  8  1  0
  8  9  1  0
  9 10  2  0
 10 11  1  0
 11 12  2  0
 12 13  1  0
 13 14  1  0
 13 15  2  0
 15 16  1  0
 16 17  2  0
 16 18  1  0
 18 19  1  0
  6 20  1  0
 20 21  2  0
 21 22  1  0
 22 23  2  0
 21  3  1  0
 18  7  2  0
 15  9  1  0
  1 24  1  0
  1 25  1  0
  2 26  1  0
  4 27  1  0
  5 28  1  0
 10 29  1  0
 11 30  1  0
 12 31  1  0
 14 32  1  0
 19 33  1  0
 20 34  1  0
 22 35  1  0
 23 36  1  0
 23 37  1  0
M  END
>  <meeko>  (9) 
{"is_sidechain": [false], "free_energy": -8.122, "intermolecular_energy": -10.228, "internal_energy": -0.39}

$$$$
