cand_004_out
     RDKit          3D

 38 40  0  0  0  0  0  0  0  0999 V2000
   24.7980  -30.8200   43.0210 C   0  0  0  0  0  0  0  0  0  0  0  0
   24.7870  -29.2980   43.0360 C   0  0  0  0  0  0  0  0  0  0  0  0
   23.5990  -28.7350   42.2860 C   0  0  0  0  0  0  0  0  0  0  0  0
   23.0140  -29.5290   41.2780 C   0  0  0  0  0  0  0  0  0  0  0  0
   21.9240  -29.0770   40.5190 C   0  0  0  0  0  0  0  0  0  0  0  0
   21.2990  -29.9190   39.4780 C   0  0  0  0  0  0  0  0  0  0  0  0
   20.4940  -30.9220   40.0060 O   0  0  0  0  0  0  0  0  0  0  0  0
   19.8520  -31.7770   39.1470 C   0  0  0  0  0  0  0  0  0  0  0  0
   19.0670  -32.7790   39.7200 C   0  0  0  0  0  0  0  0  0  0  0  0
   18.3840  -33.6820   38.9020 C   0  0  0  0  0  0  0  0  0  0  0  0
   18.4870  -33.5830   37.5120 C   0  0  0  0  0  0  0  0  0  0  0  0
   19.2710  -32.5830   36.9440 C   0  0  0  0  0  0  0  0  0  0  0  0
   19.3260  -32.5440   35.5770 O   0  0  0  0  0  0  0  0  0  0  0  0
   19.9540  -31.6800   37.7620 C   0  0  0  0  0  0  0  0  0  0  0  0
   20.7880  -30.6150   37.2060 C   0  0  0  0  0  0  0  0  0  0  0  0
   20.9230  -30.4590   35.9930 O   0  0  0  0  0  0  0  0  0  0  0  0
   21.4760  -29.7150   38.1590 C   0  0  0  0  0  0  0  0  0  0  0  0
   22.2520  -28.7030   37.6240 O   0  0  0  0  0  0  0  0  0  0  0  0
   21.4060  -27.8080   40.7940 C   0  0  0  0  0  0  0  0  0  0  0  0
   21.9740  -27.0060   41.7890 C   0  0  0  0  0  0  0  0  0  0  0  0
   23.0760  -27.4490   42.5420 C   0  0  0  0  0  0  0  0  0  0  0  0
   23.6490  -26.5400   43.6100 C   0  0  0  0  0  0  0  0  0  0  0  0
   23.6510  -27.1070   44.8480 F   0  0  0  0  0  0  0  0  0  0  0  0
   22.9540  -25.3740   43.7300 F   0  0  0  0  0  0  0  0  0  0  0  0
   24.9410  -26.1740   43.3760 F   0  0  0  0  0  0  0  0  0  0  0  0
   24.8007  -31.1969   44.0544 H   0  0  0  0  0  0  0  0  0  0  0  0
   23.9025  -31.1880   42.4989 H   0  0  0  0  0  0  0  0  0  0  0  0
   25.6987  -31.1750   42.4989 H   0  0  0  0  0  0  0  0  0  0  0  0
   24.7448  -28.9529   44.0796 H   0  0  0  0  0  0  0  0  0  0  0  0
   25.7026  -28.9455   42.5386 H   0  0  0  0  0  0  0  0  0  0  0  0
   23.4237  -30.5307   41.0813 H   0  0  0  0  0  0  0  0  0  0  0  0
   18.9864  -32.8574   40.8142 H   0  0  0  0  0  0  0  0  0  0  0  0
   17.7646  -34.4716   39.3524 H   0  0  0  0  0  0  0  0  0  0  0  0
   17.9494  -34.2942   36.8677 H   0  0  0  0  0  0  0  0  0  0  0  0
   19.5310  -33.3200   35.0940 H   0  0  0  0  0  0  0  0  0  0  0  0
   22.5150  -28.7400   36.7250 H   0  0  0  0  0  0  0  0  0  0  0  0
   20.5430  -27.4365   40.2220 H   0  0  0  0  0  0  0  0  0  0  0  0
   21.5508  -26.0100   41.9863 H   0  0  0  0  0  0  0  0  0  0  0  0
  1  2  1  0
  2  3  1  0
  3  4  2  0
  4  5  1  0
  5  6  1  0
  6  7  1  0
  7  8  1  0
  8  9  2  0
  9 10  1  0
 10 11  2  0
 11 12  1  0
 12 13  1  0
 12 14  2  0
 14 15  1  0
 15 16  2  0
 15 17  1  0
 17 18  1  0
  5 19  2  0
 19 20  1  0
 20 21  2  0
 21 22  1  0
 22 23  1  0
 22 24  1  0
 22 25  1  0
 21  3  1  0
 17  6  2  0
 14  8  1  0
  1 26  1  0
  1 27  1  0
  1 28  1  0
  2 29  1  0
  2 30  1  0
  4 31  1  0
  9 32  1  0
 10 33  1  0
 11 34  1  0
 13 35  1  0
 18 36  1  0
 19 37  1  0
 20 38  1  0
M  END
>  <meeko>  (1) 
{"is_sidechain": [false], "free_energy": -9.891, "intermolecular_energy": -12.204, "internal_energy": -0.604}

$$$$
cand_004_out
     RDKit          3D

 38 40  0  0  0  0  0  0  0  0999 V2000
   19.7420  -26.4120   42.4280 C   0  0  0  0  0  0  0  0  0  0  0  0
   21.2390  -26.2120   42.2440 C   0  0  0  0  0  0  0  0  0  0  0  0
   21.9280  -27.4840   41.7990 C   0  0  0  0  0  0  0  0  0  0  0  0
   21.3260  -28.2400   40.7710 C   0  0  0  0  0  0  0  0  0  0  0  0
   21.8830  -29.4420   40.3120 C   0  0  0  0  0  0  0  0  0  0  0  0
   21.2630  -30.2200   39.2200 C   0  0  0  0  0  0  0  0  0  0  0  0
   20.4860  -31.2760   39.6830 O   0  0  0  0  0  0  0  0  0  0  0  0
   19.8510  -32.0810   38.7720 C   0  0  0  0  0  0  0  0  0  0  0  0
   19.0950  -33.1390   39.2800 C   0  0  0  0  0  0  0  0  0  0  0  0
   18.4210  -33.9960   38.4070 C   0  0  0  0  0  0  0  0  0  0  0  0
   18.5040  -33.7950   37.0270 C   0  0  0  0  0  0  0  0  0  0  0  0
   19.2600  -32.7400   36.5230 C   0  0  0  0  0  0  0  0  0  0  0  0
   19.2970  -32.6020   35.1630 O   0  0  0  0  0  0  0  0  0  0  0  0
   19.9330  -31.8830   37.3970 C   0  0  0  0  0  0  0  0  0  0  0  0
   20.7390  -30.7630   36.9100 C   0  0  0  0  0  0  0  0  0  0  0  0
   20.8550  -30.5170   35.7100 O   0  0  0  0  0  0  0  0  0  0  0  0
   21.4200  -29.9190   37.9170 C   0  0  0  0  0  0  0  0  0  0  0  0
   22.1660  -28.8540   37.4480 O   0  0  0  0  0  0  0  0  0  0  0  0
   23.0780  -29.8810   40.8910 C   0  0  0  0  0  0  0  0  0  0  0  0
   23.6890  -29.1480   41.9120 C   0  0  0  0  0  0  0  0  0  0  0  0
   23.1250  -27.9490   42.3850 C   0  0  0  0  0  0  0  0  0  0  0  0
   23.8310  -27.1920   43.4910 C   0  0  0  0  0  0  0  0  0  0  0  0
   24.2280  -25.9440   43.1150 F   0  0  0  0  0  0  0  0  0  0  0  0
   24.9540  -27.8300   43.9250 F   0  0  0  0  0  0  0  0  0  0  0  0
   23.0620  -27.0090   44.6020 F   0  0  0  0  0  0  0  0  0  0  0  0
   19.5056  -26.4436   43.5018 H   0  0  0  0  0  0  0  0  0  0  0  0
   19.2001  -25.5783   41.9576 H   0  0  0  0  0  0  0  0  0  0  0  0
   19.4380  -27.3587   41.9576 H   0  0  0  0  0  0  0  0  0  0  0  0
   21.4030  -25.4341   41.4838 H   0  0  0  0  0  0  0  0  0  0  0  0
   21.6649  -25.9150   43.2137 H   0  0  0  0  0  0  0  0  0  0  0  0
   20.3928  -27.8759   40.3166 H   0  0  0  0  0  0  0  0  0  0  0  0
   19.0302  -33.2975   40.3666 H   0  0  0  0  0  0  0  0  0  0  0  0
   17.8246  -34.8296   38.8062 H   0  0  0  0  0  0  0  0  0  0  0  0
   17.9727  -34.4695   36.3394 H   0  0  0  0  0  0  0  0  0  0  0  0
   18.5270  -32.3420   34.6970 H   0  0  0  0  0  0  0  0  0  0  0  0
   22.2000  -28.0540   37.9350 H   0  0  0  0  0  0  0  0  0  0  0  0
   23.5423  -30.8139   40.5387 H   0  0  0  0  0  0  0  0  0  0  0  0
   24.6273  -29.5149   42.3536 H   0  0  0  0  0  0  0  0  0  0  0  0
  1  2  1  0
  2  3  1  0
  3  4  2  0
  4  5  1  0
  5  6  1  0
  6  7  1  0
  7  8  1  0
  8  9  2  0
  9 10  1  0
 10 11  2  0
 11 12  1  0
 12 13  1  0
 12 14  2  0
 14 15  1  0
 15 16  2  0
 15 17  1  0
 17 18  1  0
  5 19  2  0
 19 20  1  0
 20 21  2  0
 21 22  1  0
 22 23  1  0
 22 24  1  0
 22 25  1  0
 21  3  1  0
 17  6  2  0
 14  8  1  0
  1 26  1  0
  1 27  1  0
  1 28  1  0
  2 29  1  0
  2 30  1  0
  4 31  1  0
  9 32  1  0
 10 33  1  0
 11 34  1  0
 13 35  1  0
 18 36  1  0
 19 37  1  0
 20 38  1  0
M  END
>  <meeko>  (2) 
{"is_sidechain": [false], "free_energy": -9.826, "intermolecular_energy": -12.065, "internal_energy": -0.663}

$$$$
cand_004_out
     RDKit          3D

 38 40  0  0  0  0  0  0  0  0999 V2000
   24.2470  -29.7840   42.5030 C   0  0  0  0  0  0  0  0  0  0  0  0
   23.7370  -28.3620   42.6910 C   0  0  0  0  0  0  0  0  0  0  0  0
   22.6450  -28.0180   41.7010 C   0  0  0  0  0  0  0  0  0  0  0  0
   22.1870  -29.0370   40.8390 C   0  0  0  0  0  0  0  0  0  0  0  0
   21.1940  -28.8000   39.8760 C   0  0  0  0  0  0  0  0  0  0  0  0
   20.7000  -29.8730   38.9890 C   0  0  0  0  0  0  0  0  0  0  0  0
   20.0270  -30.8760   39.6770 O   0  0  0  0  0  0  0  0  0  0  0  0
   19.5140  -31.9350   38.9720 C   0  0  0  0  0  0  0  0  0  0  0  0
   18.8590  -32.9270   39.7050 C   0  0  0  0  0  0  0  0  0  0  0  0
   18.3130  -34.0310   39.0480 C   0  0  0  0  0  0  0  0  0  0  0  0
   18.4220  -34.1450   37.6600 C   0  0  0  0  0  0  0  0  0  0  0  0
   19.0760  -33.1550   36.9320 C   0  0  0  0  0  0  0  0  0  0  0  0
   19.1450  -33.3290   35.5770 O   0  0  0  0  0  0  0  0  0  0  0  0
   19.6220  -32.0500   37.5890 C   0  0  0  0  0  0  0  0  0  0  0  0
   20.3180  -30.9870   36.8620 C   0  0  0  0  0  0  0  0  0  0  0  0
   20.4490  -31.0120   35.6400 O   0  0  0  0  0  0  0  0  0  0  0  0
   20.8680  -29.8630   37.6530 C   0  0  0  0  0  0  0  0  0  0  0  0
   21.5120  -28.8570   36.9560 O   0  0  0  0  0  0  0  0  0  0  0  0
   20.6440  -27.5180   39.7930 C   0  0  0  0  0  0  0  0  0  0  0  0
   21.0860  -26.4950   40.6380 C   0  0  0  0  0  0  0  0  0  0  0  0
   22.0920  -26.7240   41.5940 C   0  0  0  0  0  0  0  0  0  0  0  0
   22.5300  -25.5810   42.4860 C   0  0  0  0  0  0  0  0  0  0  0  0
   21.9460  -24.3950   42.1610 F   0  0  0  0  0  0  0  0  0  0  0  0
   23.8750  -25.3650   42.4350 F   0  0  0  0  0  0  0  0  0  0  0  0
   22.2420  -25.7790   43.8040 F   0  0  0  0  0  0  0  0  0  0  0  0
   24.4131  -30.2471   43.4869 H   0  0  0  0  0  0  0  0  0  0  0  0
   23.5028  -30.3694   41.9431 H   0  0  0  0  0  0  0  0  0  0  0  0
   25.1936  -29.7630   41.9431 H   0  0  0  0  0  0  0  0  0  0  0  0
   23.3376  -28.2595   43.7108 H   0  0  0  0  0  0  0  0  0  0  0  0
   24.5782  -27.6734   42.5232 H   0  0  0  0  0  0  0  0  0  0  0  0
   22.6201  -30.0446   40.9242 H   0  0  0  0  0  0  0  0  0  0  0  0
   18.7735  -32.8385   40.7981 H   0  0  0  0  0  0  0  0  0  0  0  0
   17.7960  -34.8125   39.6242 H   0  0  0  0  0  0  0  0  0  0  0  0
   17.9918  -35.0155   37.1432 H   0  0  0  0  0  0  0  0  0  0  0  0
   19.2620  -32.5890   35.0150 H   0  0  0  0  0  0  0  0  0  0  0  0
   22.2340  -28.4040   37.3460 H   0  0  0  0  0  0  0  0  0  0  0  0
   19.8549  -27.3113   39.0551 H   0  0  0  0  0  0  0  0  0  0  0  0
   20.6390  -25.4935   40.5535 H   0  0  0  0  0  0  0  0  0  0  0  0
  1  2  1  0
  2  3  1  0
  3  4  2  0
  4  5  1  0
  5  6  1  0
  6  7  1  0
  7  8  1  0
  8  9  2  0
  9 10  1  0
 10 11  2  0
 11 12  1  0
 12 13  1  0
 12 14  2  0
 14 15  1  0
 15 16  2  0
 15 17  1  0
 17 18  1  0
  5 19  2  0
 19 20  1  0
 20 21  2  0
 21 22  1  0
 22 23  1  0
 22 24  1  0
 22 25  1  0
 21  3  1  0
 17  6  2  0
 14  8  1  0
  1 26  1  0
  1 27  1  0
  1 28  1  0
  2 29  1  0
  2 30  1  0
  4 31  1  0
  9 32  1  0
 10 33  1  0
 11 34  1  0
 13 35  1  0
 18 36  1  0
 19 37  1  0
 20 38  1  0
M  END
>  <meeko>  (3) 
{"is_sidechain": [false], "free_energy": -9.462, "intermolecular_energy": -11.768, "internal_energy": -0.51}

$$$$
cand_004_out
     RDKit          3D

 38 40  0  0  0  0  0  0  0  0999 V2000
   19.4040  -25.6200   39.8120 C   0  0  0  0  0  0  0  0  0  0  0  0
   19.3820  -26.7570   40.8230 C   0  0  0  0  0  0  0  0  0  0  0  0
   20.3640  -27.8510   40.4630 C   0  0  0  0  0  0  0  0  0  0  0  0
   19.9520  -28.8360   39.5410 C   0  0  0  0  0  0  0  0  0  0  0  0
   20.7890  -29.8970   39.1690 C   0  0  0  0  0  0  0  0  0  0  0  0
   20.3630  -30.9160   38.1860 C   0  0  0  0  0  0  0  0  0  0  0  0
   20.7590  -30.6130   36.8890 O   0  0  0  0  0  0  0  0  0  0  0  0
   20.4280  -31.4780   35.8760 C   0  0  0  0  0  0  0  0  0  0  0  0
   20.8310  -31.1270   34.5870 C   0  0  0  0  0  0  0  0  0  0  0  0
   20.5290  -31.9640   33.5100 C   0  0  0  0  0  0  0  0  0  0  0  0
   19.8230  -33.1510   33.7240 C   0  0  0  0  0  0  0  0  0  0  0  0
   19.4220  -33.4970   35.0110 C   0  0  0  0  0  0  0  0  0  0  0  0
   18.7350  -34.6730   35.1470 O   0  0  0  0  0  0  0  0  0  0  0  0
   19.7240  -32.6600   36.0870 C   0  0  0  0  0  0  0  0  0  0  0  0
   19.3210  -32.9870   37.4560 C   0  0  0  0  0  0  0  0  0  0  0  0
   18.7040  -34.0160   37.7250 O   0  0  0  0  0  0  0  0  0  0  0  0
   19.6840  -32.0280   38.5240 C   0  0  0  0  0  0  0  0  0  0  0  0
   19.3120  -32.3530   39.8150 O   0  0  0  0  0  0  0  0  0  0  0  0
   22.0710  -29.9570   39.7240 C   0  0  0  0  0  0  0  0  0  0  0  0
   22.4970  -28.9910   40.6400 C   0  0  0  0  0  0  0  0  0  0  0  0
   21.6550  -27.9330   41.0280 C   0  0  0  0  0  0  0  0  0  0  0  0
   22.1700  -26.9120   42.0220 C   0  0  0  0  0  0  0  0  0  0  0  0
   22.2750  -25.6610   41.4960 F   0  0  0  0  0  0  0  0  0  0  0  0
   23.4060  -27.2260   42.5000 F   0  0  0  0  0  0  0  0  0  0  0  0
   21.3760  -26.7770   43.1230 F   0  0  0  0  0  0  0  0  0  0  0  0
   19.4226  -24.6571   40.3435 H   0  0  0  0  0  0  0  0  0  0  0  0
   20.3006  -25.7079   39.1808 H   0  0  0  0  0  0  0  0  0  0  0  0
   18.5047  -25.6731   39.1808 H   0  0  0  0  0  0  0  0  0  0  0  0
   19.6428  -26.3569   41.8139 H   0  0  0  0  0  0  0  0  0  0  0  0
   18.3719  -27.1924   40.8246 H   0  0  0  0  0  0  0  0  0  0  0  0
   18.9457  -28.7696   39.1017 H   0  0  0  0  0  0  0  0  0  0  0  0
   21.3859  -30.1922   34.4191 H   0  0  0  0  0  0  0  0  0  0  0  0
   20.8469  -31.6888   32.4935 H   0  0  0  0  0  0  0  0  0  0  0  0
   19.5847  -33.8107   32.8766 H   0  0  0  0  0  0  0  0  0  0  0  0
   17.8880  -34.7680   34.7610 H   0  0  0  0  0  0  0  0  0  0  0  0
   19.7000  -33.0900   40.2450 H   0  0  0  0  0  0  0  0  0  0  0  0
   22.7510  -30.7725   39.4369 H   0  0  0  0  0  0  0  0  0  0  0  0
   23.5092  -29.0593   41.0653 H   0  0  0  0  0  0  0  0  0  0  0  0
  1  2  1  0
  2  3  1  0
  3  4  2  0
  4  5  1  0
  5  6  1  0
  6  7  1  0
  7  8  1  0
  8  9  2  0
  9 10  1  0
 10 11  2  0
 11 12  1  0
 12 13  1  0
 12 14  2  0
 14 15  1  0
 15 16  2  0
 15 17  1  0
 17 18  1  0
  5 19  2  0
 19 20  1  0
 20 21  2  0
 21 22  1  0
 22 23  1  0
 22 24  1  0
 22 25  1  0
 21  3  1  0
 17  6  2  0
 14  8  1  0
  1 26  1  0
  1 27  1  0
  1 28  1  0
  2 29  1  0
  2 30  1  0
  4 31  1  0
  9 32  1  0
 10 33  1  0
 11 34  1  0
 13 35  1  0
 18 36  1  0
 19 37  1  0
 20 38  1  0
M  END
>  <meeko>  (4) 
{"is_sidechain": [false], "free_energy": -8.935, "intermolecular_energy": -10.902, "internal_energy": -0.725}

$$$$
cand_004_out
     RDKit          3D

 38 40  0  0  0  0  0  0  0  0999 V2000
   23.4170  -29.8140   41.2160 C   0  0  0  0  0  0  0  0  0  0  0  0
   22.6490  -28.5000   41.2640 C   0  0  0  0  0  0  0  0  0  0  0  0
   21.3570  -28.5720   40.4790 C   0  0  0  0  0  0  0  0  0  0  0  0
   21.1650  -29.6720   39.6170 C   0  0  0  0  0  0  0  0  0  0  0  0
   20.0080  -29.8060   38.8350 C   0  0  0  0  0  0  0  0  0  0  0  0
   19.7990  -30.9700   37.9500 C   0  0  0  0  0  0  0  0  0  0  0  0
   20.2180  -30.7380   36.6450 O   0  0  0  0  0  0  0  0  0  0  0  0
   20.0810  -31.7390   35.7170 C   0  0  0  0  0  0  0  0  0  0  0  0
   20.5010  -31.4580   34.4160 C   0  0  0  0  0  0  0  0  0  0  0  0
   20.3900  -32.4350   33.4220 C   0  0  0  0  0  0  0  0  0  0  0  0
   19.8610  -33.6900   33.7310 C   0  0  0  0  0  0  0  0  0  0  0  0
   19.4430  -33.9670   35.0290 C   0  0  0  0  0  0  0  0  0  0  0  0
   18.9360  -35.2160   35.2610 O   0  0  0  0  0  0  0  0  0  0  0  0
   19.5540  -32.9910   36.0220 C   0  0  0  0  0  0  0  0  0  0  0  0
   19.1260  -33.2400   37.4000 C   0  0  0  0  0  0  0  0  0  0  0  0
   18.6570  -34.3220   37.7500 O   0  0  0  0  0  0  0  0  0  0  0  0
   19.2780  -32.1370   38.3750 C   0  0  0  0  0  0  0  0  0  0  0  0
   18.8840  -32.3870   39.6760 O   0  0  0  0  0  0  0  0  0  0  0  0
   19.0210  -28.8210   38.9380 C   0  0  0  0  0  0  0  0  0  0  0  0
   19.1950  -27.7230   39.7850 C   0  0  0  0  0  0  0  0  0  0  0  0
   20.3600  -27.5760   40.5590 C   0  0  0  0  0  0  0  0  0  0  0  0
   20.4940  -26.3680   41.4640 C   0  0  0  0  0  0  0  0  0  0  0  0
   20.5450  -26.6930   42.7850 F   0  0  0  0  0  0  0  0  0  0  0  0
   19.4540  -25.4980   41.3290 F   0  0  0  0  0  0  0  0  0  0  0  0
   21.6180  -25.6340   41.2270 F   0  0  0  0  0  0  0  0  0  0  0  0
   23.6184  -30.1586   42.2410 H   0  0  0  0  0  0  0  0  0  0  0  0
   22.8183  -30.5695   40.6862 H   0  0  0  0  0  0  0  0  0  0  0  0
   24.3691  -29.6631   40.6862 H   0  0  0  0  0  0  0  0  0  0  0  0
   22.4153  -28.2629   42.3124 H   0  0  0  0  0  0  0  0  0  0  0  0
   23.2794  -27.7202   40.8119 H   0  0  0  0  0  0  0  0  0  0  0  0
   21.9441  -30.4462   39.5563 H   0  0  0  0  0  0  0  0  0  0  0  0
   20.9186  -30.4697   34.1731 H   0  0  0  0  0  0  0  0  0  0  0  0
   20.7196  -32.2150   32.3959 H   0  0  0  0  0  0  0  0  0  0  0  0
   19.7748  -34.4588   32.9490 H   0  0  0  0  0  0  0  0  0  0  0  0
   18.4060  -35.6350   34.6120 H   0  0  0  0  0  0  0  0  0  0  0  0
   17.9930  -32.6100   39.8620 H   0  0  0  0  0  0  0  0  0  0  0  0
   18.0981  -28.9112   38.3463 H   0  0  0  0  0  0  0  0  0  0  0  0
   18.4058  -26.9593   39.8474 H   0  0  0  0  0  0  0  0  0  0  0  0
  1  2  1  0
  2  3  1  0
  3  4  2  0
  4  5  1  0
  5  6  1  0
  6  7  1  0
  7  8  1  0
  8  9  2  0
  9 10  1  0
 10 11  2  0
 11 12  1  0
 12 13  1  0
 12 14  2  0
 14 15  1  0
 15 16  2  0
 15 17  1  0
 17 18  1  0
  5 19  2  0
 19 20  1  0
 20 21  2  0
 21 22  1  0
 22 23  1  0
 22 24  1  0
 22 25  1  0
 21  3  1  0
 17  6  2  0
 14  8  1  0
  1 26  1  0
  1 27  1  0
  1 28  1  0
  2 29  1  0
  2 30  1  0
  4 31  1  0
  9 32  1  0
 10 33  1  0
 11 34  1  0
 13 35  1  0
 18 36  1  0
 19 37  1  0
 20 38  1  0
M  END
>  <meeko>  (5) 
{"is_sidechain": [false], "free_energy": -8.899, "intermolecular_energy": -10.95, "internal_energy": -0.634}

$$$$
cand_004_out
     RDKit          3D

 38 40  0  0  0  0  0  0  0  0999 V2000
   19.1800  -32.7250   39.5690 C   0  0  0  0  0  0  0  0  0  0  0  0
   19.3390  -32.2120   38.1450 C   0  0  0  0  0  0  0  0  0  0  0  0
   20.3160  -31.0590   38.0660 C   0  0  0  0  0  0  0  0  0  0  0  0
   20.8100  -30.5240   39.2750 C   0  0  0  0  0  0  0  0  0  0  0  0
   21.7010  -29.4410   39.2950 C   0  0  0  0  0  0  0  0  0  0  0  0
   22.2330  -28.8960   40.5610 C   0  0  0  0  0  0  0  0  0  0  0  0
   23.1930  -29.7180   41.1410 O   0  0  0  0  0  0  0  0  0  0  0  0
   23.7710  -29.3290   42.3230 C   0  0  0  0  0  0  0  0  0  0  0  0
   24.7180  -30.1920   42.8790 C   0  0  0  0  0  0  0  0  0  0  0  0
   25.3460  -29.8550   44.0800 C   0  0  0  0  0  0  0  0  0  0  0  0
   25.0270  -28.6580   44.7250 C   0  0  0  0  0  0  0  0  0  0  0  0
   24.0820  -27.8000   44.1690 C   0  0  0  0  0  0  0  0  0  0  0  0
   23.8190  -26.6450   44.8530 O   0  0  0  0  0  0  0  0  0  0  0  0
   23.4540  -28.1370   42.9670 C   0  0  0  0  0  0  0  0  0  0  0  0
   22.4550  -27.2640   42.3490 C   0  0  0  0  0  0  0  0  0  0  0  0
   22.1260  -26.1910   42.8520 O   0  0  0  0  0  0  0  0  0  0  0  0
   21.8420  -27.7170   41.0790 C   0  0  0  0  0  0  0  0  0  0  0  0
   20.9100  -26.8790   40.4950 O   0  0  0  0  0  0  0  0  0  0  0  0
   22.1140  -28.8990   38.0740 C   0  0  0  0  0  0  0  0  0  0  0  0
   21.6340  -29.4150   36.8660 C   0  0  0  0  0  0  0  0  0  0  0  0
   20.7290  -30.4910   36.8420 C   0  0  0  0  0  0  0  0  0  0  0  0
   20.2440  -31.0130   35.5040 C   0  0  0  0  0  0  0  0  0  0  0  0
   19.6460  -32.2320   35.5910 F   0  0  0  0  0  0  0  0  0  0  0  0
   21.2560  -31.1520   34.6020 F   0  0  0  0  0  0  0  0  0  0  0  0
   19.3280  -30.2000   34.9040 F   0  0  0  0  0  0  0  0  0  0  0  0
   19.4290  -31.9217   40.2781 H   0  0  0  0  0  0  0  0  0  0  0  0
   18.1402  -33.0461   39.7291 H   0  0  0  0  0  0  0  0  0  0  0  0
   19.8559  -33.5779   39.7291 H   0  0  0  0  0  0  0  0  0  0  0  0
   19.7052  -33.0324   37.5103 H   0  0  0  0  0  0  0  0  0  0  0  0
   18.3582  -31.8518   37.8011 H   0  0  0  0  0  0  0  0  0  0  0  0
   20.4873  -30.9687   40.2279 H   0  0  0  0  0  0  0  0  0  0  0  0
   24.9687  -31.1354   42.3719 H   0  0  0  0  0  0  0  0  0  0  0  0
   26.0928  -30.5332   44.5185 H   0  0  0  0  0  0  0  0  0  0  0  0
   25.5218  -28.3935   45.6711 H   0  0  0  0  0  0  0  0  0  0  0  0
   23.5260  -25.8840   44.3920 H   0  0  0  0  0  0  0  0  0  0  0  0
   20.6480  -26.0920   40.9320 H   0  0  0  0  0  0  0  0  0  0  0  0
   22.8235  -28.0584   38.0635 H   0  0  0  0  0  0  0  0  0  0  0  0
   21.9705  -28.9711   35.9175 H   0  0  0  0  0  0  0  0  0  0  0  0
  1  2  1  0
  2  3  1  0
  3  4  2  0
  4  5  1  0
  5  6  1  0
  6  7  1  0
  7  8  1  0
  8  9  2  0
  9 10  1  0
 10 11  2  0
 11 12  1  0
 12 13  1  0
 12 14  2  0
 14 15  1  0
 15 16  2  0
 15 17  1  0
 17 18  1  0
  5 19  2  0
 19 20  1  0
 20 21  2  0
 21 22  1  0
 22 23  1  0
 22 24  1  0
 22 25  1  0
 21  3  1  0
 17  6  2  0
 14  8  1  0
  1 26  1  0
  1 27  1  0
  1 28  1  0
  2 29  1  0
  2 30  1  0
  4 31  1  0
  9 32  1  0
 10 33  1  0
 11 34  1  0
 13 35  1  0
 18 36  1  0
 19 37  1  0
 20 38  1  0
M  END
>  <meeko>  (6) 
{"is_sidechain": [false], "free_energy": -8.757, "intermolecular_energy": -11.255, "internal_energy": -0.153}

$$$$
cand_004_out
     RDKit          3D

 38 40  0  0  0  0  0  0  0  0999 V2000
   19.2970  -32.7120   39.7670 C   0  0  0  0  0  0  0  0  0  0  0  0
   19.2080  -31.9050   38.4800 C   0  0  0  0  0  0  0  0  0  0  0  0
   20.2660  -30.8250   38.4160 C   0  0  0  0  0  0  0  0  0  0  0  0
   20.6630  -30.2140   39.6240 C   0  0  0  0  0  0  0  0  0  0  0  0
   21.6200  -29.1890   39.6550 C   0  0  0  0  0  0  0  0  0  0  0  0
   22.0510  -28.5650   40.9230 C   0  0  0  0  0  0  0  0  0  0  0  0
   21.2600  -27.4820   41.2880 O   0  0  0  0  0  0  0  0  0  0  0  0
   21.5500  -26.8100   42.4480 C   0  0  0  0  0  0  0  0  0  0  0  0
   20.7400  -25.7190   42.7670 C   0  0  0  0  0  0  0  0  0  0  0  0
   20.9800  -24.9920   43.9360 C   0  0  0  0  0  0  0  0  0  0  0  0
   22.0300  -25.3550   44.7830 C   0  0  0  0  0  0  0  0  0  0  0  0
   22.8360  -26.4440   44.4610 C   0  0  0  0  0  0  0  0  0  0  0  0
   23.8450  -26.7440   45.3350 O   0  0  0  0  0  0  0  0  0  0  0  0
   22.5960  -27.1700   43.2930 C   0  0  0  0  0  0  0  0  0  0  0  0
   23.4200  -28.3200   42.9170 C   0  0  0  0  0  0  0  0  0  0  0  0
   24.3570  -28.7060   43.6140 O   0  0  0  0  0  0  0  0  0  0  0  0
   23.0870  -29.0180   41.6540 C   0  0  0  0  0  0  0  0  0  0  0  0
   23.8620  -30.1120   41.3150 O   0  0  0  0  0  0  0  0  0  0  0  0
   22.1990  -28.7860   38.4470 C   0  0  0  0  0  0  0  0  0  0  0  0
   21.8170  -29.3790   37.2400 C   0  0  0  0  0  0  0  0  0  0  0  0
   20.8470  -30.3970   37.2030 C   0  0  0  0  0  0  0  0  0  0  0  0
   20.4740  -31.0070   35.8670 C   0  0  0  0  0  0  0  0  0  0  0  0
   21.5050  -31.0170   34.9790 F   0  0  0  0  0  0  0  0  0  0  0  0
   19.4550  -30.3410   35.2560 F   0  0  0  0  0  0  0  0  0  0  0  0
   20.0600  -32.3030   35.9590 F   0  0  0  0  0  0  0  0  0  0  0  0
   19.2223  -32.0346   40.6304 H   0  0  0  0  0  0  0  0  0  0  0  0
   18.4738  -33.4408   39.8004 H   0  0  0  0  0  0  0  0  0  0  0  0
   20.2593  -33.2439   39.8004 H   0  0  0  0  0  0  0  0  0  0  0  0
   19.3409  -32.5839   37.6248 H   0  0  0  0  0  0  0  0  0  0  0  0
   18.2221  -31.4181   38.4508 H   0  0  0  0  0  0  0  0  0  0  0  0
   20.2094  -30.5508   40.5679 H   0  0  0  0  0  0  0  0  0  0  0  0
   19.9142  -25.4320   42.0994 H   0  0  0  0  0  0  0  0  0  0  0  0
   20.3415  -24.1330   44.1896 H   0  0  0  0  0  0  0  0  0  0  0  0
   22.2197  -24.7817   45.7025 H   0  0  0  0  0  0  0  0  0  0  0  0
   23.6850  -27.3230   46.0540 H   0  0  0  0  0  0  0  0  0  0  0  0
   24.7420  -30.1780   41.6300 H   0  0  0  0  0  0  0  0  0  0  0  0
   22.9627  -27.9943   38.4468 H   0  0  0  0  0  0  0  0  0  0  0  0
   22.2835  -29.0434   36.3021 H   0  0  0  0  0  0  0  0  0  0  0  0
  1  2  1  0
  2  3  1  0
  3  4  2  0
  4  5  1  0
  5  6  1  0
  6  7  1  0
  7  8  1  0
  8  9  2  0
  9 10  1  0
 10 11  2  0
 11 12  1  0
 12 13  1  0
 12 14  2  0
 14 15  1  0
 15 16  2  0
 15 17  1  0
 17 18  1  0
  5 19  2  0
 19 20  1  0
 20 21  2  0
 21 22  1  0
 22 23  1  0
 22 24  1  0
 22 25  1  0
 21  3  1  0
 17  6  2  0
 14  8  1  0
  1 26  1  0
  1 27  1  0
  1 28  1  0
  2 29  1  0
  2 30  1  0
  4 31  1  0
  9 32  1  0
 10 33  1  0
 11 34  1  0
 13 35  1  0
 18 36  1  0
 19 37  1  0
 20 38  1  0
M  END
>  <meeko>  (7) 
{"is_sidechain": [false], "free_energy": -8.68, "intermolecular_energy": -10.937, "internal_energy": -0.377}

$$$$
cand_004_out
     RDKit          3D

 38 40  0  0  0  0  0  0  0  0999 V2000
   24.1630  -25.8790   43.6860 C   0  0  0  0  0  0  0  0  0  0  0  0
   23.0510  -26.9100   43.8120 C   0  0  0  0  0  0  0  0  0  0  0  0
   23.1180  -27.9500   42.7150 C   0  0  0  0  0  0  0  0  0  0  0  0
   22.4090  -27.7000   41.5210 C   0  0  0  0  0  0  0  0  0  0  0  0
   22.3970  -28.6190   40.4620 C   0  0  0  0  0  0  0  0  0  0  0  0
   21.6710  -28.3470   39.2040 C   0  0  0  0  0  0  0  0  0  0  0  0
   21.5740  -29.4640   38.3830 O   0  0  0  0  0  0  0  0  0  0  0  0
   20.9230  -29.3500   37.1810 C   0  0  0  0  0  0  0  0  0  0  0  0
   20.8630  -30.4920   36.3820 C   0  0  0  0  0  0  0  0  0  0  0  0
   20.2130  -30.4450   35.1460 C   0  0  0  0  0  0  0  0  0  0  0  0
   19.6240  -29.2550   34.7110 C   0  0  0  0  0  0  0  0  0  0  0  0
   19.6860  -28.1170   35.5100 C   0  0  0  0  0  0  0  0  0  0  0  0
   19.0880  -26.9870   35.0230 O   0  0  0  0  0  0  0  0  0  0  0  0
   20.3360  -28.1650   36.7460 C   0  0  0  0  0  0  0  0  0  0  0  0
   20.4250  -26.9920   37.6160 C   0  0  0  0  0  0  0  0  0  0  0  0
   19.9260  -25.9110   37.3060 O   0  0  0  0  0  0  0  0  0  0  0  0
   21.1430  -27.1460   38.9020 C   0  0  0  0  0  0  0  0  0  0  0  0
   21.2090  -26.0360   39.7240 O   0  0  0  0  0  0  0  0  0  0  0  0
   23.1270  -29.8040   40.6030 C   0  0  0  0  0  0  0  0  0  0  0  0
   23.8340  -30.0690   41.7800 C   0  0  0  0  0  0  0  0  0  0  0  0
   23.8360  -29.1570   42.8500 C   0  0  0  0  0  0  0  0  0  0  0  0
   24.6240  -29.4940   44.1000 C   0  0  0  0  0  0  0  0  0  0  0  0
   25.8070  -28.8250   44.1820 F   0  0  0  0  0  0  0  0  0  0  0  0
   24.9330  -30.8180   44.1810 F   0  0  0  0  0  0  0  0  0  0  0  0
   23.9610  -29.2020   45.2550 F   0  0  0  0  0  0  0  0  0  0  0  0
   24.4939  -25.5722   44.6892 H   0  0  0  0  0  0  0  0  0  0  0  0
   25.0101  -26.3184   43.1389 H   0  0  0  0  0  0  0  0  0  0  0  0
   23.7888  -25.0011   43.1389 H   0  0  0  0  0  0  0  0  0  0  0  0
   23.1420  -27.4138   44.7856 H   0  0  0  0  0  0  0  0  0  0  0  0
   22.0883  -26.3850   43.7253 H   0  0  0  0  0  0  0  0  0  0  0  0
   21.8502  -26.7581   41.4181 H   0  0  0  0  0  0  0  0  0  0  0  0
   21.3270  -31.4286   36.7247 H   0  0  0  0  0  0  0  0  0  0  0  0
   20.1650  -31.3450   34.5153 H   0  0  0  0  0  0  0  0  0  0  0  0
   19.1119  -29.2176   33.7382 H   0  0  0  0  0  0  0  0  0  0  0  0
   19.1430  -26.7850   34.1100 H   0  0  0  0  0  0  0  0  0  0  0  0
   21.5140  -26.1230   40.6060 H   0  0  0  0  0  0  0  0  0  0  0  0
   23.1450  -30.5341   39.7804 H   0  0  0  0  0  0  0  0  0  0  0  0
   24.3991  -31.0084   41.8704 H   0  0  0  0  0  0  0  0  0  0  0  0
  1  2  1  0
  2  3  1  0
  3  4  2  0
  4  5  1  0
  5  6  1  0
  6  7  1  0
  7  8  1  0
  8  9  2  0
  9 10  1  0
 10 11  2  0
 11 12  1  0
 12 13  1  0
 12 14  2  0
 14 15  1  0
 15 16  2  0
 15 17  1  0
 17 18  1  0
  5 19  2  0
 19 20  1  0
 20 21  2  0
 21 22  1  0
 22 23  1  0
 22 24  1  0
 22 25  1  0
 21  3  1  0
 17  6  2  0
 14  8  1  0
  1 26  1  0
  1 27  1  0
  1 28  1  0
  2 29  1  0
  2 30  1  0
  4 31  1  0
  9 32  1  0
 10 33  1  0
 11 34  1  0
 13 35  1  0
 18 36  1  0
 19 37  1  0
 20 38  1  0
M  END
>  <meeko>  (8) 
{"is_sidechain": [false], "free_energy": -8.655, "intermolecular_energy": -11.293, "internal_energy": 0.01}

$$$$
cand_004_out
     RDKit          3D

 38 40  0  0  0  0  0  0  0  0999 V2000
   24.2440  -27.3520   43.9870 C   0  0  0  0  0  0  0  0  0  0  0  0
   23.6930  -26.1100   43.3030 C   0  0  0  0  0  0  0  0  0  0  0  0
   22.2890  -26.3280   42.7810 C   0  0  0  0  0  0  0  0  0  0  0  0
   22.1260  -27.1270   41.6300 C   0  0  0  0  0  0  0  0  0  0  0  0
   20.8640  -27.3640   41.0660 C   0  0  0  0  0  0  0  0  0  0  0  0
   20.6930  -28.2190   39.8730 C   0  0  0  0  0  0  0  0  0  0  0  0
   20.3070  -29.5160   40.1890 O   0  0  0  0  0  0  0  0  0  0  0  0
   20.1120  -30.4160   39.1720 C   0  0  0  0  0  0  0  0  0  0  0  0
   19.7400  -31.7110   39.5360 C   0  0  0  0  0  0  0  0  0  0  0  0
   19.5240  -32.6760   38.5490 C   0  0  0  0  0  0  0  0  0  0  0  0
   19.6810  -32.3460   37.2010 C   0  0  0  0  0  0  0  0  0  0  0  0
   20.0520  -31.0530   36.8420 C   0  0  0  0  0  0  0  0  0  0  0  0
   20.1860  -30.7990   35.5040 O   0  0  0  0  0  0  0  0  0  0  0  0
   20.2680  -30.0880   37.8280 C   0  0  0  0  0  0  0  0  0  0  0  0
   20.6600  -28.7190   37.4940 C   0  0  0  0  0  0  0  0  0  0  0  0
   20.8100  -28.3490   36.3310 O   0  0  0  0  0  0  0  0  0  0  0  0
   20.8720  -27.7740   38.6150 C   0  0  0  0  0  0  0  0  0  0  0  0
   21.2280  -26.4790   38.2880 O   0  0  0  0  0  0  0  0  0  0  0  0
   19.7450  -26.7970   41.6840 C   0  0  0  0  0  0  0  0  0  0  0  0
   19.8870  -26.0010   42.8240 C   0  0  0  0  0  0  0  0  0  0  0  0
   21.1520  -25.7490   43.3840 C   0  0  0  0  0  0  0  0  0  0  0  0
   21.2470  -24.8820   44.6240 C   0  0  0  0  0  0  0  0  0  0  0  0
   21.8430  -23.6800   44.3900 F   0  0  0  0  0  0  0  0  0  0  0  0
   21.9660  -25.4720   45.6190 F   0  0  0  0  0  0  0  0  0  0  0  0
   20.0350  -24.5860   45.1740 F   0  0  0  0  0  0  0  0  0  0  0  0
   24.1877  -27.2251   45.0782 H   0  0  0  0  0  0  0  0  0  0  0  0
   23.6504  -28.2287   43.6887 H   0  0  0  0  0  0  0  0  0  0  0  0
   25.2923  -27.5003   43.6887 H   0  0  0  0  0  0  0  0  0  0  0  0
   23.6784  -25.2822   44.0273 H   0  0  0  0  0  0  0  0  0  0  0  0
   24.3424  -25.8766   42.4464 H   0  0  0  0  0  0  0  0  0  0  0  0
   23.0138  -27.5769   41.1616 H   0  0  0  0  0  0  0  0  0  0  0  0
   19.6171  -31.9713   40.5977 H   0  0  0  0  0  0  0  0  0  0  0  0
   19.2299  -33.6969   38.8340 H   0  0  0  0  0  0  0  0  0  0  0  0
   19.5118  -33.1064   36.4243 H   0  0  0  0  0  0  0  0  0  0  0  0
   19.4670  -30.9510   34.9240 H   0  0  0  0  0  0  0  0  0  0  0  0
   20.7920  -26.0350   37.5870 H   0  0  0  0  0  0  0  0  0  0  0  0
   18.7429  -26.9793   41.2687 H   0  0  0  0  0  0  0  0  0  0  0  0
   18.9927  -25.5636   43.2918 H   0  0  0  0  0  0  0  0  0  0  0  0
  1  2  1  0
  2  3  1  0
  3  4  2  0
  4  5  1  0
  5  6  1  0
  6  7  1  0
  7  8  1  0
  8  9  2  0
  9 10  1  0
 10 11  2  0
 11 12  1  0
 12 13  1  0
 12 14  2  0
 14 15  1  0
 15 16  2  0
 15 17  1  0
 17 18  1  0
  5 19  2  0
 19 20  1  0
 20 21  2  0
 21 22  1  0
 22 23  1  0
 22 24  1  0
 22 25  1  0
 21  3  1  0
 17  6  2  0
 14  8  1  0
  1 26  1  0
  1 27  1  0
  1 28  1  0
  2 29  1  0
  2 30  1  0
  4 31  1  0
  9 32  1  0
 10 33  1  0
 11 34  1  0
 13 35  1  0
 18 36  1  0
 19 37  1  0
 20 38  1  0
M  END
>  <meeko>  (9) 
{"is_sidechain": [false], "free_energy": -8.621, "intermolecular_energy": -10.567, "internal_energy": -0.673}

$$$$
