cand_013_out
     RDKit          3D

 50 53  0  0  0  0  0  0  0  0999 V2000
   20.8060  -21.7160   45.1510 C   0  0  0  0  0  0  0  0  0  0  0  0
   20.3930  -22.7170   44.1700 N   0  0  0  0  0  0  0  0  0  0  0  0
   21.2970  -22.6970   42.9960 C   0  0  0  0  0  0  0  0  0  0  0  0
   20.9360  -23.7790   41.9510 C   0  0  0  0  0  0  0  0  0  0  0  0
   20.9470  -25.1180   42.5880 N   0  0  0  0  0  0  0  0  0  0  0  0
   20.7610  -26.1680   41.6740 C   0  0  0  0  0  0  0  0  0  0  0  0
   19.7230  -26.1570   40.7290 C   0  0  0  0  0  0  0  0  0  0  0  0
   19.5560  -27.2080   39.8230 C   0  0  0  0  0  0  0  0  0  0  0  0
   20.4280  -28.3010   39.8280 C   0  0  0  0  0  0  0  0  0  0  0  0
   20.2580  -29.4380   38.9000 C   0  0  0  0  0  0  0  0  0  0  0  0
   19.5280  -30.4830   39.4540 O   0  0  0  0  0  0  0  0  0  0  0  0
   19.2990  -31.6060   38.7000 C   0  0  0  0  0  0  0  0  0  0  0  0
   18.5520  -32.6250   39.2920 C   0  0  0  0  0  0  0  0  0  0  0  0
   18.2830  -33.7960   38.5780 C   0  0  0  0  0  0  0  0  0  0  0  0
   18.7610  -33.9460   37.2750 C   0  0  0  0  0  0  0  0  0  0  0  0
   19.5060  -32.9280   36.6870 C   0  0  0  0  0  0  0  0  0  0  0  0
   19.9440  -33.1410   35.4090 O   0  0  0  0  0  0  0  0  0  0  0  0
   19.7750  -31.7570   37.4010 C   0  0  0  0  0  0  0  0  0  0  0  0
   20.5550  -30.6630   36.8210 C   0  0  0  0  0  0  0  0  0  0  0  0
   21.0160  -30.7230   35.6840 O   0  0  0  0  0  0  0  0  0  0  0  0
   20.7780  -29.4620   37.6590 C   0  0  0  0  0  0  0  0  0  0  0  0
   21.5300  -28.4410   37.1070 O   0  0  0  0  0  0  0  0  0  0  0  0
   21.4610  -28.3180   40.7760 C   0  0  0  0  0  0  0  0  0  0  0  0
   21.6400  -27.2630   41.6960 C   0  0  0  0  0  0  0  0  0  0  0  0
   22.7710  -27.3250   42.6940 C   0  0  0  0  0  0  0  0  0  0  0  0
   23.6680  -28.3210   42.4140 F   0  0  0  0  0  0  0  0  0  0  0  0
   22.3610  -27.5780   43.9720 F   0  0  0  0  0  0  0  0  0  0  0  0
   23.5210  -26.1860   42.7460 F   0  0  0  0  0  0  0  0  0  0  0  0
   20.0300  -25.1730   43.7520 C   0  0  0  0  0  0  0  0  0  0  0  0
   20.4080  -24.0710   44.7710 C   0  0  0  0  0  0  0  0  0  0  0  0
   20.6441  -22.1085   46.1658 H   0  0  0  0  0  0  0  0  0  0  0  0
   21.8727  -21.4855   45.0129 H   0  0  0  0  0  0  0  0  0  0  0  0
   20.2122  -20.8004   45.0129 H   0  0  0  0  0  0  0  0  0  0  0  0
   19.4450  -22.4910   43.8700 H   0  0  0  0  0  0  0  0  0  0  0  0
   21.2316  -21.7088   42.5174 H   0  0  0  0  0  0  0  0  0  0  0  0
   22.3155  -22.9062   43.3551 H   0  0  0  0  0  0  0  0  0  0  0  0
   19.9335  -23.5756   41.5465 H   0  0  0  0  0  0  0  0  0  0  0  0
   21.6760  -23.7585   41.1373 H   0  0  0  0  0  0  0  0  0  0  0  0
   19.0278  -25.3050   40.7010 H   0  0  0  0  0  0  0  0  0  0  0  0
   18.7294  -27.1750   39.0980 H   0  0  0  0  0  0  0  0  0  0  0  0
   18.1755  -32.5069   40.3188 H   0  0  0  0  0  0  0  0  0  0  0  0
   17.6941  -34.6002   39.0432 H   0  0  0  0  0  0  0  0  0  0  0  0
   18.5490  -34.8679   36.7135 H   0  0  0  0  0  0  0  0  0  0  0  0
   20.5340  -32.5330   35.0080 H   0  0  0  0  0  0  0  0  0  0  0  0
   22.1240  -28.6230   36.4060 H   0  0  0  0  0  0  0  0  0  0  0  0
   22.1494  -29.1755   40.8033 H   0  0  0  0  0  0  0  0  0  0  0  0
   18.9964  -25.0151   43.4102 H   0  0  0  0  0  0  0  0  0  0  0  0
   20.1149  -26.1579   44.2345 H   0  0  0  0  0  0  0  0  0  0  0  0
   19.6880  -24.0965   45.6023 H   0  0  0  0  0  0  0  0  0  0  0  0
   21.4321  -24.2724   45.1184 H   0  0  0  0  0  0  0  0  0  0  0  0
  1  2  1  0
  2  3  1  0
  3  4  1  0
  4  5  1  0
  5  6  1  0
  6  7  2  0
  7  8  1  0
  8  9  2  0
  9 10  1  0
 10 11  1  0
 11 12  1  0
 12 13  2  0
 13 14  1  0
 14 15  2  0
 15 16  1  0
 16 17  1  0
 16 18  2  0
 18 19  1  0
 19 20  2  0
 19 21  1  0
 21 22  1  0
  9 23  1  0
 23 24  2  0
 24 25  1  0
 25 26  1  0
 25 27  1  0
 25 28  1  0
  5 29  1  0
 29 30  1  0
 30  2  1  0
 24  6  1  0
 21 10  2  0
 18 12  1  0
  1 31  1  0
  1 32  1  0
  1 33  1  0
  2 34  1  0
  3 35  1  0
  3 36  1  0
  4 37  1  0
  4 38  1  0
  7 39  1  0
  8 40  1  0
 13 41  1  0
 14 42  1  0
 15 43  1  0
 17 44  1  0
 22 45  1  0
 23 46  1  0
 29 47  1  0
 29 48  1  0
 30 49  1  0
 30 50  1  0
M  CHG  1   2   1
M  END
>  <meeko>  (1) 
{"is_sidechain": [false], "free_energy": -9.521, "intermolecular_energy": -11.747, "internal_energy": -0.718}

$$$$
cand_013_out
     RDKit          3D

 50 53  0  0  0  0  0  0  0  0999 V2000
   20.0950  -22.6940   43.6210 C   0  0  0  0  0  0  0  0  0  0  0  0
   19.6780  -23.8130   42.7790 N   0  0  0  0  0  0  0  0  0  0  0  0
   20.3660  -23.7620   41.4670 C   0  0  0  0  0  0  0  0  0  0  0  0
   20.0010  -24.9600   40.5590 C   0  0  0  0  0  0  0  0  0  0  0  0
   20.3090  -26.2310   41.2550 N   0  0  0  0  0  0  0  0  0  0  0  0
   20.1320  -27.3640   40.4420 C   0  0  0  0  0  0  0  0  0  0  0  0
   18.9840  -27.5430   39.6560 C   0  0  0  0  0  0  0  0  0  0  0  0
   18.8250  -28.6730   38.8490 C   0  0  0  0  0  0  0  0  0  0  0  0
   19.8160  -29.6580   38.7980 C   0  0  0  0  0  0  0  0  0  0  0  0
   19.6630  -30.8760   37.9760 C   0  0  0  0  0  0  0  0  0  0  0  0
   20.0970  -30.7010   36.6660 O   0  0  0  0  0  0  0  0  0  0  0  0
   20.0090  -31.7540   35.7920 C   0  0  0  0  0  0  0  0  0  0  0  0
   20.4660  -31.5370   34.4910 C   0  0  0  0  0  0  0  0  0  0  0  0
   20.4040  -32.5690   33.5500 C   0  0  0  0  0  0  0  0  0  0  0  0
   19.8850  -33.8130   33.9100 C   0  0  0  0  0  0  0  0  0  0  0  0
   19.4300  -34.0270   35.2080 C   0  0  0  0  0  0  0  0  0  0  0  0
   18.9320  -35.2700   35.4920 O   0  0  0  0  0  0  0  0  0  0  0  0
   19.4920  -32.9950   36.1490 C   0  0  0  0  0  0  0  0  0  0  0  0
   19.0220  -33.1780   37.5230 C   0  0  0  0  0  0  0  0  0  0  0  0
   18.5470  -34.2410   37.9140 O   0  0  0  0  0  0  0  0  0  0  0  0
   19.1390  -32.0240   38.4450 C   0  0  0  0  0  0  0  0  0  0  0  0
   18.6780  -32.2010   39.7360 O   0  0  0  0  0  0  0  0  0  0  0  0
   20.9600  -29.4860   39.5890 C   0  0  0  0  0  0  0  0  0  0  0  0
   21.1320  -28.3490   40.4080 C   0  0  0  0  0  0  0  0  0  0  0  0
   22.3850  -28.2070   41.2380 C   0  0  0  0  0  0  0  0  0  0  0  0
   22.1410  -28.3110   42.5820 F   0  0  0  0  0  0  0  0  0  0  0  0
   23.0050  -27.0000   41.0910 F   0  0  0  0  0  0  0  0  0  0  0  0
   23.3260  -29.1610   40.9810 F   0  0  0  0  0  0  0  0  0  0  0  0
   19.6130  -26.3200   42.5600 C   0  0  0  0  0  0  0  0  0  0  0  0
   19.9870  -25.1030   43.4390 C   0  0  0  0  0  0  0  0  0  0  0  0
   19.9910  -22.9732   44.6799 H   0  0  0  0  0  0  0  0  0  0  0  0
   21.1456  -22.4468   43.4085 H   0  0  0  0  0  0  0  0  0  0  0  0
   19.4624  -21.8196   43.4085 H   0  0  0  0  0  0  0  0  0  0  0  0
   18.6710  -23.7400   42.6350 H   0  0  0  0  0  0  0  0  0  0  0  0
   20.0802  -22.8314   40.9549 H   0  0  0  0  0  0  0  0  0  0  0  0
   21.4488  -23.8039   41.6559 H   0  0  0  0  0  0  0  0  0  0  0  0
   18.9274  -24.9245   40.3221 H   0  0  0  0  0  0  0  0  0  0  0  0
   20.5882  -24.9034   39.6306 H   0  0  0  0  0  0  0  0  0  0  0  0
   18.1931  -26.7787   39.6752 H   0  0  0  0  0  0  0  0  0  0  0  0
   17.9110  -28.7886   38.2479 H   0  0  0  0  0  0  0  0  0  0  0  0
   20.8741  -30.5559   34.2068 H   0  0  0  0  0  0  0  0  0  0  0  0
   20.7648  -32.4000   32.5247 H   0  0  0  0  0  0  0  0  0  0  0  0
   19.8354  -34.6241   33.1686 H   0  0  0  0  0  0  0  0  0  0  0  0
   18.5730  -35.4480   36.3400 H   0  0  0  0  0  0  0  0  0  0  0  0
   18.3450  -31.4700   40.2190 H   0  0  0  0  0  0  0  0  0  0  0  0
   21.7444  -30.2570   39.5713 H   0  0  0  0  0  0  0  0  0  0  0  0
   18.5257  -26.3297   42.3938 H   0  0  0  0  0  0  0  0  0  0  0  0
   19.9187  -27.2445   43.0717 H   0  0  0  0  0  0  0  0  0  0  0  0
   19.4230  -25.1615   44.3816 H   0  0  0  0  0  0  0  0  0  0  0  0
   21.0722  -25.1378   43.6156 H   0  0  0  0  0  0  0  0  0  0  0  0
  1  2  1  0
  2  3  1  0
  3  4  1  0
  4  5  1  0
  5  6  1  0
  6  7  2  0
  7  8  1  0
  8  9  2  0
  9 10  1  0
 10 11  1  0
 11 12  1  0
 12 13  2  0
 13 14  1  0
 14 15  2  0
 15 16  1  0
 16 17  1  0
 16 18  2  0
 18 19  1  0
 19 20  2  0
 19 21  1  0
 21 22  1  0
  9 23  1  0
 23 24  2  0
 24 25  1  0
 25 26  1  0
 25 27  1  0
 25 28  1  0
  5 29  1  0
 29 30  1  0
 30  2  1  0
 24  6  1  0
 21 10  2  0
 18 12  1  0
  1 31  1  0
  1 32  1  0
  1 33  1  0
  2 34  1  0
  3 35  1  0
  3 36  1  0
  4 37  1  0
  4 38  1  0
  7 39  1  0
  8 40  1  0
 13 41  1  0
 14 42  1  0
 15 43  1  0
 17 44  1  0
 22 45  1  0
 23 46  1  0
 29 47  1  0
 29 48  1  0
 30 49  1  0
 30 50  1  0
M  CHG  1   2   1
M  END
>  <meeko>  (2) 
{"is_sidechain": [false], "free_energy": -9.29, "intermolecular_energy": -11.527, "internal_energy": -0.653}

$$$$
cand_013_out
     RDKit          3D

 50 53  0  0  0  0  0  0  0  0999 V2000
   21.3130  -23.5340   44.1900 C   0  0  0  0  0  0  0  0  0  0  0  0
   21.2590  -24.8210   43.5000 N   0  0  0  0  0  0  0  0  0  0  0  0
   19.8570  -25.1840   43.1850 C   0  0  0  0  0  0  0  0  0  0  0  0
   19.7510  -26.5140   42.4030 C   0  0  0  0  0  0  0  0  0  0  0  0
   20.5560  -26.4340   41.1610 N   0  0  0  0  0  0  0  0  0  0  0  0
   20.4020  -27.5550   40.3280 C   0  0  0  0  0  0  0  0  0  0  0  0
   21.0960  -28.7520   40.5560 C   0  0  0  0  0  0  0  0  0  0  0  0
   20.9280  -29.8600   39.7200 C   0  0  0  0  0  0  0  0  0  0  0  0
   20.0510  -29.8060   38.6330 C   0  0  0  0  0  0  0  0  0  0  0  0
   19.8730  -30.9530   37.7170 C   0  0  0  0  0  0  0  0  0  0  0  0
   20.2990  -30.6800   36.4220 O   0  0  0  0  0  0  0  0  0  0  0  0
   20.1870  -31.6590   35.4670 C   0  0  0  0  0  0  0  0  0  0  0  0
   20.6380  -31.3460   34.1850 C   0  0  0  0  0  0  0  0  0  0  0  0
   20.5520  -32.2980   33.1650 C   0  0  0  0  0  0  0  0  0  0  0  0
   20.0160  -33.5590   33.4290 C   0  0  0  0  0  0  0  0  0  0  0  0
   19.5680  -33.8690   34.7100 C   0  0  0  0  0  0  0  0  0  0  0  0
   19.0530  -35.1230   34.8990 O   0  0  0  0  0  0  0  0  0  0  0  0
   19.6540  -32.9160   35.7290 C   0  0  0  0  0  0  0  0  0  0  0  0
   19.1920  -33.2010   37.0890 C   0  0  0  0  0  0  0  0  0  0  0  0
   18.7030  -34.2840   37.3980 O   0  0  0  0  0  0  0  0  0  0  0  0
   19.3340  -32.1260   38.0990 C   0  0  0  0  0  0  0  0  0  0  0  0
   18.8800  -32.3980   39.3760 O   0  0  0  0  0  0  0  0  0  0  0  0
   19.3610  -28.6090   38.3980 C   0  0  0  0  0  0  0  0  0  0  0  0
   19.5230  -27.4830   39.2340 C   0  0  0  0  0  0  0  0  0  0  0  0
   18.7540  -26.2170   38.9430 C   0  0  0  0  0  0  0  0  0  0  0  0
   18.0680  -26.2780   37.7590 F   0  0  0  0  0  0  0  0  0  0  0  0
   19.5440  -25.1100   38.8290 F   0  0  0  0  0  0  0  0  0  0  0  0
   17.8070  -25.9230   39.8790 F   0  0  0  0  0  0  0  0  0  0  0  0
   21.9700  -26.0970   41.4500 C   0  0  0  0  0  0  0  0  0  0  0  0
   22.0430  -24.7710   42.2440 C   0  0  0  0  0  0  0  0  0  0  0  0
   21.3060  -23.7003   45.2773 H   0  0  0  0  0  0  0  0  0  0  0  0
   22.2342  -23.0041   43.9060 H   0  0  0  0  0  0  0  0  0  0  0  0
   20.4395  -22.9288   43.9060 H   0  0  0  0  0  0  0  0  0  0  0  0
   21.6590  -25.5260   44.1200 H   0  0  0  0  0  0  0  0  0  0  0  0
   19.2981  -25.2833   44.1272 H   0  0  0  0  0  0  0  0  0  0  0  0
   19.4405  -24.3885   42.5496 H   0  0  0  0  0  0  0  0  0  0  0  0
   20.1272  -27.3364   43.0292 H   0  0  0  0  0  0  0  0  0  0  0  0
   18.6985  -26.6976   42.1414 H   0  0  0  0  0  0  0  0  0  0  0  0
   21.7864  -28.8206   41.4096 H   0  0  0  0  0  0  0  0  0  0  0  0
   21.4916  -30.7833   39.9197 H   0  0  0  0  0  0  0  0  0  0  0  0
   21.0606  -30.3520   33.9769 H   0  0  0  0  0  0  0  0  0  0  0  0
   20.9072  -32.0528   32.1532 H   0  0  0  0  0  0  0  0  0  0  0  0
   19.9476  -34.3073   32.6257 H   0  0  0  0  0  0  0  0  0  0  0  0
   18.1330  -35.2720   34.7950 H   0  0  0  0  0  0  0  0  0  0  0  0
   18.9090  -33.2740   39.7060 H   0  0  0  0  0  0  0  0  0  0  0  0
   18.6755  -28.5452   37.5401 H   0  0  0  0  0  0  0  0  0  0  0  0
   22.4231  -26.9038   42.0448 H   0  0  0  0  0  0  0  0  0  0  0  0
   22.5163  -25.9824   40.5021 H   0  0  0  0  0  0  0  0  0  0  0  0
   23.0947  -24.5652   42.4920 H   0  0  0  0  0  0  0  0  0  0  0  0
   21.6151  -23.9782   41.6129 H   0  0  0  0  0  0  0  0  0  0  0  0
  1  2  1  0
  2  3  1  0
  3  4  1  0
  4  5  1  0
  5  6  1  0
  6  7  2  0
  7  8  1  0
  8  9  2  0
  9 10  1  0
 10 11  1  0
 11 12  1  0
 12 13  2  0
 13 14  1  0
 14 15  2  0
 15 16  1  0
 16 17  1  0
 16 18  2  0
 18 19  1  0
 19 20  2  0
 19 21  1  0
 21 22  1  0
  9 23  1  0
 23 24  2  0
 24 25  1  0
 25 26  1  0
 25 27  1  0
 25 28  1  0
  5 29  1  0
 29 30  1  0
 30  2  1  0
 24  6  1  0
 21 10  2  0
 18 12  1  0
  1 31  1  0
  1 32  1  0
  1 33  1  0
  2 34  1  0
  3 35  1  0
  3 36  1  0
  4 37  1  0
  4 38  1  0
  7 39  1  0
  8 40  1  0
 13 41  1  0
 14 42  1  0
 15 43  1  0
 17 44  1  0
 22 45  1  0
 23 46  1  0
 29 47  1  0
 29 48  1  0
 30 49  1  0
 30 50  1  0
M  CHG  1   2   1
M  END
>  <meeko>  (3) 
{"is_sidechain": [false], "free_energy": -9.056, "intermolecular_energy": -11.284, "internal_energy": -0.608}

$$$$
cand_013_out
     RDKit          3D

 50 53  0  0  0  0  0  0  0  0999 V2000
   21.3000  -23.3740   44.2960 C   0  0  0  0  0  0  0  0  0  0  0  0
   21.2480  -24.6610   43.6060 N   0  0  0  0  0  0  0  0  0  0  0  0
   19.8510  -25.0040   43.2500 C   0  0  0  0  0  0  0  0  0  0  0  0
   19.7480  -26.3340   42.4660 C   0  0  0  0  0  0  0  0  0  0  0  0
   20.5900  -26.2660   41.2470 N   0  0  0  0  0  0  0  0  0  0  0  0
   20.4440  -27.3850   40.4110 C   0  0  0  0  0  0  0  0  0  0  0  0
   21.1610  -28.5720   40.6240 C   0  0  0  0  0  0  0  0  0  0  0  0
   21.0010  -29.6780   39.7860 C   0  0  0  0  0  0  0  0  0  0  0  0
   20.1100  -29.6350   38.7100 C   0  0  0  0  0  0  0  0  0  0  0  0
   19.9400  -30.7790   37.7910 C   0  0  0  0  0  0  0  0  0  0  0  0
   19.4810  -31.9240   38.4330 O   0  0  0  0  0  0  0  0  0  0  0  0
   19.2830  -33.0640   37.6970 C   0  0  0  0  0  0  0  0  0  0  0  0
   18.8110  -34.1850   38.3800 C   0  0  0  0  0  0  0  0  0  0  0  0
   18.5870  -35.3790   37.6890 C   0  0  0  0  0  0  0  0  0  0  0  0
   18.8360  -35.4500   36.3170 C   0  0  0  0  0  0  0  0  0  0  0  0
   19.3060  -34.3300   35.6380 C   0  0  0  0  0  0  0  0  0  0  0  0
   19.5300  -34.4690   34.2950 O   0  0  0  0  0  0  0  0  0  0  0  0
   19.5300  -33.1360   36.3290 C   0  0  0  0  0  0  0  0  0  0  0  0
   20.0250  -31.9360   35.6530 C   0  0  0  0  0  0  0  0  0  0  0  0
   20.2730  -31.9210   34.4510 O   0  0  0  0  0  0  0  0  0  0  0  0
   20.2220  -30.7190   36.4760 C   0  0  0  0  0  0  0  0  0  0  0  0
   20.7050  -29.5960   35.8320 O   0  0  0  0  0  0  0  0  0  0  0  0
   19.3980  -28.4480   38.4890 C   0  0  0  0  0  0  0  0  0  0  0  0
   19.5510  -27.3240   39.3290 C   0  0  0  0  0  0  0  0  0  0  0  0
   18.7580  -26.0690   39.0530 C   0  0  0  0  0  0  0  0  0  0  0  0
   18.0690  -26.1310   37.8710 F   0  0  0  0  0  0  0  0  0  0  0  0
   19.5260  -24.9460   38.9490 F   0  0  0  0  0  0  0  0  0  0  0  0
   17.8070  -25.8030   39.9950 F   0  0  0  0  0  0  0  0  0  0  0  0
   22.0000  -25.9480   41.5780 C   0  0  0  0  0  0  0  0  0  0  0  0
   22.0680  -24.6230   42.3720 C   0  0  0  0  0  0  0  0  0  0  0  0
   21.2933  -23.5404   45.3833 H   0  0  0  0  0  0  0  0  0  0  0  0
   22.2203  -22.8426   44.0121 H   0  0  0  0  0  0  0  0  0  0  0  0
   20.4255  -22.7701   44.0121 H   0  0  0  0  0  0  0  0  0  0  0  0
   21.6190  -25.3710   44.2370 H   0  0  0  0  0  0  0  0  0  0  0  0
   19.2632  -25.0937   44.1754 H   0  0  0  0  0  0  0  0  0  0  0  0
   19.4655  -24.2034   42.6016 H   0  0  0  0  0  0  0  0  0  0  0  0
   20.0943  -27.1611   43.1032 H   0  0  0  0  0  0  0  0  0  0  0  0
   18.7009  -26.5034   42.1747 H   0  0  0  0  0  0  0  0  0  0  0  0
   21.8635  -28.6329   41.4682 H   0  0  0  0  0  0  0  0  0  0  0  0
   21.5824  -30.5925   39.9749 H   0  0  0  0  0  0  0  0  0  0  0  0
   18.6154  -34.1293   39.4610 H   0  0  0  0  0  0  0  0  0  0  0  0
   18.2143  -36.2634   38.2264 H   0  0  0  0  0  0  0  0  0  0  0  0
   18.6608  -36.3902   35.7735 H   0  0  0  0  0  0  0  0  0  0  0  0
   20.1010  -33.8730   33.8510 H   0  0  0  0  0  0  0  0  0  0  0  0
   20.6000  -28.7510   36.2220 H   0  0  0  0  0  0  0  0  0  0  0  0
   18.7021  -28.3910   37.6390 H   0  0  0  0  0  0  0  0  0  0  0  0
   22.4239  -26.7602   42.1868 H   0  0  0  0  0  0  0  0  0  0  0  0
   22.5757  -25.8422   40.6467 H   0  0  0  0  0  0  0  0  0  0  0  0
   23.1149  -24.4307   42.6494 H   0  0  0  0  0  0  0  0  0  0  0  0
   21.6685  -23.8254   41.7283 H   0  0  0  0  0  0  0  0  0  0  0  0
  1  2  1  0
  2  3  1  0
  3  4  1  0
  4  5  1  0
  5  6  1  0
  6  7  2  0
  7  8  1  0
  8  9  2  0
  9 10  1  0
 10 11  1  0
 11 12  1  0
 12 13  2  0
 13 14  1  0
 14 15  2  0
 15 16  1  0
 16 17  1  0
 16 18  2  0
 18 19  1  0
 19 20  2  0
 19 21  1  0
 21 22  1  0
  9 23  1  0
 23 24  2  0
 24 25  1  0
 25 26  1  0
 25 27  1  0
 25 28  1  0
  5 29  1  0
 29 30  1  0
 30  2  1  0
 24  6  1  0
 21 10  2  0
 18 12  1  0
  1 31  1  0
  1 32  1  0
  1 33  1  0
  2 34  1  0
  3 35  1  0
  3 36  1  0
  4 37  1  0
  4 38  1  0
  7 39  1  0
  8 40  1  0
 13 41  1  0
 14 42  1  0
 15 43  1  0
 17 44  1  0
 22 45  1  0
 23 46  1  0
 29 47  1  0
 29 48  1  0
 30 49  1  0
 30 50  1  0
M  CHG  1   2   1
M  END
>  <meeko>  (4) 
{"is_sidechain": [false], "free_energy": -8.962, "intermolecular_energy": -11.286, "internal_energy": -0.49}

$$$$
cand_013_out
     RDKit          3D

 50 53  0  0  0  0  0  0  0  0999 V2000
   21.4970  -22.3040   48.2740 C   0  0  0  0  0  0  0  0  0  0  0  0
   21.0300  -23.0740   47.1230 N   0  0  0  0  0  0  0  0  0  0  0  0
   21.5430  -22.4860   45.8630 C   0  0  0  0  0  0  0  0  0  0  0  0
   21.1230  -23.3000   44.6160 C   0  0  0  0  0  0  0  0  0  0  0  0
   21.5770  -24.7040   44.7540 N   0  0  0  0  0  0  0  0  0  0  0  0
   21.3520  -25.4750   43.6010 C   0  0  0  0  0  0  0  0  0  0  0  0
   20.1480  -25.4080   42.8850 C   0  0  0  0  0  0  0  0  0  0  0  0
   19.9420  -26.1780   41.7370 C   0  0  0  0  0  0  0  0  0  0  0  0
   20.9400  -27.0350   41.2640 C   0  0  0  0  0  0  0  0  0  0  0  0
   20.7410  -27.8800   40.0690 C   0  0  0  0  0  0  0  0  0  0  0  0
   20.4500  -29.2030   40.3850 O   0  0  0  0  0  0  0  0  0  0  0  0
   20.2450  -30.0990   39.3670 C   0  0  0  0  0  0  0  0  0  0  0  0
   19.9450  -31.4120   39.7310 C   0  0  0  0  0  0  0  0  0  0  0  0
   19.7250  -32.3750   38.7420 C   0  0  0  0  0  0  0  0  0  0  0  0
   19.8060  -32.0250   37.3940 C   0  0  0  0  0  0  0  0  0  0  0  0
   20.1040  -30.7140   37.0340 C   0  0  0  0  0  0  0  0  0  0  0  0
   20.1680  -30.4390   35.6950 O   0  0  0  0  0  0  0  0  0  0  0  0
   20.3250  -29.7510   38.0230 C   0  0  0  0  0  0  0  0  0  0  0  0
   20.6430  -28.3620   37.6870 C   0  0  0  0  0  0  0  0  0  0  0  0
   20.7380  -27.9770   36.5250 O   0  0  0  0  0  0  0  0  0  0  0  0
   20.8520  -27.4170   38.8100 C   0  0  0  0  0  0  0  0  0  0  0  0
   21.1670  -26.1120   38.4830 O   0  0  0  0  0  0  0  0  0  0  0  0
   22.1420  -27.1100   41.9820 C   0  0  0  0  0  0  0  0  0  0  0  0
   22.3620  -26.3380   43.1430 C   0  0  0  0  0  0  0  0  0  0  0  0
   23.6740  -26.4490   43.8790 C   0  0  0  0  0  0  0  0  0  0  0  0
   24.5000  -27.4000   43.3420 F   0  0  0  0  0  0  0  0  0  0  0  0
   23.5400  -26.8080   45.1900 F   0  0  0  0  0  0  0  0  0  0  0  0
   24.4110  -25.3010   43.8650 F   0  0  0  0  0  0  0  0  0  0  0  0
   21.0570  -25.3240   45.9960 C   0  0  0  0  0  0  0  0  0  0  0  0
   21.4810  -24.4820   47.2220 C   0  0  0  0  0  0  0  0  0  0  0  0
   21.1906  -22.8092   49.2018 H   0  0  0  0  0  0  0  0  0  0  0  0
   22.5939  -22.2274   48.2432 H   0  0  0  0  0  0  0  0  0  0  0  0
   21.0580  -21.2959   48.2432 H   0  0  0  0  0  0  0  0  0  0  0  0
   20.0110  -23.0450   47.1180 H   0  0  0  0  0  0  0  0  0  0  0  0
   21.1503  -21.4631   45.7654 H   0  0  0  0  0  0  0  0  0  0  0  0
   22.6418  -22.4940   45.9132 H   0  0  0  0  0  0  0  0  0  0  0  0
   20.0275  -23.2788   44.5185 H   0  0  0  0  0  0  0  0  0  0  0  0
   21.5845  -22.8563   43.7215 H   0  0  0  0  0  0  0  0  0  0  0  0
   19.3500  -24.7361   43.2339 H   0  0  0  0  0  0  0  0  0  0  0  0
   18.9845  -26.1090   41.2000 H   0  0  0  0  0  0  0  0  0  0  0  0
   19.8817  -31.6887   40.7937 H   0  0  0  0  0  0  0  0  0  0  0  0
   19.4876  -33.4105   39.0271 H   0  0  0  0  0  0  0  0  0  0  0  0
   19.6346  -32.7842   36.6166 H   0  0  0  0  0  0  0  0  0  0  0  0
   19.5540  -29.8450   35.3090 H   0  0  0  0  0  0  0  0  0  0  0  0
   21.0610  -25.4310   39.1170 H   0  0  0  0  0  0  0  0  0  0  0  0
   22.9341  -27.7880   41.6314 H   0  0  0  0  0  0  0  0  0  0  0  0
   19.9591  -25.3713   45.9481 H   0  0  0  0  0  0  0  0  0  0  0  0
   21.4689  -26.3392   46.0939 H   0  0  0  0  0  0  0  0  0  0  0  0
   21.0442  -24.9302   48.1266 H   0  0  0  0  0  0  0  0  0  0  0  0
   22.5802  -24.4801   47.2639 H   0  0  0  0  0  0  0  0  0  0  0  0
  1  2  1  0
  2  3  1  0
  3  4  1  0
  4  5  1  0
  5  6  1  0
  6  7  2  0
  7  8  1  0
  8  9  2  0
  9 10  1  0
 10 11  1  0
 11 12  1  0
 12 13  2  0
 13 14  1  0
 14 15  2  0
 15 16  1  0
 16 17  1  0
 16 18  2  0
 18 19  1  0
 19 20  2  0
 19 21  1  0
 21 22  1  0
  9 23  1  0
 23 24  2  0
 24 25  1  0
 25 26  1  0
 25 27  1  0
 25 28  1  0
  5 29  1  0
 29 30  1  0
 30  2  1  0
 24  6  1  0
 21 10  2  0
 18 12  1  0
  1 31  1  0
  1 32  1  0
  1 33  1  0
  2 34  1  0
  3 35  1  0
  3 36  1  0
  4 37  1  0
  4 38  1  0
  7 39  1  0
  8 40  1  0
 13 41  1  0
 14 42  1  0
 15 43  1  0
 17 44  1  0
 22 45  1  0
 23 46  1  0
 29 47  1  0
 29 48  1  0
 30 49  1  0
 30 50  1  0
M  CHG  1   2   1
M  END
>  <meeko>  (5) 
{"is_sidechain": [false], "free_energy": -8.696, "intermolecular_energy": -10.905, "internal_energy": -0.543}

$$$$
cand_013_out
     RDKit          3D

 50 53  0  0  0  0  0  0  0  0999 V2000
   19.5090  -31.4710   31.8690 C   0  0  0  0  0  0  0  0  0  0  0  0
   20.1260  -30.8230   33.0250 N   0  0  0  0  0  0  0  0  0  0  0  0
   19.1580  -29.9220   33.6930 C   0  0  0  0  0  0  0  0  0  0  0  0
   19.7460  -29.2530   34.9580 C   0  0  0  0  0  0  0  0  0  0  0  0
   20.2220  -30.2920   35.9020 N   0  0  0  0  0  0  0  0  0  0  0  0
   20.6470  -29.7670   37.1340 C   0  0  0  0  0  0  0  0  0  0  0  0
   21.3960  -28.5840   37.2210 C   0  0  0  0  0  0  0  0  0  0  0  0
   21.8060  -28.0740   38.4550 C   0  0  0  0  0  0  0  0  0  0  0  0
   21.4720  -28.7280   39.6450 C   0  0  0  0  0  0  0  0  0  0  0  0
   21.9150  -28.2260   40.9620 C   0  0  0  0  0  0  0  0  0  0  0  0
   21.1760  -27.1320   41.4000 O   0  0  0  0  0  0  0  0  0  0  0  0
   21.4850  -26.5640   42.6090 C   0  0  0  0  0  0  0  0  0  0  0  0
   20.7090  -25.4770   43.0140 C   0  0  0  0  0  0  0  0  0  0  0  0
   20.9720  -24.8510   44.2360 C   0  0  0  0  0  0  0  0  0  0  0  0
   22.0080  -25.3120   45.0490 C   0  0  0  0  0  0  0  0  0  0  0  0
   22.7790  -26.3970   44.6430 C   0  0  0  0  0  0  0  0  0  0  0  0
   23.7790  -26.7960   45.4880 O   0  0  0  0  0  0  0  0  0  0  0  0
   22.5170  -27.0220   43.4210 C   0  0  0  0  0  0  0  0  0  0  0  0
   23.3050  -28.1650   42.9560 C   0  0  0  0  0  0  0  0  0  0  0  0
   24.2370  -28.6240   43.6120 O   0  0  0  0  0  0  0  0  0  0  0  0
   22.9410  -28.7610   41.6500 C   0  0  0  0  0  0  0  0  0  0  0  0
   23.7020  -29.8290   41.2120 O   0  0  0  0  0  0  0  0  0  0  0  0
   20.7310  -29.9150   39.5610 C   0  0  0  0  0  0  0  0  0  0  0  0
   20.3110  -30.4400   38.3200 C   0  0  0  0  0  0  0  0  0  0  0  0
   19.5090  -31.7190   38.2820 C   0  0  0  0  0  0  0  0  0  0  0  0
   20.1650  -32.7690   38.8670 F   0  0  0  0  0  0  0  0  0  0  0  0
   19.2240  -32.1500   37.0180 F   0  0  0  0  0  0  0  0  0  0  0  0
   18.3190  -31.6410   38.9430 F   0  0  0  0  0  0  0  0  0  0  0  0
   21.2120  -31.1930   35.2650 C   0  0  0  0  0  0  0  0  0  0  0  0
   20.6000  -31.8350   33.9980 C   0  0  0  0  0  0  0  0  0  0  0  0
   18.7887  -32.2275   32.2138 H   0  0  0  0  0  0  0  0  0  0  0  0
   18.9866  -30.7172   31.2616 H   0  0  0  0  0  0  0  0  0  0  0  0
   20.2875  -31.9559   31.2616 H   0  0  0  0  0  0  0  0  0  0  0  0
   20.9210  -30.2770   32.6910 H   0  0  0  0  0  0  0  0  0  0  0  0
   18.8610  -29.1354   32.9838 H   0  0  0  0  0  0  0  0  0  0  0  0
   18.2969  -30.5304   34.0066 H   0  0  0  0  0  0  0  0  0  0  0  0
   20.5888  -28.6071   34.6709 H   0  0  0  0  0  0  0  0  0  0  0  0
   18.9655  -28.6503   35.4455 H   0  0  0  0  0  0  0  0  0  0  0  0
   21.6657  -28.0475   36.2993 H   0  0  0  0  0  0  0  0  0  0  0  0
   22.3981  -27.1477   38.4911 H   0  0  0  0  0  0  0  0  0  0  0  0
   19.8922  -25.1136   42.3731 H   0  0  0  0  0  0  0  0  0  0  0  0
   20.3615  -23.9941   44.5569 H   0  0  0  0  0  0  0  0  0  0  0  0
   22.2151  -24.8183   46.0099 H   0  0  0  0  0  0  0  0  0  0  0  0
   24.4070  -26.1720   45.7980 H   0  0  0  0  0  0  0  0  0  0  0  0
   24.5840  -29.9300   41.5110 H   0  0  0  0  0  0  0  0  0  0  0  0
   20.4703  -30.4508   40.4856 H   0  0  0  0  0  0  0  0  0  0  0  0
   22.1051  -30.6146   34.9859 H   0  0  0  0  0  0  0  0  0  0  0  0
   21.4897  -31.9860   35.9750 H   0  0  0  0  0  0  0  0  0  0  0  0
   21.3650  -32.4596   33.5137 H   0  0  0  0  0  0  0  0  0  0  0  0
   19.7310  -32.4324   34.3109 H   0  0  0  0  0  0  0  0  0  0  0  0
  1  2  1  0
  2  3  1  0
  3  4  1  0
  4  5  1  0
  5  6  1  0
  6  7  2  0
  7  8  1  0
  8  9  2  0
  9 10  1  0
 10 11  1  0
 11 12  1  0
 12 13  2  0
 13 14  1  0
 14 15  2  0
 15 16  1  0
 16 17  1  0
 16 18  2  0
 18 19  1  0
 19 20  2  0
 19 21  1  0
 21 22  1  0
  9 23  1  0
 23 24  2  0
 24 25  1  0
 25 26  1  0
 25 27  1  0
 25 28  1  0
  5 29  1  0
 29 30  1  0
 30  2  1  0
 24  6  1  0
 21 10  2  0
 18 12  1  0
  1 31  1  0
  1 32  1  0
  1 33  1  0
  2 34  1  0
  3 35  1  0
  3 36  1  0
  4 37  1  0
  4 38  1  0
  7 39  1  0
  8 40  1  0
 13 41  1  0
 14 42  1  0
 15 43  1  0
 17 44  1  0
 22 45  1  0
 23 46  1  0
 29 47  1  0
 29 48  1  0
 30 49  1  0
 30 50  1  0
M  CHG  1   2   1
M  END
>  <meeko>  (6) 
{"is_sidechain": [false], "free_energy": -8.27, "intermolecular_energy": -11.087, "internal_energy": 0.166}

$$$$
cand_013_out
     RDKit          3D

 50 53  0  0  0  0  0  0  0  0999 V2000
   16.2060  -20.4610   36.9300 C   0  0  0  0  0  0  0  0  0  0  0  0
   17.1620  -21.0450   37.8670 N   0  0  0  0  0  0  0  0  0  0  0  0
   16.4870  -22.0160   38.7600 C   0  0  0  0  0  0  0  0  0  0  0  0
   17.4700  -22.7060   39.7360 C   0  0  0  0  0  0  0  0  0  0  0  0
   18.5530  -23.3720   38.9730 N   0  0  0  0  0  0  0  0  0  0  0  0
   19.4110  -24.1350   39.7820 C   0  0  0  0  0  0  0  0  0  0  0  0
   20.0180  -23.6060   40.9310 C   0  0  0  0  0  0  0  0  0  0  0  0
   20.8650  -24.3810   41.7270 C   0  0  0  0  0  0  0  0  0  0  0  0
   21.1260  -25.7150   41.4040 C   0  0  0  0  0  0  0  0  0  0  0  0
   22.0380  -26.5500   42.2120 C   0  0  0  0  0  0  0  0  0  0  0  0
   22.4160  -27.7210   41.5640 O   0  0  0  0  0  0  0  0  0  0  0  0
   23.2600  -28.5910   42.2040 C   0  0  0  0  0  0  0  0  0  0  0  0
   23.6230  -29.7470   41.5120 C   0  0  0  0  0  0  0  0  0  0  0  0
   24.4800  -30.6760   42.1080 C   0  0  0  0  0  0  0  0  0  0  0  0
   24.9730  -30.4490   43.3940 C   0  0  0  0  0  0  0  0  0  0  0  0
   24.6100  -29.2940   44.0820 C   0  0  0  0  0  0  0  0  0  0  0  0
   25.1290  -29.1350   45.3380 O   0  0  0  0  0  0  0  0  0  0  0  0
   23.7530  -28.3660   43.4860 C   0  0  0  0  0  0  0  0  0  0  0  0
   23.3460  -27.1400   44.1750 C   0  0  0  0  0  0  0  0  0  0  0  0
   23.7310  -26.8720   45.3100 O   0  0  0  0  0  0  0  0  0  0  0  0
   22.4390  -26.2180   43.4530 C   0  0  0  0  0  0  0  0  0  0  0  0
   22.0480  -25.0710   44.1190 O   0  0  0  0  0  0  0  0  0  0  0  0
   20.5270  -26.2450   40.2520 C   0  0  0  0  0  0  0  0  0  0  0  0
   19.6700  -25.4730   39.4390 C   0  0  0  0  0  0  0  0  0  0  0  0
   19.0440  -26.0900   38.2120 C   0  0  0  0  0  0  0  0  0  0  0  0
   19.3150  -27.4280   38.0990 F   0  0  0  0  0  0  0  0  0  0  0  0
   19.4860  -25.5470   37.0400 F   0  0  0  0  0  0  0  0  0  0  0  0
   17.6830  -26.0070   38.1890 F   0  0  0  0  0  0  0  0  0  0  0  0
   19.2620  -22.4160   38.0890 C   0  0  0  0  0  0  0  0  0  0  0  0
   18.2530  -21.7330   37.1360 C   0  0  0  0  0  0  0  0  0  0  0  0
   15.3982  -19.9675   37.4903 H   0  0  0  0  0  0  0  0  0  0  0  0
   16.7181  -19.7214   36.2970 H   0  0  0  0  0  0  0  0  0  0  0  0
   15.7817  -21.2543   36.2970 H   0  0  0  0  0  0  0  0  0  0  0  0
   17.5560  -20.2890   38.4270 H   0  0  0  0  0  0  0  0  0  0  0  0
   15.7230  -21.4843   39.3461 H   0  0  0  0  0  0  0  0  0  0  0  0
   16.0403  -22.7973   38.1275 H   0  0  0  0  0  0  0  0  0  0  0  0
   17.9070  -21.9522   40.4074 H   0  0  0  0  0  0  0  0  0  0  0  0
   16.9266  -23.4586   40.3262 H   0  0  0  0  0  0  0  0  0  0  0  0
   19.8231  -22.5602   41.2107 H   0  0  0  0  0  0  0  0  0  0  0  0
   21.3317  -23.9359   42.6181 H   0  0  0  0  0  0  0  0  0  0  0  0
   23.2350  -29.9268   40.4985 H   0  0  0  0  0  0  0  0  0  0  0  0
   24.7665  -31.5875   41.5629 H   0  0  0  0  0  0  0  0  0  0  0  0
   25.6469  -31.1810   43.8630 H   0  0  0  0  0  0  0  0  0  0  0  0
   25.8410  -28.5410   45.4790 H   0  0  0  0  0  0  0  0  0  0  0  0
   21.5600  -25.1360   44.9160 H   0  0  0  0  0  0  0  0  0  0  0  0
   20.7305  -27.2899   39.9749 H   0  0  0  0  0  0  0  0  0  0  0  0
   19.7590  -21.6508   38.7033 H   0  0  0  0  0  0  0  0  0  0  0  0
   20.0111  -22.9595   37.4945 H   0  0  0  0  0  0  0  0  0  0  0  0
   18.7900  -20.9930   36.5244 H   0  0  0  0  0  0  0  0  0  0  0  0
   17.7972  -22.5164   36.5127 H   0  0  0  0  0  0  0  0  0  0  0  0
  1  2  1  0
  2  3  1  0
  3  4  1  0
  4  5  1  0
  5  6  1  0
  6  7  2  0
  7  8  1  0
  8  9  2  0
  9 10  1  0
 10 11  1  0
 11 12  1  0
 12 13  2  0
 13 14  1  0
 14 15  2  0
 15 16  1  0
 16 17  1  0
 16 18  2  0
 18 19  1  0
 19 20  2  0
 19 21  1  0
 21 22  1  0
  9 23  1  0
 23 24  2  0
 24 25  1  0
 25 26  1  0
 25 27  1  0
 25 28  1  0
  5 29  1  0
 29 30  1  0
 30  2  1  0
 24  6  1  0
 21 10  2  0
 18 12  1  0
  1 31  1  0
  1 32  1  0
  1 33  1  0
  2 34  1  0
  3 35  1  0
  3 36  1  0
  4 37  1  0
  4 38  1  0
  7 39  1  0
  8 40  1  0
 13 41  1  0
 14 42  1  0
 15 43  1  0
 17 44  1  0
 22 45  1  0
 23 46  1  0
 29 47  1  0
 29 48  1  0
 30 49  1  0
 30 50  1  0
M  CHG  1   2   1
M  END
>  <meeko>  (7) 
{"is_sidechain": [false], "free_energy": -8.231, "intermolecular_energy": -10.72, "internal_energy": -0.153}

$$$$
cand_013_out
     RDKit          3D

 50 53  0  0  0  0  0  0  0  0999 V2000
   18.9290  -17.4710   46.4250 C   0  0  0  0  0  0  0  0  0  0  0  0
   19.4240  -18.5700   45.5990 N   0  0  0  0  0  0  0  0  0  0  0  0
   20.7040  -19.0870   46.1370 C   0  0  0  0  0  0  0  0  0  0  0  0
   21.2430  -20.2920   45.3280 C   0  0  0  0  0  0  0  0  0  0  0  0
   20.2250  -21.3690   45.2910 N   0  0  0  0  0  0  0  0  0  0  0  0
   20.6910  -22.5500   44.6900 C   0  0  0  0  0  0  0  0  0  0  0  0
   21.1710  -22.5750   43.3720 C   0  0  0  0  0  0  0  0  0  0  0  0
   21.6350  -23.7580   42.7900 C   0  0  0  0  0  0  0  0  0  0  0  0
   21.6420  -24.9540   43.5140 C   0  0  0  0  0  0  0  0  0  0  0  0
   22.1020  -26.2250   42.9170 C   0  0  0  0  0  0  0  0  0  0  0  0
   23.0520  -26.8760   43.6970 O   0  0  0  0  0  0  0  0  0  0  0  0
   23.5680  -28.0680   43.2570 C   0  0  0  0  0  0  0  0  0  0  0  0
   24.5090  -28.6910   44.0760 C   0  0  0  0  0  0  0  0  0  0  0  0
   25.0750  -29.9080   43.6870 C   0  0  0  0  0  0  0  0  0  0  0  0
   24.6990  -30.5000   42.4790 C   0  0  0  0  0  0  0  0  0  0  0  0
   23.7590  -29.8760   41.6640 C   0  0  0  0  0  0  0  0  0  0  0  0
   23.4370  -30.5090   40.4950 O   0  0  0  0  0  0  0  0  0  0  0  0
   23.1940  -28.6580   42.0540 C   0  0  0  0  0  0  0  0  0  0  0  0
   22.2030  -27.9690   41.2250 C   0  0  0  0  0  0  0  0  0  0  0  0
   21.8260  -28.4210   40.1470 O   0  0  0  0  0  0  0  0  0  0  0  0
   21.6600  -26.6870   41.7320 C   0  0  0  0  0  0  0  0  0  0  0  0
   20.7380  -26.0360   40.9350 O   0  0  0  0  0  0  0  0  0  0  0  0
   21.1560  -24.9340   44.8290 C   0  0  0  0  0  0  0  0  0  0  0  0
   20.6840  -23.7460   45.4270 C   0  0  0  0  0  0  0  0  0  0  0  0
   20.1750  -23.7730   46.8470 C   0  0  0  0  0  0  0  0  0  0  0  0
   20.4180  -24.9680   47.4710 F   0  0  0  0  0  0  0  0  0  0  0  0
   18.8250  -23.5970   46.9500 F   0  0  0  0  0  0  0  0  0  0  0  0
   20.7510  -22.8370   47.6560 F   0  0  0  0  0  0  0  0  0  0  0  0
   18.9400  -20.8830   44.7330 C   0  0  0  0  0  0  0  0  0  0  0  0
   18.4350  -19.6720   45.5520 C   0  0  0  0  0  0  0  0  0  0  0  0
   19.0456  -17.7298   47.4878 H   0  0  0  0  0  0  0  0  0  0  0  0
   19.5033  -16.5591   46.2045 H   0  0  0  0  0  0  0  0  0  0  0  0
   17.8655  -17.2968   46.2045 H   0  0  0  0  0  0  0  0  0  0  0  0
   19.5750  -18.2110   44.6560 H   0  0  0  0  0  0  0  0  0  0  0  0
   21.4508  -18.2799   46.1076 H   0  0  0  0  0  0  0  0  0  0  0  0
   20.5201  -19.4302   47.1658 H   0  0  0  0  0  0  0  0  0  0  0  0
   21.4709  -19.9697   44.3013 H   0  0  0  0  0  0  0  0  0  0  0  0
   22.1563  -20.6724   45.8089 H   0  0  0  0  0  0  0  0  0  0  0  0
   21.1824  -21.6449   42.7848 H   0  0  0  0  0  0  0  0  0  0  0  0
   21.9984  -23.7479   41.7518 H   0  0  0  0  0  0  0  0  0  0  0  0
   24.8055  -28.2250   45.0273 H   0  0  0  0  0  0  0  0  0  0  0  0
   25.8172  -30.4002   44.3326 H   0  0  0  0  0  0  0  0  0  0  0  0
   25.1450  -31.4576   42.1724 H   0  0  0  0  0  0  0  0  0  0  0  0
   23.5180  -30.0550   39.6780 H   0  0  0  0  0  0  0  0  0  0  0  0
   20.0310  -25.5620   41.3270 H   0  0  0  0  0  0  0  0  0  0  0  0
   21.1422  -25.8683   45.4095 H   0  0  0  0  0  0  0  0  0  0  0  0
   19.0886  -20.5790   43.6863 H   0  0  0  0  0  0  0  0  0  0  0  0
   18.1947  -21.6905   44.7835 H   0  0  0  0  0  0  0  0  0  0  0  0
   17.5090  -19.2962   45.0924 H   0  0  0  0  0  0  0  0  0  0  0  0
   18.2635  -20.0129   46.5837 H   0  0  0  0  0  0  0  0  0  0  0  0
  1  2  1  0
  2  3  1  0
  3  4  1  0
  4  5  1  0
  5  6  1  0
  6  7  2  0
  7  8  1  0
  8  9  2  0
  9 10  1  0
 10 11  1  0
 11 12  1  0
 12 13  2  0
 13 14  1  0
 14 15  2  0
 15 16  1  0
 16 17  1  0
 16 18  2  0
 18 19  1  0
 19 20  2  0
 19 21  1  0
 21 22  1  0
  9 23  1  0
 23 24  2  0
 24 25  1  0
 25 26  1  0
 25 27  1  0
 25 28  1  0
  5 29  1  0
 29 30  1  0
 30  2  1  0
 24  6  1  0
 21 10  2  0
 18 12  1  0
  1 31  1  0
  1 32  1  0
  1 33  1  0
  2 34  1  0
  3 35  1  0
  3 36  1  0
  4 37  1  0
  4 38  1  0
  7 39  1  0
  8 40  1  0
 13 41  1  0
 14 42  1  0
 15 43  1  0
 17 44  1  0
 22 45  1  0
 23 46  1  0
 29 47  1  0
 29 48  1  0
 30 49  1  0
 30 50  1  0
M  CHG  1   2   1
M  END
>  <meeko>  (8) 
{"is_sidechain": [false], "free_energy": -8.106, "intermolecular_energy": -10.219, "internal_energy": -0.5}

$$$$
cand_013_out
     RDKit          3D

 50 53  0  0  0  0  0  0  0  0999 V2000
   18.4620  -17.4700   46.0830 C   0  0  0  0  0  0  0  0  0  0  0  0
   19.1200  -18.5650   45.3740 N   0  0  0  0  0  0  0  0  0  0  0  0
   20.2580  -19.0880   46.1670 C   0  0  0  0  0  0  0  0  0  0  0  0
   20.9540  -20.2890   45.4840 C   0  0  0  0  0  0  0  0  0  0  0  0
   19.9670  -21.3630   45.2250 N   0  0  0  0  0  0  0  0  0  0  0  0
   20.5490  -22.5420   44.7290 C   0  0  0  0  0  0  0  0  0  0  0  0
   21.1480  -22.6000   43.4620 C   0  0  0  0  0  0  0  0  0  0  0  0
   21.7270  -23.7790   42.9850 C   0  0  0  0  0  0  0  0  0  0  0  0
   21.7310  -24.9380   43.7670 C   0  0  0  0  0  0  0  0  0  0  0  0
   22.3120  -26.2060   43.2780 C   0  0  0  0  0  0  0  0  0  0  0  0
   21.7590  -26.6250   42.0730 O   0  0  0  0  0  0  0  0  0  0  0  0
   22.2050  -27.7920   41.5080 C   0  0  0  0  0  0  0  0  0  0  0  0
   21.6310  -28.1670   40.2930 C   0  0  0  0  0  0  0  0  0  0  0  0
   22.0410  -29.3460   39.6640 C   0  0  0  0  0  0  0  0  0  0  0  0
   23.0230  -30.1470   40.2490 C   0  0  0  0  0  0  0  0  0  0  0  0
   23.5950  -29.7690   41.4610 C   0  0  0  0  0  0  0  0  0  0  0  0
   24.5500  -30.6000   41.9790 O   0  0  0  0  0  0  0  0  0  0  0  0
   23.1850  -28.5900   42.0900 C   0  0  0  0  0  0  0  0  0  0  0  0
   23.7590  -28.1580   43.3650 C   0  0  0  0  0  0  0  0  0  0  0  0
   24.6220  -28.8110   43.9460 O   0  0  0  0  0  0  0  0  0  0  0  0
   23.2600  -26.8900   43.9460 C   0  0  0  0  0  0  0  0  0  0  0  0
   23.7970  -26.4990   45.1580 O   0  0  0  0  0  0  0  0  0  0  0  0
   21.1260  -24.8860   45.0300 C   0  0  0  0  0  0  0  0  0  0  0  0
   20.5380  -23.7010   45.5220 C   0  0  0  0  0  0  0  0  0  0  0  0
   19.9030  -23.6930   46.8920 C   0  0  0  0  0  0  0  0  0  0  0  0
   20.0510  -24.8860   47.5480 F   0  0  0  0  0  0  0  0  0  0  0  0
   18.5560  -23.4750   46.8700 F   0  0  0  0  0  0  0  0  0  0  0  0
   20.4330  -22.7630   47.7380 F   0  0  0  0  0  0  0  0  0  0  0  0
   18.8300  -20.8720   44.4110 C   0  0  0  0  0  0  0  0  0  0  0  0
   18.1630  -19.6650   45.1120 C   0  0  0  0  0  0  0  0  0  0  0  0
   18.5561  -17.6266   47.1677 H   0  0  0  0  0  0  0  0  0  0  0  0
   18.9371  -16.5169   45.8075 H   0  0  0  0  0  0  0  0  0  0  0  0
   17.3974  -17.4421   45.8075 H   0  0  0  0  0  0  0  0  0  0  0  0
   19.4680  -18.2010   44.4870 H   0  0  0  0  0  0  0  0  0  0  0  0
   20.9950  -18.2823   46.3001 H   0  0  0  0  0  0  0  0  0  0  0  0
   19.8608  -19.4365   47.1318 H   0  0  0  0  0  0  0  0  0  0  0  0
   21.3950  -19.9613   44.5310 H   0  0  0  0  0  0  0  0  0  0  0  0
   21.7435  -20.6745   46.1459 H   0  0  0  0  0  0  0  0  0  0  0  0
   21.1623  -21.6991   42.8310 H   0  0  0  0  0  0  0  0  0  0  0  0
   22.1840  -23.7954   41.9846 H   0  0  0  0  0  0  0  0  0  0  0  0
   20.8574  -27.5361   39.8310 H   0  0  0  0  0  0  0  0  0  0  0  0
   21.5889  -29.6431   38.7062 H   0  0  0  0  0  0  0  0  0  0  0  0
   23.3444  -31.0750   39.7536 H   0  0  0  0  0  0  0  0  0  0  0  0
   25.4000  -30.2630   42.1880 H   0  0  0  0  0  0  0  0  0  0  0  0
   24.4930  -25.8720   45.1820 H   0  0  0  0  0  0  0  0  0  0  0  0
   21.1089  -25.7918   45.6538 H   0  0  0  0  0  0  0  0  0  0  0  0
   19.1969  -20.5620   43.4214 H   0  0  0  0  0  0  0  0  0  0  0  0
   18.0908  -21.6787   44.2975 H   0  0  0  0  0  0  0  0  0  0  0  0
   17.3554  -19.2851   44.4691 H   0  0  0  0  0  0  0  0  0  0  0  0
   17.7766  -20.0117   46.0818 H   0  0  0  0  0  0  0  0  0  0  0  0
  1  2  1  0
  2  3  1  0
  3  4  1  0
  4  5  1  0
  5  6  1  0
  6  7  2  0
  7  8  1  0
  8  9  2  0
  9 10  1  0
 10 11  1  0
 11 12  1  0
 12 13  2  0
 13 14  1  0
 14 15  2  0
 15 16  1  0
 16 17  1  0
 16 18  2  0
 18 19  1  0
 19 20  2  0
 19 21  1  0
 21 22  1  0
  9 23  1  0
 23 24  2  0
 24 25  1  0
 25 26  1  0
 25 27  1  0
 25 28  1  0
  5 29  1  0
 29 30  1  0
 30  2  1  0
 24  6  1  0
 21 10  2  0
 18 12  1  0
  1 31  1  0
  1 32  1  0
  1 33  1  0
  2 34  1  0
  3 35  1  0
  3 36  1  0
  4 37  1  0
  4 38  1  0
  7 39  1  0
  8 40  1  0
 13 41  1  0
 14 42  1  0
 15 43  1  0
 17 44  1  0
 22 45  1  0
 23 46  1  0
 29 47  1  0
 29 48  1  0
 30 49  1  0
 30 50  1  0
M  CHG  1   2   1
M  END
>  <meeko>  (9) 
{"is_sidechain": [false], "free_energy": -8.049, "intermolecular_energy": -10.097, "internal_energy": -0.552}

$$$$
