cand_008_out
     RDKit          3D

 35 37  0  0  0  0  0  0  0  0999 V2000
   20.9920  -30.4000   36.0460 O   0  0  0  0  0  0  0  0  0  0  0  0
   20.8820  -30.5990   37.2540 C   0  0  0  0  0  0  0  0  0  0  0  0
   21.6040  -29.7440   38.2250 C   0  0  0  0  0  0  0  0  0  0  0  0
   22.4050  -28.7420   37.7080 O   0  0  0  0  0  0  0  0  0  0  0  0
   21.4570  -29.9970   39.5390 C   0  0  0  0  0  0  0  0  0  0  0  0
   22.1390  -29.2180   40.5940 C   0  0  0  0  0  0  0  0  0  0  0  0
   21.7440  -27.9170   40.9210 C   0  0  0  0  0  0  0  0  0  0  0  0
   22.3870  -27.2060   41.9370 C   0  0  0  0  0  0  0  0  0  0  0  0
   23.4440  -27.7810   42.6610 C   0  0  0  0  0  0  0  0  0  0  0  0
   24.1180  -26.9890   43.7590 C   0  0  0  0  0  0  0  0  0  0  0  0
   23.2810  -26.6880   44.7930 F   0  0  0  0  0  0  0  0  0  0  0  0
   24.5870  -25.7900   43.3130 F   0  0  0  0  0  0  0  0  0  0  0  0
   23.8400  -29.1040   42.3600 C   0  0  0  0  0  0  0  0  0  0  0  0
   24.9690  -29.7750   43.1100 C   0  0  0  0  0  0  0  0  0  0  0  0
   24.5140  -30.5570   44.1300 F   0  0  0  0  0  0  0  0  0  0  0  0
   25.7140  -30.6060   42.3260 F   0  0  0  0  0  0  0  0  0  0  0  0
   23.1850  -29.8010   41.3260 C   0  0  0  0  0  0  0  0  0  0  0  0
   20.6720  -31.0250   40.0470 O   0  0  0  0  0  0  0  0  0  0  0  0
   19.9850  -31.8290   39.1730 C   0  0  0  0  0  0  0  0  0  0  0  0
   19.2000  -32.8410   39.7280 C   0  0  0  0  0  0  0  0  0  0  0  0
   18.4750  -33.6950   38.8940 C   0  0  0  0  0  0  0  0  0  0  0  0
   18.5360  -33.5370   37.5070 C   0  0  0  0  0  0  0  0  0  0  0  0
   19.3200  -32.5270   36.9570 C   0  0  0  0  0  0  0  0  0  0  0  0
   19.3340  -32.4300   35.5930 O   0  0  0  0  0  0  0  0  0  0  0  0
   20.0450  -31.6720   37.7920 C   0  0  0  0  0  0  0  0  0  0  0  0
   23.3360  -28.7900   37.8030 H   0  0  0  0  0  0  0  0  0  0  0  0
   20.9156  -27.4471   40.3706 H   0  0  0  0  0  0  0  0  0  0  0  0
   22.0611  -26.1822   42.1731 H   0  0  0  0  0  0  0  0  0  0  0  0
   24.9331  -27.6466   44.0955 H   0  0  0  0  0  0  0  0  0  0  0  0
   25.5763  -28.9344   43.4769 H   0  0  0  0  0  0  0  0  0  0  0  0
   23.5009  -30.8271   41.0864 H   0  0  0  0  0  0  0  0  0  0  0  0
   19.1525  -32.9656   40.8199 H   0  0  0  0  0  0  0  0  0  0  0  0
   17.8554  -34.4928   39.3294 H   0  0  0  0  0  0  0  0  0  0  0  0
   17.9650  -34.2101   36.8505 H   0  0  0  0  0  0  0  0  0  0  0  0
   19.1990  -31.5990   35.1820 H   0  0  0  0  0  0  0  0  0  0  0  0
  1  2  2  0
  2  3  1  0
  3  4  1  0
  3  5  2  0
  5  6  1  0
  6  7  2  0
  7  8  1  0
  8  9  2  0
  9 10  1  0
 10 11  1  0
 10 12  1  0
  9 13  1  0
 13 14  1  0
 14 15  1  0
 14 16  1  0
 13 17  2  0
  5 18  1  0
 18 19  1  0
 19 20  2  0
 20 21  1  0
 21 22  2  0
 22 23  1  0
 23 24  1  0
 23 25  2  0
 25  2  1  0
 17  6  1  0
 25 19  1  0
  4 26  1  0
  7 27  1  0
  8 28  1  0
 10 29  1  0
 14 30  1  0
 17 31  1  0
 20 32  1  0
 21 33  1  0
 22 34  1  0
 24 35  1  0
M  END
>  <meeko>  (1) 
{"is_sidechain": [false], "free_energy": -9.847, "intermolecular_energy": -12.15, "internal_energy": -0.621}

$$$$
cand_008_out
     RDKit          3D

 35 37  0  0  0  0  0  0  0  0999 V2000
   20.9020  -30.4060   35.7690 O   0  0  0  0  0  0  0  0  0  0  0  0
   20.7820  -30.6660   36.9650 C   0  0  0  0  0  0  0  0  0  0  0  0
   21.4650  -29.8370   37.9860 C   0  0  0  0  0  0  0  0  0  0  0  0
   22.2400  -28.7860   37.5280 O   0  0  0  0  0  0  0  0  0  0  0  0
   21.3100  -30.1570   39.2830 C   0  0  0  0  0  0  0  0  0  0  0  0
   21.9530  -29.4100   40.3840 C   0  0  0  0  0  0  0  0  0  0  0  0
   23.1550  -29.8340   40.9590 C   0  0  0  0  0  0  0  0  0  0  0  0
   23.7580  -29.1000   41.9840 C   0  0  0  0  0  0  0  0  0  0  0  0
   23.1750  -27.9160   42.4610 C   0  0  0  0  0  0  0  0  0  0  0  0
   23.8530  -27.1410   43.5690 C   0  0  0  0  0  0  0  0  0  0  0  0
   24.5210  -26.0390   43.1210 F   0  0  0  0  0  0  0  0  0  0  0  0
   24.7870  -27.8880   44.2210 F   0  0  0  0  0  0  0  0  0  0  0  0
   21.9720  -27.4600   41.8750 C   0  0  0  0  0  0  0  0  0  0  0  0
   21.3020  -26.1880   42.3460 C   0  0  0  0  0  0  0  0  0  0  0  0
   21.6540  -25.1120   41.5870 F   0  0  0  0  0  0  0  0  0  0  0  0
   19.9420  -26.2440   42.2810 F   0  0  0  0  0  0  0  0  0  0  0  0
   21.3760  -28.2180   40.8490 C   0  0  0  0  0  0  0  0  0  0  0  0
   20.5520  -31.2330   39.7310 O   0  0  0  0  0  0  0  0  0  0  0  0
   19.9010  -32.0140   38.8100 C   0  0  0  0  0  0  0  0  0  0  0  0
   19.1420  -33.0760   39.3040 C   0  0  0  0  0  0  0  0  0  0  0  0
   18.4560  -33.9110   38.4210 C   0  0  0  0  0  0  0  0  0  0  0  0
   18.5280  -33.6850   37.0440 C   0  0  0  0  0  0  0  0  0  0  0  0
   19.2870  -32.6260   36.5540 C   0  0  0  0  0  0  0  0  0  0  0  0
   19.3150  -32.4620   35.1970 O   0  0  0  0  0  0  0  0  0  0  0  0
   19.9730  -31.7890   37.4390 C   0  0  0  0  0  0  0  0  0  0  0  0
   21.9450  -28.2660   36.8080 H   0  0  0  0  0  0  0  0  0  0  0  0
   23.6323  -30.7576   40.5997 H   0  0  0  0  0  0  0  0  0  0  0  0
   24.7022  -29.4551   42.4227 H   0  0  0  0  0  0  0  0  0  0  0  0
   23.0244  -26.8526   44.2325 H   0  0  0  0  0  0  0  0  0  0  0  0
   21.6396  -26.0829   43.3876 H   0  0  0  0  0  0  0  0  0  0  0  0
   20.4347  -27.8673   40.4007 H   0  0  0  0  0  0  0  0  0  0  0  0
   19.0846  -33.2546   40.3879 H   0  0  0  0  0  0  0  0  0  0  0  0
   17.8577  -34.7483   38.8096 H   0  0  0  0  0  0  0  0  0  0  0  0
   17.9860  -34.3427   36.3485 H   0  0  0  0  0  0  0  0  0  0  0  0
   18.6710  -31.9280   34.7760 H   0  0  0  0  0  0  0  0  0  0  0  0
  1  2  2  0
  2  3  1  0
  3  4  1  0
  3  5  2  0
  5  6  1  0
  6  7  2  0
  7  8  1  0
  8  9  2  0
  9 10  1  0
 10 11  1  0
 10 12  1  0
  9 13  1  0
 13 14  1  0
 14 15  1  0
 14 16  1  0
 13 17  2  0
  5 18  1  0
 18 19  1  0
 19 20  2  0
 20 21  1  0
 21 22  2  0
 22 23  1  0
 23 24  1  0
 23 25  2  0
 25  2  1  0
 17  6  1  0
 25 19  1  0
  4 26  1  0
  7 27  1  0
  8 28  1  0
 10 29  1  0
 14 30  1  0
 17 31  1  0
 20 32  1  0
 21 33  1  0
 22 34  1  0
 24 35  1  0
M  END
>  <meeko>  (2) 
{"is_sidechain": [false], "free_energy": -9.534, "intermolecular_energy": -11.683, "internal_energy": -0.701}

$$$$
cand_008_out
     RDKit          3D

 35 37  0  0  0  0  0  0  0  0999 V2000
   20.5560  -30.9520   35.6810 O   0  0  0  0  0  0  0  0  0  0  0  0
   20.4170  -30.9510   36.9030 C   0  0  0  0  0  0  0  0  0  0  0  0
   20.9880  -29.8570   37.7220 C   0  0  0  0  0  0  0  0  0  0  0  0
   21.6840  -28.8650   37.0530 O   0  0  0  0  0  0  0  0  0  0  0  0
   20.8140  -29.8940   39.0560 C   0  0  0  0  0  0  0  0  0  0  0  0
   21.3500  -28.8640   39.9720 C   0  0  0  0  0  0  0  0  0  0  0  0
   20.8510  -27.5580   39.9820 C   0  0  0  0  0  0  0  0  0  0  0  0
   21.3560  -26.6050   40.8710 C   0  0  0  0  0  0  0  0  0  0  0  0
   22.3730  -26.9360   41.7810 C   0  0  0  0  0  0  0  0  0  0  0  0
   22.8960  -25.8850   42.7340 C   0  0  0  0  0  0  0  0  0  0  0  0
   22.3290  -25.9540   43.9720 F   0  0  0  0  0  0  0  0  0  0  0  0
   22.6450  -24.6210   42.2920 F   0  0  0  0  0  0  0  0  0  0  0  0
   22.8710  -28.2590   41.8000 C   0  0  0  0  0  0  0  0  0  0  0  0
   23.9630  -28.6720   42.7610 C   0  0  0  0  0  0  0  0  0  0  0  0
   23.4760  -28.9420   44.0050 F   0  0  0  0  0  0  0  0  0  0  0  0
   24.6140  -29.8070   42.3770 F   0  0  0  0  0  0  0  0  0  0  0  0
   22.3550  -29.2020   40.8900 C   0  0  0  0  0  0  0  0  0  0  0  0
   20.1380  -30.9100   39.7220 O   0  0  0  0  0  0  0  0  0  0  0  0
   19.5920  -31.9330   38.9890 C   0  0  0  0  0  0  0  0  0  0  0  0
   18.9110  -32.9250   39.6970 C   0  0  0  0  0  0  0  0  0  0  0  0
   18.3330  -33.9950   39.0120 C   0  0  0  0  0  0  0  0  0  0  0  0
   18.4340  -34.0740   37.6210 C   0  0  0  0  0  0  0  0  0  0  0  0
   19.1140  -33.0840   36.9180 C   0  0  0  0  0  0  0  0  0  0  0  0
   19.1770  -33.2230   35.5590 O   0  0  0  0  0  0  0  0  0  0  0  0
   19.6930  -32.0110   37.6030 C   0  0  0  0  0  0  0  0  0  0  0  0
   22.1610  -28.2210   37.5370 H   0  0  0  0  0  0  0  0  0  0  0  0
   20.0509  -27.2770   39.2814 H   0  0  0  0  0  0  0  0  0  0  0  0
   20.9514  -25.5822   40.8576 H   0  0  0  0  0  0  0  0  0  0  0  0
   23.9749  -26.0927   42.7872 H   0  0  0  0  0  0  0  0  0  0  0  0
   24.6475  -27.8110   42.7660 H   0  0  0  0  0  0  0  0  0  0  0  0
   22.7499  -30.2286   40.8995 H   0  0  0  0  0  0  0  0  0  0  0  0
   18.8301  -32.8635   40.7923 H   0  0  0  0  0  0  0  0  0  0  0  0
   17.7968  -34.7777   39.5687 H   0  0  0  0  0  0  0  0  0  0  0  0
   17.9769  -34.9171   37.0823 H   0  0  0  0  0  0  0  0  0  0  0  0
   19.8660  -32.8090   35.0780 H   0  0  0  0  0  0  0  0  0  0  0  0
  1  2  2  0
  2  3  1  0
  3  4  1  0
  3  5  2  0
  5  6  1  0
  6  7  2  0
  7  8  1  0
  8  9  2  0
  9 10  1  0
 10 11  1  0
 10 12  1  0
  9 13  1  0
 13 14  1  0
 14 15  1  0
 14 16  1  0
 13 17  2  0
  5 18  1  0
 18 19  1  0
 19 20  2  0
 20 21  1  0
 21 22  2  0
 22 23  1  0
 23 24  1  0
 23 25  2  0
 25  2  1  0
 17  6  1  0
 25 19  1  0
  4 26  1  0
  7 27  1  0
  8 28  1  0
 10 29  1  0
 14 30  1  0
 17 31  1  0
 20 32  1  0
 21 33  1  0
 22 34  1  0
 24 35  1  0
M  END
>  <meeko>  (3) 
{"is_sidechain": [false], "free_energy": -9.448, "intermolecular_energy": -11.622, "internal_energy": -0.656}

$$$$
cand_008_out
     RDKit          3D

 35 37  0  0  0  0  0  0  0  0999 V2000
   21.3660  -25.0210   41.2230 O   0  0  0  0  0  0  0  0  0  0  0  0
   21.6940  -26.2050   41.1860 C   0  0  0  0  0  0  0  0  0  0  0  0
   21.1280  -27.1090   40.1580 C   0  0  0  0  0  0  0  0  0  0  0  0
   20.2190  -26.5620   39.2700 O   0  0  0  0  0  0  0  0  0  0  0  0
   21.5110  -28.3990   40.1540 C   0  0  0  0  0  0  0  0  0  0  0  0
   21.0030  -29.3910   39.1830 C   0  0  0  0  0  0  0  0  0  0  0  0
   21.4740  -29.4420   37.8670 C   0  0  0  0  0  0  0  0  0  0  0  0
   20.9960  -30.4030   36.9720 C   0  0  0  0  0  0  0  0  0  0  0  0
   20.0350  -31.3450   37.3720 C   0  0  0  0  0  0  0  0  0  0  0  0
   19.5410  -32.3760   36.3810 C   0  0  0  0  0  0  0  0  0  0  0  0
   19.6940  -33.6580   36.8210 F   0  0  0  0  0  0  0  0  0  0  0  0
   20.2160  -32.3170   35.1990 F   0  0  0  0  0  0  0  0  0  0  0  0
   19.5670  -31.3230   38.7050 C   0  0  0  0  0  0  0  0  0  0  0  0
   18.5350  -32.3170   39.1910 C   0  0  0  0  0  0  0  0  0  0  0  0
   19.0140  -33.1000   40.1990 F   0  0  0  0  0  0  0  0  0  0  0  0
   17.4170  -31.7230   39.6980 F   0  0  0  0  0  0  0  0  0  0  0  0
   20.0540  -30.3420   39.5900 C   0  0  0  0  0  0  0  0  0  0  0  0
   22.4040  -28.9450   41.0680 O   0  0  0  0  0  0  0  0  0  0  0  0
   22.9500  -28.1310   42.0280 C   0  0  0  0  0  0  0  0  0  0  0  0
   23.8510  -28.7190   42.9180 C   0  0  0  0  0  0  0  0  0  0  0  0
   24.4420  -27.9470   43.9200 C   0  0  0  0  0  0  0  0  0  0  0  0
   24.1340  -26.5890   44.0320 C   0  0  0  0  0  0  0  0  0  0  0  0
   23.2360  -26.0060   43.1430 C   0  0  0  0  0  0  0  0  0  0  0  0
   22.9790  -24.6730   43.3100 O   0  0  0  0  0  0  0  0  0  0  0  0
   22.6440  -26.7780   42.1390 C   0  0  0  0  0  0  0  0  0  0  0  0
   19.3290  -26.8540   39.2710 H   0  0  0  0  0  0  0  0  0  0  0  0
   22.2301  -28.7166   37.5323 H   0  0  0  0  0  0  0  0  0  0  0  0
   21.3778  -30.4216   35.9405 H   0  0  0  0  0  0  0  0  0  0  0  0
   18.4761  -32.1307   36.2556 H   0  0  0  0  0  0  0  0  0  0  0  0
   18.2924  -32.9055   38.2939 H   0  0  0  0  0  0  0  0  0  0  0  0
   19.6819  -30.3203   40.6249 H   0  0  0  0  0  0  0  0  0  0  0  0
   24.0946  -29.7881   42.8299 H   0  0  0  0  0  0  0  0  0  0  0  0
   25.1514  -28.4089   44.6225 H   0  0  0  0  0  0  0  0  0  0  0  0
   24.6005  -25.9816   44.8216 H   0  0  0  0  0  0  0  0  0  0  0  0
   22.4660  -24.2130   42.6750 H   0  0  0  0  0  0  0  0  0  0  0  0
  1  2  2  0
  2  3  1  0
  3  4  1  0
  3  5  2  0
  5  6  1  0
  6  7  2  0
  7  8  1  0
  8  9  2  0
  9 10  1  0
 10 11  1  0
 10 12  1  0
  9 13  1  0
 13 14  1  0
 14 15  1  0
 14 16  1  0
 13 17  2  0
  5 18  1  0
 18 19  1  0
 19 20  2  0
 20 21  1  0
 21 22  2  0
 22 23  1  0
 23 24  1  0
 23 25  2  0
 25  2  1  0
 17  6  1  0
 25 19  1  0
  4 26  1  0
  7 27  1  0
  8 28  1  0
 10 29  1  0
 14 30  1  0
 17 31  1  0
 20 32  1  0
 21 33  1  0
 22 34  1  0
 24 35  1  0
M  END
>  <meeko>  (4) 
{"is_sidechain": [false], "free_energy": -9.23, "intermolecular_energy": -11.5, "internal_energy": -0.51}

$$$$
cand_008_out
     RDKit          3D

 35 37  0  0  0  0  0  0  0  0999 V2000
   18.6680  -33.9430   38.0160 O   0  0  0  0  0  0  0  0  0  0  0  0
   19.3270  -32.9470   37.7260 C   0  0  0  0  0  0  0  0  0  0  0  0
   19.7730  -32.0070   38.7810 C   0  0  0  0  0  0  0  0  0  0  0  0
   19.4010  -32.2970   40.0810 O   0  0  0  0  0  0  0  0  0  0  0  0
   20.4920  -30.9280   38.4190 C   0  0  0  0  0  0  0  0  0  0  0  0
   20.9780  -29.9190   39.3840 C   0  0  0  0  0  0  0  0  0  0  0  0
   22.2800  -29.9540   39.8920 C   0  0  0  0  0  0  0  0  0  0  0  0
   22.7270  -28.9770   40.7860 C   0  0  0  0  0  0  0  0  0  0  0  0
   21.8820  -27.9320   41.1930 C   0  0  0  0  0  0  0  0  0  0  0  0
   22.3950  -26.8870   42.1580 C   0  0  0  0  0  0  0  0  0  0  0  0
   22.6400  -25.6840   41.5650 F   0  0  0  0  0  0  0  0  0  0  0  0
   23.5760  -27.2540   42.7310 F   0  0  0  0  0  0  0  0  0  0  0  0
   20.5710  -27.8680   40.6700 C   0  0  0  0  0  0  0  0  0  0  0  0
   19.6190  -26.7630   41.0700 C   0  0  0  0  0  0  0  0  0  0  0  0
   18.5090  -26.7310   40.2790 F   0  0  0  0  0  0  0  0  0  0  0  0
   19.1480  -26.8960   42.3430 F   0  0  0  0  0  0  0  0  0  0  0  0
   20.1360  -28.8670   39.7770 C   0  0  0  0  0  0  0  0  0  0  0  0
   20.8360  -30.6300   37.1060 O   0  0  0  0  0  0  0  0  0  0  0  0
   20.4430  -31.4860   36.1080 C   0  0  0  0  0  0  0  0  0  0  0  0
   20.8210  -31.1540   34.8050 C   0  0  0  0  0  0  0  0  0  0  0  0
   20.4530  -31.9810   33.7430 C   0  0  0  0  0  0  0  0  0  0  0  0
   19.7090  -33.1390   33.9810 C   0  0  0  0  0  0  0  0  0  0  0  0
   19.3340  -33.4670   35.2810 C   0  0  0  0  0  0  0  0  0  0  0  0
   18.6060  -34.6130   35.4440 O   0  0  0  0  0  0  0  0  0  0  0  0
   19.7020  -32.6390   36.3460 C   0  0  0  0  0  0  0  0  0  0  0  0
   18.4950  -32.3350   40.3120 H   0  0  0  0  0  0  0  0  0  0  0  0
   22.9614  -30.7608   39.5842 H   0  0  0  0  0  0  0  0  0  0  0  0
   23.7543  -29.0274   41.1759 H   0  0  0  0  0  0  0  0  0  0  0  0
   21.5895  -26.7981   42.9018 H   0  0  0  0  0  0  0  0  0  0  0  0
   20.2215  -25.8482   40.9691 H   0  0  0  0  0  0  0  0  0  0  0  0
   19.1119  -28.8215   39.3781 H   0  0  0  0  0  0  0  0  0  0  0  0
   21.4075  -30.2427   34.6164 H   0  0  0  0  0  0  0  0  0  0  0  0
   20.7494  -31.7204   32.7162 H   0  0  0  0  0  0  0  0  0  0  0  0
   19.4200  -33.7904   33.1430 H   0  0  0  0  0  0  0  0  0  0  0  0
   17.8580  -34.6170   36.0080 H   0  0  0  0  0  0  0  0  0  0  0  0
  1  2  2  0
  2  3  1  0
  3  4  1  0
  3  5  2  0
  5  6  1  0
  6  7  2  0
  7  8  1  0
  8  9  2  0
  9 10  1  0
 10 11  1  0
 10 12  1  0
  9 13  1  0
 13 14  1  0
 14 15  1  0
 14 16  1  0
 13 17  2  0
  5 18  1  0
 18 19  1  0
 19 20  2  0
 20 21  1  0
 21 22  2  0
 22 23  1  0
 23 24  1  0
 23 25  2  0
 25  2  1  0
 17  6  1  0
 25 19  1  0
  4 26  1  0
  7 27  1  0
  8 28  1  0
 10 29  1  0
 14 30  1  0
 17 31  1  0
 20 32  1  0
 21 33  1  0
 22 34  1  0
 24 35  1  0
M  END
>  <meeko>  (5) 
{"is_sidechain": [false], "free_energy": -8.784, "intermolecular_energy": -10.809, "internal_energy": -0.65}

$$$$
cand_008_out
     RDKit          3D

 35 37  0  0  0  0  0  0  0  0999 V2000
   18.7250  -34.2230   37.7580 O   0  0  0  0  0  0  0  0  0  0  0  0
   19.2290  -33.1590   37.4030 C   0  0  0  0  0  0  0  0  0  0  0  0
   19.4650  -32.0750   38.3840 C   0  0  0  0  0  0  0  0  0  0  0  0
   19.0820  -32.3140   39.6920 O   0  0  0  0  0  0  0  0  0  0  0  0
   20.0160  -30.9250   37.9520 C   0  0  0  0  0  0  0  0  0  0  0  0
   20.2860  -29.7740   38.8390 C   0  0  0  0  0  0  0  0  0  0  0  0
   19.3800  -28.7160   38.9670 C   0  0  0  0  0  0  0  0  0  0  0  0
   19.6440  -27.6470   39.8270 C   0  0  0  0  0  0  0  0  0  0  0  0
   20.8220  -27.6090   40.5890 C   0  0  0  0  0  0  0  0  0  0  0  0
   21.0780  -26.4410   41.5150 C   0  0  0  0  0  0  0  0  0  0  0  0
   20.4810  -26.5830   42.7340 F   0  0  0  0  0  0  0  0  0  0  0  0
   20.5950  -25.2710   41.0110 F   0  0  0  0  0  0  0  0  0  0  0  0
   21.7370  -28.6820   40.4900 C   0  0  0  0  0  0  0  0  0  0  0  0
   23.0200  -28.6960   41.2900 C   0  0  0  0  0  0  0  0  0  0  0  0
   22.7970  -28.4990   42.6200 F   0  0  0  0  0  0  0  0  0  0  0  0
   23.6890  -29.8810   41.2100 F   0  0  0  0  0  0  0  0  0  0  0  0
   21.4570  -29.7460   39.6100 C   0  0  0  0  0  0  0  0  0  0  0  0
   20.3710  -30.6840   36.6300 O   0  0  0  0  0  0  0  0  0  0  0  0
   20.1710  -31.6730   35.7000 C   0  0  0  0  0  0  0  0  0  0  0  0
   20.5520  -31.3920   34.3860 C   0  0  0  0  0  0  0  0  0  0  0  0
   20.3750  -32.3530   33.3900 C   0  0  0  0  0  0  0  0  0  0  0  0
   19.8170  -33.5950   33.7060 C   0  0  0  0  0  0  0  0  0  0  0  0
   19.4370  -33.8720   35.0160 C   0  0  0  0  0  0  0  0  0  0  0  0
   18.8970  -35.1050   35.2550 O   0  0  0  0  0  0  0  0  0  0  0  0
   19.6150  -32.9090   36.0140 C   0  0  0  0  0  0  0  0  0  0  0  0
   18.7590  -33.1580   39.9380 H   0  0  0  0  0  0  0  0  0  0  0  0
   18.4478  -28.7257   38.3831 H   0  0  0  0  0  0  0  0  0  0  0  0
   18.9187  -26.8240   39.9080 H   0  0  0  0  0  0  0  0  0  0  0  0
   22.1731  -26.4210   41.6164 H   0  0  0  0  0  0  0  0  0  0  0  0
   23.6133  -27.8818   40.8484 H   0  0  0  0  0  0  0  0  0  0  0  0
   22.1747  -30.5753   39.5256 H   0  0  0  0  0  0  0  0  0  0  0  0
   20.9909  -30.4146   34.1367 H   0  0  0  0  0  0  0  0  0  0  0  0
   20.6750  -32.1329   32.3548 H   0  0  0  0  0  0  0  0  0  0  0  0
   19.6784  -34.3524   32.9205 H   0  0  0  0  0  0  0  0  0  0  0  0
   19.3290  -35.8740   34.9390 H   0  0  0  0  0  0  0  0  0  0  0  0
  1  2  2  0
  2  3  1  0
  3  4  1  0
  3  5  2  0
  5  6  1  0
  6  7  2  0
  7  8  1  0
  8  9  2  0
  9 10  1  0
 10 11  1  0
 10 12  1  0
  9 13  1  0
 13 14  1  0
 14 15  1  0
 14 16  1  0
 13 17  2  0
  5 18  1  0
 18 19  1  0
 19 20  2  0
 20 21  1  0
 21 22  2  0
 22 23  1  0
 23 24  1  0
 23 25  2  0
 25  2  1  0
 17  6  1  0
 25 19  1  0
  4 26  1  0
  7 27  1  0
  8 28  1  0
 10 29  1  0
 14 30  1  0
 17 31  1  0
 20 32  1  0
 21 33  1  0
 22 34  1  0
 24 35  1  0
M  END
>  <meeko>  (6) 
{"is_sidechain": [false], "free_energy": -8.737, "intermolecular_energy": -10.907, "internal_energy": -0.495}

$$$$
cand_008_out
     RDKit          3D

 35 37  0  0  0  0  0  0  0  0999 V2000
   24.3400  -28.6850   43.6060 O   0  0  0  0  0  0  0  0  0  0  0  0
   23.3920  -28.3050   42.9210 C   0  0  0  0  0  0  0  0  0  0  0  0
   23.0450  -29.0050   41.6620 C   0  0  0  0  0  0  0  0  0  0  0  0
   23.8390  -30.0790   41.2990 O   0  0  0  0  0  0  0  0  0  0  0  0
   22.0020  -28.5540   40.9420 C   0  0  0  0  0  0  0  0  0  0  0  0
   21.5740  -29.1670   39.6660 C   0  0  0  0  0  0  0  0  0  0  0  0
   22.0350  -28.6960   38.4330 C   0  0  0  0  0  0  0  0  0  0  0  0
   21.6350  -29.3030   37.2390 C   0  0  0  0  0  0  0  0  0  0  0  0
   20.7650  -30.4050   37.2480 C   0  0  0  0  0  0  0  0  0  0  0  0
   20.3540  -31.0430   35.9400 C   0  0  0  0  0  0  0  0  0  0  0  0
   21.3880  -31.1800   35.0610 F   0  0  0  0  0  0  0  0  0  0  0  0
   19.4160  -30.3070   35.2810 F   0  0  0  0  0  0  0  0  0  0  0  0
   20.3090  -30.9080   38.4870 C   0  0  0  0  0  0  0  0  0  0  0  0
   19.3740  -32.0950   38.5560 C   0  0  0  0  0  0  0  0  0  0  0  0
   19.9760  -33.1910   39.0980 F   0  0  0  0  0  0  0  0  0  0  0  0
   18.2760  -31.8680   39.3320 F   0  0  0  0  0  0  0  0  0  0  0  0
   20.7160  -30.2770   39.6780 C   0  0  0  0  0  0  0  0  0  0  0  0
   21.2280  -27.4570   41.3010 O   0  0  0  0  0  0  0  0  0  0  0  0
   21.5200  -26.7920   42.4650 C   0  0  0  0  0  0  0  0  0  0  0  0
   20.7100  -25.7040   42.7920 C   0  0  0  0  0  0  0  0  0  0  0  0
   20.9540  -24.9830   43.9630 C   0  0  0  0  0  0  0  0  0  0  0  0
   22.0060  -25.3500   44.8060 C   0  0  0  0  0  0  0  0  0  0  0  0
   22.8120  -26.4360   44.4770 C   0  0  0  0  0  0  0  0  0  0  0  0
   23.8240  -26.7400   45.3440 O   0  0  0  0  0  0  0  0  0  0  0  0
   22.5680  -27.1580   43.3040 C   0  0  0  0  0  0  0  0  0  0  0  0
   24.0080  -30.2510   40.3950 H   0  0  0  0  0  0  0  0  0  0  0  0
   22.7212  -27.8368   38.4021 H   0  0  0  0  0  0  0  0  0  0  0  0
   22.0066  -28.9123   36.2802 H   0  0  0  0  0  0  0  0  0  0  0  0
   19.9644  -32.0268   36.2405 H   0  0  0  0  0  0  0  0  0  0  0  0
   19.0844  -32.2623   37.5081 H   0  0  0  0  0  0  0  0  0  0  0  0
   20.3524  -30.6637   40.6414 H   0  0  0  0  0  0  0  0  0  0  0  0
   19.8812  -25.4148   42.1291 H   0  0  0  0  0  0  0  0  0  0  0  0
   20.3168  -24.1246   44.2221 H   0  0  0  0  0  0  0  0  0  0  0  0
   22.1970  -24.7816   45.7282 H   0  0  0  0  0  0  0  0  0  0  0  0
   24.0640  -27.6340   45.4880 H   0  0  0  0  0  0  0  0  0  0  0  0
  1  2  2  0
  2  3  1  0
  3  4  1  0
  3  5  2  0
  5  6  1  0
  6  7  2  0
  7  8  1  0
  8  9  2  0
  9 10  1  0
 10 11  1  0
 10 12  1  0
  9 13  1  0
 13 14  1  0
 14 15  1  0
 14 16  1  0
 13 17  2  0
  5 18  1  0
 18 19  1  0
 19 20  2  0
 20 21  1  0
 21 22  2  0
 22 23  1  0
 23 24  1  0
 23 25  2  0
 25  2  1  0
 17  6  1  0
 25 19  1  0
  4 26  1  0
  7 27  1  0
  8 28  1  0
 10 29  1  0
 14 30  1  0
 17 31  1  0
 20 32  1  0
 21 33  1  0
 22 34  1  0
 24 35  1  0
M  END
>  <meeko>  (7) 
{"is_sidechain": [false], "free_energy": -8.718, "intermolecular_energy": -10.74, "internal_energy": -0.638}

$$$$
cand_008_out
     RDKit          3D

 35 37  0  0  0  0  0  0  0  0999 V2000
   23.7630  -28.5860   41.9310 O   0  0  0  0  0  0  0  0  0  0  0  0
   22.6540  -28.5730   41.4010 C   0  0  0  0  0  0  0  0  0  0  0  0
   22.2900  -29.5960   40.3940 C   0  0  0  0  0  0  0  0  0  0  0  0
   23.2510  -30.5400   40.0790 O   0  0  0  0  0  0  0  0  0  0  0  0
   21.0660  -29.5440   39.8370 C   0  0  0  0  0  0  0  0  0  0  0  0
   20.6000  -30.5040   38.8150 C   0  0  0  0  0  0  0  0  0  0  0  0
   20.7570  -30.2580   37.4470 C   0  0  0  0  0  0  0  0  0  0  0  0
   20.3290  -31.1890   36.4980 C   0  0  0  0  0  0  0  0  0  0  0  0
   19.7340  -32.3990   36.8910 C   0  0  0  0  0  0  0  0  0  0  0  0
   19.2850  -33.3890   35.8400 C   0  0  0  0  0  0  0  0  0  0  0  0
   20.0050  -34.5480   35.8540 F   0  0  0  0  0  0  0  0  0  0  0  0
   19.4210  -32.8950   34.5780 F   0  0  0  0  0  0  0  0  0  0  0  0
   19.5900  -32.6740   38.2700 C   0  0  0  0  0  0  0  0  0  0  0  0
   18.9600  -33.9620   38.7510 C   0  0  0  0  0  0  0  0  0  0  0  0
   19.8440  -35.0010   38.7380 F   0  0  0  0  0  0  0  0  0  0  0  0
   18.5100  -33.8910   40.0360 F   0  0  0  0  0  0  0  0  0  0  0  0
   20.0200  -31.7190   39.2120 C   0  0  0  0  0  0  0  0  0  0  0  0
   20.1170  -28.5740   40.1400 O   0  0  0  0  0  0  0  0  0  0  0  0
   20.4230  -27.6170   41.0740 C   0  0  0  0  0  0  0  0  0  0  0  0
   19.4360  -26.6700   41.3570 C   0  0  0  0  0  0  0  0  0  0  0  0
   19.6830  -25.6680   42.2960 C   0  0  0  0  0  0  0  0  0  0  0  0
   20.9150  -25.6120   42.9540 C   0  0  0  0  0  0  0  0  0  0  0  0
   21.8960  -26.5570   42.6700 C   0  0  0  0  0  0  0  0  0  0  0  0
   23.0780  -26.4430   43.3490 O   0  0  0  0  0  0  0  0  0  0  0  0
   21.6490  -27.5610   41.7290 C   0  0  0  0  0  0  0  0  0  0  0  0
   24.1520  -30.3710   40.2680 H   0  0  0  0  0  0  0  0  0  0  0  0
   21.2236  -29.3191   37.1143 H   0  0  0  0  0  0  0  0  0  0  0  0
   20.4598  -30.9715   35.4277 H   0  0  0  0  0  0  0  0  0  0  0  0
   18.2315  -33.5805   36.0921 H   0  0  0  0  0  0  0  0  0  0  0  0
   18.1257  -34.1235   38.0525 H   0  0  0  0  0  0  0  0  0  0  0  0
   19.8983  -31.9305   40.2846 H   0  0  0  0  0  0  0  0  0  0  0  0
   18.4658  -26.7141   40.8405 H   0  0  0  0  0  0  0  0  0  0  0  0
   18.9070  -24.9209   42.5189 H   0  0  0  0  0  0  0  0  0  0  0  0
   21.1086  -24.8223   43.6949 H   0  0  0  0  0  0  0  0  0  0  0  0
   23.8860  -26.3910   42.8760 H   0  0  0  0  0  0  0  0  0  0  0  0
  1  2  2  0
  2  3  1  0
  3  4  1  0
  3  5  2  0
  5  6  1  0
  6  7  2  0
  7  8  1  0
  8  9  2  0
  9 10  1  0
 10 11  1  0
 10 12  1  0
  9 13  1  0
 13 14  1  0
 14 15  1  0
 14 16  1  0
 13 17  2  0
  5 18  1  0
 18 19  1  0
 19 20  2  0
 20 21  1  0
 21 22  2  0
 22 23  1  0
 23 24  1  0
 23 25  2  0
 25  2  1  0
 17  6  1  0
 25 19  1  0
  4 26  1  0
  7 27  1  0
  8 28  1  0
 10 29  1  0
 14 30  1  0
 17 31  1  0
 20 32  1  0
 21 33  1  0
 22 34  1  0
 24 35  1  0
M  END
>  <meeko>  (8) 
{"is_sidechain": [false], "free_energy": -8.524, "intermolecular_energy": -10.479, "internal_energy": -0.659}

$$$$
cand_008_out
     RDKit          3D

 35 37  0  0  0  0  0  0  0  0999 V2000
   20.8450  -28.0850   36.3840 O   0  0  0  0  0  0  0  0  0  0  0  0
   20.7560  -28.5860   37.5030 C   0  0  0  0  0  0  0  0  0  0  0  0
   21.0600  -27.7840   38.7110 C   0  0  0  0  0  0  0  0  0  0  0  0
   21.4550  -26.4730   38.5140 O   0  0  0  0  0  0  0  0  0  0  0  0
   20.9530  -28.3720   39.9170 C   0  0  0  0  0  0  0  0  0  0  0  0
   21.2430  -27.6730   41.1870 C   0  0  0  0  0  0  0  0  0  0  0  0
   20.3300  -26.7830   41.7620 C   0  0  0  0  0  0  0  0  0  0  0  0
   20.6150  -26.1500   42.9750 C   0  0  0  0  0  0  0  0  0  0  0  0
   21.8210  -26.3940   43.6500 C   0  0  0  0  0  0  0  0  0  0  0  0
   22.0980  -25.6970   44.9640 C   0  0  0  0  0  0  0  0  0  0  0  0
   21.0310  -24.9870   45.4300 F   0  0  0  0  0  0  0  0  0  0  0  0
   23.1150  -24.7950   44.8620 F   0  0  0  0  0  0  0  0  0  0  0  0
   22.7430  -27.3100   43.0950 C   0  0  0  0  0  0  0  0  0  0  0  0
   24.0560  -27.6140   43.7810 C   0  0  0  0  0  0  0  0  0  0  0  0
   24.6250  -28.7620   43.3130 F   0  0  0  0  0  0  0  0  0  0  0  0
   24.9970  -26.6450   43.5930 F   0  0  0  0  0  0  0  0  0  0  0  0
   22.4420  -27.9310   41.8680 C   0  0  0  0  0  0  0  0  0  0  0  0
   20.5820  -29.6990   40.1030 O   0  0  0  0  0  0  0  0  0  0  0  0
   20.2880  -30.4640   39.0030 C   0  0  0  0  0  0  0  0  0  0  0  0
   19.9090  -31.7880   39.2370 C   0  0  0  0  0  0  0  0  0  0  0  0
   19.5970  -32.6220   38.1620 C   0  0  0  0  0  0  0  0  0  0  0  0
   19.6620  -32.1340   36.8540 C   0  0  0  0  0  0  0  0  0  0  0  0
   20.0410  -30.8140   36.6240 C   0  0  0  0  0  0  0  0  0  0  0  0
   20.0850  -30.4020   35.3210 O   0  0  0  0  0  0  0  0  0  0  0  0
   20.3530  -29.9780   37.7010 C   0  0  0  0  0  0  0  0  0  0  0  0
   22.0240  -26.2570   37.8020 H   0  0  0  0  0  0  0  0  0  0  0  0
   19.3762  -26.5788   41.2534 H   0  0  0  0  0  0  0  0  0  0  0  0
   19.8838  -25.4507   43.4067 H   0  0  0  0  0  0  0  0  0  0  0  0
   22.3482  -26.5198   45.6499 H   0  0  0  0  0  0  0  0  0  0  0  0
   23.7843  -27.6936   44.8439 H   0  0  0  0  0  0  0  0  0  0  0  0
   23.1651  -28.6362   41.4323 H   0  0  0  0  0  0  0  0  0  0  0  0
   19.8565  -32.1726   40.2662 H   0  0  0  0  0  0  0  0  0  0  0  0
   19.2995  -33.6651   38.3447 H   0  0  0  0  0  0  0  0  0  0  0  0
   19.4142  -32.7915   36.0077 H   0  0  0  0  0  0  0  0  0  0  0  0
   20.8580  -29.9900   34.9870 H   0  0  0  0  0  0  0  0  0  0  0  0
  1  2  2  0
  2  3  1  0
  3  4  1  0
  3  5  2  0
  5  6  1  0
  6  7  2  0
  7  8  1  0
  8  9  2  0
  9 10  1  0
 10 11  1  0
 10 12  1  0
  9 13  1  0
 13 14  1  0
 14 15  1  0
 14 16  1  0
 13 17  2  0
  5 18  1  0
 18 19  1  0
 19 20  2  0
 20 21  1  0
 21 22  2  0
 22 23  1  0
 23 24  1  0
 23 25  2  0
 25  2  1  0
 17  6  1  0
 25 19  1  0
  4 26  1  0
  7 27  1  0
  8 28  1  0
 10 29  1  0
 14 30  1  0
 17 31  1  0
 20 32  1  0
 21 33  1  0
 22 34  1  0
 24 35  1  0
M  END
>  <meeko>  (9) 
{"is_sidechain": [false], "free_energy": -8.483, "intermolecular_energy": -10.434, "internal_energy": -0.654}

$$$$
