cand_022_out
     RDKit          3D

 41 43  0  0  0  0  0  0  0  0999 V2000
   25.0170  -30.4170   43.7870 C   0  0  0  0  0  0  0  0  0  0  0  0
   24.3500  -29.8770   42.5320 C   0  0  0  0  0  0  0  0  0  0  0  0
   23.8470  -28.4480   42.7390 C   0  0  0  0  0  0  0  0  0  0  0  0
   22.7460  -28.0940   41.7620 C   0  0  0  0  0  0  0  0  0  0  0  0
   22.2940  -29.0940   40.8780 C   0  0  0  0  0  0  0  0  0  0  0  0
   21.2930  -28.8430   39.9280 C   0  0  0  0  0  0  0  0  0  0  0  0
   20.7990  -29.8970   39.0190 C   0  0  0  0  0  0  0  0  0  0  0  0
   20.0980  -30.8980   39.6810 O   0  0  0  0  0  0  0  0  0  0  0  0
   19.5830  -31.9400   38.9540 C   0  0  0  0  0  0  0  0  0  0  0  0
   18.9000  -32.9300   39.6620 C   0  0  0  0  0  0  0  0  0  0  0  0
   18.3490  -34.0180   38.9810 C   0  0  0  0  0  0  0  0  0  0  0  0
   18.4810  -34.1170   37.5940 C   0  0  0  0  0  0  0  0  0  0  0  0
   19.1630  -33.1280   36.8910 C   0  0  0  0  0  0  0  0  0  0  0  0
   19.2550  -33.2860   35.5350 O   0  0  0  0  0  0  0  0  0  0  0  0
   19.7150  -32.0390   37.5730 C   0  0  0  0  0  0  0  0  0  0  0  0
   20.4400  -30.9780   36.8710 C   0  0  0  0  0  0  0  0  0  0  0  0
   20.5910  -30.9910   35.6510 O   0  0  0  0  0  0  0  0  0  0  0  0
   20.9920  -29.8730   37.6860 C   0  0  0  0  0  0  0  0  0  0  0  0
   21.6630  -28.8690   37.0120 O   0  0  0  0  0  0  0  0  0  0  0  0
   20.7300  -27.5630   39.8840 C   0  0  0  0  0  0  0  0  0  0  0  0
   21.1700  -26.5590   40.7500 C   0  0  0  0  0  0  0  0  0  0  0  0
   22.1830  -26.8060   41.6880 C   0  0  0  0  0  0  0  0  0  0  0  0
   22.6170  -25.6920   42.6010 C   0  0  0  0  0  0  0  0  0  0  0  0
   24.5125  -30.0086   44.6751 H   0  0  0  0  0  0  0  0  0  0  0  0
   24.9454  -31.5146   43.7970 H   0  0  0  0  0  0  0  0  0  0  0  0
   26.0757  -30.1185   43.7970 H   0  0  0  0  0  0  0  0  0  0  0  0
   25.0786  -29.8842   41.7080 H   0  0  0  0  0  0  0  0  0  0  0  0
   23.4873  -30.5171   42.2954 H   0  0  0  0  0  0  0  0  0  0  0  0
   23.4586  -28.3519   43.7637 H   0  0  0  0  0  0  0  0  0  0  0  0
   24.6890  -27.7606   42.5700 H   0  0  0  0  0  0  0  0  0  0  0  0
   22.7382  -30.0987   40.9345 H   0  0  0  0  0  0  0  0  0  0  0  0
   18.7958  -32.8536   40.7544 H   0  0  0  0  0  0  0  0  0  0  0  0
   17.8100  -34.7984   39.5382 H   0  0  0  0  0  0  0  0  0  0  0  0
   18.0471  -34.9744   37.0586 H   0  0  0  0  0  0  0  0  0  0  0  0
   19.2620  -34.1460   35.1640 H   0  0  0  0  0  0  0  0  0  0  0  0
   21.1860  -28.2560   36.4880 H   0  0  0  0  0  0  0  0  0  0  0  0
   19.9318  -27.3447   39.1593 H   0  0  0  0  0  0  0  0  0  0  0  0
   20.7148  -25.5591   40.6954 H   0  0  0  0  0  0  0  0  0  0  0  0
   22.4943  -26.0070   43.6478 H   0  0  0  0  0  0  0  0  0  0  0  0
   23.6739  -25.4533   42.4114 H   0  0  0  0  0  0  0  0  0  0  0  0
   22.0002  -24.8012   42.4114 H   0  0  0  0  0  0  0  0  0  0  0  0
  1  2  1  0
  2  3  1  0
  3  4  1  0
  4  5  2  0
  5  6  1  0
  6  7  1  0
  7  8  1  0
  8  9  1  0
  9 10  2  0
 10 11  1  0
 11 12  2  0
 12 13  1  0
 13 14  1  0
 13 15  2  0
 15 16  1  0
 16 17  2  0
 16 18  1  0
 18 19  1  0
  6 20  2  0
 20 21  1  0
 21 22  2  0
 22 23  1  0
 22  4  1  0
 18  7  2  0
 15  9  1  0
  1 24  1  0
  1 25  1  0
  1 26  1  0
  2 27  1  0
  2 28  1  0
  3 29  1  0
  3 30  1  0
  5 31  1  0
 10 32  1  0
 11 33  1  0
 12 34  1  0
 14 35  1  0
 19 36  1  0
 20 37  1  0
 21 38  1  0
 23 39  1  0
 23 40  1  0
 23 41  1  0
M  END
>  <meeko>  (1) 
{"is_sidechain": [false], "free_energy": -9.238, "intermolecular_energy": -11.398, "internal_energy": -0.494}

$$$$
cand_022_out
     RDKit          3D

 41 43  0  0  0  0  0  0  0  0999 V2000
   19.8460  -24.8690   43.5440 C   0  0  0  0  0  0  0  0  0  0  0  0
   20.2020  -26.0820   42.7000 C   0  0  0  0  0  0  0  0  0  0  0  0
   21.6070  -25.9570   42.1080 C   0  0  0  0  0  0  0  0  0  0  0  0
   22.1870  -27.3090   41.7540 C   0  0  0  0  0  0  0  0  0  0  0  0
   21.5580  -28.0600   40.7400 C   0  0  0  0  0  0  0  0  0  0  0  0
   22.0200  -29.3310   40.3680 C   0  0  0  0  0  0  0  0  0  0  0  0
   21.3780  -30.1080   39.2880 C   0  0  0  0  0  0  0  0  0  0  0  0
   20.5940  -31.1510   39.7660 O   0  0  0  0  0  0  0  0  0  0  0  0
   19.9390  -31.9540   38.8670 C   0  0  0  0  0  0  0  0  0  0  0  0
   19.1750  -32.9990   39.3900 C   0  0  0  0  0  0  0  0  0  0  0  0
   18.4810  -33.8530   38.5300 C   0  0  0  0  0  0  0  0  0  0  0  0
   18.5500  -33.6630   37.1480 C   0  0  0  0  0  0  0  0  0  0  0  0
   19.3120  -32.6190   36.6290 C   0  0  0  0  0  0  0  0  0  0  0  0
   19.3360  -32.4890   35.2680 O   0  0  0  0  0  0  0  0  0  0  0  0
   20.0070  -31.7650   37.4900 C   0  0  0  0  0  0  0  0  0  0  0  0
   20.8200  -30.6570   36.9860 C   0  0  0  0  0  0  0  0  0  0  0  0
   20.9240  -30.4210   35.7840 O   0  0  0  0  0  0  0  0  0  0  0  0
   21.5230  -29.8160   37.9810 C   0  0  0  0  0  0  0  0  0  0  0  0
   22.2770  -28.7640   37.4950 O   0  0  0  0  0  0  0  0  0  0  0  0
   23.1470  -29.8420   41.0190 C   0  0  0  0  0  0  0  0  0  0  0  0
   23.7810  -29.1130   42.0290 C   0  0  0  0  0  0  0  0  0  0  0  0
   23.3080  -27.8500   42.4140 C   0  0  0  0  0  0  0  0  0  0  0  0
   24.0280  -27.1040   43.5030 C   0  0  0  0  0  0  0  0  0  0  0  0
   19.9223  -25.1289   44.6101 H   0  0  0  0  0  0  0  0  0  0  0  0
   20.5408  -24.0472   43.3163 H   0  0  0  0  0  0  0  0  0  0  0  0
   18.8172  -24.5530   43.3163 H   0  0  0  0  0  0  0  0  0  0  0  0
   20.1581  -26.9822   43.3307 H   0  0  0  0  0  0  0  0  0  0  0  0
   19.4819  -26.1506   41.8713 H   0  0  0  0  0  0  0  0  0  0  0  0
   21.5570  -25.3411   41.1980 H   0  0  0  0  0  0  0  0  0  0  0  0
   22.2574  -25.4918   42.8633 H   0  0  0  0  0  0  0  0  0  0  0  0
   20.6814  -27.6378   40.2269 H   0  0  0  0  0  0  0  0  0  0  0  0
   19.1197  -33.1495   40.4782 H   0  0  0  0  0  0  0  0  0  0  0  0
   17.8791  -34.6765   38.9417 H   0  0  0  0  0  0  0  0  0  0  0  0
   18.0038  -34.3363   36.4710 H   0  0  0  0  0  0  0  0  0  0  0  0
   19.0670  -31.6840   34.8700 H   0  0  0  0  0  0  0  0  0  0  0  0
   23.2070  -28.8490   37.4200 H   0  0  0  0  0  0  0  0  0  0  0  0
   23.5392  -30.8291   40.7330 H   0  0  0  0  0  0  0  0  0  0  0  0
   24.6644  -29.5362   42.5295 H   0  0  0  0  0  0  0  0  0  0  0  0
   23.6820  -27.4625   44.4837 H   0  0  0  0  0  0  0  0  0  0  0  0
   25.1106  -27.2756   43.4110 H   0  0  0  0  0  0  0  0  0  0  0  0
   23.8181  -26.0281   43.4110 H   0  0  0  0  0  0  0  0  0  0  0  0
  1  2  1  0
  2  3  1  0
  3  4  1  0
  4  5  2  0
  5  6  1  0
  6  7  1  0
  7  8  1  0
  8  9  1  0
  9 10  2  0
 10 11  1  0
 11 12  2  0
 12 13  1  0
 13 14  1  0
 13 15  2  0
 15 16  1  0
 16 17  2  0
 16 18  1  0
 18 19  1  0
  6 20  2  0
 20 21  1  0
 21 22  2  0
 22 23  1  0
 22  4  1  0
 18  7  2  0
 15  9  1  0
  1 24  1  0
  1 25  1  0
  1 26  1  0
  2 27  1  0
  2 28  1  0
  3 29  1  0
  3 30  1  0
  5 31  1  0
 10 32  1  0
 11 33  1  0
 12 34  1  0
 14 35  1  0
 19 36  1  0
 20 37  1  0
 21 38  1  0
 23 39  1  0
 23 40  1  0
 23 41  1  0
M  END
>  <meeko>  (2) 
{"is_sidechain": [false], "free_energy": -9.031, "intermolecular_energy": -11.071, "internal_energy": -0.566}

$$$$
cand_022_out
     RDKit          3D

 41 43  0  0  0  0  0  0  0  0999 V2000
   18.5390  -34.5780   39.3530 C   0  0  0  0  0  0  0  0  0  0  0  0
   18.9930  -33.2230   39.8720 C   0  0  0  0  0  0  0  0  0  0  0  0
   18.4650  -32.0850   38.9970 C   0  0  0  0  0  0  0  0  0  0  0  0
   19.5700  -31.1390   38.5800 C   0  0  0  0  0  0  0  0  0  0  0  0
   20.0310  -30.1960   39.5220 C   0  0  0  0  0  0  0  0  0  0  0  0
   21.0360  -29.2710   39.2090 C   0  0  0  0  0  0  0  0  0  0  0  0
   21.5390  -28.3000   40.2020 C   0  0  0  0  0  0  0  0  0  0  0  0
   22.4260  -28.8650   41.1110 O   0  0  0  0  0  0  0  0  0  0  0  0
   22.9690  -28.0720   42.0890 C   0  0  0  0  0  0  0  0  0  0  0  0
   23.8430  -28.6850   42.9880 C   0  0  0  0  0  0  0  0  0  0  0  0
   24.4320  -27.9350   44.0080 C   0  0  0  0  0  0  0  0  0  0  0  0
   24.1490  -26.5720   44.1290 C   0  0  0  0  0  0  0  0  0  0  0  0
   23.2770  -25.9640   43.2300 C   0  0  0  0  0  0  0  0  0  0  0  0
   23.0430  -24.6270   43.4040 O   0  0  0  0  0  0  0  0  0  0  0  0
   22.6860  -26.7160   42.2100 C   0  0  0  0  0  0  0  0  0  0  0  0
   21.7640  -26.1150   41.2450 C   0  0  0  0  0  0  0  0  0  0  0  0
   21.4710  -24.9210   41.2810 O   0  0  0  0  0  0  0  0  0  0  0  0
   21.1870  -27.0000   40.2080 C   0  0  0  0  0  0  0  0  0  0  0  0
   20.3270  -26.4190   39.2930 O   0  0  0  0  0  0  0  0  0  0  0  0
   21.5970  -29.3110   37.9280 C   0  0  0  0  0  0  0  0  0  0  0  0
   21.1490  -30.2360   36.9810 C   0  0  0  0  0  0  0  0  0  0  0  0
   20.1310  -31.1500   37.2890 C   0  0  0  0  0  0  0  0  0  0  0  0
   19.6880  -32.1290   36.2360 C   0  0  0  0  0  0  0  0  0  0  0  0
   18.3170  -35.2405   40.2026 H   0  0  0  0  0  0  0  0  0  0  0  0
   17.6341  -34.4516   38.7404 H   0  0  0  0  0  0  0  0  0  0  0  0
   19.3374  -35.0223   38.7404 H   0  0  0  0  0  0  0  0  0  0  0  0
   18.6190  -33.0889   40.8977 H   0  0  0  0  0  0  0  0  0  0  0  0
   20.0924  -33.1947   39.8507 H   0  0  0  0  0  0  0  0  0  0  0  0
   18.0038  -32.5137   38.0951 H   0  0  0  0  0  0  0  0  0  0  0  0
   17.7296  -31.5150   39.5837 H   0  0  0  0  0  0  0  0  0  0  0  0
   19.5897  -30.1864   40.5296 H   0  0  0  0  0  0  0  0  0  0  0  0
   24.0676  -29.7576   42.8932 H   0  0  0  0  0  0  0  0  0  0  0  0
   25.1200  -28.4180   44.7175 H   0  0  0  0  0  0  0  0  0  0  0  0
   24.6138  -25.9812   44.9321 H   0  0  0  0  0  0  0  0  0  0  0  0
   23.7200  -24.0740   43.7410 H   0  0  0  0  0  0  0  0  0  0  0  0
   19.4670  -26.1600   39.5580 H   0  0  0  0  0  0  0  0  0  0  0  0
   22.3994  -28.6067   37.6633 H   0  0  0  0  0  0  0  0  0  0  0  0
   21.6019  -30.2473   35.9786 H   0  0  0  0  0  0  0  0  0  0  0  0
   19.2808  -33.0289   36.7201 H   0  0  0  0  0  0  0  0  0  0  0  0
   18.9114  -31.6667   35.6090 H   0  0  0  0  0  0  0  0  0  0  0  0
   20.5479  -32.4072   35.6090 H   0  0  0  0  0  0  0  0  0  0  0  0
  1  2  1  0
  2  3  1  0
  3  4  1  0
  4  5  2  0
  5  6  1  0
  6  7  1  0
  7  8  1  0
  8  9  1  0
  9 10  2  0
 10 11  1  0
 11 12  2  0
 12 13  1  0
 13 14  1  0
 13 15  2  0
 15 16  1  0
 16 17  2  0
 16 18  1  0
 18 19  1  0
  6 20  2  0
 20 21  1  0
 21 22  2  0
 22 23  1  0
 22  4  1  0
 18  7  2  0
 15  9  1  0
  1 24  1  0
  1 25  1  0
  1 26  1  0
  2 27  1  0
  2 28  1  0
  3 29  1  0
  3 30  1  0
  5 31  1  0
 10 32  1  0
 11 33  1  0
 12 34  1  0
 14 35  1  0
 19 36  1  0
 20 37  1  0
 21 38  1  0
 23 39  1  0
 23 40  1  0
 23 41  1  0
M  END
>  <meeko>  (3) 
{"is_sidechain": [false], "free_energy": -9.023, "intermolecular_energy": -10.998, "internal_energy": -0.628}

$$$$
cand_022_out
     RDKit          3D

 41 43  0  0  0  0  0  0  0  0999 V2000
   19.6430  -24.4220   40.1560 C   0  0  0  0  0  0  0  0  0  0  0  0
   19.0110  -25.8040   40.1860 C   0  0  0  0  0  0  0  0  0  0  0  0
   19.5420  -26.6360   41.3550 C   0  0  0  0  0  0  0  0  0  0  0  0
   20.5250  -27.6900   40.8910 C   0  0  0  0  0  0  0  0  0  0  0  0
   20.0700  -28.6760   39.9920 C   0  0  0  0  0  0  0  0  0  0  0  0
   20.9100  -29.6990   39.5320 C   0  0  0  0  0  0  0  0  0  0  0  0
   20.4430  -30.7170   38.5690 C   0  0  0  0  0  0  0  0  0  0  0  0
   19.9800  -31.8730   39.1870 O   0  0  0  0  0  0  0  0  0  0  0  0
   19.5150  -32.9020   38.4070 C   0  0  0  0  0  0  0  0  0  0  0  0
   19.0730  -34.0490   39.0690 C   0  0  0  0  0  0  0  0  0  0  0  0
   18.5870  -35.1320   38.3350 C   0  0  0  0  0  0  0  0  0  0  0  0
   18.5400  -35.0690   36.9400 C   0  0  0  0  0  0  0  0  0  0  0  0
   18.9800  -33.9240   36.2830 C   0  0  0  0  0  0  0  0  0  0  0  0
   18.9070  -33.9280   34.9170 O   0  0  0  0  0  0  0  0  0  0  0  0
   19.4690  -32.8390   37.0180 C   0  0  0  0  0  0  0  0  0  0  0  0
   19.9420  -31.6170   36.3660 C   0  0  0  0  0  0  0  0  0  0  0  0
   19.9250  -31.4830   35.1440 O   0  0  0  0  0  0  0  0  0  0  0  0
   20.4470  -30.5300   37.2360 C   0  0  0  0  0  0  0  0  0  0  0  0
   20.8790  -29.3750   36.6100 O   0  0  0  0  0  0  0  0  0  0  0  0
   22.2370  -29.7160   39.9750 C   0  0  0  0  0  0  0  0  0  0  0  0
   22.7030  -28.7490   40.8700 C   0  0  0  0  0  0  0  0  0  0  0  0
   21.8570  -27.7350   41.3450 C   0  0  0  0  0  0  0  0  0  0  0  0
   22.4090  -26.7160   42.3030 C   0  0  0  0  0  0  0  0  0  0  0  0
   19.8040  -24.0700   41.1856 H   0  0  0  0  0  0  0  0  0  0  0  0
   20.6080  -24.4714   39.6303 H   0  0  0  0  0  0  0  0  0  0  0  0
   18.9744  -23.7244   39.6303 H   0  0  0  0  0  0  0  0  0  0  0  0
   17.9211  -25.6968   40.2891 H   0  0  0  0  0  0  0  0  0  0  0  0
   19.2658  -26.3213   39.2493 H   0  0  0  0  0  0  0  0  0  0  0  0
   20.0463  -25.9675   42.0683 H   0  0  0  0  0  0  0  0  0  0  0  0
   18.6899  -27.1462   41.8279 H   0  0  0  0  0  0  0  0  0  0  0  0
   19.0277  -28.6414   39.6422 H   0  0  0  0  0  0  0  0  0  0  0  0
   19.1077  -34.0990   40.1673 H   0  0  0  0  0  0  0  0  0  0  0  0
   18.2403  -36.0368   38.8557 H   0  0  0  0  0  0  0  0  0  0  0  0
   18.1560  -35.9227   36.3623 H   0  0  0  0  0  0  0  0  0  0  0  0
   18.2700  -33.3960   34.4810 H   0  0  0  0  0  0  0  0  0  0  0  0
   21.4720  -28.7980   37.0500 H   0  0  0  0  0  0  0  0  0  0  0  0
   22.9208  -30.4988   39.6150 H   0  0  0  0  0  0  0  0  0  0  0  0
   23.7494  -28.7832   41.2074 H   0  0  0  0  0  0  0  0  0  0  0  0
   22.2289  -27.0485   43.3360 H   0  0  0  0  0  0  0  0  0  0  0  0
   23.4907  -26.6048   42.1369 H   0  0  0  0  0  0  0  0  0  0  0  0
   21.9113  -25.7492   42.1369 H   0  0  0  0  0  0  0  0  0  0  0  0
  1  2  1  0
  2  3  1  0
  3  4  1  0
  4  5  2  0
  5  6  1  0
  6  7  1  0
  7  8  1  0
  8  9  1  0
  9 10  2  0
 10 11  1  0
 11 12  2  0
 12 13  1  0
 13 14  1  0
 13 15  2  0
 15 16  1  0
 16 17  2  0
 16 18  1  0
 18 19  1  0
  6 20  2  0
 20 21  1  0
 21 22  2  0
 22 23  1  0
 22  4  1  0
 18  7  2  0
 15  9  1  0
  1 24  1  0
  1 25  1  0
  1 26  1  0
  2 27  1  0
  2 28  1  0
  3 29  1  0
  3 30  1  0
  5 31  1  0
 10 32  1  0
 11 33  1  0
 12 34  1  0
 14 35  1  0
 19 36  1  0
 20 37  1  0
 21 38  1  0
 23 39  1  0
 23 40  1  0
 23 41  1  0
M  END
>  <meeko>  (4) 
{"is_sidechain": [false], "free_energy": -8.848, "intermolecular_energy": -10.73, "internal_energy": -0.68}

$$$$
cand_022_out
     RDKit          3D

 41 43  0  0  0  0  0  0  0  0999 V2000
   25.2060  -29.7070   43.9080 C   0  0  0  0  0  0  0  0  0  0  0  0
   24.2860  -28.7190   44.6080 C   0  0  0  0  0  0  0  0  0  0  0  0
   24.2760  -27.3660   43.8950 C   0  0  0  0  0  0  0  0  0  0  0  0
   22.9440  -27.0940   43.2290 C   0  0  0  0  0  0  0  0  0  0  0  0
   22.6450  -27.7790   42.0340 C   0  0  0  0  0  0  0  0  0  0  0  0
   21.4430  -27.5680   41.3430 C   0  0  0  0  0  0  0  0  0  0  0  0
   21.1160  -28.3050   40.1060 C   0  0  0  0  0  0  0  0  0  0  0  0
   20.7140  -29.6140   40.3460 O   0  0  0  0  0  0  0  0  0  0  0  0
   20.3810  -30.4110   39.2800 C   0  0  0  0  0  0  0  0  0  0  0  0
   19.9980  -31.7230   39.5670 C   0  0  0  0  0  0  0  0  0  0  0  0
   19.6440  -32.5870   38.5290 C   0  0  0  0  0  0  0  0  0  0  0  0
   19.6710  -32.1410   37.2050 C   0  0  0  0  0  0  0  0  0  0  0  0
   20.0530  -30.8320   36.9230 C   0  0  0  0  0  0  0  0  0  0  0  0
   20.0580  -30.4600   35.6070 O   0  0  0  0  0  0  0  0  0  0  0  0
   20.4080  -29.9670   37.9630 C   0  0  0  0  0  0  0  0  0  0  0  0
   20.8160  -28.5840   37.7090 C   0  0  0  0  0  0  0  0  0  0  0  0
   20.8580  -28.1170   36.5730 O   0  0  0  0  0  0  0  0  0  0  0  0
   21.1800  -27.7530   38.8790 C   0  0  0  0  0  0  0  0  0  0  0  0
   21.5510  -26.4450   38.6290 O   0  0  0  0  0  0  0  0  0  0  0  0
   20.5220  -26.6620   41.8800 C   0  0  0  0  0  0  0  0  0  0  0  0
   20.8050  -25.9700   43.0610 C   0  0  0  0  0  0  0  0  0  0  0  0
   22.0150  -26.1680   43.7420 C   0  0  0  0  0  0  0  0  0  0  0  0
   22.2690  -25.4030   45.0120 C   0  0  0  0  0  0  0  0  0  0  0  0
   25.7531  -30.2946   44.6599 H   0  0  0  0  0  0  0  0  0  0  0  0
   24.6079  -30.3826   43.2789 H   0  0  0  0  0  0  0  0  0  0  0  0
   25.9225  -29.1585   43.2789 H   0  0  0  0  0  0  0  0  0  0  0  0
   23.2642  -29.1262   44.6177 H   0  0  0  0  0  0  0  0  0  0  0  0
   24.6552  -28.5679   45.6331 H   0  0  0  0  0  0  0  0  0  0  0  0
   24.4748  -26.5735   44.6315 H   0  0  0  0  0  0  0  0  0  0  0  0
   25.0520  -27.3834   43.1155 H   0  0  0  0  0  0  0  0  0  0  0  0
   23.3740  -28.4984   41.6326 H   0  0  0  0  0  0  0  0  0  0  0  0
   19.9753  -32.0750   40.6089 H   0  0  0  0  0  0  0  0  0  0  0  0
   19.3432  -33.6209   38.7539 H   0  0  0  0  0  0  0  0  0  0  0  0
   19.3913  -32.8221   36.3878 H   0  0  0  0  0  0  0  0  0  0  0  0
   19.2920  -30.5880   35.0810 H   0  0  0  0  0  0  0  0  0  0  0  0
   22.4430  -26.1810   38.7400 H   0  0  0  0  0  0  0  0  0  0  0  0
   19.5640  -26.4923   41.3668 H   0  0  0  0  0  0  0  0  0  0  0  0
   20.0675  -25.2593   43.4624 H   0  0  0  0  0  0  0  0  0  0  0  0
   22.0550  -26.0475   45.8773 H   0  0  0  0  0  0  0  0  0  0  0  0
   23.3213  -25.0840   45.0437 H   0  0  0  0  0  0  0  0  0  0  0  0
   21.6165  -24.5180   45.0437 H   0  0  0  0  0  0  0  0  0  0  0  0
  1  2  1  0
  2  3  1  0
  3  4  1  0
  4  5  2  0
  5  6  1  0
  6  7  1  0
  7  8  1  0
  8  9  1  0
  9 10  2  0
 10 11  1  0
 11 12  2  0
 12 13  1  0
 13 14  1  0
 13 15  2  0
 15 16  1  0
 16 17  2  0
 16 18  1  0
 18 19  1  0
  6 20  2  0
 20 21  1  0
 21 22  2  0
 22 23  1  0
 22  4  1  0
 18  7  2  0
 15  9  1  0
  1 24  1  0
  1 25  1  0
  1 26  1  0
  2 27  1  0
  2 28  1  0
  3 29  1  0
  3 30  1  0
  5 31  1  0
 10 32  1  0
 11 33  1  0
 12 34  1  0
 14 35  1  0
 19 36  1  0
 20 37  1  0
 21 38  1  0
 23 39  1  0
 23 40  1  0
 23 41  1  0
M  END
>  <meeko>  (5) 
{"is_sidechain": [false], "free_energy": -8.79, "intermolecular_energy": -10.731, "internal_energy": -0.608}

$$$$
cand_022_out
     RDKit          3D

 41 43  0  0  0  0  0  0  0  0999 V2000
   18.5620  -33.8480   39.7570 C   0  0  0  0  0  0  0  0  0  0  0  0
   19.3320  -32.5370   39.7340 C   0  0  0  0  0  0  0  0  0  0  0  0
   19.6720  -32.1160   38.3030 C   0  0  0  0  0  0  0  0  0  0  0  0
   20.4750  -30.8330   38.2730 C   0  0  0  0  0  0  0  0  0  0  0  0
   20.8740  -30.2680   39.5010 C   0  0  0  0  0  0  0  0  0  0  0  0
   21.6010  -29.0710   39.5620 C   0  0  0  0  0  0  0  0  0  0  0  0
   22.0440  -28.4910   40.8460 C   0  0  0  0  0  0  0  0  0  0  0  0
   21.2680  -27.4100   41.2480 O   0  0  0  0  0  0  0  0  0  0  0  0
   21.5710  -26.7770   42.4260 C   0  0  0  0  0  0  0  0  0  0  0  0
   20.7750  -25.6870   42.7830 C   0  0  0  0  0  0  0  0  0  0  0  0
   21.0290  -24.9990   43.9710 C   0  0  0  0  0  0  0  0  0  0  0  0
   22.0770  -25.4000   44.8030 C   0  0  0  0  0  0  0  0  0  0  0  0
   22.8680  -26.4890   44.4450 C   0  0  0  0  0  0  0  0  0  0  0  0
   23.8760  -26.8290   45.3050 O   0  0  0  0  0  0  0  0  0  0  0  0
   22.6150  -27.1760   43.2550 C   0  0  0  0  0  0  0  0  0  0  0  0
   23.4240  -28.3250   42.8420 C   0  0  0  0  0  0  0  0  0  0  0  0
   24.3570  -28.7420   43.5240 O   0  0  0  0  0  0  0  0  0  0  0  0
   23.0770  -28.9790   41.5590 C   0  0  0  0  0  0  0  0  0  0  0  0
   23.8390  -30.0710   41.1850 O   0  0  0  0  0  0  0  0  0  0  0  0
   21.9450  -28.4440   38.3590 C   0  0  0  0  0  0  0  0  0  0  0  0
   21.5520  -28.9880   37.1330 C   0  0  0  0  0  0  0  0  0  0  0  0
   20.8090  -30.1760   37.0730 C   0  0  0  0  0  0  0  0  0  0  0  0
   20.4160  -30.7230   35.7290 C   0  0  0  0  0  0  0  0  0  0  0  0
   18.3843  -34.1506   40.7995 H   0  0  0  0  0  0  0  0  0  0  0  0
   17.5979  -33.7160   39.2441 H   0  0  0  0  0  0  0  0  0  0  0  0
   19.1468  -34.6258   39.2441 H   0  0  0  0  0  0  0  0  0  0  0  0
   18.7184  -31.7530   40.2018 H   0  0  0  0  0  0  0  0  0  0  0  0
   20.2725  -32.6775   40.2869 H   0  0  0  0  0  0  0  0  0  0  0  0
   20.2586  -32.9150   37.8261 H   0  0  0  0  0  0  0  0  0  0  0  0
   18.7293  -31.9434   37.7630 H   0  0  0  0  0  0  0  0  0  0  0  0
   20.6076  -30.7804   40.4372 H   0  0  0  0  0  0  0  0  0  0  0  0
   19.9489  -25.3707   42.1292 H   0  0  0  0  0  0  0  0  0  0  0  0
   20.4027  -24.1396   44.2524 H   0  0  0  0  0  0  0  0  0  0  0  0
   22.2770  -24.8571   45.7385 H   0  0  0  0  0  0  0  0  0  0  0  0
   24.5280  -27.4480   45.0400 H   0  0  0  0  0  0  0  0  0  0  0  0
   23.5520  -30.6250   40.4860 H   0  0  0  0  0  0  0  0  0  0  0  0
   22.5309  -27.5132   38.3786 H   0  0  0  0  0  0  0  0  0  0  0  0
   21.8300  -28.4760   36.1999 H   0  0  0  0  0  0  0  0  0  0  0  0
   19.7792  -31.6094   35.8658 H   0  0  0  0  0  0  0  0  0  0  0  0
   19.8612  -29.9559   35.1689 H   0  0  0  0  0  0  0  0  0  0  0  0
   21.3200  -31.0040   35.1689 H   0  0  0  0  0  0  0  0  0  0  0  0
  1  2  1  0
  2  3  1  0
  3  4  1  0
  4  5  2  0
  5  6  1  0
  6  7  1  0
  7  8  1  0
  8  9  1  0
  9 10  2  0
 10 11  1  0
 11 12  2  0
 12 13  1  0
 13 14  1  0
 13 15  2  0
 15 16  1  0
 16 17  2  0
 16 18  1  0
 18 19  1  0
  6 20  2  0
 20 21  1  0
 21 22  2  0
 22 23  1  0
 22  4  1  0
 18  7  2  0
 15  9  1  0
  1 24  1  0
  1 25  1  0
  1 26  1  0
  2 27  1  0
  2 28  1  0
  3 29  1  0
  3 30  1  0
  5 31  1  0
 10 32  1  0
 11 33  1  0
 12 34  1  0
 14 35  1  0
 19 36  1  0
 20 37  1  0
 21 38  1  0
 23 39  1  0
 23 40  1  0
 23 41  1  0
M  END
>  <meeko>  (6) 
{"is_sidechain": [false], "free_energy": -8.614, "intermolecular_energy": -10.575, "internal_energy": -0.547}

$$$$
cand_022_out
     RDKit          3D

 41 43  0  0  0  0  0  0  0  0999 V2000
   24.5260  -30.2920   42.7860 C   0  0  0  0  0  0  0  0  0  0  0  0
   23.7660  -29.8860   41.5330 C   0  0  0  0  0  0  0  0  0  0  0  0
   23.0400  -28.5540   41.7280 C   0  0  0  0  0  0  0  0  0  0  0  0
   21.7830  -28.4740   40.8890 C   0  0  0  0  0  0  0  0  0  0  0  0
   21.5160  -29.5230   39.9860 C   0  0  0  0  0  0  0  0  0  0  0  0
   20.3850  -29.5150   39.1580 C   0  0  0  0  0  0  0  0  0  0  0  0
   20.0900  -30.6260   38.2310 C   0  0  0  0  0  0  0  0  0  0  0  0
   20.4930  -30.3640   36.9260 O   0  0  0  0  0  0  0  0  0  0  0  0
   20.2780  -31.3150   35.9610 C   0  0  0  0  0  0  0  0  0  0  0  0
   20.6840  -31.0030   34.6630 C   0  0  0  0  0  0  0  0  0  0  0  0
   20.4960  -31.9280   33.6340 C   0  0  0  0  0  0  0  0  0  0  0  0
   19.9030  -33.1640   33.9010 C   0  0  0  0  0  0  0  0  0  0  0  0
   19.4990  -33.4720   35.1980 C   0  0  0  0  0  0  0  0  0  0  0  0
   18.9250  -34.6990   35.3910 O   0  0  0  0  0  0  0  0  0  0  0  0
   19.6860  -32.5450   36.2280 C   0  0  0  0  0  0  0  0  0  0  0  0
   19.2750  -32.8300   37.6040 C   0  0  0  0  0  0  0  0  0  0  0  0
   18.7530  -33.8970   37.9190 O   0  0  0  0  0  0  0  0  0  0  0  0
   19.5120  -31.7790   38.6190 C   0  0  0  0  0  0  0  0  0  0  0  0
   19.1310  -32.0630   39.9180 O   0  0  0  0  0  0  0  0  0  0  0  0
   19.5010  -28.4350   39.2560 C   0  0  0  0  0  0  0  0  0  0  0  0
   19.7530  -27.3840   40.1420 C   0  0  0  0  0  0  0  0  0  0  0  0
   20.8940  -27.3840   40.9580 C   0  0  0  0  0  0  0  0  0  0  0  0
   21.1160  -26.2320   41.8980 C   0  0  0  0  0  0  0  0  0  0  0  0
   23.9555  -29.9872   43.6758 H   0  0  0  0  0  0  0  0  0  0  0  0
   24.6629  -31.3834   42.7943 H   0  0  0  0  0  0  0  0  0  0  0  0
   25.5093  -29.7990   42.7943 H   0  0  0  0  0  0  0  0  0  0  0  0
   24.4769  -29.7875   40.6993 H   0  0  0  0  0  0  0  0  0  0  0  0
   23.0158  -30.6609   41.3167 H   0  0  0  0  0  0  0  0  0  0  0  0
   22.7681  -28.4480   42.7886 H   0  0  0  0  0  0  0  0  0  0  0  0
   23.7156  -27.7456   41.4118 H   0  0  0  0  0  0  0  0  0  0  0  0
   22.2143  -30.3711   39.9296 H   0  0  0  0  0  0  0  0  0  0  0  0
   21.1513  -30.0301   34.4507 H   0  0  0  0  0  0  0  0  0  0  0  0
   20.8158  -31.6826   32.6105 H   0  0  0  0  0  0  0  0  0  0  0  0
   19.7555  -33.8919   33.0896 H   0  0  0  0  0  0  0  0  0  0  0  0
   17.9990  -34.8030   35.2900 H   0  0  0  0  0  0  0  0  0  0  0  0
   18.2350  -31.9680   40.1760 H   0  0  0  0  0  0  0  0  0  0  0  0
   18.5976  -28.4129   38.6287 H   0  0  0  0  0  0  0  0  0  0  0  0
   19.0456  -26.5437   40.2004 H   0  0  0  0  0  0  0  0  0  0  0  0
   21.0474  -26.5878   42.9366 H   0  0  0  0  0  0  0  0  0  0  0  0
   22.1134  -25.8026   41.7226 H   0  0  0  0  0  0  0  0  0  0  0  0
   20.3496  -25.4627   41.7226 H   0  0  0  0  0  0  0  0  0  0  0  0
  1  2  1  0
  2  3  1  0
  3  4  1  0
  4  5  2  0
  5  6  1  0
  6  7  1  0
  7  8  1  0
  8  9  1  0
  9 10  2  0
 10 11  1  0
 11 12  2  0
 12 13  1  0
 13 14  1  0
 13 15  2  0
 15 16  1  0
 16 17  2  0
 16 18  1  0
 18 19  1  0
  6 20  2  0
 20 21  1  0
 21 22  2  0
 22 23  1  0
 22  4  1  0
 18  7  2  0
 15  9  1  0
  1 24  1  0
  1 25  1  0
  1 26  1  0
  2 27  1  0
  2 28  1  0
  3 29  1  0
  3 30  1  0
  5 31  1  0
 10 32  1  0
 11 33  1  0
 12 34  1  0
 14 35  1  0
 19 36  1  0
 20 37  1  0
 21 38  1  0
 23 39  1  0
 23 40  1  0
 23 41  1  0
M  END
>  <meeko>  (7) 
{"is_sidechain": [false], "free_energy": -8.473, "intermolecular_energy": -10.372, "internal_energy": -0.575}

$$$$
cand_022_out
     RDKit          3D

 41 43  0  0  0  0  0  0  0  0999 V2000
   24.0560  -29.2740   42.5860 C   0  0  0  0  0  0  0  0  0  0  0  0
   23.1730  -29.2190   41.3500 C   0  0  0  0  0  0  0  0  0  0  0  0
   22.2920  -27.9680   41.3480 C   0  0  0  0  0  0  0  0  0  0  0  0
   21.0370  -28.1680   40.5260 C   0  0  0  0  0  0  0  0  0  0  0  0
   21.0320  -29.1910   39.5560 C   0  0  0  0  0  0  0  0  0  0  0  0
   19.9170  -29.4280   38.7390 C   0  0  0  0  0  0  0  0  0  0  0  0
   19.9000  -30.5160   37.7400 C   0  0  0  0  0  0  0  0  0  0  0  0
   19.3360  -31.6890   38.2280 O   0  0  0  0  0  0  0  0  0  0  0  0
   19.2570  -32.7810   37.4010 C   0  0  0  0  0  0  0  0  0  0  0  0
   18.6960  -33.9410   37.9370 C   0  0  0  0  0  0  0  0  0  0  0  0
   18.5850  -35.0890   37.1490 C   0  0  0  0  0  0  0  0  0  0  0  0
   19.0320  -35.0760   35.8260 C   0  0  0  0  0  0  0  0  0  0  0  0
   19.5900  -33.9170   35.2940 C   0  0  0  0  0  0  0  0  0  0  0  0
   20.0080  -33.9730   33.9930 O   0  0  0  0  0  0  0  0  0  0  0  0
   19.7030  -32.7690   36.0840 C   0  0  0  0  0  0  0  0  0  0  0  0
   20.2840  -31.5290   35.5640 C   0  0  0  0  0  0  0  0  0  0  0  0
   20.6930  -31.4380   34.4080 O   0  0  0  0  0  0  0  0  0  0  0  0
   20.3640  -30.3730   36.4840 C   0  0  0  0  0  0  0  0  0  0  0  0
   20.9020  -29.2030   35.9780 O   0  0  0  0  0  0  0  0  0  0  0  0
   18.7840  -28.6280   38.9190 C   0  0  0  0  0  0  0  0  0  0  0  0
   18.7740  -27.6070   39.8720 C   0  0  0  0  0  0  0  0  0  0  0  0
   19.8950  -27.3580   40.6770 C   0  0  0  0  0  0  0  0  0  0  0  0
   19.8320  -26.2510   41.6930 C   0  0  0  0  0  0  0  0  0  0  0  0
   23.4273  -29.2348   43.4878 H   0  0  0  0  0  0  0  0  0  0  0  0
   24.6340  -30.2099   42.5823 H   0  0  0  0  0  0  0  0  0  0  0  0
   24.7457  -28.4171   42.5823 H   0  0  0  0  0  0  0  0  0  0  0  0
   23.8115  -29.2084   40.4543 H   0  0  0  0  0  0  0  0  0  0  0  0
   22.5185  -30.1031   41.3527 H   0  0  0  0  0  0  0  0  0  0  0  0
   22.0059  -27.7319   42.3836 H   0  0  0  0  0  0  0  0  0  0  0  0
   22.8674  -27.1443   40.9002 H   0  0  0  0  0  0  0  0  0  0  0  0
   21.9265  -29.8201   39.4368 H   0  0  0  0  0  0  0  0  0  0  0  0
   18.3418  -33.9513   38.9784 H   0  0  0  0  0  0  0  0  0  0  0  0
   18.1449  -36.0045   37.5711 H   0  0  0  0  0  0  0  0  0  0  0  0
   18.9433  -35.9799   35.2055 H   0  0  0  0  0  0  0  0  0  0  0  0
   20.5330  -34.6920   33.7000 H   0  0  0  0  0  0  0  0  0  0  0  0
   20.4460  -28.7270   35.3130 H   0  0  0  0  0  0  0  0  0  0  0  0
   17.8902  -28.8050   38.3027 H   0  0  0  0  0  0  0  0  0  0  0  0
   17.8725  -26.9884   39.9931 H   0  0  0  0  0  0  0  0  0  0  0  0
   19.8565  -26.6806   42.7053 H   0  0  0  0  0  0  0  0  0  0  0  0
   20.6934  -25.5803   41.5584 H   0  0  0  0  0  0  0  0  0  0  0  0
   18.9000  -25.6824   41.5584 H   0  0  0  0  0  0  0  0  0  0  0  0
  1  2  1  0
  2  3  1  0
  3  4  1  0
  4  5  2  0
  5  6  1  0
  6  7  1  0
  7  8  1  0
  8  9  1  0
  9 10  2  0
 10 11  1  0
 11 12  2  0
 12 13  1  0
 13 14  1  0
 13 15  2  0
 15 16  1  0
 16 17  2  0
 16 18  1  0
 18 19  1  0
  6 20  2  0
 20 21  1  0
 21 22  2  0
 22 23  1  0
 22  4  1  0
 18  7  2  0
 15  9  1  0
  1 24  1  0
  1 25  1  0
  1 26  1  0
  2 27  1  0
  2 28  1  0
  3 29  1  0
  3 30  1  0
  5 31  1  0
 10 32  1  0
 11 33  1  0
 12 34  1  0
 14 35  1  0
 19 36  1  0
 20 37  1  0
 21 38  1  0
 23 39  1  0
 23 40  1  0
 23 41  1  0
M  END
>  <meeko>  (8) 
{"is_sidechain": [false], "free_energy": -8.391, "intermolecular_energy": -10.258, "internal_energy": -0.588}

$$$$
cand_022_out
     RDKit          3D

 41 43  0  0  0  0  0  0  0  0999 V2000
   20.6760  -22.8370   42.6310 C   0  0  0  0  0  0  0  0  0  0  0  0
   19.4730  -23.7670   42.6240 C   0  0  0  0  0  0  0  0  0  0  0  0
   19.6700  -24.9410   43.5850 C   0  0  0  0  0  0  0  0  0  0  0  0
   20.7210  -25.9070   43.0820 C   0  0  0  0  0  0  0  0  0  0  0  0
   20.4410  -26.6490   41.9160 C   0  0  0  0  0  0  0  0  0  0  0  0
   21.3510  -27.5790   41.3960 C   0  0  0  0  0  0  0  0  0  0  0  0
   21.0700  -28.3380   40.1600 C   0  0  0  0  0  0  0  0  0  0  0  0
   20.6350  -29.6340   40.4090 O   0  0  0  0  0  0  0  0  0  0  0  0
   20.3380  -30.4490   39.3460 C   0  0  0  0  0  0  0  0  0  0  0  0
   19.9190  -31.7480   39.6410 C   0  0  0  0  0  0  0  0  0  0  0  0
   19.5990  -32.6280   38.6060 C   0  0  0  0  0  0  0  0  0  0  0  0
   19.6980  -32.2120   37.2770 C   0  0  0  0  0  0  0  0  0  0  0  0
   20.1160  -30.9170   36.9850 C   0  0  0  0  0  0  0  0  0  0  0  0
   20.1900  -30.5740   35.6630 O   0  0  0  0  0  0  0  0  0  0  0  0
   20.4360  -30.0350   38.0220 C   0  0  0  0  0  0  0  0  0  0  0  0
   20.8810  -28.6650   37.7580 C   0  0  0  0  0  0  0  0  0  0  0  0
   20.9850  -28.2240   36.6160 O   0  0  0  0  0  0  0  0  0  0  0  0
   21.2030  -27.8140   38.9260 C   0  0  0  0  0  0  0  0  0  0  0  0
   21.6090  -26.5180   38.6670 O   0  0  0  0  0  0  0  0  0  0  0  0
   22.5730  -27.7490   42.0570 C   0  0  0  0  0  0  0  0  0  0  0  0
   22.8650  -27.0260   43.2160 C   0  0  0  0  0  0  0  0  0  0  0  0
   21.9460  -26.1080   43.7460 C   0  0  0  0  0  0  0  0  0  0  0  0
   22.3110  -25.3510   44.9930 C   0  0  0  0  0  0  0  0  0  0  0  0
   20.9623  -22.6157   43.6698 H   0  0  0  0  0  0  0  0  0  0  0  0
   21.5173  -23.3219   42.1141 H   0  0  0  0  0  0  0  0  0  0  0  0
   20.4187  -21.9007   42.1141 H   0  0  0  0  0  0  0  0  0  0  0  0
   18.5808  -23.2005   42.9291 H   0  0  0  0  0  0  0  0  0  0  0  0
   19.3514  -24.1684   41.6071 H   0  0  0  0  0  0  0  0  0  0  0  0
   19.9841  -24.5509   44.5644 H   0  0  0  0  0  0  0  0  0  0  0  0
   18.7161  -25.4831   43.6636 H   0  0  0  0  0  0  0  0  0  0  0  0
   19.4818  -26.4934   41.4005 H   0  0  0  0  0  0  0  0  0  0  0  0
   19.8412  -32.0773   40.6877 H   0  0  0  0  0  0  0  0  0  0  0  0
   19.2682  -33.6511   38.8378 H   0  0  0  0  0  0  0  0  0  0  0  0
   19.4461  -32.9066   36.4621 H   0  0  0  0  0  0  0  0  0  0  0  0
   19.6730  -29.8650   35.3330 H   0  0  0  0  0  0  0  0  0  0  0  0
   21.4750  -26.1470   37.8170 H   0  0  0  0  0  0  0  0  0  0  0  0
   23.3119  -28.4601   41.6592 H   0  0  0  0  0  0  0  0  0  0  0  0
   23.8303  -27.1788   43.7208 H   0  0  0  0  0  0  0  0  0  0  0  0
   22.0265  -25.9411   45.8767 H   0  0  0  0  0  0  0  0  0  0  0  0
   23.3958  -25.1692   45.0073 H   0  0  0  0  0  0  0  0  0  0  0  0
   21.7777  -24.3890   45.0073 H   0  0  0  0  0  0  0  0  0  0  0  0
  1  2  1  0
  2  3  1  0
  3  4  1  0
  4  5  2  0
  5  6  1  0
  6  7  1  0
  7  8  1  0
  8  9  1  0
  9 10  2  0
 10 11  1  0
 11 12  2  0
 12 13  1  0
 13 14  1  0
 13 15  2  0
 15 16  1  0
 16 17  2  0
 16 18  1  0
 18 19  1  0
  6 20  2  0
 20 21  1  0
 21 22  2  0
 22 23  1  0
 22  4  1  0
 18  7  2  0
 15  9  1  0
  1 24  1  0
  1 25  1  0
  1 26  1  0
  2 27  1  0
  2 28  1  0
  3 29  1  0
  3 30  1  0
  5 31  1  0
 10 32  1  0
 11 33  1  0
 12 34  1  0
 14 35  1  0
 19 36  1  0
 20 37  1  0
 21 38  1  0
 23 39  1  0
 23 40  1  0
 23 41  1  0
M  END
>  <meeko>  (9) 
{"is_sidechain": [false], "free_energy": -8.024, "intermolecular_energy": -9.659, "internal_energy": -0.735}

$$$$
