cand_014_out
     RDKit          3D

 35 37  0  0  0  0  0  0  0  0999 V2000
   24.0170  -26.9270   43.7060 C   0  0  0  0  0  0  0  0  0  0  0  0
   23.3980  -27.7560   42.6130 C   0  0  0  0  0  0  0  0  0  0  0  0
   22.3420  -27.2150   41.8640 C   0  0  0  0  0  0  0  0  0  0  0  0
   21.7320  -27.9540   40.8490 C   0  0  0  0  0  0  0  0  0  0  0  0
   22.1600  -29.2520   40.5520 C   0  0  0  0  0  0  0  0  0  0  0  0
   21.4890  -30.0240   39.4860 C   0  0  0  0  0  0  0  0  0  0  0  0
   20.6440  -31.0100   39.9810 O   0  0  0  0  0  0  0  0  0  0  0  0
   19.9600  -31.8020   39.0930 C   0  0  0  0  0  0  0  0  0  0  0  0
   19.1360  -32.7910   39.6310 C   0  0  0  0  0  0  0  0  0  0  0  0
   18.4100  -33.6290   38.7830 C   0  0  0  0  0  0  0  0  0  0  0  0
   18.5070  -33.4800   37.3980 C   0  0  0  0  0  0  0  0  0  0  0  0
   19.3310  -32.4920   36.8640 C   0  0  0  0  0  0  0  0  0  0  0  0
   19.3790  -32.4000   35.5000 O   0  0  0  0  0  0  0  0  0  0  0  0
   20.0570  -31.6530   37.7120 C   0  0  0  0  0  0  0  0  0  0  0  0
   20.9340  -30.6030   37.1920 C   0  0  0  0  0  0  0  0  0  0  0  0
   21.0670  -30.4020   35.9860 O   0  0  0  0  0  0  0  0  0  0  0  0
   21.6680  -29.7730   38.1760 C   0  0  0  0  0  0  0  0  0  0  0  0
   22.4830  -28.7750   37.6760 O   0  0  0  0  0  0  0  0  0  0  0  0
   23.2000  -29.8010   41.3150 C   0  0  0  0  0  0  0  0  0  0  0  0
   23.8240  -29.0740   42.3490 C   0  0  0  0  0  0  0  0  0  0  0  0
   24.9580  -29.7160   43.1150 C   0  0  0  0  0  0  0  0  0  0  0  0
   25.6970  -30.5840   42.3660 F   0  0  0  0  0  0  0  0  0  0  0  0
   24.5380  -30.4380   44.1910 F   0  0  0  0  0  0  0  0  0  0  0  0
   23.7172  -27.3285   44.6852 H   0  0  0  0  0  0  0  0  0  0  0  0
   25.1128  -26.9606   43.6158 H   0  0  0  0  0  0  0  0  0  0  0  0
   23.6735  -25.8859   43.6158 H   0  0  0  0  0  0  0  0  0  0  0  0
   21.9903  -26.1953   42.0795 H   0  0  0  0  0  0  0  0  0  0  0  0
   20.9047  -27.5102   40.2758 H   0  0  0  0  0  0  0  0  0  0  0  0
   19.0586  -32.9102   40.7218 H   0  0  0  0  0  0  0  0  0  0  0  0
   17.7599  -34.4086   39.2068 H   0  0  0  0  0  0  0  0  0  0  0  0
   17.9344  -34.1409   36.7306 H   0  0  0  0  0  0  0  0  0  0  0  0
   19.7680  -31.6490   35.0950 H   0  0  0  0  0  0  0  0  0  0  0  0
   22.6780  -28.7440   36.7600 H   0  0  0  0  0  0  0  0  0  0  0  0
   23.5379  -30.8258   41.1013 H   0  0  0  0  0  0  0  0  0  0  0  0
   25.5613  -28.8502   43.4255 H   0  0  0  0  0  0  0  0  0  0  0  0
  1  2  1  0
  2  3  2  0
  3  4  1  0
  4  5  2  0
  5  6  1  0
  6  7  1  0
  7  8  1  0
  8  9  2  0
  9 10  1  0
 10 11  2  0
 11 12  1  0
 12 13  1  0
 12 14  2  0
 14 15  1  0
 15 16  2  0
 15 17  1  0
 17 18  1  0
  5 19  1  0
 19 20  2  0
 20 21  1  0
 21 22  1  0
 21 23  1  0
 20  2  1  0
 17  6  2  0
 14  8  1  0
  1 24  1  0
  1 25  1  0
  1 26  1  0
  3 27  1  0
  4 28  1  0
  9 29  1  0
 10 30  1  0
 11 31  1  0
 13 32  1  0
 18 33  1  0
 19 34  1  0
 21 35  1  0
M  END
>  <meeko>  (1) 
{"is_sidechain": [false], "free_energy": -9.544, "intermolecular_energy": -11.218, "internal_energy": -0.504}

$$$$
cand_014_out
     RDKit          3D

 35 37  0  0  0  0  0  0  0  0999 V2000
   22.5120  -26.8780   42.2370 C   0  0  0  0  0  0  0  0  0  0  0  0
   21.9480  -27.8860   41.2720 C   0  0  0  0  0  0  0  0  0  0  0  0
   22.7740  -28.9220   40.8110 C   0  0  0  0  0  0  0  0  0  0  0  0
   22.2940  -29.8720   39.9060 C   0  0  0  0  0  0  0  0  0  0  0  0
   20.9770  -29.8140   39.4390 C   0  0  0  0  0  0  0  0  0  0  0  0
   20.4950  -30.8180   38.4690 C   0  0  0  0  0  0  0  0  0  0  0  0
   20.0380  -31.9820   39.0750 O   0  0  0  0  0  0  0  0  0  0  0  0
   19.5650  -32.9980   38.2840 C   0  0  0  0  0  0  0  0  0  0  0  0
   19.1320  -34.1560   38.9310 C   0  0  0  0  0  0  0  0  0  0  0  0
   18.6360  -35.2270   38.1850 C   0  0  0  0  0  0  0  0  0  0  0  0
   18.5720  -35.1410   36.7930 C   0  0  0  0  0  0  0  0  0  0  0  0
   19.0050  -33.9850   36.1490 C   0  0  0  0  0  0  0  0  0  0  0  0
   18.9130  -33.9670   34.7840 O   0  0  0  0  0  0  0  0  0  0  0  0
   19.5010  -32.9130   36.8960 C   0  0  0  0  0  0  0  0  0  0  0  0
   19.9660  -31.6800   36.2590 C   0  0  0  0  0  0  0  0  0  0  0  0
   19.9340  -31.5240   35.0400 O   0  0  0  0  0  0  0  0  0  0  0  0
   20.4830  -30.6070   37.1390 C   0  0  0  0  0  0  0  0  0  0  0  0
   20.9070  -29.4410   36.5300 O   0  0  0  0  0  0  0  0  0  0  0  0
   20.1580  -28.7660   39.8830 C   0  0  0  0  0  0  0  0  0  0  0  0
   20.6260  -27.7940   40.7890 C   0  0  0  0  0  0  0  0  0  0  0  0
   19.6820  -26.7050   41.2470 C   0  0  0  0  0  0  0  0  0  0  0  0
   19.1260  -26.9470   42.4690 F   0  0  0  0  0  0  0  0  0  0  0  0
   18.6290  -26.5170   40.4040 F   0  0  0  0  0  0  0  0  0  0  0  0
   22.3247  -27.2127   43.2680 H   0  0  0  0  0  0  0  0  0  0  0  0
   23.5955  -26.7809   42.0741 H   0  0  0  0  0  0  0  0  0  0  0  0
   22.0279  -25.9037   42.0741 H   0  0  0  0  0  0  0  0  0  0  0  0
   23.8129  -28.9872   41.1666 H   0  0  0  0  0  0  0  0  0  0  0  0
   22.9597  -30.6750   39.5567 H   0  0  0  0  0  0  0  0  0  0  0  0
   19.1814  -34.2251   40.0277 H   0  0  0  0  0  0  0  0  0  0  0  0
   18.2951  -36.1401   38.6949 H   0  0  0  0  0  0  0  0  0  0  0  0
   18.1802  -35.9849   36.2062 H   0  0  0  0  0  0  0  0  0  0  0  0
   19.5240  -33.4630   34.2810 H   0  0  0  0  0  0  0  0  0  0  0  0
   21.6570  -28.9850   36.8590 H   0  0  0  0  0  0  0  0  0  0  0  0
   19.1236  -28.7012   39.5144 H   0  0  0  0  0  0  0  0  0  0  0  0
   20.3319  -25.8180   41.2775 H   0  0  0  0  0  0  0  0  0  0  0  0
  1  2  1  0
  2  3  2  0
  3  4  1  0
  4  5  2  0
  5  6  1  0
  6  7  1  0
  7  8  1  0
  8  9  2  0
  9 10  1  0
 10 11  2  0
 11 12  1  0
 12 13  1  0
 12 14  2  0
 14 15  1  0
 15 16  2  0
 15 17  1  0
 17 18  1  0
  5 19  1  0
 19 20  2  0
 20 21  1  0
 21 22  1  0
 21 23  1  0
 20  2  1  0
 17  6  2  0
 14  8  1  0
  1 24  1  0
  1 25  1  0
  1 26  1  0
  3 27  1  0
  4 28  1  0
  9 29  1  0
 10 30  1  0
 11 31  1  0
 13 32  1  0
 18 33  1  0
 19 34  1  0
 21 35  1  0
M  END
>  <meeko>  (2) 
{"is_sidechain": [false], "free_energy": -9.338, "intermolecular_energy": -10.929, "internal_energy": -0.55}

$$$$
cand_014_out
     RDKit          3D

 35 37  0  0  0  0  0  0  0  0999 V2000
   19.6880  -32.2710   36.3300 C   0  0  0  0  0  0  0  0  0  0  0  0
   20.1000  -31.2540   37.3590 C   0  0  0  0  0  0  0  0  0  0  0  0
   21.0180  -30.2550   37.0000 C   0  0  0  0  0  0  0  0  0  0  0  0
   21.4360  -29.2980   37.9270 C   0  0  0  0  0  0  0  0  0  0  0  0
   20.9470  -29.3100   39.2370 C   0  0  0  0  0  0  0  0  0  0  0  0
   21.4150  -28.3000   40.2080 C   0  0  0  0  0  0  0  0  0  0  0  0
   22.3490  -28.8020   41.1060 O   0  0  0  0  0  0  0  0  0  0  0  0
   22.8630  -27.9650   42.0630 C   0  0  0  0  0  0  0  0  0  0  0  0
   23.7840  -28.5140   42.9560 C   0  0  0  0  0  0  0  0  0  0  0  0
   24.3480  -27.7160   43.9530 C   0  0  0  0  0  0  0  0  0  0  0  0
   23.9910  -26.3700   44.0590 C   0  0  0  0  0  0  0  0  0  0  0  0
   23.0720  -25.8250   43.1670 C   0  0  0  0  0  0  0  0  0  0  0  0
   22.7680  -24.5000   43.3260 O   0  0  0  0  0  0  0  0  0  0  0  0
   22.5080  -26.6230   42.1690 C   0  0  0  0  0  0  0  0  0  0  0  0
   21.5370  -26.0900   41.2120 C   0  0  0  0  0  0  0  0  0  0  0  0
   21.1790  -24.9140   41.2330 O   0  0  0  0  0  0  0  0  0  0  0  0
   20.9910  -27.0220   40.1980 C   0  0  0  0  0  0  0  0  0  0  0  0
   20.0860  -26.5060   39.2900 O   0  0  0  0  0  0  0  0  0  0  0  0
   20.0470  -30.3210   39.6030 C   0  0  0  0  0  0  0  0  0  0  0  0
   19.6190  -31.3000   38.6850 C   0  0  0  0  0  0  0  0  0  0  0  0
   18.6270  -32.3460   39.1380 C   0  0  0  0  0  0  0  0  0  0  0  0
   17.4990  -31.8200   39.6960 F   0  0  0  0  0  0  0  0  0  0  0  0
   19.1310  -33.1940   40.0770 F   0  0  0  0  0  0  0  0  0  0  0  0
   19.3212  -33.1764   36.8357 H   0  0  0  0  0  0  0  0  0  0  0  0
   18.8883  -31.8529   35.7009 H   0  0  0  0  0  0  0  0  0  0  0  0
   20.5532  -32.5274   35.7009 H   0  0  0  0  0  0  0  0  0  0  0  0
   21.4138  -30.2254   35.9741 H   0  0  0  0  0  0  0  0  0  0  0  0
   22.1582  -28.5259   37.6233 H   0  0  0  0  0  0  0  0  0  0  0  0
   24.0653  -29.5743   42.8745 H   0  0  0  0  0  0  0  0  0  0  0  0
   25.0749  -28.1482   44.6564 H   0  0  0  0  0  0  0  0  0  0  0  0
   24.4350  -25.7421   44.8455 H   0  0  0  0  0  0  0  0  0  0  0  0
   23.0100  -23.8820   42.6640 H   0  0  0  0  0  0  0  0  0  0  0  0
   19.8580  -25.5980   39.3180 H   0  0  0  0  0  0  0  0  0  0  0  0
   19.6651  -30.3504   40.6342 H   0  0  0  0  0  0  0  0  0  0  0  0
   18.3937  -32.8782   38.2040 H   0  0  0  0  0  0  0  0  0  0  0  0
  1  2  1  0
  2  3  2  0
  3  4  1  0
  4  5  2  0
  5  6  1  0
  6  7  1  0
  7  8  1  0
  8  9  2  0
  9 10  1  0
 10 11  2  0
 11 12  1  0
 12 13  1  0
 12 14  2  0
 14 15  1  0
 15 16  2  0
 15 17  1  0
 17 18  1  0
  5 19  1  0
 19 20  2  0
 20 21  1  0
 21 22  1  0
 21 23  1  0
 20  2  1  0
 17  6  2  0
 14  8  1  0
  1 24  1  0
  1 25  1  0
  1 26  1  0
  3 27  1  0
  4 28  1  0
  9 29  1  0
 10 30  1  0
 11 31  1  0
 13 32  1  0
 18 33  1  0
 19 34  1  0
 21 35  1  0
M  END
>  <meeko>  (3) 
{"is_sidechain": [false], "free_energy": -9.148, "intermolecular_energy": -10.746, "internal_energy": -0.51}

$$$$
cand_014_out
     RDKit          3D

 35 37  0  0  0  0  0  0  0  0999 V2000
   23.9560  -27.1060   43.5260 C   0  0  0  0  0  0  0  0  0  0  0  0
   23.2460  -27.8590   42.4340 C   0  0  0  0  0  0  0  0  0  0  0  0
   23.7490  -29.1030   42.0270 C   0  0  0  0  0  0  0  0  0  0  0  0
   23.1270  -29.8300   41.0080 C   0  0  0  0  0  0  0  0  0  0  0  0
   21.9850  -29.3350   40.3710 C   0  0  0  0  0  0  0  0  0  0  0  0
   21.3530  -30.1110   39.2840 C   0  0  0  0  0  0  0  0  0  0  0  0
   20.5780  -31.1650   39.7520 O   0  0  0  0  0  0  0  0  0  0  0  0
   19.9370  -31.9680   38.8430 C   0  0  0  0  0  0  0  0  0  0  0  0
   19.1830  -33.0260   39.3530 C   0  0  0  0  0  0  0  0  0  0  0  0
   18.5020  -33.8790   38.4820 C   0  0  0  0  0  0  0  0  0  0  0  0
   18.5750  -33.6770   37.1020 C   0  0  0  0  0  0  0  0  0  0  0  0
   19.3280  -32.6210   36.5960 C   0  0  0  0  0  0  0  0  0  0  0  0
   19.3560  -32.4780   35.2360 O   0  0  0  0  0  0  0  0  0  0  0  0
   20.0090  -31.7670   37.4670 C   0  0  0  0  0  0  0  0  0  0  0  0
   20.8110  -30.6450   36.9760 C   0  0  0  0  0  0  0  0  0  0  0  0
   20.9180  -30.3950   35.7770 O   0  0  0  0  0  0  0  0  0  0  0  0
   21.5010  -29.8040   37.9820 C   0  0  0  0  0  0  0  0  0  0  0  0
   22.2460  -28.7390   37.5100 O   0  0  0  0  0  0  0  0  0  0  0  0
   21.4950  -28.0810   40.7630 C   0  0  0  0  0  0  0  0  0  0  0  0
   22.1120  -27.3290   41.7820 C   0  0  0  0  0  0  0  0  0  0  0  0
   21.5160  -25.9960   42.1730 C   0  0  0  0  0  0  0  0  0  0  0  0
   20.6530  -26.0750   43.2260 F   0  0  0  0  0  0  0  0  0  0  0  0
   20.8060  -25.4100   41.1690 F   0  0  0  0  0  0  0  0  0  0  0  0
   23.6126  -27.4702   44.5055 H   0  0  0  0  0  0  0  0  0  0  0  0
   25.0407  -27.2648   43.4354 H   0  0  0  0  0  0  0  0  0  0  0  0
   23.7338  -26.0325   43.4354 H   0  0  0  0  0  0  0  0  0  0  0  0
   24.6452  -29.5123   42.5162 H   0  0  0  0  0  0  0  0  0  0  0  0
   23.5407  -30.8028   40.7037 H   0  0  0  0  0  0  0  0  0  0  0  0
   19.1253  -33.1877   40.4395 H   0  0  0  0  0  0  0  0  0  0  0  0
   17.9066  -34.7121   38.8838 H   0  0  0  0  0  0  0  0  0  0  0  0
   18.0391  -34.3503   36.4169 H   0  0  0  0  0  0  0  0  0  0  0  0
   18.5550  -32.3770   34.7590 H   0  0  0  0  0  0  0  0  0  0  0  0
   21.9030  -28.1910   36.8320 H   0  0  0  0  0  0  0  0  0  0  0  0
   20.6049  -27.6735   40.2613 H   0  0  0  0  0  0  0  0  0  0  0  0
   22.4034  -25.4008   42.4342 H   0  0  0  0  0  0  0  0  0  0  0  0
  1  2  1  0
  2  3  2  0
  3  4  1  0
  4  5  2  0
  5  6  1  0
  6  7  1  0
  7  8  1  0
  8  9  2  0
  9 10  1  0
 10 11  2  0
 11 12  1  0
 12 13  1  0
 12 14  2  0
 14 15  1  0
 15 16  2  0
 15 17  1  0
 17 18  1  0
  5 19  1  0
 19 20  2  0
 20 21  1  0
 21 22  1  0
 21 23  1  0
 20  2  1  0
 17  6  2  0
 14  8  1  0
  1 24  1  0
  1 25  1  0
  1 26  1  0
  3 27  1  0
  4 28  1  0
  9 29  1  0
 10 30  1  0
 11 31  1  0
 13 32  1  0
 18 33  1  0
 19 34  1  0
 21 35  1  0
M  END
>  <meeko>  (4) 
{"is_sidechain": [false], "free_energy": -9.132, "intermolecular_energy": -10.717, "internal_energy": -0.52}

$$$$
cand_014_out
     RDKit          3D

 35 37  0  0  0  0  0  0  0  0999 V2000
   20.0940  -31.3910   36.0300 C   0  0  0  0  0  0  0  0  0  0  0  0
   20.5340  -30.7150   37.3000 C   0  0  0  0  0  0  0  0  0  0  0  0
   21.3580  -29.5830   37.2180 C   0  0  0  0  0  0  0  0  0  0  0  0
   21.7980  -28.9320   38.3730 C   0  0  0  0  0  0  0  0  0  0  0  0
   21.4250  -29.3920   39.6400 C   0  0  0  0  0  0  0  0  0  0  0  0
   21.9160  -28.6990   40.8490 C   0  0  0  0  0  0  0  0  0  0  0  0
   21.1080  -27.6350   41.2300 O   0  0  0  0  0  0  0  0  0  0  0  0
   21.4540  -26.9040   42.3370 C   0  0  0  0  0  0  0  0  0  0  0  0
   20.6260  -25.8330   42.6750 C   0  0  0  0  0  0  0  0  0  0  0  0
   20.9200  -25.0510   43.7930 C   0  0  0  0  0  0  0  0  0  0  0  0
   22.0420  -25.3370   44.5740 C   0  0  0  0  0  0  0  0  0  0  0  0
   22.8670  -26.4060   44.2350 C   0  0  0  0  0  0  0  0  0  0  0  0
   23.9480  -26.6320   45.0420 O   0  0  0  0  0  0  0  0  0  0  0  0
   22.5730  -27.1890   43.1160 C   0  0  0  0  0  0  0  0  0  0  0  0
   23.4140  -28.3210   42.7250 C   0  0  0  0  0  0  0  0  0  0  0  0
   24.4140  -28.6430   43.3650 O   0  0  0  0  0  0  0  0  0  0  0  0
   23.0200  -29.0830   41.5160 C   0  0  0  0  0  0  0  0  0  0  0  0
   23.8130  -30.1580   41.1620 O   0  0  0  0  0  0  0  0  0  0  0  0
   20.6200  -30.5360   39.7220 C   0  0  0  0  0  0  0  0  0  0  0  0
   20.1720  -31.2110   38.5700 C   0  0  0  0  0  0  0  0  0  0  0  0
   19.2840  -32.4240   38.7300 C   0  0  0  0  0  0  0  0  0  0  0  0
   18.3700  -32.3000   39.7350 F   0  0  0  0  0  0  0  0  0  0  0  0
   19.9760  -33.5630   39.0130 F   0  0  0  0  0  0  0  0  0  0  0  0
   19.5092  -32.2895   36.2765 H   0  0  0  0  0  0  0  0  0  0  0  0
   19.4728  -30.6989   35.4425 H   0  0  0  0  0  0  0  0  0  0  0  0
   20.9783  -31.6788   35.4425 H   0  0  0  0  0  0  0  0  0  0  0  0
   21.6617  -29.2029   36.2314 H   0  0  0  0  0  0  0  0  0  0  0  0
   22.4455  -28.0471   38.2849 H   0  0  0  0  0  0  0  0  0  0  0  0
   19.7423  -25.6052   42.0608 H   0  0  0  0  0  0  0  0  0  0  0  0
   20.2664  -24.2074   44.0597 H   0  0  0  0  0  0  0  0  0  0  0  0
   22.2732  -24.7194   45.4544 H   0  0  0  0  0  0  0  0  0  0  0  0
   24.1950  -25.9940   45.6840 H   0  0  0  0  0  0  0  0  0  0  0  0
   24.6510  -30.2760   41.5640 H   0  0  0  0  0  0  0  0  0  0  0  0
   20.3303  -30.9169   40.7124 H   0  0  0  0  0  0  0  0  0  0  0  0
   18.7874  -32.4909   37.7507 H   0  0  0  0  0  0  0  0  0  0  0  0
  1  2  1  0
  2  3  2  0
  3  4  1  0
  4  5  2  0
  5  6  1  0
  6  7  1  0
  7  8  1  0
  8  9  2  0
  9 10  1  0
 10 11  2  0
 11 12  1  0
 12 13  1  0
 12 14  2  0
 14 15  1  0
 15 16  2  0
 15 17  1  0
 17 18  1  0
  5 19  1  0
 19 20  2  0
 20 21  1  0
 21 22  1  0
 21 23  1  0
 20  2  1  0
 17  6  2  0
 14  8  1  0
  1 24  1  0
  1 25  1  0
  1 26  1  0
  3 27  1  0
  4 28  1  0
  9 29  1  0
 10 30  1  0
 11 31  1  0
 13 32  1  0
 18 33  1  0
 19 34  1  0
 21 35  1  0
M  END
>  <meeko>  (5) 
{"is_sidechain": [false], "free_energy": -8.719, "intermolecular_energy": -10.202, "internal_energy": -0.55}

$$$$
cand_014_out
     RDKit          3D

 35 37  0  0  0  0  0  0  0  0999 V2000
   21.4970  -25.5400   43.8720 C   0  0  0  0  0  0  0  0  0  0  0  0
   21.3020  -26.4790   42.7130 C   0  0  0  0  0  0  0  0  0  0  0  0
   20.1220  -26.3950   41.9600 C   0  0  0  0  0  0  0  0  0  0  0  0
   19.8960  -27.2550   40.8820 C   0  0  0  0  0  0  0  0  0  0  0  0
   20.8440  -28.2210   40.5270 C   0  0  0  0  0  0  0  0  0  0  0  0
   20.5780  -29.1330   39.3960 C   0  0  0  0  0  0  0  0  0  0  0  0
   20.1260  -30.3820   39.8010 O   0  0  0  0  0  0  0  0  0  0  0  0
   19.8440  -31.3260   38.8460 C   0  0  0  0  0  0  0  0  0  0  0  0
   19.4100  -32.5740   39.2960 C   0  0  0  0  0  0  0  0  0  0  0  0
   19.1030  -33.5780   38.3770 C   0  0  0  0  0  0  0  0  0  0  0  0
   19.2300  -33.3360   37.0070 C   0  0  0  0  0  0  0  0  0  0  0  0
   19.6640  -32.0910   36.5600 C   0  0  0  0  0  0  0  0  0  0  0  0
   19.7650  -31.9220   35.2070 O   0  0  0  0  0  0  0  0  0  0  0  0
   19.9710  -31.0860   37.4810 C   0  0  0  0  0  0  0  0  0  0  0  0
   20.4300  -29.7640   37.0530 C   0  0  0  0  0  0  0  0  0  0  0  0
   20.5590  -29.4700   35.8670 O   0  0  0  0  0  0  0  0  0  0  0  0
   20.7380  -28.7710   38.1090 C   0  0  0  0  0  0  0  0  0  0  0  0
   21.1570  -27.5200   37.6960 O   0  0  0  0  0  0  0  0  0  0  0  0
   22.0130  -28.3200   41.2940 C   0  0  0  0  0  0  0  0  0  0  0  0
   22.2560  -27.4670   42.3890 C   0  0  0  0  0  0  0  0  0  0  0  0
   23.5500  -27.6110   43.1570 C   0  0  0  0  0  0  0  0  0  0  0  0
   24.3980  -26.5550   42.9950 F   0  0  0  0  0  0  0  0  0  0  0  0
   24.2710  -28.7080   42.7950 F   0  0  0  0  0  0  0  0  0  0  0  0
   21.3821  -26.0935   44.8157 H   0  0  0  0  0  0  0  0  0  0  0  0
   22.5051  -25.1026   43.8239 H   0  0  0  0  0  0  0  0  0  0  0  0
   20.7464  -24.7373   43.8239 H   0  0  0  0  0  0  0  0  0  0  0  0
   19.3640  -25.6419   42.2214 H   0  0  0  0  0  0  0  0  0  0  0  0
   18.9625  -27.1716   40.3061 H   0  0  0  0  0  0  0  0  0  0  0  0
   19.3101  -32.7659   40.3745 H   0  0  0  0  0  0  0  0  0  0  0  0
   18.7605  -34.5613   38.7317 H   0  0  0  0  0  0  0  0  0  0  0  0
   18.9875  -34.1277   36.2828 H   0  0  0  0  0  0  0  0  0  0  0  0
   19.3710  -32.5440   34.6260 H   0  0  0  0  0  0  0  0  0  0  0  0
   21.0580  -27.2640   36.8000 H   0  0  0  0  0  0  0  0  0  0  0  0
   22.7606  -29.0839   41.0342 H   0  0  0  0  0  0  0  0  0  0  0  0
   23.2055  -27.6855   44.1990 H   0  0  0  0  0  0  0  0  0  0  0  0
  1  2  1  0
  2  3  2  0
  3  4  1  0
  4  5  2  0
  5  6  1  0
  6  7  1  0
  7  8  1  0
  8  9  2  0
  9 10  1  0
 10 11  2  0
 11 12  1  0
 12 13  1  0
 12 14  2  0
 14 15  1  0
 15 16  2  0
 15 17  1  0
 17 18  1  0
  5 19  1  0
 19 20  2  0
 20 21  1  0
 21 22  1  0
 21 23  1  0
 20  2  1  0
 17  6  2  0
 14  8  1  0
  1 24  1  0
  1 25  1  0
  1 26  1  0
  3 27  1  0
  4 28  1  0
  9 29  1  0
 10 30  1  0
 11 31  1  0
 13 32  1  0
 18 33  1  0
 19 34  1  0
 21 35  1  0
M  END
>  <meeko>  (6) 
{"is_sidechain": [false], "free_energy": -8.703, "intermolecular_energy": -10.244, "internal_energy": -0.489}

$$$$
cand_014_out
     RDKit          3D

 35 37  0  0  0  0  0  0  0  0999 V2000
   21.0380  -26.4770   41.5510 C   0  0  0  0  0  0  0  0  0  0  0  0
   20.8150  -27.6440   40.6280 C   0  0  0  0  0  0  0  0  0  0  0  0
   19.6400  -27.6920   39.8630 C   0  0  0  0  0  0  0  0  0  0  0  0
   19.3890  -28.7630   39.0020 C   0  0  0  0  0  0  0  0  0  0  0  0
   20.3040  -29.8130   38.8810 C   0  0  0  0  0  0  0  0  0  0  0  0
   20.0110  -30.9450   37.9780 C   0  0  0  0  0  0  0  0  0  0  0  0
   20.4120  -30.7120   36.6680 O   0  0  0  0  0  0  0  0  0  0  0  0
   20.1930  -31.6850   35.7260 C   0  0  0  0  0  0  0  0  0  0  0  0
   20.5950  -31.4040   34.4190 C   0  0  0  0  0  0  0  0  0  0  0  0
   20.4050  -32.3520   33.4130 C   0  0  0  0  0  0  0  0  0  0  0  0
   19.8130  -33.5810   33.7110 C   0  0  0  0  0  0  0  0  0  0  0  0
   19.4130  -33.8600   35.0150 C   0  0  0  0  0  0  0  0  0  0  0  0
   18.8430  -35.0830   35.2380 O   0  0  0  0  0  0  0  0  0  0  0  0
   19.6040  -32.9110   36.0220 C   0  0  0  0  0  0  0  0  0  0  0  0
   19.1980  -33.1630   37.4060 C   0  0  0  0  0  0  0  0  0  0  0  0
   18.6790  -34.2230   37.7500 O   0  0  0  0  0  0  0  0  0  0  0  0
   19.4350  -32.0880   38.3970 C   0  0  0  0  0  0  0  0  0  0  0  0
   19.0610  -32.3400   39.7030 O   0  0  0  0  0  0  0  0  0  0  0  0
   21.4680  -29.7770   39.6620 C   0  0  0  0  0  0  0  0  0  0  0  0
   21.7360  -28.7100   40.5420 C   0  0  0  0  0  0  0  0  0  0  0  0
   23.0230  -28.7200   41.3350 C   0  0  0  0  0  0  0  0  0  0  0  0
   23.6950  -29.9040   41.2650 F   0  0  0  0  0  0  0  0  0  0  0  0
   22.8350  -28.4920   42.6650 F   0  0  0  0  0  0  0  0  0  0  0  0
   20.9729  -26.8175   42.5949 H   0  0  0  0  0  0  0  0  0  0  0  0
   22.0342  -26.0487   41.3664 H   0  0  0  0  0  0  0  0  0  0  0  0
   20.2699  -25.7115   41.3664 H   0  0  0  0  0  0  0  0  0  0  0  0
   18.9069  -26.8757   39.9422 H   0  0  0  0  0  0  0  0  0  0  0  0
   18.4606  -28.7804   38.4123 H   0  0  0  0  0  0  0  0  0  0  0  0
   21.0611  -30.4361   34.1824 H   0  0  0  0  0  0  0  0  0  0  0  0
   20.7222  -32.1308   32.3832 H   0  0  0  0  0  0  0  0  0  0  0  0
   19.6630  -34.3273   32.9170 H   0  0  0  0  0  0  0  0  0  0  0  0
   17.9910  -35.1380   35.6270 H   0  0  0  0  0  0  0  0  0  0  0  0
   18.8770  -33.2170   39.9780 H   0  0  0  0  0  0  0  0  0  0  0  0
   22.1904  -30.6030   39.5856 H   0  0  0  0  0  0  0  0  0  0  0  0
   23.6021  -27.9097   40.8680 H   0  0  0  0  0  0  0  0  0  0  0  0
  1  2  1  0
  2  3  2  0
  3  4  1  0
  4  5  2  0
  5  6  1  0
  6  7  1  0
  7  8  1  0
  8  9  2  0
  9 10  1  0
 10 11  2  0
 11 12  1  0
 12 13  1  0
 12 14  2  0
 14 15  1  0
 15 16  2  0
 15 17  1  0
 17 18  1  0
  5 19  1  0
 19 20  2  0
 20 21  1  0
 21 22  1  0
 21 23  1  0
 20  2  1  0
 17  6  2  0
 14  8  1  0
  1 24  1  0
  1 25  1  0
  1 26  1  0
  3 27  1  0
  4 28  1  0
  9 29  1  0
 10 30  1  0
 11 31  1  0
 13 32  1  0
 18 33  1  0
 19 34  1  0
 21 35  1  0
M  END
>  <meeko>  (7) 
{"is_sidechain": [false], "free_energy": -8.649, "intermolecular_energy": -10.339, "internal_energy": -0.33}

$$$$
cand_014_out
     RDKit          3D

 35 37  0  0  0  0  0  0  0  0999 V2000
   22.2360  -26.9380   42.0340 C   0  0  0  0  0  0  0  0  0  0  0  0
   21.7120  -27.9650   41.0670 C   0  0  0  0  0  0  0  0  0  0  0  0
   22.5510  -29.0160   40.6710 C   0  0  0  0  0  0  0  0  0  0  0  0
   22.1090  -29.9850   39.7660 C   0  0  0  0  0  0  0  0  0  0  0  0
   20.8170  -29.9290   39.2340 C   0  0  0  0  0  0  0  0  0  0  0  0
   20.3750  -30.9530   38.2640 C   0  0  0  0  0  0  0  0  0  0  0  0
   20.7380  -30.6540   36.9570 O   0  0  0  0  0  0  0  0  0  0  0  0
   20.3850  -31.5240   35.9570 C   0  0  0  0  0  0  0  0  0  0  0  0
   20.7540  -31.1780   34.6560 C   0  0  0  0  0  0  0  0  0  0  0  0
   20.4280  -32.0210   33.5920 C   0  0  0  0  0  0  0  0  0  0  0  0
   19.7330  -33.2100   33.8280 C   0  0  0  0  0  0  0  0  0  0  0  0
   19.3670  -33.5530   35.1260 C   0  0  0  0  0  0  0  0  0  0  0  0
   18.6900  -34.7310   35.2850 O   0  0  0  0  0  0  0  0  0  0  0  0
   19.6930  -32.7090   36.1910 C   0  0  0  0  0  0  0  0  0  0  0  0
   19.3260  -33.0320   37.5700 C   0  0  0  0  0  0  0  0  0  0  0  0
   18.7220  -34.0630   37.8600 O   0  0  0  0  0  0  0  0  0  0  0  0
   19.7100  -32.0660   38.6260 C   0  0  0  0  0  0  0  0  0  0  0  0
   19.3720  -32.3860   39.9270 O   0  0  0  0  0  0  0  0  0  0  0  0
   19.9860  -28.8650   39.6120 C   0  0  0  0  0  0  0  0  0  0  0  0
   20.4160  -27.8750   40.5170 C   0  0  0  0  0  0  0  0  0  0  0  0
   19.4590  -26.7700   40.9030 C   0  0  0  0  0  0  0  0  0  0  0  0
   18.9570  -26.9020   42.1640 F   0  0  0  0  0  0  0  0  0  0  0  0
   18.3700  -26.6930   40.0890 F   0  0  0  0  0  0  0  0  0  0  0  0
   22.0608  -27.2814   43.0642 H   0  0  0  0  0  0  0  0  0  0  0  0
   23.3152  -26.7991   41.8723 H   0  0  0  0  0  0  0  0  0  0  0  0
   21.7151  -25.9827   41.8723 H   0  0  0  0  0  0  0  0  0  0  0  0
   23.5710  -29.0789   41.0781 H   0  0  0  0  0  0  0  0  0  0  0  0
   22.7848  -30.8005   39.4690 H   0  0  0  0  0  0  0  0  0  0  0  0
   21.3011  -30.2421   34.4693 H   0  0  0  0  0  0  0  0  0  0  0  0
   20.7186  -31.7489   32.5666 H   0  0  0  0  0  0  0  0  0  0  0  0
   19.4757  -33.8736   32.9893 H   0  0  0  0  0  0  0  0  0  0  0  0
   18.5520  -35.2950   34.5500 H   0  0  0  0  0  0  0  0  0  0  0  0
   18.8320  -33.1320   40.1020 H   0  0  0  0  0  0  0  0  0  0  0  0
   18.9718  -28.8017   39.1909 H   0  0  0  0  0  0  0  0  0  0  0  0
   20.0841  -25.8688   40.8192 H   0  0  0  0  0  0  0  0  0  0  0  0
  1  2  1  0
  2  3  2  0
  3  4  1  0
  4  5  2  0
  5  6  1  0
  6  7  1  0
  7  8  1  0
  8  9  2  0
  9 10  1  0
 10 11  2  0
 11 12  1  0
 12 13  1  0
 12 14  2  0
 14 15  1  0
 15 16  2  0
 15 17  1  0
 17 18  1  0
  5 19  1  0
 19 20  2  0
 20 21  1  0
 21 22  1  0
 21 23  1  0
 20  2  1  0
 17  6  2  0
 14  8  1  0
  1 24  1  0
  1 25  1  0
  1 26  1  0
  3 27  1  0
  4 28  1  0
  9 29  1  0
 10 30  1  0
 11 31  1  0
 13 32  1  0
 18 33  1  0
 19 34  1  0
 21 35  1  0
M  END
>  <meeko>  (8) 
{"is_sidechain": [false], "free_energy": -8.648, "intermolecular_energy": -10.122, "internal_energy": -0.546}

$$$$
cand_014_out
     RDKit          3D

 35 37  0  0  0  0  0  0  0  0999 V2000
   19.4830  -32.6580   36.6600 C   0  0  0  0  0  0  0  0  0  0  0  0
   19.9870  -31.5350   37.5240 C   0  0  0  0  0  0  0  0  0  0  0  0
   19.9110  -31.6630   38.9190 C   0  0  0  0  0  0  0  0  0  0  0  0
   20.3560  -30.6390   39.7580 C   0  0  0  0  0  0  0  0  0  0  0  0
   20.8920  -29.4610   39.2270 C   0  0  0  0  0  0  0  0  0  0  0  0
   21.3420  -28.3830   40.1320 C   0  0  0  0  0  0  0  0  0  0  0  0
   22.2660  -28.8170   41.0750 O   0  0  0  0  0  0  0  0  0  0  0  0
   22.7620  -27.9130   41.9800 C   0  0  0  0  0  0  0  0  0  0  0  0
   23.6730  -28.3930   42.9200 C   0  0  0  0  0  0  0  0  0  0  0  0
   24.2190  -27.5250   43.8680 C   0  0  0  0  0  0  0  0  0  0  0  0
   23.8530  -26.1770   43.8760 C   0  0  0  0  0  0  0  0  0  0  0  0
   22.9440  -25.7000   42.9360 C   0  0  0  0  0  0  0  0  0  0  0  0
   22.6300  -24.3700   42.9990 O   0  0  0  0  0  0  0  0  0  0  0  0
   22.3970  -26.5690   41.9880 C   0  0  0  0  0  0  0  0  0  0  0  0
   21.4380  -26.1090   40.9840 C   0  0  0  0  0  0  0  0  0  0  0  0
   21.0730  -24.9370   40.9190 O   0  0  0  0  0  0  0  0  0  0  0  0
   20.9110  -27.1120   40.0290 C   0  0  0  0  0  0  0  0  0  0  0  0
   20.0160  -26.6650   39.0750 O   0  0  0  0  0  0  0  0  0  0  0  0
   20.9480  -29.3240   37.8330 C   0  0  0  0  0  0  0  0  0  0  0  0
   20.4960  -30.3420   36.9700 C   0  0  0  0  0  0  0  0  0  0  0  0
   20.6100  -30.1400   35.4760 C   0  0  0  0  0  0  0  0  0  0  0  0
   19.4040  -30.0420   34.8480 F   0  0  0  0  0  0  0  0  0  0  0  0
   21.2620  -31.1550   34.8450 F   0  0  0  0  0  0  0  0  0  0  0  0
   19.1162  -33.4754   37.2982 H   0  0  0  0  0  0  0  0  0  0  0  0
   18.6627  -32.2923   36.0249 H   0  0  0  0  0  0  0  0  0  0  0  0
   20.3015  -33.0278   36.0249 H   0  0  0  0  0  0  0  0  0  0  0  0
   19.4954  -32.5821   39.3578 H   0  0  0  0  0  0  0  0  0  0  0  0
   20.2842  -30.7602   40.8489 H   0  0  0  0  0  0  0  0  0  0  0  0
   23.9614  -29.4545   42.9149 H   0  0  0  0  0  0  0  0  0  0  0  0
   24.9382  -27.9033   44.6094 H   0  0  0  0  0  0  0  0  0  0  0  0
   24.2823  -25.4938   44.6236 H   0  0  0  0  0  0  0  0  0  0  0  0
   23.3120  -23.7270   42.9790 H   0  0  0  0  0  0  0  0  0  0  0  0
   20.3230  -26.4050   38.2290 H   0  0  0  0  0  0  0  0  0  0  0  0
   21.3554  -28.3977   37.4017 H   0  0  0  0  0  0  0  0  0  0  0  0
   21.1719  -29.1973   35.4013 H   0  0  0  0  0  0  0  0  0  0  0  0
  1  2  1  0
  2  3  2  0
  3  4  1  0
  4  5  2  0
  5  6  1  0
  6  7  1  0
  7  8  1  0
  8  9  2  0
  9 10  1  0
 10 11  2  0
 11 12  1  0
 12 13  1  0
 12 14  2  0
 14 15  1  0
 15 16  2  0
 15 17  1  0
 17 18  1  0
  5 19  1  0
 19 20  2  0
 20 21  1  0
 21 22  1  0
 21 23  1  0
 20  2  1  0
 17  6  2  0
 14  8  1  0
  1 24  1  0
  1 25  1  0
  1 26  1  0
  3 27  1  0
  4 28  1  0
  9 29  1  0
 10 30  1  0
 11 31  1  0
 13 32  1  0
 18 33  1  0
 19 34  1  0
 21 35  1  0
M  END
>  <meeko>  (9) 
{"is_sidechain": [false], "free_energy": -8.187, "intermolecular_energy": -10.021, "internal_energy": -0.105}

$$$$
