cand_055_out
     RDKit          3D

 41 43  0  0  0  0  0  0  0  0999 V2000
   22.5110  -25.6820   45.1350 C   0  0  0  0  0  0  0  0  0  0  0  0
   23.2410  -26.9990   44.9270 C   0  0  0  0  0  0  0  0  0  0  0  0
   24.0650  -26.9830   43.6390 C   0  0  0  0  0  0  0  0  0  0  0  0
   23.4170  -27.8040   42.5460 C   0  0  0  0  0  0  0  0  0  0  0  0
   22.3690  -27.2260   41.8100 C   0  0  0  0  0  0  0  0  0  0  0  0
   21.7250  -27.9370   40.7950 C   0  0  0  0  0  0  0  0  0  0  0  0
   22.1120  -29.2440   40.4840 C   0  0  0  0  0  0  0  0  0  0  0  0
   21.4300  -30.0280   39.4310 C   0  0  0  0  0  0  0  0  0  0  0  0
   20.6330  -31.0440   39.9450 O   0  0  0  0  0  0  0  0  0  0  0  0
   19.9430  -31.8490   39.0760 C   0  0  0  0  0  0  0  0  0  0  0  0
   19.1430  -32.8470   39.6360 C   0  0  0  0  0  0  0  0  0  0  0  0
   18.4150  -33.7040   38.8080 C   0  0  0  0  0  0  0  0  0  0  0  0
   18.4870  -33.5630   37.4200 C   0  0  0  0  0  0  0  0  0  0  0  0
   19.2840  -32.5660   36.8640 C   0  0  0  0  0  0  0  0  0  0  0  0
   19.3100  -32.4850   35.4990 O   0  0  0  0  0  0  0  0  0  0  0  0
   20.0130  -31.7090   37.6940 C   0  0  0  0  0  0  0  0  0  0  0  0
   20.8630  -30.6490   37.1500 C   0  0  0  0  0  0  0  0  0  0  0  0
   20.9830  -30.4670   35.9410 O   0  0  0  0  0  0  0  0  0  0  0  0
   21.5880  -29.7900   38.1150 C   0  0  0  0  0  0  0  0  0  0  0  0
   22.3990  -28.8000   37.5900 O   0  0  0  0  0  0  0  0  0  0  0  0
   23.1480  -29.8270   41.2290 C   0  0  0  0  0  0  0  0  0  0  0  0
   23.8030  -29.1280   42.2600 C   0  0  0  0  0  0  0  0  0  0  0  0
   24.9170  -29.8110   43.0050 C   0  0  0  0  0  0  0  0  0  0  0  0
   22.4037  -25.4884   46.2125 H   0  0  0  0  0  0  0  0  0  0  0  0
   23.0861  -24.8668   44.6715 H   0  0  0  0  0  0  0  0  0  0  0  0
   21.5150  -25.7377   44.6715 H   0  0  0  0  0  0  0  0  0  0  0  0
   23.9134  -27.1741   45.7798 H   0  0  0  0  0  0  0  0  0  0  0  0
   22.4923  -27.8011   44.8490 H   0  0  0  0  0  0  0  0  0  0  0  0
   24.1635  -25.9437   43.2925 H   0  0  0  0  0  0  0  0  0  0  0  0
   25.0494  -27.4223   43.8580 H   0  0  0  0  0  0  0  0  0  0  0  0
   22.0509  -26.1977   42.0367 H   0  0  0  0  0  0  0  0  0  0  0  0
   20.9051  -27.4640   40.2346 H   0  0  0  0  0  0  0  0  0  0  0  0
   19.0862  -32.9581   40.7289 H   0  0  0  0  0  0  0  0  0  0  0  0
   17.7847  -34.4903   39.2488 H   0  0  0  0  0  0  0  0  0  0  0  0
   17.9148  -34.2387   36.7673 H   0  0  0  0  0  0  0  0  0  0  0  0
   19.0600  -31.6890   35.0720 H   0  0  0  0  0  0  0  0  0  0  0  0
   22.7250  -28.1190   38.1440 H   0  0  0  0  0  0  0  0  0  0  0  0
   23.4566  -30.8580   41.0012 H   0  0  0  0  0  0  0  0  0  0  0  0
   24.7506  -29.7090   44.0876 H   0  0  0  0  0  0  0  0  0  0  0  0
   24.9381  -30.8774   42.7361 H   0  0  0  0  0  0  0  0  0  0  0  0
   25.8770  -29.3460   42.7361 H   0  0  0  0  0  0  0  0  0  0  0  0
  1  2  1  0
  2  3  1  0
  3  4  1  0
  4  5  2  0
  5  6  1  0
  6  7  2  0
  7  8  1  0
  8  9  1  0
  9 10  1  0
 10 11  2  0
 11 12  1  0
 12 13  2  0
 13 14  1  0
 14 15  1  0
 14 16  2  0
 16 17  1  0
 17 18  2  0
 17 19  1  0
 19 20  1  0
  7 21  1  0
 21 22  2  0
 22 23  1  0
 22  4  1  0
 19  8  2  0
 16 10  1  0
  1 24  1  0
  1 25  1  0
  1 26  1  0
  2 27  1  0
  2 28  1  0
  3 29  1  0
  3 30  1  0
  5 31  1  0
  6 32  1  0
 11 33  1  0
 12 34  1  0
 13 35  1  0
 15 36  1  0
 20 37  1  0
 21 38  1  0
 23 39  1  0
 23 40  1  0
 23 41  1  0
M  END
>  <meeko>  (1) 
{"is_sidechain": [false], "free_energy": -9.341, "intermolecular_energy": -11.526, "internal_energy": -0.555}

$$$$
cand_055_out
     RDKit          3D

 41 43  0  0  0  0  0  0  0  0999 V2000
   24.1720  -26.2050   43.8440 C   0  0  0  0  0  0  0  0  0  0  0  0
   23.4410  -27.3070   43.0940 C   0  0  0  0  0  0  0  0  0  0  0  0
   22.3350  -26.7370   42.2040 C   0  0  0  0  0  0  0  0  0  0  0  0
   21.8000  -27.7730   41.2390 C   0  0  0  0  0  0  0  0  0  0  0  0
   22.6730  -28.7760   40.7870 C   0  0  0  0  0  0  0  0  0  0  0  0
   22.2400  -29.7550   39.8880 C   0  0  0  0  0  0  0  0  0  0  0  0
   20.9230  -29.7600   39.4210 C   0  0  0  0  0  0  0  0  0  0  0  0
   20.4450  -30.7700   38.4510 C   0  0  0  0  0  0  0  0  0  0  0  0
   20.0220  -31.9460   39.0600 O   0  0  0  0  0  0  0  0  0  0  0  0
   19.5530  -32.9680   38.2760 C   0  0  0  0  0  0  0  0  0  0  0  0
   19.1250  -34.1240   38.9300 C   0  0  0  0  0  0  0  0  0  0  0  0
   18.6370  -35.2030   38.1900 C   0  0  0  0  0  0  0  0  0  0  0  0
   18.5790  -35.1280   36.7970 C   0  0  0  0  0  0  0  0  0  0  0  0
   19.0070  -33.9730   36.1470 C   0  0  0  0  0  0  0  0  0  0  0  0
   18.9240  -33.9660   34.7820 O   0  0  0  0  0  0  0  0  0  0  0  0
   19.4940  -32.8930   36.8880 C   0  0  0  0  0  0  0  0  0  0  0  0
   19.9530  -31.6610   36.2440 C   0  0  0  0  0  0  0  0  0  0  0  0
   19.9390  -31.5210   35.0230 O   0  0  0  0  0  0  0  0  0  0  0  0
   20.4440  -30.5720   37.1200 C   0  0  0  0  0  0  0  0  0  0  0  0
   20.8880  -29.4180   36.4990 O   0  0  0  0  0  0  0  0  0  0  0  0
   20.0550  -28.7490   39.8610 C   0  0  0  0  0  0  0  0  0  0  0  0
   20.4760  -27.7510   40.7600 C   0  0  0  0  0  0  0  0  0  0  0  0
   19.4870  -26.7080   41.2020 C   0  0  0  0  0  0  0  0  0  0  0  0
   24.0655  -26.3656   44.9270 H   0  0  0  0  0  0  0  0  0  0  0  0
   25.2382  -26.2225   43.5738 H   0  0  0  0  0  0  0  0  0  0  0  0
   23.7413  -25.2296   43.5738 H   0  0  0  0  0  0  0  0  0  0  0  0
   24.1615  -27.8511   42.4656 H   0  0  0  0  0  0  0  0  0  0  0  0
   22.9797  -27.9806   43.8312 H   0  0  0  0  0  0  0  0  0  0  0  0
   21.5107  -26.3852   42.8417 H   0  0  0  0  0  0  0  0  0  0  0  0
   22.7610  -25.9103   41.6165 H   0  0  0  0  0  0  0  0  0  0  0  0
   23.7128  -28.7914   41.1457 H   0  0  0  0  0  0  0  0  0  0  0  0
   22.9426  -30.5287   39.5450 H   0  0  0  0  0  0  0  0  0  0  0  0
   19.1720  -34.1852   40.0273 H   0  0  0  0  0  0  0  0  0  0  0  0
   18.2977  -36.1136   38.7054 H   0  0  0  0  0  0  0  0  0  0  0  0
   18.1963  -35.9789   36.2144 H   0  0  0  0  0  0  0  0  0  0  0  0
   19.2230  -33.2210   34.2980 H   0  0  0  0  0  0  0  0  0  0  0  0
   20.7160  -28.5830   36.8870 H   0  0  0  0  0  0  0  0  0  0  0  0
   19.0182  -28.7360   39.4937 H   0  0  0  0  0  0  0  0  0  0  0  0
   19.4556  -26.6749   42.3011 H   0  0  0  0  0  0  0  0  0  0  0  0
   19.7927  -25.7251   40.8141 H   0  0  0  0  0  0  0  0  0  0  0  0
   18.4892  -26.9611   40.8141 H   0  0  0  0  0  0  0  0  0  0  0  0
  1  2  1  0
  2  3  1  0
  3  4  1  0
  4  5  2  0
  5  6  1  0
  6  7  2  0
  7  8  1  0
  8  9  1  0
  9 10  1  0
 10 11  2  0
 11 12  1  0
 12 13  2  0
 13 14  1  0
 14 15  1  0
 14 16  2  0
 16 17  1  0
 17 18  2  0
 17 19  1  0
 19 20  1  0
  7 21  1  0
 21 22  2  0
 22 23  1  0
 22  4  1  0
 19  8  2  0
 16 10  1  0
  1 24  1  0
  1 25  1  0
  1 26  1  0
  2 27  1  0
  2 28  1  0
  3 29  1  0
  3 30  1  0
  5 31  1  0
  6 32  1  0
 11 33  1  0
 12 34  1  0
 13 35  1  0
 15 36  1  0
 20 37  1  0
 21 38  1  0
 23 39  1  0
 23 40  1  0
 23 41  1  0
M  END
>  <meeko>  (2) 
{"is_sidechain": [false], "free_energy": -9.322, "intermolecular_energy": -11.518, "internal_energy": -0.538}

$$$$
cand_055_out
     RDKit          3D

 41 43  0  0  0  0  0  0  0  0999 V2000
   24.1670  -26.7630   43.6780 C   0  0  0  0  0  0  0  0  0  0  0  0
   22.8700  -27.4500   43.2840 C   0  0  0  0  0  0  0  0  0  0  0  0
   22.2770  -26.8370   42.0140 C   0  0  0  0  0  0  0  0  0  0  0  0
   21.7580  -27.8960   41.0670 C   0  0  0  0  0  0  0  0  0  0  0  0
   22.6440  -28.8960   40.6330 C   0  0  0  0  0  0  0  0  0  0  0  0
   22.2260  -29.8950   39.7520 C   0  0  0  0  0  0  0  0  0  0  0  0
   20.9100  -29.9270   39.2820 C   0  0  0  0  0  0  0  0  0  0  0  0
   20.4470  -30.9590   38.3300 C   0  0  0  0  0  0  0  0  0  0  0  0
   20.7550  -30.6520   37.0090 O   0  0  0  0  0  0  0  0  0  0  0  0
   20.3830  -31.5260   36.0200 C   0  0  0  0  0  0  0  0  0  0  0  0
   20.7250  -31.1850   34.7110 C   0  0  0  0  0  0  0  0  0  0  0  0
   20.3740  -32.0300   33.6560 C   0  0  0  0  0  0  0  0  0  0  0  0
   19.6810  -33.2160   33.9100 C   0  0  0  0  0  0  0  0  0  0  0  0
   19.3420  -33.5540   35.2180 C   0  0  0  0  0  0  0  0  0  0  0  0
   18.6620  -34.7280   35.3960 O   0  0  0  0  0  0  0  0  0  0  0  0
   19.6930  -32.7070   36.2730 C   0  0  0  0  0  0  0  0  0  0  0  0
   19.3550  -33.0250   37.6610 C   0  0  0  0  0  0  0  0  0  0  0  0
   18.7410  -34.0460   37.9640 O   0  0  0  0  0  0  0  0  0  0  0  0
   19.7800  -32.0650   38.7070 C   0  0  0  0  0  0  0  0  0  0  0  0
   19.4440  -32.3700   40.0130 O   0  0  0  0  0  0  0  0  0  0  0  0
   20.0280  -28.9190   39.7030 C   0  0  0  0  0  0  0  0  0  0  0  0
   20.4340  -27.9000   40.5850 C   0  0  0  0  0  0  0  0  0  0  0  0
   19.4310  -26.8630   41.0060 C   0  0  0  0  0  0  0  0  0  0  0  0
   24.2423  -26.7231   44.7747 H   0  0  0  0  0  0  0  0  0  0  0  0
   25.0191  -27.3280   43.2723 H   0  0  0  0  0  0  0  0  0  0  0  0
   24.1783  -25.7406   43.2723 H   0  0  0  0  0  0  0  0  0  0  0  0
   23.0697  -28.5171   43.1068 H   0  0  0  0  0  0  0  0  0  0  0  0
   22.1464  -27.3189   44.1021 H   0  0  0  0  0  0  0  0  0  0  0  0
   21.4465  -26.1722   42.2940 H   0  0  0  0  0  0  0  0  0  0  0  0
   23.0739  -26.2800   41.4996 H   0  0  0  0  0  0  0  0  0  0  0  0
   23.6834  -28.8918   40.9930 H   0  0  0  0  0  0  0  0  0  0  0  0
   22.9398  -30.6651   39.4242 H   0  0  0  0  0  0  0  0  0  0  0  0
   21.2707  -30.2513   34.5101 H   0  0  0  0  0  0  0  0  0  0  0  0
   20.6435  -31.7614   32.6239 H   0  0  0  0  0  0  0  0  0  0  0  0
   19.4037  -33.8813   33.0791 H   0  0  0  0  0  0  0  0  0  0  0  0
   18.5570  -35.3220   34.6790 H   0  0  0  0  0  0  0  0  0  0  0  0
   19.7770  -33.1490   40.4130 H   0  0  0  0  0  0  0  0  0  0  0  0
   18.9919  -28.9258   39.3336 H   0  0  0  0  0  0  0  0  0  0  0  0
   19.3883  -26.8188   42.1043 H   0  0  0  0  0  0  0  0  0  0  0  0
   19.7309  -25.8812   40.6109 H   0  0  0  0  0  0  0  0  0  0  0  0
   18.4397  -27.1300   40.6109 H   0  0  0  0  0  0  0  0  0  0  0  0
  1  2  1  0
  2  3  1  0
  3  4  1  0
  4  5  2  0
  5  6  1  0
  6  7  2  0
  7  8  1  0
  8  9  1  0
  9 10  1  0
 10 11  2  0
 11 12  1  0
 12 13  2  0
 13 14  1  0
 14 15  1  0
 14 16  2  0
 16 17  1  0
 17 18  2  0
 17 19  1  0
 19 20  1  0
  7 21  1  0
 21 22  2  0
 22 23  1  0
 22  4  1  0
 19  8  2  0
 16 10  1  0
  1 24  1  0
  1 25  1  0
  1 26  1  0
  2 27  1  0
  2 28  1  0
  3 29  1  0
  3 30  1  0
  5 31  1  0
  6 32  1  0
 11 33  1  0
 12 34  1  0
 13 35  1  0
 15 36  1  0
 20 37  1  0
 21 38  1  0
 23 39  1  0
 23 40  1  0
 23 41  1  0
M  END
>  <meeko>  (3) 
{"is_sidechain": [false], "free_energy": -8.621, "intermolecular_energy": -10.623, "internal_energy": -0.568}

$$$$
cand_055_out
     RDKit          3D

 41 43  0  0  0  0  0  0  0  0999 V2000
   20.0750  -33.1510   34.0330 C   0  0  0  0  0  0  0  0  0  0  0  0
   20.0910  -31.9490   34.9630 C   0  0  0  0  0  0  0  0  0  0  0  0
   19.6870  -32.3390   36.3860 C   0  0  0  0  0  0  0  0  0  0  0  0
   20.1450  -31.3150   37.4020 C   0  0  0  0  0  0  0  0  0  0  0  0
   20.9160  -30.2300   36.9530 C   0  0  0  0  0  0  0  0  0  0  0  0
   21.3770  -29.2580   37.8440 C   0  0  0  0  0  0  0  0  0  0  0  0
   21.0760  -29.3400   39.2070 C   0  0  0  0  0  0  0  0  0  0  0  0
   21.5710  -28.3370   40.1750 C   0  0  0  0  0  0  0  0  0  0  0  0
   22.4320  -28.8810   41.1220 O   0  0  0  0  0  0  0  0  0  0  0  0
   22.9660  -28.0600   42.0820 C   0  0  0  0  0  0  0  0  0  0  0  0
   23.8360  -28.6450   43.0030 C   0  0  0  0  0  0  0  0  0  0  0  0
   24.4140  -27.8660   44.0080 C   0  0  0  0  0  0  0  0  0  0  0  0
   24.1200  -26.5030   44.0930 C   0  0  0  0  0  0  0  0  0  0  0  0
   23.2510  -25.9220   43.1720 C   0  0  0  0  0  0  0  0  0  0  0  0
   23.0060  -24.5840   43.3130 O   0  0  0  0  0  0  0  0  0  0  0  0
   22.6750  -26.7030   42.1660 C   0  0  0  0  0  0  0  0  0  0  0  0
   21.7560  -26.1320   41.1790 C   0  0  0  0  0  0  0  0  0  0  0  0
   21.4440  -24.9430   41.1920 O   0  0  0  0  0  0  0  0  0  0  0  0
   21.2050  -27.0430   40.1490 C   0  0  0  0  0  0  0  0  0  0  0  0
   20.3290  -26.4950   39.2300 O   0  0  0  0  0  0  0  0  0  0  0  0
   20.3180  -30.4320   39.6570 C   0  0  0  0  0  0  0  0  0  0  0  0
   19.8520  -31.4250   38.7750 C   0  0  0  0  0  0  0  0  0  0  0  0
   19.0310  -32.5570   39.3260 C   0  0  0  0  0  0  0  0  0  0  0  0
   20.0627  -34.0755   34.6289 H   0  0  0  0  0  0  0  0  0  0  0  0
   19.1773  -33.1118   33.3985 H   0  0  0  0  0  0  0  0  0  0  0  0
   20.9734  -33.1357   33.3985 H   0  0  0  0  0  0  0  0  0  0  0  0
   21.1058  -31.5251   34.9825 H   0  0  0  0  0  0  0  0  0  0  0  0
   19.3669  -31.2110   34.5875 H   0  0  0  0  0  0  0  0  0  0  0  0
   18.5913  -32.4230   36.4345 H   0  0  0  0  0  0  0  0  0  0  0  0
   20.1686  -33.2982   36.6269 H   0  0  0  0  0  0  0  0  0  0  0  0
   21.1603  -30.1445   35.8839 H   0  0  0  0  0  0  0  0  0  0  0  0
   21.9829  -28.4197   37.4696 H   0  0  0  0  0  0  0  0  0  0  0  0
   24.0664  -29.7186   42.9376 H   0  0  0  0  0  0  0  0  0  0  0  0
   25.1013  -28.3262   44.7332 H   0  0  0  0  0  0  0  0  0  0  0  0
   24.5737  -25.8897   44.8855 H   0  0  0  0  0  0  0  0  0  0  0  0
   23.4200  -24.1020   44.0020 H   0  0  0  0  0  0  0  0  0  0  0  0
   20.3860  -26.7370   38.3270 H   0  0  0  0  0  0  0  0  0  0  0  0
   20.0816  -30.5141   40.7282 H   0  0  0  0  0  0  0  0  0  0  0  0
   19.0539  -32.5254   40.4253 H   0  0  0  0  0  0  0  0  0  0  0  0
   17.9921  -32.4597   38.9780 H   0  0  0  0  0  0  0  0  0  0  0  0
   19.4462  -33.5143   38.9780 H   0  0  0  0  0  0  0  0  0  0  0  0
  1  2  1  0
  2  3  1  0
  3  4  1  0
  4  5  2  0
  5  6  1  0
  6  7  2  0
  7  8  1  0
  8  9  1  0
  9 10  1  0
 10 11  2  0
 11 12  1  0
 12 13  2  0
 13 14  1  0
 14 15  1  0
 14 16  2  0
 16 17  1  0
 17 18  2  0
 17 19  1  0
 19 20  1  0
  7 21  1  0
 21 22  2  0
 22 23  1  0
 22  4  1  0
 19  8  2  0
 16 10  1  0
  1 24  1  0
  1 25  1  0
  1 26  1  0
  2 27  1  0
  2 28  1  0
  3 29  1  0
  3 30  1  0
  5 31  1  0
  6 32  1  0
 11 33  1  0
 12 34  1  0
 13 35  1  0
 15 36  1  0
 20 37  1  0
 21 38  1  0
 23 39  1  0
 23 40  1  0
 23 41  1  0
M  END
>  <meeko>  (4) 
{"is_sidechain": [false], "free_energy": -8.57, "intermolecular_energy": -10.692, "internal_energy": -0.436}

$$$$
cand_055_out
     RDKit          3D

 41 43  0  0  0  0  0  0  0  0999 V2000
   21.3760  -24.5770   46.9380 C   0  0  0  0  0  0  0  0  0  0  0  0
   21.4980  -24.6820   45.4270 C   0  0  0  0  0  0  0  0  0  0  0  0
   22.6070  -25.6560   45.0230 C   0  0  0  0  0  0  0  0  0  0  0  0
   22.2770  -26.3820   43.7370 C   0  0  0  0  0  0  0  0  0  0  0  0
   21.0930  -26.0400   43.0630 C   0  0  0  0  0  0  0  0  0  0  0  0
   20.7290  -26.6820   41.8770 C   0  0  0  0  0  0  0  0  0  0  0  0
   21.5400  -27.6790   41.3280 C   0  0  0  0  0  0  0  0  0  0  0  0
   21.1670  -28.3910   40.0870 C   0  0  0  0  0  0  0  0  0  0  0  0
   20.7820  -29.7070   40.3140 O   0  0  0  0  0  0  0  0  0  0  0  0
   20.4100  -30.4830   39.2470 C   0  0  0  0  0  0  0  0  0  0  0  0
   20.0170  -31.7940   39.5230 C   0  0  0  0  0  0  0  0  0  0  0  0
   19.6270  -32.6390   38.4810 C   0  0  0  0  0  0  0  0  0  0  0  0
   19.6310  -32.1740   37.1640 C   0  0  0  0  0  0  0  0  0  0  0  0
   20.0230  -30.8650   36.8920 C   0  0  0  0  0  0  0  0  0  0  0  0
   20.0040  -30.4750   35.5810 O   0  0  0  0  0  0  0  0  0  0  0  0
   20.4120  -30.0210   37.9350 C   0  0  0  0  0  0  0  0  0  0  0  0
   20.8310  -28.6390   37.6920 C   0  0  0  0  0  0  0  0  0  0  0  0
   20.8680  -28.1600   36.5610 O   0  0  0  0  0  0  0  0  0  0  0  0
   21.2180  -27.8240   38.8670 C   0  0  0  0  0  0  0  0  0  0  0  0
   21.6240  -26.5240   38.6240 O   0  0  0  0  0  0  0  0  0  0  0  0
   22.7150  -28.0310   42.0090 C   0  0  0  0  0  0  0  0  0  0  0  0
   23.0940  -27.4010   43.2100 C   0  0  0  0  0  0  0  0  0  0  0  0
   24.3760  -27.8180   43.8760 C   0  0  0  0  0  0  0  0  0  0  0  0
   22.1282  -25.2244   47.4125 H   0  0  0  0  0  0  0  0  0  0  0  0
   21.5416  -23.5346   47.2477 H   0  0  0  0  0  0  0  0  0  0  0  0
   20.3699  -24.8960   47.2477 H   0  0  0  0  0  0  0  0  0  0  0  0
   20.5420  -25.0370   45.0145 H   0  0  0  0  0  0  0  0  0  0  0  0
   21.7490  -23.6874   45.0299 H   0  0  0  0  0  0  0  0  0  0  0  0
   23.5419  -25.0932   44.8842 H   0  0  0  0  0  0  0  0  0  0  0  0
   22.7111  -26.4054   45.8214 H   0  0  0  0  0  0  0  0  0  0  0  0
   20.4425  -25.2546   43.4754 H   0  0  0  0  0  0  0  0  0  0  0  0
   19.7945  -26.3999   41.3700 H   0  0  0  0  0  0  0  0  0  0  0  0
   20.0144  -32.1612   40.5599 H   0  0  0  0  0  0  0  0  0  0  0  0
   19.3164  -33.6717   38.6981 H   0  0  0  0  0  0  0  0  0  0  0  0
   19.3254  -32.8397   36.3434 H   0  0  0  0  0  0  0  0  0  0  0  0
   20.6980  -29.9450   35.2410 H   0  0  0  0  0  0  0  0  0  0  0  0
   21.6820  -25.9120   39.3300 H   0  0  0  0  0  0  0  0  0  0  0  0
   23.3579  -28.8209   41.5933 H   0  0  0  0  0  0  0  0  0  0  0  0
   24.2518  -27.7776   44.9682 H   0  0  0  0  0  0  0  0  0  0  0  0
   24.6292  -28.8448   43.5735 H   0  0  0  0  0  0  0  0  0  0  0  0
   25.1848  -27.1366   43.5735 H   0  0  0  0  0  0  0  0  0  0  0  0
  1  2  1  0
  2  3  1  0
  3  4  1  0
  4  5  2  0
  5  6  1  0
  6  7  2  0
  7  8  1  0
  8  9  1  0
  9 10  1  0
 10 11  2  0
 11 12  1  0
 12 13  2  0
 13 14  1  0
 14 15  1  0
 14 16  2  0
 16 17  1  0
 17 18  2  0
 17 19  1  0
 19 20  1  0
  7 21  1  0
 21 22  2  0
 22 23  1  0
 22  4  1  0
 19  8  2  0
 16 10  1  0
  1 24  1  0
  1 25  1  0
  1 26  1  0
  2 27  1  0
  2 28  1  0
  3 29  1  0
  3 30  1  0
  5 31  1  0
  6 32  1  0
 11 33  1  0
 12 34  1  0
 13 35  1  0
 15 36  1  0
 20 37  1  0
 21 38  1  0
 23 39  1  0
 23 40  1  0
 23 41  1  0
M  END
>  <meeko>  (5) 
{"is_sidechain": [false], "free_energy": -8.349, "intermolecular_energy": -10.354, "internal_energy": -0.502}

$$$$
cand_055_out
     RDKit          3D

 41 43  0  0  0  0  0  0  0  0999 V2000
   20.4320  -31.6400   33.5760 C   0  0  0  0  0  0  0  0  0  0  0  0
   20.4960  -30.7550   34.8100 C   0  0  0  0  0  0  0  0  0  0  0  0
   20.0540  -31.5120   36.0640 C   0  0  0  0  0  0  0  0  0  0  0  0
   20.5160  -30.8240   37.3290 C   0  0  0  0  0  0  0  0  0  0  0  0
   21.2480  -29.6310   37.2110 C   0  0  0  0  0  0  0  0  0  0  0  0
   21.7100  -28.9540   38.3420 C   0  0  0  0  0  0  0  0  0  0  0  0
   21.4490  -29.4480   39.6230 C   0  0  0  0  0  0  0  0  0  0  0  0
   21.9470  -28.7650   40.8370 C   0  0  0  0  0  0  0  0  0  0  0  0
   21.1610  -27.6790   41.2060 O   0  0  0  0  0  0  0  0  0  0  0  0
   21.5100  -26.9550   42.3170 C   0  0  0  0  0  0  0  0  0  0  0  0
   20.6840  -25.8830   42.6590 C   0  0  0  0  0  0  0  0  0  0  0  0
   20.9830  -25.1020   43.7780 C   0  0  0  0  0  0  0  0  0  0  0  0
   22.1080  -25.3920   44.5530 C   0  0  0  0  0  0  0  0  0  0  0  0
   22.9300  -26.4630   44.2090 C   0  0  0  0  0  0  0  0  0  0  0  0
   24.0150  -26.6910   45.0110 O   0  0  0  0  0  0  0  0  0  0  0  0
   22.6290  -27.2440   43.0900 C   0  0  0  0  0  0  0  0  0  0  0  0
   23.4670  -28.3770   42.6940 C   0  0  0  0  0  0  0  0  0  0  0  0
   24.4760  -28.6910   43.3210 O   0  0  0  0  0  0  0  0  0  0  0  0
   23.0570  -29.1460   41.4950 C   0  0  0  0  0  0  0  0  0  0  0  0
   23.8630  -30.2060   41.1240 O   0  0  0  0  0  0  0  0  0  0  0  0
   20.7310  -30.6480   39.7420 C   0  0  0  0  0  0  0  0  0  0  0  0
   20.2650  -31.3470   38.6130 C   0  0  0  0  0  0  0  0  0  0  0  0
   19.4870  -32.6170   38.8170 C   0  0  0  0  0  0  0  0  0  0  0  0
   20.3558  -32.6933   33.8838 H   0  0  0  0  0  0  0  0  0  0  0  0
   19.5511  -31.3688   32.9756 H   0  0  0  0  0  0  0  0  0  0  0  0
   21.3427  -31.4984   32.9756 H   0  0  0  0  0  0  0  0  0  0  0  0
   21.5305  -30.4075   34.9478 H   0  0  0  0  0  0  0  0  0  0  0  0
   19.8148  -29.9042   34.6613 H   0  0  0  0  0  0  0  0  0  0  0  0
   18.9558  -31.5741   36.0735 H   0  0  0  0  0  0  0  0  0  0  0  0
   20.5071  -32.5139   36.0354 H   0  0  0  0  0  0  0  0  0  0  0  0
   21.4608  -29.2233   36.2118 H   0  0  0  0  0  0  0  0  0  0  0  0
   22.2845  -28.0235   38.2233 H   0  0  0  0  0  0  0  0  0  0  0  0
   19.7986  -25.6534   42.0480 H   0  0  0  0  0  0  0  0  0  0  0  0
   20.3318  -24.2579   44.0489 H   0  0  0  0  0  0  0  0  0  0  0  0
   22.3446  -24.7761   45.4332 H   0  0  0  0  0  0  0  0  0  0  0  0
   23.9710  -26.4960   45.9260 H   0  0  0  0  0  0  0  0  0  0  0  0
   23.8020  -30.5600   40.2590 H   0  0  0  0  0  0  0  0  0  0  0  0
   20.5271  -31.0529   40.7443 H   0  0  0  0  0  0  0  0  0  0  0  0
   19.3708  -32.8068   39.8943 H   0  0  0  0  0  0  0  0  0  0  0  0
   18.4946  -32.5176   38.3530 H   0  0  0  0  0  0  0  0  0  0  0  0
   20.0263  -33.4559   38.3530 H   0  0  0  0  0  0  0  0  0  0  0  0
  1  2  1  0
  2  3  1  0
  3  4  1  0
  4  5  2  0
  5  6  1  0
  6  7  2  0
  7  8  1  0
  8  9  1  0
  9 10  1  0
 10 11  2  0
 11 12  1  0
 12 13  2  0
 13 14  1  0
 14 15  1  0
 14 16  2  0
 16 17  1  0
 17 18  2  0
 17 19  1  0
 19 20  1  0
  7 21  1  0
 21 22  2  0
 22 23  1  0
 22  4  1  0
 19  8  2  0
 16 10  1  0
  1 24  1  0
  1 25  1  0
  1 26  1  0
  2 27  1  0
  2 28  1  0
  3 29  1  0
  3 30  1  0
  5 31  1  0
  6 32  1  0
 11 33  1  0
 12 34  1  0
 13 35  1  0
 15 36  1  0
 20 37  1  0
 21 38  1  0
 23 39  1  0
 23 40  1  0
 23 41  1  0
M  END
>  <meeko>  (6) 
{"is_sidechain": [false], "free_energy": -8.198, "intermolecular_energy": -10.146, "internal_energy": -0.523}

$$$$
cand_055_out
     RDKit          3D

 41 43  0  0  0  0  0  0  0  0999 V2000
   20.3240  -32.3200   33.6690 C   0  0  0  0  0  0  0  0  0  0  0  0
   20.8990  -31.1350   34.4290 C   0  0  0  0  0  0  0  0  0  0  0  0
   19.8630  -30.5230   35.3740 C   0  0  0  0  0  0  0  0  0  0  0  0
   20.4950  -30.0300   36.6570 C   0  0  0  0  0  0  0  0  0  0  0  0
   20.7050  -30.9530   37.6950 C   0  0  0  0  0  0  0  0  0  0  0  0
   21.2750  -30.5560   38.9070 C   0  0  0  0  0  0  0  0  0  0  0  0
   21.6560  -29.2270   39.1130 C   0  0  0  0  0  0  0  0  0  0  0  0
   22.2400  -28.7750   40.3950 C   0  0  0  0  0  0  0  0  0  0  0  0
   23.1560  -29.6790   40.9200 O   0  0  0  0  0  0  0  0  0  0  0  0
   23.7740  -29.3830   42.1070 C   0  0  0  0  0  0  0  0  0  0  0  0
   24.6980  -30.3120   42.5900 C   0  0  0  0  0  0  0  0  0  0  0  0
   25.3610  -30.0740   43.7950 C   0  0  0  0  0  0  0  0  0  0  0  0
   25.1010  -28.9080   44.5180 C   0  0  0  0  0  0  0  0  0  0  0  0
   24.1800  -27.9820   44.0340 C   0  0  0  0  0  0  0  0  0  0  0  0
   23.9720  -26.8630   44.7930 O   0  0  0  0  0  0  0  0  0  0  0  0
   23.5170  -28.2220   42.8280 C   0  0  0  0  0  0  0  0  0  0  0  0
   22.5410  -27.2750   42.2840 C   0  0  0  0  0  0  0  0  0  0  0  0
   22.2540  -26.2310   42.8650 O   0  0  0  0  0  0  0  0  0  0  0  0
   21.8980  -27.6190   40.9940 C   0  0  0  0  0  0  0  0  0  0  0  0
   20.9690  -26.7240   40.4970 O   0  0  0  0  0  0  0  0  0  0  0  0
   21.4320  -28.3010   38.0830 C   0  0  0  0  0  0  0  0  0  0  0  0
   20.8520  -28.6820   36.8580 C   0  0  0  0  0  0  0  0  0  0  0  0
   20.6580  -27.6400   35.7920 C   0  0  0  0  0  0  0  0  0  0  0  0
   19.9591  -33.0720   34.3840 H   0  0  0  0  0  0  0  0  0  0  0  0
   19.4904  -31.9805   33.0366 H   0  0  0  0  0  0  0  0  0  0  0  0
   21.1065  -32.7647   33.0366 H   0  0  0  0  0  0  0  0  0  0  0  0
   21.7648  -31.4730   35.0174 H   0  0  0  0  0  0  0  0  0  0  0  0
   21.1986  -30.3680   33.6997 H   0  0  0  0  0  0  0  0  0  0  0  0
   19.3763  -29.6759   34.8684 H   0  0  0  0  0  0  0  0  0  0  0  0
   19.1315  -31.3033   35.6310 H   0  0  0  0  0  0  0  0  0  0  0  0
   20.4161  -32.0046   37.5512 H   0  0  0  0  0  0  0  0  0  0  0  0
   21.4254  -31.2962   39.7067 H   0  0  0  0  0  0  0  0  0  0  0  0
   24.9032  -31.2308   42.0211 H   0  0  0  0  0  0  0  0  0  0  0  0
   26.0890  -30.8056   44.1754 H   0  0  0  0  0  0  0  0  0  0  0  0
   25.6227  -28.7211   45.4682 H   0  0  0  0  0  0  0  0  0  0  0  0
   23.1810  -26.3700   44.6940 H   0  0  0  0  0  0  0  0  0  0  0  0
   20.0610  -26.8280   40.7040 H   0  0  0  0  0  0  0  0  0  0  0  0
   21.7170  -27.2497   38.2366 H   0  0  0  0  0  0  0  0  0  0  0  0
   20.4761  -26.6628   36.2632 H   0  0  0  0  0  0  0  0  0  0  0  0
   21.5610  -27.5830   35.1664 H   0  0  0  0  0  0  0  0  0  0  0  0
   19.7950  -27.9117   35.1664 H   0  0  0  0  0  0  0  0  0  0  0  0
  1  2  1  0
  2  3  1  0
  3  4  1  0
  4  5  2  0
  5  6  1  0
  6  7  2  0
  7  8  1  0
  8  9  1  0
  9 10  1  0
 10 11  2  0
 11 12  1  0
 12 13  2  0
 13 14  1  0
 14 15  1  0
 14 16  2  0
 16 17  1  0
 17 18  2  0
 17 19  1  0
 19 20  1  0
  7 21  1  0
 21 22  2  0
 22 23  1  0
 22  4  1  0
 19  8  2  0
 16 10  1  0
  1 24  1  0
  1 25  1  0
  1 26  1  0
  2 27  1  0
  2 28  1  0
  3 29  1  0
  3 30  1  0
  5 31  1  0
  6 32  1  0
 11 33  1  0
 12 34  1  0
 13 35  1  0
 15 36  1  0
 20 37  1  0
 21 38  1  0
 23 39  1  0
 23 40  1  0
 23 41  1  0
M  END
>  <meeko>  (7) 
{"is_sidechain": [false], "free_energy": -8.075, "intermolecular_energy": -10.348, "internal_energy": -0.17}

$$$$
cand_055_out
     RDKit          3D

 41 43  0  0  0  0  0  0  0  0999 V2000
   24.3130  -25.9870   43.7920 C   0  0  0  0  0  0  0  0  0  0  0  0
   23.3580  -26.5520   44.8310 C   0  0  0  0  0  0  0  0  0  0  0  0
   22.8250  -27.9240   44.4130 C   0  0  0  0  0  0  0  0  0  0  0  0
   22.3820  -27.9370   42.9660 C   0  0  0  0  0  0  0  0  0  0  0  0
   21.2670  -27.1630   42.6030 C   0  0  0  0  0  0  0  0  0  0  0  0
   20.8050  -27.1420   41.2850 C   0  0  0  0  0  0  0  0  0  0  0  0
   21.4450  -27.8900   40.2930 C   0  0  0  0  0  0  0  0  0  0  0  0
   20.9610  -27.9040   38.8950 C   0  0  0  0  0  0  0  0  0  0  0  0
   21.0610  -29.1580   38.3020 O   0  0  0  0  0  0  0  0  0  0  0  0
   20.6460  -29.3140   37.0050 C   0  0  0  0  0  0  0  0  0  0  0  0
   20.7510  -30.5920   36.4550 C   0  0  0  0  0  0  0  0  0  0  0  0
   20.3480  -30.8190   35.1370 C   0  0  0  0  0  0  0  0  0  0  0  0
   19.8420  -29.7680   34.3690 C   0  0  0  0  0  0  0  0  0  0  0  0
   19.7380  -28.4940   34.9210 C   0  0  0  0  0  0  0  0  0  0  0  0
   19.2360  -27.5100   34.1130 O   0  0  0  0  0  0  0  0  0  0  0  0
   20.1410  -28.2680   36.2400 C   0  0  0  0  0  0  0  0  0  0  0  0
   20.0500  -26.9430   36.8570 C   0  0  0  0  0  0  0  0  0  0  0  0
   19.6220  -25.9680   36.2440 O   0  0  0  0  0  0  0  0  0  0  0  0
   20.4960  -26.8110   38.2630 C   0  0  0  0  0  0  0  0  0  0  0  0
   20.4170  -25.5520   38.8320 O   0  0  0  0  0  0  0  0  0  0  0  0
   22.5490  -28.6750   40.6580 C   0  0  0  0  0  0  0  0  0  0  0  0
   23.0240  -28.7140   41.9830 C   0  0  0  0  0  0  0  0  0  0  0  0
   24.2230  -29.5650   42.2980 C   0  0  0  0  0  0  0  0  0  0  0  0
   25.1534  -25.4898   44.2984 H   0  0  0  0  0  0  0  0  0  0  0  0
   24.6956  -26.8042   43.1629 H   0  0  0  0  0  0  0  0  0  0  0  0
   23.7810  -25.2582   43.1629 H   0  0  0  0  0  0  0  0  0  0  0  0
   23.8895  -26.6514   45.7889 H   0  0  0  0  0  0  0  0  0  0  0  0
   22.5050  -25.8642   44.9270 H   0  0  0  0  0  0  0  0  0  0  0  0
   23.6204  -28.6716   44.5487 H   0  0  0  0  0  0  0  0  0  0  0  0
   21.9521  -28.1577   45.0403 H   0  0  0  0  0  0  0  0  0  0  0  0
   20.7503  -26.5648   43.3680 H   0  0  0  0  0  0  0  0  0  0  0  0
   19.9284  -26.5304   41.0252 H   0  0  0  0  0  0  0  0  0  0  0  0
   21.1508  -31.4200   37.0588 H   0  0  0  0  0  0  0  0  0  0  0  0
   20.4293  -31.8267   34.7035 H   0  0  0  0  0  0  0  0  0  0  0  0
   19.5264  -29.9463   33.3304 H   0  0  0  0  0  0  0  0  0  0  0  0
   18.3650  -27.1920   34.2500 H   0  0  0  0  0  0  0  0  0  0  0  0
   20.1710  -24.8170   38.3070 H   0  0  0  0  0  0  0  0  0  0  0  0
   23.0568  -29.2757   39.8890 H   0  0  0  0  0  0  0  0  0  0  0  0
   24.3382  -29.6468   43.3889 H   0  0  0  0  0  0  0  0  0  0  0  0
   24.0841  -30.5678   41.8678 H   0  0  0  0  0  0  0  0  0  0  0  0
   25.1238  -29.1030   41.8678 H   0  0  0  0  0  0  0  0  0  0  0  0
  1  2  1  0
  2  3  1  0
  3  4  1  0
  4  5  2  0
  5  6  1  0
  6  7  2  0
  7  8  1  0
  8  9  1  0
  9 10  1  0
 10 11  2  0
 11 12  1  0
 12 13  2  0
 13 14  1  0
 14 15  1  0
 14 16  2  0
 16 17  1  0
 17 18  2  0
 17 19  1  0
 19 20  1  0
  7 21  1  0
 21 22  2  0
 22 23  1  0
 22  4  1  0
 19  8  2  0
 16 10  1  0
  1 24  1  0
  1 25  1  0
  1 26  1  0
  2 27  1  0
  2 28  1  0
  3 29  1  0
  3 30  1  0
  5 31  1  0
  6 32  1  0
 11 33  1  0
 12 34  1  0
 13 35  1  0
 15 36  1  0
 20 37  1  0
 21 38  1  0
 23 39  1  0
 23 40  1  0
 23 41  1  0
M  END
>  <meeko>  (8) 
{"is_sidechain": [false], "free_energy": -8.037, "intermolecular_energy": -10.217, "internal_energy": -0.254}

$$$$
cand_055_out
     RDKit          3D

 41 43  0  0  0  0  0  0  0  0999 V2000
   20.7960  -34.9550   33.1000 C   0  0  0  0  0  0  0  0  0  0  0  0
   20.2920  -34.8520   34.5310 C   0  0  0  0  0  0  0  0  0  0  0  0
   19.2530  -33.7390   34.6770 C   0  0  0  0  0  0  0  0  0  0  0  0
   19.6600  -32.7230   35.7210 C   0  0  0  0  0  0  0  0  0  0  0  0
   19.2870  -32.9520   37.0560 C   0  0  0  0  0  0  0  0  0  0  0  0
   19.6250  -32.0460   38.0640 C   0  0  0  0  0  0  0  0  0  0  0  0
   20.3500  -30.8880   37.7670 C   0  0  0  0  0  0  0  0  0  0  0  0
   20.7000  -29.9000   38.8110 C   0  0  0  0  0  0  0  0  0  0  0  0
   21.8140  -30.2730   39.5540 O   0  0  0  0  0  0  0  0  0  0  0  0
   22.2500  -29.4450   40.5570 C   0  0  0  0  0  0  0  0  0  0  0  0
   23.3800  -29.8510   41.2680 C   0  0  0  0  0  0  0  0  0  0  0  0
   23.8750  -29.0550   42.3040 C   0  0  0  0  0  0  0  0  0  0  0  0
   23.2390  -27.8550   42.6290 C   0  0  0  0  0  0  0  0  0  0  0  0
   22.1120  -27.4520   41.9170 C   0  0  0  0  0  0  0  0  0  0  0  0
   21.5380  -26.2670   42.2880 O   0  0  0  0  0  0  0  0  0  0  0  0
   21.6180  -28.2490   40.8810 C   0  0  0  0  0  0  0  0  0  0  0  0
   20.4350  -27.8620   40.1090 C   0  0  0  0  0  0  0  0  0  0  0  0
   19.8180  -26.8250   40.3390 O   0  0  0  0  0  0  0  0  0  0  0  0
   19.9970  -28.7730   39.0260 C   0  0  0  0  0  0  0  0  0  0  0  0
   18.8710  -28.4040   38.3110 O   0  0  0  0  0  0  0  0  0  0  0  0
   20.7100  -30.6520   36.4320 C   0  0  0  0  0  0  0  0  0  0  0  0
   20.3710  -31.5500   35.4020 C   0  0  0  0  0  0  0  0  0  0  0  0
   20.8050  -31.2400   33.9970 C   0  0  0  0  0  0  0  0  0  0  0  0
   21.8737  -35.1752   33.1058 H   0  0  0  0  0  0  0  0  0  0  0  0
   20.2596  -35.7621   32.5795 H   0  0  0  0  0  0  0  0  0  0  0  0
   20.6193  -34.0022   32.5795 H   0  0  0  0  0  0  0  0  0  0  0  0
   19.8338  -35.8096   34.8190 H   0  0  0  0  0  0  0  0  0  0  0  0
   21.1460  -34.6167   35.1832 H   0  0  0  0  0  0  0  0  0  0  0  0
   19.1395  -33.2288   33.7091 H   0  0  0  0  0  0  0  0  0  0  0  0
   18.3051  -34.1964   34.9968 H   0  0  0  0  0  0  0  0  0  0  0  0
   18.7198  -33.8592   37.3115 H   0  0  0  0  0  0  0  0  0  0  0  0
   19.3179  -32.2455   39.1012 H   0  0  0  0  0  0  0  0  0  0  0  0
   23.8805  -30.7968   41.0131 H   0  0  0  0  0  0  0  0  0  0  0  0
   24.7664  -29.3738   42.8641 H   0  0  0  0  0  0  0  0  0  0  0  0
   23.6275  -27.2292   43.4459 H   0  0  0  0  0  0  0  0  0  0  0  0
   21.6050  -25.5190   41.7280 H   0  0  0  0  0  0  0  0  0  0  0  0
   18.9160  -27.6930   37.7030 H   0  0  0  0  0  0  0  0  0  0  0  0
   21.2727  -29.7402   36.1830 H   0  0  0  0  0  0  0  0  0  0  0  0
   21.6999  -30.6008   34.0223 H   0  0  0  0  0  0  0  0  0  0  0  0
   21.0384  -32.1770   33.4702 H   0  0  0  0  0  0  0  0  0  0  0  0
   19.9944  -30.7153   33.4702 H   0  0  0  0  0  0  0  0  0  0  0  0
  1  2  1  0
  2  3  1  0
  3  4  1  0
  4  5  2  0
  5  6  1  0
  6  7  2  0
  7  8  1  0
  8  9  1  0
  9 10  1  0
 10 11  2  0
 11 12  1  0
 12 13  2  0
 13 14  1  0
 14 15  1  0
 14 16  2  0
 16 17  1  0
 17 18  2  0
 17 19  1  0
 19 20  1  0
  7 21  1  0
 21 22  2  0
 22 23  1  0
 22  4  1  0
 19  8  2  0
 16 10  1  0
  1 24  1  0
  1 25  1  0
  1 26  1  0
  2 27  1  0
  2 28  1  0
  3 29  1  0
  3 30  1  0
  5 31  1  0
  6 32  1  0
 11 33  1  0
 12 34  1  0
 13 35  1  0
 15 36  1  0
 20 37  1  0
 21 38  1  0
 23 39  1  0
 23 40  1  0
 23 41  1  0
M  END
>  <meeko>  (9) 
{"is_sidechain": [false], "free_energy": -7.983, "intermolecular_energy": -9.784, "internal_energy": -0.62}

$$$$
