cand_006_out
     RDKit          3D

 47 50  0  0  0  0  0  0  0  0999 V2000
   22.3070  -25.5350   41.8320 C   0  0  0  0  0  0  0  0  0  0  0  0
   21.8510  -26.7280   41.0360 C   0  0  0  0  0  0  0  0  0  0  0  0
   20.9440  -26.5540   39.9820 C   0  0  0  0  0  0  0  0  0  0  0  0
   20.5110  -27.6460   39.2290 C   0  0  0  0  0  0  0  0  0  0  0  0
   20.9790  -28.9360   39.5050 C   0  0  0  0  0  0  0  0  0  0  0  0
   20.4890  -30.0820   38.7110 C   0  0  0  0  0  0  0  0  0  0  0  0
   19.9090  -31.0740   39.4950 O   0  0  0  0  0  0  0  0  0  0  0  0
   19.4100  -32.1960   38.8840 C   0  0  0  0  0  0  0  0  0  0  0  0
   18.8500  -33.1710   39.7110 C   0  0  0  0  0  0  0  0  0  0  0  0
   18.3240  -34.3380   39.1540 C   0  0  0  0  0  0  0  0  0  0  0  0
   18.3560  -34.5290   37.7710 C   0  0  0  0  0  0  0  0  0  0  0  0
   18.9140  -33.5550   36.9480 C   0  0  0  0  0  0  0  0  0  0  0  0
   18.9120  -33.8060   35.6040 O   0  0  0  0  0  0  0  0  0  0  0  0
   19.4430  -32.3870   37.5070 C   0  0  0  0  0  0  0  0  0  0  0  0
   20.0390  -31.3390   36.6780 C   0  0  0  0  0  0  0  0  0  0  0  0
   20.0980  -31.4300   35.4540 O   0  0  0  0  0  0  0  0  0  0  0  0
   20.5780  -30.1440   37.3690 C   0  0  0  0  0  0  0  0  0  0  0  0
   21.1270  -29.1530   36.5750 O   0  0  0  0  0  0  0  0  0  0  0  0
   21.8790  -29.1060   40.5670 C   0  0  0  0  0  0  0  0  0  0  0  0
   22.3290  -28.0180   41.3380 C   0  0  0  0  0  0  0  0  0  0  0  0
   23.2460  -28.1790   42.4020 N   0  0  0  0  0  0  0  0  0  0  0  0
   23.9500  -29.4710   42.3380 C   0  0  0  0  0  0  0  0  0  0  0  0
   25.0770  -29.4760   43.3710 C   0  0  0  0  0  0  0  0  0  0  0  0
   24.5450  -29.1700   44.7710 C   0  0  0  0  0  0  0  0  0  0  0  0
   23.7360  -27.8730   44.7760 C   0  0  0  0  0  0  0  0  0  0  0  0
   22.6380  -27.9030   43.7130 C   0  0  0  0  0  0  0  0  0  0  0  0
   22.2222  -25.7567   42.9061 H   0  0  0  0  0  0  0  0  0  0  0  0
   23.3550  -25.3088   41.5859 H   0  0  0  0  0  0  0  0  0  0  0  0
   21.6771  -24.6675   41.5859 H   0  0  0  0  0  0  0  0  0  0  0  0
   20.5698  -25.5469   39.7460 H   0  0  0  0  0  0  0  0  0  0  0  0
   19.7939  -27.4914   38.4093 H   0  0  0  0  0  0  0  0  0  0  0  0
   18.8232  -33.0200   40.8003 H   0  0  0  0  0  0  0  0  0  0  0  0
   17.8840  -35.1078   39.8050 H   0  0  0  0  0  0  0  0  0  0  0  0
   17.9406  -35.4483   37.3325 H   0  0  0  0  0  0  0  0  0  0  0  0
   19.3610  -33.2300   35.0190 H   0  0  0  0  0  0  0  0  0  0  0  0
   21.7860  -29.3700   35.9450 H   0  0  0  0  0  0  0  0  0  0  0  0
   22.2429  -30.1167   40.8037 H   0  0  0  0  0  0  0  0  0  0  0  0
   23.2450  -30.2863   42.5576 H   0  0  0  0  0  0  0  0  0  0  0  0
   24.3684  -29.6165   41.3311 H   0  0  0  0  0  0  0  0  0  0  0  0
   25.5538  -30.4673   43.3771 H   0  0  0  0  0  0  0  0  0  0  0  0
   25.8042  -28.6975   43.0969 H   0  0  0  0  0  0  0  0  0  0  0  0
   23.8999  -29.9980   45.1000 H   0  0  0  0  0  0  0  0  0  0  0  0
   25.3995  -29.0537   45.4539 H   0  0  0  0  0  0  0  0  0  0  0  0
   23.2740  -27.7420   45.7656 H   0  0  0  0  0  0  0  0  0  0  0  0
   24.4155  -27.0375   44.5518 H   0  0  0  0  0  0  0  0  0  0  0  0
   21.9114  -28.6924   43.9558 H   0  0  0  0  0  0  0  0  0  0  0  0
   22.1216  -26.9321   43.6855 H   0  0  0  0  0  0  0  0  0  0  0  0
  1  2  1  0
  2  3  2  0
  3  4  1  0
  4  5  2  0
  5  6  1  0
  6  7  1  0
  7  8  1  0
  8  9  2  0
  9 10  1  0
 10 11  2  0
 11 12  1  0
 12 13  1  0
 12 14  2  0
 14 15  1  0
 15 16  2  0
 15 17  1  0
 17 18  1  0
  5 19  1  0
 19 20  2  0
 20 21  1  0
 21 22  1  0
 22 23  1  0
 23 24  1  0
 24 25  1  0
 25 26  1  0
 20  2  1  0
 26 21  1  0
 17  6  2  0
 14  8  1  0
  1 27  1  0
  1 28  1  0
  1 29  1  0
  3 30  1  0
  4 31  1  0
  9 32  1  0
 10 33  1  0
 11 34  1  0
 13 35  1  0
 18 36  1  0
 19 37  1  0
 22 38  1  0
 22 39  1  0
 23 40  1  0
 23 41  1  0
 24 42  1  0
 24 43  1  0
 25 44  1  0
 25 45  1  0
 26 46  1  0
 26 47  1  0
M  END
>  <meeko>  (1) 
{"is_sidechain": [false], "free_energy": -10.418, "intermolecular_energy": -12.245, "internal_energy": -0.076}

$$$$
cand_006_out
     RDKit          3D

 47 50  0  0  0  0  0  0  0  0999 V2000
   23.9740  -27.2000   43.6600 C   0  0  0  0  0  0  0  0  0  0  0  0
   23.2770  -27.9370   42.5490 C   0  0  0  0  0  0  0  0  0  0  0  0
   23.8080  -29.1440   42.0750 C   0  0  0  0  0  0  0  0  0  0  0  0
   23.1760  -29.8450   41.0480 C   0  0  0  0  0  0  0  0  0  0  0  0
   21.9960  -29.3600   40.4730 C   0  0  0  0  0  0  0  0  0  0  0  0
   21.3550  -30.1050   39.3680 C   0  0  0  0  0  0  0  0  0  0  0  0
   20.5760  -31.1680   39.8120 O   0  0  0  0  0  0  0  0  0  0  0  0
   19.9220  -31.9430   38.8900 C   0  0  0  0  0  0  0  0  0  0  0  0
   19.1640  -33.0080   39.3810 C   0  0  0  0  0  0  0  0  0  0  0  0
   18.4730  -33.8370   38.4950 C   0  0  0  0  0  0  0  0  0  0  0  0
   18.5390  -33.6010   37.1200 C   0  0  0  0  0  0  0  0  0  0  0  0
   19.2950  -32.5390   36.6330 C   0  0  0  0  0  0  0  0  0  0  0  0
   19.3150  -32.3650   35.2760 O   0  0  0  0  0  0  0  0  0  0  0  0
   19.9890  -31.7100   37.5200 C   0  0  0  0  0  0  0  0  0  0  0  0
   20.7950  -30.5830   37.0500 C   0  0  0  0  0  0  0  0  0  0  0  0
   20.8970  -30.3070   35.8570 O   0  0  0  0  0  0  0  0  0  0  0  0
   21.4970  -29.7710   38.0720 C   0  0  0  0  0  0  0  0  0  0  0  0
   22.2450  -28.7000   37.6170 O   0  0  0  0  0  0  0  0  0  0  0  0
   21.4740  -28.1460   40.9420 C   0  0  0  0  0  0  0  0  0  0  0  0
   22.0950  -27.4250   41.9780 C   0  0  0  0  0  0  0  0  0  0  0  0
   21.5680  -26.2070   42.4670 N   0  0  0  0  0  0  0  0  0  0  0  0
   20.1200  -26.2890   42.7190 C   0  0  0  0  0  0  0  0  0  0  0  0
   19.6700  -25.0270   43.4550 C   0  0  0  0  0  0  0  0  0  0  0  0
   20.0570  -23.7670   42.6800 C   0  0  0  0  0  0  0  0  0  0  0  0
   21.5490  -23.7660   42.3500 C   0  0  0  0  0  0  0  0  0  0  0  0
   21.9580  -25.0550   41.6370 C   0  0  0  0  0  0  0  0  0  0  0  0
   23.6176  -27.5768   44.6301 H   0  0  0  0  0  0  0  0  0  0  0  0
   25.0595  -27.3593   43.5811 H   0  0  0  0  0  0  0  0  0  0  0  0
   23.7545  -26.1250   43.5811 H   0  0  0  0  0  0  0  0  0  0  0  0
   24.7328  -29.5428   42.5174 H   0  0  0  0  0  0  0  0  0  0  0  0
   23.6097  -30.7890   40.6863 H   0  0  0  0  0  0  0  0  0  0  0  0
   19.1113  -33.1936   40.4640 H   0  0  0  0  0  0  0  0  0  0  0  0
   17.8761  -34.6768   38.8803 H   0  0  0  0  0  0  0  0  0  0  0  0
   17.9939  -34.2540   36.4226 H   0  0  0  0  0  0  0  0  0  0  0  0
   19.0280  -31.5560   34.9040 H   0  0  0  0  0  0  0  0  0  0  0  0
   22.1070  -27.8460   37.9750 H   0  0  0  0  0  0  0  0  0  0  0  0
   20.5549  -27.7471   40.4879 H   0  0  0  0  0  0  0  0  0  0  0  0
   19.5832  -26.3690   41.7622 H   0  0  0  0  0  0  0  0  0  0  0  0
   19.8994  -27.1751   43.3322 H   0  0  0  0  0  0  0  0  0  0  0  0
   18.5769  -25.0525   43.5756 H   0  0  0  0  0  0  0  0  0  0  0  0
   20.1679  -24.9995   44.4355 H   0  0  0  0  0  0  0  0  0  0  0  0
   19.4811  -23.7291   41.7436 H   0  0  0  0  0  0  0  0  0  0  0  0
   19.8346  -22.8887   43.3038 H   0  0  0  0  0  0  0  0  0  0  0  0
   21.7717  -22.9088   41.6976 H   0  0  0  0  0  0  0  0  0  0  0  0
   22.1140  -23.6940   43.2911 H   0  0  0  0  0  0  0  0  0  0  0  0
   21.4510  -25.1142   40.6626 H   0  0  0  0  0  0  0  0  0  0  0  0
   23.0466  -25.0627   41.4789 H   0  0  0  0  0  0  0  0  0  0  0  0
  1  2  1  0
  2  3  2  0
  3  4  1  0
  4  5  2  0
  5  6  1  0
  6  7  1  0
  7  8  1  0
  8  9  2  0
  9 10  1  0
 10 11  2  0
 11 12  1  0
 12 13  1  0
 12 14  2  0
 14 15  1  0
 15 16  2  0
 15 17  1  0
 17 18  1  0
  5 19  1  0
 19 20  2  0
 20 21  1  0
 21 22  1  0
 22 23  1  0
 23 24  1  0
 24 25  1  0
 25 26  1  0
 20  2  1  0
 26 21  1  0
 17  6  2  0
 14  8  1  0
  1 27  1  0
  1 28  1  0
  1 29  1  0
  3 30  1  0
  4 31  1  0
  9 32  1  0
 10 33  1  0
 11 34  1  0
 13 35  1  0
 18 36  1  0
 19 37  1  0
 22 38  1  0
 22 39  1  0
 23 40  1  0
 23 41  1  0
 24 42  1  0
 24 43  1  0
 25 44  1  0
 25 45  1  0
 26 46  1  0
 26 47  1  0
M  END
>  <meeko>  (2) 
{"is_sidechain": [false], "free_energy": -10.159, "intermolecular_energy": -11.288, "internal_energy": -0.729}

$$$$
cand_006_out
     RDKit          3D

 47 50  0  0  0  0  0  0  0  0999 V2000
   21.9550  -26.1580   41.2330 C   0  0  0  0  0  0  0  0  0  0  0  0
   21.4860  -27.3570   40.4540 C   0  0  0  0  0  0  0  0  0  0  0  0
   22.1640  -28.5770   40.5810 C   0  0  0  0  0  0  0  0  0  0  0  0
   21.7440  -29.7020   39.8700 C   0  0  0  0  0  0  0  0  0  0  0  0
   20.6330  -29.6360   39.0200 C   0  0  0  0  0  0  0  0  0  0  0  0
   20.2190  -30.8330   38.2570 C   0  0  0  0  0  0  0  0  0  0  0  0
   19.7560  -31.8600   39.0710 O   0  0  0  0  0  0  0  0  0  0  0  0
   19.3370  -33.0300   38.4910 C   0  0  0  0  0  0  0  0  0  0  0  0
   18.8940  -34.0390   39.3480 C   0  0  0  0  0  0  0  0  0  0  0  0
   18.4540  -35.2550   38.8220 C   0  0  0  0  0  0  0  0  0  0  0  0
   18.4550  -35.4620   37.4410 C   0  0  0  0  0  0  0  0  0  0  0  0
   18.8970  -34.4540   36.5880 C   0  0  0  0  0  0  0  0  0  0  0  0
   18.8710  -34.7230   35.2470 O   0  0  0  0  0  0  0  0  0  0  0  0
   19.3400  -33.2370   37.1150 C   0  0  0  0  0  0  0  0  0  0  0  0
   19.8120  -32.1510   36.2550 C   0  0  0  0  0  0  0  0  0  0  0  0
   19.8370  -32.2540   35.0300 O   0  0  0  0  0  0  0  0  0  0  0  0
   20.2670  -30.9040   36.9130 C   0  0  0  0  0  0  0  0  0  0  0  0
   20.6990  -29.8810   36.0890 O   0  0  0  0  0  0  0  0  0  0  0  0
   19.9650  -28.4110   38.8880 C   0  0  0  0  0  0  0  0  0  0  0  0
   20.3710  -27.2660   39.5980 C   0  0  0  0  0  0  0  0  0  0  0  0
   19.6950  -26.0290   39.4800 N   0  0  0  0  0  0  0  0  0  0  0  0
   18.2720  -26.1380   39.8430 C   0  0  0  0  0  0  0  0  0  0  0  0
   17.6680  -24.7350   39.9160 C   0  0  0  0  0  0  0  0  0  0  0  0
   17.8810  -23.9720   38.6090 C   0  0  0  0  0  0  0  0  0  0  0  0
   19.3570  -23.9670   38.2140 C   0  0  0  0  0  0  0  0  0  0  0  0
   19.9240  -25.3860   38.1770 C   0  0  0  0  0  0  0  0  0  0  0  0
   21.8737  -26.3658   42.3101 H   0  0  0  0  0  0  0  0  0  0  0  0
   23.0035  -25.9430   40.9792 H   0  0  0  0  0  0  0  0  0  0  0  0
   21.3306  -25.2887   40.9792 H   0  0  0  0  0  0  0  0  0  0  0  0
   23.0359  -28.6485   41.2478 H   0  0  0  0  0  0  0  0  0  0  0  0
   22.2911  -30.6501   39.9783 H   0  0  0  0  0  0  0  0  0  0  0  0
   18.8916  -33.8762   40.4359 H   0  0  0  0  0  0  0  0  0  0  0  0
   18.1060  -36.0513   39.4964 H   0  0  0  0  0  0  0  0  0  0  0  0
   18.1071  -36.4201   37.0275 H   0  0  0  0  0  0  0  0  0  0  0  0
   18.1700  -34.3990   34.7180 H   0  0  0  0  0  0  0  0  0  0  0  0
   21.1680  -30.0790   35.3040 H   0  0  0  0  0  0  0  0  0  0  0  0
   19.1004  -28.3428   38.2114 H   0  0  0  0  0  0  0  0  0  0  0  0
   17.7414  -26.7288   39.0818 H   0  0  0  0  0  0  0  0  0  0  0  0
   18.1745  -26.6359   40.8190 H   0  0  0  0  0  0  0  0  0  0  0  0
   16.5886  -24.8189   40.1105 H   0  0  0  0  0  0  0  0  0  0  0  0
   18.1668  -24.1832   40.7263 H   0  0  0  0  0  0  0  0  0  0  0  0
   17.2965  -24.4539   37.8114 H   0  0  0  0  0  0  0  0  0  0  0  0
   17.5523  -22.9321   38.7519 H   0  0  0  0  0  0  0  0  0  0  0  0
   19.4602  -23.5133   37.2173 H   0  0  0  0  0  0  0  0  0  0  0  0
   19.9163  -23.3878   38.9635 H   0  0  0  0  0  0  0  0  0  0  0  0
   19.4207  -25.9635   37.3876 H   0  0  0  0  0  0  0  0  0  0  0  0
   21.0030  -25.3490   37.9661 H   0  0  0  0  0  0  0  0  0  0  0  0
  1  2  1  0
  2  3  2  0
  3  4  1  0
  4  5  2  0
  5  6  1  0
  6  7  1  0
  7  8  1  0
  8  9  2  0
  9 10  1  0
 10 11  2  0
 11 12  1  0
 12 13  1  0
 12 14  2  0
 14 15  1  0
 15 16  2  0
 15 17  1  0
 17 18  1  0
  5 19  1  0
 19 20  2  0
 20 21  1  0
 21 22  1  0
 22 23  1  0
 23 24  1  0
 24 25  1  0
 25 26  1  0
 20  2  1  0
 26 21  1  0
 17  6  2  0
 14  8  1  0
  1 27  1  0
  1 28  1  0
  1 29  1  0
  3 30  1  0
  4 31  1  0
  9 32  1  0
 10 33  1  0
 11 34  1  0
 13 35  1  0
 18 36  1  0
 19 37  1  0
 22 38  1  0
 22 39  1  0
 23 40  1  0
 23 41  1  0
 24 42  1  0
 24 43  1  0
 25 44  1  0
 25 45  1  0
 26 46  1  0
 26 47  1  0
M  END
>  <meeko>  (3) 
{"is_sidechain": [false], "free_energy": -9.764, "intermolecular_energy": -10.879, "internal_energy": -0.673}

$$$$
cand_006_out
     RDKit          3D

 47 50  0  0  0  0  0  0  0  0999 V2000
   19.8940  -30.8490   35.5350 C   0  0  0  0  0  0  0  0  0  0  0  0
   20.4620  -30.3430   36.8330 C   0  0  0  0  0  0  0  0  0  0  0  0
   21.2730  -29.2010   36.8390 C   0  0  0  0  0  0  0  0  0  0  0  0
   21.8070  -28.7130   38.0320 C   0  0  0  0  0  0  0  0  0  0  0  0
   21.5380  -29.3500   39.2490 C   0  0  0  0  0  0  0  0  0  0  0  0
   22.1340  -28.8320   40.4980 C   0  0  0  0  0  0  0  0  0  0  0  0
   23.1110  -29.6730   41.0200 O   0  0  0  0  0  0  0  0  0  0  0  0
   23.7480  -29.3110   42.1800 C   0  0  0  0  0  0  0  0  0  0  0  0
   24.7110  -30.1920   42.6750 C   0  0  0  0  0  0  0  0  0  0  0  0
   25.3970  -29.8850   43.8510 C   0  0  0  0  0  0  0  0  0  0  0  0
   25.1210  -28.6960   44.5310 C   0  0  0  0  0  0  0  0  0  0  0  0
   24.1610  -27.8190   44.0350 C   0  0  0  0  0  0  0  0  0  0  0  0
   23.9420  -26.6740   44.7510 O   0  0  0  0  0  0  0  0  0  0  0  0
   23.4730  -28.1290   42.8580 C   0  0  0  0  0  0  0  0  0  0  0  0
   22.4560  -27.2350   42.3030 C   0  0  0  0  0  0  0  0  0  0  0  0
   22.1630  -26.1680   42.8390 O   0  0  0  0  0  0  0  0  0  0  0  0
   21.7800  -27.6590   41.0550 C   0  0  0  0  0  0  0  0  0  0  0  0
   20.8300  -26.8000   40.5320 O   0  0  0  0  0  0  0  0  0  0  0  0
   20.7350  -30.5000   39.2370 C   0  0  0  0  0  0  0  0  0  0  0  0
   20.1850  -31.0070   38.0450 C   0  0  0  0  0  0  0  0  0  0  0  0
   19.3640  -32.1580   38.0260 N   0  0  0  0  0  0  0  0  0  0  0  0
   19.3480  -32.8510   39.3250 C   0  0  0  0  0  0  0  0  0  0  0  0
   18.2710  -33.9360   39.2980 C   0  0  0  0  0  0  0  0  0  0  0  0
   18.4830  -34.8960   38.1270 C   0  0  0  0  0  0  0  0  0  0  0  0
   18.5940  -34.1310   36.8080 C   0  0  0  0  0  0  0  0  0  0  0  0
   19.6640  -33.0420   36.8890 C   0  0  0  0  0  0  0  0  0  0  0  0
   19.0875  -31.5675   35.7430 H   0  0  0  0  0  0  0  0  0  0  0  0
   19.4922  -30.0041   34.9565 H   0  0  0  0  0  0  0  0  0  0  0  0
   20.6870  -31.3454   34.9565 H   0  0  0  0  0  0  0  0  0  0  0  0
   21.4912  -28.6835   35.8932 H   0  0  0  0  0  0  0  0  0  0  0  0
   22.4463  -27.8180   38.0160 H   0  0  0  0  0  0  0  0  0  0  0  0
   24.9290  -31.1273   42.1387 H   0  0  0  0  0  0  0  0  0  0  0  0
   26.1551  -30.5792   44.2426 H   0  0  0  0  0  0  0  0  0  0  0  0
   25.6620  -28.4534   45.4575 H   0  0  0  0  0  0  0  0  0  0  0  0
   23.9650  -26.6950   45.6860 H   0  0  0  0  0  0  0  0  0  0  0  0
   20.0640  -27.1450   40.1170 H   0  0  0  0  0  0  0  0  0  0  0  0
   20.5297  -31.0194   40.1846 H   0  0  0  0  0  0  0  0  0  0  0  0
   20.3301  -33.3109   39.5096 H   0  0  0  0  0  0  0  0  0  0  0  0
   19.1296  -32.1309   40.1274 H   0  0  0  0  0  0  0  0  0  0  0  0
   18.3101  -34.5039   40.2392 H   0  0  0  0  0  0  0  0  0  0  0  0
   17.2909  -33.4512   39.1781 H   0  0  0  0  0  0  0  0  0  0  0  0
   19.4092  -35.4661   38.2918 H   0  0  0  0  0  0  0  0  0  0  0  0
   17.6194  -35.5748   38.0681 H   0  0  0  0  0  0  0  0  0  0  0  0
   18.8590  -34.8355   36.0058 H   0  0  0  0  0  0  0  0  0  0  0  0
   17.6254  -33.6529   36.6000 H   0  0  0  0  0  0  0  0  0  0  0  0
   20.6513  -33.5053   37.0327 H   0  0  0  0  0  0  0  0  0  0  0  0
   19.6709  -32.4583   35.9567 H   0  0  0  0  0  0  0  0  0  0  0  0
  1  2  1  0
  2  3  2  0
  3  4  1  0
  4  5  2  0
  5  6  1  0
  6  7  1  0
  7  8  1  0
  8  9  2  0
  9 10  1  0
 10 11  2  0
 11 12  1  0
 12 13  1  0
 12 14  2  0
 14 15  1  0
 15 16  2  0
 15 17  1  0
 17 18  1  0
  5 19  1  0
 19 20  2  0
 20 21  1  0
 21 22  1  0
 22 23  1  0
 23 24  1  0
 24 25  1  0
 25 26  1  0
 20  2  1  0
 26 21  1  0
 17  6  2  0
 14  8  1  0
  1 27  1  0
  1 28  1  0
  1 29  1  0
  3 30  1  0
  4 31  1  0
  9 32  1  0
 10 33  1  0
 11 34  1  0
 13 35  1  0
 18 36  1  0
 19 37  1  0
 22 38  1  0
 22 39  1  0
 23 40  1  0
 23 41  1  0
 24 42  1  0
 24 43  1  0
 25 44  1  0
 25 45  1  0
 26 46  1  0
 26 47  1  0
M  END
>  <meeko>  (4) 
{"is_sidechain": [false], "free_energy": -9.451, "intermolecular_energy": -11.725, "internal_energy": 0.54}

$$$$
cand_006_out
     RDKit          3D

 47 50  0  0  0  0  0  0  0  0999 V2000
   21.9230  -26.4080   41.2840 C   0  0  0  0  0  0  0  0  0  0  0  0
   21.4720  -27.5420   40.4040 C   0  0  0  0  0  0  0  0  0  0  0  0
   22.0990  -28.7920   40.5060 C   0  0  0  0  0  0  0  0  0  0  0  0
   21.6950  -29.8580   39.7020 C   0  0  0  0  0  0  0  0  0  0  0  0
   20.6510  -29.7040   38.7820 C   0  0  0  0  0  0  0  0  0  0  0  0
   20.2540  -30.8400   37.9220 C   0  0  0  0  0  0  0  0  0  0  0  0
   20.6160  -30.6620   36.5920 O   0  0  0  0  0  0  0  0  0  0  0  0
   20.3090  -31.6420   35.6830 C   0  0  0  0  0  0  0  0  0  0  0  0
   20.6780  -31.4140   34.3560 C   0  0  0  0  0  0  0  0  0  0  0  0
   20.3960  -32.3730   33.3810 C   0  0  0  0  0  0  0  0  0  0  0  0
   19.7460  -33.5580   33.7320 C   0  0  0  0  0  0  0  0  0  0  0  0
   19.3790  -33.7830   35.0560 C   0  0  0  0  0  0  0  0  0  0  0  0
   18.7470  -34.9640   35.3290 O   0  0  0  0  0  0  0  0  0  0  0  0
   19.6610  -32.8220   36.0320 C   0  0  0  0  0  0  0  0  0  0  0  0
   19.2930  -33.0190   37.4350 C   0  0  0  0  0  0  0  0  0  0  0  0
   18.7250  -34.0380   37.8230 O   0  0  0  0  0  0  0  0  0  0  0  0
   19.6290  -31.9370   38.3890 C   0  0  0  0  0  0  0  0  0  0  0  0
   19.2880  -32.1400   39.7140 O   0  0  0  0  0  0  0  0  0  0  0  0
   20.0340  -28.4490   38.6760 C   0  0  0  0  0  0  0  0  0  0  0  0
   20.4250  -27.3620   39.4790 C   0  0  0  0  0  0  0  0  0  0  0  0
   19.8000  -26.0970   39.3880 N   0  0  0  0  0  0  0  0  0  0  0  0
   18.4500  -26.1010   39.9760 C   0  0  0  0  0  0  0  0  0  0  0  0
   17.9350  -24.6630   40.0500 C   0  0  0  0  0  0  0  0  0  0  0  0
   17.9710  -23.9910   38.6780 C   0  0  0  0  0  0  0  0  0  0  0  0
   19.3640  -24.0950   38.0560 C   0  0  0  0  0  0  0  0  0  0  0  0
   19.8480  -25.5450   38.0250 C   0  0  0  0  0  0  0  0  0  0  0  0
   21.8087  -26.6953   42.3397 H   0  0  0  0  0  0  0  0  0  0  0  0
   22.9796  -26.1817   41.0779 H   0  0  0  0  0  0  0  0  0  0  0  0
   21.3104  -25.5179   41.0779 H   0  0  0  0  0  0  0  0  0  0  0  0
   22.9175  -28.9334   41.2271 H   0  0  0  0  0  0  0  0  0  0  0  0
   22.2021  -30.8300   39.7918 H   0  0  0  0  0  0  0  0  0  0  0  0
   21.1899  -30.4806   34.0790 H   0  0  0  0  0  0  0  0  0  0  0  0
   20.6863  -32.1948   32.3351 H   0  0  0  0  0  0  0  0  0  0  0  0
   19.5242  -34.3129   32.9632 H   0  0  0  0  0  0  0  0  0  0  0  0
   17.9370  -34.9640   35.7990 H   0  0  0  0  0  0  0  0  0  0  0  0
   19.8070  -32.7060   40.2490 H   0  0  0  0  0  0  0  0  0  0  0  0
   19.2230  -28.3109   37.9458 H   0  0  0  0  0  0  0  0  0  0  0  0
   17.7760  -26.7023   39.3481 H   0  0  0  0  0  0  0  0  0  0  0  0
   18.4858  -26.5354   40.9860 H   0  0  0  0  0  0  0  0  0  0  0  0
   16.8984  -24.6718   40.4180 H   0  0  0  0  0  0  0  0  0  0  0  0
   18.5845  -24.0954   40.7326 H   0  0  0  0  0  0  0  0  0  0  0  0
   17.2434  -24.4838   38.0164 H   0  0  0  0  0  0  0  0  0  0  0  0
   17.7195  -22.9272   38.8009 H   0  0  0  0  0  0  0  0  0  0  0  0
   19.3278  -23.7066   37.0275 H   0  0  0  0  0  0  0  0  0  0  0  0
   20.0638  -23.5069   38.6678 H   0  0  0  0  0  0  0  0  0  0  0  0
   19.1970  -26.1367   37.3647 H   0  0  0  0  0  0  0  0  0  0  0  0
   20.8797  -25.5836   37.6453 H   0  0  0  0  0  0  0  0  0  0  0  0
  1  2  1  0
  2  3  2  0
  3  4  1  0
  4  5  2  0
  5  6  1  0
  6  7  1  0
  7  8  1  0
  8  9  2  0
  9 10  1  0
 10 11  2  0
 11 12  1  0
 12 13  1  0
 12 14  2  0
 14 15  1  0
 15 16  2  0
 15 17  1  0
 17 18  1  0
  5 19  1  0
 19 20  2  0
 20 21  1  0
 21 22  1  0
 22 23  1  0
 23 24  1  0
 24 25  1  0
 25 26  1  0
 20  2  1  0
 26 21  1  0
 17  6  2  0
 14  8  1  0
  1 27  1  0
  1 28  1  0
  1 29  1  0
  3 30  1  0
  4 31  1  0
  9 32  1  0
 10 33  1  0
 11 34  1  0
 13 35  1  0
 18 36  1  0
 19 37  1  0
 22 38  1  0
 22 39  1  0
 23 40  1  0
 23 41  1  0
 24 42  1  0
 24 43  1  0
 25 44  1  0
 25 45  1  0
 26 46  1  0
 26 47  1  0
M  END
>  <meeko>  (5) 
{"is_sidechain": [false], "free_energy": -9.394, "intermolecular_energy": -10.421, "internal_energy": -0.698}

$$$$
cand_006_out
     RDKit          3D

 47 50  0  0  0  0  0  0  0  0999 V2000
   22.0310  -26.1210   41.5840 C   0  0  0  0  0  0  0  0  0  0  0  0
   21.6250  -27.2850   40.7210 C   0  0  0  0  0  0  0  0  0  0  0  0
   20.5860  -27.1320   39.7930 C   0  0  0  0  0  0  0  0  0  0  0  0
   20.1950  -28.1970   38.9800 C   0  0  0  0  0  0  0  0  0  0  0  0
   20.8370  -29.4370   39.0700 C   0  0  0  0  0  0  0  0  0  0  0  0
   20.3920  -30.5600   38.2180 C   0  0  0  0  0  0  0  0  0  0  0  0
   20.7480  -30.4000   36.8830 O   0  0  0  0  0  0  0  0  0  0  0  0
   20.3980  -31.3710   35.9810 C   0  0  0  0  0  0  0  0  0  0  0  0
   20.7620  -31.1610   34.6500 C   0  0  0  0  0  0  0  0  0  0  0  0
   20.4370  -32.1120   33.6800 C   0  0  0  0  0  0  0  0  0  0  0  0
   19.7480  -33.2720   34.0410 C   0  0  0  0  0  0  0  0  0  0  0  0
   19.3850  -33.4790   35.3700 C   0  0  0  0  0  0  0  0  0  0  0  0
   18.7130  -34.6360   35.6530 O   0  0  0  0  0  0  0  0  0  0  0  0
   19.7100  -32.5260   36.3400 C   0  0  0  0  0  0  0  0  0  0  0  0
   19.3480  -32.7050   37.7460 C   0  0  0  0  0  0  0  0  0  0  0  0
   18.7480  -33.7020   38.1430 O   0  0  0  0  0  0  0  0  0  0  0  0
   19.7330  -31.6330   38.6940 C   0  0  0  0  0  0  0  0  0  0  0  0
   19.3960  -31.8190   40.0220 O   0  0  0  0  0  0  0  0  0  0  0  0
   21.8690  -29.5890   40.0080 C   0  0  0  0  0  0  0  0  0  0  0  0
   22.2790  -28.5270   40.8350 C   0  0  0  0  0  0  0  0  0  0  0  0
   23.3280  -28.6670   41.7730 N   0  0  0  0  0  0  0  0  0  0  0  0
   23.8310  -30.0500   41.8420 C   0  0  0  0  0  0  0  0  0  0  0  0
   25.1010  -30.0760   42.6940 C   0  0  0  0  0  0  0  0  0  0  0  0
   24.8500  -29.4770   44.0780 C   0  0  0  0  0  0  0  0  0  0  0  0
   24.2360  -28.0820   43.9650 C   0  0  0  0  0  0  0  0  0  0  0  0
   22.9850  -28.0990   43.0860 C   0  0  0  0  0  0  0  0  0  0  0  0
   21.9340  -26.3990   42.6439 H   0  0  0  0  0  0  0  0  0  0  0  0
   23.0759  -25.8524   41.3695 H   0  0  0  0  0  0  0  0  0  0  0  0
   21.3798  -25.2608   41.3695 H   0  0  0  0  0  0  0  0  0  0  0  0
   20.0735  -26.1627   39.7045 H   0  0  0  0  0  0  0  0  0  0  0  0
   19.3737  -28.0601   38.2611 H   0  0  0  0  0  0  0  0  0  0  0  0
   21.3043  -30.2473   34.3652 H   0  0  0  0  0  0  0  0  0  0  0  0
   20.7239  -31.9472   32.6309 H   0  0  0  0  0  0  0  0  0  0  0  0
   19.4923  -34.0211   33.2771 H   0  0  0  0  0  0  0  0  0  0  0  0
   19.1590  -35.3480   36.0660 H   0  0  0  0  0  0  0  0  0  0  0  0
   18.7880  -32.4900   40.2620 H   0  0  0  0  0  0  0  0  0  0  0  0
   22.3707  -30.5637   40.0994 H   0  0  0  0  0  0  0  0  0  0  0  0
   23.0677  -30.6977   42.2979 H   0  0  0  0  0  0  0  0  0  0  0  0
   24.0556  -30.4148   40.8288 H   0  0  0  0  0  0  0  0  0  0  0  0
   25.4348  -31.1178   42.8090 H   0  0  0  0  0  0  0  0  0  0  0  0
   25.8719  -29.4755   42.1889 H   0  0  0  0  0  0  0  0  0  0  0  0
   24.1608  -30.1300   44.6335 H   0  0  0  0  0  0  0  0  0  0  0  0
   25.8117  -29.3961   44.6058 H   0  0  0  0  0  0  0  0  0  0  0  0
   23.9638  -27.7271   44.9700 H   0  0  0  0  0  0  0  0  0  0  0  0
   24.9765  -27.4113   43.5047 H   0  0  0  0  0  0  0  0  0  0  0  0
   22.2082  -28.7151   43.5625 H   0  0  0  0  0  0  0  0  0  0  0  0
   22.6066  -27.0739   42.9594 H   0  0  0  0  0  0  0  0  0  0  0  0
  1  2  1  0
  2  3  2  0
  3  4  1  0
  4  5  2  0
  5  6  1  0
  6  7  1  0
  7  8  1  0
  8  9  2  0
  9 10  1  0
 10 11  2  0
 11 12  1  0
 12 13  1  0
 12 14  2  0
 14 15  1  0
 15 16  2  0
 15 17  1  0
 17 18  1  0
  5 19  1  0
 19 20  2  0
 20 21  1  0
 21 22  1  0
 22 23  1  0
 23 24  1  0
 24 25  1  0
 25 26  1  0
 20  2  1  0
 26 21  1  0
 17  6  2  0
 14  8  1  0
  1 27  1  0
  1 28  1  0
  1 29  1  0
  3 30  1  0
  4 31  1  0
  9 32  1  0
 10 33  1  0
 11 34  1  0
 13 35  1  0
 18 36  1  0
 19 37  1  0
 22 38  1  0
 22 39  1  0
 23 40  1  0
 23 41  1  0
 24 42  1  0
 24 43  1  0
 25 44  1  0
 25 45  1  0
 26 46  1  0
 26 47  1  0
M  END
>  <meeko>  (6) 
{"is_sidechain": [false], "free_energy": -9.338, "intermolecular_energy": -11.423, "internal_energy": 0.371}

$$$$
cand_006_out
     RDKit          3D

 47 50  0  0  0  0  0  0  0  0999 V2000
   19.7250  -25.0670   42.2560 C   0  0  0  0  0  0  0  0  0  0  0  0
   19.7750  -26.2700   41.3520 C   0  0  0  0  0  0  0  0  0  0  0  0
   18.7570  -26.4740   40.4110 C   0  0  0  0  0  0  0  0  0  0  0  0
   18.7850  -27.5800   39.5610 C   0  0  0  0  0  0  0  0  0  0  0  0
   19.8330  -28.5050   39.6260 C   0  0  0  0  0  0  0  0  0  0  0  0
   19.8320  -29.6840   38.7340 C   0  0  0  0  0  0  0  0  0  0  0  0
   19.1840  -30.7810   39.2900 O   0  0  0  0  0  0  0  0  0  0  0  0
   19.1070  -31.9440   38.5670 C   0  0  0  0  0  0  0  0  0  0  0  0
   18.4610  -33.0240   39.1700 C   0  0  0  0  0  0  0  0  0  0  0  0
   18.3480  -34.2370   38.4880 C   0  0  0  0  0  0  0  0  0  0  0  0
   18.8800  -34.3700   37.2040 C   0  0  0  0  0  0  0  0  0  0  0  0
   19.5230  -33.2910   36.6040 C   0  0  0  0  0  0  0  0  0  0  0  0
   20.0190  -33.4900   35.3450 O   0  0  0  0  0  0  0  0  0  0  0  0
   19.6380  -32.0770   37.2880 C   0  0  0  0  0  0  0  0  0  0  0  0
   20.3060  -30.9180   36.6940 C   0  0  0  0  0  0  0  0  0  0  0  0
   20.7930  -30.9540   35.5650 O   0  0  0  0  0  0  0  0  0  0  0  0
   20.3810  -29.6810   37.5050 C   0  0  0  0  0  0  0  0  0  0  0  0
   21.0030  -28.5890   36.9280 O   0  0  0  0  0  0  0  0  0  0  0  0
   20.8440  -28.3030   40.5770 C   0  0  0  0  0  0  0  0  0  0  0  0
   20.8350  -27.1920   41.4420 C   0  0  0  0  0  0  0  0  0  0  0  0
   21.8570  -26.9740   42.3950 N   0  0  0  0  0  0  0  0  0  0  0  0
   22.6300  -25.7530   42.1100 C   0  0  0  0  0  0  0  0  0  0  0  0
   23.5520  -25.4590   43.2940 C   0  0  0  0  0  0  0  0  0  0  0  0
   24.4470  -26.6570   43.6080 C   0  0  0  0  0  0  0  0  0  0  0  0
   23.6160  -27.9260   43.7990 C   0  0  0  0  0  0  0  0  0  0  0  0
   22.6930  -28.1660   42.6040 C   0  0  0  0  0  0  0  0  0  0  0  0
   19.7387  -25.3962   43.3055 H   0  0  0  0  0  0  0  0  0  0  0  0
   20.5973  -24.4257   42.0615 H   0  0  0  0  0  0  0  0  0  0  0  0
   18.8025  -24.5003   42.0615 H   0  0  0  0  0  0  0  0  0  0  0  0
   17.9275  -25.7549   40.3418 H   0  0  0  0  0  0  0  0  0  0  0  0
   17.9745  -27.7265   38.8319 H   0  0  0  0  0  0  0  0  0  0  0  0
   18.0413  -32.9198   40.1814 H   0  0  0  0  0  0  0  0  0  0  0  0
   17.8392  -35.0889   38.9628 H   0  0  0  0  0  0  0  0  0  0  0  0
   18.7911  -35.3261   36.6673 H   0  0  0  0  0  0  0  0  0  0  0  0
   19.4530  -33.4240   34.6020 H   0  0  0  0  0  0  0  0  0  0  0  0
   20.5280  -27.7920   36.8000 H   0  0  0  0  0  0  0  0  0  0  0  0
   21.6652  -29.0314   40.6489 H   0  0  0  0  0  0  0  0  0  0  0  0
   23.2324  -25.9016   41.2017 H   0  0  0  0  0  0  0  0  0  0  0  0
   21.9442  -24.9072   41.9544 H   0  0  0  0  0  0  0  0  0  0  0  0
   24.1845  -24.5928   43.0498 H   0  0  0  0  0  0  0  0  0  0  0  0
   22.9297  -25.2483   44.1762 H   0  0  0  0  0  0  0  0  0  0  0  0
   25.1498  -26.8090   42.7756 H   0  0  0  0  0  0  0  0  0  0  0  0
   24.9931  -26.4518   44.5406 H   0  0  0  0  0  0  0  0  0  0  0  0
   24.2934  -28.7858   43.9078 H   0  0  0  0  0  0  0  0  0  0  0  0
   22.9963  -27.8049   44.6997 H   0  0  0  0  0  0  0  0  0  0  0  0
   23.2969  -28.3549   41.7042 H   0  0  0  0  0  0  0  0  0  0  0  0
   22.0523  -29.0385   42.7997 H   0  0  0  0  0  0  0  0  0  0  0  0
  1  2  1  0
  2  3  2  0
  3  4  1  0
  4  5  2  0
  5  6  1  0
  6  7  1  0
  7  8  1  0
  8  9  2  0
  9 10  1  0
 10 11  2  0
 11 12  1  0
 12 13  1  0
 12 14  2  0
 14 15  1  0
 15 16  2  0
 15 17  1  0
 17 18  1  0
  5 19  1  0
 19 20  2  0
 20 21  1  0
 21 22  1  0
 22 23  1  0
 23 24  1  0
 24 25  1  0
 25 26  1  0
 20  2  1  0
 26 21  1  0
 17  6  2  0
 14  8  1  0
  1 27  1  0
  1 28  1  0
  1 29  1  0
  3 30  1  0
  4 31  1  0
  9 32  1  0
 10 33  1  0
 11 34  1  0
 13 35  1  0
 18 36  1  0
 19 37  1  0
 22 38  1  0
 22 39  1  0
 23 40  1  0
 23 41  1  0
 24 42  1  0
 24 43  1  0
 25 44  1  0
 25 45  1  0
 26 46  1  0
 26 47  1  0
M  END
>  <meeko>  (7) 
{"is_sidechain": [false], "free_energy": -9.292, "intermolecular_energy": -10.763, "internal_energy": -0.235}

$$$$
cand_006_out
     RDKit          3D

 47 50  0  0  0  0  0  0  0  0999 V2000
   19.0830  -28.2420   35.5530 C   0  0  0  0  0  0  0  0  0  0  0  0
   19.8750  -28.3490   36.8280 C   0  0  0  0  0  0  0  0  0  0  0  0
   20.2680  -27.1850   37.5030 C   0  0  0  0  0  0  0  0  0  0  0  0
   21.0000  -27.2620   38.6880 C   0  0  0  0  0  0  0  0  0  0  0  0
   21.3510  -28.5030   39.2320 C   0  0  0  0  0  0  0  0  0  0  0  0
   22.1470  -28.5620   40.4760 C   0  0  0  0  0  0  0  0  0  0  0  0
   21.8290  -27.5470   41.3710 O   0  0  0  0  0  0  0  0  0  0  0  0
   22.4940  -27.4850   42.5690 C   0  0  0  0  0  0  0  0  0  0  0  0
   22.1520  -26.4410   43.4300 C   0  0  0  0  0  0  0  0  0  0  0  0
   22.7910  -26.3200   44.6660 C   0  0  0  0  0  0  0  0  0  0  0  0
   23.7690  -27.2430   45.0410 C   0  0  0  0  0  0  0  0  0  0  0  0
   24.1080  -28.2840   44.1810 C   0  0  0  0  0  0  0  0  0  0  0  0
   25.0730  -29.1520   44.6120 O   0  0  0  0  0  0  0  0  0  0  0  0
   23.4690  -28.4030   42.9430 C   0  0  0  0  0  0  0  0  0  0  0  0
   23.7950  -29.4820   42.0090 C   0  0  0  0  0  0  0  0  0  0  0  0
   24.6390  -30.3370   42.2700 O   0  0  0  0  0  0  0  0  0  0  0  0
   23.0660  -29.5160   40.7200 C   0  0  0  0  0  0  0  0  0  0  0  0
   23.3740  -30.5470   39.8510 O   0  0  0  0  0  0  0  0  0  0  0  0
   20.9650  -29.6650   38.5480 C   0  0  0  0  0  0  0  0  0  0  0  0
   20.2250  -29.6090   37.3530 C   0  0  0  0  0  0  0  0  0  0  0  0
   19.8210  -30.7760   36.6640 N   0  0  0  0  0  0  0  0  0  0  0  0
   19.6230  -31.9170   37.5730 C   0  0  0  0  0  0  0  0  0  0  0  0
   18.9700  -33.0630   36.7990 C   0  0  0  0  0  0  0  0  0  0  0  0
   19.7920  -33.4360   35.5660 C   0  0  0  0  0  0  0  0  0  0  0  0
   20.0620  -32.2070   34.6980 C   0  0  0  0  0  0  0  0  0  0  0  0
   20.6910  -31.0800   35.5170 C   0  0  0  0  0  0  0  0  0  0  0  0
   18.0192  -28.0983   35.7931 H   0  0  0  0  0  0  0  0  0  0  0  0
   19.4457  -27.3847   34.9669 H   0  0  0  0  0  0  0  0  0  0  0  0
   19.2052  -29.1648   34.9669 H   0  0  0  0  0  0  0  0  0  0  0  0
   19.9964  -26.2006   37.0940 H   0  0  0  0  0  0  0  0  0  0  0  0
   21.3046  -26.3375   39.2004 H   0  0  0  0  0  0  0  0  0  0  0  0
   21.3803  -25.7146   43.1355 H   0  0  0  0  0  0  0  0  0  0  0  0
   22.5234  -25.4967   45.3446 H   0  0  0  0  0  0  0  0  0  0  0  0
   24.2712  -27.1478   46.0150 H   0  0  0  0  0  0  0  0  0  0  0  0
   24.9500  -29.6330   45.4050 H   0  0  0  0  0  0  0  0  0  0  0  0
   22.8970  -31.3520   39.8930 H   0  0  0  0  0  0  0  0  0  0  0  0
   21.2484  -30.6461   38.9568 H   0  0  0  0  0  0  0  0  0  0  0  0
   20.5951  -32.2461   37.9688 H   0  0  0  0  0  0  0  0  0  0  0  0
   18.9751  -31.6172   38.4099 H   0  0  0  0  0  0  0  0  0  0  0  0
   18.8911  -33.9411   37.4568 H   0  0  0  0  0  0  0  0  0  0  0  0
   17.9734  -32.7360   36.4674 H   0  0  0  0  0  0  0  0  0  0  0  0
   20.7513  -33.8663   35.8894 H   0  0  0  0  0  0  0  0  0  0  0  0
   19.2234  -34.1672   34.9727 H   0  0  0  0  0  0  0  0  0  0  0  0
   20.7482  -32.4857   33.8847 H   0  0  0  0  0  0  0  0  0  0  0  0
   19.1042  -31.8500   34.2917 H   0  0  0  0  0  0  0  0  0  0  0  0
   21.6808  -31.3955   35.8787 H   0  0  0  0  0  0  0  0  0  0  0  0
   20.8039  -30.1838   34.8893 H   0  0  0  0  0  0  0  0  0  0  0  0
  1  2  1  0
  2  3  2  0
  3  4  1  0
  4  5  2  0
  5  6  1  0
  6  7  1  0
  7  8  1  0
  8  9  2  0
  9 10  1  0
 10 11  2  0
 11 12  1  0
 12 13  1  0
 12 14  2  0
 14 15  1  0
 15 16  2  0
 15 17  1  0
 17 18  1  0
  5 19  1  0
 19 20  2  0
 20 21  1  0
 21 22  1  0
 22 23  1  0
 23 24  1  0
 24 25  1  0
 25 26  1  0
 20  2  1  0
 26 21  1  0
 17  6  2  0
 14  8  1  0
  1 27  1  0
  1 28  1  0
  1 29  1  0
  3 30  1  0
  4 31  1  0
  9 32  1  0
 10 33  1  0
 11 34  1  0
 13 35  1  0
 18 36  1  0
 19 37  1  0
 22 38  1  0
 22 39  1  0
 23 40  1  0
 23 41  1  0
 24 42  1  0
 24 43  1  0
 25 44  1  0
 25 45  1  0
 26 46  1  0
 26 47  1  0
M  END
>  <meeko>  (8) 
{"is_sidechain": [false], "free_energy": -9.092, "intermolecular_energy": -10.687, "internal_energy": -0.075}

$$$$
cand_006_out
     RDKit          3D

 47 50  0  0  0  0  0  0  0  0999 V2000
   18.5240  -35.4620   36.8970 C   0  0  0  0  0  0  0  0  0  0  0  0
   18.8870  -34.0880   37.3920 C   0  0  0  0  0  0  0  0  0  0  0  0
   18.7060  -33.7670   38.7440 C   0  0  0  0  0  0  0  0  0  0  0  0
   19.0390  -32.5000   39.2250 C   0  0  0  0  0  0  0  0  0  0  0  0
   19.5660  -31.5260   38.3680 C   0  0  0  0  0  0  0  0  0  0  0  0
   19.8880  -30.1820   38.8910 C   0  0  0  0  0  0  0  0  0  0  0  0
   18.8480  -29.2740   38.7280 O   0  0  0  0  0  0  0  0  0  0  0  0
   19.0130  -27.9870   39.1720 C   0  0  0  0  0  0  0  0  0  0  0  0
   17.9490  -27.1070   38.9730 C   0  0  0  0  0  0  0  0  0  0  0  0
   18.0510  -25.7820   39.4010 C   0  0  0  0  0  0  0  0  0  0  0  0
   19.2170  -25.3380   40.0290 C   0  0  0  0  0  0  0  0  0  0  0  0
   20.2780  -26.2180   40.2270 C   0  0  0  0  0  0  0  0  0  0  0  0
   21.3880  -25.7180   40.8480 O   0  0  0  0  0  0  0  0  0  0  0  0
   20.1750  -27.5440   39.7960 C   0  0  0  0  0  0  0  0  0  0  0  0
   21.2650  -28.5020   39.9840 C   0  0  0  0  0  0  0  0  0  0  0  0
   22.3200  -28.1890   40.5340 O   0  0  0  0  0  0  0  0  0  0  0  0
   21.0590  -29.8810   39.4840 C   0  0  0  0  0  0  0  0  0  0  0  0
   22.0920  -30.7800   39.6790 O   0  0  0  0  0  0  0  0  0  0  0  0
   19.7340  -31.8490   37.0130 C   0  0  0  0  0  0  0  0  0  0  0  0
   19.4070  -33.1210   36.5100 C   0  0  0  0  0  0  0  0  0  0  0  0
   19.5860  -33.4590   35.1480 N   0  0  0  0  0  0  0  0  0  0  0  0
   20.3940  -34.6790   34.9800 C   0  0  0  0  0  0  0  0  0  0  0  0
   20.3490  -35.1080   33.5130 C   0  0  0  0  0  0  0  0  0  0  0  0
   20.8030  -33.9760   32.5920 C   0  0  0  0  0  0  0  0  0  0  0  0
   20.0090  -32.6990   32.8650 C   0  0  0  0  0  0  0  0  0  0  0  0
   20.0620  -32.3220   34.3460 C   0  0  0  0  0  0  0  0  0  0  0  0
   18.3484  -36.1266   37.7558 H   0  0  0  0  0  0  0  0  0  0  0  0
   17.6108  -35.4025   36.2867 H   0  0  0  0  0  0  0  0  0  0  0  0
   19.3475  -35.8613   36.2867 H   0  0  0  0  0  0  0  0  0  0  0  0
   18.2975  -34.5210   39.4329 H   0  0  0  0  0  0  0  0  0  0  0  0
   18.8859  -32.2640   40.2884 H   0  0  0  0  0  0  0  0  0  0  0  0
   17.0304  -27.4568   38.4793 H   0  0  0  0  0  0  0  0  0  0  0  0
   17.2127  -25.0874   39.2436 H   0  0  0  0  0  0  0  0  0  0  0  0
   19.2971  -24.2942   40.3668 H   0  0  0  0  0  0  0  0  0  0  0  0
   21.2980  -25.1960   41.6200 H   0  0  0  0  0  0  0  0  0  0  0  0
   22.3640  -30.9990   40.5480 H   0  0  0  0  0  0  0  0  0  0  0  0
   20.1319  -31.0875   36.3262 H   0  0  0  0  0  0  0  0  0  0  0  0
   21.4345  -34.4754   35.2729 H   0  0  0  0  0  0  0  0  0  0  0  0
   19.9908  -35.4820   35.6145 H   0  0  0  0  0  0  0  0  0  0  0  0
   21.0129  -35.9736   33.3718 H   0  0  0  0  0  0  0  0  0  0  0  0
   19.3113  -35.3694   33.2582 H   0  0  0  0  0  0  0  0  0  0  0  0
   21.8716  -33.7791   32.7631 H   0  0  0  0  0  0  0  0  0  0  0  0
   20.6306  -34.2808   31.5492 H   0  0  0  0  0  0  0  0  0  0  0  0
   20.4346  -31.8775   32.2700 H   0  0  0  0  0  0  0  0  0  0  0  0
   18.9593  -32.8750   32.5873 H   0  0  0  0  0  0  0  0  0  0  0  0
   21.0973  -32.0799   34.6279 H   0  0  0  0  0  0  0  0  0  0  0  0
   19.4231  -31.4455   34.5289 H   0  0  0  0  0  0  0  0  0  0  0  0
  1  2  1  0
  2  3  2  0
  3  4  1  0
  4  5  2  0
  5  6  1  0
  6  7  1  0
  7  8  1  0
  8  9  2  0
  9 10  1  0
 10 11  2  0
 11 12  1  0
 12 13  1  0
 12 14  2  0
 14 15  1  0
 15 16  2  0
 15 17  1  0
 17 18  1  0
  5 19  1  0
 19 20  2  0
 20 21  1  0
 21 22  1  0
 22 23  1  0
 23 24  1  0
 24 25  1  0
 25 26  1  0
 20  2  1  0
 26 21  1  0
 17  6  2  0
 14  8  1  0
  1 27  1  0
  1 28  1  0
  1 29  1  0
  3 30  1  0
  4 31  1  0
  9 32  1  0
 10 33  1  0
 11 34  1  0
 13 35  1  0
 18 36  1  0
 19 37  1  0
 22 38  1  0
 22 39  1  0
 23 40  1  0
 23 41  1  0
 24 42  1  0
 24 43  1  0
 25 44  1  0
 25 45  1  0
 26 46  1  0
 26 47  1  0
M  END
>  <meeko>  (9) 
{"is_sidechain": [false], "free_energy": -8.718, "intermolecular_energy": -10.394, "internal_energy": 0.07}

$$$$
