cand_042_out
     RDKit          3D

 38 40  0  0  0  0  0  0  0  0999 V2000
   46.8460   24.9270  -13.9560 C   0  0  0  0  0  0  0  0  0  0  0  0
   45.6420   24.7280  -13.0480 C   0  0  0  0  0  0  0  0  0  0  0  0
   44.3710   25.2650  -13.6660 C   0  0  0  0  0  0  0  0  0  0  0  0
   43.6710   24.4490  -14.5690 C   0  0  0  0  0  0  0  0  0  0  0  0
   42.4960   24.8930  -15.1800 C   0  0  0  0  0  0  0  0  0  0  0  0
   41.9840   26.1630  -14.9030 C   0  0  0  0  0  0  0  0  0  0  0  0
   40.7570   26.6690  -15.5540 C   0  0  0  0  0  0  0  0  0  0  0  0
   39.9860   27.4610  -14.7120 O   0  0  0  0  0  0  0  0  0  0  0  0
   38.8170   27.9960  -15.1900 C   0  0  0  0  0  0  0  0  0  0  0  0
   38.0820   28.7970  -14.3150 C   0  0  0  0  0  0  0  0  0  0  0  0
   36.8820   29.3720  -14.7380 C   0  0  0  0  0  0  0  0  0  0  0  0
   36.4160   29.1450  -16.0350 C   0  0  0  0  0  0  0  0  0  0  0  0
   37.1520   28.3450  -16.9060 C   0  0  0  0  0  0  0  0  0  0  0  0
   36.6370   28.1640  -18.1610 O   0  0  0  0  0  0  0  0  0  0  0  0
   38.3540   27.7710  -16.4830 C   0  0  0  0  0  0  0  0  0  0  0  0
   39.1560   26.9250  -17.3650 C   0  0  0  0  0  0  0  0  0  0  0  0
   38.8090   26.6730  -18.5180 O   0  0  0  0  0  0  0  0  0  0  0  0
   40.4180   26.3710  -16.8220 C   0  0  0  0  0  0  0  0  0  0  0  0
   41.1620   25.5620  -17.6620 O   0  0  0  0  0  0  0  0  0  0  0  0
   42.6920   26.9860  -14.0120 C   0  0  0  0  0  0  0  0  0  0  0  0
   43.8820   26.5570  -13.3930 C   0  0  0  0  0  0  0  0  0  0  0  0
   44.5760   27.4860  -12.4360 C   0  0  0  0  0  0  0  0  0  0  0  0
   47.7470   25.0759  -13.3428 H   0  0  0  0  0  0  0  0  0  0  0  0
   46.9773   24.0384  -14.5909 H   0  0  0  0  0  0  0  0  0  0  0  0
   46.6844   25.8106  -14.5909 H   0  0  0  0  0  0  0  0  0  0  0  0
   45.5163   23.6523  -12.8557 H   0  0  0  0  0  0  0  0  0  0  0  0
   45.8255   25.2806  -12.1147 H   0  0  0  0  0  0  0  0  0  0  0  0
   44.0541   23.4438  -14.7990 H   0  0  0  0  0  0  0  0  0  0  0  0
   41.9682   24.2357  -15.8867 H   0  0  0  0  0  0  0  0  0  0  0  0
   38.4477   28.9752  -13.2930 H   0  0  0  0  0  0  0  0  0  0  0  0
   36.3030   30.0045  -14.0490 H   0  0  0  0  0  0  0  0  0  0  0  0
   35.4700   29.5969  -16.3679 H   0  0  0  0  0  0  0  0  0  0  0  0
   36.1090   27.4130  -18.3460 H   0  0  0  0  0  0  0  0  0  0  0  0
   41.5020   24.7480  -17.3490 H   0  0  0  0  0  0  0  0  0  0  0  0
   42.3068   27.9925  -13.7918 H   0  0  0  0  0  0  0  0  0  0  0  0
   44.3502   27.1837  -11.4027 H   0  0  0  0  0  0  0  0  0  0  0  0
   45.6623   27.4395  -12.6025 H   0  0  0  0  0  0  0  0  0  0  0  0
   44.2232   28.5145  -12.6025 H   0  0  0  0  0  0  0  0  0  0  0  0
  1  2  1  0
  2  3  1  0
  3  4  2  0
  4  5  1  0
  5  6  2  0
  6  7  1  0
  7  8  1  0
  8  9  1  0
  9 10  2  0
 10 11  1  0
 11 12  2  0
 12 13  1  0
 13 14  1  0
 13 15  2  0
 15 16  1  0
 16 17  2  0
 16 18  1  0
 18 19  1  0
  6 20  1  0
 20 21  2  0
 21 22  1  0
 21  3  1  0
 18  7  2  0
 15  9  1  0
  1 23  1  0
  1 24  1  0
  1 25  1  0
  2 26  1  0
  2 27  1  0
  4 28  1  0
  5 29  1  0
 10 30  1  0
 11 31  1  0
 12 32  1  0
 14 33  1  0
 19 34  1  0
 20 35  1  0
 22 36  1  0
 22 37  1  0
 22 38  1  0
M  END
>  <meeko>  (1) 
{"is_sidechain": [false], "free_energy": -8.605, "intermolecular_energy": -10.114, "internal_energy": -0.053}

$$$$
cand_042_out
     RDKit          3D

 38 40  0  0  0  0  0  0  0  0999 V2000
   47.1240   25.2000  -14.2980 C   0  0  0  0  0  0  0  0  0  0  0  0
   46.0080   24.5320  -13.5110 C   0  0  0  0  0  0  0  0  0  0  0  0
   44.6730   25.2050  -13.7370 C   0  0  0  0  0  0  0  0  0  0  0  0
   43.7390   24.5730  -14.5740 C   0  0  0  0  0  0  0  0  0  0  0  0
   42.4930   25.1500  -14.8300 C   0  0  0  0  0  0  0  0  0  0  0  0
   42.1420   26.3730  -14.2520 C   0  0  0  0  0  0  0  0  0  0  0  0
   40.8400   27.0180  -14.5250 C   0  0  0  0  0  0  0  0  0  0  0  0
   40.3790   26.7820  -15.8140 O   0  0  0  0  0  0  0  0  0  0  0  0
   39.1810   27.3250  -16.2000 C   0  0  0  0  0  0  0  0  0  0  0  0
   38.7490   27.0500  -17.4990 C   0  0  0  0  0  0  0  0  0  0  0  0
   37.5370   27.5730  -17.9550 C   0  0  0  0  0  0  0  0  0  0  0  0
   36.7570   28.3700  -17.1150 C   0  0  0  0  0  0  0  0  0  0  0  0
   37.1900   28.6410  -15.8190 C   0  0  0  0  0  0  0  0  0  0  0  0
   36.3780   29.4300  -15.0500 O   0  0  0  0  0  0  0  0  0  0  0  0
   38.4020   28.1180  -15.3620 C   0  0  0  0  0  0  0  0  0  0  0  0
   38.8930   28.3790  -14.0090 C   0  0  0  0  0  0  0  0  0  0  0  0
   38.2670   29.0770  -13.2130 O   0  0  0  0  0  0  0  0  0  0  0  0
   40.1860   27.7710  -13.6200 C   0  0  0  0  0  0  0  0  0  0  0  0
   40.6460   28.0360  -12.3430 O   0  0  0  0  0  0  0  0  0  0  0  0
   43.0810   27.0130  -13.4280 C   0  0  0  0  0  0  0  0  0  0  0  0
   44.3440   26.4500  -13.1660 C   0  0  0  0  0  0  0  0  0  0  0  0
   45.2920   27.1840  -12.2580 C   0  0  0  0  0  0  0  0  0  0  0  0
   47.8538   25.6369  -13.6005 H   0  0  0  0  0  0  0  0  0  0  0  0
   47.6241   24.4526  -14.9315 H   0  0  0  0  0  0  0  0  0  0  0  0
   46.7016   25.9939  -14.9315 H   0  0  0  0  0  0  0  0  0  0  0  0
   45.9329   23.4803  -13.8245 H   0  0  0  0  0  0  0  0  0  0  0  0
   46.2518   24.6124  -12.4414 H   0  0  0  0  0  0  0  0  0  0  0  0
   43.9930   23.6074  -15.0357 H   0  0  0  0  0  0  0  0  0  0  0  0
   41.7810   24.6367  -15.4931 H   0  0  0  0  0  0  0  0  0  0  0  0
   39.3624   26.4224  -18.1622 H   0  0  0  0  0  0  0  0  0  0  0  0
   37.1962   27.3565  -18.9782 H   0  0  0  0  0  0  0  0  0  0  0  0
   35.8033   28.7828  -17.4755 H   0  0  0  0  0  0  0  0  0  0  0  0
   36.7410   29.9290  -14.3450 H   0  0  0  0  0  0  0  0  0  0  0  0
   41.2500   28.7370  -12.1980 H   0  0  0  0  0  0  0  0  0  0  0  0
   42.8226   27.9813  -12.9745 H   0  0  0  0  0  0  0  0  0  0  0  0
   45.0280   26.9796  -11.2099 H   0  0  0  0  0  0  0  0  0  0  0  0
   46.3205   26.8444  -12.4500 H   0  0  0  0  0  0  0  0  0  0  0  0
   45.2208   28.2648  -12.4500 H   0  0  0  0  0  0  0  0  0  0  0  0
  1  2  1  0
  2  3  1  0
  3  4  2  0
  4  5  1  0
  5  6  2  0
  6  7  1  0
  7  8  1  0
  8  9  1  0
  9 10  2  0
 10 11  1  0
 11 12  2  0
 12 13  1  0
 13 14  1  0
 13 15  2  0
 15 16  1  0
 16 17  2  0
 16 18  1  0
 18 19  1  0
  6 20  1  0
 20 21  2  0
 21 22  1  0
 21  3  1  0
 18  7  2  0
 15  9  1  0
  1 23  1  0
  1 24  1  0
  1 25  1  0
  2 26  1  0
  2 27  1  0
  4 28  1  0
  5 29  1  0
 10 30  1  0
 11 31  1  0
 12 32  1  0
 14 33  1  0
 19 34  1  0
 20 35  1  0
 22 36  1  0
 22 37  1  0
 22 38  1  0
M  END
>  <meeko>  (2) 
{"is_sidechain": [false], "free_energy": -8.538, "intermolecular_energy": -10.254, "internal_energy": 0.165}

$$$$
cand_042_out
     RDKit          3D

 38 40  0  0  0  0  0  0  0  0999 V2000
   35.0080   29.9660  -17.9470 C   0  0  0  0  0  0  0  0  0  0  0  0
   35.7180   28.7010  -18.4060 C   0  0  0  0  0  0  0  0  0  0  0  0
   36.8330   28.3040  -17.4640 C   0  0  0  0  0  0  0  0  0  0  0  0
   36.9900   29.0300  -16.2720 C   0  0  0  0  0  0  0  0  0  0  0  0
   38.0060   28.7180  -15.3670 C   0  0  0  0  0  0  0  0  0  0  0  0
   38.8930   27.6680  -15.6240 C   0  0  0  0  0  0  0  0  0  0  0  0
   39.9930   27.3310  -14.6950 C   0  0  0  0  0  0  0  0  0  0  0  0
   41.0310   26.6450  -15.3140 O   0  0  0  0  0  0  0  0  0  0  0  0
   42.1170   26.2710  -14.5660 C   0  0  0  0  0  0  0  0  0  0  0  0
   43.1430   25.5980  -15.2310 C   0  0  0  0  0  0  0  0  0  0  0  0
   44.2780   25.1870  -14.5280 C   0  0  0  0  0  0  0  0  0  0  0  0
   44.3870   25.4490  -13.1600 C   0  0  0  0  0  0  0  0  0  0  0  0
   43.3620   26.1210  -12.5000 C   0  0  0  0  0  0  0  0  0  0  0  0
   43.5330   26.3440  -11.1600 O   0  0  0  0  0  0  0  0  0  0  0  0
   42.2270   26.5330  -13.2040 C   0  0  0  0  0  0  0  0  0  0  0  0
   41.1280   27.2410  -12.5480 C   0  0  0  0  0  0  0  0  0  0  0  0
   41.1470   27.5020  -11.3460 O   0  0  0  0  0  0  0  0  0  0  0  0
   39.9740   27.6400  -13.3850 C   0  0  0  0  0  0  0  0  0  0  0  0
   38.9350   28.2990  -12.7510 O   0  0  0  0  0  0  0  0  0  0  0  0
   38.7460   26.9520  -16.8230 C   0  0  0  0  0  0  0  0  0  0  0  0
   37.7320   27.2590  -17.7500 C   0  0  0  0  0  0  0  0  0  0  0  0
   37.6250   26.4370  -19.0050 C   0  0  0  0  0  0  0  0  0  0  0  0
   34.9900   29.9980  -16.8476 H   0  0  0  0  0  0  0  0  0  0  0  0
   35.5435   30.8469  -18.3308 H   0  0  0  0  0  0  0  0  0  0  0  0
   33.9771   29.9677  -18.3308 H   0  0  0  0  0  0  0  0  0  0  0  0
   34.9863   27.8812  -18.4559 H   0  0  0  0  0  0  0  0  0  0  0  0
   36.1612   28.8990  -19.3931 H   0  0  0  0  0  0  0  0  0  0  0  0
   36.3012   29.8579  -16.0479 H   0  0  0  0  0  0  0  0  0  0  0  0
   38.1099   29.3042  -14.4421 H   0  0  0  0  0  0  0  0  0  0  0  0
   43.0580   25.3913  -16.3081 H   0  0  0  0  0  0  0  0  0  0  0  0
   45.0867   24.6566  -15.0520 H   0  0  0  0  0  0  0  0  0  0  0  0
   45.2804   25.1251  -12.6059 H   0  0  0  0  0  0  0  0  0  0  0  0
   44.0600   27.0600  -10.8680 H   0  0  0  0  0  0  0  0  0  0  0  0
   38.3770   28.8720  -13.2380 H   0  0  0  0  0  0  0  0  0  0  0  0
   39.4418   26.1292  -17.0438 H   0  0  0  0  0  0  0  0  0  0  0  0
   37.4872   25.3785  -18.7394 H   0  0  0  0  0  0  0  0  0  0  0  0
   36.7641   26.7816  -19.5967 H   0  0  0  0  0  0  0  0  0  0  0  0
   38.5454   26.5497  -19.5967 H   0  0  0  0  0  0  0  0  0  0  0  0
  1  2  1  0
  2  3  1  0
  3  4  2  0
  4  5  1  0
  5  6  2  0
  6  7  1  0
  7  8  1  0
  8  9  1  0
  9 10  2  0
 10 11  1  0
 11 12  2  0
 12 13  1  0
 13 14  1  0
 13 15  2  0
 15 16  1  0
 16 17  2  0
 16 18  1  0
 18 19  1  0
  6 20  1  0
 20 21  2  0
 21 22  1  0
 21  3  1  0
 18  7  2  0
 15  9  1  0
  1 23  1  0
  1 24  1  0
  1 25  1  0
  2 26  1  0
  2 27  1  0
  4 28  1  0
  5 29  1  0
 10 30  1  0
 11 31  1  0
 12 32  1  0
 14 33  1  0
 19 34  1  0
 20 35  1  0
 22 36  1  0
 22 37  1  0
 22 38  1  0
M  END
>  <meeko>  (3) 
{"is_sidechain": [false], "free_energy": -6.921, "intermolecular_energy": -8.257, "internal_energy": 0.069}

$$$$
cand_042_out
     RDKit          3D

 38 40  0  0  0  0  0  0  0  0999 V2000
   47.3440   25.2750  -14.1570 C   0  0  0  0  0  0  0  0  0  0  0  0
   46.3260   25.0370  -13.0520 C   0  0  0  0  0  0  0  0  0  0  0  0
   44.9520   25.5450  -13.4270 C   0  0  0  0  0  0  0  0  0  0  0  0
   44.6970   26.9220  -13.3190 C   0  0  0  0  0  0  0  0  0  0  0  0
   43.4450   27.4500  -13.6420 C   0  0  0  0  0  0  0  0  0  0  0  0
   42.4130   26.6190  -14.0860 C   0  0  0  0  0  0  0  0  0  0  0  0
   41.0710   27.1470  -14.4110 C   0  0  0  0  0  0  0  0  0  0  0  0
   40.6530   26.8110  -15.6930 O   0  0  0  0  0  0  0  0  0  0  0  0
   39.4250   27.2380  -16.1240 C   0  0  0  0  0  0  0  0  0  0  0  0
   39.0400   26.8650  -17.4130 C   0  0  0  0  0  0  0  0  0  0  0  0
   37.8000   27.2680  -17.9140 C   0  0  0  0  0  0  0  0  0  0  0  0
   36.9460   28.0450  -17.1280 C   0  0  0  0  0  0  0  0  0  0  0  0
   37.3320   28.4150  -15.8420 C   0  0  0  0  0  0  0  0  0  0  0  0
   36.4490   29.1770  -15.1280 O   0  0  0  0  0  0  0  0  0  0  0  0
   38.5730   28.0110  -15.3400 C   0  0  0  0  0  0  0  0  0  0  0  0
   39.0170   28.3790  -13.9960 C   0  0  0  0  0  0  0  0  0  0  0  0
   38.3250   29.0660  -13.2470 O   0  0  0  0  0  0  0  0  0  0  0  0
   40.3450   27.8930  -13.5570 C   0  0  0  0  0  0  0  0  0  0  0  0
   40.7600   28.2570  -12.2890 O   0  0  0  0  0  0  0  0  0  0  0  0
   42.6630   25.2400  -14.1790 C   0  0  0  0  0  0  0  0  0  0  0  0
   43.9160   24.6900  -13.8510 C   0  0  0  0  0  0  0  0  0  0  0  0
   44.1160   23.2060  -13.9930 C   0  0  0  0  0  0  0  0  0  0  0  0
   48.3229   25.5039  -13.7106 H   0  0  0  0  0  0  0  0  0  0  0  0
   47.4271   24.3721  -14.7797 H   0  0  0  0  0  0  0  0  0  0  0  0
   47.0181   26.1212  -14.7797 H   0  0  0  0  0  0  0  0  0  0  0  0
   46.2632   23.9568  -12.8539 H   0  0  0  0  0  0  0  0  0  0  0  0
   46.6592   25.5870  -12.1596 H   0  0  0  0  0  0  0  0  0  0  0  0
   45.4959   27.5951  -12.9746 H   0  0  0  0  0  0  0  0  0  0  0  0
   43.2694   28.5316  -13.5459 H   0  0  0  0  0  0  0  0  0  0  0  0
   39.7124   26.2544  -18.0335 H   0  0  0  0  0  0  0  0  0  0  0  0
   37.4956   26.9730  -18.9290 H   0  0  0  0  0  0  0  0  0  0  0  0
   35.9706   28.3640  -17.5239 H   0  0  0  0  0  0  0  0  0  0  0  0
   36.4200   30.1040  -15.2540 H   0  0  0  0  0  0  0  0  0  0  0  0
   40.5470   27.7190  -11.5540 H   0  0  0  0  0  0  0  0  0  0  0  0
   41.8574   24.5718  -14.5174 H   0  0  0  0  0  0  0  0  0  0  0  0
   44.1778   22.7472  -12.9952 H   0  0  0  0  0  0  0  0  0  0  0  0
   43.2681   22.7728  -14.5438 H   0  0  0  0  0  0  0  0  0  0  0  0
   45.0483   23.0127  -14.5438 H   0  0  0  0  0  0  0  0  0  0  0  0
  1  2  1  0
  2  3  1  0
  3  4  2  0
  4  5  1  0
  5  6  2  0
  6  7  1  0
  7  8  1  0
  8  9  1  0
  9 10  2  0
 10 11  1  0
 11 12  2  0
 12 13  1  0
 13 14  1  0
 13 15  2  0
 15 16  1  0
 16 17  2  0
 16 18  1  0
 18 19  1  0
  6 20  1  0
 20 21  2  0
 21 22  1  0
 21  3  1  0
 18  7  2  0
 15  9  1  0
  1 23  1  0
  1 24  1  0
  1 25  1  0
  2 26  1  0
  2 27  1  0
  4 28  1  0
  5 29  1  0
 10 30  1  0
 11 31  1  0
 12 32  1  0
 14 33  1  0
 19 34  1  0
 20 35  1  0
 22 36  1  0
 22 37  1  0
 22 38  1  0
M  END
>  <meeko>  (4) 
{"is_sidechain": [false], "free_energy": -5.655, "intermolecular_energy": -6.434, "internal_energy": -0.267}

$$$$
