cand_024_out
     RDKit          3D

 47 49  0  0  0  0  0  0  0  0999 V2000
   48.2020   26.4750  -15.0570 C   0  0  0  0  0  0  0  0  0  0  0  0
   46.9610   26.3030  -14.2960 N   0  0  0  0  0  0  0  0  0  0  0  0
   47.1760   26.7330  -12.9100 C   0  0  0  0  0  0  0  0  0  0  0  0
   46.4930   24.9040  -14.3190 C   0  0  0  0  0  0  0  0  0  0  0  0
   45.2890   24.6520  -13.3930 C   0  0  0  0  0  0  0  0  0  0  0  0
   44.0020   25.2110  -13.9740 C   0  0  0  0  0  0  0  0  0  0  0  0
   43.6120   24.7830  -15.2550 C   0  0  0  0  0  0  0  0  0  0  0  0
   42.4460   25.2680  -15.8500 C   0  0  0  0  0  0  0  0  0  0  0  0
   41.6310   26.1880  -15.1820 C   0  0  0  0  0  0  0  0  0  0  0  0
   40.4090   26.7010  -15.8370 C   0  0  0  0  0  0  0  0  0  0  0  0
   39.6430   27.5040  -15.0020 O   0  0  0  0  0  0  0  0  0  0  0  0
   38.4810   28.0480  -15.4880 C   0  0  0  0  0  0  0  0  0  0  0  0
   37.7350   28.8350  -14.6100 C   0  0  0  0  0  0  0  0  0  0  0  0
   36.5420   29.4200  -15.0410 C   0  0  0  0  0  0  0  0  0  0  0  0
   36.0960   29.2170  -16.3490 C   0  0  0  0  0  0  0  0  0  0  0  0
   36.8430   28.4310  -17.2230 C   0  0  0  0  0  0  0  0  0  0  0  0
   36.3490   28.2740  -18.4890 O   0  0  0  0  0  0  0  0  0  0  0  0
   38.0360   27.8450  -16.7910 C   0  0  0  0  0  0  0  0  0  0  0  0
   38.8500   27.0120  -17.6770 C   0  0  0  0  0  0  0  0  0  0  0  0
   38.5290   26.7930  -18.8420 O   0  0  0  0  0  0  0  0  0  0  0  0
   40.0940   26.4330  -17.1180 C   0  0  0  0  0  0  0  0  0  0  0  0
   40.8650   25.6580  -17.9660 O   0  0  0  0  0  0  0  0  0  0  0  0
   42.0260   26.6260  -13.9100 C   0  0  0  0  0  0  0  0  0  0  0  0
   43.2030   26.1520  -13.2900 C   0  0  0  0  0  0  0  0  0  0  0  0
   43.5510   26.6550  -11.9060 C   0  0  0  0  0  0  0  0  0  0  0  0
   44.1830   25.7300  -11.1280 F   0  0  0  0  0  0  0  0  0  0  0  0
   44.3780   27.7380  -11.9340 F   0  0  0  0  0  0  0  0  0  0  0  0
   42.4560   27.0390  -11.1900 F   0  0  0  0  0  0  0  0  0  0  0  0
   49.0457   26.5919  -14.3610 H   0  0  0  0  0  0  0  0  0  0  0  0
   48.3691   25.5914  -15.6905 H   0  0  0  0  0  0  0  0  0  0  0  0
   48.1225   27.3707  -15.6905 H   0  0  0  0  0  0  0  0  0  0  0  0
   46.2390   26.8780  -14.7320 H   0  0  0  0  0  0  0  0  0  0  0  0
   46.7915   25.9641  -12.2237 H   0  0  0  0  0  0  0  0  0  0  0  0
   48.2522   26.8770  -12.7335 H   0  0  0  0  0  0  0  0  0  0  0  0
   46.6455   27.6803  -12.7335 H   0  0  0  0  0  0  0  0  0  0  0  0
   46.2013   24.6498  -15.3487 H   0  0  0  0  0  0  0  0  0  0  0  0
   47.3207   24.2764  -13.9571 H   0  0  0  0  0  0  0  0  0  0  0  0
   45.1725   23.5678  -13.2480 H   0  0  0  0  0  0  0  0  0  0  0  0
   45.4813   25.1611  -12.4371 H   0  0  0  0  0  0  0  0  0  0  0  0
   44.2346   24.0554  -15.7963 H   0  0  0  0  0  0  0  0  0  0  0  0
   42.1648   24.9227  -16.8558 H   0  0  0  0  0  0  0  0  0  0  0  0
   38.0859   28.9946  -13.5797 H   0  0  0  0  0  0  0  0  0  0  0  0
   35.9533   30.0410  -14.3498 H   0  0  0  0  0  0  0  0  0  0  0  0
   35.1563   29.6772  -16.6882 H   0  0  0  0  0  0  0  0  0  0  0  0
   36.4810   28.9450  -19.1290 H   0  0  0  0  0  0  0  0  0  0  0  0
   40.8370   24.7230  -17.9000 H   0  0  0  0  0  0  0  0  0  0  0  0
   41.4012   27.3599  -13.3798 H   0  0  0  0  0  0  0  0  0  0  0  0
  1  2  1  0
  2  3  1  0
  2  4  1  0
  4  5  1  0
  5  6  1  0
  6  7  2  0
  7  8  1  0
  8  9  2  0
  9 10  1  0
 10 11  1  0
 11 12  1  0
 12 13  2  0
 13 14  1  0
 14 15  2  0
 15 16  1  0
 16 17  1  0
 16 18  2  0
 18 19  1  0
 19 20  2  0
 19 21  1  0
 21 22  1  0
  9 23  1  0
 23 24  2  0
 24 25  1  0
 25 26  1  0
 25 27  1  0
 25 28  1  0
 24  6  1  0
 21 10  2  0
 18 12  1  0
  1 29  1  0
  1 30  1  0
  1 31  1  0
  2 32  1  0
  3 33  1  0
  3 34  1  0
  3 35  1  0
  4 36  1  0
  4 37  1  0
  5 38  1  0
  5 39  1  0
  7 40  1  0
  8 41  1  0
 13 42  1  0
 14 43  1  0
 15 44  1  0
 17 45  1  0
 22 46  1  0
 23 47  1  0
M  CHG  1   2   1
M  END
>  <meeko>  (1) 
{"is_sidechain": [false], "free_energy": -7.159, "intermolecular_energy": -9.671, "internal_energy": 0.065}

$$$$
cand_024_out
     RDKit          3D

 47 49  0  0  0  0  0  0  0  0999 V2000
   48.0820   26.5030  -15.0280 C   0  0  0  0  0  0  0  0  0  0  0  0
   46.8340   26.2930  -14.2890 N   0  0  0  0  0  0  0  0  0  0  0  0
   47.1240   26.2310  -12.8520 C   0  0  0  0  0  0  0  0  0  0  0  0
   46.1470   25.0580  -14.7140 C   0  0  0  0  0  0  0  0  0  0  0  0
   45.0140   24.6360  -13.7600 C   0  0  0  0  0  0  0  0  0  0  0  0
   43.7000   25.3100  -14.1090 C   0  0  0  0  0  0  0  0  0  0  0  0
   43.1160   25.0220  -15.3540 C   0  0  0  0  0  0  0  0  0  0  0  0
   41.9140   25.6180  -15.7400 C   0  0  0  0  0  0  0  0  0  0  0  0
   41.2550   26.5140  -14.8910 C   0  0  0  0  0  0  0  0  0  0  0  0
   39.9920   27.1470  -15.3260 C   0  0  0  0  0  0  0  0  0  0  0  0
   39.5640   26.7030  -16.5710 O   0  0  0  0  0  0  0  0  0  0  0  0
   38.4010   27.2100  -17.0910 C   0  0  0  0  0  0  0  0  0  0  0  0
   38.0150   26.7470  -18.3500 C   0  0  0  0  0  0  0  0  0  0  0  0
   36.8410   27.2220  -18.9370 C   0  0  0  0  0  0  0  0  0  0  0  0
   36.0530   28.1590  -18.2670 C   0  0  0  0  0  0  0  0  0  0  0  0
   36.4390   28.6190  -17.0110 C   0  0  0  0  0  0  0  0  0  0  0  0
   35.6210   29.5360  -16.4100 O   0  0  0  0  0  0  0  0  0  0  0  0
   37.6150   28.1450  -16.4240 C   0  0  0  0  0  0  0  0  0  0  0  0
   38.0570   28.6020  -15.1060 C   0  0  0  0  0  0  0  0  0  0  0  0
   37.4150   29.4190  -14.4500 O   0  0  0  0  0  0  0  0  0  0  0  0
   39.3220   28.0420  -14.5760 C   0  0  0  0  0  0  0  0  0  0  0  0
   39.7260   28.4690  -13.3240 O   0  0  0  0  0  0  0  0  0  0  0  0
   41.8430   26.8130  -13.6540 C   0  0  0  0  0  0  0  0  0  0  0  0
   43.0600   26.2250  -13.2440 C   0  0  0  0  0  0  0  0  0  0  0  0
   43.6210   26.5810  -11.8850 C   0  0  0  0  0  0  0  0  0  0  0  0
   44.2790   25.5530  -11.2760 F   0  0  0  0  0  0  0  0  0  0  0  0
   44.5140   27.6090  -11.9370 F   0  0  0  0  0  0  0  0  0  0  0  0
   42.6580   26.9660  -10.9990 F   0  0  0  0  0  0  0  0  0  0  0  0
   48.9100   26.6423  -14.3173 H   0  0  0  0  0  0  0  0  0  0  0  0
   48.2854   25.6265  -15.6607 H   0  0  0  0  0  0  0  0  0  0  0  0
   47.9874   27.3978  -15.6607 H   0  0  0  0  0  0  0  0  0  0  0  0
   46.2120   27.0770  -14.4860 H   0  0  0  0  0  0  0  0  0  0  0  0
   46.2032   26.4279  -12.2833 H   0  0  0  0  0  0  0  0  0  0  0  0
   47.5053   25.2310  -12.5977 H   0  0  0  0  0  0  0  0  0  0  0  0
   47.8809   26.9876  -12.5977 H   0  0  0  0  0  0  0  0  0  0  0  0
   45.7192   25.2222  -15.7140 H   0  0  0  0  0  0  0  0  0  0  0  0
   46.8941   24.2507  -14.7121 H   0  0  0  0  0  0  0  0  0  0  0  0
   44.8825   23.5458  -13.8243 H   0  0  0  0  0  0  0  0  0  0  0  0
   45.2942   24.9423  -12.7413 H   0  0  0  0  0  0  0  0  0  0  0  0
   43.6136   24.3160  -16.0351 H   0  0  0  0  0  0  0  0  0  0  0  0
   41.4801   25.3806  -16.7225 H   0  0  0  0  0  0  0  0  0  0  0  0
   38.6353   26.0086  -18.8790 H   0  0  0  0  0  0  0  0  0  0  0  0
   36.5365   26.8573  -19.9291 H   0  0  0  0  0  0  0  0  0  0  0  0
   35.1284   28.5335  -18.7306 H   0  0  0  0  0  0  0  0  0  0  0  0
   35.4270   29.4630  -15.4960 H   0  0  0  0  0  0  0  0  0  0  0  0
   40.6300   28.6560  -13.1630 H   0  0  0  0  0  0  0  0  0  0  0  0
   41.3419   27.5264  -12.9831 H   0  0  0  0  0  0  0  0  0  0  0  0
  1  2  1  0
  2  3  1  0
  2  4  1  0
  4  5  1  0
  5  6  1  0
  6  7  2  0
  7  8  1  0
  8  9  2  0
  9 10  1  0
 10 11  1  0
 11 12  1  0
 12 13  2  0
 13 14  1  0
 14 15  2  0
 15 16  1  0
 16 17  1  0
 16 18  2  0
 18 19  1  0
 19 20  2  0
 19 21  1  0
 21 22  1  0
  9 23  1  0
 23 24  2  0
 24 25  1  0
 25 26  1  0
 25 27  1  0
 25 28  1  0
 24  6  1  0
 21 10  2  0
 18 12  1  0
  1 29  1  0
  1 30  1  0
  1 31  1  0
  2 32  1  0
  3 33  1  0
  3 34  1  0
  3 35  1  0
  4 36  1  0
  4 37  1  0
  5 38  1  0
  5 39  1  0
  7 40  1  0
  8 41  1  0
 13 42  1  0
 14 43  1  0
 15 44  1  0
 17 45  1  0
 22 46  1  0
 23 47  1  0
M  CHG  1   2   1
M  END
>  <meeko>  (2) 
{"is_sidechain": [false], "free_energy": -5.957, "intermolecular_energy": -8.023, "internal_energy": 0.041}

$$$$
cand_024_out
     RDKit          3D

 47 49  0  0  0  0  0  0  0  0999 V2000
   46.5320   24.3860  -13.7460 C   0  0  0  0  0  0  0  0  0  0  0  0
   46.3490   25.7570  -14.2310 N   0  0  0  0  0  0  0  0  0  0  0  0
   47.6400   26.4520  -14.2220 C   0  0  0  0  0  0  0  0  0  0  0  0
   45.3730   26.5020  -13.4120 C   0  0  0  0  0  0  0  0  0  0  0  0
   44.1610   25.6520  -12.9900 C   0  0  0  0  0  0  0  0  0  0  0  0
   42.9220   25.9930  -13.7970 C   0  0  0  0  0  0  0  0  0  0  0  0
   42.9060   25.6560  -15.1610 C   0  0  0  0  0  0  0  0  0  0  0  0
   41.8010   25.9520  -15.9620 C   0  0  0  0  0  0  0  0  0  0  0  0
   40.6770   26.5870  -15.4230 C   0  0  0  0  0  0  0  0  0  0  0  0
   39.5240   26.9070  -16.2920 C   0  0  0  0  0  0  0  0  0  0  0  0
   38.7160   27.9090  -15.7720 O   0  0  0  0  0  0  0  0  0  0  0  0
   37.6110   28.3050  -16.4820 C   0  0  0  0  0  0  0  0  0  0  0  0
   36.8190   29.3050  -15.9170 C   0  0  0  0  0  0  0  0  0  0  0  0
   35.6800   29.7540  -16.5880 C   0  0  0  0  0  0  0  0  0  0  0  0
   35.3330   29.2040  -17.8230 C   0  0  0  0  0  0  0  0  0  0  0  0
   36.1250   28.2070  -18.3860 C   0  0  0  0  0  0  0  0  0  0  0  0
   35.7280   27.7120  -19.5980 O   0  0  0  0  0  0  0  0  0  0  0  0
   37.2640   27.7560  -17.7130 C   0  0  0  0  0  0  0  0  0  0  0  0
   38.1240   26.7100  -18.2690 C   0  0  0  0  0  0  0  0  0  0  0  0
   37.8890   26.1820  -19.3540 O   0  0  0  0  0  0  0  0  0  0  0  0
   39.3040   26.3000  -17.4730 C   0  0  0  0  0  0  0  0  0  0  0  0
   40.1180   25.3200  -18.0110 O   0  0  0  0  0  0  0  0  0  0  0  0
   40.6970   26.9350  -14.0650 C   0  0  0  0  0  0  0  0  0  0  0  0
   41.8040   26.6490  -13.2370 C   0  0  0  0  0  0  0  0  0  0  0  0
   41.7420   27.0370  -11.7760 C   0  0  0  0  0  0  0  0  0  0  0  0
   40.6990   26.4730  -11.1020 F   0  0  0  0  0  0  0  0  0  0  0  0
   42.8620   26.6760  -11.0890 F   0  0  0  0  0  0  0  0  0  0  0  0
   41.6050   28.3810  -11.5900 F   0  0  0  0  0  0  0  0  0  0  0  0
   46.5324   24.3832  -12.6460 H   0  0  0  0  0  0  0  0  0  0  0  0
   45.7102   23.7541  -14.1140 H   0  0  0  0  0  0  0  0  0  0  0  0
   47.4907   23.9918  -14.1140 H   0  0  0  0  0  0  0  0  0  0  0  0
   45.9840   25.7110  -15.1820 H   0  0  0  0  0  0  0  0  0  0  0  0
   47.9572   26.6228  -13.1827 H   0  0  0  0  0  0  0  0  0  0  0  0
   48.3914   25.8365  -14.7383 H   0  0  0  0  0  0  0  0  0  0  0  0
   47.5399   27.4181  -14.7383 H   0  0  0  0  0  0  0  0  0  0  0  0
   45.8804   26.8620  -12.5048 H   0  0  0  0  0  0  0  0  0  0  0  0
   44.9929   27.3296  -14.0289 H   0  0  0  0  0  0  0  0  0  0  0  0
   44.4022   24.5894  -13.1406 H   0  0  0  0  0  0  0  0  0  0  0  0
   43.9477   25.8642  -11.9319 H   0  0  0  0  0  0  0  0  0  0  0  0
   43.7770   25.1514  -15.6046 H   0  0  0  0  0  0  0  0  0  0  0  0
   41.8146   25.6829  -17.0285 H   0  0  0  0  0  0  0  0  0  0  0  0
   37.0917   29.7392  -14.9438 H   0  0  0  0  0  0  0  0  0  0  0  0
   35.0552   30.5423  -16.1428 H   0  0  0  0  0  0  0  0  0  0  0  0
   34.4350   29.5578  -18.3507 H   0  0  0  0  0  0  0  0  0  0  0  0
   35.3310   26.8650  -19.6510 H   0  0  0  0  0  0  0  0  0  0  0  0
   39.7540   24.6680  -18.5790 H   0  0  0  0  0  0  0  0  0  0  0  0
   39.8244   27.4459  -13.6320 H   0  0  0  0  0  0  0  0  0  0  0  0
  1  2  1  0
  2  3  1  0
  2  4  1  0
  4  5  1  0
  5  6  1  0
  6  7  2  0
  7  8  1  0
  8  9  2  0
  9 10  1  0
 10 11  1  0
 11 12  1  0
 12 13  2  0
 13 14  1  0
 14 15  2  0
 15 16  1  0
 16 17  1  0
 16 18  2  0
 18 19  1  0
 19 20  2  0
 19 21  1  0
 21 22  1  0
  9 23  1  0
 23 24  2  0
 24 25  1  0
 25 26  1  0
 25 27  1  0
 25 28  1  0
 24  6  1  0
 21 10  2  0
 18 12  1  0
  1 29  1  0
  1 30  1  0
  1 31  1  0
  2 32  1  0
  3 33  1  0
  3 34  1  0
  3 35  1  0
  4 36  1  0
  4 37  1  0
  5 38  1  0
  5 39  1  0
  7 40  1  0
  8 41  1  0
 13 42  1  0
 14 43  1  0
 15 44  1  0
 17 45  1  0
 22 46  1  0
 23 47  1  0
M  CHG  1   2   1
M  END
>  <meeko>  (3) 
{"is_sidechain": [false], "free_energy": -4.611, "intermolecular_energy": -6.504, "internal_energy": 0.34}

$$$$
