cand_039_out
     RDKit          3D

 41 43  0  0  0  0  0  0  0  0999 V2000
   46.3810   25.0020  -13.9330 C   0  0  0  0  0  0  0  0  0  0  0  0
   45.1540   24.8440  -13.0470 C   0  0  0  0  0  0  0  0  0  0  0  0
   43.9070   25.3880  -13.7050 C   0  0  0  0  0  0  0  0  0  0  0  0
   43.6770   25.0640  -15.0530 C   0  0  0  0  0  0  0  0  0  0  0  0
   42.5410   25.5260  -15.7230 C   0  0  0  0  0  0  0  0  0  0  0  0
   41.6040   26.3290  -15.0680 C   0  0  0  0  0  0  0  0  0  0  0  0
   40.3970   26.7900  -15.7870 C   0  0  0  0  0  0  0  0  0  0  0  0
   39.5770   27.5950  -15.0050 O   0  0  0  0  0  0  0  0  0  0  0  0
   38.4210   28.0930  -15.5490 C   0  0  0  0  0  0  0  0  0  0  0  0
   37.6370   28.9090  -14.7340 C   0  0  0  0  0  0  0  0  0  0  0  0
   36.4450   29.4470  -15.2270 C   0  0  0  0  0  0  0  0  0  0  0  0
   36.0390   29.1690  -16.5340 C   0  0  0  0  0  0  0  0  0  0  0  0
   36.8240   28.3550  -17.3450 C   0  0  0  0  0  0  0  0  0  0  0  0
   36.3680   28.1230  -18.6140 O   0  0  0  0  0  0  0  0  0  0  0  0
   38.0170   27.8170  -16.8520 C   0  0  0  0  0  0  0  0  0  0  0  0
   38.8710   26.9570  -17.6720 C   0  0  0  0  0  0  0  0  0  0  0  0
   38.5770   26.6610  -18.8280 O   0  0  0  0  0  0  0  0  0  0  0  0
   40.1180   26.4440  -17.0580 C   0  0  0  0  0  0  0  0  0  0  0  0
   40.9100   25.6220  -17.8370 O   0  0  0  0  0  0  0  0  0  0  0  0
   41.8230   26.6380  -13.7180 C   0  0  0  0  0  0  0  0  0  0  0  0
   42.9590   26.1770  -13.0230 C   0  0  0  0  0  0  0  0  0  0  0  0
   43.1170   26.5860  -11.5750 C   0  0  0  0  0  0  0  0  0  0  0  0
   41.7760   26.8900  -10.9220 C   0  0  0  0  0  0  0  0  0  0  0  0
   47.2756   25.1172  -13.3033 H   0  0  0  0  0  0  0  0  0  0  0  0
   46.4919   24.1107  -14.5681 H   0  0  0  0  0  0  0  0  0  0  0  0
   46.2625   25.8923  -14.5681 H   0  0  0  0  0  0  0  0  0  0  0  0
   45.0054   23.7752  -12.8333 H   0  0  0  0  0  0  0  0  0  0  0  0
   45.3268   25.4143  -12.1224 H   0  0  0  0  0  0  0  0  0  0  0  0
   44.4034   24.4361  -15.5898 H   0  0  0  0  0  0  0  0  0  0  0  0
   42.3829   25.2546  -16.7772 H   0  0  0  0  0  0  0  0  0  0  0  0
   37.9563   29.1289  -13.7046 H   0  0  0  0  0  0  0  0  0  0  0  0
   35.8257   30.0903  -14.5846 H   0  0  0  0  0  0  0  0  0  0  0  0
   35.1007   29.5926  -16.9216 H   0  0  0  0  0  0  0  0  0  0  0  0
   36.1700   28.8440  -19.1790 H   0  0  0  0  0  0  0  0  0  0  0  0
   40.7460   24.6990  -17.8610 H   0  0  0  0  0  0  0  0  0  0  0  0
   41.0867   27.2583  -13.1859 H   0  0  0  0  0  0  0  0  0  0  0  0
   43.6029   25.7667  -11.0249 H   0  0  0  0  0  0  0  0  0  0  0  0
   43.7269   27.5009  -11.5436 H   0  0  0  0  0  0  0  0  0  0  0  0
   41.8869   26.8649   -9.8279 H   0  0  0  0  0  0  0  0  0  0  0  0
   41.4346   27.8883  -11.2331 H   0  0  0  0  0  0  0  0  0  0  0  0
   41.0375   26.1365  -11.2331 H   0  0  0  0  0  0  0  0  0  0  0  0
  1  2  1  0
  2  3  1  0
  3  4  2  0
  4  5  1  0
  5  6  2  0
  6  7  1  0
  7  8  1  0
  8  9  1  0
  9 10  2  0
 10 11  1  0
 11 12  2  0
 12 13  1  0
 13 14  1  0
 13 15  2  0
 15 16  1  0
 16 17  2  0
 16 18  1  0
 18 19  1  0
  6 20  1  0
 20 21  2  0
 21 22  1  0
 22 23  1  0
 21  3  1  0
 18  7  2  0
 15  9  1  0
  1 24  1  0
  1 25  1  0
  1 26  1  0
  2 27  1  0
  2 28  1  0
  4 29  1  0
  5 30  1  0
 10 31  1  0
 11 32  1  0
 12 33  1  0
 14 34  1  0
 19 35  1  0
 20 36  1  0
 22 37  1  0
 22 38  1  0
 23 39  1  0
 23 40  1  0
 23 41  1  0
M  END
>  <meeko>  (1) 
{"is_sidechain": [false], "free_energy": -7.337, "intermolecular_energy": -9.052, "internal_energy": 0.089}

$$$$
cand_039_out
     RDKit          3D

 41 43  0  0  0  0  0  0  0  0999 V2000
   46.6720   24.7200  -13.9330 C   0  0  0  0  0  0  0  0  0  0  0  0
   45.4010   24.4120  -13.1550 C   0  0  0  0  0  0  0  0  0  0  0  0
   44.1840   25.0500  -13.7850 C   0  0  0  0  0  0  0  0  0  0  0  0
   43.3750   24.2540  -14.6140 C   0  0  0  0  0  0  0  0  0  0  0  0
   42.2310   24.7750  -15.2220 C   0  0  0  0  0  0  0  0  0  0  0  0
   41.8630   26.1090  -15.0260 C   0  0  0  0  0  0  0  0  0  0  0  0
   40.6360   26.6370  -15.6620 C   0  0  0  0  0  0  0  0  0  0  0  0
   39.8780   27.4230  -14.8010 O   0  0  0  0  0  0  0  0  0  0  0  0
   38.7120   27.9770  -15.2630 C   0  0  0  0  0  0  0  0  0  0  0  0
   37.9910   28.7710  -14.3710 C   0  0  0  0  0  0  0  0  0  0  0  0
   36.7930   29.3640  -14.7780 C   0  0  0  0  0  0  0  0  0  0  0  0
   36.3170   29.1630  -16.0750 C   0  0  0  0  0  0  0  0  0  0  0  0
   37.0390   28.3700  -16.9630 C   0  0  0  0  0  0  0  0  0  0  0  0
   36.5160   28.2140  -18.2170 O   0  0  0  0  0  0  0  0  0  0  0  0
   38.2380   27.7770  -16.5570 C   0  0  0  0  0  0  0  0  0  0  0  0
   39.0270   26.9370  -17.4580 C   0  0  0  0  0  0  0  0  0  0  0  0
   38.6700   26.7070  -18.6120 O   0  0  0  0  0  0  0  0  0  0  0  0
   40.2870   26.3620  -16.9320 C   0  0  0  0  0  0  0  0  0  0  0  0
   41.0170   25.5590  -17.7880 O   0  0  0  0  0  0  0  0  0  0  0  0
   42.6580   26.8990  -14.1850 C   0  0  0  0  0  0  0  0  0  0  0  0
   43.8140   26.3900  -13.5560 C   0  0  0  0  0  0  0  0  0  0  0  0
   44.6190   27.3310  -12.6880 C   0  0  0  0  0  0  0  0  0  0  0  0
   44.3600   28.7890  -13.0400 C   0  0  0  0  0  0  0  0  0  0  0  0
   47.4936   24.9191  -13.2292 H   0  0  0  0  0  0  0  0  0  0  0  0
   46.9321   23.8589  -14.5661 H   0  0  0  0  0  0  0  0  0  0  0  0
   46.5091   25.6047  -14.5661 H   0  0  0  0  0  0  0  0  0  0  0  0
   45.2566   23.3219  -13.1275 H   0  0  0  0  0  0  0  0  0  0  0  0
   45.5145   24.8235  -12.1412 H   0  0  0  0  0  0  0  0  0  0  0  0
   43.6477   23.2025  -14.7868 H   0  0  0  0  0  0  0  0  0  0  0  0
   41.6127   24.1285  -15.8622 H   0  0  0  0  0  0  0  0  0  0  0  0
   38.3650   28.9300  -13.3488 H   0  0  0  0  0  0  0  0  0  0  0  0
   36.2239   29.9903  -14.0752 H   0  0  0  0  0  0  0  0  0  0  0  0
   35.3738   29.6300  -16.3946 H   0  0  0  0  0  0  0  0  0  0  0  0
   36.1600   28.9520  -18.6720 H   0  0  0  0  0  0  0  0  0  0  0  0
   41.5270   25.9460  -18.4730 H   0  0  0  0  0  0  0  0  0  0  0  0
   42.3725   27.9468  -14.0100 H   0  0  0  0  0  0  0  0  0  0  0  0
   44.3459   27.1653  -11.6354 H   0  0  0  0  0  0  0  0  0  0  0  0
   45.6857   27.1234  -12.8582 H   0  0  0  0  0  0  0  0  0  0  0  0
   44.2557   29.3764  -12.1158 H   0  0  0  0  0  0  0  0  0  0  0  0
   45.2029   29.1792  -13.6293 H   0  0  0  0  0  0  0  0  0  0  0  0
   43.4343   28.8651  -13.6293 H   0  0  0  0  0  0  0  0  0  0  0  0
  1  2  1  0
  2  3  1  0
  3  4  2  0
  4  5  1  0
  5  6  2  0
  6  7  1  0
  7  8  1  0
  8  9  1  0
  9 10  2  0
 10 11  1  0
 11 12  2  0
 12 13  1  0
 13 14  1  0
 13 15  2  0
 15 16  1  0
 16 17  2  0
 16 18  1  0
 18 19  1  0
  6 20  1  0
 20 21  2  0
 21 22  1  0
 22 23  1  0
 21  3  1  0
 18  7  2  0
 15  9  1  0
  1 24  1  0
  1 25  1  0
  1 26  1  0
  2 27  1  0
  2 28  1  0
  4 29  1  0
  5 30  1  0
 10 31  1  0
 11 32  1  0
 12 33  1  0
 14 34  1  0
 19 35  1  0
 20 36  1  0
 22 37  1  0
 22 38  1  0
 23 39  1  0
 23 40  1  0
 23 41  1  0
M  END
>  <meeko>  (2) 
{"is_sidechain": [false], "free_energy": -6.907, "intermolecular_energy": -8.213, "internal_energy": -0.22}

$$$$
cand_039_out
     RDKit          3D

 41 43  0  0  0  0  0  0  0  0999 V2000
   46.9960   24.8070  -14.4090 C   0  0  0  0  0  0  0  0  0  0  0  0
   45.9090   24.3910  -13.4290 C   0  0  0  0  0  0  0  0  0  0  0  0
   44.6150   25.1330  -13.6710 C   0  0  0  0  0  0  0  0  0  0  0  0
   43.7030   24.5880  -14.5910 C   0  0  0  0  0  0  0  0  0  0  0  0
   42.4840   25.2160  -14.8580 C   0  0  0  0  0  0  0  0  0  0  0  0
   42.1410   26.4100  -14.2190 C   0  0  0  0  0  0  0  0  0  0  0  0
   40.8380   27.0500  -14.4990 C   0  0  0  0  0  0  0  0  0  0  0  0
   40.3800   26.8000  -15.7870 O   0  0  0  0  0  0  0  0  0  0  0  0
   39.1790   27.3340  -16.1800 C   0  0  0  0  0  0  0  0  0  0  0  0
   38.7510   27.0450  -17.4760 C   0  0  0  0  0  0  0  0  0  0  0  0
   37.5380   27.5600  -17.9400 C   0  0  0  0  0  0  0  0  0  0  0  0
   36.7550   28.3640  -17.1080 C   0  0  0  0  0  0  0  0  0  0  0  0
   37.1850   28.6510  -15.8160 C   0  0  0  0  0  0  0  0  0  0  0  0
   36.3710   29.4440  -15.0550 O   0  0  0  0  0  0  0  0  0  0  0  0
   38.3990   28.1350  -15.3510 C   0  0  0  0  0  0  0  0  0  0  0  0
   38.8880   28.4120  -14.0010 C   0  0  0  0  0  0  0  0  0  0  0  0
   38.2590   29.1160  -13.2130 O   0  0  0  0  0  0  0  0  0  0  0  0
   40.1820   27.8110  -13.6030 C   0  0  0  0  0  0  0  0  0  0  0  0
   40.6400   28.0900  -12.3300 O   0  0  0  0  0  0  0  0  0  0  0  0
   43.0420   26.9460  -13.2880 C   0  0  0  0  0  0  0  0  0  0  0  0
   44.2750   26.3240  -13.0000 C   0  0  0  0  0  0  0  0  0  0  0  0
   45.1880   26.9950  -11.9990 C   0  0  0  0  0  0  0  0  0  0  0  0
   46.5050   27.4230  -12.6300 C   0  0  0  0  0  0  0  0  0  0  0  0
   47.8818   25.1460  -13.8518 H   0  0  0  0  0  0  0  0  0  0  0  0
   47.2670   23.9491  -15.0418 H   0  0  0  0  0  0  0  0  0  0  0  0
   46.6250   25.6267  -15.0418 H   0  0  0  0  0  0  0  0  0  0  0  0
   45.7256   23.3120  -13.5389 H   0  0  0  0  0  0  0  0  0  0  0  0
   46.2555   24.6341  -12.4137 H   0  0  0  0  0  0  0  0  0  0  0  0
   43.9533   23.6509  -15.1097 H   0  0  0  0  0  0  0  0  0  0  0  0
   41.7865   24.7653  -15.5794 H   0  0  0  0  0  0  0  0  0  0  0  0
   39.3677   26.4126  -18.1316 H   0  0  0  0  0  0  0  0  0  0  0  0
   37.1991   27.3322  -18.9614 H   0  0  0  0  0  0  0  0  0  0  0  0
   35.8001   28.7696  -17.4736 H   0  0  0  0  0  0  0  0  0  0  0  0
   36.7180   30.2080  -14.6370 H   0  0  0  0  0  0  0  0  0  0  0  0
   41.1370   27.4500  -11.8590 H   0  0  0  0  0  0  0  0  0  0  0  0
   42.7798   27.8786  -12.7670 H   0  0  0  0  0  0  0  0  0  0  0  0
   44.6813   27.8842  -11.5958 H   0  0  0  0  0  0  0  0  0  0  0  0
   45.4114   26.2704  -11.2021 H   0  0  0  0  0  0  0  0  0  0  0  0
   47.2313   27.6590  -11.8383 H   0  0  0  0  0  0  0  0  0  0  0  0
   46.8954   26.6055  -13.2539 H   0  0  0  0  0  0  0  0  0  0  0  0
   46.3403   28.3138  -13.2539 H   0  0  0  0  0  0  0  0  0  0  0  0
  1  2  1  0
  2  3  1  0
  3  4  2  0
  4  5  1  0
  5  6  2  0
  6  7  1  0
  7  8  1  0
  8  9  1  0
  9 10  2  0
 10 11  1  0
 11 12  2  0
 12 13  1  0
 13 14  1  0
 13 15  2  0
 15 16  1  0
 16 17  2  0
 16 18  1  0
 18 19  1  0
  6 20  1  0
 20 21  2  0
 21 22  1  0
 22 23  1  0
 21  3  1  0
 18  7  2  0
 15  9  1  0
  1 24  1  0
  1 25  1  0
  1 26  1  0
  2 27  1  0
  2 28  1  0
  4 29  1  0
  5 30  1  0
 10 31  1  0
 11 32  1  0
 12 33  1  0
 14 34  1  0
 19 35  1  0
 20 36  1  0
 22 37  1  0
 22 38  1  0
 23 39  1  0
 23 40  1  0
 23 41  1  0
M  END
>  <meeko>  (3) 
{"is_sidechain": [false], "free_energy": -6.723, "intermolecular_energy": -8.671, "internal_energy": 0.466}

$$$$
cand_039_out
     RDKit          3D

 41 43  0  0  0  0  0  0  0  0999 V2000
   36.6300   26.6620  -19.7110 C   0  0  0  0  0  0  0  0  0  0  0  0
   36.5100   27.7060  -18.6110 C   0  0  0  0  0  0  0  0  0  0  0  0
   37.5540   27.5160  -17.5350 C   0  0  0  0  0  0  0  0  0  0  0  0
   38.6050   26.6160  -17.7860 C   0  0  0  0  0  0  0  0  0  0  0  0
   39.6090   26.3970  -16.8410 C   0  0  0  0  0  0  0  0  0  0  0  0
   39.5930   27.0650  -15.6140 C   0  0  0  0  0  0  0  0  0  0  0  0
   40.6760   26.8360  -14.6340 C   0  0  0  0  0  0  0  0  0  0  0  0
   41.7870   26.2160  -15.1930 O   0  0  0  0  0  0  0  0  0  0  0  0
   42.8680   25.9430  -14.3940 C   0  0  0  0  0  0  0  0  0  0  0  0
   43.9670   25.3350  -15.0000 C   0  0  0  0  0  0  0  0  0  0  0  0
   45.0990   25.0280  -14.2410 C   0  0  0  0  0  0  0  0  0  0  0  0
   45.1320   25.3300  -12.8790 C   0  0  0  0  0  0  0  0  0  0  0  0
   44.0340   25.9370  -12.2760 C   0  0  0  0  0  0  0  0  0  0  0  0
   44.1320   26.2050  -10.9390 O   0  0  0  0  0  0  0  0  0  0  0  0
   42.9010   26.2450  -13.0360 C   0  0  0  0  0  0  0  0  0  0  0  0
   41.7250   26.8830  -12.4420 C   0  0  0  0  0  0  0  0  0  0  0  0
   41.6750   27.1730  -11.2480 O   0  0  0  0  0  0  0  0  0  0  0  0
   40.5790   27.1740  -13.3350 C   0  0  0  0  0  0  0  0  0  0  0  0
   39.4700   27.7650  -12.7610 O   0  0  0  0  0  0  0  0  0  0  0  0
   38.5550   27.9760  -15.3690 C   0  0  0  0  0  0  0  0  0  0  0  0
   37.5350   28.2160  -16.3130 C   0  0  0  0  0  0  0  0  0  0  0  0
   36.4470   29.1990  -15.9430 C   0  0  0  0  0  0  0  0  0  0  0  0
   36.4690   29.5380  -14.4600 C   0  0  0  0  0  0  0  0  0  0  0  0
   36.7446   25.6654  -19.2597 H   0  0  0  0  0  0  0  0  0  0  0  0
   35.7238   26.6803  -20.3343 H   0  0  0  0  0  0  0  0  0  0  0  0
   37.5084   26.8854  -20.3343 H   0  0  0  0  0  0  0  0  0  0  0  0
   36.6343   28.7050  -19.0542 H   0  0  0  0  0  0  0  0  0  0  0  0
   35.5189   27.5980  -18.1462 H   0  0  0  0  0  0  0  0  0  0  0  0
   38.6366   26.0753  -18.7434 H   0  0  0  0  0  0  0  0  0  0  0  0
   40.4219   25.6905  -17.0650 H   0  0  0  0  0  0  0  0  0  0  0  0
   43.9426   25.0975  -16.0738 H   0  0  0  0  0  0  0  0  0  0  0  0
   45.9659   24.5473  -14.7179 H   0  0  0  0  0  0  0  0  0  0  0  0
   46.0244   25.0887  -12.2828 H   0  0  0  0  0  0  0  0  0  0  0  0
   44.1950   25.5020  -10.3230 H   0  0  0  0  0  0  0  0  0  0  0  0
   38.6140   27.5820  -13.0970 H   0  0  0  0  0  0  0  0  0  0  0  0
   38.5359   28.5191  -14.4126 H   0  0  0  0  0  0  0  0  0  0  0  0
   36.5913   30.1235  -16.5213 H   0  0  0  0  0  0  0  0  0  0  0  0
   35.4762   28.7353  -16.1723 H   0  0  0  0  0  0  0  0  0  0  0  0
   36.4088   28.6109  -13.8710 H   0  0  0  0  0  0  0  0  0  0  0  0
   37.4033   30.0659  -14.2184 H   0  0  0  0  0  0  0  0  0  0  0  0
   35.6108   30.1823  -14.2184 H   0  0  0  0  0  0  0  0  0  0  0  0
  1  2  1  0
  2  3  1  0
  3  4  2  0
  4  5  1  0
  5  6  2  0
  6  7  1  0
  7  8  1  0
  8  9  1  0
  9 10  2  0
 10 11  1  0
 11 12  2  0
 12 13  1  0
 13 14  1  0
 13 15  2  0
 15 16  1  0
 16 17  2  0
 16 18  1  0
 18 19  1  0
  6 20  1  0
 20 21  2  0
 21 22  1  0
 22 23  1  0
 21  3  1  0
 18  7  2  0
 15  9  1  0
  1 24  1  0
  1 25  1  0
  1 26  1  0
  2 27  1  0
  2 28  1  0
  4 29  1  0
  5 30  1  0
 10 31  1  0
 11 32  1  0
 12 33  1  0
 14 34  1  0
 19 35  1  0
 20 36  1  0
 22 37  1  0
 22 38  1  0
 23 39  1  0
 23 40  1  0
 23 41  1  0
M  END
>  <meeko>  (4) 
{"is_sidechain": [false], "free_energy": -5.374, "intermolecular_energy": -6.488, "internal_energy": -0.053}

$$$$
cand_039_out
     RDKit          3D

 41 43  0  0  0  0  0  0  0  0999 V2000
   36.0430   30.2240  -18.0770 C   0  0  0  0  0  0  0  0  0  0  0  0
   35.7020   29.1500  -17.0540 C   0  0  0  0  0  0  0  0  0  0  0  0
   36.9310   28.6470  -16.3330 C   0  0  0  0  0  0  0  0  0  0  0  0
   37.2610   29.2350  -15.1000 C   0  0  0  0  0  0  0  0  0  0  0  0
   38.3770   28.8130  -14.3740 C   0  0  0  0  0  0  0  0  0  0  0  0
   39.2020   27.7950  -14.8610 C   0  0  0  0  0  0  0  0  0  0  0  0
   40.3680   27.3480  -14.0690 C   0  0  0  0  0  0  0  0  0  0  0  0
   41.3600   26.7660  -14.8500 O   0  0  0  0  0  0  0  0  0  0  0  0
   42.4990   26.3060  -14.2420 C   0  0  0  0  0  0  0  0  0  0  0  0
   43.4750   25.7440  -15.0650 C   0  0  0  0  0  0  0  0  0  0  0  0
   44.6590   25.2540  -14.5080 C   0  0  0  0  0  0  0  0  0  0  0  0
   44.8660   25.3260  -13.1290 C   0  0  0  0  0  0  0  0  0  0  0  0
   43.8910   25.8880  -12.3100 C   0  0  0  0  0  0  0  0  0  0  0  0
   44.1580   25.9270  -10.9690 O   0  0  0  0  0  0  0  0  0  0  0  0
   42.7070   26.3790  -12.8670 C   0  0  0  0  0  0  0  0  0  0  0  0
   41.6560   26.9760  -12.0420 C   0  0  0  0  0  0  0  0  0  0  0  0
   41.7620   27.0690  -10.8210 O   0  0  0  0  0  0  0  0  0  0  0  0
   40.4430   27.4740  -12.7310 C   0  0  0  0  0  0  0  0  0  0  0  0
   39.4520   28.0240  -11.9400 O   0  0  0  0  0  0  0  0  0  0  0  0
   38.8640   27.1950  -16.0820 C   0  0  0  0  0  0  0  0  0  0  0  0
   37.7380   27.6020  -16.8260 C   0  0  0  0  0  0  0  0  0  0  0  0
   37.4730   26.9090  -18.1440 C   0  0  0  0  0  0  0  0  0  0  0  0
   38.7450   26.7390  -18.9620 C   0  0  0  0  0  0  0  0  0  0  0  0
   36.3361   31.1472  -17.5556 H   0  0  0  0  0  0  0  0  0  0  0  0
   36.8757   29.8788  -18.7074 H   0  0  0  0  0  0  0  0  0  0  0  0
   35.1636   30.4223  -18.7074 H   0  0  0  0  0  0  0  0  0  0  0  0
   35.0041   29.5713  -16.3155 H   0  0  0  0  0  0  0  0  0  0  0  0
   35.2498   28.3017  -17.5887 H   0  0  0  0  0  0  0  0  0  0  0  0
   36.6293   30.0417  -14.6997 H   0  0  0  0  0  0  0  0  0  0  0  0
   38.6092   29.2867  -13.4088 H   0  0  0  0  0  0  0  0  0  0  0  0
   43.3127   25.6866  -16.1514 H   0  0  0  0  0  0  0  0  0  0  0  0
   45.4290   24.8110  -15.1567 H   0  0  0  0  0  0  0  0  0  0  0  0
   45.7979   24.9393  -12.6907 H   0  0  0  0  0  0  0  0  0  0  0  0
   44.1410   25.1380  -10.4650 H   0  0  0  0  0  0  0  0  0  0  0  0
   39.6660   28.6880  -11.3150 H   0  0  0  0  0  0  0  0  0  0  0  0
   39.4959   26.3829  -16.4709 H   0  0  0  0  0  0  0  0  0  0  0  0
   37.0437   25.9162  -17.9437 H   0  0  0  0  0  0  0  0  0  0  0  0
   36.7763   27.5330  -18.7230 H   0  0  0  0  0  0  0  0  0  0  0  0
   39.6040   26.6242  -18.2845 H   0  0  0  0  0  0  0  0  0  0  0  0
   38.6562   25.8447  -19.5964 H   0  0  0  0  0  0  0  0  0  0  0  0
   38.8942   27.6252  -19.5964 H   0  0  0  0  0  0  0  0  0  0  0  0
  1  2  1  0
  2  3  1  0
  3  4  2  0
  4  5  1  0
  5  6  2  0
  6  7  1  0
  7  8  1  0
  8  9  1  0
  9 10  2  0
 10 11  1  0
 11 12  2  0
 12 13  1  0
 13 14  1  0
 13 15  2  0
 15 16  1  0
 16 17  2  0
 16 18  1  0
 18 19  1  0
  6 20  1  0
 20 21  2  0
 21 22  1  0
 22 23  1  0
 21  3  1  0
 18  7  2  0
 15  9  1  0
  1 24  1  0
  1 25  1  0
  1 26  1  0
  2 27  1  0
  2 28  1  0
  4 29  1  0
  5 30  1  0
 10 31  1  0
 11 32  1  0
 12 33  1  0
 14 34  1  0
 19 35  1  0
 20 36  1  0
 22 37  1  0
 22 38  1  0
 23 39  1  0
 23 40  1  0
 23 41  1  0
M  END
>  <meeko>  (5) 
{"is_sidechain": [false], "free_energy": -5.039, "intermolecular_energy": -6.057, "internal_energy": -0.07}

$$$$
cand_039_out
     RDKit          3D

 41 43  0  0  0  0  0  0  0  0999 V2000
   46.1050   26.7350  -12.2620 C   0  0  0  0  0  0  0  0  0  0  0  0
   44.9320   25.8280  -11.9210 C   0  0  0  0  0  0  0  0  0  0  0  0
   43.6800   26.2180  -12.6720 C   0  0  0  0  0  0  0  0  0  0  0  0
   42.7070   26.9690  -11.9910 C   0  0  0  0  0  0  0  0  0  0  0  0
   41.5290   27.3710  -12.6250 C   0  0  0  0  0  0  0  0  0  0  0  0
   41.2850   27.0310  -13.9580 C   0  0  0  0  0  0  0  0  0  0  0  0
   40.0420   27.4840  -14.6190 C   0  0  0  0  0  0  0  0  0  0  0  0
   39.8530   26.9030  -15.8680 O   0  0  0  0  0  0  0  0  0  0  0  0
   38.7370   27.2360  -16.5920 C   0  0  0  0  0  0  0  0  0  0  0  0
   38.5790   26.6170  -17.8330 C   0  0  0  0  0  0  0  0  0  0  0  0
   37.4650   26.9140  -18.6220 C   0  0  0  0  0  0  0  0  0  0  0  0
   36.5100   27.8270  -18.1710 C   0  0  0  0  0  0  0  0  0  0  0  0
   36.6710   28.4430  -16.9330 C   0  0  0  0  0  0  0  0  0  0  0  0
   35.6990   29.3270  -16.5520 O   0  0  0  0  0  0  0  0  0  0  0  0
   37.7850   28.1450  -16.1420 C   0  0  0  0  0  0  0  0  0  0  0  0
   37.9910   28.7700  -14.8350 C   0  0  0  0  0  0  0  0  0  0  0  0
   37.1990   29.5890  -14.3730 O   0  0  0  0  0  0  0  0  0  0  0  0
   39.2000   28.3810  -14.0730 C   0  0  0  0  0  0  0  0  0  0  0  0
   39.3920   28.9870  -12.8460 O   0  0  0  0  0  0  0  0  0  0  0  0
   42.2620   26.2970  -14.6450 C   0  0  0  0  0  0  0  0  0  0  0  0
   43.4600   25.8870  -14.0240 C   0  0  0  0  0  0  0  0  0  0  0  0
   44.4400   25.0770  -14.8440 C   0  0  0  0  0  0  0  0  0  0  0  0
   45.3120   24.1880  -13.9690 C   0  0  0  0  0  0  0  0  0  0  0  0
   46.5716   27.0958  -11.3335 H   0  0  0  0  0  0  0  0  0  0  0  0
   46.8451   26.1720  -12.8495 H   0  0  0  0  0  0  0  0  0  0  0  0
   45.7464   27.5930  -12.8495 H   0  0  0  0  0  0  0  0  0  0  0  0
   45.1955   24.7926  -12.1827 H   0  0  0  0  0  0  0  0  0  0  0  0
   44.7277   25.9257  -10.8446 H   0  0  0  0  0  0  0  0  0  0  0  0
   42.8760   27.2453  -10.9398 H   0  0  0  0  0  0  0  0  0  0  0  0
   40.7858   27.9614  -12.0690 H   0  0  0  0  0  0  0  0  0  0  0  0
   39.3302   25.8967  -18.1891 H   0  0  0  0  0  0  0  0  0  0  0  0
   37.3401   26.4275  -19.6006 H   0  0  0  0  0  0  0  0  0  0  0  0
   35.6325   28.0591  -18.7923 H   0  0  0  0  0  0  0  0  0  0  0  0
   35.5010   29.4430  -15.6430 H   0  0  0  0  0  0  0  0  0  0  0  0
   40.1400   28.7670  -12.3260 H   0  0  0  0  0  0  0  0  0  0  0  0
   42.0892   26.0332  -15.6988 H   0  0  0  0  0  0  0  0  0  0  0  0
   43.8782   24.4437  -15.5464 H   0  0  0  0  0  0  0  0  0  0  0  0
   45.0968   25.7774  -15.3806 H   0  0  0  0  0  0  0  0  0  0  0  0
   45.1046   24.3995  -12.9096 H   0  0  0  0  0  0  0  0  0  0  0  0
   45.0897   23.1321  -14.1825 H   0  0  0  0  0  0  0  0  0  0  0  0
   46.3720   24.3899  -14.1825 H   0  0  0  0  0  0  0  0  0  0  0  0
  1  2  1  0
  2  3  1  0
  3  4  2  0
  4  5  1  0
  5  6  2  0
  6  7  1  0
  7  8  1  0
  8  9  1  0
  9 10  2  0
 10 11  1  0
 11 12  2  0
 12 13  1  0
 13 14  1  0
 13 15  2  0
 15 16  1  0
 16 17  2  0
 16 18  1  0
 18 19  1  0
  6 20  1  0
 20 21  2  0
 21 22  1  0
 22 23  1  0
 21  3  1  0
 18  7  2  0
 15  9  1  0
  1 24  1  0
  1 25  1  0
  1 26  1  0
  2 27  1  0
  2 28  1  0
  4 29  1  0
  5 30  1  0
 10 31  1  0
 11 32  1  0
 12 33  1  0
 14 34  1  0
 19 35  1  0
 20 36  1  0
 22 37  1  0
 22 38  1  0
 23 39  1  0
 23 40  1  0
 23 41  1  0
M  END
>  <meeko>  (6) 
{"is_sidechain": [false], "free_energy": -4.735, "intermolecular_energy": -7.32, "internal_energy": 1.566}

$$$$
cand_039_out
     RDKit          3D

 41 43  0  0  0  0  0  0  0  0999 V2000
   46.3460   26.8360  -12.0410 C   0  0  0  0  0  0  0  0  0  0  0  0
   45.2190   25.8420  -11.7970 C   0  0  0  0  0  0  0  0  0  0  0  0
   44.0490   26.0750  -12.7240 C   0  0  0  0  0  0  0  0  0  0  0  0
   43.0660   26.9980  -12.3270 C   0  0  0  0  0  0  0  0  0  0  0  0
   41.9610   27.2690  -13.1380 C   0  0  0  0  0  0  0  0  0  0  0  0
   41.8030   26.6250  -14.3680 C   0  0  0  0  0  0  0  0  0  0  0  0
   40.6380   26.9410  -15.2220 C   0  0  0  0  0  0  0  0  0  0  0  0
   39.7030   27.7460  -14.5830 O   0  0  0  0  0  0  0  0  0  0  0  0
   38.5710   28.1170  -15.2630 C   0  0  0  0  0  0  0  0  0  0  0  0
   37.6670   28.9380  -14.5890 C   0  0  0  0  0  0  0  0  0  0  0  0
   36.4930   29.3500  -15.2240 C   0  0  0  0  0  0  0  0  0  0  0  0
   36.2230   28.9400  -16.5310 C   0  0  0  0  0  0  0  0  0  0  0  0
   37.1260   28.1190  -17.2010 C   0  0  0  0  0  0  0  0  0  0  0  0
   36.8000   27.7550  -18.4780 O   0  0  0  0  0  0  0  0  0  0  0  0
   38.3020   27.7080  -16.5660 C   0  0  0  0  0  0  0  0  0  0  0  0
   39.2780   26.8470  -17.2340 C   0  0  0  0  0  0  0  0  0  0  0  0
   39.1070   26.4380  -18.3810 O   0  0  0  0  0  0  0  0  0  0  0  0
   40.4950   26.4740  -16.4770 C   0  0  0  0  0  0  0  0  0  0  0  0
   41.4030   25.6490  -17.1130 O   0  0  0  0  0  0  0  0  0  0  0  0
   42.7920   25.7180  -14.7730 C   0  0  0  0  0  0  0  0  0  0  0  0
   43.9180   25.4350  -13.9720 C   0  0  0  0  0  0  0  0  0  0  0  0
   44.9160   24.4220  -14.4880 C   0  0  0  0  0  0  0  0  0  0  0  0
   46.3290   24.9880  -14.5280 C   0  0  0  0  0  0  0  0  0  0  0  0
   46.7421   27.1853  -11.0761 H   0  0  0  0  0  0  0  0  0  0  0  0
   47.1492   26.3468  -12.6116 H   0  0  0  0  0  0  0  0  0  0  0  0
   45.9610   27.6940  -12.6116 H   0  0  0  0  0  0  0  0  0  0  0  0
   45.6025   24.8236  -11.9580 H   0  0  0  0  0  0  0  0  0  0  0  0
   44.8659   25.9752  -10.7638 H   0  0  0  0  0  0  0  0  0  0  0  0
   43.1684   27.5156  -11.3618 H   0  0  0  0  0  0  0  0  0  0  0  0
   41.2071   27.9973  -12.8046 H   0  0  0  0  0  0  0  0  0  0  0  0
   37.8783   29.2606  -13.5588 H   0  0  0  0  0  0  0  0  0  0  0  0
   35.7802   29.9984  -14.6935 H   0  0  0  0  0  0  0  0  0  0  0  0
   35.2984   29.2651  -17.0305 H   0  0  0  0  0  0  0  0  0  0  0  0
   36.5690   28.4090  -19.1080 H   0  0  0  0  0  0  0  0  0  0  0  0
   41.1920   24.7490  -17.2650 H   0  0  0  0  0  0  0  0  0  0  0  0
   42.6869   25.2120  -15.7441 H   0  0  0  0  0  0  0  0  0  0  0  0
   44.9037   23.5422  -13.8278 H   0  0  0  0  0  0  0  0  0  0  0  0
   44.6277   24.1510  -15.5144 H   0  0  0  0  0  0  0  0  0  0  0  0
   46.6945   25.1344  -13.5009 H   0  0  0  0  0  0  0  0  0  0  0  0
   46.9906   24.2855  -15.0560 H   0  0  0  0  0  0  0  0  0  0  0  0
   46.3226   25.9530  -15.0560 H   0  0  0  0  0  0  0  0  0  0  0  0
  1  2  1  0
  2  3  1  0
  3  4  2  0
  4  5  1  0
  5  6  2  0
  6  7  1  0
  7  8  1  0
  8  9  1  0
  9 10  2  0
 10 11  1  0
 11 12  2  0
 12 13  1  0
 13 14  1  0
 13 15  2  0
 15 16  1  0
 16 17  2  0
 16 18  1  0
 18 19  1  0
  6 20  1  0
 20 21  2  0
 21 22  1  0
 22 23  1  0
 21  3  1  0
 18  7  2  0
 15  9  1  0
  1 24  1  0
  1 25  1  0
  1 26  1  0
  2 27  1  0
  2 28  1  0
  4 29  1  0
  5 30  1  0
 10 31  1  0
 11 32  1  0
 12 33  1  0
 14 34  1  0
 19 35  1  0
 20 36  1  0
 22 37  1  0
 22 38  1  0
 23 39  1  0
 23 40  1  0
 23 41  1  0
M  END
>  <meeko>  (7) 
{"is_sidechain": [false], "free_energy": -4.702, "intermolecular_energy": -6.568, "internal_energy": 0.856}

$$$$
