cand_048_out
     RDKit          3D

 37 39  0  0  0  0  0  0  0  0999 V2000
   46.6160   24.6570  -13.7710 C   0  0  0  0  0  0  0  0  0  0  0  0
   45.4110   24.6560  -13.1870 C   0  0  0  0  0  0  0  0  0  0  0  0
   44.1960   25.2140  -13.8090 C   0  0  0  0  0  0  0  0  0  0  0  0
   43.5740   24.5080  -14.8520 C   0  0  0  0  0  0  0  0  0  0  0  0
   42.3980   24.9820  -15.4400 C   0  0  0  0  0  0  0  0  0  0  0  0
   41.8050   26.1680  -14.9970 C   0  0  0  0  0  0  0  0  0  0  0  0
   40.5810   26.6700  -15.6540 C   0  0  0  0  0  0  0  0  0  0  0  0
   39.8250   27.4970  -14.8310 O   0  0  0  0  0  0  0  0  0  0  0  0
   38.6590   28.0310  -15.3180 C   0  0  0  0  0  0  0  0  0  0  0  0
   37.9240   28.8430  -14.4520 C   0  0  0  0  0  0  0  0  0  0  0  0
   36.7290   29.4190  -14.8850 C   0  0  0  0  0  0  0  0  0  0  0  0
   36.2690   29.1860  -16.1820 C   0  0  0  0  0  0  0  0  0  0  0  0
   37.0040   28.3750  -17.0440 C   0  0  0  0  0  0  0  0  0  0  0  0
   36.4960   28.1900  -18.3000 O   0  0  0  0  0  0  0  0  0  0  0  0
   38.2000   27.7980  -16.6100 C   0  0  0  0  0  0  0  0  0  0  0  0
   39.0030   26.9400  -17.4830 C   0  0  0  0  0  0  0  0  0  0  0  0
   38.6680   26.6930  -18.6400 O   0  0  0  0  0  0  0  0  0  0  0  0
   40.2510   26.3700  -16.9240 C   0  0  0  0  0  0  0  0  0  0  0  0
   41.0090   25.5720  -17.7600 O   0  0  0  0  0  0  0  0  0  0  0  0
   42.4260   26.8750  -13.9550 C   0  0  0  0  0  0  0  0  0  0  0  0
   43.6020   26.4050  -13.3410 C   0  0  0  0  0  0  0  0  0  0  0  0
   44.2240   27.2080  -12.2710 C   0  0  0  0  0  0  0  0  0  0  0  0
   45.3340   27.9380  -12.4400 C   0  0  0  0  0  0  0  0  0  0  0  0
   47.4809   24.2228  -13.2482 H   0  0  0  0  0  0  0  0  0  0  0  0
   46.7409   25.0920  -14.7736 H   0  0  0  0  0  0  0  0  0  0  0  0
   45.3222   24.2128  -12.1842 H   0  0  0  0  0  0  0  0  0  0  0  0
   44.0190   23.5683  -15.2112 H   0  0  0  0  0  0  0  0  0  0  0  0
   41.9337   24.4155  -16.2607 H   0  0  0  0  0  0  0  0  0  0  0  0
   38.2864   29.0284  -13.4301 H   0  0  0  0  0  0  0  0  0  0  0  0
   36.1486   30.0577  -14.2030 H   0  0  0  0  0  0  0  0  0  0  0  0
   35.3278   29.6419  -16.5230 H   0  0  0  0  0  0  0  0  0  0  0  0
   36.6960   27.4080  -18.7760 H   0  0  0  0  0  0  0  0  0  0  0  0
   41.9330   25.4960  -17.6230 H   0  0  0  0  0  0  0  0  0  0  0  0
   41.9821   27.8204  -13.6097 H   0  0  0  0  0  0  0  0  0  0  0  0
   43.7494   27.2071  -11.2787 H   0  0  0  0  0  0  0  0  0  0  0  0
   45.7463   28.5148  -11.5990 H   0  0  0  0  0  0  0  0  0  0  0  0
   45.8334   27.9608  -13.4198 H   0  0  0  0  0  0  0  0  0  0  0  0
  1  2  2  0
  2  3  1  0
  3  4  2  0
  4  5  1  0
  5  6  2  0
  6  7  1  0
  7  8  1  0
  8  9  1  0
  9 10  2  0
 10 11  1  0
 11 12  2  0
 12 13  1  0
 13 14  1  0
 13 15  2  0
 15 16  1  0
 16 17  2  0
 16 18  1  0
 18 19  1  0
  6 20  1  0
 20 21  2  0
 21 22  1  0
 22 23  2  0
 21  3  1  0
 18  7  2  0
 15  9  1  0
  1 24  1  0
  1 25  1  0
  2 26  1  0
  4 27  1  0
  5 28  1  0
 10 29  1  0
 11 30  1  0
 12 31  1  0
 14 32  1  0
 19 33  1  0
 20 34  1  0
 22 35  1  0
 23 36  1  0
 23 37  1  0
M  END
>  <meeko>  (1) 
{"is_sidechain": [false], "free_energy": -7.07, "intermolecular_energy": -8.723, "internal_energy": 0.054}

$$$$
cand_048_out
     RDKit          3D

 37 39  0  0  0  0  0  0  0  0999 V2000
   46.9940   24.5610  -14.1970 C   0  0  0  0  0  0  0  0  0  0  0  0
   45.8710   24.3730  -13.4930 C   0  0  0  0  0  0  0  0  0  0  0  0
   44.6090   25.0890  -13.7520 C   0  0  0  0  0  0  0  0  0  0  0  0
   43.6530   24.5090  -14.6030 C   0  0  0  0  0  0  0  0  0  0  0  0
   42.4280   25.1370  -14.8430 C   0  0  0  0  0  0  0  0  0  0  0  0
   42.1180   26.3560  -14.2320 C   0  0  0  0  0  0  0  0  0  0  0  0
   40.8310   27.0190  -14.5230 C   0  0  0  0  0  0  0  0  0  0  0  0
   40.3630   26.7530  -15.8050 O   0  0  0  0  0  0  0  0  0  0  0  0
   39.1750   27.3100  -16.2070 C   0  0  0  0  0  0  0  0  0  0  0  0
   38.7520   27.0300  -17.5060 C   0  0  0  0  0  0  0  0  0  0  0  0
   37.5510   27.5630  -17.9780 C   0  0  0  0  0  0  0  0  0  0  0  0
   36.7740   28.3750  -17.1500 C   0  0  0  0  0  0  0  0  0  0  0  0
   37.1990   28.6540  -15.8540 C   0  0  0  0  0  0  0  0  0  0  0  0
   36.3890   29.4560  -15.0980 O   0  0  0  0  0  0  0  0  0  0  0  0
   38.4010   28.1200  -15.3820 C   0  0  0  0  0  0  0  0  0  0  0  0
   38.8840   28.3880  -14.0270 C   0  0  0  0  0  0  0  0  0  0  0  0
   38.2530   29.0870  -13.2370 O   0  0  0  0  0  0  0  0  0  0  0  0
   40.1750   27.7810  -13.6280 C   0  0  0  0  0  0  0  0  0  0  0  0
   40.6160   28.0280  -12.3410 O   0  0  0  0  0  0  0  0  0  0  0  0
   43.0710   26.9370  -13.3820 C   0  0  0  0  0  0  0  0  0  0  0  0
   44.3050   26.3120  -13.1170 C   0  0  0  0  0  0  0  0  0  0  0  0
   45.2780   26.9870  -12.2380 C   0  0  0  0  0  0  0  0  0  0  0  0
   46.4920   27.3850  -12.6410 C   0  0  0  0  0  0  0  0  0  0  0  0
   47.9012   23.9909  -13.9480 H   0  0  0  0  0  0  0  0  0  0  0  0
   47.0096   25.2856  -15.0245 H   0  0  0  0  0  0  0  0  0  0  0  0
   45.8913   23.6406  -12.6725 H   0  0  0  0  0  0  0  0  0  0  0  0
   43.8722   23.5461  -15.0875 H   0  0  0  0  0  0  0  0  0  0  0  0
   41.6994   24.6672  -15.5201 H   0  0  0  0  0  0  0  0  0  0  0  0
   39.3641   26.3897  -18.1582 H   0  0  0  0  0  0  0  0  0  0  0  0
   37.2169   27.3430  -19.0027 H   0  0  0  0  0  0  0  0  0  0  0  0
   35.8270   28.7939  -17.5211 H   0  0  0  0  0  0  0  0  0  0  0  0
   35.5990   29.8030  -15.4630 H   0  0  0  0  0  0  0  0  0  0  0  0
   41.5330   28.1230  -12.1710 H   0  0  0  0  0  0  0  0  0  0  0  0
   42.8487   27.9056  -12.9104 H   0  0  0  0  0  0  0  0  0  0  0  0
   44.9908   27.1742  -11.1928 H   0  0  0  0  0  0  0  0  0  0  0  0
   47.1704   27.8838  -11.9332 H   0  0  0  0  0  0  0  0  0  0  0  0
   46.8105   27.2131  -13.6798 H   0  0  0  0  0  0  0  0  0  0  0  0
  1  2  2  0
  2  3  1  0
  3  4  2  0
  4  5  1  0
  5  6  2  0
  6  7  1  0
  7  8  1  0
  8  9  1  0
  9 10  2  0
 10 11  1  0
 11 12  2  0
 12 13  1  0
 13 14  1  0
 13 15  2  0
 15 16  1  0
 16 17  2  0
 16 18  1  0
 18 19  1  0
  6 20  1  0
 20 21  2  0
 21 22  1  0
 22 23  2  0
 21  3  1  0
 18  7  2  0
 15  9  1  0
  1 24  1  0
  1 25  1  0
  2 26  1  0
  4 27  1  0
  5 28  1  0
 10 29  1  0
 11 30  1  0
 12 31  1  0
 14 32  1  0
 19 33  1  0
 20 34  1  0
 22 35  1  0
 23 36  1  0
 23 37  1  0
M  END
>  <meeko>  (2) 
{"is_sidechain": [false], "free_energy": -7.023, "intermolecular_energy": -9.015, "internal_energy": 0.404}

$$$$
cand_048_out
     RDKit          3D

 37 39  0  0  0  0  0  0  0  0999 V2000
   35.6650   30.0050  -18.2240 C   0  0  0  0  0  0  0  0  0  0  0  0
   35.6210   29.2610  -17.1110 C   0  0  0  0  0  0  0  0  0  0  0  0
   36.8160   28.7730  -16.4010 C   0  0  0  0  0  0  0  0  0  0  0  0
   37.1930   29.3830  -15.1930 C   0  0  0  0  0  0  0  0  0  0  0  0
   38.2960   28.9240  -14.4690 C   0  0  0  0  0  0  0  0  0  0  0  0
   39.0480   27.8360  -14.9240 C   0  0  0  0  0  0  0  0  0  0  0  0
   40.2300   27.3860  -14.1610 C   0  0  0  0  0  0  0  0  0  0  0  0
   41.1910   26.7770  -14.9600 O   0  0  0  0  0  0  0  0  0  0  0  0
   42.3410   26.3110  -14.3750 C   0  0  0  0  0  0  0  0  0  0  0  0
   43.2710   25.6920  -15.2120 C   0  0  0  0  0  0  0  0  0  0  0  0
   44.4630   25.1970  -14.6820 C   0  0  0  0  0  0  0  0  0  0  0  0
   44.7270   25.3210  -13.3170 C   0  0  0  0  0  0  0  0  0  0  0  0
   43.7980   25.9380  -12.4840 C   0  0  0  0  0  0  0  0  0  0  0  0
   44.1200   26.0260  -11.1580 O   0  0  0  0  0  0  0  0  0  0  0  0
   42.6030   26.4330  -13.0150 C   0  0  0  0  0  0  0  0  0  0  0  0
   41.6000   27.0890  -12.1740 C   0  0  0  0  0  0  0  0  0  0  0  0
   41.7620   27.2420  -10.9660 O   0  0  0  0  0  0  0  0  0  0  0  0
   40.3640   27.5710  -12.8340 C   0  0  0  0  0  0  0  0  0  0  0  0
   39.4290   28.2010  -12.0350 O   0  0  0  0  0  0  0  0  0  0  0  0
   38.6730   27.2250  -16.1310 C   0  0  0  0  0  0  0  0  0  0  0  0
   37.5560   27.6650  -16.8670 C   0  0  0  0  0  0  0  0  0  0  0  0
   37.2310   27.0020  -18.1430 C   0  0  0  0  0  0  0  0  0  0  0  0
   38.1520   26.6170  -19.0360 C   0  0  0  0  0  0  0  0  0  0  0  0
   34.7310   30.3351  -18.7022 H   0  0  0  0  0  0  0  0  0  0  0  0
   36.6351   30.2859  -18.6598 H   0  0  0  0  0  0  0  0  0  0  0  0
   34.6338   28.9988  -16.7028 H   0  0  0  0  0  0  0  0  0  0  0  0
   36.6109   30.2348  -14.8115 H   0  0  0  0  0  0  0  0  0  0  0  0
   38.5764   29.4240  -13.5302 H   0  0  0  0  0  0  0  0  0  0  0  0
   43.0644   25.5946  -16.2880 H   0  0  0  0  0  0  0  0  0  0  0  0
   45.1958   24.7083  -15.3409 H   0  0  0  0  0  0  0  0  0  0  0  0
   45.6676   24.9318  -12.9002 H   0  0  0  0  0  0  0  0  0  0  0  0
   43.5620   25.6380  -10.5130 H   0  0  0  0  0  0  0  0  0  0  0  0
   38.6960   27.7210  -11.7040 H   0  0  0  0  0  0  0  0  0  0  0  0
   39.2669   26.3809  -16.5116 H   0  0  0  0  0  0  0  0  0  0  0  0
   36.1725   26.8128  -18.3747 H   0  0  0  0  0  0  0  0  0  0  0  0
   37.8410   26.1266  -19.9702 H   0  0  0  0  0  0  0  0  0  0  0  0
   39.2194   26.7912  -18.8352 H   0  0  0  0  0  0  0  0  0  0  0  0
  1  2  2  0
  2  3  1  0
  3  4  2  0
  4  5  1  0
  5  6  2  0
  6  7  1  0
  7  8  1  0
  8  9  1  0
  9 10  2  0
 10 11  1  0
 11 12  2  0
 12 13  1  0
 13 14  1  0
 13 15  2  0
 15 16  1  0
 16 17  2  0
 16 18  1  0
 18 19  1  0
  6 20  1  0
 20 21  2  0
 21 22  1  0
 22 23  2  0
 21  3  1  0
 18  7  2  0
 15  9  1  0
  1 24  1  0
  1 25  1  0
  2 26  1  0
  4 27  1  0
  5 28  1  0
 10 29  1  0
 11 30  1  0
 12 31  1  0
 14 32  1  0
 19 33  1  0
 20 34  1  0
 22 35  1  0
 23 36  1  0
 23 37  1  0
M  END
>  <meeko>  (3) 
{"is_sidechain": [false], "free_energy": -5.931, "intermolecular_energy": -7.304, "internal_energy": 0.039}

$$$$
cand_048_out
     RDKit          3D

 37 39  0  0  0  0  0  0  0  0999 V2000
   46.2410   24.9950  -14.0970 C   0  0  0  0  0  0  0  0  0  0  0  0
   45.0260   24.6010  -13.6970 C   0  0  0  0  0  0  0  0  0  0  0  0
   43.7750   25.2840  -14.0750 C   0  0  0  0  0  0  0  0  0  0  0  0
   43.0870   24.8660  -15.2260 C   0  0  0  0  0  0  0  0  0  0  0  0
   41.8780   25.4610  -15.5960 C   0  0  0  0  0  0  0  0  0  0  0  0
   41.3160   26.4800  -14.8220 C   0  0  0  0  0  0  0  0  0  0  0  0
   40.0530   27.1180  -15.2480 C   0  0  0  0  0  0  0  0  0  0  0  0
   39.6290   26.6940  -16.5020 O   0  0  0  0  0  0  0  0  0  0  0  0
   38.4680   27.2100  -17.0190 C   0  0  0  0  0  0  0  0  0  0  0  0
   38.0880   26.7680  -18.2870 C   0  0  0  0  0  0  0  0  0  0  0  0
   36.9160   27.2520  -18.8710 C   0  0  0  0  0  0  0  0  0  0  0  0
   36.1230   28.1750  -18.1870 C   0  0  0  0  0  0  0  0  0  0  0  0
   36.5040   28.6150  -16.9220 C   0  0  0  0  0  0  0  0  0  0  0  0
   35.6820   29.5190  -16.3090 O   0  0  0  0  0  0  0  0  0  0  0  0
   37.6790   28.1310  -16.3380 C   0  0  0  0  0  0  0  0  0  0  0  0
   38.1150   28.5670  -15.0110 C   0  0  0  0  0  0  0  0  0  0  0  0
   37.4690   29.3710  -14.3440 O   0  0  0  0  0  0  0  0  0  0  0  0
   39.3790   27.9990  -14.4860 C   0  0  0  0  0  0  0  0  0  0  0  0
   39.7760   28.4060  -13.2260 O   0  0  0  0  0  0  0  0  0  0  0  0
   42.0020   26.8990  -13.6720 C   0  0  0  0  0  0  0  0  0  0  0  0
   43.2140   26.3020  -13.2760 C   0  0  0  0  0  0  0  0  0  0  0  0
   43.9030   26.8070  -12.0730 C   0  0  0  0  0  0  0  0  0  0  0  0
   43.7670   26.2640  -10.8560 C   0  0  0  0  0  0  0  0  0  0  0  0
   47.1333   24.4374  -13.7763 H   0  0  0  0  0  0  0  0  0  0  0  0
   46.3472   25.8764  -14.7465 H   0  0  0  0  0  0  0  0  0  0  0  0
   44.9566   23.7155  -13.0481 H   0  0  0  0  0  0  0  0  0  0  0  0
   43.5059   24.0588  -15.8449 H   0  0  0  0  0  0  0  0  0  0  0  0
   41.3625   25.1234  -16.5072 H   0  0  0  0  0  0  0  0  0  0  0  0
   38.7113   26.0391  -18.8257 H   0  0  0  0  0  0  0  0  0  0  0  0
   36.6171   26.9056  -19.8713 H   0  0  0  0  0  0  0  0  0  0  0  0
   35.1984   28.5542  -18.6467 H   0  0  0  0  0  0  0  0  0  0  0  0
   34.8800   29.2350  -15.9180 H   0  0  0  0  0  0  0  0  0  0  0  0
   40.6560   28.6970  -13.0830 H   0  0  0  0  0  0  0  0  0  0  0  0
   41.5823   27.7144  -13.0646 H   0  0  0  0  0  0  0  0  0  0  0  0
   44.5656   27.6783  -12.1816 H   0  0  0  0  0  0  0  0  0  0  0  0
   44.3102   26.6903   -9.9997 H   0  0  0  0  0  0  0  0  0  0  0  0
   43.1121   25.3919  -10.7129 H   0  0  0  0  0  0  0  0  0  0  0  0
  1  2  2  0
  2  3  1  0
  3  4  2  0
  4  5  1  0
  5  6  2  0
  6  7  1  0
  7  8  1  0
  8  9  1  0
  9 10  2  0
 10 11  1  0
 11 12  2  0
 12 13  1  0
 13 14  1  0
 13 15  2  0
 15 16  1  0
 16 17  2  0
 16 18  1  0
 18 19  1  0
  6 20  1  0
 20 21  2  0
 21 22  1  0
 22 23  2  0
 21  3  1  0
 18  7  2  0
 15  9  1  0
  1 24  1  0
  1 25  1  0
  2 26  1  0
  4 27  1  0
  5 28  1  0
 10 29  1  0
 11 30  1  0
 12 31  1  0
 14 32  1  0
 19 33  1  0
 20 34  1  0
 22 35  1  0
 23 36  1  0
 23 37  1  0
M  END
>  <meeko>  (4) 
{"is_sidechain": [false], "free_energy": -5.73, "intermolecular_energy": -7.099, "internal_energy": 0.082}

$$$$
cand_048_out
     RDKit          3D

 37 39  0  0  0  0  0  0  0  0999 V2000
   35.7650   29.0250  -18.2990 C   0  0  0  0  0  0  0  0  0  0  0  0
   36.5230   27.9210  -18.2950 C   0  0  0  0  0  0  0  0  0  0  0  0
   37.5780   27.6520  -17.3020 C   0  0  0  0  0  0  0  0  0  0  0  0
   38.6320   26.7860  -17.6380 C   0  0  0  0  0  0  0  0  0  0  0  0
   39.6730   26.5370  -16.7400 C   0  0  0  0  0  0  0  0  0  0  0  0
   39.6970   27.1540  -15.4850 C   0  0  0  0  0  0  0  0  0  0  0  0
   40.7890   26.8530  -14.5370 C   0  0  0  0  0  0  0  0  0  0  0  0
   41.8970   26.2790  -15.1520 O   0  0  0  0  0  0  0  0  0  0  0  0
   42.9840   25.9480  -14.3840 C   0  0  0  0  0  0  0  0  0  0  0  0
   44.0670   25.3600  -15.0400 C   0  0  0  0  0  0  0  0  0  0  0  0
   45.2060   25.0000  -14.3180 C   0  0  0  0  0  0  0  0  0  0  0  0
   45.2630   25.2280  -12.9420 C   0  0  0  0  0  0  0  0  0  0  0  0
   44.1820   25.8140  -12.2900 C   0  0  0  0  0  0  0  0  0  0  0  0
   44.3050   26.0090  -10.9420 O   0  0  0  0  0  0  0  0  0  0  0  0
   43.0410   26.1740  -13.0130 C   0  0  0  0  0  0  0  0  0  0  0  0
   41.8830   26.7920  -12.3660 C   0  0  0  0  0  0  0  0  0  0  0  0
   41.8600   27.0310  -11.1610 O   0  0  0  0  0  0  0  0  0  0  0  0
   40.7200   27.1280  -13.2220 C   0  0  0  0  0  0  0  0  0  0  0  0
   39.6360   27.7250  -12.6050 O   0  0  0  0  0  0  0  0  0  0  0  0
   38.6460   28.0200  -15.1470 C   0  0  0  0  0  0  0  0  0  0  0  0
   37.5960   28.2940  -16.0450 C   0  0  0  0  0  0  0  0  0  0  0  0
   36.5040   29.1890  -15.6200 C   0  0  0  0  0  0  0  0  0  0  0  0
   36.3080   29.5720  -14.3520 C   0  0  0  0  0  0  0  0  0  0  0  0
   34.9943   29.1602  -19.0721 H   0  0  0  0  0  0  0  0  0  0  0  0
   35.9131   29.7966  -17.5291 H   0  0  0  0  0  0  0  0  0  0  0  0
   36.3476   27.1703  -19.0797 H   0  0  0  0  0  0  0  0  0  0  0  0
   38.6378   26.2965  -18.6231 H   0  0  0  0  0  0  0  0  0  0  0  0
   40.4826   25.8482  -17.0231 H   0  0  0  0  0  0  0  0  0  0  0  0
   44.0228   25.1807  -16.1244 H   0  0  0  0  0  0  0  0  0  0  0  0
   46.0596   24.5361  -14.8339 H   0  0  0  0  0  0  0  0  0  0  0  0
   46.1612   24.9449  -12.3737 H   0  0  0  0  0  0  0  0  0  0  0  0
   44.8690   25.4570  -10.4380 H   0  0  0  0  0  0  0  0  0  0  0  0
   39.1230   27.2400  -11.9890 H   0  0  0  0  0  0  0  0  0  0  0  0
   38.6420   28.4969  -14.1558 H   0  0  0  0  0  0  0  0  0  0  0  0
   35.8112   29.5632  -16.3881 H   0  0  0  0  0  0  0  0  0  0  0  0
   35.4724   30.2426  -14.1029 H   0  0  0  0  0  0  0  0  0  0  0  0
   36.9826   29.2160  -13.5594 H   0  0  0  0  0  0  0  0  0  0  0  0
  1  2  2  0
  2  3  1  0
  3  4  2  0
  4  5  1  0
  5  6  2  0
  6  7  1  0
  7  8  1  0
  8  9  1  0
  9 10  2  0
 10 11  1  0
 11 12  2  0
 12 13  1  0
 13 14  1  0
 13 15  2  0
 15 16  1  0
 16 17  2  0
 16 18  1  0
 18 19  1  0
  6 20  1  0
 20 21  2  0
 21 22  1  0
 22 23  2  0
 21  3  1  0
 18  7  2  0
 15  9  1  0
  1 24  1  0
  1 25  1  0
  2 26  1  0
  4 27  1  0
  5 28  1  0
 10 29  1  0
 11 30  1  0
 12 31  1  0
 14 32  1  0
 19 33  1  0
 20 34  1  0
 22 35  1  0
 23 36  1  0
 23 37  1  0
M  END
>  <meeko>  (5) 
{"is_sidechain": [false], "free_energy": -5.016, "intermolecular_energy": -6.948, "internal_energy": 0.812}

$$$$
cand_048_out
     RDKit          3D

 37 39  0  0  0  0  0  0  0  0999 V2000
   45.9460   26.5750  -11.9210 C   0  0  0  0  0  0  0  0  0  0  0  0
   44.7800   25.9210  -11.8550 C   0  0  0  0  0  0  0  0  0  0  0  0
   43.6520   26.1590  -12.7730 C   0  0  0  0  0  0  0  0  0  0  0  0
   42.6220   27.0300  -12.3810 C   0  0  0  0  0  0  0  0  0  0  0  0
   41.5550   27.3140  -13.2380 C   0  0  0  0  0  0  0  0  0  0  0  0
   41.4920   26.7440  -14.5130 C   0  0  0  0  0  0  0  0  0  0  0  0
   40.3390   27.0310  -15.3920 C   0  0  0  0  0  0  0  0  0  0  0  0
   39.4100   27.8820  -14.8050 O   0  0  0  0  0  0  0  0  0  0  0  0
   38.2880   28.2290  -15.5140 C   0  0  0  0  0  0  0  0  0  0  0  0
   37.3750   29.0730  -14.8800 C   0  0  0  0  0  0  0  0  0  0  0  0
   36.2130   29.4670  -15.5460 C   0  0  0  0  0  0  0  0  0  0  0  0
   35.9640   29.0190  -16.8450 C   0  0  0  0  0  0  0  0  0  0  0  0
   36.8770   28.1770  -17.4750 C   0  0  0  0  0  0  0  0  0  0  0  0
   36.5720   27.7760  -18.7460 O   0  0  0  0  0  0  0  0  0  0  0  0
   38.0400   27.7820  -16.8070 C   0  0  0  0  0  0  0  0  0  0  0  0
   39.0240   26.8980  -17.4330 C   0  0  0  0  0  0  0  0  0  0  0  0
   38.8810   26.4680  -18.5750 O   0  0  0  0  0  0  0  0  0  0  0  0
   40.2200   26.5330  -16.6370 C   0  0  0  0  0  0  0  0  0  0  0  0
   41.1510   25.7090  -17.2410 O   0  0  0  0  0  0  0  0  0  0  0  0
   42.5190   25.8730  -14.9060 C   0  0  0  0  0  0  0  0  0  0  0  0
   43.6100   25.5870  -14.0620 C   0  0  0  0  0  0  0  0  0  0  0  0
   44.6430   24.6400  -14.5200 C   0  0  0  0  0  0  0  0  0  0  0  0
   45.9510   24.9270  -14.5560 C   0  0  0  0  0  0  0  0  0  0  0  0
   46.7464   26.3462  -11.2020 H   0  0  0  0  0  0  0  0  0  0  0  0
   46.1038   27.3413  -12.6942 H   0  0  0  0  0  0  0  0  0  0  0  0
   44.6565   25.1611  -11.0693 H   0  0  0  0  0  0  0  0  0  0  0  0
   42.6557   27.4954  -11.3849 H   0  0  0  0  0  0  0  0  0  0  0  0
   40.7562   27.9933  -12.9057 H   0  0  0  0  0  0  0  0  0  0  0  0
   37.5707   29.4272  -13.8571 H   0  0  0  0  0  0  0  0  0  0  0  0
   35.4924   30.1314  -15.0467 H   0  0  0  0  0  0  0  0  0  0  0  0
   35.0487   29.3305  -17.3695 H   0  0  0  0  0  0  0  0  0  0  0  0
   36.8570   28.2840  -19.4790 H   0  0  0  0  0  0  0  0  0  0  0  0
   41.3280   25.7960  -18.1570 H   0  0  0  0  0  0  0  0  0  0  0  0
   42.4712   25.4013  -15.8986 H   0  0  0  0  0  0  0  0  0  0  0  0
   44.3215   23.6414  -14.8508 H   0  0  0  0  0  0  0  0  0  0  0  0
   46.6700   24.1732  -14.9094 H   0  0  0  0  0  0  0  0  0  0  0  0
   46.3061   25.9165  -14.2321 H   0  0  0  0  0  0  0  0  0  0  0  0
  1  2  2  0
  2  3  1  0
  3  4  2  0
  4  5  1  0
  5  6  2  0
  6  7  1  0
  7  8  1  0
  8  9  1  0
  9 10  2  0
 10 11  1  0
 11 12  2  0
 12 13  1  0
 13 14  1  0
 13 15  2  0
 15 16  1  0
 16 17  2  0
 16 18  1  0
 18 19  1  0
  6 20  1  0
 20 21  2  0
 21 22  1  0
 22 23  2  0
 21  3  1  0
 18  7  2  0
 15  9  1  0
  1 24  1  0
  1 25  1  0
  2 26  1  0
  4 27  1  0
  5 28  1  0
 10 29  1  0
 11 30  1  0
 12 31  1  0
 14 32  1  0
 19 33  1  0
 20 34  1  0
 22 35  1  0
 23 36  1  0
 23 37  1  0
M  END
>  <meeko>  (6) 
{"is_sidechain": [false], "free_energy": -4.509, "intermolecular_energy": -6.424, "internal_energy": 0.914}

$$$$
cand_048_out
     RDKit          3D

 37 39  0  0  0  0  0  0  0  0999 V2000
   45.9950   26.3440  -12.0780 C   0  0  0  0  0  0  0  0  0  0  0  0
   44.8060   25.7450  -11.9300 C   0  0  0  0  0  0  0  0  0  0  0  0
   43.5840   26.1570  -12.6430 C   0  0  0  0  0  0  0  0  0  0  0  0
   42.6710   27.0110  -12.0030 C   0  0  0  0  0  0  0  0  0  0  0  0
   41.5210   27.4570  -12.6590 C   0  0  0  0  0  0  0  0  0  0  0  0
   41.2560   27.0720  -13.9770 C   0  0  0  0  0  0  0  0  0  0  0  0
   40.0180   27.5290  -14.6430 C   0  0  0  0  0  0  0  0  0  0  0  0
   39.8150   26.9260  -15.8790 O   0  0  0  0  0  0  0  0  0  0  0  0
   38.7010   27.2620  -16.6050 C   0  0  0  0  0  0  0  0  0  0  0  0
   38.5450   26.6450  -17.8470 C   0  0  0  0  0  0  0  0  0  0  0  0
   37.4320   26.9410  -18.6370 C   0  0  0  0  0  0  0  0  0  0  0  0
   36.4750   27.8510  -18.1840 C   0  0  0  0  0  0  0  0  0  0  0  0
   36.6330   28.4660  -16.9450 C   0  0  0  0  0  0  0  0  0  0  0  0
   35.6590   29.3460  -16.5630 O   0  0  0  0  0  0  0  0  0  0  0  0
   37.7480   28.1700  -16.1550 C   0  0  0  0  0  0  0  0  0  0  0  0
   37.9520   28.7930  -14.8470 C   0  0  0  0  0  0  0  0  0  0  0  0
   37.1510   29.5980  -14.3770 O   0  0  0  0  0  0  0  0  0  0  0  0
   39.1700   28.4170  -14.0920 C   0  0  0  0  0  0  0  0  0  0  0  0
   39.3480   29.0000  -12.8510 O   0  0  0  0  0  0  0  0  0  0  0  0
   42.1670   26.2200  -14.6190 C   0  0  0  0  0  0  0  0  0  0  0  0
   43.3380   25.7720  -13.9780 C   0  0  0  0  0  0  0  0  0  0  0  0
   44.2420   24.8530  -14.6950 C   0  0  0  0  0  0  0  0  0  0  0  0
   45.5760   24.9790  -14.7050 C   0  0  0  0  0  0  0  0  0  0  0  0
   46.8669   25.9830  -11.5128 H   0  0  0  0  0  0  0  0  0  0  0  0
   46.0995   27.1969  -12.7647 H   0  0  0  0  0  0  0  0  0  0  0  0
   44.7378   24.8951  -11.2350 H   0  0  0  0  0  0  0  0  0  0  0  0
   42.8644   27.3337  -10.9693 H   0  0  0  0  0  0  0  0  0  0  0  0
   40.8164   28.1181  -12.1331 H   0  0  0  0  0  0  0  0  0  0  0  0
   39.2978   25.9264  -18.2033 H   0  0  0  0  0  0  0  0  0  0  0  0
   37.3093   26.4567  -19.6170 H   0  0  0  0  0  0  0  0  0  0  0  0
   35.5971   28.0818  -18.8053 H   0  0  0  0  0  0  0  0  0  0  0  0
   34.7560   29.1180  -16.6610 H   0  0  0  0  0  0  0  0  0  0  0  0
   40.0450   28.7140  -12.2950 H   0  0  0  0  0  0  0  0  0  0  0  0
   41.9614   25.8937  -15.6492 H   0  0  0  0  0  0  0  0  0  0  0  0
   43.7957   24.0168  -15.2532 H   0  0  0  0  0  0  0  0  0  0  0  0
   46.1925   24.2574  -15.2611 H   0  0  0  0  0  0  0  0  0  0  0  0
   46.0546   25.8041  -14.1571 H   0  0  0  0  0  0  0  0  0  0  0  0
  1  2  2  0
  2  3  1  0
  3  4  2  0
  4  5  1  0
  5  6  2  0
  6  7  1  0
  7  8  1  0
  8  9  1  0
  9 10  2  0
 10 11  1  0
 11 12  2  0
 12 13  1  0
 13 14  1  0
 13 15  2  0
 15 16  1  0
 16 17  2  0
 16 18  1  0
 18 19  1  0
  6 20  1  0
 20 21  2  0
 21 22  1  0
 22 23  2  0
 21  3  1  0
 18  7  2  0
 15  9  1  0
  1 24  1  0
  1 25  1  0
  2 26  1  0
  4 27  1  0
  5 28  1  0
 10 29  1  0
 11 30  1  0
 12 31  1  0
 14 32  1  0
 19 33  1  0
 20 34  1  0
 22 35  1  0
 23 36  1  0
 23 37  1  0
M  END
>  <meeko>  (7) 
{"is_sidechain": [false], "free_energy": -4.162, "intermolecular_energy": -6.372, "internal_energy": 1.291}

$$$$
