cand_036_out
     RDKit          3D

 35 37  0  0  0  0  0  0  0  0999 V2000
   45.9730   24.3750  -13.6540 C   0  0  0  0  0  0  0  0  0  0  0  0
   44.6670   25.0950  -13.8470 C   0  0  0  0  0  0  0  0  0  0  0  0
   43.6110   24.4420  -14.4970 C   0  0  0  0  0  0  0  0  0  0  0  0
   42.3850   25.0810  -14.6940 C   0  0  0  0  0  0  0  0  0  0  0  0
   42.1830   26.3930  -14.2530 C   0  0  0  0  0  0  0  0  0  0  0  0
   40.8870   27.0820  -14.4260 C   0  0  0  0  0  0  0  0  0  0  0  0
   40.3450   26.9030  -15.6930 O   0  0  0  0  0  0  0  0  0  0  0  0
   39.1410   27.4900  -15.9900 C   0  0  0  0  0  0  0  0  0  0  0  0
   38.6420   27.2970  -17.2780 C   0  0  0  0  0  0  0  0  0  0  0  0
   37.4200   27.8650  -17.6440 C   0  0  0  0  0  0  0  0  0  0  0  0
   36.6970   28.6250  -16.7220 C   0  0  0  0  0  0  0  0  0  0  0  0
   37.1980   28.8160  -15.4360 C   0  0  0  0  0  0  0  0  0  0  0  0
   36.4390   29.5700  -14.5840 O   0  0  0  0  0  0  0  0  0  0  0  0
   38.4210   28.2470  -15.0710 C   0  0  0  0  0  0  0  0  0  0  0  0
   38.9830   28.4230  -13.7310 C   0  0  0  0  0  0  0  0  0  0  0  0
   38.4030   29.0730  -12.8630 O   0  0  0  0  0  0  0  0  0  0  0  0
   40.2900   27.7870  -13.4470 C   0  0  0  0  0  0  0  0  0  0  0  0
   40.8040   27.9480  -12.1740 O   0  0  0  0  0  0  0  0  0  0  0  0
   43.2390   27.0420  -13.5930 C   0  0  0  0  0  0  0  0  0  0  0  0
   44.4780   26.4120  -13.3860 C   0  0  0  0  0  0  0  0  0  0  0  0
   45.5760   27.1610  -12.6800 C   0  0  0  0  0  0  0  0  0  0  0  0
   46.1749   24.2637  -12.5784 H   0  0  0  0  0  0  0  0  0  0  0  0
   45.9161   23.3808  -14.1212 H   0  0  0  0  0  0  0  0  0  0  0  0
   46.7833   24.9538  -14.1212 H   0  0  0  0  0  0  0  0  0  0  0  0
   43.7498   23.4119  -14.8570 H   0  0  0  0  0  0  0  0  0  0  0  0
   41.5687   24.5464  -15.2018 H   0  0  0  0  0  0  0  0  0  0  0  0
   39.2104   26.6980  -18.0047 H   0  0  0  0  0  0  0  0  0  0  0  0
   37.0263   27.7136  -18.6599 H   0  0  0  0  0  0  0  0  0  0  0  0
   35.7341   29.0718  -17.0104 H   0  0  0  0  0  0  0  0  0  0  0  0
   36.5410   29.4750  -13.6570 H   0  0  0  0  0  0  0  0  0  0  0  0
   40.7790   28.7900  -11.7620 H   0  0  0  0  0  0  0  0  0  0  0  0
   43.0927   28.0696  -13.2288 H   0  0  0  0  0  0  0  0  0  0  0  0
   45.4416   27.0693  -11.5921 H   0  0  0  0  0  0  0  0  0  0  0  0
   46.5506   26.7386  -12.9659 H   0  0  0  0  0  0  0  0  0  0  0  0
   45.5383   28.2225  -12.9659 H   0  0  0  0  0  0  0  0  0  0  0  0
  1  2  1  0
  2  3  2  0
  3  4  1  0
  4  5  2  0
  5  6  1  0
  6  7  1  0
  7  8  1  0
  8  9  2  0
  9 10  1  0
 10 11  2  0
 11 12  1  0
 12 13  1  0
 12 14  2  0
 14 15  1  0
 15 16  2  0
 15 17  1  0
 17 18  1  0
  5 19  1  0
 19 20  2  0
 20 21  1  0
 20  2  1  0
 17  6  2  0
 14  8  1  0
  1 22  1  0
  1 23  1  0
  1 24  1  0
  3 25  1  0
  4 26  1  0
  9 27  1  0
 10 28  1  0
 11 29  1  0
 13 30  1  0
 18 31  1  0
 19 32  1  0
 21 33  1  0
 21 34  1  0
 21 35  1  0
M  END
>  <meeko>  (1) 
{"is_sidechain": [false], "free_energy": -8.429, "intermolecular_energy": -9.414, "internal_energy": 0.04}

$$$$
cand_036_out
     RDKit          3D

 35 37  0  0  0  0  0  0  0  0999 V2000
   45.6100   24.6700  -12.9940 C   0  0  0  0  0  0  0  0  0  0  0  0
   44.3630   25.2020  -13.6450 C   0  0  0  0  0  0  0  0  0  0  0  0
   43.6060   24.3600  -14.4720 C   0  0  0  0  0  0  0  0  0  0  0  0
   42.4430   24.8210  -15.0930 C   0  0  0  0  0  0  0  0  0  0  0  0
   42.0080   26.1370  -14.9110 C   0  0  0  0  0  0  0  0  0  0  0  0
   40.7660   26.6410  -15.5350 C   0  0  0  0  0  0  0  0  0  0  0  0
   40.0310   27.4610  -14.6870 O   0  0  0  0  0  0  0  0  0  0  0  0
   38.8530   27.9980  -15.1410 C   0  0  0  0  0  0  0  0  0  0  0  0
   38.1390   28.8030  -14.2520 C   0  0  0  0  0  0  0  0  0  0  0  0
   36.9330   29.3830  -14.6510 C   0  0  0  0  0  0  0  0  0  0  0  0
   36.4410   29.1590  -15.9390 C   0  0  0  0  0  0  0  0  0  0  0  0
   37.1560   28.3550  -16.8240 C   0  0  0  0  0  0  0  0  0  0  0  0
   36.6170   28.1770  -18.0690 O   0  0  0  0  0  0  0  0  0  0  0  0
   38.3620   27.7740  -16.4240 C   0  0  0  0  0  0  0  0  0  0  0  0
   39.1440   26.9240  -17.3220 C   0  0  0  0  0  0  0  0  0  0  0  0
   38.7800   26.6850  -18.4720 O   0  0  0  0  0  0  0  0  0  0  0  0
   40.4050   26.3500  -16.7980 C   0  0  0  0  0  0  0  0  0  0  0  0
   41.1410   25.5590  -17.6600 O   0  0  0  0  0  0  0  0  0  0  0  0
   42.7620   26.9760  -14.0740 C   0  0  0  0  0  0  0  0  0  0  0  0
   43.9340   26.5280  -13.4410 C   0  0  0  0  0  0  0  0  0  0  0  0
   44.7050   27.4750  -12.5630 C   0  0  0  0  0  0  0  0  0  0  0  0
   45.5011   24.7165  -11.9004 H   0  0  0  0  0  0  0  0  0  0  0  0
   45.7680   23.6261  -13.3027 H   0  0  0  0  0  0  0  0  0  0  0  0
   46.4729   25.2783  -13.3027 H   0  0  0  0  0  0  0  0  0  0  0  0
   43.9325   23.3221  -14.6339 H   0  0  0  0  0  0  0  0  0  0  0  0
   41.8624   24.1404  -15.7330 H   0  0  0  0  0  0  0  0  0  0  0  0
   38.5260   28.9804  -13.2377 H   0  0  0  0  0  0  0  0  0  0  0  0
   36.3699   30.0169  -13.9503 H   0  0  0  0  0  0  0  0  0  0  0  0
   35.4914   29.6163  -16.2537 H   0  0  0  0  0  0  0  0  0  0  0  0
   37.1470   28.3020  -18.8310 H   0  0  0  0  0  0  0  0  0  0  0  0
   41.5160   24.7560  -17.3550 H   0  0  0  0  0  0  0  0  0  0  0  0
   42.4264   28.0106  -13.9097 H   0  0  0  0  0  0  0  0  0  0  0  0
   44.5107   27.2364  -11.5069 H   0  0  0  0  0  0  0  0  0  0  0  0
   45.7806   27.3736  -12.7700 H   0  0  0  0  0  0  0  0  0  0  0  0
   44.3876   28.5077  -12.7700 H   0  0  0  0  0  0  0  0  0  0  0  0
  1  2  1  0
  2  3  2  0
  3  4  1  0
  4  5  2  0
  5  6  1  0
  6  7  1  0
  7  8  1  0
  8  9  2  0
  9 10  1  0
 10 11  2  0
 11 12  1  0
 12 13  1  0
 12 14  2  0
 14 15  1  0
 15 16  2  0
 15 17  1  0
 17 18  1  0
  5 19  1  0
 19 20  2  0
 20 21  1  0
 20  2  1  0
 17  6  2  0
 14  8  1  0
  1 22  1  0
  1 23  1  0
  1 24  1  0
  3 25  1  0
  4 26  1  0
  9 27  1  0
 10 28  1  0
 11 29  1  0
 13 30  1  0
 18 31  1  0
 19 32  1  0
 21 33  1  0
 21 34  1  0
 21 35  1  0
M  END
>  <meeko>  (2) 
{"is_sidechain": [false], "free_energy": -8.143, "intermolecular_energy": -9.076, "internal_energy": 0.022}

$$$$
cand_036_out
     RDKit          3D

 35 37  0  0  0  0  0  0  0  0999 V2000
   35.5710   29.2020  -17.8780 C   0  0  0  0  0  0  0  0  0  0  0  0
   36.7200   28.7470  -17.0210 C   0  0  0  0  0  0  0  0  0  0  0  0
   37.0080   29.4340  -15.8340 C   0  0  0  0  0  0  0  0  0  0  0  0
   38.0680   29.0390  -15.0150 C   0  0  0  0  0  0  0  0  0  0  0  0
   38.8730   27.9500  -15.3630 C   0  0  0  0  0  0  0  0  0  0  0  0
   39.9830   27.4950  -14.5000 C   0  0  0  0  0  0  0  0  0  0  0  0
   40.9770   26.8280  -15.2060 O   0  0  0  0  0  0  0  0  0  0  0  0
   42.0690   26.3520  -14.5270 C   0  0  0  0  0  0  0  0  0  0  0  0
   43.0360   25.6760  -15.2730 C   0  0  0  0  0  0  0  0  0  0  0  0
   44.1730   25.1670  -14.6420 C   0  0  0  0  0  0  0  0  0  0  0  0
   44.3440   25.3340  -13.2660 C   0  0  0  0  0  0  0  0  0  0  0  0
   43.3780   26.0090  -12.5240 C   0  0  0  0  0  0  0  0  0  0  0  0
   43.6090   26.1370  -11.1820 O   0  0  0  0  0  0  0  0  0  0  0  0
   42.2400   26.5180  -13.1560 C   0  0  0  0  0  0  0  0  0  0  0  0
   41.2010   27.2330  -12.4130 C   0  0  0  0  0  0  0  0  0  0  0  0
   41.2830   27.4250  -11.2010 O   0  0  0  0  0  0  0  0  0  0  0  0
   40.0300   27.7250  -13.1750 C   0  0  0  0  0  0  0  0  0  0  0  0
   39.0620   28.4100  -12.4650 O   0  0  0  0  0  0  0  0  0  0  0  0
   38.5770   27.2560  -16.5470 C   0  0  0  0  0  0  0  0  0  0  0  0
   37.5130   27.6400  -17.3820 C   0  0  0  0  0  0  0  0  0  0  0  0
   37.2490   26.8640  -18.6430 C   0  0  0  0  0  0  0  0  0  0  0  0
   34.7414   29.5305  -17.2347 H   0  0  0  0  0  0  0  0  0  0  0  0
   35.8963   30.0392  -18.5131 H   0  0  0  0  0  0  0  0  0  0  0  0
   35.2349   28.3691  -18.5131 H   0  0  0  0  0  0  0  0  0  0  0  0
   36.3904   30.2966  -15.5432 H   0  0  0  0  0  0  0  0  0  0  0  0
   38.2719   29.5909  -14.0856 H   0  0  0  0  0  0  0  0  0  0  0  0
   42.9025   25.5444  -16.3569 H   0  0  0  0  0  0  0  0  0  0  0  0
   44.9350   24.6338  -15.2295 H   0  0  0  0  0  0  0  0  0  0  0  0
   45.2399   24.9332  -12.7693 H   0  0  0  0  0  0  0  0  0  0  0  0
   42.8890   26.1510  -10.5820 H   0  0  0  0  0  0  0  0  0  0  0  0
   39.3120   29.0130  -11.7930 H   0  0  0  0  0  0  0  0  0  0  0  0
   39.1934   26.3895  -16.8286 H   0  0  0  0  0  0  0  0  0  0  0  0
   36.9046   25.8516  -18.3852 H   0  0  0  0  0  0  0  0  0  0  0  0
   36.4744   27.3757  -19.2330 H   0  0  0  0  0  0  0  0  0  0  0  0
   38.1750   26.7971  -19.2330 H   0  0  0  0  0  0  0  0  0  0  0  0
  1  2  1  0
  2  3  2  0
  3  4  1  0
  4  5  2  0
  5  6  1  0
  6  7  1  0
  7  8  1  0
  8  9  2  0
  9 10  1  0
 10 11  2  0
 11 12  1  0
 12 13  1  0
 12 14  2  0
 14 15  1  0
 15 16  2  0
 15 17  1  0
 17 18  1  0
  5 19  1  0
 19 20  2  0
 20 21  1  0
 20  2  1  0
 17  6  2  0
 14  8  1  0
  1 22  1  0
  1 23  1  0
  1 24  1  0
  3 25  1  0
  4 26  1  0
  9 27  1  0
 10 28  1  0
 11 29  1  0
 13 30  1  0
 18 31  1  0
 19 32  1  0
 21 33  1  0
 21 34  1  0
 21 35  1  0
M  END
>  <meeko>  (3) 
{"is_sidechain": [false], "free_energy": -7.857, "intermolecular_energy": -8.943, "internal_energy": 0.207}

$$$$
cand_036_out
     RDKit          3D

 35 37  0  0  0  0  0  0  0  0999 V2000
   45.8420   24.7400  -12.7910 C   0  0  0  0  0  0  0  0  0  0  0  0
   44.6000   25.2220  -13.4890 C   0  0  0  0  0  0  0  0  0  0  0  0
   43.9250   24.3600  -14.3640 C   0  0  0  0  0  0  0  0  0  0  0  0
   42.7690   24.7750  -15.0300 C   0  0  0  0  0  0  0  0  0  0  0  0
   42.2610   26.0640  -14.8450 C   0  0  0  0  0  0  0  0  0  0  0  0
   41.0250   26.5180  -15.5170 C   0  0  0  0  0  0  0  0  0  0  0  0
   40.2780   27.3940  -14.7380 O   0  0  0  0  0  0  0  0  0  0  0  0
   39.1040   27.8940  -15.2410 C   0  0  0  0  0  0  0  0  0  0  0  0
   38.3790   28.7580  -14.4190 C   0  0  0  0  0  0  0  0  0  0  0  0
   37.1750   29.3040  -14.8710 C   0  0  0  0  0  0  0  0  0  0  0  0
   36.6980   28.9860  -16.1440 C   0  0  0  0  0  0  0  0  0  0  0  0
   37.4240   28.1240  -16.9630 C   0  0  0  0  0  0  0  0  0  0  0  0
   36.8990   27.8550  -18.1970 O   0  0  0  0  0  0  0  0  0  0  0  0
   38.6270   27.5770  -16.5090 C   0  0  0  0  0  0  0  0  0  0  0  0
   39.4210   26.6670  -17.3360 C   0  0  0  0  0  0  0  0  0  0  0  0
   39.0690   26.3450  -18.4700 O   0  0  0  0  0  0  0  0  0  0  0  0
   40.6770   26.1360  -16.7590 C   0  0  0  0  0  0  0  0  0  0  0  0
   41.4250   25.2880  -17.5550 O   0  0  0  0  0  0  0  0  0  0  0  0
   42.9330   26.9230  -13.9610 C   0  0  0  0  0  0  0  0  0  0  0  0
   44.0960   26.5210  -13.2820 C   0  0  0  0  0  0  0  0  0  0  0  0
   44.7790   27.4870  -12.3530 C   0  0  0  0  0  0  0  0  0  0  0  0
   45.6961   24.7966  -11.7022 H   0  0  0  0  0  0  0  0  0  0  0  0
   46.0442   23.6981  -13.0802 H   0  0  0  0  0  0  0  0  0  0  0  0
   46.6941   25.3727  -13.0802 H   0  0  0  0  0  0  0  0  0  0  0  0
   44.3105   23.3430  -14.5286 H   0  0  0  0  0  0  0  0  0  0  0  0
   42.2527   24.0793  -15.7078 H   0  0  0  0  0  0  0  0  0  0  0  0
   38.7551   29.0089  -13.4162 H   0  0  0  0  0  0  0  0  0  0  0  0
   36.6027   29.9847  -14.2236 H   0  0  0  0  0  0  0  0  0  0  0  0
   35.7500   29.4156  -16.4999 H   0  0  0  0  0  0  0  0  0  0  0  0
   36.7480   26.9690  -18.4590 H   0  0  0  0  0  0  0  0  0  0  0  0
   41.0430   24.4990  -17.8860 H   0  0  0  0  0  0  0  0  0  0  0  0
   42.5392   27.9367  -13.7956 H   0  0  0  0  0  0  0  0  0  0  0  0
   44.5757   27.1995  -11.3109 H   0  0  0  0  0  0  0  0  0  0  0  0
   45.8637   27.4655  -12.5344 H   0  0  0  0  0  0  0  0  0  0  0  0
   44.3970   28.5025  -12.5344 H   0  0  0  0  0  0  0  0  0  0  0  0
  1  2  1  0
  2  3  2  0
  3  4  1  0
  4  5  2  0
  5  6  1  0
  6  7  1  0
  7  8  1  0
  8  9  2  0
  9 10  1  0
 10 11  2  0
 11 12  1  0
 12 13  1  0
 12 14  2  0
 14 15  1  0
 15 16  2  0
 15 17  1  0
 17 18  1  0
  5 19  1  0
 19 20  2  0
 20 21  1  0
 20  2  1  0
 17  6  2  0
 14  8  1  0
  1 22  1  0
  1 23  1  0
  1 24  1  0
  3 25  1  0
  4 26  1  0
  9 27  1  0
 10 28  1  0
 11 29  1  0
 13 30  1  0
 18 31  1  0
 19 32  1  0
 21 33  1  0
 21 34  1  0
 21 35  1  0
M  END
>  <meeko>  (4) 
{"is_sidechain": [false], "free_energy": -7.317, "intermolecular_energy": -8.222, "internal_energy": 0.089}

$$$$
cand_036_out
     RDKit          3D

 35 37  0  0  0  0  0  0  0  0999 V2000
   44.8210   25.6250  -11.9210 C   0  0  0  0  0  0  0  0  0  0  0  0
   43.5760   26.0940  -12.6220 C   0  0  0  0  0  0  0  0  0  0  0  0
   42.6180   26.8240  -11.9060 C   0  0  0  0  0  0  0  0  0  0  0  0
   41.4490   27.2750  -12.5250 C   0  0  0  0  0  0  0  0  0  0  0  0
   41.2040   27.0020  -13.8740 C   0  0  0  0  0  0  0  0  0  0  0  0
   39.9880   27.4900  -14.5590 C   0  0  0  0  0  0  0  0  0  0  0  0
   39.7940   26.8980  -15.8020 O   0  0  0  0  0  0  0  0  0  0  0  0
   38.7010   27.2610  -16.5470 C   0  0  0  0  0  0  0  0  0  0  0  0
   38.5540   26.6540  -17.7950 C   0  0  0  0  0  0  0  0  0  0  0  0
   37.4620   26.9770  -18.6020 C   0  0  0  0  0  0  0  0  0  0  0  0
   36.5170   27.9070  -18.1630 C   0  0  0  0  0  0  0  0  0  0  0  0
   36.6660   28.5110  -16.9170 C   0  0  0  0  0  0  0  0  0  0  0  0
   35.7050   29.4130  -16.5490 O   0  0  0  0  0  0  0  0  0  0  0  0
   37.7600   28.1880  -16.1100 C   0  0  0  0  0  0  0  0  0  0  0  0
   37.9550   28.8010  -14.7940 C   0  0  0  0  0  0  0  0  0  0  0  0
   37.1640   29.6230  -14.3360 O   0  0  0  0  0  0  0  0  0  0  0  0
   39.1510   28.3960  -14.0200 C   0  0  0  0  0  0  0  0  0  0  0  0
   39.3170   28.9710  -12.7750 O   0  0  0  0  0  0  0  0  0  0  0  0
   42.1690   26.2790  -14.5920 C   0  0  0  0  0  0  0  0  0  0  0  0
   43.3510   25.8200  -13.9850 C   0  0  0  0  0  0  0  0  0  0  0  0
   44.3460   25.0420  -14.8030 C   0  0  0  0  0  0  0  0  0  0  0  0
   44.6722   25.6811  -10.8326 H   0  0  0  0  0  0  0  0  0  0  0  0
   45.0342   24.5849  -12.2088 H   0  0  0  0  0  0  0  0  0  0  0  0
   45.6674   26.2659  -12.2088 H   0  0  0  0  0  0  0  0  0  0  0  0
   42.7884   27.0452  -10.8420 H   0  0  0  0  0  0  0  0  0  0  0  0
   40.7135   27.8511  -11.9443 H   0  0  0  0  0  0  0  0  0  0  0  0
   39.2979   25.9219  -18.1423 H   0  0  0  0  0  0  0  0  0  0  0  0
   37.3454   26.4983  -19.5855 H   0  0  0  0  0  0  0  0  0  0  0  0
   35.6571   28.1618  -18.7999 H   0  0  0  0  0  0  0  0  0  0  0  0
   34.9490   29.1250  -16.0780 H   0  0  0  0  0  0  0  0  0  0  0  0
   39.2360   29.8990  -12.6720 H   0  0  0  0  0  0  0  0  0  0  0  0
   41.9960   26.0660  -15.6572 H   0  0  0  0  0  0  0  0  0  0  0  0
   45.0326   24.5052  -14.1318 H   0  0  0  0  0  0  0  0  0  0  0  0
   43.8132   24.3185  -15.4376 H   0  0  0  0  0  0  0  0  0  0  0  0
   44.9196   25.7336  -15.4376 H   0  0  0  0  0  0  0  0  0  0  0  0
  1  2  1  0
  2  3  2  0
  3  4  1  0
  4  5  2  0
  5  6  1  0
  6  7  1  0
  7  8  1  0
  8  9  2  0
  9 10  1  0
 10 11  2  0
 11 12  1  0
 12 13  1  0
 12 14  2  0
 14 15  1  0
 15 16  2  0
 15 17  1  0
 17 18  1  0
  5 19  1  0
 19 20  2  0
 20 21  1  0
 20  2  1  0
 17  6  2  0
 14  8  1  0
  1 22  1  0
  1 23  1  0
  1 24  1  0
  3 25  1  0
  4 26  1  0
  9 27  1  0
 10 28  1  0
 11 29  1  0
 13 30  1  0
 18 31  1  0
 19 32  1  0
 21 33  1  0
 21 34  1  0
 21 35  1  0
M  END
>  <meeko>  (5) 
{"is_sidechain": [false], "free_energy": -6.881, "intermolecular_energy": -7.948, "internal_energy": 0.302}

$$$$
cand_036_out
     RDKit          3D

 35 37  0  0  0  0  0  0  0  0999 V2000
   44.8590   25.8700  -11.7370 C   0  0  0  0  0  0  0  0  0  0  0  0
   43.7050   26.1480  -12.6600 C   0  0  0  0  0  0  0  0  0  0  0  0
   42.6300   26.9220  -12.2030 C   0  0  0  0  0  0  0  0  0  0  0  0
   41.5410   27.2000  -13.0330 C   0  0  0  0  0  0  0  0  0  0  0  0
   41.4950   26.7060  -14.3400 C   0  0  0  0  0  0  0  0  0  0  0  0
   40.3670   27.0070  -15.2470 C   0  0  0  0  0  0  0  0  0  0  0  0
   39.4210   27.8470  -14.6710 O   0  0  0  0  0  0  0  0  0  0  0  0
   38.3200   28.2090  -15.4040 C   0  0  0  0  0  0  0  0  0  0  0  0
   37.3880   29.0410  -14.7820 C   0  0  0  0  0  0  0  0  0  0  0  0
   36.2460   29.4480  -15.4740 C   0  0  0  0  0  0  0  0  0  0  0  0
   36.0350   29.0240  -16.7870 C   0  0  0  0  0  0  0  0  0  0  0  0
   36.9660   28.1940  -17.4070 C   0  0  0  0  0  0  0  0  0  0  0  0
   36.6970   27.8170  -18.6940 O   0  0  0  0  0  0  0  0  0  0  0  0
   38.1090   27.7860  -16.7130 C   0  0  0  0  0  0  0  0  0  0  0  0
   39.1120   26.9140  -17.3270 C   0  0  0  0  0  0  0  0  0  0  0  0
   39.0000   26.5050  -18.4810 O   0  0  0  0  0  0  0  0  0  0  0  0
   40.2830   26.5330  -16.5040 C   0  0  0  0  0  0  0  0  0  0  0  0
   41.2300   25.7210  -17.0980 O   0  0  0  0  0  0  0  0  0  0  0  0
   42.5770   25.9390  -14.8000 C   0  0  0  0  0  0  0  0  0  0  0  0
   43.6810   25.6520  -13.9780 C   0  0  0  0  0  0  0  0  0  0  0  0
   44.8080   24.8180  -14.5230 C   0  0  0  0  0  0  0  0  0  0  0  0
   44.5215   25.9513  -10.6932 H   0  0  0  0  0  0  0  0  0  0  0  0
   45.2395   24.8545  -11.9213 H   0  0  0  0  0  0  0  0  0  0  0  0
   45.6602   26.6008  -11.9213 H   0  0  0  0  0  0  0  0  0  0  0  0
   42.6437   27.3163  -11.1762 H   0  0  0  0  0  0  0  0  0  0  0  0
   40.7109   27.8142  -12.6540 H   0  0  0  0  0  0  0  0  0  0  0  0
   37.5532   29.3758  -13.7473 H   0  0  0  0  0  0  0  0  0  0  0  0
   35.5114   30.1038  -14.9839 H   0  0  0  0  0  0  0  0  0  0  0  0
   35.1346   29.3449  -17.3314 H   0  0  0  0  0  0  0  0  0  0  0  0
   37.0580   28.3020  -19.4090 H   0  0  0  0  0  0  0  0  0  0  0  0
   42.1330   25.8000  -16.8580 H   0  0  0  0  0  0  0  0  0  0  0  0
   42.5607   25.5527  -15.8298 H   0  0  0  0  0  0  0  0  0  0  0  0
   45.3848   24.3912  -13.6892 H   0  0  0  0  0  0  0  0  0  0  0  0
   44.3974   24.0045  -15.1392 H   0  0  0  0  0  0  0  0  0  0  0  0
   45.4660   25.4484  -15.1392 H   0  0  0  0  0  0  0  0  0  0  0  0
  1  2  1  0
  2  3  2  0
  3  4  1  0
  4  5  2  0
  5  6  1  0
  6  7  1  0
  7  8  1  0
  8  9  2  0
  9 10  1  0
 10 11  2  0
 11 12  1  0
 12 13  1  0
 12 14  2  0
 14 15  1  0
 15 16  2  0
 15 17  1  0
 17 18  1  0
  5 19  1  0
 19 20  2  0
 20 21  1  0
 20  2  1  0
 17  6  2  0
 14  8  1  0
  1 22  1  0
  1 23  1  0
  1 24  1  0
  3 25  1  0
  4 26  1  0
  9 27  1  0
 10 28  1  0
 11 29  1  0
 13 30  1  0
 18 31  1  0
 19 32  1  0
 21 33  1  0
 21 34  1  0
 21 35  1  0
M  END
>  <meeko>  (6) 
{"is_sidechain": [false], "free_energy": -6.821, "intermolecular_energy": -7.976, "internal_energy": 0.398}

$$$$
cand_036_out
     RDKit          3D

 35 37  0  0  0  0  0  0  0  0999 V2000
   34.4920   29.4570  -18.9150 C   0  0  0  0  0  0  0  0  0  0  0  0
   35.6980   28.9230  -18.1920 C   0  0  0  0  0  0  0  0  0  0  0  0
   36.1810   29.6010  -17.0650 C   0  0  0  0  0  0  0  0  0  0  0  0
   37.2990   29.1340  -16.3700 C   0  0  0  0  0  0  0  0  0  0  0  0
   37.9690   27.9800  -16.7880 C   0  0  0  0  0  0  0  0  0  0  0  0
   39.1380   27.4490  -16.0540 C   0  0  0  0  0  0  0  0  0  0  0  0
   39.1150   27.7660  -14.7010 O   0  0  0  0  0  0  0  0  0  0  0  0
   40.1420   27.3350  -13.9010 C   0  0  0  0  0  0  0  0  0  0  0  0
   40.0870   27.6900  -12.5520 C   0  0  0  0  0  0  0  0  0  0  0  0
   41.1000   27.2810  -11.6820 C   0  0  0  0  0  0  0  0  0  0  0  0
   42.1680   26.5180  -12.1600 C   0  0  0  0  0  0  0  0  0  0  0  0
   42.2210   26.1660  -13.5070 C   0  0  0  0  0  0  0  0  0  0  0  0
   43.2940   25.4180  -13.9080 O   0  0  0  0  0  0  0  0  0  0  0  0
   41.2070   26.5760  -14.3770 C   0  0  0  0  0  0  0  0  0  0  0  0
   41.2240   26.2280  -15.7990 C   0  0  0  0  0  0  0  0  0  0  0  0
   42.1260   25.5550  -16.2930 O   0  0  0  0  0  0  0  0  0  0  0  0
   40.1060   26.7190  -16.6380 C   0  0  0  0  0  0  0  0  0  0  0  0
   40.1260   26.3730  -17.9760 O   0  0  0  0  0  0  0  0  0  0  0  0
   37.4790   27.2960  -17.9110 C   0  0  0  0  0  0  0  0  0  0  0  0
   36.3540   27.7520  -18.6200 C   0  0  0  0  0  0  0  0  0  0  0  0
   35.8790   26.9830  -19.8220 C   0  0  0  0  0  0  0  0  0  0  0  0
   33.7422   29.7890  -18.1818 H   0  0  0  0  0  0  0  0  0  0  0  0
   34.7896   30.3075  -19.5460 H   0  0  0  0  0  0  0  0  0  0  0  0
   34.0623   28.6650  -19.5460 H   0  0  0  0  0  0  0  0  0  0  0  0
   35.6724   30.5143  -16.7226 H   0  0  0  0  0  0  0  0  0  0  0  0
   37.6562   29.6799  -15.4843 H   0  0  0  0  0  0  0  0  0  0  0  0
   39.2467   28.2912  -12.1747 H   0  0  0  0  0  0  0  0  0  0  0  0
   41.0568   27.5601  -10.6189 H   0  0  0  0  0  0  0  0  0  0  0  0
   42.9655   26.1957  -11.4743 H   0  0  0  0  0  0  0  0  0  0  0  0
   44.0790   25.8420  -14.1940 H   0  0  0  0  0  0  0  0  0  0  0  0
   40.5880   26.9080  -18.5910 H   0  0  0  0  0  0  0  0  0  0  0  0
   37.9880   26.3798  -18.2450 H   0  0  0  0  0  0  0  0  0  0  0  0
   35.3276   26.0903  -19.4918 H   0  0  0  0  0  0  0  0  0  0  0  0
   35.2169   27.6201  -20.4267 H   0  0  0  0  0  0  0  0  0  0  0  0
   36.7451   26.6761  -20.4267 H   0  0  0  0  0  0  0  0  0  0  0  0
  1  2  1  0
  2  3  2  0
  3  4  1  0
  4  5  2  0
  5  6  1  0
  6  7  1  0
  7  8  1  0
  8  9  2  0
  9 10  1  0
 10 11  2  0
 11 12  1  0
 12 13  1  0
 12 14  2  0
 14 15  1  0
 15 16  2  0
 15 17  1  0
 17 18  1  0
  5 19  1  0
 19 20  2  0
 20 21  1  0
 20  2  1  0
 17  6  2  0
 14  8  1  0
  1 22  1  0
  1 23  1  0
  1 24  1  0
  3 25  1  0
  4 26  1  0
  9 27  1  0
 10 28  1  0
 11 29  1  0
 13 30  1  0
 18 31  1  0
 19 32  1  0
 21 33  1  0
 21 34  1  0
 21 35  1  0
M  END
>  <meeko>  (7) 
{"is_sidechain": [false], "free_energy": -5.964, "intermolecular_energy": -6.842, "internal_energy": 0.221}

$$$$
cand_036_out
     RDKit          3D

 35 37  0  0  0  0  0  0  0  0999 V2000
   34.9830   28.0730  -19.6470 C   0  0  0  0  0  0  0  0  0  0  0  0
   36.1340   27.7980  -18.7180 C   0  0  0  0  0  0  0  0  0  0  0  0
   36.9160   26.6510  -18.9140 C   0  0  0  0  0  0  0  0  0  0  0  0
   37.9910   26.3630  -18.0700 C   0  0  0  0  0  0  0  0  0  0  0  0
   38.3100   27.2100  -17.0040 C   0  0  0  0  0  0  0  0  0  0  0  0
   39.4590   26.9420  -16.1140 C   0  0  0  0  0  0  0  0  0  0  0  0
   39.2060   27.2830  -14.7900 O   0  0  0  0  0  0  0  0  0  0  0  0
   40.1900   27.0860  -13.8540 C   0  0  0  0  0  0  0  0  0  0  0  0
   39.8990   27.4550  -12.5400 C   0  0  0  0  0  0  0  0  0  0  0  0
   40.8560   27.2790  -11.5390 C   0  0  0  0  0  0  0  0  0  0  0  0
   42.1030   26.7330  -11.8500 C   0  0  0  0  0  0  0  0  0  0  0  0
   42.3910   26.3650  -13.1620 C   0  0  0  0  0  0  0  0  0  0  0  0
   43.6310   25.8370  -13.3980 O   0  0  0  0  0  0  0  0  0  0  0  0
   41.4330   26.5430  -14.1650 C   0  0  0  0  0  0  0  0  0  0  0  0
   41.6950   26.1700  -15.5560 C   0  0  0  0  0  0  0  0  0  0  0  0
   42.7660   25.6780  -15.9070 O   0  0  0  0  0  0  0  0  0  0  0  0
   40.6160   26.4060  -16.5430 C   0  0  0  0  0  0  0  0  0  0  0  0
   40.8700   26.0380  -17.8510 O   0  0  0  0  0  0  0  0  0  0  0  0
   37.5320   28.3630  -16.8160 C   0  0  0  0  0  0  0  0  0  0  0  0
   36.4470   28.6680  -17.6570 C   0  0  0  0  0  0  0  0  0  0  0  0
   35.6440   29.9140  -17.4010 C   0  0  0  0  0  0  0  0  0  0  0  0
   34.0796   28.2888  -19.0577 H   0  0  0  0  0  0  0  0  0  0  0  0
   35.2226   28.9392  -20.2813 H   0  0  0  0  0  0  0  0  0  0  0  0
   34.8052   27.1921  -20.2813 H   0  0  0  0  0  0  0  0  0  0  0  0
   36.6797   25.9686  -19.7438 H   0  0  0  0  0  0  0  0  0  0  0  0
   38.5935   25.4597  -18.2458 H   0  0  0  0  0  0  0  0  0  0  0  0
   38.9166   27.8841  -12.2933 H   0  0  0  0  0  0  0  0  0  0  0  0
   40.6273   27.5710  -10.5034 H   0  0  0  0  0  0  0  0  0  0  0  0
   42.8562   26.5938  -11.0605 H   0  0  0  0  0  0  0  0  0  0  0  0
   44.2430   26.3010  -13.9340 H   0  0  0  0  0  0  0  0  0  0  0  0
   41.3090   25.2300  -18.0330 H   0  0  0  0  0  0  0  0  0  0  0  0
   37.7774   29.0458  -15.9893 H   0  0  0  0  0  0  0  0  0  0  0  0
   35.5439   30.0694  -16.3166 H   0  0  0  0  0  0  0  0  0  0  0  0
   36.1554   30.7784  -17.8496 H   0  0  0  0  0  0  0  0  0  0  0  0
   34.6455   29.8054  -17.8496 H   0  0  0  0  0  0  0  0  0  0  0  0
  1  2  1  0
  2  3  2  0
  3  4  1  0
  4  5  2  0
  5  6  1  0
  6  7  1  0
  7  8  1  0
  8  9  2  0
  9 10  1  0
 10 11  2  0
 11 12  1  0
 12 13  1  0
 12 14  2  0
 14 15  1  0
 15 16  2  0
 15 17  1  0
 17 18  1  0
  5 19  1  0
 19 20  2  0
 20 21  1  0
 20  2  1  0
 17  6  2  0
 14  8  1  0
  1 22  1  0
  1 23  1  0
  1 24  1  0
  3 25  1  0
  4 26  1  0
  9 27  1  0
 10 28  1  0
 11 29  1  0
 13 30  1  0
 18 31  1  0
 19 32  1  0
 21 33  1  0
 21 34  1  0
 21 35  1  0
M  END
>  <meeko>  (8) 
{"is_sidechain": [false], "free_energy": -5.73, "intermolecular_energy": -6.451, "internal_energy": 0.092}

$$$$
cand_036_out
     RDKit          3D

 35 37  0  0  0  0  0  0  0  0999 V2000
   46.7170   24.9650  -13.2190 C   0  0  0  0  0  0  0  0  0  0  0  0
   45.3290   25.4590  -13.5220 C   0  0  0  0  0  0  0  0  0  0  0  0
   45.0640   26.8340  -13.4810 C   0  0  0  0  0  0  0  0  0  0  0  0
   43.7860   27.3280  -13.7560 C   0  0  0  0  0  0  0  0  0  0  0  0
   42.7370   26.4590  -14.0730 C   0  0  0  0  0  0  0  0  0  0  0  0
   41.3830   26.9570  -14.3940 C   0  0  0  0  0  0  0  0  0  0  0  0
   40.9600   26.5880  -15.6660 O   0  0  0  0  0  0  0  0  0  0  0  0
   39.7190   26.9850  -16.0940 C   0  0  0  0  0  0  0  0  0  0  0  0
   39.3420   26.6060  -17.3830 C   0  0  0  0  0  0  0  0  0  0  0  0
   38.0900   26.9760  -17.8800 C   0  0  0  0  0  0  0  0  0  0  0  0
   37.2160   27.7240  -17.0880 C   0  0  0  0  0  0  0  0  0  0  0  0
   37.5960   28.1010  -15.8020 C   0  0  0  0  0  0  0  0  0  0  0  0
   36.6920   28.8330  -15.0810 O   0  0  0  0  0  0  0  0  0  0  0  0
   38.8490   27.7320  -15.3060 C   0  0  0  0  0  0  0  0  0  0  0  0
   39.2860   28.1080  -13.9610 C   0  0  0  0  0  0  0  0  0  0  0  0
   38.5720   28.7600  -13.2030 O   0  0  0  0  0  0  0  0  0  0  0  0
   40.6360   27.6730  -13.5330 C   0  0  0  0  0  0  0  0  0  0  0  0
   41.0340   28.0220  -12.2560 O   0  0  0  0  0  0  0  0  0  0  0  0
   43.0070   25.0820  -14.1220 C   0  0  0  0  0  0  0  0  0  0  0  0
   44.2870   24.5700  -13.8500 C   0  0  0  0  0  0  0  0  0  0  0  0
   44.5140   23.0840  -13.9100 C   0  0  0  0  0  0  0  0  0  0  0  0
   46.8585   24.9146  -12.1293 H   0  0  0  0  0  0  0  0  0  0  0  0
   46.8526   23.9634  -13.6531 H   0  0  0  0  0  0  0  0  0  0  0  0
   47.4549   25.6557  -13.6531 H   0  0  0  0  0  0  0  0  0  0  0  0
   45.8734   27.5348  -13.2287 H   0  0  0  0  0  0  0  0  0  0  0  0
   43.6031   28.4122  -13.7228 H   0  0  0  0  0  0  0  0  0  0  0  0
   40.0299   26.0166  -18.0070 H   0  0  0  0  0  0  0  0  0  0  0  0
   37.7922   26.6779  -18.8961 H   0  0  0  0  0  0  0  0  0  0  0  0
   36.2298   28.0148  -17.4789 H   0  0  0  0  0  0  0  0  0  0  0  0
   36.9050   29.1180  -14.2140 H   0  0  0  0  0  0  0  0  0  0  0  0
   40.6660   28.7780  -11.8420 H   0  0  0  0  0  0  0  0  0  0  0  0
   42.1953   24.3859  -14.3800 H   0  0  0  0  0  0  0  0  0  0  0  0
   44.5756   22.6809  -12.8884 H   0  0  0  0  0  0  0  0  0  0  0  0
   43.6784   22.6066  -14.4428 H   0  0  0  0  0  0  0  0  0  0  0  0
   45.4540   22.8779  -14.4428 H   0  0  0  0  0  0  0  0  0  0  0  0
  1  2  1  0
  2  3  2  0
  3  4  1  0
  4  5  2  0
  5  6  1  0
  6  7  1  0
  7  8  1  0
  8  9  2  0
  9 10  1  0
 10 11  2  0
 11 12  1  0
 12 13  1  0
 12 14  2  0
 14 15  1  0
 15 16  2  0
 15 17  1  0
 17 18  1  0
  5 19  1  0
 19 20  2  0
 20 21  1  0
 20  2  1  0
 17  6  2  0
 14  8  1  0
  1 22  1  0
  1 23  1  0
  1 24  1  0
  3 25  1  0
  4 26  1  0
  9 27  1  0
 10 28  1  0
 11 29  1  0
 13 30  1  0
 18 31  1  0
 19 32  1  0
 21 33  1  0
 21 34  1  0
 21 35  1  0
M  END
>  <meeko>  (9) 
{"is_sidechain": [false], "free_energy": -5.534, "intermolecular_energy": -5.96, "internal_energy": -0.181}

$$$$
