cand_002_out
     RDKit          3D

 45 48  0  0  0  0  0  0  0  0999 V2000
   43.4890   26.8390  -11.7580 C   0  0  0  0  0  0  0  0  0  0  0  0
   43.2110   26.3300  -13.1450 C   0  0  0  0  0  0  0  0  0  0  0  0
   42.0410   26.7640  -13.7980 C   0  0  0  0  0  0  0  0  0  0  0  0
   41.7050   26.3220  -15.0870 C   0  0  0  0  0  0  0  0  0  0  0  0
   40.4540   26.7890  -15.7230 C   0  0  0  0  0  0  0  0  0  0  0  0
   39.7020   27.6120  -14.8940 O   0  0  0  0  0  0  0  0  0  0  0  0
   38.5150   28.1180  -15.3600 C   0  0  0  0  0  0  0  0  0  0  0  0
   37.7860   28.9290  -14.4900 C   0  0  0  0  0  0  0  0  0  0  0  0
   36.5690   29.4760  -14.9020 C   0  0  0  0  0  0  0  0  0  0  0  0
   36.0830   29.2140  -16.1840 C   0  0  0  0  0  0  0  0  0  0  0  0
   36.8130   28.4050  -17.0510 C   0  0  0  0  0  0  0  0  0  0  0  0
   36.2780   28.1890  -18.2920 O   0  0  0  0  0  0  0  0  0  0  0  0
   38.0290   27.8560  -16.6370 C   0  0  0  0  0  0  0  0  0  0  0  0
   38.8270   27.0010  -17.5160 C   0  0  0  0  0  0  0  0  0  0  0  0
   38.4690   26.7290  -18.6610 O   0  0  0  0  0  0  0  0  0  0  0  0
   40.0990   26.4630  -16.9800 C   0  0  0  0  0  0  0  0  0  0  0  0
   40.8510   25.6670  -17.8240 O   0  0  0  0  0  0  0  0  0  0  0  0
   42.5540   25.4090  -15.7160 C   0  0  0  0  0  0  0  0  0  0  0  0
   43.7130   24.9580  -15.0790 C   0  0  0  0  0  0  0  0  0  0  0  0
   44.0550   25.4050  -13.7910 C   0  0  0  0  0  0  0  0  0  0  0  0
   45.3230   24.8660  -13.1510 C   0  0  0  0  0  0  0  0  0  0  0  0
   46.5870   25.6320  -13.4770 C   0  0  0  0  0  0  0  0  0  0  0  0
   47.0630   26.6110  -12.5920 C   0  0  0  0  0  0  0  0  0  0  0  0
   48.2130   27.3430  -12.8920 C   0  0  0  0  0  0  0  0  0  0  0  0
   48.8980   27.1120  -14.0830 C   0  0  0  0  0  0  0  0  0  0  0  0
   48.4290   26.1520  -14.9780 C   0  0  0  0  0  0  0  0  0  0  0  0
   47.2780   25.4190  -14.6790 C   0  0  0  0  0  0  0  0  0  0  0  0
   43.0982   26.1234  -11.0196 H   0  0  0  0  0  0  0  0  0  0  0  0
   44.5744   26.9525  -11.6198 H   0  0  0  0  0  0  0  0  0  0  0  0
   42.9979   27.8135  -11.6198 H   0  0  0  0  0  0  0  0  0  0  0  0
   41.3718   27.4692  -13.2833 H   0  0  0  0  0  0  0  0  0  0  0  0
   38.1695   29.1374  -13.4803 H   0  0  0  0  0  0  0  0  0  0  0  0
   35.9928   30.1139  -14.2156 H   0  0  0  0  0  0  0  0  0  0  0  0
   35.1249   29.6459  -16.5089 H   0  0  0  0  0  0  0  0  0  0  0  0
   36.6680   28.5860  -19.0460 H   0  0  0  0  0  0  0  0  0  0  0  0
   40.9290   24.7480  -17.6560 H   0  0  0  0  0  0  0  0  0  0  0  0
   42.3079   25.0412  -16.7230 H   0  0  0  0  0  0  0  0  0  0  0  0
   44.3689   24.2409  -15.5943 H   0  0  0  0  0  0  0  0  0  0  0  0
   45.1869   24.8833  -12.0596 H   0  0  0  0  0  0  0  0  0  0  0  0
   45.4651   23.8552  -13.5609 H   0  0  0  0  0  0  0  0  0  0  0  0
   46.5246   26.8037  -11.6523 H   0  0  0  0  0  0  0  0  0  0  0  0
   48.5791   28.1037  -12.1868 H   0  0  0  0  0  0  0  0  0  0  0  0
   49.8069   27.6860  -14.3164 H   0  0  0  0  0  0  0  0  0  0  0  0
   48.9658   25.9713  -15.9210 H   0  0  0  0  0  0  0  0  0  0  0  0
   46.9100   24.6675  -15.3930 H   0  0  0  0  0  0  0  0  0  0  0  0
  1  2  1  0
  2  3  2  0
  3  4  1  0
  4  5  1  0
  5  6  1  0
  6  7  1  0
  7  8  2  0
  8  9  1  0
  9 10  2  0
 10 11  1  0
 11 12  1  0
 11 13  2  0
 13 14  1  0
 14 15  2  0
 14 16  1  0
 16 17  1  0
  4 18  2  0
 18 19  1  0
 19 20  2  0
 20 21  1  0
 21 22  1  0
 22 23  2  0
 23 24  1  0
 24 25  2  0
 25 26  1  0
 26 27  2  0
 20  2  1  0
 27 22  1  0
 16  5  2  0
 13  7  1  0
  1 28  1  0
  1 29  1  0
  1 30  1  0
  3 31  1  0
  8 32  1  0
  9 33  1  0
 10 34  1  0
 12 35  1  0
 17 36  1  0
 18 37  1  0
 19 38  1  0
 21 39  1  0
 21 40  1  0
 23 41  1  0
 24 42  1  0
 25 43  1  0
 26 44  1  0
 27 45  1  0
M  END
>  <meeko>  (1) 
{"is_sidechain": [false], "free_energy": -7.526, "intermolecular_energy": -9.286, "internal_energy": -0.321}

$$$$
cand_002_out
     RDKit          3D

 45 48  0  0  0  0  0  0  0  0999 V2000
   43.5750   26.7140  -11.5040 C   0  0  0  0  0  0  0  0  0  0  0  0
   43.1210   26.3620  -12.8940 C   0  0  0  0  0  0  0  0  0  0  0  0
   41.9180   26.9180  -13.3690 C   0  0  0  0  0  0  0  0  0  0  0  0
   41.4210   26.6240  -14.6480 C   0  0  0  0  0  0  0  0  0  0  0  0
   40.1410   27.2150  -15.0950 C   0  0  0  0  0  0  0  0  0  0  0  0
   39.7440   26.7580  -16.3460 O   0  0  0  0  0  0  0  0  0  0  0  0
   38.5710   27.2270  -16.8820 C   0  0  0  0  0  0  0  0  0  0  0  0
   38.2180   26.7520  -18.1460 C   0  0  0  0  0  0  0  0  0  0  0  0
   37.0360   27.1880  -18.7480 C   0  0  0  0  0  0  0  0  0  0  0  0
   36.2080   28.0970  -18.0870 C   0  0  0  0  0  0  0  0  0  0  0  0
   36.5630   28.5690  -16.8260 C   0  0  0  0  0  0  0  0  0  0  0  0
   35.7050   29.4570  -16.2350 O   0  0  0  0  0  0  0  0  0  0  0  0
   37.7460   28.1340  -16.2240 C   0  0  0  0  0  0  0  0  0  0  0  0
   38.1560   28.6040  -14.9010 C   0  0  0  0  0  0  0  0  0  0  0  0
   37.4770   29.4000  -14.2540 O   0  0  0  0  0  0  0  0  0  0  0  0
   39.4320   28.0880  -14.3540 C   0  0  0  0  0  0  0  0  0  0  0  0
   39.8030   28.5290  -13.0970 O   0  0  0  0  0  0  0  0  0  0  0  0
   42.1420   25.7370  -15.4510 C   0  0  0  0  0  0  0  0  0  0  0  0
   43.3310   25.1660  -14.9920 C   0  0  0  0  0  0  0  0  0  0  0  0
   43.8340   25.4640  -13.7130 C   0  0  0  0  0  0  0  0  0  0  0  0
   45.1270   24.8010  -13.2710 C   0  0  0  0  0  0  0  0  0  0  0  0
   46.3930   25.5440  -13.6380 C   0  0  0  0  0  0  0  0  0  0  0  0
   46.9470   26.4730  -12.7440 C   0  0  0  0  0  0  0  0  0  0  0  0
   48.1000   27.1840  -13.0800 C   0  0  0  0  0  0  0  0  0  0  0  0
   48.7100   26.9820  -14.3170 C   0  0  0  0  0  0  0  0  0  0  0  0
   48.1630   26.0730  -15.2200 C   0  0  0  0  0  0  0  0  0  0  0  0
   47.0090   25.3610  -14.8850 C   0  0  0  0  0  0  0  0  0  0  0  0
   42.9282   26.2125  -10.7690 H   0  0  0  0  0  0  0  0  0  0  0  0
   44.6147   26.3837  -11.3632 H   0  0  0  0  0  0  0  0  0  0  0  0
   43.5141   27.8032  -11.3632 H   0  0  0  0  0  0  0  0  0  0  0  0
   41.3519   27.6019  -12.7195 H   0  0  0  0  0  0  0  0  0  0  0  0
   38.8699   26.0354  -18.6671 H   0  0  0  0  0  0  0  0  0  0  0  0
   36.7569   26.8147  -19.7444 H   0  0  0  0  0  0  0  0  0  0  0  0
   35.2767   28.4398  -18.5615 H   0  0  0  0  0  0  0  0  0  0  0  0
   35.9600   30.3530  -16.1280 H   0  0  0  0  0  0  0  0  0  0  0  0
   39.5150   29.3670  -12.7910 H   0  0  0  0  0  0  0  0  0  0  0  0
   41.7695   25.4857  -16.4550 H   0  0  0  0  0  0  0  0  0  0  0  0
   43.8834   24.4714  -15.6419 H   0  0  0  0  0  0  0  0  0  0  0  0
   45.0989   24.6976  -12.1762 H   0  0  0  0  0  0  0  0  0  0  0  0
   45.1733   23.8396  -13.8035 H   0  0  0  0  0  0  0  0  0  0  0  0
   46.4677   26.6425  -11.7686 H   0  0  0  0  0  0  0  0  0  0  0  0
   48.5280   27.9048  -12.3677 H   0  0  0  0  0  0  0  0  0  0  0  0
   49.6214   27.5392  -14.5796 H   0  0  0  0  0  0  0  0  0  0  0  0
   48.6407   25.9158  -16.1983 H   0  0  0  0  0  0  0  0  0  0  0  0
   46.5791   24.6500  -15.6059 H   0  0  0  0  0  0  0  0  0  0  0  0
  1  2  1  0
  2  3  2  0
  3  4  1  0
  4  5  1  0
  5  6  1  0
  6  7  1  0
  7  8  2  0
  8  9  1  0
  9 10  2  0
 10 11  1  0
 11 12  1  0
 11 13  2  0
 13 14  1  0
 14 15  2  0
 14 16  1  0
 16 17  1  0
  4 18  2  0
 18 19  1  0
 19 20  2  0
 20 21  1  0
 21 22  1  0
 22 23  2  0
 23 24  1  0
 24 25  2  0
 25 26  1  0
 26 27  2  0
 20  2  1  0
 27 22  1  0
 16  5  2  0
 13  7  1  0
  1 28  1  0
  1 29  1  0
  1 30  1  0
  3 31  1  0
  8 32  1  0
  9 33  1  0
 10 34  1  0
 12 35  1  0
 17 36  1  0
 18 37  1  0
 19 38  1  0
 21 39  1  0
 21 40  1  0
 23 41  1  0
 24 42  1  0
 25 43  1  0
 26 44  1  0
 27 45  1  0
M  END
>  <meeko>  (2) 
{"is_sidechain": [false], "free_energy": -6.962, "intermolecular_energy": -8.678, "internal_energy": -0.234}

$$$$
cand_002_out
     RDKit          3D

 45 48  0  0  0  0  0  0  0  0999 V2000
   40.9340   27.1610  -11.4320 C   0  0  0  0  0  0  0  0  0  0  0  0
   41.2360   26.8780  -12.8780 C   0  0  0  0  0  0  0  0  0  0  0  0
   40.2240   27.0980  -13.8320 C   0  0  0  0  0  0  0  0  0  0  0  0
   40.4250   26.8410  -15.1970 C   0  0  0  0  0  0  0  0  0  0  0  0
   39.3240   27.0670  -16.1580 C   0  0  0  0  0  0  0  0  0  0  0  0
   38.4800   28.1030  -15.7790 O   0  0  0  0  0  0  0  0  0  0  0  0
   37.4140   28.4200  -16.5820 C   0  0  0  0  0  0  0  0  0  0  0  0
   36.5850   29.4570  -16.1560 C   0  0  0  0  0  0  0  0  0  0  0  0
   35.4830   29.8310  -16.9280 C   0  0  0  0  0  0  0  0  0  0  0  0
   35.2120   29.1690  -18.1270 C   0  0  0  0  0  0  0  0  0  0  0  0
   36.0420   28.1340  -18.5500 C   0  0  0  0  0  0  0  0  0  0  0  0
   35.7180   27.5280  -19.7340 O   0  0  0  0  0  0  0  0  0  0  0  0
   37.1430   27.7590  -17.7760 C   0  0  0  0  0  0  0  0  0  0  0  0
   38.0400   26.6780  -18.1850 C   0  0  0  0  0  0  0  0  0  0  0  0
   37.8710   26.0520  -19.2300 O   0  0  0  0  0  0  0  0  0  0  0  0
   39.1750   26.3530  -17.2900 C   0  0  0  0  0  0  0  0  0  0  0  0
   40.0240   25.3390  -17.6930 O   0  0  0  0  0  0  0  0  0  0  0  0
   41.6620   26.3340  -15.6000 C   0  0  0  0  0  0  0  0  0  0  0  0
   42.6740   26.0980  -14.6670 C   0  0  0  0  0  0  0  0  0  0  0  0
   42.4780   26.3610  -13.2990 C   0  0  0  0  0  0  0  0  0  0  0  0
   43.6150   26.0710  -12.3360 C   0  0  0  0  0  0  0  0  0  0  0  0
   44.9610   25.8220  -12.9820 C   0  0  0  0  0  0  0  0  0  0  0  0
   45.3630   24.5120  -13.2860 C   0  0  0  0  0  0  0  0  0  0  0  0
   46.6110   24.2650  -13.8590 C   0  0  0  0  0  0  0  0  0  0  0  0
   47.4780   25.3230  -14.1270 C   0  0  0  0  0  0  0  0  0  0  0  0
   47.0980   26.6270  -13.8180 C   0  0  0  0  0  0  0  0  0  0  0  0
   45.8490   26.8750  -13.2450 C   0  0  0  0  0  0  0  0  0  0  0  0
   41.5879   26.5482  -10.7941 H   0  0  0  0  0  0  0  0  0  0  0  0
   41.1107   28.2262  -11.2222 H   0  0  0  0  0  0  0  0  0  0  0  0
   39.8825   26.9155  -11.2222 H   0  0  0  0  0  0  0  0  0  0  0  0
   39.2488   27.4820  -13.4981 H   0  0  0  0  0  0  0  0  0  0  0  0
   36.7989   29.9802  -15.2123 H   0  0  0  0  0  0  0  0  0  0  0  0
   34.8279   30.6479  -16.5911 H   0  0  0  0  0  0  0  0  0  0  0  0
   34.3449   29.4643  -18.7361 H   0  0  0  0  0  0  0  0  0  0  0  0
   35.8370   26.6040  -19.8360 H   0  0  0  0  0  0  0  0  0  0  0  0
   40.9090   25.5350  -17.9290 H   0  0  0  0  0  0  0  0  0  0  0  0
   41.8413   26.1182  -16.6636 H   0  0  0  0  0  0  0  0  0  0  0  0
   43.6411   25.6996  -15.0077 H   0  0  0  0  0  0  0  0  0  0  0  0
   43.7164   26.9330  -11.6602 H   0  0  0  0  0  0  0  0  0  0  0  0
   43.3470   25.1368  -11.8208 H   0  0  0  0  0  0  0  0  0  0  0  0
   44.6871   23.6714  -13.0703 H   0  0  0  0  0  0  0  0  0  0  0  0
   46.9110   23.2344  -14.0995 H   0  0  0  0  0  0  0  0  0  0  0  0
   48.4606   25.1285  -14.5817 H   0  0  0  0  0  0  0  0  0  0  0  0
   47.7827   27.4625  -14.0256 H   0  0  0  0  0  0  0  0  0  0  0  0
   45.5587   27.9067  -12.9974 H   0  0  0  0  0  0  0  0  0  0  0  0
  1  2  1  0
  2  3  2  0
  3  4  1  0
  4  5  1  0
  5  6  1  0
  6  7  1  0
  7  8  2  0
  8  9  1  0
  9 10  2  0
 10 11  1  0
 11 12  1  0
 11 13  2  0
 13 14  1  0
 14 15  2  0
 14 16  1  0
 16 17  1  0
  4 18  2  0
 18 19  1  0
 19 20  2  0
 20 21  1  0
 21 22  1  0
 22 23  2  0
 23 24  1  0
 24 25  2  0
 25 26  1  0
 26 27  2  0
 20  2  1  0
 27 22  1  0
 16  5  2  0
 13  7  1  0
  1 28  1  0
  1 29  1  0
  1 30  1  0
  3 31  1  0
  8 32  1  0
  9 33  1  0
 10 34  1  0
 12 35  1  0
 17 36  1  0
 18 37  1  0
 19 38  1  0
 21 39  1  0
 21 40  1  0
 23 41  1  0
 24 42  1  0
 25 43  1  0
 26 44  1  0
 27 45  1  0
M  END
>  <meeko>  (3) 
{"is_sidechain": [false], "free_energy": -6.036, "intermolecular_energy": -7.503, "internal_energy": -0.266}

$$$$
cand_002_out
     RDKit          3D

 45 48  0  0  0  0  0  0  0  0999 V2000
   44.1860   23.9100  -14.4230 C   0  0  0  0  0  0  0  0  0  0  0  0
   43.7010   25.2440  -13.9280 C   0  0  0  0  0  0  0  0  0  0  0  0
   42.4540   25.7160  -14.3800 C   0  0  0  0  0  0  0  0  0  0  0  0
   41.9410   26.9570  -13.9750 C   0  0  0  0  0  0  0  0  0  0  0  0
   40.6360   27.4200  -14.4940 C   0  0  0  0  0  0  0  0  0  0  0  0
   40.3440   26.9100  -15.7530 O   0  0  0  0  0  0  0  0  0  0  0  0
   39.1610   27.2590  -16.3540 C   0  0  0  0  0  0  0  0  0  0  0  0
   38.9160   26.7350  -17.6230 C   0  0  0  0  0  0  0  0  0  0  0  0
   37.7300   27.0500  -18.2900 C   0  0  0  0  0  0  0  0  0  0  0  0
   36.7910   27.8880  -17.6870 C   0  0  0  0  0  0  0  0  0  0  0  0
   37.0380   28.4100  -16.4210 C   0  0  0  0  0  0  0  0  0  0  0  0
   36.0740   29.2240  -15.8890 O   0  0  0  0  0  0  0  0  0  0  0  0
   38.2250   28.0950  -15.7540 C   0  0  0  0  0  0  0  0  0  0  0  0
   38.5240   28.6220  -14.4220 C   0  0  0  0  0  0  0  0  0  0  0  0
   37.7440   29.3600  -13.8240 O   0  0  0  0  0  0  0  0  0  0  0  0
   39.8130   28.2340  -13.8050 C   0  0  0  0  0  0  0  0  0  0  0  0
   40.0790   28.7270  -12.5410 O   0  0  0  0  0  0  0  0  0  0  0  0
   42.7110   27.7440  -13.1150 C   0  0  0  0  0  0  0  0  0  0  0  0
   43.9560   27.2980  -12.6660 C   0  0  0  0  0  0  0  0  0  0  0  0
   44.4690   26.0510  -13.0640 C   0  0  0  0  0  0  0  0  0  0  0  0
   45.8340   25.6310  -12.5480 C   0  0  0  0  0  0  0  0  0  0  0  0
   47.0150   26.2530  -13.2620 C   0  0  0  0  0  0  0  0  0  0  0  0
   47.3030   25.8940  -14.5870 C   0  0  0  0  0  0  0  0  0  0  0  0
   48.4030   26.4410  -15.2500 C   0  0  0  0  0  0  0  0  0  0  0  0
   49.2340   27.3470  -14.5940 C   0  0  0  0  0  0  0  0  0  0  0  0
   48.9670   27.7030  -13.2730 C   0  0  0  0  0  0  0  0  0  0  0  0
   47.8670   27.1560  -12.6090 C   0  0  0  0  0  0  0  0  0  0  0  0
   44.4210   23.2637  -13.5645 H   0  0  0  0  0  0  0  0  0  0  0  0
   43.4019   23.4382  -15.0334 H   0  0  0  0  0  0  0  0  0  0  0  0
   45.0900   24.0520  -15.0334 H   0  0  0  0  0  0  0  0  0  0  0  0
   41.8654   25.0939  -15.0703 H   0  0  0  0  0  0  0  0  0  0  0  0
   39.6561   26.0743  -18.0981 H   0  0  0  0  0  0  0  0  0  0  0  0
   37.5360   26.6374  -19.2911 H   0  0  0  0  0  0  0  0  0  0  0  0
   35.8566   28.1356  -18.2119 H   0  0  0  0  0  0  0  0  0  0  0  0
   35.1700   28.9940  -15.9700 H   0  0  0  0  0  0  0  0  0  0  0  0
   39.8330   28.2310  -11.7840 H   0  0  0  0  0  0  0  0  0  0  0  0
   42.3331   28.7241  -12.7885 H   0  0  0  0  0  0  0  0  0  0  0  0
   44.5456   27.9336  -11.9890 H   0  0  0  0  0  0  0  0  0  0  0  0
   45.8953   25.9076  -11.4851 H   0  0  0  0  0  0  0  0  0  0  0  0
   45.9066   24.5480  -12.7265 H   0  0  0  0  0  0  0  0  0  0  0  0
   46.6555   25.1741  -15.1090 H   0  0  0  0  0  0  0  0  0  0  0  0
   48.6140   26.1565  -16.2914 H   0  0  0  0  0  0  0  0  0  0  0  0
   50.0989   27.7804  -15.1175 H   0  0  0  0  0  0  0  0  0  0  0  0
   49.6237   28.4158  -12.7528 H   0  0  0  0  0  0  0  0  0  0  0  0
   47.6668   27.4358  -11.5642 H   0  0  0  0  0  0  0  0  0  0  0  0
  1  2  1  0
  2  3  2  0
  3  4  1  0
  4  5  1  0
  5  6  1  0
  6  7  1  0
  7  8  2  0
  8  9  1  0
  9 10  2  0
 10 11  1  0
 11 12  1  0
 11 13  2  0
 13 14  1  0
 14 15  2  0
 14 16  1  0
 16 17  1  0
  4 18  2  0
 18 19  1  0
 19 20  2  0
 20 21  1  0
 21 22  1  0
 22 23  2  0
 23 24  1  0
 24 25  2  0
 25 26  1  0
 26 27  2  0
 20  2  1  0
 27 22  1  0
 16  5  2  0
 13  7  1  0
  1 28  1  0
  1 29  1  0
  1 30  1  0
  3 31  1  0
  8 32  1  0
  9 33  1  0
 10 34  1  0
 12 35  1  0
 17 36  1  0
 18 37  1  0
 19 38  1  0
 21 39  1  0
 21 40  1  0
 23 41  1  0
 24 42  1  0
 25 43  1  0
 26 44  1  0
 27 45  1  0
M  END
>  <meeko>  (4) 
{"is_sidechain": [false], "free_energy": -5.893, "intermolecular_energy": -7.054, "internal_energy": -0.538}

$$$$
cand_002_out
     RDKit          3D

 45 48  0  0  0  0  0  0  0  0999 V2000
   43.3310   24.7650  -14.9220 C   0  0  0  0  0  0  0  0  0  0  0  0
   42.4320   25.7840  -14.2780 C   0  0  0  0  0  0  0  0  0  0  0  0
   41.2960   26.2220  -14.9850 C   0  0  0  0  0  0  0  0  0  0  0  0
   40.4190   27.1810  -14.4560 C   0  0  0  0  0  0  0  0  0  0  0  0
   39.2500   27.6250  -15.2460 C   0  0  0  0  0  0  0  0  0  0  0  0
   39.1120   26.9320  -16.4430 O   0  0  0  0  0  0  0  0  0  0  0  0
   38.0670   27.2440  -17.2740 C   0  0  0  0  0  0  0  0  0  0  0  0
   37.9750   26.5320  -18.4710 C   0  0  0  0  0  0  0  0  0  0  0  0
   36.9340   26.8000  -19.3620 C   0  0  0  0  0  0  0  0  0  0  0  0
   35.9860   27.7780  -19.0570 C   0  0  0  0  0  0  0  0  0  0  0  0
   36.0800   28.4870  -17.8620 C   0  0  0  0  0  0  0  0  0  0  0  0
   35.1170   29.4310  -17.6260 O   0  0  0  0  0  0  0  0  0  0  0  0
   37.1220   28.2190  -16.9710 C   0  0  0  0  0  0  0  0  0  0  0  0
   37.2580   28.9410  -15.7050 C   0  0  0  0  0  0  0  0  0  0  0  0
   36.4600   29.8110  -15.3630 O   0  0  0  0  0  0  0  0  0  0  0  0
   38.4030   28.5870  -14.8340 C   0  0  0  0  0  0  0  0  0  0  0  0
   38.5140   29.2660  -13.6340 O   0  0  0  0  0  0  0  0  0  0  0  0
   40.7070   27.7220  -13.2010 C   0  0  0  0  0  0  0  0  0  0  0  0
   41.8360   27.3090  -12.4900 C   0  0  0  0  0  0  0  0  0  0  0  0
   42.7130   26.3430  -13.0140 C   0  0  0  0  0  0  0  0  0  0  0  0
   43.9280   25.9470  -12.1940 C   0  0  0  0  0  0  0  0  0  0  0  0
   45.2280   25.8650  -12.9640 C   0  0  0  0  0  0  0  0  0  0  0  0
   45.8520   24.6240  -13.1610 C   0  0  0  0  0  0  0  0  0  0  0  0
   47.0640   24.5370  -13.8470 C   0  0  0  0  0  0  0  0  0  0  0  0
   47.6730   25.6890  -14.3390 C   0  0  0  0  0  0  0  0  0  0  0  0
   47.0720   26.9310  -14.1390 C   0  0  0  0  0  0  0  0  0  0  0  0
   45.8590   27.0190  -13.4530 C   0  0  0  0  0  0  0  0  0  0  0  0
   43.8440   24.1835  -14.1419 H   0  0  0  0  0  0  0  0  0  0  0  0
   42.7298   24.0889  -15.5476 H   0  0  0  0  0  0  0  0  0  0  0  0
   44.0768   25.2772  -15.5476 H   0  0  0  0  0  0  0  0  0  0  0  0
   41.0902   25.8006  -15.9800 H   0  0  0  0  0  0  0  0  0  0  0  0
   38.7215   25.7609  -18.7120 H   0  0  0  0  0  0  0  0  0  0  0  0
   36.8608   26.2396  -20.3057 H   0  0  0  0  0  0  0  0  0  0  0  0
   35.1660   27.9884  -19.7594 H   0  0  0  0  0  0  0  0  0  0  0  0
   34.4980   29.3060  -16.9350 H   0  0  0  0  0  0  0  0  0  0  0  0
   37.8840   29.1220  -12.9550 H   0  0  0  0  0  0  0  0  0  0  0  0
   40.0382   28.4807  -12.7684 H   0  0  0  0  0  0  0  0  0  0  0  0
   42.0427   27.7473  -11.5025 H   0  0  0  0  0  0  0  0  0  0  0  0
   44.0539   26.6897  -11.3924 H   0  0  0  0  0  0  0  0  0  0  0  0
   43.7281   24.9303  -11.8248 H   0  0  0  0  0  0  0  0  0  0  0  0
   45.3808   23.7099  -12.7706 H   0  0  0  0  0  0  0  0  0  0  0  0
   47.5394   23.5568  -13.9995 H   0  0  0  0  0  0  0  0  0  0  0  0
   48.6259   25.6190  -14.8841 H   0  0  0  0  0  0  0  0  0  0  0  0
   47.5539   27.8426  -14.5220 H   0  0  0  0  0  0  0  0  0  0  0  0
   45.3934   28.0029  -13.2943 H   0  0  0  0  0  0  0  0  0  0  0  0
  1  2  1  0
  2  3  2  0
  3  4  1  0
  4  5  1  0
  5  6  1  0
  6  7  1  0
  7  8  2  0
  8  9  1  0
  9 10  2  0
 10 11  1  0
 11 12  1  0
 11 13  2  0
 13 14  1  0
 14 15  2  0
 14 16  1  0
 16 17  1  0
  4 18  2  0
 18 19  1  0
 19 20  2  0
 20 21  1  0
 21 22  1  0
 22 23  2  0
 23 24  1  0
 24 25  2  0
 25 26  1  0
 26 27  2  0
 20  2  1  0
 27 22  1  0
 16  5  2  0
 13  7  1  0
  1 28  1  0
  1 29  1  0
  1 30  1  0
  3 31  1  0
  8 32  1  0
  9 33  1  0
 10 34  1  0
 12 35  1  0
 17 36  1  0
 18 37  1  0
 19 38  1  0
 21 39  1  0
 21 40  1  0
 23 41  1  0
 24 42  1  0
 25 43  1  0
 26 44  1  0
 27 45  1  0
M  END
>  <meeko>  (5) 
{"is_sidechain": [false], "free_energy": -5.06, "intermolecular_energy": -7.137, "internal_energy": 0.572}

$$$$
