cand_023_out
     RDKit          3D

 47 50  0  0  0  0  0  0  0  0999 V2000
   42.9090   26.9700  -11.7580 C   0  0  0  0  0  0  0  0  0  0  0  0
   42.5270   26.6750  -13.1840 C   0  0  0  0  0  0  0  0  0  0  0  0
   41.3180   27.1790  -13.6950 C   0  0  0  0  0  0  0  0  0  0  0  0
   40.9240   26.9340  -15.0200 C   0  0  0  0  0  0  0  0  0  0  0  0
   39.6330   27.4570  -15.5130 C   0  0  0  0  0  0  0  0  0  0  0  0
   39.2910   26.9600  -16.7650 O   0  0  0  0  0  0  0  0  0  0  0  0
   38.1150   27.3630  -17.3420 C   0  0  0  0  0  0  0  0  0  0  0  0
   37.8190   26.8500  -18.6060 C   0  0  0  0  0  0  0  0  0  0  0  0
   36.6360   27.2180  -19.2480 C   0  0  0  0  0  0  0  0  0  0  0  0
   35.7470   28.1000  -18.6280 C   0  0  0  0  0  0  0  0  0  0  0  0
   36.0450   28.6120  -17.3670 C   0  0  0  0  0  0  0  0  0  0  0  0
   35.1320   29.4700  -16.8170 O   0  0  0  0  0  0  0  0  0  0  0  0
   37.2300   28.2420  -16.7250 C   0  0  0  0  0  0  0  0  0  0  0  0
   37.5810   28.7560  -15.4000 C   0  0  0  0  0  0  0  0  0  0  0  0
   36.8480   29.5300  -14.7870 O   0  0  0  0  0  0  0  0  0  0  0  0
   38.8630   28.3080  -14.8090 C   0  0  0  0  0  0  0  0  0  0  0  0
   39.1770   28.7900  -13.5510 O   0  0  0  0  0  0  0  0  0  0  0  0
   41.7610   26.1560  -15.8270 C   0  0  0  0  0  0  0  0  0  0  0  0
   42.9670   25.6520  -15.3290 C   0  0  0  0  0  0  0  0  0  0  0  0
   43.3660   25.8980  -14.0070 C   0  0  0  0  0  0  0  0  0  0  0  0
   44.5850   25.4130  -13.4850 N   0  0  0  0  0  0  0  0  0  0  0  0
   45.0230   24.1490  -14.0980 C   0  0  0  0  0  0  0  0  0  0  0  0
   46.2080   23.5960  -13.3060 C   0  0  0  0  0  0  0  0  0  0  0  0
   47.3380   24.6210  -13.2200 C   0  0  0  0  0  0  0  0  0  0  0  0
   46.8270   25.9550  -12.6760 C   0  0  0  0  0  0  0  0  0  0  0  0
   45.6230   26.4560  -13.4740 C   0  0  0  0  0  0  0  0  0  0  0  0
   42.2245   26.4414  -11.0782 H   0  0  0  0  0  0  0  0  0  0  0  0
   43.9397   26.6312  -11.5769 H   0  0  0  0  0  0  0  0  0  0  0  0
   42.8418   28.0529  -11.5769 H   0  0  0  0  0  0  0  0  0  0  0  0
   40.6665   27.7785  -13.0422 H   0  0  0  0  0  0  0  0  0  0  0  0
   38.5180   26.1560  -19.0957 H   0  0  0  0  0  0  0  0  0  0  0  0
   36.4028   26.8131  -20.2438 H   0  0  0  0  0  0  0  0  0  0  0  0
   34.8143   28.3893  -19.1343 H   0  0  0  0  0  0  0  0  0  0  0  0
   34.3390   29.1360  -16.4490 H   0  0  0  0  0  0  0  0  0  0  0  0
   38.5020   28.9000  -12.9100 H   0  0  0  0  0  0  0  0  0  0  0  0
   41.4675   25.9382  -16.8645 H   0  0  0  0  0  0  0  0  0  0  0  0
   43.6140   25.0520  -15.9858 H   0  0  0  0  0  0  0  0  0  0  0  0
   44.1961   23.4239  -14.0789 H   0  0  0  0  0  0  0  0  0  0  0  0
   45.3236   24.3264  -15.1412 H   0  0  0  0  0  0  0  0  0  0  0  0
   45.8739   23.3433  -12.2889 H   0  0  0  0  0  0  0  0  0  0  0  0
   46.5862   22.7012  -13.8220 H   0  0  0  0  0  0  0  0  0  0  0  0
   48.1223   24.2366  -12.5514 H   0  0  0  0  0  0  0  0  0  0  0  0
   47.7398   24.7854  -14.2307 H   0  0  0  0  0  0  0  0  0  0  0  0
   46.5305   25.8233  -11.6249 H   0  0  0  0  0  0  0  0  0  0  0  0
   47.6341   26.6973  -12.7628 H   0  0  0  0  0  0  0  0  0  0  0  0
   45.2241   27.3678  -13.0055 H   0  0  0  0  0  0  0  0  0  0  0  0
   45.9306   26.6836  -14.5053 H   0  0  0  0  0  0  0  0  0  0  0  0
  1  2  1  0
  2  3  2  0
  3  4  1  0
  4  5  1  0
  5  6  1  0
  6  7  1  0
  7  8  2  0
  8  9  1  0
  9 10  2  0
 10 11  1  0
 11 12  1  0
 11 13  2  0
 13 14  1  0
 14 15  2  0
 14 16  1  0
 16 17  1  0
  4 18  2  0
 18 19  1  0
 19 20  2  0
 20 21  1  0
 21 22  1  0
 22 23  1  0
 23 24  1  0
 24 25  1  0
 25 26  1  0
 20  2  1  0
 26 21  1  0
 16  5  2  0
 13  7  1  0
  1 27  1  0
  1 28  1  0
  1 29  1  0
  3 30  1  0
  8 31  1  0
  9 32  1  0
 10 33  1  0
 12 34  1  0
 17 35  1  0
 18 36  1  0
 19 37  1  0
 22 38  1  0
 22 39  1  0
 23 40  1  0
 23 41  1  0
 24 42  1  0
 24 43  1  0
 25 44  1  0
 25 45  1  0
 26 46  1  0
 26 47  1  0
M  END
>  <meeko>  (1) 
{"is_sidechain": [false], "free_energy": -2.874, "intermolecular_energy": -3.378, "internal_energy": 0.241}

$$$$
cand_023_out
     RDKit          3D

 47 50  0  0  0  0  0  0  0  0999 V2000
   36.4500   29.3270  -15.0480 C   0  0  0  0  0  0  0  0  0  0  0  0
   37.4930   28.3830  -15.5840 C   0  0  0  0  0  0  0  0  0  0  0  0
   38.6020   28.0500  -14.7840 C   0  0  0  0  0  0  0  0  0  0  0  0
   39.5950   27.1700  -15.2400 C   0  0  0  0  0  0  0  0  0  0  0  0
   40.7590   26.8650  -14.3830 C   0  0  0  0  0  0  0  0  0  0  0  0
   41.8200   26.3110  -15.0890 O   0  0  0  0  0  0  0  0  0  0  0  0
   42.9670   25.9800  -14.4150 C   0  0  0  0  0  0  0  0  0  0  0  0
   44.0020   25.4140  -15.1610 C   0  0  0  0  0  0  0  0  0  0  0  0
   45.1970   25.0560  -14.5350 C   0  0  0  0  0  0  0  0  0  0  0  0
   45.3600   25.2650  -13.1640 C   0  0  0  0  0  0  0  0  0  0  0  0
   44.3260   25.8290  -12.4210 C   0  0  0  0  0  0  0  0  0  0  0  0
   44.5520   26.0060  -11.0830 O   0  0  0  0  0  0  0  0  0  0  0  0
   43.1290   26.1870  -13.0480 C   0  0  0  0  0  0  0  0  0  0  0  0
   42.0180   26.7840  -12.3050 C   0  0  0  0  0  0  0  0  0  0  0  0
   42.0880   27.0040  -11.0970 O   0  0  0  0  0  0  0  0  0  0  0  0
   40.7910   27.1200  -13.0610 C   0  0  0  0  0  0  0  0  0  0  0  0
   39.7530   27.6960  -12.3510 O   0  0  0  0  0  0  0  0  0  0  0  0
   39.4670   26.6360  -16.5270 C   0  0  0  0  0  0  0  0  0  0  0  0
   38.3680   26.9590  -17.3290 C   0  0  0  0  0  0  0  0  0  0  0  0
   37.3700   27.8350  -16.8750 C   0  0  0  0  0  0  0  0  0  0  0  0
   36.2440   28.1660  -17.6590 N   0  0  0  0  0  0  0  0  0  0  0  0
   35.9900   29.6130  -17.7400 C   0  0  0  0  0  0  0  0  0  0  0  0
   34.6310   29.8430  -18.4030 C   0  0  0  0  0  0  0  0  0  0  0  0
   34.5650   29.1660  -19.7700 C   0  0  0  0  0  0  0  0  0  0  0  0
   34.9350   27.6870  -19.6670 C   0  0  0  0  0  0  0  0  0  0  0  0
   36.2830   27.4990  -18.9700 C   0  0  0  0  0  0  0  0  0  0  0  0
   36.4697   29.3091  -13.9483 H   0  0  0  0  0  0  0  0  0  0  0  0
   36.6618   30.3467  -15.4020 H   0  0  0  0  0  0  0  0  0  0  0  0
   35.4564   29.0149  -15.4020 H   0  0  0  0  0  0  0  0  0  0  0  0
   38.6922   28.4892  -13.7795 H   0  0  0  0  0  0  0  0  0  0  0  0
   43.8760   25.2502  -16.2414 H   0  0  0  0  0  0  0  0  0  0  0  0
   46.0120   24.6084  -15.1228 H   0  0  0  0  0  0  0  0  0  0  0  0
   46.3031   24.9848  -12.6720 H   0  0  0  0  0  0  0  0  0  0  0  0
   43.9250   25.6990  -10.4580 H   0  0  0  0  0  0  0  0  0  0  0  0
   38.8650   27.4950  -12.5730 H   0  0  0  0  0  0  0  0  0  0  0  0
   40.2397   25.9544  -16.9122 H   0  0  0  0  0  0  0  0  0  0  0  0
   38.2842   26.5187  -18.3335 H   0  0  0  0  0  0  0  0  0  0  0  0
   35.9843   30.0438  -16.7279 H   0  0  0  0  0  0  0  0  0  0  0  0
   36.7799   30.0966  -18.3334 H   0  0  0  0  0  0  0  0  0  0  0  0
   33.8420   29.4285  -17.7583 H   0  0  0  0  0  0  0  0  0  0  0  0
   34.4883   30.9249  -18.5415 H   0  0  0  0  0  0  0  0  0  0  0  0
   33.5426   29.2543  -20.1662 H   0  0  0  0  0  0  0  0  0  0  0  0
   35.2824   29.6608  -20.4412 H   0  0  0  0  0  0  0  0  0  0  0  0
   34.1579   27.1624  -19.0918 H   0  0  0  0  0  0  0  0  0  0  0  0
   35.0099   27.2760  -20.6846 H   0  0  0  0  0  0  0  0  0  0  0  0
   36.4796   26.4256  -18.8315 H   0  0  0  0  0  0  0  0  0  0  0  0
   37.0827   27.9371  -19.5852 H   0  0  0  0  0  0  0  0  0  0  0  0
  1  2  1  0
  2  3  2  0
  3  4  1  0
  4  5  1  0
  5  6  1  0
  6  7  1  0
  7  8  2  0
  8  9  1  0
  9 10  2  0
 10 11  1  0
 11 12  1  0
 11 13  2  0
 13 14  1  0
 14 15  2  0
 14 16  1  0
 16 17  1  0
  4 18  2  0
 18 19  1  0
 19 20  2  0
 20 21  1  0
 21 22  1  0
 22 23  1  0
 23 24  1  0
 24 25  1  0
 25 26  1  0
 20  2  1  0
 26 21  1  0
 16  5  2  0
 13  7  1  0
  1 27  1  0
  1 28  1  0
  1 29  1  0
  3 30  1  0
  8 31  1  0
  9 32  1  0
 10 33  1  0
 12 34  1  0
 17 35  1  0
 18 36  1  0
 19 37  1  0
 22 38  1  0
 22 39  1  0
 23 40  1  0
 23 41  1  0
 24 42  1  0
 24 43  1  0
 25 44  1  0
 25 45  1  0
 26 46  1  0
 26 47  1  0
M  END
>  <meeko>  (2) 
{"is_sidechain": [false], "free_energy": -2.834, "intermolecular_energy": -3.955, "internal_energy": 0.865}

$$$$
cand_023_out
     RDKit          3D

 47 50  0  0  0  0  0  0  0  0999 V2000
   43.0270   26.9400  -11.9250 C   0  0  0  0  0  0  0  0  0  0  0  0
   42.8250   26.5300  -13.3600 C   0  0  0  0  0  0  0  0  0  0  0  0
   41.6450   26.9060  -14.0270 C   0  0  0  0  0  0  0  0  0  0  0  0
   41.4170   26.5500  -15.3650 C   0  0  0  0  0  0  0  0  0  0  0  0
   40.1530   26.9390  -16.0250 C   0  0  0  0  0  0  0  0  0  0  0  0
   39.3820   27.7990  -15.2520 O   0  0  0  0  0  0  0  0  0  0  0  0
   38.1820   28.2420  -15.7450 C   0  0  0  0  0  0  0  0  0  0  0  0
   37.4360   29.0930  -14.9300 C   0  0  0  0  0  0  0  0  0  0  0  0
   36.2050   29.5810  -15.3730 C   0  0  0  0  0  0  0  0  0  0  0  0
   35.7200   29.2190  -16.6320 C   0  0  0  0  0  0  0  0  0  0  0  0
   36.4670   28.3690  -17.4440 C   0  0  0  0  0  0  0  0  0  0  0  0
   35.9340   28.0540  -18.6640 O   0  0  0  0  0  0  0  0  0  0  0  0
   37.6990   27.8800  -16.9990 C   0  0  0  0  0  0  0  0  0  0  0  0
   38.5150   26.9860  -17.8210 C   0  0  0  0  0  0  0  0  0  0  0  0
   38.1600   26.6270  -18.9430 O   0  0  0  0  0  0  0  0  0  0  0  0
   39.8010   26.5190  -17.2550 C   0  0  0  0  0  0  0  0  0  0  0  0
   40.5710   25.6850  -18.0470 O   0  0  0  0  0  0  0  0  0  0  0  0
   42.3910   25.7940  -16.0260 C   0  0  0  0  0  0  0  0  0  0  0  0
   43.5680   25.4170  -15.3720 C   0  0  0  0  0  0  0  0  0  0  0  0
   43.8030   25.7740  -14.0350 C   0  0  0  0  0  0  0  0  0  0  0  0
   44.9890   25.4190  -13.3580 N   0  0  0  0  0  0  0  0  0  0  0  0
   45.4040   24.0270  -13.5920 C   0  0  0  0  0  0  0  0  0  0  0  0
   46.5470   23.6810  -12.6370 C   0  0  0  0  0  0  0  0  0  0  0  0
   47.7060   24.6640  -12.7880 C   0  0  0  0  0  0  0  0  0  0  0  0
   47.2230   26.1060  -12.6410 C   0  0  0  0  0  0  0  0  0  0  0  0
   46.0600   26.4020  -13.5890 C   0  0  0  0  0  0  0  0  0  0  0  0
   42.6395   26.1534  -11.2609 H   0  0  0  0  0  0  0  0  0  0  0  0
   44.1002   27.0861  -11.7330 H   0  0  0  0  0  0  0  0  0  0  0  0
   42.4889   27.8800  -11.7330 H   0  0  0  0  0  0  0  0  0  0  0  0
   40.8851   27.4913  -13.4885 H   0  0  0  0  0  0  0  0  0  0  0  0
   37.8171   29.3796  -13.9387 H   0  0  0  0  0  0  0  0  0  0  0  0
   35.6163   30.2515  -14.7296 H   0  0  0  0  0  0  0  0  0  0  0  0
   34.7506   29.6043  -16.9812 H   0  0  0  0  0  0  0  0  0  0  0  0
   35.0080   28.0970  -18.7960 H   0  0  0  0  0  0  0  0  0  0  0  0
   40.6150   25.8270  -18.9710 H   0  0  0  0  0  0  0  0  0  0  0  0
   42.2292   25.4929  -17.0715 H   0  0  0  0  0  0  0  0  0  0  0  0
   44.3234   24.8301  -15.9151 H   0  0  0  0  0  0  0  0  0  0  0  0
   44.5540   23.3531  -13.4093 H   0  0  0  0  0  0  0  0  0  0  0  0
   45.7407   23.9095  -14.6326 H   0  0  0  0  0  0  0  0  0  0  0  0
   46.1752   23.7201  -11.6025 H   0  0  0  0  0  0  0  0  0  0  0  0
   46.9111   22.6716  -12.8789 H   0  0  0  0  0  0  0  0  0  0  0  0
   48.4579   24.4556  -12.0126 H   0  0  0  0  0  0  0  0  0  0  0  0
   48.1420   24.5407  -13.7903 H   0  0  0  0  0  0  0  0  0  0  0  0
   46.8911   26.2688  -11.6050 H   0  0  0  0  0  0  0  0  0  0  0  0
   48.0561   26.7786  -12.8931 H   0  0  0  0  0  0  0  0  0  0  0  0
   45.6775   27.4155  -13.3977 H   0  0  0  0  0  0  0  0  0  0  0  0
   46.4052   26.3363  -14.6313 H   0  0  0  0  0  0  0  0  0  0  0  0
  1  2  1  0
  2  3  2  0
  3  4  1  0
  4  5  1  0
  5  6  1  0
  6  7  1  0
  7  8  2  0
  8  9  1  0
  9 10  2  0
 10 11  1  0
 11 12  1  0
 11 13  2  0
 13 14  1  0
 14 15  2  0
 14 16  1  0
 16 17  1  0
  4 18  2  0
 18 19  1  0
 19 20  2  0
 20 21  1  0
 21 22  1  0
 22 23  1  0
 23 24  1  0
 24 25  1  0
 25 26  1  0
 20  2  1  0
 26 21  1  0
 16  5  2  0
 13  7  1  0
  1 27  1  0
  1 28  1  0
  1 29  1  0
  3 30  1  0
  8 31  1  0
  9 32  1  0
 10 33  1  0
 12 34  1  0
 17 35  1  0
 18 36  1  0
 19 37  1  0
 22 38  1  0
 22 39  1  0
 23 40  1  0
 23 41  1  0
 24 42  1  0
 24 43  1  0
 25 44  1  0
 25 45  1  0
 26 46  1  0
 26 47  1  0
M  END
>  <meeko>  (3) 
{"is_sidechain": [false], "free_energy": -2.495, "intermolecular_energy": -2.69, "internal_energy": -0.001}

$$$$
cand_023_out
     RDKit          3D

 47 50  0  0  0  0  0  0  0  0999 V2000
   44.8320   27.9120  -12.3690 C   0  0  0  0  0  0  0  0  0  0  0  0
   43.9830   27.0910  -13.3020 C   0  0  0  0  0  0  0  0  0  0  0  0
   42.7090   27.5600  -13.6720 C   0  0  0  0  0  0  0  0  0  0  0  0
   41.8860   26.8310  -14.5440 C   0  0  0  0  0  0  0  0  0  0  0  0
   40.5430   27.3420  -14.8880 C   0  0  0  0  0  0  0  0  0  0  0  0
   40.1190   26.9430  -16.1510 O   0  0  0  0  0  0  0  0  0  0  0  0
   38.8880   27.3450  -16.5970 C   0  0  0  0  0  0  0  0  0  0  0  0
   38.5100   26.9320  -17.8750 C   0  0  0  0  0  0  0  0  0  0  0  0
   37.2670   27.3070  -18.3890 C   0  0  0  0  0  0  0  0  0  0  0  0
   36.4010   28.0930  -17.6260 C   0  0  0  0  0  0  0  0  0  0  0  0
   36.7810   28.5050  -16.3510 C   0  0  0  0  0  0  0  0  0  0  0  0
   35.8860   29.2730  -15.6580 O   0  0  0  0  0  0  0  0  0  0  0  0
   38.0250   28.1300  -15.8370 C   0  0  0  0  0  0  0  0  0  0  0  0
   38.4630   28.5400  -14.5020 C   0  0  0  0  0  0  0  0  0  0  0  0
   37.7550   29.2270  -13.7670 O   0  0  0  0  0  0  0  0  0  0  0  0
   39.8020   28.0960  -14.0530 C   0  0  0  0  0  0  0  0  0  0  0  0
   40.1990   28.4780  -12.7850 O   0  0  0  0  0  0  0  0  0  0  0  0
   42.3560   25.6070  -15.0320 C   0  0  0  0  0  0  0  0  0  0  0  0
   43.6220   25.1340  -14.6730 C   0  0  0  0  0  0  0  0  0  0  0  0
   44.4500   25.8620  -13.8050 C   0  0  0  0  0  0  0  0  0  0  0  0
   45.7370   25.4120  -13.4380 N   0  0  0  0  0  0  0  0  0  0  0  0
   45.8530   23.9470  -13.3830 C   0  0  0  0  0  0  0  0  0  0  0  0
   47.1960   23.5770  -12.7530 C   0  0  0  0  0  0  0  0  0  0  0  0
   48.3550   24.2210  -13.5120 C   0  0  0  0  0  0  0  0  0  0  0  0
   48.1530   25.7300  -13.6410 C   0  0  0  0  0  0  0  0  0  0  0  0
   46.7860   26.0580  -14.2440 C   0  0  0  0  0  0  0  0  0  0  0  0
   44.5767   27.6651  -11.3279 H   0  0  0  0  0  0  0  0  0  0  0  0
   45.8943   27.6898  -12.5486 H   0  0  0  0  0  0  0  0  0  0  0  0
   44.6456   28.9811  -12.5486 H   0  0  0  0  0  0  0  0  0  0  0  0
   42.3505   28.5187  -13.2690 H   0  0  0  0  0  0  0  0  0  0  0  0
   39.1904   26.3117  -18.4769 H   0  0  0  0  0  0  0  0  0  0  0  0
   36.9694   26.9826  -19.3971 H   0  0  0  0  0  0  0  0  0  0  0  0
   35.4211   28.3860  -18.0309 H   0  0  0  0  0  0  0  0  0  0  0  0
   35.5390   30.0520  -16.0450 H   0  0  0  0  0  0  0  0  0  0  0  0
   39.5570   28.6290  -12.1190 H   0  0  0  0  0  0  0  0  0  0  0  0
   41.7229   25.0104  -15.7052 H   0  0  0  0  0  0  0  0  0  0  0  0
   43.9751   24.1742  -15.0782 H   0  0  0  0  0  0  0  0  0  0  0  0
   45.0344   23.5349  -12.7748 H   0  0  0  0  0  0  0  0  0  0  0  0
   45.7924   23.5311  -14.3995 H   0  0  0  0  0  0  0  0  0  0  0  0
   47.2118   23.9256  -11.7098 H   0  0  0  0  0  0  0  0  0  0  0  0
   47.3136   22.4842  -12.7970 H   0  0  0  0  0  0  0  0  0  0  0  0
   49.2920   24.0285  -12.9688 H   0  0  0  0  0  0  0  0  0  0  0  0
   48.3985   23.7854  -14.5212 H   0  0  0  0  0  0  0  0  0  0  0  0
   48.2237   26.1876  -12.6432 H   0  0  0  0  0  0  0  0  0  0  0  0
   48.9315   26.1288  -14.3080 H   0  0  0  0  0  0  0  0  0  0  0  0
   46.6340   27.1475  -14.2416 H   0  0  0  0  0  0  0  0  0  0  0  0
   46.7389   25.6883  -15.2789 H   0  0  0  0  0  0  0  0  0  0  0  0
  1  2  1  0
  2  3  2  0
  3  4  1  0
  4  5  1  0
  5  6  1  0
  6  7  1  0
  7  8  2  0
  8  9  1  0
  9 10  2  0
 10 11  1  0
 11 12  1  0
 11 13  2  0
 13 14  1  0
 14 15  2  0
 14 16  1  0
 16 17  1  0
  4 18  2  0
 18 19  1  0
 19 20  2  0
 20 21  1  0
 21 22  1  0
 22 23  1  0
 23 24  1  0
 24 25  1  0
 25 26  1  0
 20  2  1  0
 26 21  1  0
 16  5  2  0
 13  7  1  0
  1 27  1  0
  1 28  1  0
  1 29  1  0
  3 30  1  0
  8 31  1  0
  9 32  1  0
 10 33  1  0
 12 34  1  0
 17 35  1  0
 18 36  1  0
 19 37  1  0
 22 38  1  0
 22 39  1  0
 23 40  1  0
 23 41  1  0
 24 42  1  0
 24 43  1  0
 25 44  1  0
 25 45  1  0
 26 46  1  0
 26 47  1  0
M  END
>  <meeko>  (4) 
{"is_sidechain": [false], "free_energy": -2.191, "intermolecular_energy": -2.375, "internal_energy": 0.041}

$$$$
cand_023_out
     RDKit          3D

 47 50  0  0  0  0  0  0  0  0999 V2000
   36.6460   29.1960  -15.2810 C   0  0  0  0  0  0  0  0  0  0  0  0
   37.5910   28.2510  -15.9750 C   0  0  0  0  0  0  0  0  0  0  0  0
   38.7680   27.8450  -15.3210 C   0  0  0  0  0  0  0  0  0  0  0  0
   39.6750   26.9620  -15.9270 C   0  0  0  0  0  0  0  0  0  0  0  0
   40.9150   26.5800  -15.2200 C   0  0  0  0  0  0  0  0  0  0  0  0
   40.8880   26.9020  -13.8680 O   0  0  0  0  0  0  0  0  0  0  0  0
   41.9760   26.6010  -13.0910 C   0  0  0  0  0  0  0  0  0  0  0  0
   41.9100   26.9540  -11.7430 C   0  0  0  0  0  0  0  0  0  0  0  0
   42.9840   26.6740  -10.8960 C   0  0  0  0  0  0  0  0  0  0  0  0
   44.1240   26.0410  -11.3960 C   0  0  0  0  0  0  0  0  0  0  0  0
   44.1880   25.6890  -12.7420 C   0  0  0  0  0  0  0  0  0  0  0  0
   45.3320   25.0720  -13.1670 O   0  0  0  0  0  0  0  0  0  0  0  0
   43.1120   25.9700  -13.5900 C   0  0  0  0  0  0  0  0  0  0  0  0
   43.1370   25.6170  -15.0100 C   0  0  0  0  0  0  0  0  0  0  0  0
   44.1020   25.0520  -15.5230 O   0  0  0  0  0  0  0  0  0  0  0  0
   41.9500   25.9650  -15.8230 C   0  0  0  0  0  0  0  0  0  0  0  0
   41.9800   25.6140  -17.1610 O   0  0  0  0  0  0  0  0  0  0  0  0
   39.3880   26.4980  -17.2150 C   0  0  0  0  0  0  0  0  0  0  0  0
   38.2180   26.8940  -17.8730 C   0  0  0  0  0  0  0  0  0  0  0  0
   37.3070   27.7730  -17.2690 C   0  0  0  0  0  0  0  0  0  0  0  0
   36.1140   28.1760  -17.9060 N   0  0  0  0  0  0  0  0  0  0  0  0
   35.9090   29.6330  -17.9010 C   0  0  0  0  0  0  0  0  0  0  0  0
   34.4940   29.9380  -18.3940 C   0  0  0  0  0  0  0  0  0  0  0  0
   34.2470   29.3230  -19.7710 C   0  0  0  0  0  0  0  0  0  0  0  0
   34.5670   27.8290  -19.7670 C   0  0  0  0  0  0  0  0  0  0  0  0
   35.9770   27.5640  -19.2370 C   0  0  0  0  0  0  0  0  0  0  0  0
   36.7539   29.0881  -14.1916 H   0  0  0  0  0  0  0  0  0  0  0  0
   36.8820   30.2302  -15.5722 H   0  0  0  0  0  0  0  0  0  0  0  0
   35.6118   28.9600  -15.5722 H   0  0  0  0  0  0  0  0  0  0  0  0
   38.9824   28.2279  -14.3123 H   0  0  0  0  0  0  0  0  0  0  0  0
   41.0126   27.4525  -11.3478 H   0  0  0  0  0  0  0  0  0  0  0  0
   42.9321   26.9524   -9.8331 H   0  0  0  0  0  0  0  0  0  0  0  0
   44.9698   25.8208  -10.7280 H   0  0  0  0  0  0  0  0  0  0  0  0
   45.7080   25.2980  -13.9940 H   0  0  0  0  0  0  0  0  0  0  0  0
   41.9030   26.2760  -17.8200 H   0  0  0  0  0  0  0  0  0  0  0  0
   40.0894   25.8146  -17.7160 H   0  0  0  0  0  0  0  0  0  0  0  0
   38.0091   26.5090  -18.8820 H   0  0  0  0  0  0  0  0  0  0  0  0
   36.0349   30.0197  -16.8789 H   0  0  0  0  0  0  0  0  0  0  0  0
   36.6448   30.1142  -18.5620 H   0  0  0  0  0  0  0  0  0  0  0  0
   33.7675   29.5233  -17.6797 H   0  0  0  0  0  0  0  0  0  0  0  0
   34.3789   31.0291  -18.4728 H   0  0  0  0  0  0  0  0  0  0  0  0
   33.1909   29.4642  -20.0442 H   0  0  0  0  0  0  0  0  0  0  0  0
   34.9028   29.8206  -20.5006 H   0  0  0  0  0  0  0  0  0  0  0  0
   33.8398   27.3085  -19.1265 H   0  0  0  0  0  0  0  0  0  0  0  0
   34.5097   27.4589  -20.8013 H   0  0  0  0  0  0  0  0  0  0  0  0
   36.1448   26.4794  -19.1627 H   0  0  0  0  0  0  0  0  0  0  0  0
   36.7186   27.9991  -19.9230 H   0  0  0  0  0  0  0  0  0  0  0  0
  1  2  1  0
  2  3  2  0
  3  4  1  0
  4  5  1  0
  5  6  1  0
  6  7  1  0
  7  8  2  0
  8  9  1  0
  9 10  2  0
 10 11  1  0
 11 12  1  0
 11 13  2  0
 13 14  1  0
 14 15  2  0
 14 16  1  0
 16 17  1  0
  4 18  2  0
 18 19  1  0
 19 20  2  0
 20 21  1  0
 21 22  1  0
 22 23  1  0
 23 24  1  0
 24 25  1  0
 25 26  1  0
 20  2  1  0
 26 21  1  0
 16  5  2  0
 13  7  1  0
  1 27  1  0
  1 28  1  0
  1 29  1  0
  3 30  1  0
  8 31  1  0
  9 32  1  0
 10 33  1  0
 12 34  1  0
 17 35  1  0
 18 36  1  0
 19 37  1  0
 22 38  1  0
 22 39  1  0
 23 40  1  0
 23 41  1  0
 24 42  1  0
 24 43  1  0
 25 44  1  0
 25 45  1  0
 26 46  1  0
 26 47  1  0
M  END
>  <meeko>  (5) 
{"is_sidechain": [false], "free_energy": -0.649, "intermolecular_energy": -1.324, "internal_energy": 0.802}

$$$$
cand_023_out
     RDKit          3D

 47 50  0  0  0  0  0  0  0  0999 V2000
   39.1210   28.2720  -13.4460 C   0  0  0  0  0  0  0  0  0  0  0  0
   39.9150   27.4800  -14.4500 C   0  0  0  0  0  0  0  0  0  0  0  0
   41.1790   26.9770  -14.0910 C   0  0  0  0  0  0  0  0  0  0  0  0
   41.9520   26.2300  -14.9930 C   0  0  0  0  0  0  0  0  0  0  0  0
   43.2880   25.7420  -14.5890 C   0  0  0  0  0  0  0  0  0  0  0  0
   44.2570   26.7370  -14.6140 O   0  0  0  0  0  0  0  0  0  0  0  0
   45.5430   26.4220  -14.2590 C   0  0  0  0  0  0  0  0  0  0  0  0
   46.4860   27.4500  -14.3110 C   0  0  0  0  0  0  0  0  0  0  0  0
   47.8130   27.1950  -13.9610 C   0  0  0  0  0  0  0  0  0  0  0  0
   48.1990   25.9150  -13.5590 C   0  0  0  0  0  0  0  0  0  0  0  0
   47.2570   24.8910  -13.5090 C   0  0  0  0  0  0  0  0  0  0  0  0
   47.7010   23.6610  -13.1060 O   0  0  0  0  0  0  0  0  0  0  0  0
   45.9270   25.1450  -13.8590 C   0  0  0  0  0  0  0  0  0  0  0  0
   44.9050   24.0990  -13.8190 C   0  0  0  0  0  0  0  0  0  0  0  0
   45.1660   22.9480  -13.4700 O   0  0  0  0  0  0  0  0  0  0  0  0
   43.5280   24.4700  -14.2170 C   0  0  0  0  0  0  0  0  0  0  0  0
   42.5680   23.4760  -14.1620 O   0  0  0  0  0  0  0  0  0  0  0  0
   41.4410   26.0030  -16.2750 C   0  0  0  0  0  0  0  0  0  0  0  0
   40.1850   26.4970  -16.6410 C   0  0  0  0  0  0  0  0  0  0  0  0
   39.4070   27.2410  -15.7410 C   0  0  0  0  0  0  0  0  0  0  0  0
   38.1300   27.7370  -16.0810 N   0  0  0  0  0  0  0  0  0  0  0  0
   37.7760   28.9790  -15.3760 C   0  0  0  0  0  0  0  0  0  0  0  0
   36.3020   29.2940  -15.6320 C   0  0  0  0  0  0  0  0  0  0  0  0
   36.0080   29.3740  -17.1290 C   0  0  0  0  0  0  0  0  0  0  0  0
   36.4810   28.1110  -17.8470 C   0  0  0  0  0  0  0  0  0  0  0  0
   37.9490   27.8140  -17.5400 C   0  0  0  0  0  0  0  0  0  0  0  0
   39.4173   27.9764  -12.4287 H   0  0  0  0  0  0  0  0  0  0  0  0
   39.3170   29.3451  -13.5878 H   0  0  0  0  0  0  0  0  0  0  0  0
   38.0484   28.0733  -13.5878 H   0  0  0  0  0  0  0  0  0  0  0  0
   41.5696   27.1735  -13.0817 H   0  0  0  0  0  0  0  0  0  0  0  0
   46.1838   28.4593  -14.6273 H   0  0  0  0  0  0  0  0  0  0  0  0
   48.5565   28.0047  -14.0020 H   0  0  0  0  0  0  0  0  0  0  0  0
   49.2449   25.7160  -13.2824 H   0  0  0  0  0  0  0  0  0  0  0  0
   47.1590   22.9060  -13.2230 H   0  0  0  0  0  0  0  0  0  0  0  0
   41.7690   23.6220  -13.6950 H   0  0  0  0  0  0  0  0  0  0  0  0
   42.0335   25.4297  -17.0032 H   0  0  0  0  0  0  0  0  0  0  0  0
   39.8002   26.2988  -17.6523 H   0  0  0  0  0  0  0  0  0  0  0  0
   37.9436   28.8509  -14.2964 H   0  0  0  0  0  0  0  0  0  0  0  0
   38.4018   29.8059  -15.7429 H   0  0  0  0  0  0  0  0  0  0  0  0
   35.6827   28.5017  -15.1862 H   0  0  0  0  0  0  0  0  0  0  0  0
   36.0693   30.2685  -15.1779 H   0  0  0  0  0  0  0  0  0  0  0  0
   34.9240   29.4878  -17.2773 H   0  0  0  0  0  0  0  0  0  0  0  0
   36.5463   30.2376  -17.5467 H   0  0  0  0  0  0  0  0  0  0  0  0
   35.8668   27.2601  -17.5173 H   0  0  0  0  0  0  0  0  0  0  0  0
   36.3780   28.2686  -18.9308 H   0  0  0  0  0  0  0  0  0  0  0  0
   38.2344   26.8553  -17.9977 H   0  0  0  0  0  0  0  0  0  0  0  0
   38.5826   28.6141  -17.9503 H   0  0  0  0  0  0  0  0  0  0  0  0
  1  2  1  0
  2  3  2  0
  3  4  1  0
  4  5  1  0
  5  6  1  0
  6  7  1  0
  7  8  2  0
  8  9  1  0
  9 10  2  0
 10 11  1  0
 11 12  1  0
 11 13  2  0
 13 14  1  0
 14 15  2  0
 14 16  1  0
 16 17  1  0
  4 18  2  0
 18 19  1  0
 19 20  2  0
 20 21  1  0
 21 22  1  0
 22 23  1  0
 23 24  1  0
 24 25  1  0
 25 26  1  0
 20  2  1  0
 26 21  1  0
 16  5  2  0
 13  7  1  0
  1 27  1  0
  1 28  1  0
  1 29  1  0
  3 30  1  0
  8 31  1  0
  9 32  1  0
 10 33  1  0
 12 34  1  0
 17 35  1  0
 18 36  1  0
 19 37  1  0
 22 38  1  0
 22 39  1  0
 23 40  1  0
 23 41  1  0
 24 42  1  0
 24 43  1  0
 25 44  1  0
 25 45  1  0
 26 46  1  0
 26 47  1  0
M  END
>  <meeko>  (6) 
{"is_sidechain": [false], "free_energy": 0.08, "intermolecular_energy": -0.459, "internal_energy": 0.794}

$$$$
