cand_044_out
     RDKit          3D

 41 43  0  0  0  0  0  0  0  0999 V2000
   47.2980   26.0080  -14.1580 C   0  0  0  0  0  0  0  0  0  0  0  0
   46.5520   24.6830  -14.1790 C   0  0  0  0  0  0  0  0  0  0  0  0
   45.3840   24.6840  -13.1910 C   0  0  0  0  0  0  0  0  0  0  0  0
   44.1180   25.2320  -13.8140 C   0  0  0  0  0  0  0  0  0  0  0  0
   43.6020   24.5840  -14.9480 C   0  0  0  0  0  0  0  0  0  0  0  0
   42.4480   25.0500  -15.5820 C   0  0  0  0  0  0  0  0  0  0  0  0
   41.7810   26.1830  -15.1080 C   0  0  0  0  0  0  0  0  0  0  0  0
   40.5430   26.6830  -15.7450 C   0  0  0  0  0  0  0  0  0  0  0  0
   39.7920   27.4940  -14.9000 O   0  0  0  0  0  0  0  0  0  0  0  0
   38.6200   28.0310  -15.3670 C   0  0  0  0  0  0  0  0  0  0  0  0
   37.8940   28.8300  -14.4830 C   0  0  0  0  0  0  0  0  0  0  0  0
   36.6910   29.4090  -14.8950 C   0  0  0  0  0  0  0  0  0  0  0  0
   36.2150   29.1880  -16.1880 C   0  0  0  0  0  0  0  0  0  0  0  0
   36.9420   28.3900  -17.0680 C   0  0  0  0  0  0  0  0  0  0  0  0
   36.4190   28.2160  -18.3210 O   0  0  0  0  0  0  0  0  0  0  0  0
   38.1450   27.8120  -16.6560 C   0  0  0  0  0  0  0  0  0  0  0  0
   38.9400   26.9680  -17.5490 C   0  0  0  0  0  0  0  0  0  0  0  0
   38.5910   26.7320  -18.7040 O   0  0  0  0  0  0  0  0  0  0  0  0
   40.1980   26.3980  -17.0130 C   0  0  0  0  0  0  0  0  0  0  0  0
   40.9490   25.6150  -17.8710 O   0  0  0  0  0  0  0  0  0  0  0  0
   42.2920   26.8280  -13.9720 C   0  0  0  0  0  0  0  0  0  0  0  0
   43.4580   26.3760  -13.3190 C   0  0  0  0  0  0  0  0  0  0  0  0
   43.9380   27.1150  -12.0910 C   0  0  0  0  0  0  0  0  0  0  0  0
   43.7330   26.4270  -10.9340 F   0  0  0  0  0  0  0  0  0  0  0  0
   45.2740   27.3960  -12.1120 F   0  0  0  0  0  0  0  0  0  0  0  0
   47.4708   26.3150  -13.1159 H   0  0  0  0  0  0  0  0  0  0  0  0
   48.2640   25.8931  -14.6714 H   0  0  0  0  0  0  0  0  0  0  0  0
   46.6988   26.7744  -14.6714 H   0  0  0  0  0  0  0  0  0  0  0  0
   46.1630   24.5074  -15.1928 H   0  0  0  0  0  0  0  0  0  0  0  0
   47.2523   23.8869  -13.8862 H   0  0  0  0  0  0  0  0  0  0  0  0
   45.1987   23.6520  -12.8583 H   0  0  0  0  0  0  0  0  0  0  0  0
   45.6548   25.3312  -12.3438 H   0  0  0  0  0  0  0  0  0  0  0  0
   44.1150   23.6949  -15.3434 H   0  0  0  0  0  0  0  0  0  0  0  0
   42.0599   24.5195  -16.4640 H   0  0  0  0  0  0  0  0  0  0  0  0
   38.2682   29.0038  -13.4633 H   0  0  0  0  0  0  0  0  0  0  0  0
   36.1184   30.0399  -14.1992 H   0  0  0  0  0  0  0  0  0  0  0  0
   35.2673   29.6432  -16.5116 H   0  0  0  0  0  0  0  0  0  0  0  0
   36.7750   28.6890  -19.0470 H   0  0  0  0  0  0  0  0  0  0  0  0
   40.5680   25.2880  -18.6620 H   0  0  0  0  0  0  0  0  0  0  0  0
   41.7684   27.7119  -13.5789 H   0  0  0  0  0  0  0  0  0  0  0  0
   43.3404   28.0382  -12.1166 H   0  0  0  0  0  0  0  0  0  0  0  0
  1  2  1  0
  2  3  1  0
  3  4  1  0
  4  5  2  0
  5  6  1  0
  6  7  2  0
  7  8  1  0
  8  9  1  0
  9 10  1  0
 10 11  2  0
 11 12  1  0
 12 13  2  0
 13 14  1  0
 14 15  1  0
 14 16  2  0
 16 17  1  0
 17 18  2  0
 17 19  1  0
 19 20  1  0
  7 21  1  0
 21 22  2  0
 22 23  1  0
 23 24  1  0
 23 25  1  0
 22  4  1  0
 19  8  2  0
 16 10  1  0
  1 26  1  0
  1 27  1  0
  1 28  1  0
  2 29  1  0
  2 30  1  0
  3 31  1  0
  3 32  1  0
  5 33  1  0
  6 34  1  0
 11 35  1  0
 12 36  1  0
 13 37  1  0
 15 38  1  0
 20 39  1  0
 21 40  1  0
 23 41  1  0
M  END
>  <meeko>  (1) 
{"is_sidechain": [false], "free_energy": -7.916, "intermolecular_energy": -10.23, "internal_energy": -0.236}

$$$$
cand_044_out
     RDKit          3D

 41 43  0  0  0  0  0  0  0  0999 V2000
   47.1480   26.2090  -13.8650 C   0  0  0  0  0  0  0  0  0  0  0  0
   46.5950   24.9170  -14.4470 C   0  0  0  0  0  0  0  0  0  0  0  0
   45.4320   24.3800  -13.6110 C   0  0  0  0  0  0  0  0  0  0  0  0
   44.1340   25.0920  -13.9280 C   0  0  0  0  0  0  0  0  0  0  0  0
   43.4480   24.7330  -15.1000 C   0  0  0  0  0  0  0  0  0  0  0  0
   42.2550   25.3620  -15.4590 C   0  0  0  0  0  0  0  0  0  0  0  0
   41.7170   26.3780  -14.6640 C   0  0  0  0  0  0  0  0  0  0  0  0
   40.4420   27.0450  -15.0070 C   0  0  0  0  0  0  0  0  0  0  0  0
   39.9780   26.7030  -16.2740 O   0  0  0  0  0  0  0  0  0  0  0  0
   38.8000   27.2470  -16.7170 C   0  0  0  0  0  0  0  0  0  0  0  0
   38.3780   26.8840  -17.9970 C   0  0  0  0  0  0  0  0  0  0  0  0
   37.1860   27.4020  -18.5090 C   0  0  0  0  0  0  0  0  0  0  0  0
   36.4180   28.2800  -17.7440 C   0  0  0  0  0  0  0  0  0  0  0  0
   36.8420   28.6410  -16.4670 C   0  0  0  0  0  0  0  0  0  0  0  0
   36.0410   29.5050  -15.7710 O   0  0  0  0  0  0  0  0  0  0  0  0
   38.0340   28.1230  -15.9550 C   0  0  0  0  0  0  0  0  0  0  0  0
   38.5150   28.4740  -14.6180 C   0  0  0  0  0  0  0  0  0  0  0  0
   37.8920   29.2360  -13.8810 O   0  0  0  0  0  0  0  0  0  0  0  0
   39.7930   27.8750  -14.1700 C   0  0  0  0  0  0  0  0  0  0  0  0
   40.2300   28.2020  -12.8990 O   0  0  0  0  0  0  0  0  0  0  0  0
   42.3970   26.7350  -13.4900 C   0  0  0  0  0  0  0  0  0  0  0  0
   43.6050   26.1130  -13.1110 C   0  0  0  0  0  0  0  0  0  0  0  0
   44.2720   26.5420  -11.8240 C   0  0  0  0  0  0  0  0  0  0  0  0
   44.8480   27.7740  -11.9020 F   0  0  0  0  0  0  0  0  0  0  0  0
   43.4160   26.6110  -10.7630 F   0  0  0  0  0  0  0  0  0  0  0  0
   47.1252   26.1556  -12.7665 H   0  0  0  0  0  0  0  0  0  0  0  0
   48.1851   26.3494  -14.2038 H   0  0  0  0  0  0  0  0  0  0  0  0
   46.5337   27.0562  -14.2038 H   0  0  0  0  0  0  0  0  0  0  0  0
   46.2412   25.1085  -15.4708 H   0  0  0  0  0  0  0  0  0  0  0  0
   47.3981   24.1653  -14.4452 H   0  0  0  0  0  0  0  0  0  0  0  0
   45.3094   23.3070  -13.8198 H   0  0  0  0  0  0  0  0  0  0  0  0
   45.6658   24.5529  -12.5501 H   0  0  0  0  0  0  0  0  0  0  0  0
   43.8581   23.9426  -15.7459 H   0  0  0  0  0  0  0  0  0  0  0  0
   41.7327   25.0550  -16.3771 H   0  0  0  0  0  0  0  0  0  0  0  0
   38.9827   26.1916  -18.6012 H   0  0  0  0  0  0  0  0  0  0  0  0
   36.8522   27.1169  -19.5176 H   0  0  0  0  0  0  0  0  0  0  0  0
   35.4793   28.6866  -18.1483 H   0  0  0  0  0  0  0  0  0  0  0  0
   35.1970   29.2250  -15.4740 H   0  0  0  0  0  0  0  0  0  0  0  0
   40.8900   27.6850  -12.4830 H   0  0  0  0  0  0  0  0  0  0  0  0
   41.9763   27.5221  -12.8469 H   0  0  0  0  0  0  0  0  0  0  0  0
   45.0270   25.7569  -11.6704 H   0  0  0  0  0  0  0  0  0  0  0  0
  1  2  1  0
  2  3  1  0
  3  4  1  0
  4  5  2  0
  5  6  1  0
  6  7  2  0
  7  8  1  0
  8  9  1  0
  9 10  1  0
 10 11  2  0
 11 12  1  0
 12 13  2  0
 13 14  1  0
 14 15  1  0
 14 16  2  0
 16 17  1  0
 17 18  2  0
 17 19  1  0
 19 20  1  0
  7 21  1  0
 21 22  2  0
 22 23  1  0
 23 24  1  0
 23 25  1  0
 22  4  1  0
 19  8  2  0
 16 10  1  0
  1 26  1  0
  1 27  1  0
  1 28  1  0
  2 29  1  0
  2 30  1  0
  3 31  1  0
  3 32  1  0
  5 33  1  0
  6 34  1  0
 11 35  1  0
 12 36  1  0
 13 37  1  0
 15 38  1  0
 20 39  1  0
 21 40  1  0
 23 41  1  0
M  END
>  <meeko>  (2) 
{"is_sidechain": [false], "free_energy": -6.805, "intermolecular_energy": -8.841, "internal_energy": -0.188}

$$$$
cand_044_out
     RDKit          3D

 41 43  0  0  0  0  0  0  0  0999 V2000
   34.6280   29.7030  -18.7010 C   0  0  0  0  0  0  0  0  0  0  0  0
   35.9200   29.5130  -17.9230 C   0  0  0  0  0  0  0  0  0  0  0  0
   36.4720   28.0960  -18.0930 C   0  0  0  0  0  0  0  0  0  0  0  0
   37.5920   27.8050  -17.1180 C   0  0  0  0  0  0  0  0  0  0  0  0
   38.5850   26.8880  -17.5000 C   0  0  0  0  0  0  0  0  0  0  0  0
   39.6360   26.5630  -16.6410 C   0  0  0  0  0  0  0  0  0  0  0  0
   39.7210   27.1350  -15.3690 C   0  0  0  0  0  0  0  0  0  0  0  0
   40.8370   26.8270  -14.4480 C   0  0  0  0  0  0  0  0  0  0  0  0
   41.9280   26.2560  -15.0940 O   0  0  0  0  0  0  0  0  0  0  0  0
   43.0360   25.9250  -14.3570 C   0  0  0  0  0  0  0  0  0  0  0  0
   44.1030   25.3450  -15.0440 C   0  0  0  0  0  0  0  0  0  0  0  0
   45.2620   24.9840  -14.3540 C   0  0  0  0  0  0  0  0  0  0  0  0
   45.3550   25.2040  -12.9780 C   0  0  0  0  0  0  0  0  0  0  0  0
   44.2880   25.7840  -12.2950 C   0  0  0  0  0  0  0  0  0  0  0  0
   44.4460   25.9710  -10.9490 O   0  0  0  0  0  0  0  0  0  0  0  0
   43.1290   26.1440  -12.9860 C   0  0  0  0  0  0  0  0  0  0  0  0
   41.9860   26.7560  -12.3070 C   0  0  0  0  0  0  0  0  0  0  0  0
   41.9930   26.9870  -11.1000 O   0  0  0  0  0  0  0  0  0  0  0  0
   40.8020   27.0960  -13.1300 C   0  0  0  0  0  0  0  0  0  0  0  0
   39.7350   27.6890  -12.4800 O   0  0  0  0  0  0  0  0  0  0  0  0
   38.7330   28.0560  -14.9870 C   0  0  0  0  0  0  0  0  0  0  0  0
   37.6620   28.3960  -15.8390 C   0  0  0  0  0  0  0  0  0  0  0  0
   36.6450   29.4070  -15.3620 C   0  0  0  0  0  0  0  0  0  0  0  0
   35.5960   28.8430  -14.6990 F   0  0  0  0  0  0  0  0  0  0  0  0
   37.1590   30.3330  -14.5000 F   0  0  0  0  0  0  0  0  0  0  0  0
   33.7912   29.8261  -17.9977 H   0  0  0  0  0  0  0  0  0  0  0  0
   34.7096   30.5988  -19.3341 H   0  0  0  0  0  0  0  0  0  0  0  0
   34.4482   28.8216  -19.3341 H   0  0  0  0  0  0  0  0  0  0  0  0
   36.6665   30.2339  -18.2878 H   0  0  0  0  0  0  0  0  0  0  0  0
   35.7082   29.6759  -16.8559 H   0  0  0  0  0  0  0  0  0  0  0  0
   35.6583   27.3751  -17.9251 H   0  0  0  0  0  0  0  0  0  0  0  0
   36.8764   28.0081  -19.1122 H   0  0  0  0  0  0  0  0  0  0  0  0
   38.5335   26.4179  -18.4932 H   0  0  0  0  0  0  0  0  0  0  0  0
   40.4057   25.8488  -16.9689 H   0  0  0  0  0  0  0  0  0  0  0  0
   44.0312   25.1723  -16.1280 H   0  0  0  0  0  0  0  0  0  0  0  0
   46.1030   24.5257  -14.8950 H   0  0  0  0  0  0  0  0  0  0  0  0
   46.2684   24.9201  -12.4347 H   0  0  0  0  0  0  0  0  0  0  0  0
   45.2310   25.6850  -10.5250 H   0  0  0  0  0  0  0  0  0  0  0  0
   39.8590   28.4850  -12.0050 H   0  0  0  0  0  0  0  0  0  0  0  0
   38.7960   28.5261  -13.9945 H   0  0  0  0  0  0  0  0  0  0  0  0
   36.3179   29.8801  -16.2997 H   0  0  0  0  0  0  0  0  0  0  0  0
  1  2  1  0
  2  3  1  0
  3  4  1  0
  4  5  2  0
  5  6  1  0
  6  7  2  0
  7  8  1  0
  8  9  1  0
  9 10  1  0
 10 11  2  0
 11 12  1  0
 12 13  2  0
 13 14  1  0
 14 15  1  0
 14 16  2  0
 16 17  1  0
 17 18  2  0
 17 19  1  0
 19 20  1  0
  7 21  1  0
 21 22  2  0
 22 23  1  0
 23 24  1  0
 23 25  1  0
 22  4  1  0
 19  8  2  0
 16 10  1  0
  1 26  1  0
  1 27  1  0
  1 28  1  0
  2 29  1  0
  2 30  1  0
  3 31  1  0
  3 32  1  0
  5 33  1  0
  6 34  1  0
 11 35  1  0
 12 36  1  0
 13 37  1  0
 15 38  1  0
 20 39  1  0
 21 40  1  0
 23 41  1  0
M  END
>  <meeko>  (3) 
{"is_sidechain": [false], "free_energy": -5.325, "intermolecular_energy": -7.949, "internal_energy": 0.832}

$$$$
cand_044_out
     RDKit          3D

 41 43  0  0  0  0  0  0  0  0999 V2000
   34.5640   29.5630  -19.0300 C   0  0  0  0  0  0  0  0  0  0  0  0
   35.8820   29.5470  -18.2710 C   0  0  0  0  0  0  0  0  0  0  0  0
   35.6580   29.3560  -16.7690 C   0  0  0  0  0  0  0  0  0  0  0  0
   36.8910   28.8120  -16.0800 C   0  0  0  0  0  0  0  0  0  0  0  0
   37.1640   29.2420  -14.7710 C   0  0  0  0  0  0  0  0  0  0  0  0
   38.2950   28.7920  -14.0850 C   0  0  0  0  0  0  0  0  0  0  0  0
   39.1920   27.9090  -14.6910 C   0  0  0  0  0  0  0  0  0  0  0  0
   40.3840   27.3970  -13.9790 C   0  0  0  0  0  0  0  0  0  0  0  0
   41.3150   26.8170  -14.8340 O   0  0  0  0  0  0  0  0  0  0  0  0
   42.4730   26.3060  -14.3060 C   0  0  0  0  0  0  0  0  0  0  0  0
   43.3740   25.7250  -15.1980 C   0  0  0  0  0  0  0  0  0  0  0  0
   44.5730   25.1860  -14.7260 C   0  0  0  0  0  0  0  0  0  0  0  0
   44.8700   25.2280  -13.3630 C   0  0  0  0  0  0  0  0  0  0  0  0
   43.9680   25.8090  -12.4740 C   0  0  0  0  0  0  0  0  0  0  0  0
   44.3220   25.8180  -11.1520 O   0  0  0  0  0  0  0  0  0  0  0  0
   42.7700   26.3480  -12.9470 C   0  0  0  0  0  0  0  0  0  0  0  0
   41.7960   26.9690  -12.0480 C   0  0  0  0  0  0  0  0  0  0  0  0
   41.9870   27.0500  -10.8360 O   0  0  0  0  0  0  0  0  0  0  0  0
   40.5530   27.5060  -12.6490 C   0  0  0  0  0  0  0  0  0  0  0  0
   39.6480   28.1040  -11.7920 O   0  0  0  0  0  0  0  0  0  0  0  0
   38.9190   27.4750  -15.9970 C   0  0  0  0  0  0  0  0  0  0  0  0
   37.7840   27.9190  -16.7070 C   0  0  0  0  0  0  0  0  0  0  0  0
   37.5500   27.3950  -18.1050 C   0  0  0  0  0  0  0  0  0  0  0  0
   38.6950   27.2690  -18.8320 F   0  0  0  0  0  0  0  0  0  0  0  0
   36.9680   26.1600  -18.1350 F   0  0  0  0  0  0  0  0  0  0  0  0
   33.7288   29.5731  -18.3142 H   0  0  0  0  0  0  0  0  0  0  0  0
   34.5159   30.4618  -19.6623 H   0  0  0  0  0  0  0  0  0  0  0  0
   34.4941   28.6656  -19.6623 H   0  0  0  0  0  0  0  0  0  0  0  0
   36.5025   28.7209  -18.6484 H   0  0  0  0  0  0  0  0  0  0  0  0
   36.3833   30.5137  -18.4265 H   0  0  0  0  0  0  0  0  0  0  0  0
   35.3996   30.3271  -16.3215 H   0  0  0  0  0  0  0  0  0  0  0  0
   34.8435   28.6289  -16.6352 H   0  0  0  0  0  0  0  0  0  0  0  0
   36.4761   29.9446  -14.2778 H   0  0  0  0  0  0  0  0  0  0  0  0
   38.4810   29.1366  -13.0571 H   0  0  0  0  0  0  0  0  0  0  0  0
   43.1406   25.6913  -16.2724 H   0  0  0  0  0  0  0  0  0  0  0  0
   45.2840   24.7279  -15.4293 H   0  0  0  0  0  0  0  0  0  0  0  0
   45.8142   24.8033  -12.9913 H   0  0  0  0  0  0  0  0  0  0  0  0
   45.1700   26.1240  -10.8960 H   0  0  0  0  0  0  0  0  0  0  0  0
   39.8310   28.9480  -11.4310 H   0  0  0  0  0  0  0  0  0  0  0  0
   39.6096   26.7686  -16.4808 H   0  0  0  0  0  0  0  0  0  0  0  0
   36.8837   28.1560  -18.5374 H   0  0  0  0  0  0  0  0  0  0  0  0
  1  2  1  0
  2  3  1  0
  3  4  1  0
  4  5  2  0
  5  6  1  0
  6  7  2  0
  7  8  1  0
  8  9  1  0
  9 10  1  0
 10 11  2  0
 11 12  1  0
 12 13  2  0
 13 14  1  0
 14 15  1  0
 14 16  2  0
 16 17  1  0
 17 18  2  0
 17 19  1  0
 19 20  1  0
  7 21  1  0
 21 22  2  0
 22 23  1  0
 23 24  1  0
 23 25  1  0
 22  4  1  0
 19  8  2  0
 16 10  1  0
  1 26  1  0
  1 27  1  0
  1 28  1  0
  2 29  1  0
  2 30  1  0
  3 31  1  0
  3 32  1  0
  5 33  1  0
  6 34  1  0
 11 35  1  0
 12 36  1  0
 13 37  1  0
 15 38  1  0
 20 39  1  0
 21 40  1  0
 23 41  1  0
M  END
>  <meeko>  (4) 
{"is_sidechain": [false], "free_energy": -5.109, "intermolecular_energy": -7.478, "internal_energy": 0.639}

$$$$
