cand_012_out
     RDKit          3D

 40 42  0  0  0  0  0  0  0  0999 V2000
   46.4220   25.9460  -13.5650 C   0  0  0  0  0  0  0  0  0  0  0  0
   45.2670   25.0950  -13.2660 N   0  0  0  0  0  0  0  0  0  0  0  0
   45.5190   23.6600  -13.4360 C   0  0  0  0  0  0  0  0  0  0  0  0
   44.0870   25.5050  -13.9140 C   0  0  0  0  0  0  0  0  0  0  0  0
   43.8100   25.1480  -15.2430 C   0  0  0  0  0  0  0  0  0  0  0  0
   42.6300   25.5540  -15.8750 C   0  0  0  0  0  0  0  0  0  0  0  0
   41.6840   26.3230  -15.1920 C   0  0  0  0  0  0  0  0  0  0  0  0
   40.4410   26.7880  -15.8420 C   0  0  0  0  0  0  0  0  0  0  0  0
   39.6590   27.5800  -15.0080 O   0  0  0  0  0  0  0  0  0  0  0  0
   38.4730   28.0770  -15.4840 C   0  0  0  0  0  0  0  0  0  0  0  0
   37.7270   28.8760  -14.6170 C   0  0  0  0  0  0  0  0  0  0  0  0
   36.5090   29.4130  -15.0400 C   0  0  0  0  0  0  0  0  0  0  0  0
   36.0380   29.1520  -16.3280 C   0  0  0  0  0  0  0  0  0  0  0  0
   36.7850   28.3540  -17.1910 C   0  0  0  0  0  0  0  0  0  0  0  0
   36.2650   28.1380  -18.4380 O   0  0  0  0  0  0  0  0  0  0  0  0
   38.0040   27.8180  -16.7680 C   0  0  0  0  0  0  0  0  0  0  0  0
   38.8190   26.9730  -17.6430 C   0  0  0  0  0  0  0  0  0  0  0  0
   38.4700   26.6930  -18.7880 O   0  0  0  0  0  0  0  0  0  0  0  0
   40.0970   26.4580  -17.1010 C   0  0  0  0  0  0  0  0  0  0  0  0
   40.8530   25.6490  -17.9300 O   0  0  0  0  0  0  0  0  0  0  0  0
   41.9600   26.6880  -13.8670 C   0  0  0  0  0  0  0  0  0  0  0  0
   43.1470   26.2850  -13.2160 C   0  0  0  0  0  0  0  0  0  0  0  0
   43.3930   26.7020  -11.7880 C   0  0  0  0  0  0  0  0  0  0  0  0
   43.8220   25.6850  -10.9850 F   0  0  0  0  0  0  0  0  0  0  0  0
   42.2630   27.1750  -11.1750 F   0  0  0  0  0  0  0  0  0  0  0  0
   44.3030   27.7100  -11.6590 F   0  0  0  0  0  0  0  0  0  0  0  0
   46.8813   26.2844  -12.6245 H   0  0  0  0  0  0  0  0  0  0  0  0
   47.1586   25.3731  -14.1474 H   0  0  0  0  0  0  0  0  0  0  0  0
   46.0931   26.8192  -14.1474 H   0  0  0  0  0  0  0  0  0  0  0  0
   45.6028   23.1829  -12.4484 H   0  0  0  0  0  0  0  0  0  0  0  0
   44.6870   23.2051  -13.9935 H   0  0  0  0  0  0  0  0  0  0  0  0
   46.4562   23.5158  -13.9935 H   0  0  0  0  0  0  0  0  0  0  0  0
   44.5358   24.5364  -15.7989 H   0  0  0  0  0  0  0  0  0  0  0  0
   42.4449   25.2650  -16.9201 H   0  0  0  0  0  0  0  0  0  0  0  0
   38.0974   29.0827  -13.6021 H   0  0  0  0  0  0  0  0  0  0  0  0
   35.9198   30.0427  -14.3571 H   0  0  0  0  0  0  0  0  0  0  0  0
   35.0789   29.5757  -16.6605 H   0  0  0  0  0  0  0  0  0  0  0  0
   36.4300   27.3290  -18.8810 H   0  0  0  0  0  0  0  0  0  0  0  0
   40.8450   25.7910  -18.8560 H   0  0  0  0  0  0  0  0  0  0  0  0
   41.2324   27.3050  -13.3194 H   0  0  0  0  0  0  0  0  0  0  0  0
  1  2  1  0
  2  3  1  0
  2  4  1  0
  4  5  2  0
  5  6  1  0
  6  7  2  0
  7  8  1  0
  8  9  1  0
  9 10  1  0
 10 11  2  0
 11 12  1  0
 12 13  2  0
 13 14  1  0
 14 15  1  0
 14 16  2  0
 16 17  1  0
 17 18  2  0
 17 19  1  0
 19 20  1  0
  7 21  1  0
 21 22  2  0
 22 23  1  0
 23 24  1  0
 23 25  1  0
 23 26  1  0
 22  4  1  0
 19  8  2  0
 16 10  1  0
  1 27  1  0
  1 28  1  0
  1 29  1  0
  3 30  1  0
  3 31  1  0
  3 32  1  0
  5 33  1  0
  6 34  1  0
 11 35  1  0
 12 36  1  0
 13 37  1  0
 15 38  1  0
 20 39  1  0
 21 40  1  0
M  END
>  <meeko>  (1) 
{"is_sidechain": [false], "free_energy": -5.313, "intermolecular_energy": -6.556, "internal_energy": 0.121}

$$$$
cand_012_out
     RDKit          3D

 40 42  0  0  0  0  0  0  0  0999 V2000
   46.1430   25.8760  -13.8100 C   0  0  0  0  0  0  0  0  0  0  0  0
   44.9870   25.0400  -13.4710 N   0  0  0  0  0  0  0  0  0  0  0  0
   45.1500   23.6230  -13.8150 C   0  0  0  0  0  0  0  0  0  0  0  0
   43.7640   25.5610  -13.9340 C   0  0  0  0  0  0  0  0  0  0  0  0
   43.3000   25.3110  -15.2350 C   0  0  0  0  0  0  0  0  0  0  0  0
   42.0790   25.8260  -15.6830 C   0  0  0  0  0  0  0  0  0  0  0  0
   41.2790   26.5990  -14.8390 C   0  0  0  0  0  0  0  0  0  0  0  0
   39.9970   27.1780  -15.2920 C   0  0  0  0  0  0  0  0  0  0  0  0
   39.6230   26.7390  -16.5580 O   0  0  0  0  0  0  0  0  0  0  0  0
   38.4530   27.2020  -17.1030 C   0  0  0  0  0  0  0  0  0  0  0  0
   38.1120   26.7260  -18.3690 C   0  0  0  0  0  0  0  0  0  0  0  0
   36.9330   27.1590  -18.9810 C   0  0  0  0  0  0  0  0  0  0  0  0
   36.0970   28.0660  -18.3270 C   0  0  0  0  0  0  0  0  0  0  0  0
   36.4410   28.5390  -17.0640 C   0  0  0  0  0  0  0  0  0  0  0  0
   35.5770   29.4260  -16.4810 O   0  0  0  0  0  0  0  0  0  0  0  0
   37.6190   28.1060  -16.4510 C   0  0  0  0  0  0  0  0  0  0  0  0
   38.0180   28.5790  -15.1250 C   0  0  0  0  0  0  0  0  0  0  0  0
   37.3390   29.3830  -14.4880 O   0  0  0  0  0  0  0  0  0  0  0  0
   39.2830   28.0550  -14.5620 C   0  0  0  0  0  0  0  0  0  0  0  0
   39.6590   28.5200  -13.3150 O   0  0  0  0  0  0  0  0  0  0  0  0
   41.7420   26.8570  -13.5400 C   0  0  0  0  0  0  0  0  0  0  0  0
   42.9720   26.3430  -13.0750 C   0  0  0  0  0  0  0  0  0  0  0  0
   43.4240   26.6480  -11.6680 C   0  0  0  0  0  0  0  0  0  0  0  0
   44.3780   27.6200  -11.5960 F   0  0  0  0  0  0  0  0  0  0  0  0
   43.9870   25.5620  -11.0500 F   0  0  0  0  0  0  0  0  0  0  0  0
   42.4120   27.0310  -10.8370 F   0  0  0  0  0  0  0  0  0  0  0  0
   46.6263   26.2255  -12.8858 H   0  0  0  0  0  0  0  0  0  0  0  0
   46.8612   25.2870  -14.3993 H   0  0  0  0  0  0  0  0  0  0  0  0
   45.8086   26.7426  -14.3993 H   0  0  0  0  0  0  0  0  0  0  0  0
   45.2185   23.0273  -12.8928 H   0  0  0  0  0  0  0  0  0  0  0  0
   44.2846   23.2870  -14.4051 H   0  0  0  0  0  0  0  0  0  0  0  0
   46.0691   23.4923  -14.4051 H   0  0  0  0  0  0  0  0  0  0  0  0
   43.9087   24.6979  -15.9158 H   0  0  0  0  0  0  0  0  0  0  0  0
   41.7456   25.6199  -16.7108 H   0  0  0  0  0  0  0  0  0  0  0  0
   38.7701   26.0111  -18.8846 H   0  0  0  0  0  0  0  0  0  0  0  0
   36.6630   26.7848  -19.9795 H   0  0  0  0  0  0  0  0  0  0  0  0
   35.1685   28.4061  -18.8089 H   0  0  0  0  0  0  0  0  0  0  0  0
   34.9500   29.1260  -15.8530 H   0  0  0  0  0  0  0  0  0  0  0  0
   40.3940   29.0950  -13.2320 H   0  0  0  0  0  0  0  0  0  0  0  0
   41.1309   27.4757  -12.8664 H   0  0  0  0  0  0  0  0  0  0  0  0
  1  2  1  0
  2  3  1  0
  2  4  1  0
  4  5  2  0
  5  6  1  0
  6  7  2  0
  7  8  1  0
  8  9  1  0
  9 10  1  0
 10 11  2  0
 11 12  1  0
 12 13  2  0
 13 14  1  0
 14 15  1  0
 14 16  2  0
 16 17  1  0
 17 18  2  0
 17 19  1  0
 19 20  1  0
  7 21  1  0
 21 22  2  0
 22 23  1  0
 23 24  1  0
 23 25  1  0
 23 26  1  0
 22  4  1  0
 19  8  2  0
 16 10  1  0
  1 27  1  0
  1 28  1  0
  1 29  1  0
  3 30  1  0
  3 31  1  0
  3 32  1  0
  5 33  1  0
  6 34  1  0
 11 35  1  0
 12 36  1  0
 13 37  1  0
 15 38  1  0
 20 39  1  0
 21 40  1  0
M  END
>  <meeko>  (2) 
{"is_sidechain": [false], "free_energy": -4.049, "intermolecular_energy": -5.172, "internal_energy": 0.298}

$$$$
cand_012_out
     RDKit          3D

 40 42  0  0  0  0  0  0  0  0999 V2000
   45.8460   24.4130  -12.2600 C   0  0  0  0  0  0  0  0  0  0  0  0
   45.5170   24.4280  -13.6880 N   0  0  0  0  0  0  0  0  0  0  0  0
   46.5940   24.9350  -14.5460 C   0  0  0  0  0  0  0  0  0  0  0  0
   44.2820   25.0420  -13.9710 C   0  0  0  0  0  0  0  0  0  0  0  0
   43.2000   24.3180  -14.4960 C   0  0  0  0  0  0  0  0  0  0  0  0
   41.9740   24.9360  -14.7650 C   0  0  0  0  0  0  0  0  0  0  0  0
   41.7900   26.2970  -14.5090 C   0  0  0  0  0  0  0  0  0  0  0  0
   40.5150   26.9820  -14.8080 C   0  0  0  0  0  0  0  0  0  0  0  0
   40.0560   26.7310  -16.0960 O   0  0  0  0  0  0  0  0  0  0  0  0
   38.8820   27.3090  -16.5070 C   0  0  0  0  0  0  0  0  0  0  0  0
   38.4530   27.0200  -17.8030 C   0  0  0  0  0  0  0  0  0  0  0  0
   37.2660   27.5770  -18.2840 C   0  0  0  0  0  0  0  0  0  0  0  0
   36.5090   28.4220  -17.4700 C   0  0  0  0  0  0  0  0  0  0  0  0
   36.9410   28.7090  -16.1770 C   0  0  0  0  0  0  0  0  0  0  0  0
   36.1510   29.5450  -15.4340 O   0  0  0  0  0  0  0  0  0  0  0  0
   38.1270   28.1510  -15.6960 C   0  0  0  0  0  0  0  0  0  0  0  0
   38.6170   28.4270  -14.3450 C   0  0  0  0  0  0  0  0  0  0  0  0
   38.0110   29.1650  -13.5700 O   0  0  0  0  0  0  0  0  0  0  0  0
   39.8830   27.7820  -13.9290 C   0  0  0  0  0  0  0  0  0  0  0  0
   40.3450   28.0610  -12.6560 O   0  0  0  0  0  0  0  0  0  0  0  0
   42.8710   27.0250  -13.9910 C   0  0  0  0  0  0  0  0  0  0  0  0
   44.1140   26.4140  -13.7150 C   0  0  0  0  0  0  0  0  0  0  0  0
   45.2440   27.2420  -13.1560 C   0  0  0  0  0  0  0  0  0  0  0  0
   45.6490   26.8510  -11.9130 F   0  0  0  0  0  0  0  0  0  0  0  0
   44.9080   28.5630  -13.0110 F   0  0  0  0  0  0  0  0  0  0  0  0
   46.3580   27.2550  -13.9430 F   0  0  0  0  0  0  0  0  0  0  0  0
   44.9188   24.4553  -11.6696 H   0  0  0  0  0  0  0  0  0  0  0  0
   46.3922   23.4890  -12.0192 H   0  0  0  0  0  0  0  0  0  0  0  0
   46.4740   25.2834  -12.0192 H   0  0  0  0  0  0  0  0  0  0  0  0
   47.4118   25.3200  -13.9191 H   0  0  0  0  0  0  0  0  0  0  0  0
   46.9713   24.1199  -15.1811 H   0  0  0  0  0  0  0  0  0  0  0  0
   46.2063   25.7452  -15.1811 H   0  0  0  0  0  0  0  0  0  0  0  0
   43.3184   23.2436  -14.6999 H   0  0  0  0  0  0  0  0  0  0  0  0
   41.1462   24.3440  -15.1825 H   0  0  0  0  0  0  0  0  0  0  0  0
   39.0489   26.3544  -18.4449 H   0  0  0  0  0  0  0  0  0  0  0  0
   36.9270   27.3497  -19.3055 H   0  0  0  0  0  0  0  0  0  0  0  0
   35.5738   28.8600  -17.8488 H   0  0  0  0  0  0  0  0  0  0  0  0
   35.3040   29.2610  -15.1520 H   0  0  0  0  0  0  0  0  0  0  0  0
   39.7380   28.1440  -11.9460 H   0  0  0  0  0  0  0  0  0  0  0  0
   42.7475   28.1002  -13.7945 H   0  0  0  0  0  0  0  0  0  0  0  0
  1  2  1  0
  2  3  1  0
  2  4  1  0
  4  5  2  0
  5  6  1  0
  6  7  2  0
  7  8  1  0
  8  9  1  0
  9 10  1  0
 10 11  2  0
 11 12  1  0
 12 13  2  0
 13 14  1  0
 14 15  1  0
 14 16  2  0
 16 17  1  0
 17 18  2  0
 17 19  1  0
 19 20  1  0
  7 21  1  0
 21 22  2  0
 22 23  1  0
 23 24  1  0
 23 25  1  0
 23 26  1  0
 22  4  1  0
 19  8  2  0
 16 10  1  0
  1 27  1  0
  1 28  1  0
  1 29  1  0
  3 30  1  0
  3 31  1  0
  3 32  1  0
  5 33  1  0
  6 34  1  0
 11 35  1  0
 12 36  1  0
 13 37  1  0
 15 38  1  0
 20 39  1  0
 21 40  1  0
M  END
>  <meeko>  (3) 
{"is_sidechain": [false], "free_energy": -3.415, "intermolecular_energy": -6.391, "internal_energy": 2.298}

$$$$
cand_012_out
     RDKit          3D

 40 42  0  0  0  0  0  0  0  0999 V2000
   42.2820   26.5850  -10.8000 C   0  0  0  0  0  0  0  0  0  0  0  0
   42.8200   26.5890  -12.1640 N   0  0  0  0  0  0  0  0  0  0  0  0
   43.9620   27.4890  -12.3550 C   0  0  0  0  0  0  0  0  0  0  0  0
   41.8340   26.7670  -13.1540 C   0  0  0  0  0  0  0  0  0  0  0  0
   40.7020   27.5680  -12.9360 C   0  0  0  0  0  0  0  0  0  0  0  0
   39.7340   27.7440  -13.9290 C   0  0  0  0  0  0  0  0  0  0  0  0
   39.8730   27.1320  -15.1770 C   0  0  0  0  0  0  0  0  0  0  0  0
   38.8530   27.2790  -16.2370 C   0  0  0  0  0  0  0  0  0  0  0  0
   37.9940   28.3490  -16.0150 O   0  0  0  0  0  0  0  0  0  0  0  0
   36.9950   28.5990  -16.9220 C   0  0  0  0  0  0  0  0  0  0  0  0
   36.1650   29.6900  -16.6660 C   0  0  0  0  0  0  0  0  0  0  0  0
   35.1280   29.9980  -17.5500 C   0  0  0  0  0  0  0  0  0  0  0  0
   34.9220   29.2160  -18.6870 C   0  0  0  0  0  0  0  0  0  0  0  0
   35.7530   28.1270  -18.9400 C   0  0  0  0  0  0  0  0  0  0  0  0
   35.4950   27.4030  -20.0720 O   0  0  0  0  0  0  0  0  0  0  0  0
   36.7900   27.8200  -18.0560 C   0  0  0  0  0  0  0  0  0  0  0  0
   37.6850   26.6840  -18.2840 C   0  0  0  0  0  0  0  0  0  0  0  0
   37.5650   25.9450  -19.2590 O   0  0  0  0  0  0  0  0  0  0  0  0
   38.7570   26.4460  -17.2900 C   0  0  0  0  0  0  0  0  0  0  0  0
   39.5880   25.3620  -17.5060 O   0  0  0  0  0  0  0  0  0  0  0  0
   40.9990   26.3250  -15.3970 C   0  0  0  0  0  0  0  0  0  0  0  0
   41.9840   26.1380  -14.4030 C   0  0  0  0  0  0  0  0  0  0  0  0
   43.1780   25.2620  -14.6920 C   0  0  0  0  0  0  0  0  0  0  0  0
   44.3540   25.7610  -14.2120 F   0  0  0  0  0  0  0  0  0  0  0  0
   43.3950   25.0930  -16.0340 F   0  0  0  0  0  0  0  0  0  0  0  0
   43.0620   23.9950  -14.1990 F   0  0  0  0  0  0  0  0  0  0  0  0
   43.1122   26.5912  -10.0784 H   0  0  0  0  0  0  0  0  0  0  0  0
   41.6584   27.4785  -10.6492 H   0  0  0  0  0  0  0  0  0  0  0  0
   41.6718   25.6823  -10.6492 H   0  0  0  0  0  0  0  0  0  0  0  0
   44.3536   27.7976  -11.3745 H   0  0  0  0  0  0  0  0  0  0  0  0
   44.7504   26.9668  -12.9169 H   0  0  0  0  0  0  0  0  0  0  0  0
   43.6386   28.3776  -12.9169 H   0  0  0  0  0  0  0  0  0  0  0  0
   40.5741   28.0672  -11.9642 H   0  0  0  0  0  0  0  0  0  0  0  0
   38.8535   28.3711  -13.7255 H   0  0  0  0  0  0  0  0  0  0  0  0
   36.3265   30.3069  -15.7697 H   0  0  0  0  0  0  0  0  0  0  0  0
   34.4728   30.8585  -17.3493 H   0  0  0  0  0  0  0  0  0  0  0  0
   34.1050   29.4589  -19.3823 H   0  0  0  0  0  0  0  0  0  0  0  0
   35.4960   26.4670  -20.0400 H   0  0  0  0  0  0  0  0  0  0  0  0
   39.4780   24.8330  -18.2720 H   0  0  0  0  0  0  0  0  0  0  0  0
   41.1177   25.8247  -16.3695 H   0  0  0  0  0  0  0  0  0  0  0  0
  1  2  1  0
  2  3  1  0
  2  4  1  0
  4  5  2  0
  5  6  1  0
  6  7  2  0
  7  8  1  0
  8  9  1  0
  9 10  1  0
 10 11  2  0
 11 12  1  0
 12 13  2  0
 13 14  1  0
 14 15  1  0
 14 16  2  0
 16 17  1  0
 17 18  2  0
 17 19  1  0
 19 20  1  0
  7 21  1  0
 21 22  2  0
 22 23  1  0
 23 24  1  0
 23 25  1  0
 23 26  1  0
 22  4  1  0
 19  8  2  0
 16 10  1  0
  1 27  1  0
  1 28  1  0
  1 29  1  0
  3 30  1  0
  3 31  1  0
  3 32  1  0
  5 33  1  0
  6 34  1  0
 11 35  1  0
 12 36  1  0
 13 37  1  0
 15 38  1  0
 20 39  1  0
 21 40  1  0
M  END
>  <meeko>  (4) 
{"is_sidechain": [false], "free_energy": -2.333, "intermolecular_energy": -3.805, "internal_energy": 1.047}

$$$$
