cand_010_out
     RDKit          3D

 35 37  0  0  0  0  0  0  0  0999 V2000
   38.6060   26.7170  -18.7030 O   0  0  0  0  0  0  0  0  0  0  0  0
   38.9650   26.9350  -17.5470 C   0  0  0  0  0  0  0  0  0  0  0  0
   40.2170   26.3390  -17.0260 C   0  0  0  0  0  0  0  0  0  0  0  0
   40.9520   25.5540  -17.8950 O   0  0  0  0  0  0  0  0  0  0  0  0
   40.5750   26.6060  -15.7560 C   0  0  0  0  0  0  0  0  0  0  0  0
   41.8080   26.0750  -15.1360 C   0  0  0  0  0  0  0  0  0  0  0  0
   42.2820   24.7910  -15.4220 C   0  0  0  0  0  0  0  0  0  0  0  0
   43.4360   24.3000  -14.8030 C   0  0  0  0  0  0  0  0  0  0  0  0
   44.1420   25.0770  -13.8730 C   0  0  0  0  0  0  0  0  0  0  0  0
   45.3880   24.5120  -13.2320 C   0  0  0  0  0  0  0  0  0  0  0  0
   46.4400   24.4100  -14.0950 F   0  0  0  0  0  0  0  0  0  0  0  0
   43.6760   26.3750  -13.5700 C   0  0  0  0  0  0  0  0  0  0  0  0
   44.3960   27.2550  -12.5730 C   0  0  0  0  0  0  0  0  0  0  0  0
   45.7540   27.2120  -12.6780 F   0  0  0  0  0  0  0  0  0  0  0  0
   44.0550   28.5670  -12.7010 F   0  0  0  0  0  0  0  0  0  0  0  0
   44.1120   26.9220  -11.2840 F   0  0  0  0  0  0  0  0  0  0  0  0
   42.5090   26.8530  -14.2010 C   0  0  0  0  0  0  0  0  0  0  0  0
   39.8460   27.4210  -14.8990 O   0  0  0  0  0  0  0  0  0  0  0  0
   38.6770   27.9790  -15.3500 C   0  0  0  0  0  0  0  0  0  0  0  0
   37.9690   28.7780  -14.4520 C   0  0  0  0  0  0  0  0  0  0  0  0
   36.7720   29.3780  -14.8480 C   0  0  0  0  0  0  0  0  0  0  0  0
   36.2830   29.1790  -16.1410 C   0  0  0  0  0  0  0  0  0  0  0  0
   36.9910   28.3810  -17.0350 C   0  0  0  0  0  0  0  0  0  0  0  0
   36.4570   28.2290  -18.2860 O   0  0  0  0  0  0  0  0  0  0  0  0
   38.1890   27.7800  -16.6390 C   0  0  0  0  0  0  0  0  0  0  0  0
   41.8620   25.7350  -18.0350 H   0  0  0  0  0  0  0  0  0  0  0  0
   41.7409   24.1597  -16.1422 H   0  0  0  0  0  0  0  0  0  0  0  0
   43.7951   23.2898  -15.0491 H   0  0  0  0  0  0  0  0  0  0  0  0
   45.6813   25.1691  -12.4000 H   0  0  0  0  0  0  0  0  0  0  0  0
   45.1463   23.4945  -12.8911 H   0  0  0  0  0  0  0  0  0  0  0  0
   42.1392   27.8593  -13.9548 H   0  0  0  0  0  0  0  0  0  0  0  0
   38.3532   28.9351  -13.4333 H   0  0  0  0  0  0  0  0  0  0  0  0
   36.2133   30.0084  -14.1405 H   0  0  0  0  0  0  0  0  0  0  0  0
   35.3400   29.6521  -16.4523 H   0  0  0  0  0  0  0  0  0  0  0  0
   35.9400   27.4730  -18.4850 H   0  0  0  0  0  0  0  0  0  0  0  0
  1  2  2  0
  2  3  1  0
  3  4  1  0
  3  5  2  0
  5  6  1  0
  6  7  2  0
  7  8  1  0
  8  9  2  0
  9 10  1  0
 10 11  1  0
  9 12  1  0
 12 13  1  0
 13 14  1  0
 13 15  1  0
 13 16  1  0
 12 17  2  0
  5 18  1  0
 18 19  1  0
 19 20  2  0
 20 21  1  0
 21 22  2  0
 22 23  1  0
 23 24  1  0
 23 25  2  0
 25  2  1  0
 17  6  1  0
 25 19  1  0
  4 26  1  0
  7 27  1  0
  8 28  1  0
 10 29  1  0
 10 30  1  0
 17 31  1  0
 20 32  1  0
 21 33  1  0
 22 34  1  0
 24 35  1  0
M  END
>  <meeko>  (1) 
{"is_sidechain": [false], "free_energy": -7.484, "intermolecular_energy": -9.234, "internal_energy": 0.013}

$$$$
cand_010_out
     RDKit          3D

 35 37  0  0  0  0  0  0  0  0999 V2000
   41.3920   27.2890  -11.4040 O   0  0  0  0  0  0  0  0  0  0  0  0
   41.5010   26.9520  -12.5820 C   0  0  0  0  0  0  0  0  0  0  0  0
   40.3790   27.1510  -13.5270 C   0  0  0  0  0  0  0  0  0  0  0  0
   39.2300   27.7380  -13.0280 O   0  0  0  0  0  0  0  0  0  0  0  0
   40.5420   26.7710  -14.8080 C   0  0  0  0  0  0  0  0  0  0  0  0
   39.4940   26.9330  -15.8390 C   0  0  0  0  0  0  0  0  0  0  0  0
   39.4220   26.0900  -16.9520 C   0  0  0  0  0  0  0  0  0  0  0  0
   38.4390   26.2770  -17.9290 C   0  0  0  0  0  0  0  0  0  0  0  0
   37.5070   27.3190  -17.8230 C   0  0  0  0  0  0  0  0  0  0  0  0
   36.4550   27.4840  -18.8960 C   0  0  0  0  0  0  0  0  0  0  0  0
   36.5840   26.5900  -19.9190 F   0  0  0  0  0  0  0  0  0  0  0  0
   37.5660   28.1820  -16.7060 C   0  0  0  0  0  0  0  0  0  0  0  0
   36.5890   29.3240  -16.5430 C   0  0  0  0  0  0  0  0  0  0  0  0
   35.4270   29.1590  -17.2350 F   0  0  0  0  0  0  0  0  0  0  0  0
   36.2250   29.5100  -15.2440 F   0  0  0  0  0  0  0  0  0  0  0  0
   37.1040   30.5130  -16.9580 F   0  0  0  0  0  0  0  0  0  0  0  0
   38.5670   27.9800  -15.7330 C   0  0  0  0  0  0  0  0  0  0  0  0
   41.7110   26.2090  -15.3080 O   0  0  0  0  0  0  0  0  0  0  0  0
   42.7650   26.0040  -14.4540 C   0  0  0  0  0  0  0  0  0  0  0  0
   43.9130   25.4250  -14.9950 C   0  0  0  0  0  0  0  0  0  0  0  0
   45.0230   25.1900  -14.1810 C   0  0  0  0  0  0  0  0  0  0  0  0
   44.9850   25.5340  -12.8280 C   0  0  0  0  0  0  0  0  0  0  0  0
   43.8370   26.1120  -12.2910 C   0  0  0  0  0  0  0  0  0  0  0  0
   43.8680   26.4250  -10.9590 O   0  0  0  0  0  0  0  0  0  0  0  0
   42.7270   26.3470  -13.1060 C   0  0  0  0  0  0  0  0  0  0  0  0
   39.0770   28.6540  -13.1610 H   0  0  0  0  0  0  0  0  0  0  0  0
   40.1471   25.2700  -17.0605 H   0  0  0  0  0  0  0  0  0  0  0  0
   38.3965   25.5971  -18.7927 H   0  0  0  0  0  0  0  0  0  0  0  0
   35.4642   27.3496  -18.4375 H   0  0  0  0  0  0  0  0  0  0  0  0
   36.5801   28.4897  -19.3238 H   0  0  0  0  0  0  0  0  0  0  0  0
   38.6219   28.6601  -14.8702 H   0  0  0  0  0  0  0  0  0  0  0  0
   43.9438   25.1541  -16.0607 H   0  0  0  0  0  0  0  0  0  0  0  0
   45.9288   24.7332  -14.6062 H   0  0  0  0  0  0  0  0  0  0  0  0
   45.8600   25.3489  -12.1876 H   0  0  0  0  0  0  0  0  0  0  0  0
   43.0700   26.4660  -10.4700 H   0  0  0  0  0  0  0  0  0  0  0  0
  1  2  2  0
  2  3  1  0
  3  4  1  0
  3  5  2  0
  5  6  1  0
  6  7  2  0
  7  8  1  0
  8  9  2  0
  9 10  1  0
 10 11  1  0
  9 12  1  0
 12 13  1  0
 13 14  1  0
 13 15  1  0
 13 16  1  0
 12 17  2  0
  5 18  1  0
 18 19  1  0
 19 20  2  0
 20 21  1  0
 21 22  2  0
 22 23  1  0
 23 24  1  0
 23 25  2  0
 25  2  1  0
 17  6  1  0
 25 19  1  0
  4 26  1  0
  7 27  1  0
  8 28  1  0
 10 29  1  0
 10 30  1  0
 17 31  1  0
 20 32  1  0
 21 33  1  0
 22 34  1  0
 24 35  1  0
M  END
>  <meeko>  (2) 
{"is_sidechain": [false], "free_energy": -6.896, "intermolecular_energy": -8.974, "internal_energy": 0.479}

$$$$
cand_010_out
     RDKit          3D

 35 37  0  0  0  0  0  0  0  0999 V2000
   38.3810   29.0380  -13.1570 O   0  0  0  0  0  0  0  0  0  0  0  0
   38.9410   28.3460  -14.0060 C   0  0  0  0  0  0  0  0  0  0  0  0
   40.2240   27.6730  -13.6980 C   0  0  0  0  0  0  0  0  0  0  0  0
   40.7400   27.8490  -12.4270 O   0  0  0  0  0  0  0  0  0  0  0  0
   40.8010   26.9220  -14.6550 C   0  0  0  0  0  0  0  0  0  0  0  0
   42.0740   26.1970  -14.4550 C   0  0  0  0  0  0  0  0  0  0  0  0
   42.1750   24.8180  -14.6600 C   0  0  0  0  0  0  0  0  0  0  0  0
   43.3820   24.1470  -14.4400 C   0  0  0  0  0  0  0  0  0  0  0  0
   44.5210   24.8390  -13.9990 C   0  0  0  0  0  0  0  0  0  0  0  0
   45.8080   24.0790  -13.7790 C   0  0  0  0  0  0  0  0  0  0  0  0
   46.8250   24.4960  -14.5890 F   0  0  0  0  0  0  0  0  0  0  0  0
   44.4370   26.2320  -13.7840 C   0  0  0  0  0  0  0  0  0  0  0  0
   45.6310   27.0270  -13.3070 C   0  0  0  0  0  0  0  0  0  0  0  0
   46.3890   26.3800  -12.3780 F   0  0  0  0  0  0  0  0  0  0  0  0
   46.4800   27.3440  -14.3230 F   0  0  0  0  0  0  0  0  0  0  0  0
   45.2740   28.2110  -12.7370 F   0  0  0  0  0  0  0  0  0  0  0  0
   43.2090   26.8900  -14.0090 C   0  0  0  0  0  0  0  0  0  0  0  0
   40.2600   26.7270  -15.9200 O   0  0  0  0  0  0  0  0  0  0  0  0
   39.0780   27.3450  -16.2370 C   0  0  0  0  0  0  0  0  0  0  0  0
   38.5780   27.1340  -17.5230 C   0  0  0  0  0  0  0  0  0  0  0  0
   37.3770   27.7320  -17.9100 C   0  0  0  0  0  0  0  0  0  0  0  0
   36.6770   28.5420  -17.0130 C   0  0  0  0  0  0  0  0  0  0  0  0
   37.1780   28.7520  -15.7310 C   0  0  0  0  0  0  0  0  0  0  0  0
   36.4420   29.5540  -14.9030 O   0  0  0  0  0  0  0  0  0  0  0  0
   38.3800   28.1520  -15.3440 C   0  0  0  0  0  0  0  0  0  0  0  0
   41.4310   27.2930  -12.1210 H   0  0  0  0  0  0  0  0  0  0  0  0
   41.2938   24.2534  -14.9987 H   0  0  0  0  0  0  0  0  0  0  0  0
   43.4397   23.0625  -14.6148 H   0  0  0  0  0  0  0  0  0  0  0  0
   46.1180   24.2124  -12.7321 H   0  0  0  0  0  0  0  0  0  0  0  0
   45.6097   23.0243  -14.0205 H   0  0  0  0  0  0  0  0  0  0  0  0
   43.1402   27.9732  -13.8302 H   0  0  0  0  0  0  0  0  0  0  0  0
   39.1294   26.4975  -18.2307 H   0  0  0  0  0  0  0  0  0  0  0  0
   36.9816   27.5649  -18.9228 H   0  0  0  0  0  0  0  0  0  0  0  0
   35.7313   29.0133  -17.3189 H   0  0  0  0  0  0  0  0  0  0  0  0
   35.9990   30.3040  -15.2500 H   0  0  0  0  0  0  0  0  0  0  0  0
  1  2  2  0
  2  3  1  0
  3  4  1  0
  3  5  2  0
  5  6  1  0
  6  7  2  0
  7  8  1  0
  8  9  2  0
  9 10  1  0
 10 11  1  0
  9 12  1  0
 12 13  1  0
 13 14  1  0
 13 15  1  0
 13 16  1  0
 12 17  2  0
  5 18  1  0
 18 19  1  0
 19 20  2  0
 20 21  1  0
 21 22  2  0
 22 23  1  0
 23 24  1  0
 23 25  2  0
 25  2  1  0
 17  6  1  0
 25 19  1  0
  4 26  1  0
  7 27  1  0
  8 28  1  0
 10 29  1  0
 10 30  1  0
 17 31  1  0
 20 32  1  0
 21 33  1  0
 22 34  1  0
 24 35  1  0
M  END
>  <meeko>  (3) 
{"is_sidechain": [false], "free_energy": -6.697, "intermolecular_energy": -8.157, "internal_energy": -0.092}

$$$$
cand_010_out
     RDKit          3D

 35 37  0  0  0  0  0  0  0  0999 V2000
   41.7040   27.0320  -10.8300 O   0  0  0  0  0  0  0  0  0  0  0  0
   41.5990   26.9670  -12.0540 C   0  0  0  0  0  0  0  0  0  0  0  0
   40.3910   27.4900  -12.7330 C   0  0  0  0  0  0  0  0  0  0  0  0
   39.4150   28.0570  -11.9340 O   0  0  0  0  0  0  0  0  0  0  0  0
   40.3190   27.4030  -14.0740 C   0  0  0  0  0  0  0  0  0  0  0  0
   39.1670   27.9020  -14.8550 C   0  0  0  0  0  0  0  0  0  0  0  0
   38.3140   28.8920  -14.3580 C   0  0  0  0  0  0  0  0  0  0  0  0
   37.2150   29.3300  -15.1030 C   0  0  0  0  0  0  0  0  0  0  0  0
   36.9340   28.7820  -16.3640 C   0  0  0  0  0  0  0  0  0  0  0  0
   35.7410   29.2890  -17.1420 C   0  0  0  0  0  0  0  0  0  0  0  0
   36.0230   30.3790  -17.9120 F   0  0  0  0  0  0  0  0  0  0  0  0
   37.7840   27.7800  -16.8810 C   0  0  0  0  0  0  0  0  0  0  0  0
   37.5270   27.1520  -18.2320 C   0  0  0  0  0  0  0  0  0  0  0  0
   36.4350   27.6530  -18.8750 F   0  0  0  0  0  0  0  0  0  0  0  0
   38.5730   27.3220  -19.0880 F   0  0  0  0  0  0  0  0  0  0  0  0
   37.3270   25.8080  -18.1530 F   0  0  0  0  0  0  0  0  0  0  0  0
   38.8860   27.3480  -16.1130 C   0  0  0  0  0  0  0  0  0  0  0  0
   41.3190   26.8590  -14.8710 O   0  0  0  0  0  0  0  0  0  0  0  0
   42.4450   26.3570  -14.2710 C   0  0  0  0  0  0  0  0  0  0  0  0
   43.4170   25.8080  -15.1070 C   0  0  0  0  0  0  0  0  0  0  0  0
   44.5900   25.2810  -14.5600 C   0  0  0  0  0  0  0  0  0  0  0  0
   44.7900   25.3050  -13.1790 C   0  0  0  0  0  0  0  0  0  0  0  0
   43.8180   25.8540  -12.3460 C   0  0  0  0  0  0  0  0  0  0  0  0
   44.0790   25.8460  -11.0030 O   0  0  0  0  0  0  0  0  0  0  0  0
   42.6450   26.3800  -12.8930 C   0  0  0  0  0  0  0  0  0  0  0  0
   38.7520   28.5980  -12.3180 H   0  0  0  0  0  0  0  0  0  0  0  0
   38.5099   29.3316  -13.3689 H   0  0  0  0  0  0  0  0  0  0  0  0
   36.5614   30.1151  -14.6950 H   0  0  0  0  0  0  0  0  0  0  0  0
   35.3829   28.4816  -17.7976 H   0  0  0  0  0  0  0  0  0  0  0  0
   34.9803   29.5957  -16.4090 H   0  0  0  0  0  0  0  0  0  0  0  0
   39.5404   26.5580  -16.5100 H   0  0  0  0  0  0  0  0  0  0  0  0
   43.2605   25.7898  -16.1957 H   0  0  0  0  0  0  0  0  0  0  0  0
   45.3566   24.8468  -15.2187 H   0  0  0  0  0  0  0  0  0  0  0  0
   45.7139   24.8909  -12.7490 H   0  0  0  0  0  0  0  0  0  0  0  0
   44.0020   25.0480  -10.5160 H   0  0  0  0  0  0  0  0  0  0  0  0
  1  2  2  0
  2  3  1  0
  3  4  1  0
  3  5  2  0
  5  6  1  0
  6  7  2  0
  7  8  1  0
  8  9  2  0
  9 10  1  0
 10 11  1  0
  9 12  1  0
 12 13  1  0
 13 14  1  0
 13 15  1  0
 13 16  1  0
 12 17  2  0
  5 18  1  0
 18 19  1  0
 19 20  2  0
 20 21  1  0
 21 22  2  0
 22 23  1  0
 23 24  1  0
 23 25  2  0
 25  2  1  0
 17  6  1  0
 25 19  1  0
  4 26  1  0
  7 27  1  0
  8 28  1  0
 10 29  1  0
 10 30  1  0
 17 31  1  0
 20 32  1  0
 21 33  1  0
 22 34  1  0
 24 35  1  0
M  END
>  <meeko>  (4) 
{"is_sidechain": [false], "free_energy": -6.255, "intermolecular_energy": -8.24, "internal_energy": 0.535}

$$$$
cand_010_out
     RDKit          3D

 35 37  0  0  0  0  0  0  0  0999 V2000
   36.9160   29.7050  -14.5420 O   0  0  0  0  0  0  0  0  0  0  0  0
   37.7390   28.8740  -14.9210 C   0  0  0  0  0  0  0  0  0  0  0  0
   38.8880   28.5090  -14.0610 C   0  0  0  0  0  0  0  0  0  0  0  0
   38.9760   29.1300  -12.8280 O   0  0  0  0  0  0  0  0  0  0  0  0
   39.7630   27.5920  -14.5130 C   0  0  0  0  0  0  0  0  0  0  0  0
   40.9390   27.1440  -13.7360 C   0  0  0  0  0  0  0  0  0  0  0  0
   41.0490   27.3850  -12.3630 C   0  0  0  0  0  0  0  0  0  0  0  0
   42.1810   26.9760  -11.6530 C   0  0  0  0  0  0  0  0  0  0  0  0
   43.2410   26.3230  -12.3000 C   0  0  0  0  0  0  0  0  0  0  0  0
   44.4450   25.8900  -11.4960 C   0  0  0  0  0  0  0  0  0  0  0  0
   45.5950   26.5280  -11.8600 F   0  0  0  0  0  0  0  0  0  0  0  0
   43.1490   26.0740  -13.6870 C   0  0  0  0  0  0  0  0  0  0  0  0
   44.2620   25.3770  -14.4360 C   0  0  0  0  0  0  0  0  0  0  0  0
   44.6880   24.2250  -13.8460 F   0  0  0  0  0  0  0  0  0  0  0  0
   43.8970   25.0330  -15.7020 F   0  0  0  0  0  0  0  0  0  0  0  0
   45.3700   26.1580  -14.5670 F   0  0  0  0  0  0  0  0  0  0  0  0
   42.0000   26.4970  -14.3870 C   0  0  0  0  0  0  0  0  0  0  0  0
   39.6510   26.9510  -15.7410 O   0  0  0  0  0  0  0  0  0  0  0  0
   38.6020   27.2750  -16.5630 C   0  0  0  0  0  0  0  0  0  0  0  0
   38.5350   26.6180  -17.7920 C   0  0  0  0  0  0  0  0  0  0  0  0
   37.4910   26.9000  -18.6760 C   0  0  0  0  0  0  0  0  0  0  0  0
   36.5150   27.8370  -18.3320 C   0  0  0  0  0  0  0  0  0  0  0  0
   36.5850   28.4920  -17.1050 C   0  0  0  0  0  0  0  0  0  0  0  0
   35.5960   29.3970  -16.8300 O   0  0  0  0  0  0  0  0  0  0  0  0
   37.6290   28.2100  -16.2200 C   0  0  0  0  0  0  0  0  0  0  0  0
   39.6980   28.9420  -12.2600 H   0  0  0  0  0  0  0  0  0  0  0  0
   40.2345   27.9029  -11.8354 H   0  0  0  0  0  0  0  0  0  0  0  0
   42.2419   27.1687  -10.5717 H   0  0  0  0  0  0  0  0  0  0  0  0
   44.2499   26.1007  -10.4342 H   0  0  0  0  0  0  0  0  0  0  0  0
   44.5941   24.8167  -11.6850 H   0  0  0  0  0  0  0  0  0  0  0  0
   41.9342   26.3152  -15.4699 H   0  0  0  0  0  0  0  0  0  0  0  0
   39.3031   25.8792  -18.0643 H   0  0  0  0  0  0  0  0  0  0  0  0
   37.4377   26.3827  -19.6453 H   0  0  0  0  0  0  0  0  0  0  0  0
   35.6926   28.0574  -19.0285 H   0  0  0  0  0  0  0  0  0  0  0  0
   34.6970   29.1330  -16.8650 H   0  0  0  0  0  0  0  0  0  0  0  0
  1  2  2  0
  2  3  1  0
  3  4  1  0
  3  5  2  0
  5  6  1  0
  6  7  2  0
  7  8  1  0
  8  9  2  0
  9 10  1  0
 10 11  1  0
  9 12  1  0
 12 13  1  0
 13 14  1  0
 13 15  1  0
 13 16  1  0
 12 17  2  0
  5 18  1  0
 18 19  1  0
 19 20  2  0
 20 21  1  0
 21 22  2  0
 22 23  1  0
 23 24  1  0
 23 25  2  0
 25  2  1  0
 17  6  1  0
 25 19  1  0
  4 26  1  0
  7 27  1  0
  8 28  1  0
 10 29  1  0
 10 30  1  0
 17 31  1  0
 20 32  1  0
 21 33  1  0
 22 34  1  0
 24 35  1  0
M  END
>  <meeko>  (5) 
{"is_sidechain": [false], "free_energy": -5.46, "intermolecular_energy": -6.916, "internal_energy": 0.193}

$$$$
cand_010_out
     RDKit          3D

 35 37  0  0  0  0  0  0  0  0999 V2000
   39.0720   26.3470  -18.3200 O   0  0  0  0  0  0  0  0  0  0  0  0
   39.1130   26.8260  -17.1880 C   0  0  0  0  0  0  0  0  0  0  0  0
   40.2200   26.4830  -16.2670 C   0  0  0  0  0  0  0  0  0  0  0  0
   41.1940   25.6240  -16.7430 O   0  0  0  0  0  0  0  0  0  0  0  0
   40.2280   27.0330  -15.0380 C   0  0  0  0  0  0  0  0  0  0  0  0
   41.2890   26.7700  -14.0420 C   0  0  0  0  0  0  0  0  0  0  0  0
   41.1320   27.1100  -12.6940 C   0  0  0  0  0  0  0  0  0  0  0  0
   42.1580   26.8770  -11.7740 C   0  0  0  0  0  0  0  0  0  0  0  0
   43.3740   26.3060  -12.1780 C   0  0  0  0  0  0  0  0  0  0  0  0
   44.4560   26.0630  -11.1510 C   0  0  0  0  0  0  0  0  0  0  0  0
   44.3810   24.8310  -10.5690 F   0  0  0  0  0  0  0  0  0  0  0  0
   43.5510   25.9590  -13.5360 C   0  0  0  0  0  0  0  0  0  0  0  0
   44.8410   25.3430  -14.0280 C   0  0  0  0  0  0  0  0  0  0  0  0
   45.9130   26.1810  -13.9620 F   0  0  0  0  0  0  0  0  0  0  0  0
   45.1900   24.2370  -13.3150 F   0  0  0  0  0  0  0  0  0  0  0  0
   44.7630   24.9400  -15.3260 F   0  0  0  0  0  0  0  0  0  0  0  0
   42.5050   26.2040  -14.4510 C   0  0  0  0  0  0  0  0  0  0  0  0
   39.2610   27.9190  -14.5780 O   0  0  0  0  0  0  0  0  0  0  0  0
   38.2180   28.2490  -15.4050 C   0  0  0  0  0  0  0  0  0  0  0  0
   37.2630   29.1300  -14.8990 C   0  0  0  0  0  0  0  0  0  0  0  0
   36.1760   29.5090  -15.6900 C   0  0  0  0  0  0  0  0  0  0  0  0
   36.0440   29.0060  -16.9860 C   0  0  0  0  0  0  0  0  0  0  0  0
   36.9990   28.1260  -17.4890 C   0  0  0  0  0  0  0  0  0  0  0  0
   36.8100   27.6740  -18.7660 O   0  0  0  0  0  0  0  0  0  0  0  0
   38.0870   27.7480  -16.6970 C   0  0  0  0  0  0  0  0  0  0  0  0
   41.8250   25.2590  -16.1540 H   0  0  0  0  0  0  0  0  0  0  0  0
   40.1903   27.5659  -12.3544 H   0  0  0  0  0  0  0  0  0  0  0  0
   42.0098   27.1453  -10.7176 H   0  0  0  0  0  0  0  0  0  0  0  0
   45.4341   26.1565  -11.6455 H   0  0  0  0  0  0  0  0  0  0  0  0
   44.3217   26.8087  -10.3536 H   0  0  0  0  0  0  0  0  0  0  0  0
   42.6470   25.9447  -15.5105 H   0  0  0  0  0  0  0  0  0  0  0  0
   37.3656   29.5261  -13.8779 H   0  0  0  0  0  0  0  0  0  0  0  0
   35.4229   30.2047  -15.2915 H   0  0  0  0  0  0  0  0  0  0  0  0
   35.1874   29.3043  -17.6083 H   0  0  0  0  0  0  0  0  0  0  0  0
   36.7800   26.7530  -18.9360 H   0  0  0  0  0  0  0  0  0  0  0  0
  1  2  2  0
  2  3  1  0
  3  4  1  0
  3  5  2  0
  5  6  1  0
  6  7  2  0
  7  8  1  0
  8  9  2  0
  9 10  1  0
 10 11  1  0
  9 12  1  0
 12 13  1  0
 13 14  1  0
 13 15  1  0
 13 16  1  0
 12 17  2  0
  5 18  1  0
 18 19  1  0
 19 20  2  0
 20 21  1  0
 21 22  2  0
 22 23  1  0
 23 24  1  0
 23 25  2  0
 25  2  1  0
 17  6  1  0
 25 19  1  0
  4 26  1  0
  7 27  1  0
  8 28  1  0
 10 29  1  0
 10 30  1  0
 17 31  1  0
 20 32  1  0
 21 33  1  0
 22 34  1  0
 24 35  1  0
M  END
>  <meeko>  (6) 
{"is_sidechain": [false], "free_energy": -5.254, "intermolecular_energy": -6.645, "internal_energy": 0.176}

$$$$
cand_010_out
     RDKit          3D

 35 37  0  0  0  0  0  0  0  0999 V2000
   43.6030   25.4140  -15.5310 O   0  0  0  0  0  0  0  0  0  0  0  0
   42.5310   25.8980  -15.1710 C   0  0  0  0  0  0  0  0  0  0  0  0
   41.4370   26.1070  -16.1480 C   0  0  0  0  0  0  0  0  0  0  0  0
   41.6760   25.7240  -17.4550 O   0  0  0  0  0  0  0  0  0  0  0  0
   40.2790   26.6360  -15.7110 C   0  0  0  0  0  0  0  0  0  0  0  0
   39.1180   26.8790  -16.5930 C   0  0  0  0  0  0  0  0  0  0  0  0
   38.8500   26.0650  -17.6980 C   0  0  0  0  0  0  0  0  0  0  0  0
   37.7620   26.3290  -18.5350 C   0  0  0  0  0  0  0  0  0  0  0  0
   36.9150   27.4210  -18.2940 C   0  0  0  0  0  0  0  0  0  0  0  0
   35.7440   27.6680  -19.2170 C   0  0  0  0  0  0  0  0  0  0  0  0
   35.7360   26.8490  -20.3080 F   0  0  0  0  0  0  0  0  0  0  0  0
   37.1720   28.2560  -17.1840 C   0  0  0  0  0  0  0  0  0  0  0  0
   36.2940   29.4490  -16.8790 C   0  0  0  0  0  0  0  0  0  0  0  0
   35.1350   29.4790  -17.5940 F   0  0  0  0  0  0  0  0  0  0  0  0
   35.9240   29.4960  -15.5690 F   0  0  0  0  0  0  0  0  0  0  0  0
   36.9180   30.6320  -17.1310 F   0  0  0  0  0  0  0  0  0  0  0  0
   38.2760   27.9760  -16.3530 C   0  0  0  0  0  0  0  0  0  0  0  0
   40.0370   26.9910  -14.3890 O   0  0  0  0  0  0  0  0  0  0  0  0
   41.0340   26.8170  -13.4640 C   0  0  0  0  0  0  0  0  0  0  0  0
   40.7540   27.1990  -12.1510 C   0  0  0  0  0  0  0  0  0  0  0  0
   41.7250   27.0460  -11.1590 C   0  0  0  0  0  0  0  0  0  0  0  0
   42.9750   26.5130  -11.4790 C   0  0  0  0  0  0  0  0  0  0  0  0
   43.2530   26.1330  -12.7900 C   0  0  0  0  0  0  0  0  0  0  0  0
   44.4960   25.6160  -13.0340 O   0  0  0  0  0  0  0  0  0  0  0  0
   42.2810   26.2850  -13.7820 C   0  0  0  0  0  0  0  0  0  0  0  0
   40.9630   25.4590  -18.0030 H   0  0  0  0  0  0  0  0  0  0  0  0
   39.5035   25.2062  -17.9112 H   0  0  0  0  0  0  0  0  0  0  0  0
   37.5672   25.6712  -19.3948 H   0  0  0  0  0  0  0  0  0  0  0  0
   34.8139   27.5067  -18.6522 H   0  0  0  0  0  0  0  0  0  0  0  0
   35.8309   28.7009  -19.5851 H   0  0  0  0  0  0  0  0  0  0  0  0
   38.4825   28.6334  -15.4956 H   0  0  0  0  0  0  0  0  0  0  0  0
   39.7698   27.6200  -11.8979 H   0  0  0  0  0  0  0  0  0  0  0  0
   41.5046   27.3459  -10.1239 H   0  0  0  0  0  0  0  0  0  0  0  0
   43.7393   26.3933  -10.6970 H   0  0  0  0  0  0  0  0  0  0  0  0
   45.2600   26.1090  -12.8070 H   0  0  0  0  0  0  0  0  0  0  0  0
  1  2  2  0
  2  3  1  0
  3  4  1  0
  3  5  2  0
  5  6  1  0
  6  7  2  0
  7  8  1  0
  8  9  2  0
  9 10  1  0
 10 11  1  0
  9 12  1  0
 12 13  1  0
 13 14  1  0
 13 15  1  0
 13 16  1  0
 12 17  2  0
  5 18  1  0
 18 19  1  0
 19 20  2  0
 20 21  1  0
 21 22  2  0
 22 23  1  0
 23 24  1  0
 23 25  2  0
 25  2  1  0
 17  6  1  0
 25 19  1  0
  4 26  1  0
  7 27  1  0
  8 28  1  0
 10 29  1  0
 10 30  1  0
 17 31  1  0
 20 32  1  0
 21 33  1  0
 22 34  1  0
 24 35  1  0
M  END
>  <meeko>  (7) 
{"is_sidechain": [false], "free_energy": -5.08, "intermolecular_energy": -6.738, "internal_energy": 0.482}

$$$$
