cand_054_out
     RDKit          3D

 46 48  0  0  0  0  0  0  0  0999 V2000
   49.4950   27.2930  -14.6110 C   0  0  0  0  0  0  0  0  0  0  0  0
   48.0850   26.8290  -14.9490 C   0  0  0  0  0  0  0  0  0  0  0  0
   47.1630   27.0270  -13.8110 N   0  0  0  0  0  0  0  0  0  0  0  0
   47.7990   26.9520  -12.4810 C   0  0  0  0  0  0  0  0  0  0  0  0
   47.3670   28.1350  -11.6260 C   0  0  0  0  0  0  0  0  0  0  0  0
   46.0240   26.1800  -13.8550 C   0  0  0  0  0  0  0  0  0  0  0  0
   44.7260   26.6870  -14.0610 C   0  0  0  0  0  0  0  0  0  0  0  0
   43.6070   25.8440  -14.1230 C   0  0  0  0  0  0  0  0  0  0  0  0
   42.2420   26.3790  -14.3130 C   0  0  0  0  0  0  0  0  0  0  0  0
   41.7470   26.1520  -15.5930 O   0  0  0  0  0  0  0  0  0  0  0  0
   40.4890   26.5970  -15.9060 C   0  0  0  0  0  0  0  0  0  0  0  0
   40.0270   26.3360  -17.1960 C   0  0  0  0  0  0  0  0  0  0  0  0
   38.7540   26.7620  -17.5810 C   0  0  0  0  0  0  0  0  0  0  0  0
   37.9440   27.4530  -16.6750 C   0  0  0  0  0  0  0  0  0  0  0  0
   38.4080   27.7130  -15.3890 C   0  0  0  0  0  0  0  0  0  0  0  0
   37.5640   28.3920  -14.5540 O   0  0  0  0  0  0  0  0  0  0  0  0
   39.6820   27.2830  -15.0040 C   0  0  0  0  0  0  0  0  0  0  0  0
   40.2070   27.5360  -13.6620 C   0  0  0  0  0  0  0  0  0  0  0  0
   39.5570   28.1420  -12.8110 O   0  0  0  0  0  0  0  0  0  0  0  0
   41.5640   27.0330  -13.3520 C   0  0  0  0  0  0  0  0  0  0  0  0
   42.0560   27.2890  -12.0840 O   0  0  0  0  0  0  0  0  0  0  0  0
   43.7990   24.4660  -13.9630 C   0  0  0  0  0  0  0  0  0  0  0  0
   45.0790   23.9440  -13.7690 C   0  0  0  0  0  0  0  0  0  0  0  0
   46.1960   24.7870  -13.7200 C   0  0  0  0  0  0  0  0  0  0  0  0
   47.5650   24.1960  -13.5170 C   0  0  0  0  0  0  0  0  0  0  0  0
   49.6159   27.3328  -13.5184 H   0  0  0  0  0  0  0  0  0  0  0  0
   50.2247   26.5876  -15.0352 H   0  0  0  0  0  0  0  0  0  0  0  0
   49.6632   28.2939  -15.0352 H   0  0  0  0  0  0  0  0  0  0  0  0
   47.7167   27.4035  -15.8117 H   0  0  0  0  0  0  0  0  0  0  0  0
   48.1213   25.7544  -15.1812 H   0  0  0  0  0  0  0  0  0  0  0  0
   47.4982   26.0167  -11.9863 H   0  0  0  0  0  0  0  0  0  0  0  0
   48.8919   26.9767  -12.6031 H   0  0  0  0  0  0  0  0  0  0  0  0
   47.4628   27.8728  -10.5620 H   0  0  0  0  0  0  0  0  0  0  0  0
   48.0067   29.0016  -11.8491 H   0  0  0  0  0  0  0  0  0  0  0  0
   46.3194   28.3855  -11.8491 H   0  0  0  0  0  0  0  0  0  0  0  0
   44.5865   27.7720  -14.1762 H   0  0  0  0  0  0  0  0  0  0  0  0
   40.6653   25.7947  -17.9099 H   0  0  0  0  0  0  0  0  0  0  0  0
   38.3885   26.5538  -18.5974 H   0  0  0  0  0  0  0  0  0  0  0  0
   36.9419   27.7905  -16.9780 H   0  0  0  0  0  0  0  0  0  0  0  0
   37.7250   28.4010  -13.6300 H   0  0  0  0  0  0  0  0  0  0  0  0
   41.4860   27.2410  -11.3430 H   0  0  0  0  0  0  0  0  0  0  0  0
   42.9328   23.7885  -13.9905 H   0  0  0  0  0  0  0  0  0  0  0  0
   45.2117   22.8582  -13.6533 H   0  0  0  0  0  0  0  0  0  0  0  0
   47.7701   24.1075  -12.4399 H   0  0  0  0  0  0  0  0  0  0  0  0
   47.6068   23.1997  -13.9813 H   0  0  0  0  0  0  0  0  0  0  0  0
   48.3188   24.8489  -13.9813 H   0  0  0  0  0  0  0  0  0  0  0  0
  1  2  1  0
  2  3  1  0
  3  4  1  0
  4  5  1  0
  3  6  1  0
  6  7  2  0
  7  8  1  0
  8  9  1  0
  9 10  1  0
 10 11  1  0
 11 12  2  0
 12 13  1  0
 13 14  2  0
 14 15  1  0
 15 16  1  0
 15 17  2  0
 17 18  1  0
 18 19  2  0
 18 20  1  0
 20 21  1  0
  8 22  2  0
 22 23  1  0
 23 24  2  0
 24 25  1  0
 24  6  1  0
 20  9  2  0
 17 11  1  0
  1 26  1  0
  1 27  1  0
  1 28  1  0
  2 29  1  0
  2 30  1  0
  4 31  1  0
  4 32  1  0
  5 33  1  0
  5 34  1  0
  5 35  1  0
  7 36  1  0
 12 37  1  0
 13 38  1  0
 14 39  1  0
 16 40  1  0
 21 41  1  0
 22 42  1  0
 23 43  1  0
 25 44  1  0
 25 45  1  0
 25 46  1  0
M  END
>  <meeko>  (1) 
{"is_sidechain": [false], "free_energy": -4.813, "intermolecular_energy": -6.22, "internal_energy": 0.256}

$$$$
cand_054_out
     RDKit          3D

 46 48  0  0  0  0  0  0  0  0999 V2000
   47.0770   26.9550  -14.4970 C   0  0  0  0  0  0  0  0  0  0  0  0
   45.5710   27.1600  -14.4120 C   0  0  0  0  0  0  0  0  0  0  0  0
   44.9270   26.1110  -13.5960 N   0  0  0  0  0  0  0  0  0  0  0  0
   45.0300   24.7460  -14.1510 C   0  0  0  0  0  0  0  0  0  0  0  0
   46.1000   23.9570  -13.4100 C   0  0  0  0  0  0  0  0  0  0  0  0
   43.5770   26.4020  -13.2650 C   0  0  0  0  0  0  0  0  0  0  0  0
   42.5940   26.6020  -14.2530 C   0  0  0  0  0  0  0  0  0  0  0  0
   41.2580   26.8690  -13.9190 C   0  0  0  0  0  0  0  0  0  0  0  0
   40.2310   27.1050  -14.9570 C   0  0  0  0  0  0  0  0  0  0  0  0
   39.2210   27.9610  -14.5310 O   0  0  0  0  0  0  0  0  0  0  0  0
   38.2020   28.2670  -15.3960 C   0  0  0  0  0  0  0  0  0  0  0  0
   37.2180   29.1400  -14.9330 C   0  0  0  0  0  0  0  0  0  0  0  0
   36.1520   29.4920  -15.7630 C   0  0  0  0  0  0  0  0  0  0  0  0
   36.0690   28.9680  -17.0560 C   0  0  0  0  0  0  0  0  0  0  0  0
   37.0520   28.0950  -17.5140 C   0  0  0  0  0  0  0  0  0  0  0  0
   36.9090   27.6200  -18.7890 O   0  0  0  0  0  0  0  0  0  0  0  0
   38.1200   27.7450  -16.6840 C   0  0  0  0  0  0  0  0  0  0  0  0
   39.1730   26.8320  -17.1270 C   0  0  0  0  0  0  0  0  0  0  0  0
   39.1670   26.3250  -18.2480 O   0  0  0  0  0  0  0  0  0  0  0  0
   40.2650   26.5310  -16.1740 C   0  0  0  0  0  0  0  0  0  0  0  0
   41.2490   25.6570  -16.5990 O   0  0  0  0  0  0  0  0  0  0  0  0
   40.9100   26.9480  -12.5660 C   0  0  0  0  0  0  0  0  0  0  0  0
   41.8690   26.7420  -11.5710 C   0  0  0  0  0  0  0  0  0  0  0  0
   43.1990   26.4620  -11.9070 C   0  0  0  0  0  0  0  0  0  0  0  0
   44.2100   26.2370  -10.8150 C   0  0  0  0  0  0  0  0  0  0  0  0
   47.4971   26.8978  -13.4820 H   0  0  0  0  0  0  0  0  0  0  0  0
   47.2899   26.0196  -15.0352 H   0  0  0  0  0  0  0  0  0  0  0  0
   47.5322   27.7995  -15.0352 H   0  0  0  0  0  0  0  0  0  0  0  0
   45.3689   28.1410  -13.9572 H   0  0  0  0  0  0  0  0  0  0  0  0
   45.1576   27.1076  -15.4300 H   0  0  0  0  0  0  0  0  0  0  0  0
   44.0616   24.2356  -14.0426 H   0  0  0  0  0  0  0  0  0  0  0  0
   45.3034   24.8105  -15.2145 H   0  0  0  0  0  0  0  0  0  0  0  0
   45.9514   24.0666  -12.3256 H   0  0  0  0  0  0  0  0  0  0  0  0
   46.0279   22.8942  -13.6844 H   0  0  0  0  0  0  0  0  0  0  0  0
   47.0940   24.3400  -13.6844 H   0  0  0  0  0  0  0  0  0  0  0  0
   42.8809   26.5475  -15.3135 H   0  0  0  0  0  0  0  0  0  0  0  0
   37.2817   29.5509  -13.9146 H   0  0  0  0  0  0  0  0  0  0  0  0
   35.3768   30.1823  -15.3990 H   0  0  0  0  0  0  0  0  0  0  0  0
   35.2291   29.2447  -17.7102 H   0  0  0  0  0  0  0  0  0  0  0  0
   37.1560   26.7380  -18.9920 H   0  0  0  0  0  0  0  0  0  0  0  0
   41.0160   24.8900  -17.0840 H   0  0  0  0  0  0  0  0  0  0  0  0
   39.8714   27.1745  -12.2830 H   0  0  0  0  0  0  0  0  0  0  0  0
   41.5759   26.8004  -10.5124 H   0  0  0  0  0  0  0  0  0  0  0  0
   43.7218   26.3456   -9.8353 H   0  0  0  0  0  0  0  0  0  0  0  0
   44.6284   25.2238  -10.9058 H   0  0  0  0  0  0  0  0  0  0  0  0
   45.0187   26.9771  -10.9058 H   0  0  0  0  0  0  0  0  0  0  0  0
  1  2  1  0
  2  3  1  0
  3  4  1  0
  4  5  1  0
  3  6  1  0
  6  7  2  0
  7  8  1  0
  8  9  1  0
  9 10  1  0
 10 11  1  0
 11 12  2  0
 12 13  1  0
 13 14  2  0
 14 15  1  0
 15 16  1  0
 15 17  2  0
 17 18  1  0
 18 19  2  0
 18 20  1  0
 20 21  1  0
  8 22  2  0
 22 23  1  0
 23 24  2  0
 24 25  1  0
 24  6  1  0
 20  9  2  0
 17 11  1  0
  1 26  1  0
  1 27  1  0
  1 28  1  0
  2 29  1  0
  2 30  1  0
  4 31  1  0
  4 32  1  0
  5 33  1  0
  5 34  1  0
  5 35  1  0
  7 36  1  0
 12 37  1  0
 13 38  1  0
 14 39  1  0
 16 40  1  0
 21 41  1  0
 22 42  1  0
 23 43  1  0
 25 44  1  0
 25 45  1  0
 25 46  1  0
M  END
>  <meeko>  (2) 
{"is_sidechain": [false], "free_energy": -4.657, "intermolecular_energy": -5.561, "internal_energy": -0.202}

$$$$
cand_054_out
     RDKit          3D

 46 48  0  0  0  0  0  0  0  0999 V2000
   35.0640   29.8690  -18.2040 C   0  0  0  0  0  0  0  0  0  0  0  0
   36.4250   29.8060  -17.5260 C   0  0  0  0  0  0  0  0  0  0  0  0
   36.4800   28.7260  -16.5200 N   0  0  0  0  0  0  0  0  0  0  0  0
   36.4020   29.1830  -15.1180 C   0  0  0  0  0  0  0  0  0  0  0  0
   37.6650   29.9470  -14.7430 C   0  0  0  0  0  0  0  0  0  0  0  0
   37.5890   27.8550  -16.6870 C   0  0  0  0  0  0  0  0  0  0  0  0
   38.5790   27.7090  -15.6950 C   0  0  0  0  0  0  0  0  0  0  0  0
   39.6610   26.8320  -15.8580 C   0  0  0  0  0  0  0  0  0  0  0  0
   40.7130   26.6980  -14.8280 C   0  0  0  0  0  0  0  0  0  0  0  0
   41.8660   26.0880  -15.3110 O   0  0  0  0  0  0  0  0  0  0  0  0
   42.9240   25.9010  -14.4600 C   0  0  0  0  0  0  0  0  0  0  0  0
   44.0650   25.2980  -14.9900 C   0  0  0  0  0  0  0  0  0  0  0  0
   45.1780   25.0770  -14.1760 C   0  0  0  0  0  0  0  0  0  0  0  0
   45.1490   25.4570  -12.8310 C   0  0  0  0  0  0  0  0  0  0  0  0
   44.0080   26.0570  -12.3060 C   0  0  0  0  0  0  0  0  0  0  0  0
   44.0470   26.4040  -10.9830 O   0  0  0  0  0  0  0  0  0  0  0  0
   42.8950   26.2800  -13.1210 C   0  0  0  0  0  0  0  0  0  0  0  0
   41.6770   26.9080  -12.6080 C   0  0  0  0  0  0  0  0  0  0  0  0
   41.5720   27.2640  -11.4350 O   0  0  0  0  0  0  0  0  0  0  0  0
   40.5570   27.1060  -13.5550 C   0  0  0  0  0  0  0  0  0  0  0  0
   39.4060   27.6890  -13.0560 O   0  0  0  0  0  0  0  0  0  0  0  0
   39.7530   26.0980  -17.0470 C   0  0  0  0  0  0  0  0  0  0  0  0
   38.7760   26.2210  -18.0370 C   0  0  0  0  0  0  0  0  0  0  0  0
   37.6900   27.0880  -17.8660 C   0  0  0  0  0  0  0  0  0  0  0  0
   36.6480   27.1960  -18.9460 C   0  0  0  0  0  0  0  0  0  0  0  0
   34.2745   29.9055  -17.4389 H   0  0  0  0  0  0  0  0  0  0  0  0
   35.0084   30.7707  -18.8316 H   0  0  0  0  0  0  0  0  0  0  0  0
   34.9253   28.9763  -18.8316 H   0  0  0  0  0  0  0  0  0  0  0  0
   37.1961   29.6233  -18.2889 H   0  0  0  0  0  0  0  0  0  0  0  0
   36.5996   30.7636  -17.0137 H   0  0  0  0  0  0  0  0  0  0  0  0
   35.5296   29.8423  -14.9987 H   0  0  0  0  0  0  0  0  0  0  0  0
   36.3035   28.3071  -14.4599 H   0  0  0  0  0  0  0  0  0  0  0  0
   37.7506   29.9988  -13.6476 H   0  0  0  0  0  0  0  0  0  0  0  0
   38.5432   29.4285  -15.1553 H   0  0  0  0  0  0  0  0  0  0  0  0
   37.6135   30.9655  -15.1553 H   0  0  0  0  0  0  0  0  0  0  0  0
   38.5011   28.2979  -14.7692 H   0  0  0  0  0  0  0  0  0  0  0  0
   44.0879   24.9970  -16.0478 H   0  0  0  0  0  0  0  0  0  0  0  0
   46.0786   24.6033  -14.5937 H   0  0  0  0  0  0  0  0  0  0  0  0
   46.0253   25.2824  -12.1894 H   0  0  0  0  0  0  0  0  0  0  0  0
   44.3220   25.7780  -10.3410 H   0  0  0  0  0  0  0  0  0  0  0  0
   39.2650   28.6090  -13.1580 H   0  0  0  0  0  0  0  0  0  0  0  0
   40.6033   25.4178  -17.2026 H   0  0  0  0  0  0  0  0  0  0  0  0
   38.8605   25.6304  -18.9612 H   0  0  0  0  0  0  0  0  0  0  0  0
   35.6536   27.2991  -18.4871 H   0  0  0  0  0  0  0  0  0  0  0  0
   36.8569   28.0773  -19.5702 H   0  0  0  0  0  0  0  0  0  0  0  0
   36.6717   26.2906  -19.5702 H   0  0  0  0  0  0  0  0  0  0  0  0
  1  2  1  0
  2  3  1  0
  3  4  1  0
  4  5  1  0
  3  6  1  0
  6  7  2  0
  7  8  1  0
  8  9  1  0
  9 10  1  0
 10 11  1  0
 11 12  2  0
 12 13  1  0
 13 14  2  0
 14 15  1  0
 15 16  1  0
 15 17  2  0
 17 18  1  0
 18 19  2  0
 18 20  1  0
 20 21  1  0
  8 22  2  0
 22 23  1  0
 23 24  2  0
 24 25  1  0
 24  6  1  0
 20  9  2  0
 17 11  1  0
  1 26  1  0
  1 27  1  0
  1 28  1  0
  2 29  1  0
  2 30  1  0
  4 31  1  0
  4 32  1  0
  5 33  1  0
  5 34  1  0
  5 35  1  0
  7 36  1  0
 12 37  1  0
 13 38  1  0
 14 39  1  0
 16 40  1  0
 21 41  1  0
 22 42  1  0
 23 43  1  0
 25 44  1  0
 25 45  1  0
 25 46  1  0
M  END
>  <meeko>  (3) 
{"is_sidechain": [false], "free_energy": -4.571, "intermolecular_energy": -7.451, "internal_energy": 1.8}

$$$$
cand_054_out
     RDKit          3D

 46 48  0  0  0  0  0  0  0  0999 V2000
   46.2900   24.1920  -13.6330 C   0  0  0  0  0  0  0  0  0  0  0  0
   44.9100   24.5940  -14.1330 C   0  0  0  0  0  0  0  0  0  0  0  0
   44.7050   26.0540  -14.0390 N   0  0  0  0  0  0  0  0  0  0  0  0
   45.8200   26.7960  -13.4160 C   0  0  0  0  0  0  0  0  0  0  0  0
   47.0390   26.7710  -14.3270 C   0  0  0  0  0  0  0  0  0  0  0  0
   43.4760   26.4130  -13.4230 C   0  0  0  0  0  0  0  0  0  0  0  0
   42.3500   26.8000  -14.1750 C   0  0  0  0  0  0  0  0  0  0  0  0
   41.1340   27.1340  -13.5610 C   0  0  0  0  0  0  0  0  0  0  0  0
   39.9600   27.5650  -14.3490 C   0  0  0  0  0  0  0  0  0  0  0  0
   39.8590   26.9080  -15.5700 O   0  0  0  0  0  0  0  0  0  0  0  0
   38.8140   27.2130  -16.4040 C   0  0  0  0  0  0  0  0  0  0  0  0
   38.7450   26.5200  -17.6120 C   0  0  0  0  0  0  0  0  0  0  0  0
   37.7050   26.7830  -18.5070 C   0  0  0  0  0  0  0  0  0  0  0  0
   36.7370   27.7410  -18.1940 C   0  0  0  0  0  0  0  0  0  0  0  0
   36.8100   28.4310  -16.9870 C   0  0  0  0  0  0  0  0  0  0  0  0
   35.8300   29.3550  -16.7440 O   0  0  0  0  0  0  0  0  0  0  0  0
   37.8500   28.1660  -16.0910 C   0  0  0  0  0  0  0  0  0  0  0  0
   37.9630   28.8690  -14.8130 C   0  0  0  0  0  0  0  0  0  0  0  0
   37.1540   29.7290  -14.4690 O   0  0  0  0  0  0  0  0  0  0  0  0
   39.0960   28.5090  -13.9310 C   0  0  0  0  0  0  0  0  0  0  0  0
   39.2000   29.1890  -12.7310 O   0  0  0  0  0  0  0  0  0  0  0  0
   41.0560   27.0870  -12.1640 C   0  0  0  0  0  0  0  0  0  0  0  0
   42.1590   26.6960  -11.4010 C   0  0  0  0  0  0  0  0  0  0  0  0
   43.3680   26.3500  -12.0180 C   0  0  0  0  0  0  0  0  0  0  0  0
   44.5380   25.9250  -11.1730 C   0  0  0  0  0  0  0  0  0  0  0  0
   46.2954   24.1904  -12.5330 H   0  0  0  0  0  0  0  0  0  0  0  0
   46.5349   23.1852  -14.0023 H   0  0  0  0  0  0  0  0  0  0  0  0
   47.0373   24.9098  -14.0023 H   0  0  0  0  0  0  0  0  0  0  0  0
   44.8064   24.2853  -15.1837 H   0  0  0  0  0  0  0  0  0  0  0  0
   44.1565   24.0981  -13.5035 H   0  0  0  0  0  0  0  0  0  0  0  0
   45.5135   27.8388  -13.2470 H   0  0  0  0  0  0  0  0  0  0  0  0
   46.0772   26.3213  -12.4576 H   0  0  0  0  0  0  0  0  0  0  0  0
   47.9533   26.7522  -13.7157 H   0  0  0  0  0  0  0  0  0  0  0  0
   47.0039   25.8734  -14.9619 H   0  0  0  0  0  0  0  0  0  0  0  0
   47.0408   27.6693  -14.9619 H   0  0  0  0  0  0  0  0  0  0  0  0
   42.4261   26.8414  -15.2716 H   0  0  0  0  0  0  0  0  0  0  0  0
   39.5081   25.7675  -17.8599 H   0  0  0  0  0  0  0  0  0  0  0  0
   37.6481   26.2353  -19.4592 H   0  0  0  0  0  0  0  0  0  0  0  0
   35.9193   27.9494  -18.8996 H   0  0  0  0  0  0  0  0  0  0  0  0
   35.3750   29.7550  -17.4600 H   0  0  0  0  0  0  0  0  0  0  0  0
   38.9000   28.7900  -11.9390 H   0  0  0  0  0  0  0  0  0  0  0  0
   40.1164   27.3608  -11.6619 H   0  0  0  0  0  0  0  0  0  0  0  0
   42.0772   26.6595  -10.3047 H   0  0  0  0  0  0  0  0  0  0  0  0
   44.2757   26.0203  -10.1090 H   0  0  0  0  0  0  0  0  0  0  0  0
   44.7902   24.8778  -11.3961 H   0  0  0  0  0  0  0  0  0  0  0  0
   45.4035   26.5662  -11.3961 H   0  0  0  0  0  0  0  0  0  0  0  0
  1  2  1  0
  2  3  1  0
  3  4  1  0
  4  5  1  0
  3  6  1  0
  6  7  2  0
  7  8  1  0
  8  9  1  0
  9 10  1  0
 10 11  1  0
 11 12  2  0
 12 13  1  0
 13 14  2  0
 14 15  1  0
 15 16  1  0
 15 17  2  0
 17 18  1  0
 18 19  2  0
 18 20  1  0
 20 21  1  0
  8 22  2  0
 22 23  1  0
 23 24  2  0
 24 25  1  0
 24  6  1  0
 20  9  2  0
 17 11  1  0
  1 26  1  0
  1 27  1  0
  1 28  1  0
  2 29  1  0
  2 30  1  0
  4 31  1  0
  4 32  1  0
  5 33  1  0
  5 34  1  0
  5 35  1  0
  7 36  1  0
 12 37  1  0
 13 38  1  0
 14 39  1  0
 16 40  1  0
 21 41  1  0
 22 42  1  0
 23 43  1  0
 25 44  1  0
 25 45  1  0
 25 46  1  0
M  END
>  <meeko>  (4) 
{"is_sidechain": [false], "free_energy": -4.525, "intermolecular_energy": -7.453, "internal_energy": 1.862}

$$$$
cand_054_out
     RDKit          3D

 46 48  0  0  0  0  0  0  0  0999 V2000
   45.1070   27.3240  -13.0190 C   0  0  0  0  0  0  0  0  0  0  0  0
   43.8780   27.4800  -13.9050 C   0  0  0  0  0  0  0  0  0  0  0  0
   42.9390   26.3530  -13.7320 N   0  0  0  0  0  0  0  0  0  0  0  0
   43.0890   25.2670  -14.7210 C   0  0  0  0  0  0  0  0  0  0  0  0
   44.4090   24.5400  -14.5060 C   0  0  0  0  0  0  0  0  0  0  0  0
   41.5800   26.7580  -13.6540 C   0  0  0  0  0  0  0  0  0  0  0  0
   40.7580   26.8330  -14.7950 C   0  0  0  0  0  0  0  0  0  0  0  0
   39.4110   27.2140  -14.7090 C   0  0  0  0  0  0  0  0  0  0  0  0
   38.5550   27.3180  -15.9110 C   0  0  0  0  0  0  0  0  0  0  0  0
   37.6290   28.3510  -15.8250 O   0  0  0  0  0  0  0  0  0  0  0  0
   36.7700   28.5610  -16.8720 C   0  0  0  0  0  0  0  0  0  0  0  0
   35.8670   29.6160  -16.7500 C   0  0  0  0  0  0  0  0  0  0  0  0
   34.9630   29.8840  -17.7810 C   0  0  0  0  0  0  0  0  0  0  0  0
   34.9620   29.0930  -18.9330 C   0  0  0  0  0  0  0  0  0  0  0  0
   35.8640   28.0400  -19.0520 C   0  0  0  0  0  0  0  0  0  0  0  0
   35.8090   27.3070  -20.2060 O   0  0  0  0  0  0  0  0  0  0  0  0
   36.7690   27.7740  -18.0200 C   0  0  0  0  0  0  0  0  0  0  0  0
   37.7340   26.6770  -18.1060 C   0  0  0  0  0  0  0  0  0  0  0  0
   37.7900   25.9330  -19.0840 O   0  0  0  0  0  0  0  0  0  0  0  0
   38.6540   26.4840  -16.9620 C   0  0  0  0  0  0  0  0  0  0  0  0
   39.5530   25.4360  -17.0480 O   0  0  0  0  0  0  0  0  0  0  0  0
   38.8870   27.5360  -13.4520 C   0  0  0  0  0  0  0  0  0  0  0  0
   39.6830   27.4570  -12.3070 C   0  0  0  0  0  0  0  0  0  0  0  0
   41.0250   27.0630  -12.3940 C   0  0  0  0  0  0  0  0  0  0  0  0
   41.8580   26.9800  -11.1440 C   0  0  0  0  0  0  0  0  0  0  0  0
   44.8044   27.3624  -11.9621 H   0  0  0  0  0  0  0  0  0  0  0  0
   45.5890   26.3575  -13.2275 H   0  0  0  0  0  0  0  0  0  0  0  0
   45.8152   28.1395  -13.2275 H   0  0  0  0  0  0  0  0  0  0  0  0
   43.3645   28.4166  -13.6421 H   0  0  0  0  0  0  0  0  0  0  0  0
   44.2087   27.4956  -14.9540 H   0  0  0  0  0  0  0  0  0  0  0  0
   42.2588   24.5544  -14.6071 H   0  0  0  0  0  0  0  0  0  0  0  0
   43.0770   25.6983  -15.7328 H   0  0  0  0  0  0  0  0  0  0  0  0
   44.5986   24.4356  -13.4275 H   0  0  0  0  0  0  0  0  0  0  0  0
   44.3578   23.5428  -14.9676 H   0  0  0  0  0  0  0  0  0  0  0  0
   45.2244   25.1163  -14.9676 H   0  0  0  0  0  0  0  0  0  0  0  0
   41.1834   26.5864  -15.7790 H   0  0  0  0  0  0  0  0  0  0  0  0
   35.8662   30.2373  -15.8423 H   0  0  0  0  0  0  0  0  0  0  0  0
   34.2519   30.7178  -17.6859 H   0  0  0  0  0  0  0  0  0  0  0  0
   34.2494   29.3024  -19.7444 H   0  0  0  0  0  0  0  0  0  0  0  0
   36.4900   26.6930  -20.4050 H   0  0  0  0  0  0  0  0  0  0  0  0
   39.8110   25.1070  -17.8860 H   0  0  0  0  0  0  0  0  0  0  0  0
   37.8377   27.8545  -13.3648 H   0  0  0  0  0  0  0  0  0  0  0  0
   39.2518   27.7068  -11.3263 H   0  0  0  0  0  0  0  0  0  0  0  0
   41.2036   27.0452  -10.2623 H   0  0  0  0  0  0  0  0  0  0  0  0
   42.4007   26.0233  -11.1279 H   0  0  0  0  0  0  0  0  0  0  0  0
   42.5788   27.8108  -11.1279 H   0  0  0  0  0  0  0  0  0  0  0  0
  1  2  1  0
  2  3  1  0
  3  4  1  0
  4  5  1  0
  3  6  1  0
  6  7  2  0
  7  8  1  0
  8  9  1  0
  9 10  1  0
 10 11  1  0
 11 12  2  0
 12 13  1  0
 13 14  2  0
 14 15  1  0
 15 16  1  0
 15 17  2  0
 17 18  1  0
 18 19  2  0
 18 20  1  0
 20 21  1  0
  8 22  2  0
 22 23  1  0
 23 24  2  0
 24 25  1  0
 24  6  1  0
 20  9  2  0
 17 11  1  0
  1 26  1  0
  1 27  1  0
  1 28  1  0
  2 29  1  0
  2 30  1  0
  4 31  1  0
  4 32  1  0
  5 33  1  0
  5 34  1  0
  5 35  1  0
  7 36  1  0
 12 37  1  0
 13 38  1  0
 14 39  1  0
 16 40  1  0
 21 41  1  0
 22 42  1  0
 23 43  1  0
 25 44  1  0
 25 45  1  0
 25 46  1  0
M  END
>  <meeko>  (5) 
{"is_sidechain": [false], "free_energy": -4.434, "intermolecular_energy": -5.432, "internal_energy": -0.042}

$$$$
cand_054_out
     RDKit          3D

 46 48  0  0  0  0  0  0  0  0999 V2000
   47.6700   26.6750  -14.5720 C   0  0  0  0  0  0  0  0  0  0  0  0
   46.5850   26.0530  -13.7030 C   0  0  0  0  0  0  0  0  0  0  0  0
   45.3320   26.8320  -13.7620 N   0  0  0  0  0  0  0  0  0  0  0  0
   45.0290   27.6090  -12.5430 C   0  0  0  0  0  0  0  0  0  0  0  0
   43.8160   27.0230  -11.8350 C   0  0  0  0  0  0  0  0  0  0  0  0
   44.2030   26.0570  -14.1390 C   0  0  0  0  0  0  0  0  0  0  0  0
   43.0590   26.6390  -14.7190 C   0  0  0  0  0  0  0  0  0  0  0  0
   41.9550   25.8650  -15.1080 C   0  0  0  0  0  0  0  0  0  0  0  0
   40.7440   26.4800  -15.6930 C   0  0  0  0  0  0  0  0  0  0  0  0
   40.0350   27.2500  -14.7780 O   0  0  0  0  0  0  0  0  0  0  0  0
   38.8880   27.8790  -15.1890 C   0  0  0  0  0  0  0  0  0  0  0  0
   38.2160   28.6530  -14.2430 C   0  0  0  0  0  0  0  0  0  0  0  0
   37.0410   29.3200  -14.5960 C   0  0  0  0  0  0  0  0  0  0  0  0
   36.5370   29.2100  -15.8940 C   0  0  0  0  0  0  0  0  0  0  0  0
   37.2090   28.4360  -16.8350 C   0  0  0  0  0  0  0  0  0  0  0  0
   36.6610   28.3720  -18.0880 O   0  0  0  0  0  0  0  0  0  0  0  0
   38.3860   27.7710  -16.4820 C   0  0  0  0  0  0  0  0  0  0  0  0
   39.1240   26.9480  -17.4420 C   0  0  0  0  0  0  0  0  0  0  0  0
   38.7410   26.7970  -18.6000 O   0  0  0  0  0  0  0  0  0  0  0  0
   40.3640   26.2910  -16.9700 C   0  0  0  0  0  0  0  0  0  0  0  0
   41.0450   25.5050  -17.8820 O   0  0  0  0  0  0  0  0  0  0  0  0
   42.0010   24.4820  -14.8960 C   0  0  0  0  0  0  0  0  0  0  0  0
   43.1310   23.8860  -14.3310 C   0  0  0  0  0  0  0  0  0  0  0  0
   44.2370   24.6590  -13.9570 C   0  0  0  0  0  0  0  0  0  0  0  0
   45.4440   23.9890  -13.3580 C   0  0  0  0  0  0  0  0  0  0  0  0
   48.4446   27.1191  -13.9295 H   0  0  0  0  0  0  0  0  0  0  0  0
   48.1212   25.8984  -15.2071 H   0  0  0  0  0  0  0  0  0  0  0  0
   47.2278   27.4568  -15.2071 H   0  0  0  0  0  0  0  0  0  0  0  0
   46.3870   25.0301  -14.0559 H   0  0  0  0  0  0  0  0  0  0  0  0
   46.9386   26.0462  -12.6614 H   0  0  0  0  0  0  0  0  0  0  0  0
   45.8957   27.5764  -11.8664 H   0  0  0  0  0  0  0  0  0  0  0  0
   44.8122   28.6499  -12.8251 H   0  0  0  0  0  0  0  0  0  0  0  0
   43.9582   27.0917  -10.7464 H   0  0  0  0  0  0  0  0  0  0  0  0
   42.9158   27.5856  -12.1234 H   0  0  0  0  0  0  0  0  0  0  0  0
   43.6972   25.9682  -12.1234 H   0  0  0  0  0  0  0  0  0  0  0  0
   43.0302   27.7281  -14.8709 H   0  0  0  0  0  0  0  0  0  0  0  0
   38.6112   28.7379  -13.2200 H   0  0  0  0  0  0  0  0  0  0  0  0
   36.5119   29.9326  -13.8512 H   0  0  0  0  0  0  0  0  0  0  0  0
   35.6107   29.7342  -16.1718 H   0  0  0  0  0  0  0  0  0  0  0  0
   36.2390   27.5860  -18.3750 H   0  0  0  0  0  0  0  0  0  0  0  0
   40.9320   25.6480  -18.8000 H   0  0  0  0  0  0  0  0  0  0  0  0
   41.1392   23.8588  -15.1770 H   0  0  0  0  0  0  0  0  0  0  0  0
   43.1522   22.7969  -14.1781 H   0  0  0  0  0  0  0  0  0  0  0  0
   45.3772   24.0261  -12.2607 H   0  0  0  0  0  0  0  0  0  0  0  0
   45.4827   22.9403  -13.6877 H   0  0  0  0  0  0  0  0  0  0  0  0
   46.3545   24.5108  -13.6877 H   0  0  0  0  0  0  0  0  0  0  0  0
  1  2  1  0
  2  3  1  0
  3  4  1  0
  4  5  1  0
  3  6  1  0
  6  7  2  0
  7  8  1  0
  8  9  1  0
  9 10  1  0
 10 11  1  0
 11 12  2  0
 12 13  1  0
 13 14  2  0
 14 15  1  0
 15 16  1  0
 15 17  2  0
 17 18  1  0
 18 19  2  0
 18 20  1  0
 20 21  1  0
  8 22  2  0
 22 23  1  0
 23 24  2  0
 24 25  1  0
 24  6  1  0
 20  9  2  0
 17 11  1  0
  1 26  1  0
  1 27  1  0
  1 28  1  0
  2 29  1  0
  2 30  1  0
  4 31  1  0
  4 32  1  0
  5 33  1  0
  5 34  1  0
  5 35  1  0
  7 36  1  0
 12 37  1  0
 13 38  1  0
 14 39  1  0
 16 40  1  0
 21 41  1  0
 22 42  1  0
 23 43  1  0
 25 44  1  0
 25 45  1  0
 25 46  1  0
M  END
>  <meeko>  (6) 
{"is_sidechain": [false], "free_energy": -4.378, "intermolecular_energy": -6.979, "internal_energy": 1.578}

$$$$
cand_054_out
     RDKit          3D

 46 48  0  0  0  0  0  0  0  0999 V2000
   46.6110   26.4300  -13.8700 C   0  0  0  0  0  0  0  0  0  0  0  0
   45.1690   26.9070  -13.9870 C   0  0  0  0  0  0  0  0  0  0  0  0
   44.2160   25.8440  -13.6090 N   0  0  0  0  0  0  0  0  0  0  0  0
   43.9370   24.8580  -14.6730 C   0  0  0  0  0  0  0  0  0  0  0  0
   42.9250   25.4230  -15.6600 C   0  0  0  0  0  0  0  0  0  0  0  0
   42.9980   26.3430  -13.0750 C   0  0  0  0  0  0  0  0  0  0  0  0
   41.9300   26.7420  -13.9020 C   0  0  0  0  0  0  0  0  0  0  0  0
   40.7220   27.2150  -13.3670 C   0  0  0  0  0  0  0  0  0  0  0  0
   39.6110   27.6590  -14.2360 C   0  0  0  0  0  0  0  0  0  0  0  0
   39.5730   26.9850  -15.4510 O   0  0  0  0  0  0  0  0  0  0  0  0
   38.5910   27.2980  -16.3540 C   0  0  0  0  0  0  0  0  0  0  0  0
   38.5820   26.5870  -17.5540 C   0  0  0  0  0  0  0  0  0  0  0  0
   37.6080   26.8580  -18.5180 C   0  0  0  0  0  0  0  0  0  0  0  0
   36.6450   27.8420  -18.2820 C   0  0  0  0  0  0  0  0  0  0  0  0
   36.6570   28.5510  -17.0840 C   0  0  0  0  0  0  0  0  0  0  0  0
   35.6850   29.5000  -16.9180 O   0  0  0  0  0  0  0  0  0  0  0  0
   37.6310   28.2780  -16.1190 C   0  0  0  0  0  0  0  0  0  0  0  0
   37.6780   28.9990  -14.8470 C   0  0  0  0  0  0  0  0  0  0  0  0
   36.8700   29.8830  -14.5680 O   0  0  0  0  0  0  0  0  0  0  0  0
   38.7450   28.6290  -13.8890 C   0  0  0  0  0  0  0  0  0  0  0  0
   38.7870   29.3270  -12.6950 O   0  0  0  0  0  0  0  0  0  0  0  0
   40.5930   27.2970  -11.9760 C   0  0  0  0  0  0  0  0  0  0  0  0
   41.6370   26.8950  -11.1400 C   0  0  0  0  0  0  0  0  0  0  0  0
   42.8370   26.4110  -11.6760 C   0  0  0  0  0  0  0  0  0  0  0  0
   43.9430   25.9780  -10.7510 C   0  0  0  0  0  0  0  0  0  0  0  0
   46.8825   26.3402  -12.8078 H   0  0  0  0  0  0  0  0  0  0  0  0
   46.7138   25.4500  -14.3589 H   0  0  0  0  0  0  0  0  0  0  0  0
   47.2780   27.1554  -14.3589 H   0  0  0  0  0  0  0  0  0  0  0  0
   45.0231   27.7711  -13.3221 H   0  0  0  0  0  0  0  0  0  0  0  0
   44.9804   27.1836  -15.0348 H   0  0  0  0  0  0  0  0  0  0  0  0
   44.8709   24.6228  -15.2045 H   0  0  0  0  0  0  0  0  0  0  0  0
   43.5242   23.9455  -14.2180 H   0  0  0  0  0  0  0  0  0  0  0  0
   42.0942   25.8869  -15.1081 H   0  0  0  0  0  0  0  0  0  0  0  0
   43.4126   26.1794  -16.2925 H   0  0  0  0  0  0  0  0  0  0  0  0
   42.5370   24.6110  -16.2925 H   0  0  0  0  0  0  0  0  0  0  0  0
   42.0457   26.6813  -14.9942 H   0  0  0  0  0  0  0  0  0  0  0  0
   39.3413   25.8134  -17.7411 H   0  0  0  0  0  0  0  0  0  0  0  0
   37.5994   26.2961  -19.4636 H   0  0  0  0  0  0  0  0  0  0  0  0
   35.8786   28.0563  -19.0414 H   0  0  0  0  0  0  0  0  0  0  0  0
   35.8490   30.2500  -16.3790 H   0  0  0  0  0  0  0  0  0  0  0  0
   38.6660   30.2550  -12.6900 H   0  0  0  0  0  0  0  0  0  0  0  0
   39.6606   27.6817  -11.5370 H   0  0  0  0  0  0  0  0  0  0  0  0
   41.5155   26.9592  -10.0486 H   0  0  0  0  0  0  0  0  0  0  0  0
   43.6190   26.1048   -9.7075 H   0  0  0  0  0  0  0  0  0  0  0  0
   44.1816   24.9200  -10.9348 H   0  0  0  0  0  0  0  0  0  0  0  0
   44.8365   26.5927  -10.9348 H   0  0  0  0  0  0  0  0  0  0  0  0
  1  2  1  0
  2  3  1  0
  3  4  1  0
  4  5  1  0
  3  6  1  0
  6  7  2  0
  7  8  1  0
  8  9  1  0
  9 10  1  0
 10 11  1  0
 11 12  2  0
 12 13  1  0
 13 14  2  0
 14 15  1  0
 15 16  1  0
 15 17  2  0
 17 18  1  0
 18 19  2  0
 18 20  1  0
 20 21  1  0
  8 22  2  0
 22 23  1  0
 23 24  2  0
 24 25  1  0
 24  6  1  0
 20  9  2  0
 17 11  1  0
  1 26  1  0
  1 27  1  0
  1 28  1  0
  2 29  1  0
  2 30  1  0
  4 31  1  0
  4 32  1  0
  5 33  1  0
  5 34  1  0
  5 35  1  0
  7 36  1  0
 12 37  1  0
 13 38  1  0
 14 39  1  0
 16 40  1  0
 21 41  1  0
 22 42  1  0
 23 43  1  0
 25 44  1  0
 25 45  1  0
 25 46  1  0
M  END
>  <meeko>  (7) 
{"is_sidechain": [false], "free_energy": -3.94, "intermolecular_energy": -6.02, "internal_energy": 1.185}

$$$$
cand_054_out
     RDKit          3D

 46 48  0  0  0  0  0  0  0  0999 V2000
   44.3610   28.6360  -12.9200 C   0  0  0  0  0  0  0  0  0  0  0  0
   45.4590   27.6960  -12.4430 C   0  0  0  0  0  0  0  0  0  0  0  0
   45.6630   26.5790  -13.3870 N   0  0  0  0  0  0  0  0  0  0  0  0
   46.4700   26.9140  -14.5780 C   0  0  0  0  0  0  0  0  0  0  0  0
   47.8940   26.4050  -14.4070 C   0  0  0  0  0  0  0  0  0  0  0  0
   44.4540   25.9450  -13.7800 C   0  0  0  0  0  0  0  0  0  0  0  0
   43.2660   26.6720  -13.9920 C   0  0  0  0  0  0  0  0  0  0  0  0
   42.0810   26.0420  -14.4000 C   0  0  0  0  0  0  0  0  0  0  0  0
   40.8270   26.8020  -14.5970 C   0  0  0  0  0  0  0  0  0  0  0  0
   40.2970   26.6450  -15.8730 O   0  0  0  0  0  0  0  0  0  0  0  0
   39.1320   27.2950  -16.1920 C   0  0  0  0  0  0  0  0  0  0  0  0
   38.6280   27.0970  -17.4770 C   0  0  0  0  0  0  0  0  0  0  0  0
   37.4460   27.7310  -17.8670 C   0  0  0  0  0  0  0  0  0  0  0  0
   36.7710   28.5640  -16.9710 C   0  0  0  0  0  0  0  0  0  0  0  0
   37.2780   28.7600  -15.6900 C   0  0  0  0  0  0  0  0  0  0  0  0
   36.5660   29.5880  -14.8640 O   0  0  0  0  0  0  0  0  0  0  0  0
   38.4590   28.1240  -15.3000 C   0  0  0  0  0  0  0  0  0  0  0  0
   39.0250   28.3020  -13.9620 C   0  0  0  0  0  0  0  0  0  0  0  0
   38.4930   29.0250  -13.1210 O   0  0  0  0  0  0  0  0  0  0  0  0
   40.2770   27.5780  -13.6460 C   0  0  0  0  0  0  0  0  0  0  0  0
   40.8090   27.7650  -12.3820 O   0  0  0  0  0  0  0  0  0  0  0  0
   42.0900   24.6550  -14.5860 C   0  0  0  0  0  0  0  0  0  0  0  0
   43.2610   23.9190  -14.3910 C   0  0  0  0  0  0  0  0  0  0  0  0
   44.4470   24.5520  -13.9970 C   0  0  0  0  0  0  0  0  0  0  0  0
   45.6960   23.7350  -13.8010 C   0  0  0  0  0  0  0  0  0  0  0  0
   43.8496   29.0738  -12.0501 H   0  0  0  0  0  0  0  0  0  0  0  0
   44.8040   29.4390  -13.5273 H   0  0  0  0  0  0  0  0  0  0  0  0
   43.6358   28.0745  -13.5273 H   0  0  0  0  0  0  0  0  0  0  0  0
   46.3980   28.2613  -12.3499 H   0  0  0  0  0  0  0  0  0  0  0  0
   45.1565   27.2765  -11.4721 H   0  0  0  0  0  0  0  0  0  0  0  0
   46.0204   26.4448  -15.4655 H   0  0  0  0  0  0  0  0  0  0  0  0
   46.4915   28.0068  -14.7017 H   0  0  0  0  0  0  0  0  0  0  0  0
   48.1274   26.3216  -13.3353 H   0  0  0  0  0  0  0  0  0  0  0  0
   47.9897   25.4170  -14.8811 H   0  0  0  0  0  0  0  0  0  0  0  0
   48.5943   27.1085  -14.8811 H   0  0  0  0  0  0  0  0  0  0  0  0
   43.2677   27.7605  -13.8337 H   0  0  0  0  0  0  0  0  0  0  0  0
   39.1605   26.4424  -18.1826 H   0  0  0  0  0  0  0  0  0  0  0  0
   37.0465   27.5744  -18.8798 H   0  0  0  0  0  0  0  0  0  0  0  0
   35.8404   29.0640  -17.2777 H   0  0  0  0  0  0  0  0  0  0  0  0
   35.7110   29.8800  -15.1160 H   0  0  0  0  0  0  0  0  0  0  0  0
   41.5200   28.3610  -12.2570 H   0  0  0  0  0  0  0  0  0  0  0  0
   41.1664   24.1397  -14.8885 H   0  0  0  0  0  0  0  0  0  0  0  0
   43.2518   22.8304  -14.5485 H   0  0  0  0  0  0  0  0  0  0  0  0
   45.8872   23.6099  -12.7250 H   0  0  0  0  0  0  0  0  0  0  0  0
   45.5651   22.7474  -14.2674 H   0  0  0  0  0  0  0  0  0  0  0  0
   46.5484   24.2507  -14.2674 H   0  0  0  0  0  0  0  0  0  0  0  0
  1  2  1  0
  2  3  1  0
  3  4  1  0
  4  5  1  0
  3  6  1  0
  6  7  2  0
  7  8  1  0
  8  9  1  0
  9 10  1  0
 10 11  1  0
 11 12  2  0
 12 13  1  0
 13 14  2  0
 14 15  1  0
 15 16  1  0
 15 17  2  0
 17 18  1  0
 18 19  2  0
 18 20  1  0
 20 21  1  0
  8 22  2  0
 22 23  1  0
 23 24  2  0
 24 25  1  0
 24  6  1  0
 20  9  2  0
 17 11  1  0
  1 26  1  0
  1 27  1  0
  1 28  1  0
  2 29  1  0
  2 30  1  0
  4 31  1  0
  4 32  1  0
  5 33  1  0
  5 34  1  0
  5 35  1  0
  7 36  1  0
 12 37  1  0
 13 38  1  0
 14 39  1  0
 16 40  1  0
 21 41  1  0
 22 42  1  0
 23 43  1  0
 25 44  1  0
 25 45  1  0
 25 46  1  0
M  END
>  <meeko>  (8) 
{"is_sidechain": [false], "free_energy": -3.354, "intermolecular_energy": -4.977, "internal_energy": 0.899}

$$$$
cand_054_out
     RDKit          3D

 46 48  0  0  0  0  0  0  0  0999 V2000
   39.1400   27.0550  -18.3320 C   0  0  0  0  0  0  0  0  0  0  0  0
   38.2160   26.5940  -17.2130 C   0  0  0  0  0  0  0  0  0  0  0  0
   37.8350   27.7150  -16.3300 N   0  0  0  0  0  0  0  0  0  0  0  0
   37.6890   29.0170  -17.0120 C   0  0  0  0  0  0  0  0  0  0  0  0
   36.2520   29.2050  -17.4800 C   0  0  0  0  0  0  0  0  0  0  0  0
   38.6790   27.8510  -15.1950 C   0  0  0  0  0  0  0  0  0  0  0  0
   39.9450   27.2390  -15.1300 C   0  0  0  0  0  0  0  0  0  0  0  0
   40.7820   27.3940  -14.0150 C   0  0  0  0  0  0  0  0  0  0  0  0
   42.1000   26.7300  -13.9360 C   0  0  0  0  0  0  0  0  0  0  0  0
   43.0840   27.5470  -13.3900 O   0  0  0  0  0  0  0  0  0  0  0  0
   44.3570   27.0550  -13.2570 C   0  0  0  0  0  0  0  0  0  0  0  0
   45.3080   27.9040  -12.6910 C   0  0  0  0  0  0  0  0  0  0  0  0
   46.6240   27.4650  -12.5280 C   0  0  0  0  0  0  0  0  0  0  0  0
   46.9880   26.1790  -12.9350 C   0  0  0  0  0  0  0  0  0  0  0  0
   46.0370   25.3350  -13.5000 C   0  0  0  0  0  0  0  0  0  0  0  0
   46.4610   24.0900  -13.8750 O   0  0  0  0  0  0  0  0  0  0  0  0
   44.7200   25.7740  -13.6610 C   0  0  0  0  0  0  0  0  0  0  0  0
   43.6890   24.9180  -14.2500 C   0  0  0  0  0  0  0  0  0  0  0  0
   43.9330   23.7770  -14.6380 O   0  0  0  0  0  0  0  0  0  0  0  0
   42.3220   25.4750  -14.3690 C   0  0  0  0  0  0  0  0  0  0  0  0
   41.3600   24.6620  -14.9390 O   0  0  0  0  0  0  0  0  0  0  0  0
   40.3280   28.1710  -12.9420 C   0  0  0  0  0  0  0  0  0  0  0  0
   39.0800   28.7950  -12.9930 C   0  0  0  0  0  0  0  0  0  0  0  0
   38.2520   28.6490  -14.1130 C   0  0  0  0  0  0  0  0  0  0  0  0
   36.9150   29.3380  -14.1440 C   0  0  0  0  0  0  0  0  0  0  0  0
   40.0445   27.5063  -17.8981 H   0  0  0  0  0  0  0  0  0  0  0  0
   39.4225   26.1922  -18.9531 H   0  0  0  0  0  0  0  0  0  0  0  0
   38.6205   27.7996  -18.9531 H   0  0  0  0  0  0  0  0  0  0  0  0
   37.3062   26.1623  -17.6556 H   0  0  0  0  0  0  0  0  0  0  0  0
   38.7508   25.8456  -16.6098 H   0  0  0  0  0  0  0  0  0  0  0  0
   37.9528   29.8250  -16.3137 H   0  0  0  0  0  0  0  0  0  0  0  0
   38.3580   29.0430  -17.8848 H   0  0  0  0  0  0  0  0  0  0  0  0
   35.5900   29.2916  -16.6058 H   0  0  0  0  0  0  0  0  0  0  0  0
   36.1805   30.1201  -18.0861 H   0  0  0  0  0  0  0  0  0  0  0  0
   35.9475   28.3390  -18.0861 H   0  0  0  0  0  0  0  0  0  0  0  0
   40.2867   26.6235  -15.9752 H   0  0  0  0  0  0  0  0  0  0  0  0
   45.0221   28.9176  -12.3735 H   0  0  0  0  0  0  0  0  0  0  0  0
   47.3743   28.1323  -12.0789 H   0  0  0  0  0  0  0  0  0  0  0  0
   48.0249   25.8342  -12.8090 H   0  0  0  0  0  0  0  0  0  0  0  0
   47.3640   23.9450  -14.0840 H   0  0  0  0  0  0  0  0  0  0  0  0
   40.8370   24.9800  -15.6490 H   0  0  0  0  0  0  0  0  0  0  0  0
   40.9608   28.2909  -12.0503 H   0  0  0  0  0  0  0  0  0  0  0  0
   38.7434   29.4081  -12.1440 H   0  0  0  0  0  0  0  0  0  0  0  0
   36.5701   29.5157  -13.1147 H   0  0  0  0  0  0  0  0  0  0  0  0
   37.0101   30.2994  -14.6700 H   0  0  0  0  0  0  0  0  0  0  0  0
   36.1872   28.7027  -14.6700 H   0  0  0  0  0  0  0  0  0  0  0  0
  1  2  1  0
  2  3  1  0
  3  4  1  0
  4  5  1  0
  3  6  1  0
  6  7  2  0
  7  8  1  0
  8  9  1  0
  9 10  1  0
 10 11  1  0
 11 12  2  0
 12 13  1  0
 13 14  2  0
 14 15  1  0
 15 16  1  0
 15 17  2  0
 17 18  1  0
 18 19  2  0
 18 20  1  0
 20 21  1  0
  8 22  2  0
 22 23  1  0
 23 24  2  0
 24 25  1  0
 24  6  1  0
 20  9  2  0
 17 11  1  0
  1 26  1  0
  1 27  1  0
  1 28  1  0
  2 29  1  0
  2 30  1  0
  4 31  1  0
  4 32  1  0
  5 33  1  0
  5 34  1  0
  5 35  1  0
  7 36  1  0
 12 37  1  0
 13 38  1  0
 14 39  1  0
 16 40  1  0
 21 41  1  0
 22 42  1  0
 23 43  1  0
 25 44  1  0
 25 45  1  0
 25 46  1  0
M  END
>  <meeko>  (9) 
{"is_sidechain": [false], "free_energy": -2.872, "intermolecular_energy": -3.898, "internal_energy": 0.443}

$$$$
