cand_017_out
     RDKit          3D

 38 40  0  0  0  0  0  0  0  0999 V2000
   41.7420   26.9230  -10.9740 C   0  0  0  0  0  0  0  0  0  0  0  0
   43.0870   26.6390  -11.6280 C   0  0  0  0  0  0  0  0  0  0  0  0
   42.9380   26.2410  -13.0800 C   0  0  0  0  0  0  0  0  0  0  0  0
   41.7730   26.6490  -13.7640 C   0  0  0  0  0  0  0  0  0  0  0  0
   41.5580   26.3290  -15.1110 C   0  0  0  0  0  0  0  0  0  0  0  0
   40.3490   26.7780  -15.8330 C   0  0  0  0  0  0  0  0  0  0  0  0
   39.5370   27.6040  -15.0660 O   0  0  0  0  0  0  0  0  0  0  0  0
   38.3800   28.0930  -15.6160 C   0  0  0  0  0  0  0  0  0  0  0  0
   37.5860   28.9050  -14.8040 C   0  0  0  0  0  0  0  0  0  0  0  0
   36.3940   29.4370  -15.3040 C   0  0  0  0  0  0  0  0  0  0  0  0
   35.9980   29.1560  -16.6120 C   0  0  0  0  0  0  0  0  0  0  0  0
   36.7910   28.3460  -17.4200 C   0  0  0  0  0  0  0  0  0  0  0  0
   36.3430   28.1130  -18.6920 O   0  0  0  0  0  0  0  0  0  0  0  0
   37.9830   27.8140  -16.9200 C   0  0  0  0  0  0  0  0  0  0  0  0
   38.8450   26.9570  -17.7340 C   0  0  0  0  0  0  0  0  0  0  0  0
   38.5690   26.6700  -18.8980 O   0  0  0  0  0  0  0  0  0  0  0  0
   40.0830   26.4370  -17.1080 C   0  0  0  0  0  0  0  0  0  0  0  0
   40.8970   25.6390  -17.8900 O   0  0  0  0  0  0  0  0  0  0  0  0
   42.5440   25.6020  -15.7860 C   0  0  0  0  0  0  0  0  0  0  0  0
   43.7050   25.1930  -15.1260 C   0  0  0  0  0  0  0  0  0  0  0  0
   43.9220   25.5060  -13.7730 C   0  0  0  0  0  0  0  0  0  0  0  0
   45.1870   25.0180  -13.1040 C   0  0  0  0  0  0  0  0  0  0  0  0
   46.1340   25.9900  -12.9740 F   0  0  0  0  0  0  0  0  0  0  0  0
   45.8030   24.0030  -13.7770 F   0  0  0  0  0  0  0  0  0  0  0  0
   41.8540   26.8994   -9.8800 H   0  0  0  0  0  0  0  0  0  0  0  0
   41.3856   27.9162  -11.2847 H   0  0  0  0  0  0  0  0  0  0  0  0
   41.0145   26.1587  -11.2847 H   0  0  0  0  0  0  0  0  0  0  0  0
   43.7085   27.5447  -11.5699 H   0  0  0  0  0  0  0  0  0  0  0  0
   43.5553   25.8003  -11.0920 H   0  0  0  0  0  0  0  0  0  0  0  0
   41.0132   27.2340  -13.2251 H   0  0  0  0  0  0  0  0  0  0  0  0
   37.8979   29.1257  -13.7725 H   0  0  0  0  0  0  0  0  0  0  0  0
   35.7677   30.0777  -14.6658 H   0  0  0  0  0  0  0  0  0  0  0  0
   35.0595   29.5744  -17.0046 H   0  0  0  0  0  0  0  0  0  0  0  0
   36.7900   27.5010  -19.2410 H   0  0  0  0  0  0  0  0  0  0  0  0
   40.6300   25.4060  -18.7570 H   0  0  0  0  0  0  0  0  0  0  0  0
   42.4036   25.3498  -16.8475 H   0  0  0  0  0  0  0  0  0  0  0  0
   44.4633   24.6155  -15.6750 H   0  0  0  0  0  0  0  0  0  0  0  0
   44.8257   24.6769  -12.1226 H   0  0  0  0  0  0  0  0  0  0  0  0
  1  2  1  0
  2  3  1  0
  3  4  2  0
  4  5  1  0
  5  6  1  0
  6  7  1  0
  7  8  1  0
  8  9  2  0
  9 10  1  0
 10 11  2  0
 11 12  1  0
 12 13  1  0
 12 14  2  0
 14 15  1  0
 15 16  2  0
 15 17  1  0
 17 18  1  0
  5 19  2  0
 19 20  1  0
 20 21  2  0
 21 22  1  0
 22 23  1  0
 22 24  1  0
 21  3  1  0
 17  6  2  0
 14  8  1  0
  1 25  1  0
  1 26  1  0
  1 27  1  0
  2 28  1  0
  2 29  1  0
  4 30  1  0
  9 31  1  0
 10 32  1  0
 11 33  1  0
 13 34  1  0
 18 35  1  0
 19 36  1  0
 20 37  1  0
 22 38  1  0
M  END
>  <meeko>  (1) 
{"is_sidechain": [false], "free_energy": -7.601, "intermolecular_energy": -9.378, "internal_energy": 0.057}

$$$$
cand_017_out
     RDKit          3D

 38 40  0  0  0  0  0  0  0  0999 V2000
   46.7780   27.2200  -13.8250 C   0  0  0  0  0  0  0  0  0  0  0  0
   45.6100   27.0440  -12.8640 C   0  0  0  0  0  0  0  0  0  0  0  0
   44.4700   26.2740  -13.4930 C   0  0  0  0  0  0  0  0  0  0  0  0
   43.2430   26.9430  -13.6830 C   0  0  0  0  0  0  0  0  0  0  0  0
   42.1370   26.3060  -14.2630 C   0  0  0  0  0  0  0  0  0  0  0  0
   40.8590   27.0150  -14.4840 C   0  0  0  0  0  0  0  0  0  0  0  0
   40.3210   26.7810  -15.7440 O   0  0  0  0  0  0  0  0  0  0  0  0
   39.1350   27.3800  -16.0800 C   0  0  0  0  0  0  0  0  0  0  0  0
   38.6400   27.1300  -17.3610 C   0  0  0  0  0  0  0  0  0  0  0  0
   37.4340   27.7080  -17.7670 C   0  0  0  0  0  0  0  0  0  0  0  0
   36.7250   28.5340  -16.8930 C   0  0  0  0  0  0  0  0  0  0  0  0
   37.2210   28.7810  -15.6160 C   0  0  0  0  0  0  0  0  0  0  0  0
   36.4750   29.5990  -14.8110 O   0  0  0  0  0  0  0  0  0  0  0  0
   38.4270   28.2040  -15.2100 C   0  0  0  0  0  0  0  0  0  0  0  0
   38.9840   28.4380  -13.8770 C   0  0  0  0  0  0  0  0  0  0  0  0
   38.4160   29.1470  -13.0480 O   0  0  0  0  0  0  0  0  0  0  0  0
   40.2720   27.7850  -13.5480 C   0  0  0  0  0  0  0  0  0  0  0  0
   40.7830   28.0030  -12.2820 O   0  0  0  0  0  0  0  0  0  0  0  0
   42.2780   24.9780  -14.6760 C   0  0  0  0  0  0  0  0  0  0  0  0
   43.4870   24.3010  -14.5000 C   0  0  0  0  0  0  0  0  0  0  0  0
   44.5970   24.9330  -13.9130 C   0  0  0  0  0  0  0  0  0  0  0  0
   45.8730   24.1460  -13.7260 C   0  0  0  0  0  0  0  0  0  0  0  0
   46.4420   24.3280  -12.5010 F   0  0  0  0  0  0  0  0  0  0  0  0
   46.8480   24.4670  -14.6260 F   0  0  0  0  0  0  0  0  0  0  0  0
   47.7064   27.3599  -13.2519 H   0  0  0  0  0  0  0  0  0  0  0  0
   46.8695   26.3255  -14.4586 H   0  0  0  0  0  0  0  0  0  0  0  0
   46.6018   28.1017  -14.4586 H   0  0  0  0  0  0  0  0  0  0  0  0
   45.9601   26.4978  -11.9757 H   0  0  0  0  0  0  0  0  0  0  0  0
   45.2375   28.0435  -12.5952 H   0  0  0  0  0  0  0  0  0  0  0  0
   43.1514   27.9928  -13.3676 H   0  0  0  0  0  0  0  0  0  0  0  0
   39.1983   26.4790  -18.0499 H   0  0  0  0  0  0  0  0  0  0  0  0
   37.0431   27.5118  -18.7763 H   0  0  0  0  0  0  0  0  0  0  0  0
   35.7759   28.9889  -17.2129 H   0  0  0  0  0  0  0  0  0  0  0  0
   35.5570   29.6970  -14.9650 H   0  0  0  0  0  0  0  0  0  0  0  0
   40.8010   28.8700  -11.9270 H   0  0  0  0  0  0  0  0  0  0  0  0
   41.4278   24.4607  -15.1446 H   0  0  0  0  0  0  0  0  0  0  0  0
   43.5721   23.2541  -14.8267 H   0  0  0  0  0  0  0  0  0  0  0  0
   45.5377   23.1071  -13.8612 H   0  0  0  0  0  0  0  0  0  0  0  0
  1  2  1  0
  2  3  1  0
  3  4  2  0
  4  5  1  0
  5  6  1  0
  6  7  1  0
  7  8  1  0
  8  9  2  0
  9 10  1  0
 10 11  2  0
 11 12  1  0
 12 13  1  0
 12 14  2  0
 14 15  1  0
 15 16  2  0
 15 17  1  0
 17 18  1  0
  5 19  2  0
 19 20  1  0
 20 21  2  0
 21 22  1  0
 22 23  1  0
 22 24  1  0
 21  3  1  0
 17  6  2  0
 14  8  1  0
  1 25  1  0
  1 26  1  0
  1 27  1  0
  2 28  1  0
  2 29  1  0
  4 30  1  0
  9 31  1  0
 10 32  1  0
 11 33  1  0
 13 34  1  0
 18 35  1  0
 19 36  1  0
 20 37  1  0
 22 38  1  0
M  END
>  <meeko>  (2) 
{"is_sidechain": [false], "free_energy": -7.21, "intermolecular_energy": -9.185, "internal_energy": 0.345}

$$$$
cand_017_out
     RDKit          3D

 38 40  0  0  0  0  0  0  0  0999 V2000
   38.5970   26.5480  -19.1610 C   0  0  0  0  0  0  0  0  0  0  0  0
   37.3190   26.8650  -18.3970 C   0  0  0  0  0  0  0  0  0  0  0  0
   37.5980   27.6270  -17.1190 C   0  0  0  0  0  0  0  0  0  0  0  0
   38.6650   27.1930  -16.3070 C   0  0  0  0  0  0  0  0  0  0  0  0
   38.9950   27.8450  -15.1100 C   0  0  0  0  0  0  0  0  0  0  0  0
   40.1300   27.4040  -14.2720 C   0  0  0  0  0  0  0  0  0  0  0  0
   41.1430   26.8020  -15.0070 O   0  0  0  0  0  0  0  0  0  0  0  0
   42.2570   26.3450  -14.3510 C   0  0  0  0  0  0  0  0  0  0  0  0
   43.2430   25.7330  -15.1260 C   0  0  0  0  0  0  0  0  0  0  0  0
   44.4040   25.2470  -14.5190 C   0  0  0  0  0  0  0  0  0  0  0  0
   44.5780   25.3730  -13.1400 C   0  0  0  0  0  0  0  0  0  0  0  0
   43.5930   25.9840  -12.3690 C   0  0  0  0  0  0  0  0  0  0  0  0
   43.8290   26.0750  -11.0240 O   0  0  0  0  0  0  0  0  0  0  0  0
   42.4320   26.4700  -12.9760 C   0  0  0  0  0  0  0  0  0  0  0  0
   41.3720   27.1180  -12.2030 C   0  0  0  0  0  0  0  0  0  0  0  0
   41.4540   27.2730  -10.9850 O   0  0  0  0  0  0  0  0  0  0  0  0
   40.1770   27.5910  -12.9400 C   0  0  0  0  0  0  0  0  0  0  0  0
   39.1870   28.2130  -12.2010 O   0  0  0  0  0  0  0  0  0  0  0  0
   38.2470   28.9660  -14.7380 C   0  0  0  0  0  0  0  0  0  0  0  0
   37.1880   29.4130  -15.5330 C   0  0  0  0  0  0  0  0  0  0  0  0
   36.8500   28.7590  -16.7300 C   0  0  0  0  0  0  0  0  0  0  0  0
   35.6810   29.2720  -17.5390 C   0  0  0  0  0  0  0  0  0  0  0  0
   35.4750   28.5710  -18.6890 F   0  0  0  0  0  0  0  0  0  0  0  0
   35.8190   30.5730  -17.9310 F   0  0  0  0  0  0  0  0  0  0  0  0
   39.4100   26.3463  -18.4480 H   0  0  0  0  0  0  0  0  0  0  0  0
   38.4360   25.6626  -19.7935 H   0  0  0  0  0  0  0  0  0  0  0  0
   38.8685   27.4060  -19.7935 H   0  0  0  0  0  0  0  0  0  0  0  0
   36.6636   27.4734  -19.0376 H   0  0  0  0  0  0  0  0  0  0  0  0
   36.8385   25.9129  -18.1275 H   0  0  0  0  0  0  0  0  0  0  0  0
   39.2550   26.3192  -16.6206 H   0  0  0  0  0  0  0  0  0  0  0  0
   43.1065   25.6333  -16.2129 H   0  0  0  0  0  0  0  0  0  0  0  0
   45.1819   24.7644  -15.1289 H   0  0  0  0  0  0  0  0  0  0  0  0
   45.4922   24.9900  -12.6630 H   0  0  0  0  0  0  0  0  0  0  0  0
   43.7480   26.9000  -10.5890 H   0  0  0  0  0  0  0  0  0  0  0  0
   38.2860   28.0390  -12.3860 H   0  0  0  0  0  0  0  0  0  0  0  0
   38.4946   29.5019  -13.8098 H   0  0  0  0  0  0  0  0  0  0  0  0
   36.6086   30.2927  -15.2160 H   0  0  0  0  0  0  0  0  0  0  0  0
   34.8366   29.1568  -16.8435 H   0  0  0  0  0  0  0  0  0  0  0  0
  1  2  1  0
  2  3  1  0
  3  4  2  0
  4  5  1  0
  5  6  1  0
  6  7  1  0
  7  8  1  0
  8  9  2  0
  9 10  1  0
 10 11  2  0
 11 12  1  0
 12 13  1  0
 12 14  2  0
 14 15  1  0
 15 16  2  0
 15 17  1  0
 17 18  1  0
  5 19  2  0
 19 20  1  0
 20 21  2  0
 21 22  1  0
 22 23  1  0
 22 24  1  0
 21  3  1  0
 17  6  2  0
 14  8  1  0
  1 25  1  0
  1 26  1  0
  1 27  1  0
  2 28  1  0
  2 29  1  0
  4 30  1  0
  9 31  1  0
 10 32  1  0
 11 33  1  0
 13 34  1  0
 18 35  1  0
 19 36  1  0
 20 37  1  0
 22 38  1  0
M  END
>  <meeko>  (3) 
{"is_sidechain": [false], "free_energy": -6.358, "intermolecular_energy": -8.26, "internal_energy": 0.473}

$$$$
cand_017_out
     RDKit          3D

 38 40  0  0  0  0  0  0  0  0999 V2000
   41.4200   26.8310  -10.8490 C   0  0  0  0  0  0  0  0  0  0  0  0
   42.6780   26.6580  -11.6890 C   0  0  0  0  0  0  0  0  0  0  0  0
   42.3560   26.3920  -13.1430 C   0  0  0  0  0  0  0  0  0  0  0  0
   41.1620   26.9300  -13.6680 C   0  0  0  0  0  0  0  0  0  0  0  0
   40.7900   26.7370  -15.0050 C   0  0  0  0  0  0  0  0  0  0  0  0
   39.5510   27.3220  -15.5600 C   0  0  0  0  0  0  0  0  0  0  0  0
   39.1950   26.7710  -16.7850 O   0  0  0  0  0  0  0  0  0  0  0  0
   38.0630   27.2250  -17.4120 C   0  0  0  0  0  0  0  0  0  0  0  0
   37.7520   26.6560  -18.6480 C   0  0  0  0  0  0  0  0  0  0  0  0
   36.6110   27.0720  -19.3390 C   0  0  0  0  0  0  0  0  0  0  0  0
   35.7840   28.0560  -18.7950 C   0  0  0  0  0  0  0  0  0  0  0  0
   36.0970   28.6230  -17.5630 C   0  0  0  0  0  0  0  0  0  0  0  0
   35.2430   29.5810  -17.0880 O   0  0  0  0  0  0  0  0  0  0  0  0
   37.2380   28.2070  -16.8720 C   0  0  0  0  0  0  0  0  0  0  0  0
   37.6040   28.7760  -15.5740 C   0  0  0  0  0  0  0  0  0  0  0  0
   36.9230   29.6410  -15.0260 O   0  0  0  0  0  0  0  0  0  0  0  0
   38.8380   28.2720  -14.9280 C   0  0  0  0  0  0  0  0  0  0  0  0
   39.1670   28.8070  -13.6960 O   0  0  0  0  0  0  0  0  0  0  0  0
   41.6470   26.0040  -15.8330 C   0  0  0  0  0  0  0  0  0  0  0  0
   42.8350   25.4660  -15.3310 C   0  0  0  0  0  0  0  0  0  0  0  0
   43.2090   25.6530  -13.9900 C   0  0  0  0  0  0  0  0  0  0  0  0
   44.4940   25.0300  -13.4960 C   0  0  0  0  0  0  0  0  0  0  0  0
   45.3840   25.9430  -13.0150 F   0  0  0  0  0  0  0  0  0  0  0  0
   45.1720   24.3410  -14.4600 F   0  0  0  0  0  0  0  0  0  0  0  0
   41.6839   26.7947   -9.7817 H   0  0  0  0  0  0  0  0  0  0  0  0
   40.9560   27.8014  -11.0792 H   0  0  0  0  0  0  0  0  0  0  0  0
   40.7113   26.0219  -11.0792 H   0  0  0  0  0  0  0  0  0  0  0  0
   43.2798   27.5763  -11.6207 H   0  0  0  0  0  0  0  0  0  0  0  0
   43.2305   25.7905  -11.2990 H   0  0  0  0  0  0  0  0  0  0  0  0
   40.5050   27.5172  -13.0095 H   0  0  0  0  0  0  0  0  0  0  0  0
   38.4042   25.8812  -19.0775 H   0  0  0  0  0  0  0  0  0  0  0  0
   36.3643   26.6236  -20.3127 H   0  0  0  0  0  0  0  0  0  0  0  0
   34.8858   28.3830  -19.3394 H   0  0  0  0  0  0  0  0  0  0  0  0
   34.3220   29.5030  -17.2380 H   0  0  0  0  0  0  0  0  0  0  0  0
   40.0300   29.1390  -13.5450 H   0  0  0  0  0  0  0  0  0  0  0  0
   41.3831   25.8496  -16.8896 H   0  0  0  0  0  0  0  0  0  0  0  0
   43.4892   24.8855  -15.9981 H   0  0  0  0  0  0  0  0  0  0  0  0
   44.1441   24.3549  -12.7011 H   0  0  0  0  0  0  0  0  0  0  0  0
  1  2  1  0
  2  3  1  0
  3  4  2  0
  4  5  1  0
  5  6  1  0
  6  7  1  0
  7  8  1  0
  8  9  2  0
  9 10  1  0
 10 11  2  0
 11 12  1  0
 12 13  1  0
 12 14  2  0
 14 15  1  0
 15 16  2  0
 15 17  1  0
 17 18  1  0
  5 19  2  0
 19 20  1  0
 20 21  2  0
 21 22  1  0
 22 23  1  0
 22 24  1  0
 21  3  1  0
 17  6  2  0
 14  8  1  0
  1 25  1  0
  1 26  1  0
  1 27  1  0
  2 28  1  0
  2 29  1  0
  4 30  1  0
  9 31  1  0
 10 32  1  0
 11 33  1  0
 13 34  1  0
 18 35  1  0
 19 36  1  0
 20 37  1  0
 22 38  1  0
M  END
>  <meeko>  (4) 
{"is_sidechain": [false], "free_energy": -5.734, "intermolecular_energy": -7.053, "internal_energy": 0.036}

$$$$
cand_017_out
     RDKit          3D

 38 40  0  0  0  0  0  0  0  0999 V2000
   36.5320   29.5400  -14.4320 C   0  0  0  0  0  0  0  0  0  0  0  0
   36.5330   29.1720  -15.9090 C   0  0  0  0  0  0  0  0  0  0  0  0
   37.5740   28.1230  -16.2320 C   0  0  0  0  0  0  0  0  0  0  0  0
   38.6340   27.9380  -15.3200 C   0  0  0  0  0  0  0  0  0  0  0  0
   39.6380   26.9840  -15.5380 C   0  0  0  0  0  0  0  0  0  0  0  0
   40.7350   26.7740  -14.5700 C   0  0  0  0  0  0  0  0  0  0  0  0
   41.8550   26.1820  -15.1420 O   0  0  0  0  0  0  0  0  0  0  0  0
   42.9470   25.9300  -14.3530 C   0  0  0  0  0  0  0  0  0  0  0  0
   44.0430   25.3190  -14.9640 C   0  0  0  0  0  0  0  0  0  0  0  0
   45.1900   25.0370  -14.2170 C   0  0  0  0  0  0  0  0  0  0  0  0
   45.2400   25.3640  -12.8610 C   0  0  0  0  0  0  0  0  0  0  0  0
   44.1450   25.9740  -12.2540 C   0  0  0  0  0  0  0  0  0  0  0  0
   44.2620   26.2690  -10.9230 O   0  0  0  0  0  0  0  0  0  0  0  0
   42.9990   26.2560  -13.0010 C   0  0  0  0  0  0  0  0  0  0  0  0
   41.8260   26.8950  -12.4020 C   0  0  0  0  0  0  0  0  0  0  0  0
   41.7960   27.2200  -11.2160 O   0  0  0  0  0  0  0  0  0  0  0  0
   40.6580   27.1440  -13.2780 C   0  0  0  0  0  0  0  0  0  0  0  0
   39.5610   27.7590  -12.7040 O   0  0  0  0  0  0  0  0  0  0  0  0
   39.5600   26.1900  -16.6860 C   0  0  0  0  0  0  0  0  0  0  0  0
   38.5140   26.3560  -17.5980 C   0  0  0  0  0  0  0  0  0  0  0  0
   37.5100   27.3160  -17.3870 C   0  0  0  0  0  0  0  0  0  0  0  0
   36.4150   27.4670  -18.4180 C   0  0  0  0  0  0  0  0  0  0  0  0
   36.7480   26.9490  -19.6340 F   0  0  0  0  0  0  0  0  0  0  0  0
   36.0730   28.7660  -18.6620 F   0  0  0  0  0  0  0  0  0  0  0  0
   36.5345   28.6223  -13.8255 H   0  0  0  0  0  0  0  0  0  0  0  0
   37.4285   30.1342  -14.2016 H   0  0  0  0  0  0  0  0  0  0  0  0
   35.6323   30.1294  -14.2016 H   0  0  0  0  0  0  0  0  0  0  0  0
   35.5404   28.7818  -16.1782 H   0  0  0  0  0  0  0  0  0  0  0  0
   36.7744   30.0780  -16.4843 H   0  0  0  0  0  0  0  0  0  0  0  0
   38.6740   28.5591  -14.4130 H   0  0  0  0  0  0  0  0  0  0  0  0
   44.0041   25.0597  -16.0323 H   0  0  0  0  0  0  0  0  0  0  0  0
   46.0546   24.5567  -14.6984 H   0  0  0  0  0  0  0  0  0  0  0  0
   46.1424   25.1404  -12.2730 H   0  0  0  0  0  0  0  0  0  0  0  0
   44.8840   25.8090  -10.3940 H   0  0  0  0  0  0  0  0  0  0  0  0
   38.6960   27.4760  -12.9270 H   0  0  0  0  0  0  0  0  0  0  0  0
   40.3297   25.4268  -16.8734 H   0  0  0  0  0  0  0  0  0  0  0  0
   38.4761   25.7236  -18.4973 H   0  0  0  0  0  0  0  0  0  0  0  0
   35.5772   26.9170  -17.9645 H   0  0  0  0  0  0  0  0  0  0  0  0
  1  2  1  0
  2  3  1  0
  3  4  2  0
  4  5  1  0
  5  6  1  0
  6  7  1  0
  7  8  1  0
  8  9  2  0
  9 10  1  0
 10 11  2  0
 11 12  1  0
 12 13  1  0
 12 14  2  0
 14 15  1  0
 15 16  2  0
 15 17  1  0
 17 18  1  0
  5 19  2  0
 19 20  1  0
 20 21  2  0
 21 22  1  0
 22 23  1  0
 22 24  1  0
 21  3  1  0
 17  6  2  0
 14  8  1  0
  1 25  1  0
  1 26  1  0
  1 27  1  0
  2 28  1  0
  2 29  1  0
  4 30  1  0
  9 31  1  0
 10 32  1  0
 11 33  1  0
 13 34  1  0
 18 35  1  0
 19 36  1  0
 20 37  1  0
 22 38  1  0
M  END
>  <meeko>  (5) 
{"is_sidechain": [false], "free_energy": -5.584, "intermolecular_energy": -7.011, "internal_energy": 0.179}

$$$$
cand_017_out
     RDKit          3D

 38 40  0  0  0  0  0  0  0  0999 V2000
   46.1050   25.4370  -14.6810 C   0  0  0  0  0  0  0  0  0  0  0  0
   44.7770   24.7020  -14.5710 C   0  0  0  0  0  0  0  0  0  0  0  0
   43.6810   25.5900  -14.0250 C   0  0  0  0  0  0  0  0  0  0  0  0
   42.5930   25.8970  -14.8680 C   0  0  0  0  0  0  0  0  0  0  0  0
   41.5330   26.7080  -14.4400 C   0  0  0  0  0  0  0  0  0  0  0  0
   40.3810   27.0080  -15.3160 C   0  0  0  0  0  0  0  0  0  0  0  0
   39.4590   27.8620  -14.7230 O   0  0  0  0  0  0  0  0  0  0  0  0
   38.3400   28.2230  -15.4280 C   0  0  0  0  0  0  0  0  0  0  0  0
   37.4320   29.0680  -14.7880 C   0  0  0  0  0  0  0  0  0  0  0  0
   36.2720   29.4760  -15.4520 C   0  0  0  0  0  0  0  0  0  0  0  0
   36.0200   29.0380  -16.7530 C   0  0  0  0  0  0  0  0  0  0  0  0
   36.9270   28.1940  -17.3890 C   0  0  0  0  0  0  0  0  0  0  0  0
   36.6180   27.8040  -18.6640 O   0  0  0  0  0  0  0  0  0  0  0  0
   38.0870   27.7870  -16.7260 C   0  0  0  0  0  0  0  0  0  0  0  0
   39.0650   26.9000  -17.3570 C   0  0  0  0  0  0  0  0  0  0  0  0
   38.9190   26.4780  -18.5030 O   0  0  0  0  0  0  0  0  0  0  0  0
   40.2580   26.5210  -16.5650 C   0  0  0  0  0  0  0  0  0  0  0  0
   41.1830   25.6940  -17.1760 O   0  0  0  0  0  0  0  0  0  0  0  0
   41.5610   27.2020  -13.1320 C   0  0  0  0  0  0  0  0  0  0  0  0
   42.6300   26.9050  -12.2810 C   0  0  0  0  0  0  0  0  0  0  0  0
   43.6980   26.0980  -12.7080 C   0  0  0  0  0  0  0  0  0  0  0  0
   44.8370   25.8280  -11.7530 C   0  0  0  0  0  0  0  0  0  0  0  0
   45.9340   26.6000  -11.9940 F   0  0  0  0  0  0  0  0  0  0  0  0
   45.2880   24.5400  -11.7930 F   0  0  0  0  0  0  0  0  0  0  0  0
   46.4906   25.6504  -13.6731 H   0  0  0  0  0  0  0  0  0  0  0  0
   46.8271   24.8101  -15.2247 H   0  0  0  0  0  0  0  0  0  0  0  0
   45.9573   26.3818  -15.2247 H   0  0  0  0  0  0  0  0  0  0  0  0
   44.4829   24.3487  -15.5703 H   0  0  0  0  0  0  0  0  0  0  0  0
   44.9110   23.8609  -13.8749 H   0  0  0  0  0  0  0  0  0  0  0  0
   42.5757   25.4889  -15.8893 H   0  0  0  0  0  0  0  0  0  0  0  0
   37.6292   29.4124  -13.7621 H   0  0  0  0  0  0  0  0  0  0  0  0
   35.5567   30.1431  -14.9487 H   0  0  0  0  0  0  0  0  0  0  0  0
   35.1065   29.3589  -17.2751 H   0  0  0  0  0  0  0  0  0  0  0  0
   37.2870   27.7700  -19.3180 H   0  0  0  0  0  0  0  0  0  0  0  0
   41.1360   24.7670  -17.0510 H   0  0  0  0  0  0  0  0  0  0  0  0
   40.7342   27.8302  -12.7692 H   0  0  0  0  0  0  0  0  0  0  0  0
   42.6349   27.3106  -11.2585 H   0  0  0  0  0  0  0  0  0  0  0  0
   44.3918   26.0595  -10.7741 H   0  0  0  0  0  0  0  0  0  0  0  0
  1  2  1  0
  2  3  1  0
  3  4  2  0
  4  5  1  0
  5  6  1  0
  6  7  1  0
  7  8  1  0
  8  9  2  0
  9 10  1  0
 10 11  2  0
 11 12  1  0
 12 13  1  0
 12 14  2  0
 14 15  1  0
 15 16  2  0
 15 17  1  0
 17 18  1  0
  5 19  2  0
 19 20  1  0
 20 21  2  0
 21 22  1  0
 22 23  1  0
 22 24  1  0
 21  3  1  0
 17  6  2  0
 14  8  1  0
  1 25  1  0
  1 26  1  0
  1 27  1  0
  2 28  1  0
  2 29  1  0
  4 30  1  0
  9 31  1  0
 10 32  1  0
 11 33  1  0
 13 34  1  0
 18 35  1  0
 19 36  1  0
 20 37  1  0
 22 38  1  0
M  END
>  <meeko>  (6) 
{"is_sidechain": [false], "free_energy": -5.013, "intermolecular_energy": -6.834, "internal_energy": 0.705}

$$$$
cand_017_out
     RDKit          3D

 38 40  0  0  0  0  0  0  0  0999 V2000
   42.9040   25.1360  -15.3060 C   0  0  0  0  0  0  0  0  0  0  0  0
   42.7840   25.8050  -13.9440 C   0  0  0  0  0  0  0  0  0  0  0  0
   41.5050   26.6030  -13.8160 C   0  0  0  0  0  0  0  0  0  0  0  0
   40.6490   26.6690  -14.9350 C   0  0  0  0  0  0  0  0  0  0  0  0
   39.4420   27.3810  -14.9000 C   0  0  0  0  0  0  0  0  0  0  0  0
   38.5350   27.4300  -16.0660 C   0  0  0  0  0  0  0  0  0  0  0  0
   37.6260   28.4800  -16.0000 O   0  0  0  0  0  0  0  0  0  0  0  0
   36.7240   28.6410  -17.0200 C   0  0  0  0  0  0  0  0  0  0  0  0
   35.8200   29.6980  -16.9050 C   0  0  0  0  0  0  0  0  0  0  0  0
   34.8750   29.9190  -17.9100 C   0  0  0  0  0  0  0  0  0  0  0  0
   34.8350   29.0840  -19.0280 C   0  0  0  0  0  0  0  0  0  0  0  0
   35.7380   28.0300  -19.1400 C   0  0  0  0  0  0  0  0  0  0  0  0
   35.6430   27.2520  -20.2620 O   0  0  0  0  0  0  0  0  0  0  0  0
   36.6820   27.8090  -18.1350 C   0  0  0  0  0  0  0  0  0  0  0  0
   37.6490   26.7130  -18.2120 C   0  0  0  0  0  0  0  0  0  0  0  0
   37.6820   25.9390  -19.1680 O   0  0  0  0  0  0  0  0  0  0  0  0
   38.6030   26.5600  -17.0900 C   0  0  0  0  0  0  0  0  0  0  0  0
   39.5210   25.5280  -17.1800 O   0  0  0  0  0  0  0  0  0  0  0  0
   39.0840   28.0210  -13.7100 C   0  0  0  0  0  0  0  0  0  0  0  0
   39.9170   27.9620  -12.5900 C   0  0  0  0  0  0  0  0  0  0  0  0
   41.1310   27.2550  -12.6220 C   0  0  0  0  0  0  0  0  0  0  0  0
   42.0040   27.2440  -11.3880 C   0  0  0  0  0  0  0  0  0  0  0  0
   43.1980   26.6180  -11.5810 F   0  0  0  0  0  0  0  0  0  0  0  0
   41.4330   26.6090  -10.3230 F   0  0  0  0  0  0  0  0  0  0  0  0
   43.0967   24.0615  -15.1710 H   0  0  0  0  0  0  0  0  0  0  0  0
   41.9670   25.2730  -15.8656 H   0  0  0  0  0  0  0  0  0  0  0  0
   43.7350   25.5901  -15.8656 H   0  0  0  0  0  0  0  0  0  0  0  0
   42.7981   25.0290  -13.1645 H   0  0  0  0  0  0  0  0  0  0  0  0
   43.6303   26.4984  -13.8300 H   0  0  0  0  0  0  0  0  0  0  0  0
   40.9363   26.1477  -15.8601 H   0  0  0  0  0  0  0  0  0  0  0  0
   35.8515   30.3562  -16.0242 H   0  0  0  0  0  0  0  0  0  0  0  0
   34.1619   30.7517  -17.8202 H   0  0  0  0  0  0  0  0  0  0  0  0
   34.0912   29.2584  -19.8194 H   0  0  0  0  0  0  0  0  0  0  0  0
   35.8540   27.6110  -21.1000 H   0  0  0  0  0  0  0  0  0  0  0  0
   40.4040   25.7090  -17.4330 H   0  0  0  0  0  0  0  0  0  0  0  0
   38.1364   28.5769  -13.6548 H   0  0  0  0  0  0  0  0  0  0  0  0
   39.6171   28.4784  -11.6662 H   0  0  0  0  0  0  0  0  0  0  0  0
   42.1430   28.3152  -11.1803 H   0  0  0  0  0  0  0  0  0  0  0  0
  1  2  1  0
  2  3  1  0
  3  4  2  0
  4  5  1  0
  5  6  1  0
  6  7  1  0
  7  8  1  0
  8  9  2  0
  9 10  1  0
 10 11  2  0
 11 12  1  0
 12 13  1  0
 12 14  2  0
 14 15  1  0
 15 16  2  0
 15 17  1  0
 17 18  1  0
  5 19  2  0
 19 20  1  0
 20 21  2  0
 21 22  1  0
 22 23  1  0
 22 24  1  0
 21  3  1  0
 17  6  2  0
 14  8  1  0
  1 25  1  0
  1 26  1  0
  1 27  1  0
  2 28  1  0
  2 29  1  0
  4 30  1  0
  9 31  1  0
 10 32  1  0
 11 33  1  0
 13 34  1  0
 18 35  1  0
 19 36  1  0
 20 37  1  0
 22 38  1  0
M  END
>  <meeko>  (7) 
{"is_sidechain": [false], "free_energy": -4.976, "intermolecular_energy": -6.609, "internal_energy": 0.526}

$$$$
cand_017_out
     RDKit          3D

 38 40  0  0  0  0  0  0  0  0999 V2000
   45.9930   25.4650  -14.8250 C   0  0  0  0  0  0  0  0  0  0  0  0
   44.5990   24.8580  -14.7480 C   0  0  0  0  0  0  0  0  0  0  0  0
   43.6560   25.7090  -13.9260 C   0  0  0  0  0  0  0  0  0  0  0  0
   42.4790   26.1810  -14.5440 C   0  0  0  0  0  0  0  0  0  0  0  0
   41.5480   26.9690  -13.8540 C   0  0  0  0  0  0  0  0  0  0  0  0
   40.3030   27.4430  -14.4950 C   0  0  0  0  0  0  0  0  0  0  0  0
   40.0810   26.8620  -15.7380 O   0  0  0  0  0  0  0  0  0  0  0  0
   38.9590   27.2140  -16.4430 C   0  0  0  0  0  0  0  0  0  0  0  0
   38.7830   26.6200  -17.6930 C   0  0  0  0  0  0  0  0  0  0  0  0
   37.6600   26.9330  -18.4630 C   0  0  0  0  0  0  0  0  0  0  0  0
   36.7150   27.8410  -17.9830 C   0  0  0  0  0  0  0  0  0  0  0  0
   36.8920   28.4330  -16.7350 C   0  0  0  0  0  0  0  0  0  0  0  0
   35.9260   29.3120  -16.3260 O   0  0  0  0  0  0  0  0  0  0  0  0
   38.0150   28.1190  -15.9660 C   0  0  0  0  0  0  0  0  0  0  0  0
   38.2410   28.7190  -14.6500 C   0  0  0  0  0  0  0  0  0  0  0  0
   37.4500   29.5210  -14.1550 O   0  0  0  0  0  0  0  0  0  0  0  0
   39.4670   28.3260  -13.9180 C   0  0  0  0  0  0  0  0  0  0  0  0
   39.6630   28.8890  -12.6700 O   0  0  0  0  0  0  0  0  0  0  0  0
   41.7990   27.2710  -12.5120 C   0  0  0  0  0  0  0  0  0  0  0  0
   42.9580   26.8090  -11.8820 C   0  0  0  0  0  0  0  0  0  0  0  0
   43.8970   26.0230  -12.5720 C   0  0  0  0  0  0  0  0  0  0  0  0
   45.1430   25.5690  -11.8470 C   0  0  0  0  0  0  0  0  0  0  0  0
   46.2550   26.2750  -12.1980 F   0  0  0  0  0  0  0  0  0  0  0  0
   45.4610   24.2610  -12.0750 F   0  0  0  0  0  0  0  0  0  0  0  0
   46.3768   25.6321  -13.8078 H   0  0  0  0  0  0  0  0  0  0  0  0
   46.6633   24.7773  -15.3614 H   0  0  0  0  0  0  0  0  0  0  0  0
   45.9461   26.4242  -15.3614 H   0  0  0  0  0  0  0  0  0  0  0  0
   44.1957   24.7637  -15.7671 H   0  0  0  0  0  0  0  0  0  0  0  0
   44.6823   23.8752  -14.2611 H   0  0  0  0  0  0  0  0  0  0  0  0
   42.2868   25.9235  -15.5960 H   0  0  0  0  0  0  0  0  0  0  0  0
   39.5283   25.9053  -18.0723 H   0  0  0  0  0  0  0  0  0  0  0  0
   37.5206   26.4636  -19.4480 H   0  0  0  0  0  0  0  0  0  0  0  0
   35.8315   28.0887  -18.5897 H   0  0  0  0  0  0  0  0  0  0  0  0
   35.3170   29.0620  -15.6600 H   0  0  0  0  0  0  0  0  0  0  0  0
   40.4390   29.3850  -12.4980 H   0  0  0  0  0  0  0  0  0  0  0  0
   41.0770   27.8783  -11.9464 H   0  0  0  0  0  0  0  0  0  0  0  0
   43.1385   27.0651  -10.8275 H   0  0  0  0  0  0  0  0  0  0  0  0
   44.8811   25.7322  -10.7912 H   0  0  0  0  0  0  0  0  0  0  0  0
  1  2  1  0
  2  3  1  0
  3  4  2  0
  4  5  1  0
  5  6  1  0
  6  7  1  0
  7  8  1  0
  8  9  2  0
  9 10  1  0
 10 11  2  0
 11 12  1  0
 12 13  1  0
 12 14  2  0
 14 15  1  0
 15 16  2  0
 15 17  1  0
 17 18  1  0
  5 19  2  0
 19 20  1  0
 20 21  2  0
 21 22  1  0
 22 23  1  0
 22 24  1  0
 21  3  1  0
 17  6  2  0
 14  8  1  0
  1 25  1  0
  1 26  1  0
  1 27  1  0
  2 28  1  0
  2 29  1  0
  4 30  1  0
  9 31  1  0
 10 32  1  0
 11 33  1  0
 13 34  1  0
 18 35  1  0
 19 36  1  0
 20 37  1  0
 22 38  1  0
M  END
>  <meeko>  (8) 
{"is_sidechain": [false], "free_energy": -4.697, "intermolecular_energy": -6.794, "internal_energy": 1.057}

$$$$
