9IV_ttbk1_out
     RDKit          3D

 37 40  0  0  0  0  0  0  0  0999 V2000
   47.8820   27.6590  -12.2350 Cl  0  0  0  0  0  0  0  0  0  0  0  0
   47.2010   26.1510  -12.7210 C   0  0  0  0  0  0  0  0  0  0  0  0
   48.0570   25.0640  -12.9170 C   0  0  0  0  0  0  0  0  0  0  0  0
   47.5380   23.8280  -13.3090 C   0  0  0  0  0  0  0  0  0  0  0  0
   46.1640   23.6750  -13.5000 C   0  0  0  0  0  0  0  0  0  0  0  0
   45.3060   24.7590  -13.3050 C   0  0  0  0  0  0  0  0  0  0  0  0
   45.8260   26.0040  -12.9320 C   0  0  0  0  0  0  0  0  0  0  0  0
   44.9900   27.0740  -12.6970 O   0  0  0  0  0  0  0  0  0  0  0  0
   43.6550   26.8980  -12.9750 C   0  0  0  0  0  0  0  0  0  0  0  0
   43.1650   26.7030  -14.2680 C   0  0  0  0  0  0  0  0  0  0  0  0
   41.7910   26.5620  -14.4730 C   0  0  0  0  0  0  0  0  0  0  0  0
   40.8890   26.6150  -13.4000 C   0  0  0  0  0  0  0  0  0  0  0  0
   39.5120   26.4960  -13.6790 N   0  0  0  0  0  0  0  0  0  0  0  0
   38.7090   27.3500  -14.4520 C   0  0  0  0  0  0  0  0  0  0  0  0
   38.2320   28.4600  -13.8350 N   0  0  0  0  0  0  0  0  0  0  0  0
   37.4640   29.3140  -14.5420 C   0  0  0  0  0  0  0  0  0  0  0  0
   37.0980   29.2270  -15.8310 N   0  0  0  0  0  0  0  0  0  0  0  0
   37.6160   28.1350  -16.4110 C   0  0  0  0  0  0  0  0  0  0  0  0
   37.4360   27.7950  -17.7230 N   0  0  0  0  0  0  0  0  0  0  0  0
   38.1190   26.6380  -18.0000 C   0  0  0  0  0  0  0  0  0  0  0  0
   38.7410   26.2320  -16.8380 C   0  0  0  0  0  0  0  0  0  0  0  0
   38.4150   27.1710  -15.8160 C   0  0  0  0  0  0  0  0  0  0  0  0
   41.3950   26.8550  -12.1170 C   0  0  0  0  0  0  0  0  0  0  0  0
   42.7690   26.9970  -11.9040 C   0  0  0  0  0  0  0  0  0  0  0  0
   49.1397   25.1818  -12.7625 H   0  0  0  0  0  0  0  0  0  0  0  0
   48.2131   22.9741  -13.4674 H   0  0  0  0  0  0  0  0  0  0  0  0
   45.7567   22.6996  -13.8044 H   0  0  0  0  0  0  0  0  0  0  0  0
   44.2220   24.6348  -13.4444 H   0  0  0  0  0  0  0  0  0  0  0  0
   43.8582   26.6607  -15.1211 H   0  0  0  0  0  0  0  0  0  0  0  0
   41.4095   26.4068  -15.4930 H   0  0  0  0  0  0  0  0  0  0  0  0
   39.0570   25.7180  -13.2830 H   0  0  0  0  0  0  0  0  0  0  0  0
   37.0907   30.1917  -13.9941 H   0  0  0  0  0  0  0  0  0  0  0  0
   36.8990   28.3040  -18.3720 H   0  0  0  0  0  0  0  0  0  0  0  0
   38.1627   26.1266  -18.9729 H   0  0  0  0  0  0  0  0  0  0  0  0
   39.3761   25.3415  -16.7206 H   0  0  0  0  0  0  0  0  0  0  0  0
   40.7025   26.9328  -11.2658 H   0  0  0  0  0  0  0  0  0  0  0  0
   43.1513   27.1870  -10.8902 H   0  0  0  0  0  0  0  0  0  0  0  0
  1  2  1  0
  2  3  2  0
  3  4  1  0
  4  5  2  0
  5  6  1  0
  6  7  2  0
  7  8  1  0
  8  9  1  0
  9 10  2  0
 10 11  1  0
 11 12  2  0
 12 13  1  0
 13 14  1  0
 14 15  2  0
 15 16  1  0
 16 17  2  0
 17 18  1  0
 18 19  1  0
 19 20  1  0
 20 21  2  0
 21 22  1  0
 12 23  1  0
 23 24  2  0
  7  2  1  0
 24  9  1  0
 22 14  1  0
 22 18  2  0
  3 25  1  0
  4 26  1  0
  5 27  1  0
  6 28  1  0
 10 29  1  0
 11 30  1  0
 13 31  1  0
 16 32  1  0
 19 33  1  0
 20 34  1  0
 21 35  1  0
 23 36  1  0
 24 37  1  0
M  END
>  <meeko>  (1) 
{"is_sidechain": [false], "free_energy": -0.949, "intermolecular_energy": -1.171, "internal_energy": -0.404}

$$$$
9IV_ttbk1_out
     RDKit          3D

 37 40  0  0  0  0  0  0  0  0999 V2000
   47.4810   28.0530  -11.9280 Cl  0  0  0  0  0  0  0  0  0  0  0  0
   47.0680   26.4740  -12.4870 C   0  0  0  0  0  0  0  0  0  0  0  0
   48.0830   25.5230  -12.6160 C   0  0  0  0  0  0  0  0  0  0  0  0
   47.7820   24.2360  -13.0650 C   0  0  0  0  0  0  0  0  0  0  0  0
   46.4670   23.8940  -13.3780 C   0  0  0  0  0  0  0  0  0  0  0  0
   45.4490   24.8410  -13.2490 C   0  0  0  0  0  0  0  0  0  0  0  0
   45.7510   26.1390  -12.8200 C   0  0  0  0  0  0  0  0  0  0  0  0
   44.7540   27.0740  -12.6500 O   0  0  0  0  0  0  0  0  0  0  0  0
   43.5380   26.8050  -13.2350 C   0  0  0  0  0  0  0  0  0  0  0  0
   42.3230   26.9360  -12.5610 C   0  0  0  0  0  0  0  0  0  0  0  0
   41.1310   26.6140  -13.2160 C   0  0  0  0  0  0  0  0  0  0  0  0
   41.1340   26.1580  -14.5420 C   0  0  0  0  0  0  0  0  0  0  0  0
   39.8990   25.8210  -15.1340 N   0  0  0  0  0  0  0  0  0  0  0  0
   39.0160   26.6620  -15.8310 C   0  0  0  0  0  0  0  0  0  0  0  0
   38.7280   26.3150  -17.1110 N   0  0  0  0  0  0  0  0  0  0  0  0
   37.8770   27.0880  -17.8140 C   0  0  0  0  0  0  0  0  0  0  0  0
   37.2330   28.1940  -17.4100 N   0  0  0  0  0  0  0  0  0  0  0  0
   37.5200   28.4840  -16.1330 C   0  0  0  0  0  0  0  0  0  0  0  0
   36.9930   29.5380  -15.4390 N   0  0  0  0  0  0  0  0  0  0  0  0
   37.4720   29.5330  -14.1540 C   0  0  0  0  0  0  0  0  0  0  0  0
   38.3230   28.4550  -14.0290 C   0  0  0  0  0  0  0  0  0  0  0  0
   38.3720   27.7890  -15.2880 C   0  0  0  0  0  0  0  0  0  0  0  0
   42.3650   25.9910  -15.1860 C   0  0  0  0  0  0  0  0  0  0  0  0
   43.5610   26.3110  -14.5380 C   0  0  0  0  0  0  0  0  0  0  0  0
   49.1202   25.7885  -12.3636 H   0  0  0  0  0  0  0  0  0  0  0  0
   48.5836   23.4904  -13.1721 H   0  0  0  0  0  0  0  0  0  0  0  0
   46.2314   22.8777  -13.7267 H   0  0  0  0  0  0  0  0  0  0  0  0
   44.4099   24.5672  -13.4844 H   0  0  0  0  0  0  0  0  0  0  0  0
   42.3036   27.2907  -11.5199 H   0  0  0  0  0  0  0  0  0  0  0  0
   40.1749   26.7200  -12.6825 H   0  0  0  0  0  0  0  0  0  0  0  0
   39.6210   24.8810  -15.0480 H   0  0  0  0  0  0  0  0  0  0  0  0
   37.6860   26.7725  -18.8503 H   0  0  0  0  0  0  0  0  0  0  0  0
   36.3660   30.2010  -15.8070 H   0  0  0  0  0  0  0  0  0  0  0  0
   37.2225   30.2580  -13.3653 H   0  0  0  0  0  0  0  0  0  0  0  0
   38.8672   28.1614  -13.1193 H   0  0  0  0  0  0  0  0  0  0  0  0
   42.3916   25.6031  -16.2150 H   0  0  0  0  0  0  0  0  0  0  0  0
   44.5212   26.1729  -15.0566 H   0  0  0  0  0  0  0  0  0  0  0  0
  1  2  1  0
  2  3  2  0
  3  4  1  0
  4  5  2  0
  5  6  1  0
  6  7  2  0
  7  8  1  0
  8  9  1  0
  9 10  2  0
 10 11  1  0
 11 12  2  0
 12 13  1  0
 13 14  1  0
 14 15  2  0
 15 16  1  0
 16 17  2  0
 17 18  1  0
 18 19  1  0
 19 20  1  0
 20 21  2  0
 21 22  1  0
 12 23  1  0
 23 24  2  0
  7  2  1  0
 24  9  1  0
 22 14  1  0
 22 18  2  0
  3 25  1  0
  4 26  1  0
  5 27  1  0
  6 28  1  0
 10 29  1  0
 11 30  1  0
 13 31  1  0
 16 32  1  0
 19 33  1  0
 20 34  1  0
 21 35  1  0
 23 36  1  0
 24 37  1  0
M  END
>  <meeko>  (2) 
{"is_sidechain": [false], "free_energy": -0.362, "intermolecular_energy": -0.941, "internal_energy": 0.091}

$$$$
9IV_ttbk1_out
     RDKit          3D

 37 40  0  0  0  0  0  0  0  0999 V2000
   37.9670   29.0320  -14.1650 Cl  0  0  0  0  0  0  0  0  0  0  0  0
   38.0140   28.0420  -15.5780 C   0  0  0  0  0  0  0  0  0  0  0  0
   37.6730   28.6130  -16.8060 C   0  0  0  0  0  0  0  0  0  0  0  0
   37.7010   27.8400  -17.9690 C   0  0  0  0  0  0  0  0  0  0  0  0
   38.0770   26.4980  -17.9070 C   0  0  0  0  0  0  0  0  0  0  0  0
   38.4200   25.9240  -16.6810 C   0  0  0  0  0  0  0  0  0  0  0  0
   38.3710   26.6920  -15.5110 C   0  0  0  0  0  0  0  0  0  0  0  0
   38.7440   26.1520  -14.2990 O   0  0  0  0  0  0  0  0  0  0  0  0
   39.9800   26.5070  -13.8100 C   0  0  0  0  0  0  0  0  0  0  0  0
   40.1900   26.9120  -12.4920 C   0  0  0  0  0  0  0  0  0  0  0  0
   41.4710   27.2870  -12.0790 C   0  0  0  0  0  0  0  0  0  0  0  0
   42.5540   27.2660  -12.9690 C   0  0  0  0  0  0  0  0  0  0  0  0
   43.8150   27.6850  -12.4970 N   0  0  0  0  0  0  0  0  0  0  0  0
   45.0570   27.0560  -12.6730 C   0  0  0  0  0  0  0  0  0  0  0  0
   46.1560   27.7640  -12.3050 N   0  0  0  0  0  0  0  0  0  0  0  0
   47.3690   27.1940  -12.4470 C   0  0  0  0  0  0  0  0  0  0  0  0
   47.6620   25.9680  -12.9090 N   0  0  0  0  0  0  0  0  0  0  0  0
   46.5490   25.2920  -13.2310 C   0  0  0  0  0  0  0  0  0  0  0  0
   46.5310   24.0090  -13.7040 N   0  0  0  0  0  0  0  0  0  0  0  0
   45.2350   23.6080  -13.9080 C   0  0  0  0  0  0  0  0  0  0  0  0
   44.4140   24.6600  -13.5610 C   0  0  0  0  0  0  0  0  0  0  0  0
   45.2410   25.7430  -13.1420 C   0  0  0  0  0  0  0  0  0  0  0  0
   42.3160   26.8990  -14.2990 C   0  0  0  0  0  0  0  0  0  0  0  0
   41.0370   26.5220  -14.7190 C   0  0  0  0  0  0  0  0  0  0  0  0
   37.3821   29.6726  -16.8574 H   0  0  0  0  0  0  0  0  0  0  0  0
   37.4264   28.2897  -18.9346 H   0  0  0  0  0  0  0  0  0  0  0  0
   38.1033   25.8916  -18.8244 H   0  0  0  0  0  0  0  0  0  0  0  0
   38.7285   24.8692  -16.6343 H   0  0  0  0  0  0  0  0  0  0  0  0
   39.3510   26.9361  -11.7810 H   0  0  0  0  0  0  0  0  0  0  0  0
   41.6325   27.6040  -11.0381 H   0  0  0  0  0  0  0  0  0  0  0  0
   43.8250   28.5220  -11.9790 H   0  0  0  0  0  0  0  0  0  0  0  0
   48.2280   27.8117  -12.1462 H   0  0  0  0  0  0  0  0  0  0  0  0
   47.3280   23.4560  -13.8730 H   0  0  0  0  0  0  0  0  0  0  0  0
   44.9098   22.6255  -14.2808 H   0  0  0  0  0  0  0  0  0  0  0  0
   43.3147   24.6631  -13.6005 H   0  0  0  0  0  0  0  0  0  0  0  0
   43.1451   26.9074  -15.0219 H   0  0  0  0  0  0  0  0  0  0  0  0
   40.8645   26.2370  -15.7673 H   0  0  0  0  0  0  0  0  0  0  0  0
  1  2  1  0
  2  3  2  0
  3  4  1  0
  4  5  2  0
  5  6  1  0
  6  7  2  0
  7  8  1  0
  8  9  1  0
  9 10  2  0
 10 11  1  0
 11 12  2  0
 12 13  1  0
 13 14  1  0
 14 15  2  0
 15 16  1  0
 16 17  2  0
 17 18  1  0
 18 19  1  0
 19 20  1  0
 20 21  2  0
 21 22  1  0
 12 23  1  0
 23 24  2  0
  7  2  1  0
 24  9  1  0
 22 14  1  0
 22 18  2  0
  3 25  1  0
  4 26  1  0
  5 27  1  0
  6 28  1  0
 10 29  1  0
 11 30  1  0
 13 31  1  0
 16 32  1  0
 19 33  1  0
 20 34  1  0
 21 35  1  0
 23 36  1  0
 24 37  1  0
M  END
>  <meeko>  (3) 
{"is_sidechain": [false], "free_energy": 0.452, "intermolecular_energy": 0.097, "internal_energy": 0.056}

$$$$
9IV_ttbk1_out
     RDKit          3D

 37 40  0  0  0  0  0  0  0  0999 V2000
   37.6340   29.3470  -14.4120 Cl  0  0  0  0  0  0  0  0  0  0  0  0
   37.8470   28.2110  -15.6930 C   0  0  0  0  0  0  0  0  0  0  0  0
   37.5810   28.6220  -17.0020 C   0  0  0  0  0  0  0  0  0  0  0  0
   37.7450   27.7270  -18.0620 C   0  0  0  0  0  0  0  0  0  0  0  0
   38.1800   26.4250  -17.8170 C   0  0  0  0  0  0  0  0  0  0  0  0
   38.4480   26.0110  -16.5100 C   0  0  0  0  0  0  0  0  0  0  0  0
   38.2640   26.8990  -15.4440 C   0  0  0  0  0  0  0  0  0  0  0  0
   38.5610   26.5200  -14.1530 O   0  0  0  0  0  0  0  0  0  0  0  0
   39.8660   26.6660  -13.7430 C   0  0  0  0  0  0  0  0  0  0  0  0
   40.9570   26.4800  -14.5930 C   0  0  0  0  0  0  0  0  0  0  0  0
   42.2540   26.6150  -14.0930 C   0  0  0  0  0  0  0  0  0  0  0  0
   42.4820   26.9350  -12.7470 C   0  0  0  0  0  0  0  0  0  0  0  0
   43.8160   27.0280  -12.2990 N   0  0  0  0  0  0  0  0  0  0  0  0
   44.9100   26.2290  -12.6680 C   0  0  0  0  0  0  0  0  0  0  0  0
   44.6280   24.9770  -13.1090 N   0  0  0  0  0  0  0  0  0  0  0  0
   45.6470   24.1790  -13.4830 C   0  0  0  0  0  0  0  0  0  0  0  0
   46.9600   24.4590  -13.4970 N   0  0  0  0  0  0  0  0  0  0  0  0
   47.1920   25.7140  -13.0850 C   0  0  0  0  0  0  0  0  0  0  0  0
   48.4300   26.2910  -13.0170 N   0  0  0  0  0  0  0  0  0  0  0  0
   48.3140   27.5870  -12.5820 C   0  0  0  0  0  0  0  0  0  0  0  0
   46.9750   27.8370  -12.3660 C   0  0  0  0  0  0  0  0  0  0  0  0
   46.2530   26.6460  -12.6690 C   0  0  0  0  0  0  0  0  0  0  0  0
   41.3760   27.0750  -11.8990 C   0  0  0  0  0  0  0  0  0  0  0  0
   40.0750   26.9400  -12.3920 C   0  0  0  0  0  0  0  0  0  0  0  0
   37.2425   29.6502  -17.1976 H   0  0  0  0  0  0  0  0  0  0  0  0
   37.5307   28.0498  -19.0915 H   0  0  0  0  0  0  0  0  0  0  0  0
   38.3122   25.7232  -18.6537 H   0  0  0  0  0  0  0  0  0  0  0  0
   38.8034   24.9877  -16.3188 H   0  0  0  0  0  0  0  0  0  0  0  0
   40.7962   26.2283  -15.6517 H   0  0  0  0  0  0  0  0  0  0  0  0
   43.1112   26.4678  -14.7665 H   0  0  0  0  0  0  0  0  0  0  0  0
   44.0030   27.7410  -11.6460 H   0  0  0  0  0  0  0  0  0  0  0  0
   45.3677   23.1697  -13.8197 H   0  0  0  0  0  0  0  0  0  0  0  0
   49.2770   25.8450  -13.2460 H   0  0  0  0  0  0  0  0  0  0  0  0
   49.1398   28.2982  -12.4325 H   0  0  0  0  0  0  0  0  0  0  0  0
   46.5411   28.7871  -12.0210 H   0  0  0  0  0  0  0  0  0  0  0  0
   41.5331   27.2938  -10.8325 H   0  0  0  0  0  0  0  0  0  0  0  0
   39.2159   27.0500  -11.7139 H   0  0  0  0  0  0  0  0  0  0  0  0
  1  2  1  0
  2  3  2  0
  3  4  1  0
  4  5  2  0
  5  6  1  0
  6  7  2  0
  7  8  1  0
  8  9  1  0
  9 10  2  0
 10 11  1  0
 11 12  2  0
 12 13  1  0
 13 14  1  0
 14 15  2  0
 15 16  1  0
 16 17  2  0
 17 18  1  0
 18 19  1  0
 19 20  1  0
 20 21  2  0
 21 22  1  0
 12 23  1  0
 23 24  2  0
  7  2  1  0
 24  9  1  0
 22 14  1  0
 22 18  2  0
  3 25  1  0
  4 26  1  0
  5 27  1  0
  6 28  1  0
 10 29  1  0
 11 30  1  0
 13 31  1  0
 16 32  1  0
 19 33  1  0
 20 34  1  0
 21 35  1  0
 23 36  1  0
 24 37  1  0
M  END
>  <meeko>  (4) 
{"is_sidechain": [false], "free_energy": 0.542, "intermolecular_energy": 0.476, "internal_energy": -0.21}

$$$$
9IV_ttbk1_out
     RDKit          3D

 37 40  0  0  0  0  0  0  0  0999 V2000
   48.1600   28.1420  -10.7520 Cl  0  0  0  0  0  0  0  0  0  0  0  0
   48.3510   27.8260  -12.4370 C   0  0  0  0  0  0  0  0  0  0  0  0
   49.3950   28.4550  -13.1210 C   0  0  0  0  0  0  0  0  0  0  0  0
   49.5780   28.2200  -14.4850 C   0  0  0  0  0  0  0  0  0  0  0  0
   48.7240   27.3540  -15.1670 C   0  0  0  0  0  0  0  0  0  0  0  0
   47.6800   26.7230  -14.4870 C   0  0  0  0  0  0  0  0  0  0  0  0
   47.4810   26.9740  -13.1240 C   0  0  0  0  0  0  0  0  0  0  0  0
   46.4800   26.3300  -12.4280 O   0  0  0  0  0  0  0  0  0  0  0  0
   45.2430   26.2700  -13.0260 C   0  0  0  0  0  0  0  0  0  0  0  0
   44.3130   27.3080  -12.9580 C   0  0  0  0  0  0  0  0  0  0  0  0
   43.0630   27.1590  -13.5650 C   0  0  0  0  0  0  0  0  0  0  0  0
   42.7240   25.9790  -14.2430 C   0  0  0  0  0  0  0  0  0  0  0  0
   41.4360   25.8800  -14.8080 N   0  0  0  0  0  0  0  0  0  0  0  0
   40.3630   26.7760  -14.6770 C   0  0  0  0  0  0  0  0  0  0  0  0
   40.3090   27.4980  -13.5280 N   0  0  0  0  0  0  0  0  0  0  0  0
   39.3010   28.3770  -13.3640 C   0  0  0  0  0  0  0  0  0  0  0  0
   38.3050   28.6660  -14.2160 N   0  0  0  0  0  0  0  0  0  0  0  0
   38.4130   27.9570  -15.3490 C   0  0  0  0  0  0  0  0  0  0  0  0
   37.5570   28.0570  -16.4110 N   0  0  0  0  0  0  0  0  0  0  0  0
   37.9640   27.2160  -17.4150 C   0  0  0  0  0  0  0  0  0  0  0  0
   39.1000   26.5650  -16.9800 C   0  0  0  0  0  0  0  0  0  0  0  0
   39.3860   27.0190  -15.6590 C   0  0  0  0  0  0  0  0  0  0  0  0
   43.6530   24.9310  -14.2630 C   0  0  0  0  0  0  0  0  0  0  0  0
   44.9050   25.0740  -13.6570 C   0  0  0  0  0  0  0  0  0  0  0  0
   50.0727   29.1354  -12.5845 H   0  0  0  0  0  0  0  0  0  0  0  0
   50.3976   28.7190  -15.0228 H   0  0  0  0  0  0  0  0  0  0  0  0
   48.8726   27.1678  -16.2409 H   0  0  0  0  0  0  0  0  0  0  0  0
   47.0146   26.0293  -15.0218 H   0  0  0  0  0  0  0  0  0  0  0  0
   44.5626   28.2395  -12.4289 H   0  0  0  0  0  0  0  0  0  0  0  0
   42.3334   27.9803  -13.5101 H   0  0  0  0  0  0  0  0  0  0  0  0
   41.2680   25.0850  -15.3630 H   0  0  0  0  0  0  0  0  0  0  0  0
   39.2934   28.9272  -12.4115 H   0  0  0  0  0  0  0  0  0  0  0  0
   36.7670   28.6430  -16.4500 H   0  0  0  0  0  0  0  0  0  0  0  0
   37.4734   27.0843  -18.3907 H   0  0  0  0  0  0  0  0  0  0  0  0
   39.6819   25.8266  -17.5511 H   0  0  0  0  0  0  0  0  0  0  0  0
   43.3948   23.9848  -14.7610 H   0  0  0  0  0  0  0  0  0  0  0  0
   45.6240   24.2417  -13.6783 H   0  0  0  0  0  0  0  0  0  0  0  0
  1  2  1  0
  2  3  2  0
  3  4  1  0
  4  5  2  0
  5  6  1  0
  6  7  2  0
  7  8  1  0
  8  9  1  0
  9 10  2  0
 10 11  1  0
 11 12  2  0
 12 13  1  0
 13 14  1  0
 14 15  2  0
 15 16  1  0
 16 17  2  0
 17 18  1  0
 18 19  1  0
 19 20  1  0
 20 21  2  0
 21 22  1  0
 12 23  1  0
 23 24  2  0
  7  2  1  0
 24  9  1  0
 22 14  1  0
 22 18  2  0
  3 25  1  0
  4 26  1  0
  5 27  1  0
  6 28  1  0
 10 29  1  0
 11 30  1  0
 13 31  1  0
 16 32  1  0
 19 33  1  0
 20 34  1  0
 21 35  1  0
 23 36  1  0
 24 37  1  0
M  END
>  <meeko>  (5) 
{"is_sidechain": [false], "free_energy": 0.558, "intermolecular_energy": 0.184, "internal_energy": 0.1}

$$$$
9IV_ttbk1_out
     RDKit          3D

 37 40  0  0  0  0  0  0  0  0999 V2000
   48.0220   28.1420  -10.6450 Cl  0  0  0  0  0  0  0  0  0  0  0  0
   48.2330   27.8250  -12.3280 C   0  0  0  0  0  0  0  0  0  0  0  0
   49.3750   28.3190  -12.9630 C   0  0  0  0  0  0  0  0  0  0  0  0
   49.5760   28.0800  -14.3240 C   0  0  0  0  0  0  0  0  0  0  0  0
   48.6400   27.3420  -15.0500 C   0  0  0  0  0  0  0  0  0  0  0  0
   47.4980   26.8460  -14.4190 C   0  0  0  0  0  0  0  0  0  0  0  0
   47.2840   27.1040  -13.0590 C   0  0  0  0  0  0  0  0  0  0  0  0
   46.1820   26.5890  -12.4110 O   0  0  0  0  0  0  0  0  0  0  0  0
   45.0390   26.4210  -13.1570 C   0  0  0  0  0  0  0  0  0  0  0  0
   44.1410   27.4570  -13.4190 C   0  0  0  0  0  0  0  0  0  0  0  0
   42.9850   27.2000  -14.1600 C   0  0  0  0  0  0  0  0  0  0  0  0
   42.7070   25.9150  -14.6450 C   0  0  0  0  0  0  0  0  0  0  0  0
   41.5080   25.7160  -15.3610 N   0  0  0  0  0  0  0  0  0  0  0  0
   40.3660   26.5330  -15.3790 C   0  0  0  0  0  0  0  0  0  0  0  0
   39.6100   26.4960  -16.5050 N   0  0  0  0  0  0  0  0  0  0  0  0
   38.4980   27.2570  -16.5620 C   0  0  0  0  0  0  0  0  0  0  0  0
   38.0020   28.0730  -15.6180 N   0  0  0  0  0  0  0  0  0  0  0  0
   38.7600   28.0550  -14.5130 C   0  0  0  0  0  0  0  0  0  0  0  0
   38.4900   28.7660  -13.3760 N   0  0  0  0  0  0  0  0  0  0  0  0
   39.4460   28.5040  -12.4280 C   0  0  0  0  0  0  0  0  0  0  0  0
   40.3440   27.6120  -12.9750 C   0  0  0  0  0  0  0  0  0  0  0  0
   39.9240   27.3300  -14.3080 C   0  0  0  0  0  0  0  0  0  0  0  0
   43.5960   24.8790  -14.3350 C   0  0  0  0  0  0  0  0  0  0  0  0
   44.7550   25.1290  -13.5940 C   0  0  0  0  0  0  0  0  0  0  0  0
   50.1161   28.8964  -12.3908 H   0  0  0  0  0  0  0  0  0  0  0  0
   50.4729   28.4738  -14.8244 H   0  0  0  0  0  0  0  0  0  0  0  0
   48.8025   27.1509  -16.1210 H   0  0  0  0  0  0  0  0  0  0  0  0
   46.7672   26.2534  -14.9889 H   0  0  0  0  0  0  0  0  0  0  0  0
   44.3427   28.4711  -13.0437 H   0  0  0  0  0  0  0  0  0  0  0  0
   42.2813   28.0199  -14.3662 H   0  0  0  0  0  0  0  0  0  0  0  0
   41.4660   24.9040  -15.9150 H   0  0  0  0  0  0  0  0  0  0  0  0
   37.9254   27.2023  -17.4996 H   0  0  0  0  0  0  0  0  0  0  0  0
   37.7260   29.3740  -13.2560 H   0  0  0  0  0  0  0  0  0  0  0  0
   39.4886   28.9288  -11.4142 H   0  0  0  0  0  0  0  0  0  0  0  0
   41.2277   27.1924  -12.4721 H   0  0  0  0  0  0  0  0  0  0  0  0
   43.3802   23.8565  -14.6783 H   0  0  0  0  0  0  0  0  0  0  0  0
   45.4433   24.3047  -13.3558 H   0  0  0  0  0  0  0  0  0  0  0  0
  1  2  1  0
  2  3  2  0
  3  4  1  0
  4  5  2  0
  5  6  1  0
  6  7  2  0
  7  8  1  0
  8  9  1  0
  9 10  2  0
 10 11  1  0
 11 12  2  0
 12 13  1  0
 13 14  1  0
 14 15  2  0
 15 16  1  0
 16 17  2  0
 17 18  1  0
 18 19  1  0
 19 20  1  0
 20 21  2  0
 21 22  1  0
 12 23  1  0
 23 24  2  0
  7  2  1  0
 24  9  1  0
 22 14  1  0
 22 18  2  0
  3 25  1  0
  4 26  1  0
  5 27  1  0
  6 28  1  0
 10 29  1  0
 11 30  1  0
 13 31  1  0
 16 32  1  0
 19 33  1  0
 20 34  1  0
 21 35  1  0
 23 36  1  0
 24 37  1  0
M  END
>  <meeko>  (6) 
{"is_sidechain": [false], "free_energy": 0.94, "intermolecular_energy": 0.267, "internal_energy": 0.489}

$$$$
9IV_ttbk1_out
     RDKit          3D

 37 40  0  0  0  0  0  0  0  0999 V2000
   48.8670   27.0240  -15.1420 Cl  0  0  0  0  0  0  0  0  0  0  0  0
   48.2480   27.3810  -13.5720 C   0  0  0  0  0  0  0  0  0  0  0  0
   49.0370   28.1300  -12.6970 C   0  0  0  0  0  0  0  0  0  0  0  0
   48.5650   28.4380  -11.4190 C   0  0  0  0  0  0  0  0  0  0  0  0
   47.3020   28.0030  -11.0170 C   0  0  0  0  0  0  0  0  0  0  0  0
   46.5100   27.2540  -11.8890 C   0  0  0  0  0  0  0  0  0  0  0  0
   46.9900   26.9260  -13.1630 C   0  0  0  0  0  0  0  0  0  0  0  0
   46.2060   26.2220  -14.0510 O   0  0  0  0  0  0  0  0  0  0  0  0
   44.8420   26.3200  -13.8950 C   0  0  0  0  0  0  0  0  0  0  0  0
   44.2390   27.2120  -13.0070 C   0  0  0  0  0  0  0  0  0  0  0  0
   42.8480   27.2300  -12.8830 C   0  0  0  0  0  0  0  0  0  0  0  0
   42.0430   26.3630  -13.6360 C   0  0  0  0  0  0  0  0  0  0  0  0
   40.6470   26.4110  -13.4420 N   0  0  0  0  0  0  0  0  0  0  0  0
   39.7310   27.3350  -13.9700 C   0  0  0  0  0  0  0  0  0  0  0  0
   39.4330   28.4080  -13.1940 N   0  0  0  0  0  0  0  0  0  0  0  0
   38.5660   29.3260  -13.6650 C   0  0  0  0  0  0  0  0  0  0  0  0
   37.9350   29.3410  -14.8500 N   0  0  0  0  0  0  0  0  0  0  0  0
   38.2810   28.2820  -15.5970 C   0  0  0  0  0  0  0  0  0  0  0  0
   37.8190   28.0420  -16.8620 N   0  0  0  0  0  0  0  0  0  0  0  0
   38.3870   26.8930  -17.3520 C   0  0  0  0  0  0  0  0  0  0  0  0
   39.2240   26.3920  -16.3770 C   0  0  0  0  0  0  0  0  0  0  0  0
   39.1520   27.2610  -15.2490 C   0  0  0  0  0  0  0  0  0  0  0  0
   42.6680   25.4460  -14.4890 C   0  0  0  0  0  0  0  0  0  0  0  0
   44.0590   25.4220  -14.6180 C   0  0  0  0  0  0  0  0  0  0  0  0
   50.0311   28.4778  -13.0143 H   0  0  0  0  0  0  0  0  0  0  0  0
   49.1897   29.0241  -10.7289 H   0  0  0  0  0  0  0  0  0  0  0  0
   46.9298   28.2504  -10.0119 H   0  0  0  0  0  0  0  0  0  0  0  0
   45.5094   26.9216  -11.5756 H   0  0  0  0  0  0  0  0  0  0  0  0
   44.8562   27.8975  -12.4077 H   0  0  0  0  0  0  0  0  0  0  0  0
   42.3762   27.9357  -12.1834 H   0  0  0  0  0  0  0  0  0  0  0  0
   40.2670   25.7100  -12.8640 H   0  0  0  0  0  0  0  0  0  0  0  0
   38.3477   30.1696  -12.9937 H   0  0  0  0  0  0  0  0  0  0  0  0
   37.1770   28.6070  -17.3480 H   0  0  0  0  0  0  0  0  0  0  0  0
   38.2073   26.4513  -18.3433 H   0  0  0  0  0  0  0  0  0  0  0  0
   39.8383   25.4829  -16.4557 H   0  0  0  0  0  0  0  0  0  0  0  0
   42.0566   24.7356  -15.0648 H   0  0  0  0  0  0  0  0  0  0  0  0
   44.5363   24.6940  -15.2905 H   0  0  0  0  0  0  0  0  0  0  0  0
  1  2  1  0
  2  3  2  0
  3  4  1  0
  4  5  2  0
  5  6  1  0
  6  7  2  0
  7  8  1  0
  8  9  1  0
  9 10  2  0
 10 11  1  0
 11 12  2  0
 12 13  1  0
 13 14  1  0
 14 15  2  0
 15 16  1  0
 16 17  2  0
 17 18  1  0
 18 19  1  0
 19 20  1  0
 20 21  2  0
 21 22  1  0
 12 23  1  0
 23 24  2  0
  7  2  1  0
 24  9  1  0
 22 14  1  0
 22 18  2  0
  3 25  1  0
  4 26  1  0
  5 27  1  0
  6 28  1  0
 10 29  1  0
 11 30  1  0
 13 31  1  0
 16 32  1  0
 19 33  1  0
 20 34  1  0
 21 35  1  0
 23 36  1  0
 24 37  1  0
M  END
>  <meeko>  (7) 
{"is_sidechain": [false], "free_energy": 1.496, "intermolecular_energy": 1.07, "internal_energy": 0.372}

$$$$
