clorgyline_out
     RDKit          3D

 33 33  0  0  0  0  0  0  0  0999 V2000
   37.5670   26.8630  -18.2760 C   0  0  0  0  0  0  0  0  0  0  0  0
   38.2580   26.8810  -17.2940 C   0  0  0  0  0  0  0  0  0  0  0  0
   39.1070   26.9070  -16.0910 C   0  0  0  0  0  0  0  0  0  0  0  0
   38.4060   27.2760  -14.8480 N   0  0  2  0  0  0  0  0  0  0  0  0
   38.2010   28.7220  -14.7590 C   0  0  0  0  0  0  0  0  0  0  0  0
   39.0770   26.7260  -13.6570 C   0  0  0  0  0  0  0  0  0  0  0  0
   39.6390   27.8250  -12.7440 C   0  0  0  0  0  0  0  0  0  0  0  0
   41.0750   27.5240  -12.3150 C   0  0  0  0  0  0  0  0  0  0  0  0
   41.9030   27.4870  -13.4750 O   0  0  0  0  0  0  0  0  0  0  0  0
   43.0820   26.7950  -13.4040 C   0  0  0  0  0  0  0  0  0  0  0  0
   44.1790   27.1750  -12.6240 C   0  0  0  0  0  0  0  0  0  0  0  0
   45.3450   26.4030  -12.6210 C   0  0  0  0  0  0  0  0  0  0  0  0
   45.4220   25.2500  -13.4000 C   0  0  0  0  0  0  0  0  0  0  0  0
   46.8620   24.3090  -13.3900 Cl  0  0  0  0  0  0  0  0  0  0  0  0
   44.3440   24.8580  -14.1840 C   0  0  0  0  0  0  0  0  0  0  0  0
   43.1800   25.6300  -14.1870 C   0  0  0  0  0  0  0  0  0  0  0  0
   41.8610   25.1000  -15.1760 Cl  0  0  0  0  0  0  0  0  0  0  0  0
   36.9341   26.8465  -19.1755 H   0  0  0  0  0  0  0  0  0  0  0  0
   39.5393   25.9046  -15.9555 H   0  0  0  0  0  0  0  0  0  0  0  0
   39.8640   27.6864  -16.2628 H   0  0  0  0  0  0  0  0  0  0  0  0
   37.4790   26.8490  -14.8770 H   0  0  0  0  0  0  0  0  0  0  0  0
   38.1585   29.0219  -13.7015 H   0  0  0  0  0  0  0  0  0  0  0  0
   39.0345   29.2417  -15.2543 H   0  0  0  0  0  0  0  0  0  0  0  0
   37.2559   28.9895  -15.2543 H   0  0  0  0  0  0  0  0  0  0  0  0
   38.3506   26.1291  -13.0860 H   0  0  0  0  0  0  0  0  0  0  0  0
   39.9213   26.1106  -14.0011 H   0  0  0  0  0  0  0  0  0  0  0  0
   39.6220   28.7820  -13.2861 H   0  0  0  0  0  0  0  0  0  0  0  0
   39.0139   27.8728  -11.8401 H   0  0  0  0  0  0  0  0  0  0  0  0
   41.4296   28.3106  -11.6327 H   0  0  0  0  0  0  0  0  0  0  0  0
   41.1147   26.5547  -11.7965 H   0  0  0  0  0  0  0  0  0  0  0  0
   44.1243   28.0859  -12.0097 H   0  0  0  0  0  0  0  0  0  0  0  0
   46.2028   26.7063  -12.0028 H   0  0  0  0  0  0  0  0  0  0  0  0
   44.4067   23.9470  -14.7974 H   0  0  0  0  0  0  0  0  0  0  0  0
  1  2  3  0
  2  3  1  0
  3  4  1  0
  4  5  1  0
  4  6  1  0
  6  7  1  0
  7  8  1  0
  8  9  1  0
  9 10  1  0
 10 11  2  0
 11 12  1  0
 12 13  2  0
 13 14  1  0
 13 15  1  0
 15 16  2  0
 16 17  1  0
 16 10  1  0
  1 18  1  0
  3 19  1  0
  3 20  1  0
  4 21  1  6
  5 22  1  0
  5 23  1  0
  5 24  1  0
  6 25  1  0
  6 26  1  0
  7 27  1  0
  7 28  1  0
  8 29  1  0
  8 30  1  0
 11 31  1  0
 12 32  1  0
 15 33  1  0
M  CHG  1   4   1
M  END
>  <meeko>  (1) 
{"is_sidechain": [false], "free_energy": -5.775, "intermolecular_energy": -7.801, "internal_energy": -0.522}

$$$$
clorgyline_out
     RDKit          3D

 33 33  0  0  0  0  0  0  0  0999 V2000
   45.7220   24.3590  -13.4940 C   0  0  0  0  0  0  0  0  0  0  0  0
   44.6930   24.8650  -13.8510 C   0  0  0  0  0  0  0  0  0  0  0  0
   43.4290   25.4830  -14.2850 C   0  0  0  0  0  0  0  0  0  0  0  0
   43.1760   26.8260  -13.7330 N   0  0  2  0  0  0  0  0  0  0  0  0
   44.2800   27.7410  -14.0280 C   0  0  0  0  0  0  0  0  0  0  0  0
   42.8540   26.7750  -12.2960 C   0  0  0  0  0  0  0  0  0  0  0  0
   41.3550   26.9710  -12.0270 C   0  0  0  0  0  0  0  0  0  0  0  0
   40.8300   28.2580  -12.6630 C   0  0  0  0  0  0  0  0  0  0  0  0
   39.4550   28.0800  -12.9920 O   0  0  0  0  0  0  0  0  0  0  0  0
   39.1430   27.6740  -14.2630 C   0  0  0  0  0  0  0  0  0  0  0  0
   39.7750   26.6240  -14.9360 C   0  0  0  0  0  0  0  0  0  0  0  0
   39.3870   26.2850  -16.2380 C   0  0  0  0  0  0  0  0  0  0  0  0
   38.3710   26.9970  -16.8720 C   0  0  0  0  0  0  0  0  0  0  0  0
   37.9040   26.5740  -18.4720 Cl  0  0  0  0  0  0  0  0  0  0  0  0
   37.7330   28.0460  -16.2190 C   0  0  0  0  0  0  0  0  0  0  0  0
   38.1210   28.3830  -14.9200 C   0  0  0  0  0  0  0  0  0  0  0  0
   37.2970   29.6930  -14.1450 Cl  0  0  0  0  0  0  0  0  0  0  0  0
   46.6645   23.8955  -13.1670 H   0  0  0  0  0  0  0  0  0  0  0  0
   43.4455   25.5615  -15.3821 H   0  0  0  0  0  0  0  0  0  0  0  0
   42.6228   24.8364  -13.9081 H   0  0  0  0  0  0  0  0  0  0  0  0
   42.3500   27.2020  -14.1990 H   0  0  0  0  0  0  0  0  0  0  0  0
   44.7174   28.1035  -13.0861 H   0  0  0  0  0  0  0  0  0  0  0  0
   45.0492   27.2120  -14.6098 H   0  0  0  0  0  0  0  0  0  0  0  0
   43.9029   28.5950  -14.6098 H   0  0  0  0  0  0  0  0  0  0  0  0
   43.1593   25.7953  -11.8997 H   0  0  0  0  0  0  0  0  0  0  0  0
   43.3946   27.5951  -11.8008 H   0  0  0  0  0  0  0  0  0  0  0  0
   40.8031   26.1161  -12.4447 H   0  0  0  0  0  0  0  0  0  0  0  0
   41.2082   27.0415  -10.9391 H   0  0  0  0  0  0  0  0  0  0  0  0
   40.9353   29.0911  -11.9525 H   0  0  0  0  0  0  0  0  0  0  0  0
   41.4052   28.4872  -13.5722 H   0  0  0  0  0  0  0  0  0  0  0  0
   40.5804   26.0619  -14.4406 H   0  0  0  0  0  0  0  0  0  0  0  0
   39.8851   25.4553  -16.7610 H   0  0  0  0  0  0  0  0  0  0  0  0
   36.9299   28.6055  -16.7209 H   0  0  0  0  0  0  0  0  0  0  0  0
  1  2  3  0
  2  3  1  0
  3  4  1  0
  4  5  1  0
  4  6  1  0
  6  7  1  0
  7  8  1  0
  8  9  1  0
  9 10  1  0
 10 11  2  0
 11 12  1  0
 12 13  2  0
 13 14  1  0
 13 15  1  0
 15 16  2  0
 16 17  1  0
 16 10  1  0
  1 18  1  0
  3 19  1  0
  3 20  1  0
  4 21  1  6
  5 22  1  0
  5 23  1  0
  5 24  1  0
  6 25  1  0
  6 26  1  0
  7 27  1  0
  7 28  1  0
  8 29  1  0
  8 30  1  0
 11 31  1  0
 12 32  1  0
 15 33  1  0
M  CHG  1   4   1
M  END
>  <meeko>  (2) 
{"is_sidechain": [false], "free_energy": -5.629, "intermolecular_energy": -7.696, "internal_energy": -0.429}

$$$$
clorgyline_out
     RDKit          3D

 33 33  0  0  0  0  0  0  0  0999 V2000
   45.8680   24.3360  -13.4600 C   0  0  0  0  0  0  0  0  0  0  0  0
   44.8370   24.8520  -13.7980 C   0  0  0  0  0  0  0  0  0  0  0  0
   43.5710   25.4830  -14.2090 C   0  0  0  0  0  0  0  0  0  0  0  0
   43.3090   26.7980  -13.5960 N   0  0  2  0  0  0  0  0  0  0  0  0
   44.3000   27.7900  -14.0160 C   0  0  0  0  0  0  0  0  0  0  0  0
   43.1900   26.7030  -12.1310 C   0  0  0  0  0  0  0  0  0  0  0  0
   41.7530   26.9460  -11.6450 C   0  0  0  0  0  0  0  0  0  0  0  0
   41.0790   28.0790  -12.4180 C   0  0  0  0  0  0  0  0  0  0  0  0
   39.6970   27.7670  -12.5770 O   0  0  0  0  0  0  0  0  0  0  0  0
   39.1920   27.7050  -13.8490 C   0  0  0  0  0  0  0  0  0  0  0  0
   38.5070   28.7480  -14.4810 C   0  0  0  0  0  0  0  0  0  0  0  0
   38.0240   28.5870  -15.7850 C   0  0  0  0  0  0  0  0  0  0  0  0
   38.2200   27.3830  -16.4590 C   0  0  0  0  0  0  0  0  0  0  0  0
   37.6200   27.1950  -18.0600 Cl  0  0  0  0  0  0  0  0  0  0  0  0
   38.8960   26.3350  -15.8450 C   0  0  0  0  0  0  0  0  0  0  0  0
   39.3780   26.4960  -14.5440 C   0  0  0  0  0  0  0  0  0  0  0  0
   40.2160   25.1650  -13.8220 Cl  0  0  0  0  0  0  0  0  0  0  0  0
   46.8119   23.8636  -13.1505 H   0  0  0  0  0  0  0  0  0  0  0  0
   43.5917   25.6124  -15.3012 H   0  0  0  0  0  0  0  0  0  0  0  0
   42.7665   24.8155  -13.8667 H   0  0  0  0  0  0  0  0  0  0  0  0
   42.4040   27.1230  -13.9370 H   0  0  0  0  0  0  0  0  0  0  0  0
   44.7586   28.2490  -13.1277 H   0  0  0  0  0  0  0  0  0  0  0  0
   45.0785   27.2985  -14.6180 H   0  0  0  0  0  0  0  0  0  0  0  0
   43.8077   28.5680  -14.6180 H   0  0  0  0  0  0  0  0  0  0  0  0
   43.5048   25.6975  -11.8151 H   0  0  0  0  0  0  0  0  0  0  0  0
   43.8301   27.4817  -11.6905 H   0  0  0  0  0  0  0  0  0  0  0  0
   41.1693   26.0239  -11.7828 H   0  0  0  0  0  0  0  0  0  0  0  0
   41.7937   27.2318  -10.5835 H   0  0  0  0  0  0  0  0  0  0  0  0
   41.1836   29.0210  -11.8597 H   0  0  0  0  0  0  0  0  0  0  0  0
   41.5528   28.1926  -13.4042 H   0  0  0  0  0  0  0  0  0  0  0  0
   38.3472   29.6987  -13.9512 H   0  0  0  0  0  0  0  0  0  0  0  0
   37.4890   29.4119  -16.2783 H   0  0  0  0  0  0  0  0  0  0  0  0
   39.0502   25.3861  -16.3797 H   0  0  0  0  0  0  0  0  0  0  0  0
  1  2  3  0
  2  3  1  0
  3  4  1  0
  4  5  1  0
  4  6  1  0
  6  7  1  0
  7  8  1  0
  8  9  1  0
  9 10  1  0
 10 11  2  0
 11 12  1  0
 12 13  2  0
 13 14  1  0
 13 15  1  0
 15 16  2  0
 16 17  1  0
 16 10  1  0
  1 18  1  0
  3 19  1  0
  3 20  1  0
  4 21  1  6
  5 22  1  0
  5 23  1  0
  5 24  1  0
  6 25  1  0
  6 26  1  0
  7 27  1  0
  7 28  1  0
  8 29  1  0
  8 30  1  0
 11 31  1  0
 12 32  1  0
 15 33  1  0
M  CHG  1   4   1
M  END
>  <meeko>  (3) 
{"is_sidechain": [false], "free_energy": -5.084, "intermolecular_energy": -7.102, "internal_energy": -0.288}

$$$$
clorgyline_out
     RDKit          3D

 33 33  0  0  0  0  0  0  0  0999 V2000
   37.5450   26.8200  -18.2820 C   0  0  0  0  0  0  0  0  0  0  0  0
   38.2640   26.8460  -17.3200 C   0  0  0  0  0  0  0  0  0  0  0  0
   39.1470   26.8820  -16.1410 C   0  0  0  0  0  0  0  0  0  0  0  0
   38.4610   27.1540  -14.8650 N   0  0  2  0  0  0  0  0  0  0  0  0
   38.3120   28.5920  -14.6350 C   0  0  0  0  0  0  0  0  0  0  0  0
   39.1130   26.4670  -13.7370 C   0  0  0  0  0  0  0  0  0  0  0  0
   39.4990   27.4330  -12.6080 C   0  0  0  0  0  0  0  0  0  0  0  0
   41.0060   27.6790  -12.5650 C   0  0  0  0  0  0  0  0  0  0  0  0
   41.5630   27.3410  -13.8330 O   0  0  0  0  0  0  0  0  0  0  0  0
   42.6720   26.5370  -13.8580 C   0  0  0  0  0  0  0  0  0  0  0  0
   42.6730   25.2020  -14.2740 C   0  0  0  0  0  0  0  0  0  0  0  0
   43.8590   24.4590  -14.2590 C   0  0  0  0  0  0  0  0  0  0  0  0
   45.0460   25.0460  -13.8250 C   0  0  0  0  0  0  0  0  0  0  0  0
   46.4980   24.1240  -13.8090 Cl  0  0  0  0  0  0  0  0  0  0  0  0
   45.0630   26.3710  -13.4050 C   0  0  0  0  0  0  0  0  0  0  0  0
   43.8790   27.1120  -13.4200 C   0  0  0  0  0  0  0  0  0  0  0  0
   43.9490   28.7580  -12.8910 Cl  0  0  0  0  0  0  0  0  0  0  0  0
   36.8866   26.7962  -19.1629 H   0  0  0  0  0  0  0  0  0  0  0  0
   39.6488   25.9066  -16.0590 H   0  0  0  0  0  0  0  0  0  0  0  0
   39.8456   27.7163  -16.3018 H   0  0  0  0  0  0  0  0  0  0  0  0
   37.5190   26.7670  -14.9310 H   0  0  0  0  0  0  0  0  0  0  0  0
   38.2915   28.7901  -13.5532 H   0  0  0  0  0  0  0  0  0  0  0  0
   39.1596   29.1258  -15.0895 H   0  0  0  0  0  0  0  0  0  0  0  0
   37.3729   28.9407  -15.0895 H   0  0  0  0  0  0  0  0  0  0  0  0
   38.4208   25.7124  -13.3351 H   0  0  0  0  0  0  0  0  0  0  0  0
   40.0374   26.0054  -14.1143 H   0  0  0  0  0  0  0  0  0  0  0  0
   38.9857   28.3925  -12.7688 H   0  0  0  0  0  0  0  0  0  0  0  0
   39.1982   26.9802  -11.6517 H   0  0  0  0  0  0  0  0  0  0  0  0
   41.2014   28.7391  -12.3461 H   0  0  0  0  0  0  0  0  0  0  0  0
   41.4634   27.0603  -11.7789 H   0  0  0  0  0  0  0  0  0  0  0  0
   41.7377   24.7338  -14.6145 H   0  0  0  0  0  0  0  0  0  0  0  0
   43.8541   23.4101  -14.5903 H   0  0  0  0  0  0  0  0  0  0  0  0
   46.0014   26.8323  -13.0635 H   0  0  0  0  0  0  0  0  0  0  0  0
  1  2  3  0
  2  3  1  0
  3  4  1  0
  4  5  1  0
  4  6  1  0
  6  7  1  0
  7  8  1  0
  8  9  1  0
  9 10  1  0
 10 11  2  0
 11 12  1  0
 12 13  2  0
 13 14  1  0
 13 15  1  0
 15 16  2  0
 16 17  1  0
 16 10  1  0
  1 18  1  0
  3 19  1  0
  3 20  1  0
  4 21  1  6
  5 22  1  0
  5 23  1  0
  5 24  1  0
  6 25  1  0
  6 26  1  0
  7 27  1  0
  7 28  1  0
  8 29  1  0
  8 30  1  0
 11 31  1  0
 12 32  1  0
 15 33  1  0
M  CHG  1   4   1
M  END
>  <meeko>  (4) 
{"is_sidechain": [false], "free_energy": -4.603, "intermolecular_energy": -6.414, "internal_energy": -0.326}

$$$$
clorgyline_out
     RDKit          3D

 33 33  0  0  0  0  0  0  0  0999 V2000
   40.6440   26.8920  -11.7200 C   0  0  0  0  0  0  0  0  0  0  0  0
   39.9790   27.7680  -12.2030 C   0  0  0  0  0  0  0  0  0  0  0  0
   39.1670   28.8450  -12.7950 C   0  0  0  0  0  0  0  0  0  0  0  0
   38.8040   28.6370  -14.2090 N   0  0  2  0  0  0  0  0  0  0  0  0
   37.5720   29.3480  -14.5530 C   0  0  0  0  0  0  0  0  0  0  0  0
   38.7450   27.2060  -14.5530 C   0  0  0  0  0  0  0  0  0  0  0  0
   39.6770   26.8470  -15.7200 C   0  0  0  0  0  0  0  0  0  0  0  0
   40.8470   25.9770  -15.2620 C   0  0  0  0  0  0  0  0  0  0  0  0
   41.9200   26.8250  -14.8580 O   0  0  0  0  0  0  0  0  0  0  0  0
   43.0660   26.2390  -14.3920 C   0  0  0  0  0  0  0  0  0  0  0  0
   43.4650   24.9320  -14.6910 C   0  0  0  0  0  0  0  0  0  0  0  0
   44.6550   24.4190  -14.1610 C   0  0  0  0  0  0  0  0  0  0  0  0
   45.4460   25.2070  -13.3280 C   0  0  0  0  0  0  0  0  0  0  0  0
   46.9050   24.5660  -12.6810 Cl  0  0  0  0  0  0  0  0  0  0  0  0
   45.0640   26.5070  -13.0180 C   0  0  0  0  0  0  0  0  0  0  0  0
   43.8760   27.0190  -13.5470 C   0  0  0  0  0  0  0  0  0  0  0  0
   43.4420   28.6430  -13.1350 Cl  0  0  0  0  0  0  0  0  0  0  0  0
   41.2530   26.0898  -11.2777 H   0  0  0  0  0  0  0  0  0  0  0  0
   38.2382   28.9336  -12.2123 H   0  0  0  0  0  0  0  0  0  0  0  0
   39.7860   29.7538  -12.7637 H   0  0  0  0  0  0  0  0  0  0  0  0
   39.5460   29.0400  -14.7820 H   0  0  0  0  0  0  0  0  0  0  0  0
   37.0522   29.6480  -13.6312 H   0  0  0  0  0  0  0  0  0  0  0  0
   37.8178   30.2431  -15.1432 H   0  0  0  0  0  0  0  0  0  0  0  0
   36.9200   28.6873  -15.1432 H   0  0  0  0  0  0  0  0  0  0  0  0
   39.0398   26.6180  -13.6713 H   0  0  0  0  0  0  0  0  0  0  0  0
   37.7147   26.9771  -14.8631 H   0  0  0  0  0  0  0  0  0  0  0  0
   39.1013   26.2988  -16.4803 H   0  0  0  0  0  0  0  0  0  0  0  0
   40.0854   27.7813  -16.1326 H   0  0  0  0  0  0  0  0  0  0  0  0
   40.5321   25.3502  -14.4147 H   0  0  0  0  0  0  0  0  0  0  0  0
   41.1746   25.3271  -16.0868 H   0  0  0  0  0  0  0  0  0  0  0  0
   42.8414   24.3049  -15.3451 H   0  0  0  0  0  0  0  0  0  0  0  0
   44.9659   23.3919  -14.4028 H   0  0  0  0  0  0  0  0  0  0  0  0
   45.6916   27.1278  -12.3617 H   0  0  0  0  0  0  0  0  0  0  0  0
  1  2  3  0
  2  3  1  0
  3  4  1  0
  4  5  1  0
  4  6  1  0
  6  7  1  0
  7  8  1  0
  8  9  1  0
  9 10  1  0
 10 11  2  0
 11 12  1  0
 12 13  2  0
 13 14  1  0
 13 15  1  0
 15 16  2  0
 16 17  1  0
 16 10  1  0
  1 18  1  0
  3 19  1  0
  3 20  1  0
  4 21  1  6
  5 22  1  0
  5 23  1  0
  5 24  1  0
  6 25  1  0
  6 26  1  0
  7 27  1  0
  7 28  1  0
  8 29  1  0
  8 30  1  0
 11 31  1  0
 12 32  1  0
 15 33  1  0
M  CHG  1   4   1
M  END
>  <meeko>  (5) 
{"is_sidechain": [false], "free_energy": -4.6, "intermolecular_energy": -6.069, "internal_energy": -0.666}

$$$$
clorgyline_out
     RDKit          3D

 33 33  0  0  0  0  0  0  0  0999 V2000
   43.8710   28.1490  -13.3340 C   0  0  0  0  0  0  0  0  0  0  0  0
   44.2640   27.1510  -12.7930 C   0  0  0  0  0  0  0  0  0  0  0  0
   44.7410   25.9270  -12.1290 C   0  0  0  0  0  0  0  0  0  0  0  0
   45.1660   24.8530  -13.0450 N   0  0  2  0  0  0  0  0  0  0  0  0
   46.6120   24.6380  -12.9830 C   0  0  0  0  0  0  0  0  0  0  0  0
   44.6880   25.0870  -14.4190 C   0  0  0  0  0  0  0  0  0  0  0  0
   43.3200   24.4390  -14.6800 C   0  0  0  0  0  0  0  0  0  0  0  0
   42.2810   25.4710  -15.1180 C   0  0  0  0  0  0  0  0  0  0  0  0
   41.2790   25.5700  -14.1090 O   0  0  0  0  0  0  0  0  0  0  0  0
   40.2940   26.5080  -14.2690 C   0  0  0  0  0  0  0  0  0  0  0  0
   39.5500   26.6850  -15.4400 C   0  0  0  0  0  0  0  0  0  0  0  0
   38.5650   27.6760  -15.5080 C   0  0  0  0  0  0  0  0  0  0  0  0
   38.3220   28.4960  -14.4080 C   0  0  0  0  0  0  0  0  0  0  0  0
   37.1090   29.7120  -14.5020 Cl  0  0  0  0  0  0  0  0  0  0  0  0
   39.0520   28.3370  -13.2360 C   0  0  0  0  0  0  0  0  0  0  0  0
   40.0360   27.3470  -13.1690 C   0  0  0  0  0  0  0  0  0  0  0  0
   40.9180   27.1840  -11.6890 Cl  0  0  0  0  0  0  0  0  0  0  0  0
   43.5111   29.0628  -13.8294 H   0  0  0  0  0  0  0  0  0  0  0  0
   45.5982   26.1941  -11.4936 H   0  0  0  0  0  0  0  0  0  0  0  0
   43.8870   25.5298  -11.5607 H   0  0  0  0  0  0  0  0  0  0  0  0
   44.7250   23.9870  -12.7320 H   0  0  0  0  0  0  0  0  0  0  0  0
   46.9309   24.5906  -11.9313 H   0  0  0  0  0  0  0  0  0  0  0  0
   46.8640   23.6925  -13.4855 H   0  0  0  0  0  0  0  0  0  0  0  0
   47.1282   25.4693  -13.4855 H   0  0  0  0  0  0  0  0  0  0  0  0
   44.6028   26.1712  -14.5838 H   0  0  0  0  0  0  0  0  0  0  0  0
   45.4130   24.6308  -15.1092 H   0  0  0  0  0  0  0  0  0  0  0  0
   43.4285   23.6837  -15.4723 H   0  0  0  0  0  0  0  0  0  0  0  0
   42.9734   23.9794  -13.7427 H   0  0  0  0  0  0  0  0  0  0  0  0
   42.7659   26.4488  -15.2548 H   0  0  0  0  0  0  0  0  0  0  0  0
   41.8242   25.1612  -16.0695 H   0  0  0  0  0  0  0  0  0  0  0  0
   39.7403   26.0418  -16.3118 H   0  0  0  0  0  0  0  0  0  0  0  0
   37.9815   27.8081  -16.4311 H   0  0  0  0  0  0  0  0  0  0  0  0
   38.8569   28.9848  -12.3687 H   0  0  0  0  0  0  0  0  0  0  0  0
  1  2  3  0
  2  3  1  0
  3  4  1  0
  4  5  1  0
  4  6  1  0
  6  7  1  0
  7  8  1  0
  8  9  1  0
  9 10  1  0
 10 11  2  0
 11 12  1  0
 12 13  2  0
 13 14  1  0
 13 15  1  0
 15 16  2  0
 16 17  1  0
 16 10  1  0
  1 18  1  0
  3 19  1  0
  3 20  1  0
  4 21  1  1
  5 22  1  0
  5 23  1  0
  5 24  1  0
  6 25  1  0
  6 26  1  0
  7 27  1  0
  7 28  1  0
  8 29  1  0
  8 30  1  0
 11 31  1  0
 12 32  1  0
 15 33  1  0
M  CHG  1   4   1
M  END
>  <meeko>  (6) 
{"is_sidechain": [false], "free_energy": -4.513, "intermolecular_energy": -6.198, "internal_energy": -0.42}

$$$$
clorgyline_out
     RDKit          3D

 33 33  0  0  0  0  0  0  0  0999 V2000
   38.5940   29.5410  -13.6610 C   0  0  0  0  0  0  0  0  0  0  0  0
   38.0720   28.9680  -14.5790 C   0  0  0  0  0  0  0  0  0  0  0  0
   37.4290   28.2700  -15.7050 C   0  0  0  0  0  0  0  0  0  0  0  0
   38.3540   27.8240  -16.7630 N   0  0  2  0  0  0  0  0  0  0  0  0
   37.6290   27.2580  -17.9020 C   0  0  0  0  0  0  0  0  0  0  0  0
   39.3850   26.9110  -16.2380 C   0  0  0  0  0  0  0  0  0  0  0  0
   38.8450   25.9980  -15.1280 C   0  0  0  0  0  0  0  0  0  0  0  0
   39.7360   26.0310  -13.8870 C   0  0  0  0  0  0  0  0  0  0  0  0
   40.8360   26.9050  -14.1340 O   0  0  0  0  0  0  0  0  0  0  0  0
   42.1020   26.4150  -13.9550 C   0  0  0  0  0  0  0  0  0  0  0  0
   42.8510   25.7740  -14.9480 C   0  0  0  0  0  0  0  0  0  0  0  0
   44.1380   25.3030  -14.6670 C   0  0  0  0  0  0  0  0  0  0  0  0
   44.6800   25.4660  -13.3940 C   0  0  0  0  0  0  0  0  0  0  0  0
   46.2620   24.8810  -13.0600 Cl  0  0  0  0  0  0  0  0  0  0  0  0
   43.9490   26.0980  -12.3940 C   0  0  0  0  0  0  0  0  0  0  0  0
   42.6650   26.5670  -12.6750 C   0  0  0  0  0  0  0  0  0  0  0  0
   41.7940   27.3500  -11.4000 Cl  0  0  0  0  0  0  0  0  0  0  0  0
   39.0719   30.0656  -12.8205 H   0  0  0  0  0  0  0  0  0  0  0  0
   36.9102   27.3849  -15.3081 H   0  0  0  0  0  0  0  0  0  0  0  0
   36.7489   28.9968  -16.1733 H   0  0  0  0  0  0  0  0  0  0  0  0
   38.8490   28.6470  -17.1080 H   0  0  0  0  0  0  0  0  0  0  0  0
   36.8114   26.6197  -17.5357 H   0  0  0  0  0  0  0  0  0  0  0  0
   37.2127   28.0725  -18.5131 H   0  0  0  0  0  0  0  0  0  0  0  0
   38.3181   26.6565  -18.5131 H   0  0  0  0  0  0  0  0  0  0  0  0
   39.7553   26.2842  -17.0626 H   0  0  0  0  0  0  0  0  0  0  0  0
   40.1897   27.5247  -15.8069 H   0  0  0  0  0  0  0  0  0  0  0  0
   37.8346   26.3330  -14.8507 H   0  0  0  0  0  0  0  0  0  0  0  0
   38.8268   24.9667  -15.5102 H   0  0  0  0  0  0  0  0  0  0  0  0
   39.1578   26.3985  -13.0264 H   0  0  0  0  0  0  0  0  0  0  0  0
   40.1053   25.0189  -13.6650 H   0  0  0  0  0  0  0  0  0  0  0  0
   42.4261   25.6399  -15.9537 H   0  0  0  0  0  0  0  0  0  0  0  0
   44.7232   24.8029  -15.4528 H   0  0  0  0  0  0  0  0  0  0  0  0
   44.3792   26.2272  -11.3899 H   0  0  0  0  0  0  0  0  0  0  0  0
  1  2  3  0
  2  3  1  0
  3  4  1  0
  4  5  1  0
  4  6  1  0
  6  7  1  0
  7  8  1  0
  8  9  1  0
  9 10  1  0
 10 11  2  0
 11 12  1  0
 12 13  2  0
 13 14  1  0
 13 15  1  0
 15 16  2  0
 16 17  1  0
 16 10  1  0
  1 18  1  0
  3 19  1  0
  3 20  1  0
  4 21  1  6
  5 22  1  0
  5 23  1  0
  5 24  1  0
  6 25  1  0
  6 26  1  0
  7 27  1  0
  7 28  1  0
  8 29  1  0
  8 30  1  0
 11 31  1  0
 12 32  1  0
 15 33  1  0
M  CHG  1   4   1
M  END
>  <meeko>  (7) 
{"is_sidechain": [false], "free_energy": -4.309, "intermolecular_energy": -6.194, "internal_energy": -0.15}

$$$$
clorgyline_out
     RDKit          3D

 33 33  0  0  0  0  0  0  0  0999 V2000
   41.5630   26.7430  -11.1440 C   0  0  0  0  0  0  0  0  0  0  0  0
   42.4600   26.9090  -11.9250 C   0  0  0  0  0  0  0  0  0  0  0  0
   43.5620   27.1150  -12.8810 C   0  0  0  0  0  0  0  0  0  0  0  0
   44.4610   25.9580  -13.0450 N   0  0  2  0  0  0  0  0  0  0  0  0
   45.8550   26.3810  -13.1790 C   0  0  0  0  0  0  0  0  0  0  0  0
   44.0270   25.0820  -14.1470 C   0  0  0  0  0  0  0  0  0  0  0  0
   43.0400   25.7790  -15.0940 C   0  0  0  0  0  0  0  0  0  0  0  0
   41.6090   25.2850  -14.8840 C   0  0  0  0  0  0  0  0  0  0  0  0
   40.7530   25.9470  -15.8130 O   0  0  0  0  0  0  0  0  0  0  0  0
   39.8740   26.8780  -15.3290 C   0  0  0  0  0  0  0  0  0  0  0  0
   40.0160   27.5420  -14.1060 C   0  0  0  0  0  0  0  0  0  0  0  0
   39.0590   28.4760  -13.6940 C   0  0  0  0  0  0  0  0  0  0  0  0
   37.9560   28.7480  -14.5010 C   0  0  0  0  0  0  0  0  0  0  0  0
   36.7850   29.8980  -13.9850 Cl  0  0  0  0  0  0  0  0  0  0  0  0
   37.7970   28.0970  -15.7190 C   0  0  0  0  0  0  0  0  0  0  0  0
   38.7520   27.1640  -16.1280 C   0  0  0  0  0  0  0  0  0  0  0  0
   38.5130   26.3790  -17.6520 Cl  0  0  0  0  0  0  0  0  0  0  0  0
   40.7414   26.5909  -10.4286 H   0  0  0  0  0  0  0  0  0  0  0  0
   43.1245   27.3505  -13.8624 H   0  0  0  0  0  0  0  0  0  0  0  0
   44.1774   27.9308  -12.4739 H   0  0  0  0  0  0  0  0  0  0  0  0
   44.4030   25.3990  -12.1930 H   0  0  0  0  0  0  0  0  0  0  0  0
   46.2953   26.5146  -12.1799 H   0  0  0  0  0  0  0  0  0  0  0  0
   46.4197   25.6138  -13.7290 H   0  0  0  0  0  0  0  0  0  0  0  0
   45.8982   27.3327  -13.7290 H   0  0  0  0  0  0  0  0  0  0  0  0
   44.9120   24.7741  -14.7232 H   0  0  0  0  0  0  0  0  0  0  0  0
   43.5130   24.2159  -13.7047 H   0  0  0  0  0  0  0  0  0  0  0  0
   43.0736   26.8628  -14.9089 H   0  0  0  0  0  0  0  0  0  0  0  0
   43.3346   25.5459  -16.1279 H   0  0  0  0  0  0  0  0  0  0  0  0
   41.5649   24.1985  -15.0501 H   0  0  0  0  0  0  0  0  0  0  0  0
   41.2852   25.5042  -13.8558 H   0  0  0  0  0  0  0  0  0  0  0  0
   40.8842   27.3289  -13.4651 H   0  0  0  0  0  0  0  0  0  0  0  0
   39.1775   28.9961  -12.7320 H   0  0  0  0  0  0  0  0  0  0  0  0
   36.9264   28.3150  -16.3551 H   0  0  0  0  0  0  0  0  0  0  0  0
  1  2  3  0
  2  3  1  0
  3  4  1  0
  4  5  1  0
  4  6  1  0
  6  7  1  0
  7  8  1  0
  8  9  1  0
  9 10  1  0
 10 11  2  0
 11 12  1  0
 12 13  2  0
 13 14  1  0
 13 15  1  0
 15 16  2  0
 16 17  1  0
 16 10  1  0
  1 18  1  0
  3 19  1  0
  3 20  1  0
  4 21  1  1
  5 22  1  0
  5 23  1  0
  5 24  1  0
  6 25  1  0
  6 26  1  0
  7 27  1  0
  7 28  1  0
  8 29  1  0
  8 30  1  0
 11 31  1  0
 12 32  1  0
 15 33  1  0
M  CHG  1   4   1
M  END
>  <meeko>  (8) 
{"is_sidechain": [false], "free_energy": -4.157, "intermolecular_energy": -6.04, "internal_energy": -0.097}

$$$$
clorgyline_out
     RDKit          3D

 33 33  0  0  0  0  0  0  0  0999 V2000
   37.8160   26.3850  -17.9440 C   0  0  0  0  0  0  0  0  0  0  0  0
   38.0220   27.3570  -17.2690 C   0  0  0  0  0  0  0  0  0  0  0  0
   38.2710   28.5500  -16.4420 C   0  0  0  0  0  0  0  0  0  0  0  0
   37.7850   28.4510  -15.0540 N   0  0  2  0  0  0  0  0  0  0  0  0
   36.5280   29.1800  -14.8750 C   0  0  0  0  0  0  0  0  0  0  0  0
   38.8170   28.8570  -14.0840 C   0  0  0  0  0  0  0  0  0  0  0  0
   39.4870   27.6530  -13.4070 C   0  0  0  0  0  0  0  0  0  0  0  0
   40.1050   26.7010  -14.4310 C   0  0  0  0  0  0  0  0  0  0  0  0
   40.8480   25.7010  -13.7380 O   0  0  0  0  0  0  0  0  0  0  0  0
   42.2080   25.8470  -13.6560 C   0  0  0  0  0  0  0  0  0  0  0  0
   43.1130   25.3840  -14.6170 C   0  0  0  0  0  0  0  0  0  0  0  0
   44.4880   25.5780  -14.4420 C   0  0  0  0  0  0  0  0  0  0  0  0
   44.9630   26.2310  -13.3060 C   0  0  0  0  0  0  0  0  0  0  0  0
   46.6550   26.4630  -13.1000 Cl  0  0  0  0  0  0  0  0  0  0  0  0
   44.0780   26.6950  -12.3390 C   0  0  0  0  0  0  0  0  0  0  0  0
   42.7060   26.5010  -12.5150 C   0  0  0  0  0  0  0  0  0  0  0  0
   41.6420   27.0980  -11.2870 Cl  0  0  0  0  0  0  0  0  0  0  0  0
   37.6274   25.4949  -18.5621 H   0  0  0  0  0  0  0  0  0  0  0  0
   39.3564   28.7261  -16.4130 H   0  0  0  0  0  0  0  0  0  0  0  0
   37.7107   29.3735  -16.9088 H   0  0  0  0  0  0  0  0  0  0  0  0
   37.5840   27.4680  -14.8660 H   0  0  0  0  0  0  0  0  0  0  0  0
   36.3229   29.2990  -13.8009 H   0  0  0  0  0  0  0  0  0  0  0  0
   36.6089   30.1713  -15.3448 H   0  0  0  0  0  0  0  0  0  0  0  0
   35.7078   28.6174  -15.3448 H   0  0  0  0  0  0  0  0  0  0  0  0
   39.5869   29.4405  -14.6102 H   0  0  0  0  0  0  0  0  0  0  0  0
   38.3262   29.4531  -13.3006 H   0  0  0  0  0  0  0  0  0  0  0  0
   40.2784   28.0165  -12.7350 H   0  0  0  0  0  0  0  0  0  0  0  0
   38.7171   27.1019  -12.8470 H   0  0  0  0  0  0  0  0  0  0  0  0
   39.3083   26.2263  -15.0225 H   0  0  0  0  0  0  0  0  0  0  0  0
   40.7693   27.2591  -15.1072 H   0  0  0  0  0  0  0  0  0  0  0  0
   42.7426   24.8655  -15.5136 H   0  0  0  0  0  0  0  0  0  0  0  0
   45.1950   25.2145  -15.2023 H   0  0  0  0  0  0  0  0  0  0  0  0
   44.4551   27.2103  -11.4433 H   0  0  0  0  0  0  0  0  0  0  0  0
  1  2  3  0
  2  3  1  0
  3  4  1  0
  4  5  1  0
  4  6  1  0
  6  7  1  0
  7  8  1  0
  8  9  1  0
  9 10  1  0
 10 11  2  0
 11 12  1  0
 12 13  2  0
 13 14  1  0
 13 15  1  0
 15 16  2  0
 16 17  1  0
 16 10  1  0
  1 18  1  0
  3 19  1  0
  3 20  1  0
  4 21  1  1
  5 22  1  0
  5 23  1  0
  5 24  1  0
  6 25  1  0
  6 26  1  0
  7 27  1  0
  7 28  1  0
  8 29  1  0
  8 30  1  0
 11 31  1  0
 12 32  1  0
 15 33  1  0
M  CHG  1   4   1
M  END
>  <meeko>  (9) 
{"is_sidechain": [false], "free_energy": -3.705, "intermolecular_energy": -5.669, "internal_energy": 0.142}

$$$$
