lazabemide_out
     RDKit          3D

 24 24  0  0  0  0  0  0  0  0999 V2000
   38.7100   26.9240  -18.6630 N   0  0  0  0  0  0  0  0  0  0  0  0
   37.6270   26.8890  -17.6710 C   0  0  0  0  0  0  0  0  0  0  0  0
   37.9760   27.7020  -16.4160 C   0  0  0  0  0  0  0  0  0  0  0  0
   39.3030   27.4030  -15.9140 N   0  0  0  0  0  0  0  0  0  0  0  0
   39.5220   26.6410  -14.7890 C   0  0  0  0  0  0  0  0  0  0  0  0
   38.6340   26.0850  -14.1530 O   0  0  0  0  0  0  0  0  0  0  0  0
   40.9590   26.5510  -14.3730 C   0  0  0  0  0  0  0  0  0  0  0  0
   41.3490   27.0200  -13.1230 C   0  0  0  0  0  0  0  0  0  0  0  0
   42.6950   26.9250  -12.7710 C   0  0  0  0  0  0  0  0  0  0  0  0
   43.5960   26.3690  -13.6740 C   0  0  0  0  0  0  0  0  0  0  0  0
   45.2600   26.2340  -13.2770 Cl  0  0  0  0  0  0  0  0  0  0  0  0
   43.1190   25.9280  -14.9010 C   0  0  0  0  0  0  0  0  0  0  0  0
   41.8190   26.0050  -15.2800 N   0  0  0  0  0  0  0  0  0  0  0  0
   39.4820   26.3400  -18.3440 H   0  0  0  0  0  0  0  0  0  0  0  0
   39.0330   27.8840  -18.7790 H   0  0  0  0  0  0  0  0  0  0  0  0
   38.3640   26.5710  -19.5560 H   0  0  0  0  0  0  0  0  0  0  0  0
   36.7158   27.3069  -18.1239 H   0  0  0  0  0  0  0  0  0  0  0  0
   37.4743   25.8425  -17.3686 H   0  0  0  0  0  0  0  0  0  0  0  0
   37.9250   28.7726  -16.6634 H   0  0  0  0  0  0  0  0  0  0  0  0
   37.2529   27.4342  -15.6315 H   0  0  0  0  0  0  0  0  0  0  0  0
   40.0810   27.7590  -16.4010 H   0  0  0  0  0  0  0  0  0  0  0  0
   40.6142   27.4549  -12.4295 H   0  0  0  0  0  0  0  0  0  0  0  0
   43.0405   27.2854  -11.7908 H   0  0  0  0  0  0  0  0  0  0  0  0
   43.8386   25.4898  -15.6082 H   0  0  0  0  0  0  0  0  0  0  0  0
  1  2  1  0
  2  3  1  0
  3  4  1  0
  4  5  1  0
  5  6  2  0
  5  7  1  0
  7  8  2  0
  8  9  1  0
  9 10  2  0
 10 11  1  0
 10 12  1  0
 12 13  2  0
 13  7  1  0
  1 14  1  0
  1 15  1  0
  1 16  1  0
  2 17  1  0
  2 18  1  0
  3 19  1  0
  3 20  1  0
  4 21  1  0
  8 22  1  0
  9 23  1  0
 12 24  1  0
M  CHG  1   1   1
M  END
>  <meeko>  (1) 
{"is_sidechain": [false], "free_energy": -7.123, "intermolecular_energy": -8.58, "internal_energy": -0.174}

$$$$
lazabemide_out
     RDKit          3D

 24 24  0  0  0  0  0  0  0  0999 V2000
   38.0050   28.1660  -17.8990 N   0  0  0  0  0  0  0  0  0  0  0  0
   38.3840   26.9690  -17.1370 C   0  0  0  0  0  0  0  0  0  0  0  0
   38.7110   27.3030  -15.6740 C   0  0  0  0  0  0  0  0  0  0  0  0
   40.0010   26.7860  -15.2640 N   0  0  0  0  0  0  0  0  0  0  0  0
   40.5280   26.9990  -14.0100 C   0  0  0  0  0  0  0  0  0  0  0  0
   39.9340   27.5730  -13.1050 O   0  0  0  0  0  0  0  0  0  0  0  0
   41.9230   26.4820  -13.8290 C   0  0  0  0  0  0  0  0  0  0  0  0
   42.4500   25.5750  -14.7430 C   0  0  0  0  0  0  0  0  0  0  0  0
   43.7500   25.1120  -14.5410 C   0  0  0  0  0  0  0  0  0  0  0  0
   44.4710   25.5680  -13.4420 C   0  0  0  0  0  0  0  0  0  0  0  0
   46.0730   25.0220  -13.1600 Cl  0  0  0  0  0  0  0  0  0  0  0  0
   43.8650   26.4720  -12.5790 C   0  0  0  0  0  0  0  0  0  0  0  0
   42.6040   26.9440  -12.7410 N   0  0  0  0  0  0  0  0  0  0  0  0
   38.0780   27.9710  -18.8970 H   0  0  0  0  0  0  0  0  0  0  0  0
   38.6280   28.9350  -17.6550 H   0  0  0  0  0  0  0  0  0  0  0  0
   37.0430   28.4220  -17.6730 H   0  0  0  0  0  0  0  0  0  0  0  0
   37.5493   26.2530  -17.1606 H   0  0  0  0  0  0  0  0  0  0  0  0
   39.2857   26.5411  -17.5994 H   0  0  0  0  0  0  0  0  0  0  0  0
   38.7142   28.3964  -15.5536 H   0  0  0  0  0  0  0  0  0  0  0  0
   37.9443   26.8300  -15.0428 H   0  0  0  0  0  0  0  0  0  0  0  0
   40.5240   26.2580  -15.9110 H   0  0  0  0  0  0  0  0  0  0  0  0
   41.8564   25.2318  -15.6031 H   0  0  0  0  0  0  0  0  0  0  0  0
   44.2002   24.3944  -15.2427 H   0  0  0  0  0  0  0  0  0  0  0  0
   44.4424   26.8263  -11.7123 H   0  0  0  0  0  0  0  0  0  0  0  0
  1  2  1  0
  2  3  1  0
  3  4  1  0
  4  5  1  0
  5  6  2  0
  5  7  1  0
  7  8  2  0
  8  9  1  0
  9 10  2  0
 10 11  1  0
 10 12  1  0
 12 13  2  0
 13  7  1  0
  1 14  1  0
  1 15  1  0
  1 16  1  0
  2 17  1  0
  2 18  1  0
  3 19  1  0
  3 20  1  0
  4 21  1  0
  8 22  1  0
  9 23  1  0
 12 24  1  0
M  CHG  1   1   1
M  END
>  <meeko>  (2) 
{"is_sidechain": [false], "free_energy": -6.853, "intermolecular_energy": -8.293, "internal_energy": -0.137}

$$$$
lazabemide_out
     RDKit          3D

 24 24  0  0  0  0  0  0  0  0999 V2000
   36.4600   29.5070  -14.6030 N   0  0  0  0  0  0  0  0  0  0  0  0
   37.9010   29.2350  -14.5340 C   0  0  0  0  0  0  0  0  0  0  0  0
   38.2860   27.9850  -15.3400 C   0  0  0  0  0  0  0  0  0  0  0  0
   39.6440   27.5520  -15.0730 N   0  0  0  0  0  0  0  0  0  0  0  0
   39.9590   26.6480  -14.0840 C   0  0  0  0  0  0  0  0  0  0  0  0
   39.1290   26.0700  -13.3930 O   0  0  0  0  0  0  0  0  0  0  0  0
   41.4290   26.4270  -13.8940 C   0  0  0  0  0  0  0  0  0  0  0  0
   42.1270   25.6080  -14.7770 C   0  0  0  0  0  0  0  0  0  0  0  0
   43.4930   25.4210  -14.5660 C   0  0  0  0  0  0  0  0  0  0  0  0
   44.1070   26.0540  -13.4910 C   0  0  0  0  0  0  0  0  0  0  0  0
   45.7860   25.8490  -13.2000 Cl  0  0  0  0  0  0  0  0  0  0  0  0
   43.3330   26.8530  -12.6600 C   0  0  0  0  0  0  0  0  0  0  0  0
   42.0040   27.0580  -12.8300 N   0  0  0  0  0  0  0  0  0  0  0  0
   35.9980   29.1010  -13.7900 H   0  0  0  0  0  0  0  0  0  0  0  0
   36.0770   29.0960  -15.4540 H   0  0  0  0  0  0  0  0  0  0  0  0
   36.3050   30.5150  -14.6140 H   0  0  0  0  0  0  0  0  0  0  0  0
   38.4463   30.1008  -14.9379 H   0  0  0  0  0  0  0  0  0  0  0  0
   38.1648   29.0570  -13.4811 H   0  0  0  0  0  0  0  0  0  0  0  0
   37.5968   27.1690  -15.0771 H   0  0  0  0  0  0  0  0  0  0  0  0
   38.2191   28.2406  -16.4078 H   0  0  0  0  0  0  0  0  0  0  0  0
   40.3720   27.9210  -15.6240 H   0  0  0  0  0  0  0  0  0  0  0  0
   41.6144   25.1208  -15.6196 H   0  0  0  0  0  0  0  0  0  0  0  0
   44.0778   24.7801  -15.2422 H   0  0  0  0  0  0  0  0  0  0  0  0
   43.8283   27.3496  -11.8126 H   0  0  0  0  0  0  0  0  0  0  0  0
  1  2  1  0
  2  3  1  0
  3  4  1  0
  4  5  1  0
  5  6  2  0
  5  7  1  0
  7  8  2  0
  8  9  1  0
  9 10  2  0
 10 11  1  0
 10 12  1  0
 12 13  2  0
 13  7  1  0
  1 14  1  0
  1 15  1  0
  1 16  1  0
  2 17  1  0
  2 18  1  0
  3 19  1  0
  3 20  1  0
  4 21  1  0
  8 22  1  0
  9 23  1  0
 12 24  1  0
M  CHG  1   1   1
M  END
>  <meeko>  (3) 
{"is_sidechain": [false], "free_energy": -6.691, "intermolecular_energy": -8.091, "internal_energy": -0.143}

$$$$
lazabemide_out
     RDKit          3D

 24 24  0  0  0  0  0  0  0  0999 V2000
   36.4540   29.5130  -14.5850 N   0  0  0  0  0  0  0  0  0  0  0  0
   37.9030   29.2780  -14.5420 C   0  0  0  0  0  0  0  0  0  0  0  0
   38.3070   28.0440  -15.3620 C   0  0  0  0  0  0  0  0  0  0  0  0
   39.6530   27.5970  -15.0610 N   0  0  0  0  0  0  0  0  0  0  0  0
   39.9360   26.7050  -14.0510 C   0  0  0  0  0  0  0  0  0  0  0  0
   39.0850   26.1500  -13.3670 O   0  0  0  0  0  0  0  0  0  0  0  0
   41.3990   26.4680  -13.8290 C   0  0  0  0  0  0  0  0  0  0  0  0
   42.0350   27.0380  -12.7300 C   0  0  0  0  0  0  0  0  0  0  0  0
   43.3980   26.7990  -12.5580 C   0  0  0  0  0  0  0  0  0  0  0  0
   44.0720   26.0060  -13.4800 C   0  0  0  0  0  0  0  0  0  0  0  0
   45.7480   25.6890  -13.3000 Cl  0  0  0  0  0  0  0  0  0  0  0  0
   43.3580   25.4790  -14.5490 C   0  0  0  0  0  0  0  0  0  0  0  0
   42.0340   25.6890  -14.7520 N   0  0  0  0  0  0  0  0  0  0  0  0
   36.2380   30.3880  -14.1080 H   0  0  0  0  0  0  0  0  0  0  0  0
   35.9720   28.7430  -14.1210 H   0  0  0  0  0  0  0  0  0  0  0  0
   36.1480   29.5700  -15.5560 H   0  0  0  0  0  0  0  0  0  0  0  0
   38.4187   30.1602  -14.9493 H   0  0  0  0  0  0  0  0  0  0  0  0
   38.1889   29.1003  -13.4948 H   0  0  0  0  0  0  0  0  0  0  0  0
   37.6052   27.2267  -15.1394 H   0  0  0  0  0  0  0  0  0  0  0  0
   38.2762   28.3232  -16.4255 H   0  0  0  0  0  0  0  0  0  0  0  0
   40.3970   27.9460  -15.6040 H   0  0  0  0  0  0  0  0  0  0  0  0
   41.4769   27.6609  -12.0156 H   0  0  0  0  0  0  0  0  0  0  0  0
   43.9345   27.2334  -11.7016 H   0  0  0  0  0  0  0  0  0  0  0  0
   43.8994   24.8538  -15.2743 H   0  0  0  0  0  0  0  0  0  0  0  0
  1  2  1  0
  2  3  1  0
  3  4  1  0
  4  5  1  0
  5  6  2  0
  5  7  1  0
  7  8  2  0
  8  9  1  0
  9 10  2  0
 10 11  1  0
 10 12  1  0
 12 13  2  0
 13  7  1  0
  1 14  1  0
  1 15  1  0
  1 16  1  0
  2 17  1  0
  2 18  1  0
  3 19  1  0
  3 20  1  0
  4 21  1  0
  8 22  1  0
  9 23  1  0
 12 24  1  0
M  CHG  1   1   1
M  END
>  <meeko>  (4) 
{"is_sidechain": [false], "free_energy": -6.643, "intermolecular_energy": -8.031, "internal_energy": -0.145}

$$$$
lazabemide_out
     RDKit          3D

 24 24  0  0  0  0  0  0  0  0999 V2000
   45.1140   25.1320  -14.4870 N   0  0  0  0  0  0  0  0  0  0  0  0
   45.0050   26.3640  -13.6970 C   0  0  0  0  0  0  0  0  0  0  0  0
   44.0320   26.2040  -12.5190 C   0  0  0  0  0  0  0  0  0  0  0  0
   42.7210   26.7510  -12.8070 N   0  0  0  0  0  0  0  0  0  0  0  0
   41.9030   26.2520  -13.7960 C   0  0  0  0  0  0  0  0  0  0  0  0
   42.1670   25.2630  -14.4700 O   0  0  0  0  0  0  0  0  0  0  0  0
   40.6440   27.0350  -14.0110 C   0  0  0  0  0  0  0  0  0  0  0  0
   40.2220   27.9470  -13.0480 C   0  0  0  0  0  0  0  0  0  0  0  0
   39.0420   28.6540  -13.2800 C   0  0  0  0  0  0  0  0  0  0  0  0
   38.3320   28.4260  -14.4530 C   0  0  0  0  0  0  0  0  0  0  0  0
   36.8770   29.2780  -14.7730 Cl  0  0  0  0  0  0  0  0  0  0  0  0
   38.8260   27.4950  -15.3580 C   0  0  0  0  0  0  0  0  0  0  0  0
   39.9660   26.7880  -15.1690 N   0  0  0  0  0  0  0  0  0  0  0  0
   45.5870   25.3330  -15.3680 H   0  0  0  0  0  0  0  0  0  0  0  0
   44.1810   24.7660  -14.6770 H   0  0  0  0  0  0  0  0  0  0  0  0
   45.6510   24.4390  -13.9640 H   0  0  0  0  0  0  0  0  0  0  0  0
   45.9991   26.6241  -13.3045 H   0  0  0  0  0  0  0  0  0  0  0  0
   44.6184   27.1573  -14.3536 H   0  0  0  0  0  0  0  0  0  0  0  0
   43.9257   25.1330  -12.2915 H   0  0  0  0  0  0  0  0  0  0  0  0
   44.4463   26.7585  -11.6641 H   0  0  0  0  0  0  0  0  0  0  0  0
   42.4000   27.5130  -12.2710 H   0  0  0  0  0  0  0  0  0  0  0  0
   40.8037   28.1061  -12.1281 H   0  0  0  0  0  0  0  0  0  0  0  0
   38.6773   29.3841  -12.5425 H   0  0  0  0  0  0  0  0  0  0  0  0
   38.2574   27.3215  -16.2835 H   0  0  0  0  0  0  0  0  0  0  0  0
  1  2  1  0
  2  3  1  0
  3  4  1  0
  4  5  1  0
  5  6  2  0
  5  7  1  0
  7  8  2  0
  8  9  1  0
  9 10  2  0
 10 11  1  0
 10 12  1  0
 12 13  2  0
 13  7  1  0
  1 14  1  0
  1 15  1  0
  1 16  1  0
  2 17  1  0
  2 18  1  0
  3 19  1  0
  3 20  1  0
  4 21  1  0
  8 22  1  0
  9 23  1  0
 12 24  1  0
M  CHG  1   1   1
M  END
>  <meeko>  (5) 
{"is_sidechain": [false], "free_energy": -6.14, "intermolecular_energy": -7.391, "internal_energy": -0.179}

$$$$
lazabemide_out
     RDKit          3D

 24 24  0  0  0  0  0  0  0  0999 V2000
   45.3220   25.1910  -14.2340 N   0  0  0  0  0  0  0  0  0  0  0  0
   45.0500   26.4590  -13.5440 C   0  0  0  0  0  0  0  0  0  0  0  0
   44.0380   26.2820  -12.4020 C   0  0  0  0  0  0  0  0  0  0  0  0
   42.7240   26.7910  -12.7450 N   0  0  0  0  0  0  0  0  0  0  0  0
   41.9620   26.2660  -13.7630 C   0  0  0  0  0  0  0  0  0  0  0  0
   42.2800   25.2810  -14.4210 O   0  0  0  0  0  0  0  0  0  0  0  0
   40.6900   27.0110  -14.0320 C   0  0  0  0  0  0  0  0  0  0  0  0
   39.9510   26.7310  -15.1770 C   0  0  0  0  0  0  0  0  0  0  0  0
   38.7750   27.4480  -15.3970 C   0  0  0  0  0  0  0  0  0  0  0  0
   38.3840   28.4120  -14.4740 C   0  0  0  0  0  0  0  0  0  0  0  0
   36.9430   29.3130  -14.7100 Cl  0  0  0  0  0  0  0  0  0  0  0  0
   39.1840   28.6270  -13.3590 C   0  0  0  0  0  0  0  0  0  0  0  0
   40.3330   27.9530  -13.1110 N   0  0  0  0  0  0  0  0  0  0  0  0
   46.3280   25.0810  -14.3580 H   0  0  0  0  0  0  0  0  0  0  0  0
   44.8640   25.1960  -15.1450 H   0  0  0  0  0  0  0  0  0  0  0  0
   44.9610   24.4170  -13.6760 H   0  0  0  0  0  0  0  0  0  0  0  0
   45.9916   26.8471  -13.1283 H   0  0  0  0  0  0  0  0  0  0  0  0
   44.6213   27.1605  -14.2748 H   0  0  0  0  0  0  0  0  0  0  0  0
   43.9521   25.2104  -12.1688 H   0  0  0  0  0  0  0  0  0  0  0  0
   44.4044   26.8542  -11.5369 H   0  0  0  0  0  0  0  0  0  0  0  0
   42.3620   27.5460  -12.2260 H   0  0  0  0  0  0  0  0  0  0  0  0
   40.2856   25.9637  -15.8906 H   0  0  0  0  0  0  0  0  0  0  0  0
   38.1637   27.2532  -16.2905 H   0  0  0  0  0  0  0  0  0  0  0  0
   38.8656   29.3903  -12.6338 H   0  0  0  0  0  0  0  0  0  0  0  0
  1  2  1  0
  2  3  1  0
  3  4  1  0
  4  5  1  0
  5  6  2  0
  5  7  1  0
  7  8  2  0
  8  9  1  0
  9 10  2  0
 10 11  1  0
 10 12  1  0
 12 13  2  0
 13  7  1  0
  1 14  1  0
  1 15  1  0
  1 16  1  0
  2 17  1  0
  2 18  1  0
  3 19  1  0
  3 20  1  0
  4 21  1  0
  8 22  1  0
  9 23  1  0
 12 24  1  0
M  CHG  1   1   1
M  END
>  <meeko>  (6) 
{"is_sidechain": [false], "free_energy": -6.05, "intermolecular_energy": -7.248, "internal_energy": -0.214}

$$$$
lazabemide_out
     RDKit          3D

 24 24  0  0  0  0  0  0  0  0999 V2000
   45.0580   25.4980  -14.1630 N   0  0  0  0  0  0  0  0  0  0  0  0
   45.0080   26.5040  -13.0940 C   0  0  0  0  0  0  0  0  0  0  0  0
   43.6220   26.5680  -12.4340 C   0  0  0  0  0  0  0  0  0  0  0  0
   42.5630   26.8090  -13.3940 N   0  0  0  0  0  0  0  0  0  0  0  0
   41.2720   27.1080  -13.0230 C   0  0  0  0  0  0  0  0  0  0  0  0
   40.9120   27.2730  -11.8630 O   0  0  0  0  0  0  0  0  0  0  0  0
   40.3060   27.2030  -14.1650 C   0  0  0  0  0  0  0  0  0  0  0  0
   39.1580   27.9780  -14.0390 C   0  0  0  0  0  0  0  0  0  0  0  0
   38.2790   28.0380  -15.1200 C   0  0  0  0  0  0  0  0  0  0  0  0
   38.5760   27.3280  -16.2780 C   0  0  0  0  0  0  0  0  0  0  0  0
   37.5200   27.3790  -17.6300 Cl  0  0  0  0  0  0  0  0  0  0  0  0
   39.7450   26.5790  -16.3160 C   0  0  0  0  0  0  0  0  0  0  0  0
   40.6230   26.4930  -15.2860 N   0  0  0  0  0  0  0  0  0  0  0  0
   44.3960   25.7480  -14.8960 H   0  0  0  0  0  0  0  0  0  0  0  0
   44.8140   24.5840  -13.7800 H   0  0  0  0  0  0  0  0  0  0  0  0
   46.0000   25.4630  -14.5530 H   0  0  0  0  0  0  0  0  0  0  0  0
   45.7552   26.2474  -12.3286 H   0  0  0  0  0  0  0  0  0  0  0  0
   45.2197   27.4870  -13.5399 H   0  0  0  0  0  0  0  0  0  0  0  0
   43.4279   25.6115  -11.9267 H   0  0  0  0  0  0  0  0  0  0  0  0
   43.6276   27.4075  -11.7233 H   0  0  0  0  0  0  0  0  0  0  0  0
   42.7780   26.7580  -14.3540 H   0  0  0  0  0  0  0  0  0  0  0  0
   38.9488   28.5295  -13.1105 H   0  0  0  0  0  0  0  0  0  0  0  0
   37.3608   28.6404  -15.0572 H   0  0  0  0  0  0  0  0  0  0  0  0
   39.9724   26.0221  -17.2369 H   0  0  0  0  0  0  0  0  0  0  0  0
  1  2  1  0
  2  3  1  0
  3  4  1  0
  4  5  1  0
  5  6  2  0
  5  7  1  0
  7  8  2  0
  8  9  1  0
  9 10  2  0
 10 11  1  0
 10 12  1  0
 12 13  2  0
 13  7  1  0
  1 14  1  0
  1 15  1  0
  1 16  1  0
  2 17  1  0
  2 18  1  0
  3 19  1  0
  3 20  1  0
  4 21  1  0
  8 22  1  0
  9 23  1  0
 12 24  1  0
M  CHG  1   1   1
M  END
>  <meeko>  (7) 
{"is_sidechain": [false], "free_energy": -5.97, "intermolecular_energy": -7.216, "internal_energy": -0.149}

$$$$
lazabemide_out
     RDKit          3D

 24 24  0  0  0  0  0  0  0  0999 V2000
   46.6680   24.3400  -13.1740 N   0  0  0  0  0  0  0  0  0  0  0  0
   45.3150   24.7790  -13.5370 C   0  0  0  0  0  0  0  0  0  0  0  0
   45.0830   26.2580  -13.1940 C   0  0  0  0  0  0  0  0  0  0  0  0
   43.7600   26.7130  -13.5730 N   0  0  0  0  0  0  0  0  0  0  0  0
   42.7230   26.8270  -12.6750 C   0  0  0  0  0  0  0  0  0  0  0  0
   42.8340   26.6320  -11.4700 O   0  0  0  0  0  0  0  0  0  0  0  0
   41.4090   27.1980  -13.2920 C   0  0  0  0  0  0  0  0  0  0  0  0
   40.9990   26.5850  -14.4720 C   0  0  0  0  0  0  0  0  0  0  0  0
   39.7720   26.9590  -15.0210 C   0  0  0  0  0  0  0  0  0  0  0  0
   39.0050   27.9240  -14.3760 C   0  0  0  0  0  0  0  0  0  0  0  0
   37.4900   28.4080  -15.0200 Cl  0  0  0  0  0  0  0  0  0  0  0  0
   39.4930   28.4840  -13.2030 C   0  0  0  0  0  0  0  0  0  0  0  0
   40.6800   28.1500  -12.6400 N   0  0  0  0  0  0  0  0  0  0  0  0
   47.3460   25.0340  -13.4870 H   0  0  0  0  0  0  0  0  0  0  0  0
   46.8650   23.4450  -13.6210 H   0  0  0  0  0  0  0  0  0  0  0  0
   46.7310   24.2350  -12.1610 H   0  0  0  0  0  0  0  0  0  0  0  0
   45.1733   24.6381  -14.6187 H   0  0  0  0  0  0  0  0  0  0  0  0
   44.5952   24.1781  -12.9619 H   0  0  0  0  0  0  0  0  0  0  0  0
   45.2052   26.3922  -12.1091 H   0  0  0  0  0  0  0  0  0  0  0  0
   45.8163   26.8520  -13.7592 H   0  0  0  0  0  0  0  0  0  0  0  0
   43.5960   26.9510  -14.5150 H   0  0  0  0  0  0  0  0  0  0  0  0
   41.6265   25.8246  -14.9598 H   0  0  0  0  0  0  0  0  0  0  0  0
   39.4152   26.4962  -15.9530 H   0  0  0  0  0  0  0  0  0  0  0  0
   38.8788   29.2453  -12.6997 H   0  0  0  0  0  0  0  0  0  0  0  0
  1  2  1  0
  2  3  1  0
  3  4  1  0
  4  5  1  0
  5  6  2  0
  5  7  1  0
  7  8  2  0
  8  9  1  0
  9 10  2  0
 10 11  1  0
 10 12  1  0
 12 13  2  0
 13  7  1  0
  1 14  1  0
  1 15  1  0
  1 16  1  0
  2 17  1  0
  2 18  1  0
  3 19  1  0
  3 20  1  0
  4 21  1  0
  8 22  1  0
  9 23  1  0
 12 24  1  0
M  CHG  1   1   1
M  END
>  <meeko>  (8) 
{"is_sidechain": [false], "free_energy": -5.607, "intermolecular_energy": -6.772, "internal_energy": -0.156}

$$$$
