rasagiline_out
     RDKit          3D

 27 28  0  0  0  0  0  0  0  0999 V2000
   37.9620   26.9390  -17.9100 C   0  0  0  0  0  0  0  0  0  0  0  0
   38.3220   27.1370  -16.7810 C   0  0  0  0  0  0  0  0  0  0  0  0
   38.7640   27.3780  -15.4010 C   0  0  0  0  0  0  0  0  0  0  0  0
   38.7380   26.1250  -14.6600 N   0  0  0  0  0  0  0  0  0  0  0  0
   39.6100   26.1530  -13.4900 C   0  0  2  0  0  0  0  0  0  0  0  0
   39.5540   27.4740  -12.6900 C   0  0  0  0  0  0  0  0  0  0  0  0
   40.9180   27.6170  -12.0000 C   0  0  0  0  0  0  0  0  0  0  0  0
   41.8120   26.9470  -12.9960 C   0  0  0  0  0  0  0  0  0  0  0  0
   43.1900   27.0400  -13.1010 C   0  0  0  0  0  0  0  0  0  0  0  0
   43.8300   26.2920  -14.0920 C   0  0  0  0  0  0  0  0  0  0  0  0
   43.0930   25.4600  -14.9500 C   0  0  0  0  0  0  0  0  0  0  0  0
   41.7060   25.3630  -14.8270 C   0  0  0  0  0  0  0  0  0  0  0  0
   41.0720   26.1190  -13.8510 C   0  0  0  0  0  0  0  0  0  0  0  0
   37.6324   26.7577  -18.9437 H   0  0  0  0  0  0  0  0  0  0  0  0
   39.7883   27.7791  -15.4083 H   0  0  0  0  0  0  0  0  0  0  0  0
   38.0910   28.1034  -14.9206 H   0  0  0  0  0  0  0  0  0  0  0  0
   39.0440   25.3730  -15.2770 H   0  0  0  0  0  0  0  0  0  0  0  0
   37.7840   25.9750  -14.3330 H   0  0  0  0  0  0  0  0  0  0  0  0
   39.2481   25.2797  -12.9275 H   0  0  0  0  0  0  0  0  0  0  0  0
   39.3789   28.3227  -13.3676 H   0  0  0  0  0  0  0  0  0  0  0  0
   38.7339   27.4634  -11.9570 H   0  0  0  0  0  0  0  0  0  0  0  0
   41.1906   28.6732  -11.8585 H   0  0  0  0  0  0  0  0  0  0  0  0
   40.9624   27.1868  -10.9886 H   0  0  0  0  0  0  0  0  0  0  0  0
   43.7654   27.6861  -12.4217 H   0  0  0  0  0  0  0  0  0  0  0  0
   44.9227   26.3554  -14.2014 H   0  0  0  0  0  0  0  0  0  0  0  0
   43.6133   24.8795  -15.7260 H   0  0  0  0  0  0  0  0  0  0  0  0
   41.1280   24.7017  -15.4893 H   0  0  0  0  0  0  0  0  0  0  0  0
  1  2  3  0
  2  3  1  0
  3  4  1  0
  4  5  1  0
  5  6  1  0
  6  7  1  0
  7  8  1  0
  8  9  2  0
  9 10  1  0
 10 11  2  0
 11 12  1  0
 12 13  2  0
 13  5  1  0
 13  8  1  0
  1 14  1  0
  3 15  1  0
  3 16  1  0
  4 17  1  0
  4 18  1  0
  5 19  1  1
  6 20  1  0
  6 21  1  0
  7 22  1  0
  7 23  1  0
  9 24  1  0
 10 25  1  0
 11 26  1  0
 12 27  1  0
M  CHG  1   4   1
M  END
>  <meeko>  (1) 
{"is_sidechain": [false], "free_energy": -7.729, "intermolecular_energy": -8.632, "internal_energy": -0.302}

$$$$
rasagiline_out
     RDKit          3D

 27 28  0  0  0  0  0  0  0  0999 V2000
   37.5660   29.0550  -14.8930 C   0  0  0  0  0  0  0  0  0  0  0  0
   38.0630   28.0460  -15.3150 C   0  0  0  0  0  0  0  0  0  0  0  0
   38.6710   26.8110  -15.8280 C   0  0  0  0  0  0  0  0  0  0  0  0
   40.1070   26.8430  -15.5880 N   0  0  0  0  0  0  0  0  0  0  0  0
   40.4500   26.4800  -14.2180 C   0  0  2  0  0  0  0  0  0  0  0  0
   40.2520   27.6190  -13.1920 C   0  0  0  0  0  0  0  0  0  0  0  0
   41.2460   27.3500  -12.0530 C   0  0  0  0  0  0  0  0  0  0  0  0
   42.3670   26.6980  -12.8010 C   0  0  0  0  0  0  0  0  0  0  0  0
   43.6760   26.5200  -12.3880 C   0  0  0  0  0  0  0  0  0  0  0  0
   44.5530   25.8460  -13.2400 C   0  0  0  0  0  0  0  0  0  0  0  0
   44.1120   25.3520  -14.4780 C   0  0  0  0  0  0  0  0  0  0  0  0
   42.7860   25.5250  -14.8790 C   0  0  0  0  0  0  0  0  0  0  0  0
   41.9220   26.2090  -14.0370 C   0  0  0  0  0  0  0  0  0  0  0  0
   37.1109   29.9789  -14.5066 H   0  0  0  0  0  0  0  0  0  0  0  0
   38.2320   25.9441  -15.3124 H   0  0  0  0  0  0  0  0  0  0  0  0
   38.4807   26.7290  -16.9083 H   0  0  0  0  0  0  0  0  0  0  0  0
   40.4490   27.7860  -15.7710 H   0  0  0  0  0  0  0  0  0  0  0  0
   40.5420   26.1610  -16.2090 H   0  0  0  0  0  0  0  0  0  0  0  0
   39.7919   25.6146  -14.0509 H   0  0  0  0  0  0  0  0  0  0  0  0
   40.4617   28.5928  -13.6586 H   0  0  0  0  0  0  0  0  0  0  0  0
   39.2168   27.6477  -12.8211 H   0  0  0  0  0  0  0  0  0  0  0  0
   41.5710   28.2840  -11.5713 H   0  0  0  0  0  0  0  0  0  0  0  0
   40.8388   26.7460  -11.2287 H   0  0  0  0  0  0  0  0  0  0  0  0
   44.0166   26.8998  -11.4135 H   0  0  0  0  0  0  0  0  0  0  0  0
   45.6007   25.7005  -12.9381 H   0  0  0  0  0  0  0  0  0  0  0  0
   44.8169   24.8244  -15.1373 H   0  0  0  0  0  0  0  0  0  0  0  0
   42.4340   25.1273  -15.8423 H   0  0  0  0  0  0  0  0  0  0  0  0
  1  2  3  0
  2  3  1  0
  3  4  1  0
  4  5  1  0
  5  6  1  0
  6  7  1  0
  7  8  1  0
  8  9  2  0
  9 10  1  0
 10 11  2  0
 11 12  1  0
 12 13  2  0
 13  5  1  0
 13  8  1  0
  1 14  1  0
  3 15  1  0
  3 16  1  0
  4 17  1  0
  4 18  1  0
  5 19  1  1
  6 20  1  0
  6 21  1  0
  7 22  1  0
  7 23  1  0
  9 24  1  0
 10 25  1  0
 11 26  1  0
 12 27  1  0
M  CHG  1   4   1
M  END
>  <meeko>  (2) 
{"is_sidechain": [false], "free_energy": -7.44, "intermolecular_energy": -8.834, "internal_energy": 0.223}

$$$$
rasagiline_out
     RDKit          3D

 27 28  0  0  0  0  0  0  0  0999 V2000
   45.0230   25.5780  -13.4170 C   0  0  0  0  0  0  0  0  0  0  0  0
   44.0520   25.3880  -14.0980 C   0  0  0  0  0  0  0  0  0  0  0  0
   42.8640   25.1590  -14.9310 C   0  0  0  0  0  0  0  0  0  0  0  0
   41.6650   25.3800  -14.1350 N   0  0  0  0  0  0  0  0  0  0  0  0
   41.3720   26.7960  -13.9500 C   0  0  2  0  0  0  0  0  0  0  0  0
   41.1190   27.2050  -12.4810 C   0  0  0  0  0  0  0  0  0  0  0  0
   40.1970   28.4320  -12.5290 C   0  0  0  0  0  0  0  0  0  0  0  0
   39.4030   28.1430  -13.7640 C   0  0  0  0  0  0  0  0  0  0  0  0
   38.2010   28.7090  -14.1540 C   0  0  0  0  0  0  0  0  0  0  0  0
   37.6510   28.3150  -15.3760 C   0  0  0  0  0  0  0  0  0  0  0  0
   38.3090   27.3800  -16.1900 C   0  0  0  0  0  0  0  0  0  0  0  0
   39.5280   26.8260  -15.7940 C   0  0  0  0  0  0  0  0  0  0  0  0
   40.0630   27.2080  -14.5730 C   0  0  0  0  0  0  0  0  0  0  0  0
   45.9122   25.7520  -12.7933 H   0  0  0  0  0  0  0  0  0  0  0  0
   42.8729   25.8556  -15.7823 H   0  0  0  0  0  0  0  0  0  0  0  0
   42.8713   24.1245  -15.3047 H   0  0  0  0  0  0  0  0  0  0  0  0
   41.7970   24.9510  -13.2190 H   0  0  0  0  0  0  0  0  0  0  0  0
   40.8790   24.9620  -14.6330 H   0  0  0  0  0  0  0  0  0  0  0  0
   42.2656   27.2619  -14.3909 H   0  0  0  0  0  0  0  0  0  0  0  0
   40.6319   26.3835  -11.9352 H   0  0  0  0  0  0  0  0  0  0  0  0
   42.0612   27.4325  -11.9610 H   0  0  0  0  0  0  0  0  0  0  0  0
   39.5533   28.4889  -11.6388 H   0  0  0  0  0  0  0  0  0  0  0  0
   40.7256   29.3966  -12.5446 H   0  0  0  0  0  0  0  0  0  0  0  0
   37.6928   29.4492  -13.5185 H   0  0  0  0  0  0  0  0  0  0  0  0
   36.6918   28.7421  -15.7039 H   0  0  0  0  0  0  0  0  0  0  0  0
   37.8603   27.0809  -17.1487 H   0  0  0  0  0  0  0  0  0  0  0  0
   40.0521   26.1028  -16.4361 H   0  0  0  0  0  0  0  0  0  0  0  0
  1  2  3  0
  2  3  1  0
  3  4  1  0
  4  5  1  0
  5  6  1  0
  6  7  1  0
  7  8  1  0
  8  9  2  0
  9 10  1  0
 10 11  2  0
 11 12  1  0
 12 13  2  0
 13  5  1  0
 13  8  1  0
  1 14  1  0
  3 15  1  0
  3 16  1  0
  4 17  1  0
  4 18  1  0
  5 19  1  6
  6 20  1  0
  6 21  1  0
  7 22  1  0
  7 23  1  0
  9 24  1  0
 10 25  1  0
 11 26  1  0
 12 27  1  0
M  CHG  1   4   1
M  END
>  <meeko>  (3) 
{"is_sidechain": [false], "free_energy": -6.999, "intermolecular_energy": -7.811, "internal_energy": -0.309}

$$$$
rasagiline_out
     RDKit          3D

 27 28  0  0  0  0  0  0  0  0999 V2000
   38.3330   28.4090  -14.9300 C   0  0  0  0  0  0  0  0  0  0  0  0
   39.0100   28.4780  -13.9400 C   0  0  0  0  0  0  0  0  0  0  0  0
   39.8390   28.5640  -12.7310 C   0  0  0  0  0  0  0  0  0  0  0  0
   40.5840   27.3230  -12.5670 N   0  0  0  0  0  0  0  0  0  0  0  0
   41.3090   26.9440  -13.7740 C   0  0  2  0  0  0  0  0  0  0  0  0
   40.8490   25.6060  -14.3960 C   0  0  0  0  0  0  0  0  0  0  0  0
   42.0640   25.0400  -15.1450 C   0  0  0  0  0  0  0  0  0  0  0  0
   43.1850   25.5540  -14.2980 C   0  0  0  0  0  0  0  0  0  0  0  0
   44.4980   25.1160  -14.2660 C   0  0  0  0  0  0  0  0  0  0  0  0
   45.3940   25.7720  -13.4180 C   0  0  0  0  0  0  0  0  0  0  0  0
   44.9730   26.8540  -12.6290 C   0  0  0  0  0  0  0  0  0  0  0  0
   43.6500   27.2960  -12.6780 C   0  0  0  0  0  0  0  0  0  0  0  0
   42.7590   26.6330  -13.5100 C   0  0  0  0  0  0  0  0  0  0  0  0
   37.7131   28.3458  -15.8365 H   0  0  0  0  0  0  0  0  0  0  0  0
   40.5422   29.4044  -12.8270 H   0  0  0  0  0  0  0  0  0  0  0  0
   39.1948   28.7250  -11.8540 H   0  0  0  0  0  0  0  0  0  0  0  0
   39.9290   26.5770  -12.3320 H   0  0  0  0  0  0  0  0  0  0  0  0
   41.2690   27.4660  -11.8240 H   0  0  0  0  0  0  0  0  0  0  0  0
   41.1288   27.8165  -14.4192 H   0  0  0  0  0  0  0  0  0  0  0  0
   40.5290   24.9092  -13.6073 H   0  0  0  0  0  0  0  0  0  0  0  0
   39.9941   25.7521  -15.0726 H   0  0  0  0  0  0  0  0  0  0  0  0
   42.0474   23.9404  -15.1695 H   0  0  0  0  0  0  0  0  0  0  0  0
   42.1226   25.3348  -16.2031 H   0  0  0  0  0  0  0  0  0  0  0  0
   44.8272   24.2735  -14.8919 H   0  0  0  0  0  0  0  0  0  0  0  0
   46.4406   25.4370  -13.3681 H   0  0  0  0  0  0  0  0  0  0  0  0
   45.6920   27.3579  -11.9664 H   0  0  0  0  0  0  0  0  0  0  0  0
   43.3207   28.1516  -12.0701 H   0  0  0  0  0  0  0  0  0  0  0  0
  1  2  3  0
  2  3  1  0
  3  4  1  0
  4  5  1  0
  5  6  1  0
  6  7  1  0
  7  8  1  0
  8  9  2  0
  9 10  1  0
 10 11  2  0
 11 12  1  0
 12 13  2  0
 13  5  1  0
 13  8  1  0
  1 14  1  0
  3 15  1  0
  3 16  1  0
  4 17  1  0
  4 18  1  0
  5 19  1  6
  6 20  1  0
  6 21  1  0
  7 22  1  0
  7 23  1  0
  9 24  1  0
 10 25  1  0
 11 26  1  0
 12 27  1  0
M  CHG  1   4   1
M  END
>  <meeko>  (4) 
{"is_sidechain": [false], "free_energy": -6.299, "intermolecular_energy": -7.152, "internal_energy": -0.185}

$$$$
rasagiline_out
     RDKit          3D

 27 28  0  0  0  0  0  0  0  0999 V2000
   45.5950   24.6620  -13.2670 C   0  0  0  0  0  0  0  0  0  0  0  0
   45.0030   25.6960  -13.4160 C   0  0  0  0  0  0  0  0  0  0  0  0
   44.2790   26.9610  -13.5950 C   0  0  0  0  0  0  0  0  0  0  0  0
   43.0800   26.9540  -12.7690 N   0  0  0  0  0  0  0  0  0  0  0  0
   41.9620   26.2780  -13.4180 C   0  0  2  0  0  0  0  0  0  0  0  0
   42.2300   25.8760  -14.8860 C   0  0  0  0  0  0  0  0  0  0  0  0
   40.8620   25.8490  -15.5820 C   0  0  0  0  0  0  0  0  0  0  0  0
   40.1390   26.9210  -14.8280 C   0  0  0  0  0  0  0  0  0  0  0  0
   38.9830   27.5880  -15.1970 C   0  0  0  0  0  0  0  0  0  0  0  0
   38.4560   28.5350  -14.3150 C   0  0  0  0  0  0  0  0  0  0  0  0
   39.0780   28.7920  -13.0830 C   0  0  0  0  0  0  0  0  0  0  0  0
   40.2360   28.1030  -12.7160 C   0  0  0  0  0  0  0  0  0  0  0  0
   40.7640   27.1750  -13.6000 C   0  0  0  0  0  0  0  0  0  0  0  0
   46.1373   23.7148  -13.1305 H   0  0  0  0  0  0  0  0  0  0  0  0
   44.9256   27.7992  -13.2960 H   0  0  0  0  0  0  0  0  0  0  0  0
   43.9960   27.0756  -14.6518 H   0  0  0  0  0  0  0  0  0  0  0  0
   42.8110   27.9180  -12.5750 H   0  0  0  0  0  0  0  0  0  0  0  0
   43.2950   26.4450  -11.9110 H   0  0  0  0  0  0  0  0  0  0  0  0
   41.8062   25.4210  -12.7462 H   0  0  0  0  0  0  0  0  0  0  0  0
   42.8884   26.6133  -15.3687 H   0  0  0  0  0  0  0  0  0  0  0  0
   42.7294   24.8978  -14.9478 H   0  0  0  0  0  0  0  0  0  0  0  0
   40.9473   26.0939  -16.6510 H   0  0  0  0  0  0  0  0  0  0  0  0
   40.3640   24.8683  -15.5670 H   0  0  0  0  0  0  0  0  0  0  0  0
   38.4926   27.3779  -16.1589 H   0  0  0  0  0  0  0  0  0  0  0  0
   37.5437   29.0852  -14.5890 H   0  0  0  0  0  0  0  0  0  0  0  0
   38.6500   29.5419  -12.4015 H   0  0  0  0  0  0  0  0  0  0  0  0
   40.7188   28.2927  -11.7460 H   0  0  0  0  0  0  0  0  0  0  0  0
  1  2  3  0
  2  3  1  0
  3  4  1  0
  4  5  1  0
  5  6  1  0
  6  7  1  0
  7  8  1  0
  8  9  2  0
  9 10  1  0
 10 11  2  0
 11 12  1  0
 12 13  2  0
 13  5  1  0
 13  8  1  0
  1 14  1  0
  3 15  1  0
  3 16  1  0
  4 17  1  0
  4 18  1  0
  5 19  1  1
  6 20  1  0
  6 21  1  0
  7 22  1  0
  7 23  1  0
  9 24  1  0
 10 25  1  0
 11 26  1  0
 12 27  1  0
M  CHG  1   4   1
M  END
>  <meeko>  (5) 
{"is_sidechain": [false], "free_energy": -6.132, "intermolecular_energy": -7.195, "internal_energy": 0.044}

$$$$
rasagiline_out
     RDKit          3D

 27 28  0  0  0  0  0  0  0  0999 V2000
   37.6050   28.9370  -14.9160 C   0  0  0  0  0  0  0  0  0  0  0  0
   38.0450   28.0490  -15.5940 C   0  0  0  0  0  0  0  0  0  0  0  0
   38.5820   26.9610  -16.4220 C   0  0  0  0  0  0  0  0  0  0  0  0
   39.4030   26.0860  -15.5970 N   0  0  0  0  0  0  0  0  0  0  0  0
   40.6400   26.7260  -15.1660 C   0  0  2  0  0  0  0  0  0  0  0  0
   41.9200   25.9390  -15.5270 C   0  0  0  0  0  0  0  0  0  0  0  0
   42.9720   26.3220  -14.4750 C   0  0  0  0  0  0  0  0  0  0  0  0
   42.1040   26.5620  -13.2800 C   0  0  0  0  0  0  0  0  0  0  0  0
   42.4850   26.6180  -11.9490 C   0  0  0  0  0  0  0  0  0  0  0  0
   41.5050   26.8940  -10.9920 C   0  0  0  0  0  0  0  0  0  0  0  0
   40.1730   27.1200  -11.3750 C   0  0  0  0  0  0  0  0  0  0  0  0
   39.8030   27.0740  -12.7200 C   0  0  0  0  0  0  0  0  0  0  0  0
   40.7750   26.7850  -13.6660 C   0  0  0  0  0  0  0  0  0  0  0  0
   37.2019   29.7505  -14.2949 H   0  0  0  0  0  0  0  0  0  0  0  0
   37.7510   26.3844  -16.8545 H   0  0  0  0  0  0  0  0  0  0  0  0
   39.1944   27.3835  -17.2322 H   0  0  0  0  0  0  0  0  0  0  0  0
   39.6370   25.2530  -16.1370 H   0  0  0  0  0  0  0  0  0  0  0  0
   38.8660   25.8510  -14.7620 H   0  0  0  0  0  0  0  0  0  0  0  0
   40.5654   27.7026  -15.6666 H   0  0  0  0  0  0  0  0  0  0  0  0
   41.7242   24.8571  -15.4936 H   0  0  0  0  0  0  0  0  0  0  0  0
   42.2645   26.1800  -16.5435 H   0  0  0  0  0  0  0  0  0  0  0  0
   43.6846   25.5027  -14.2990 H   0  0  0  0  0  0  0  0  0  0  0  0
   43.6047   27.1769  -14.7558 H   0  0  0  0  0  0  0  0  0  0  0  0
   43.5311   26.4497  -11.6536 H   0  0  0  0  0  0  0  0  0  0  0  0
   41.7797   26.9347   -9.9276 H   0  0  0  0  0  0  0  0  0  0  0  0
   39.4144   27.3352  -10.6081 H   0  0  0  0  0  0  0  0  0  0  0  0
   38.7626   27.2629  -13.0232 H   0  0  0  0  0  0  0  0  0  0  0  0
  1  2  3  0
  2  3  1  0
  3  4  1  0
  4  5  1  0
  5  6  1  0
  6  7  1  0
  7  8  1  0
  8  9  2  0
  9 10  1  0
 10 11  2  0
 11 12  1  0
 12 13  2  0
 13  5  1  0
 13  8  1  0
  1 14  1  0
  3 15  1  0
  3 16  1  0
  4 17  1  0
  4 18  1  0
  5 19  1  6
  6 20  1  0
  6 21  1  0
  7 22  1  0
  7 23  1  0
  9 24  1  0
 10 25  1  0
 11 26  1  0
 12 27  1  0
M  CHG  1   4   1
M  END
>  <meeko>  (6) 
{"is_sidechain": [false], "free_energy": -5.884, "intermolecular_energy": -6.543, "internal_energy": -0.332}

$$$$
rasagiline_out
     RDKit          3D

 27 28  0  0  0  0  0  0  0  0999 V2000
   46.2120   24.3510  -13.1310 C   0  0  0  0  0  0  0  0  0  0  0  0
   45.1940   24.6650  -13.6850 C   0  0  0  0  0  0  0  0  0  0  0  0
   43.9500   25.0480  -14.3650 C   0  0  0  0  0  0  0  0  0  0  0  0
   43.9510   26.4850  -14.6030 N   0  0  0  0  0  0  0  0  0  0  0  0
   43.0270   27.1940  -13.7260 C   0  0  2  0  0  0  0  0  0  0  0  0
   43.1160   26.7780  -12.2410 C   0  0  0  0  0  0  0  0  0  0  0  0
   41.7290   27.0420  -11.6360 C   0  0  0  0  0  0  0  0  0  0  0  0
   40.8500   26.7870  -12.8200 C   0  0  0  0  0  0  0  0  0  0  0  0
   39.4860   26.5460  -12.8300 C   0  0  0  0  0  0  0  0  0  0  0  0
   38.8550   26.3710  -14.0640 C   0  0  0  0  0  0  0  0  0  0  0  0
   39.5860   26.4500  -15.2600 C   0  0  0  0  0  0  0  0  0  0  0  0
   40.9580   26.7070  -15.2390 C   0  0  0  0  0  0  0  0  0  0  0  0
   41.5840   26.8650  -14.0110 C   0  0  0  0  0  0  0  0  0  0  0  0
   47.1446   24.0633  -12.6235 H   0  0  0  0  0  0  0  0  0  0  0  0
   43.8785   24.5170  -15.3257 H   0  0  0  0  0  0  0  0  0  0  0  0
   43.0894   24.7808  -13.7342 H   0  0  0  0  0  0  0  0  0  0  0  0
   43.6810   26.6570  -15.5710 H   0  0  0  0  0  0  0  0  0  0  0  0
   44.8910   26.8320  -14.4100 H   0  0  0  0  0  0  0  0  0  0  0  0
   43.3128   28.2403  -13.9094 H   0  0  0  0  0  0  0  0  0  0  0  0
   43.3707   25.7110  -12.1589 H   0  0  0  0  0  0  0  0  0  0  0  0
   43.8972   27.3446  -11.7130 H   0  0  0  0  0  0  0  0  0  0  0  0
   41.5086   26.3476  -10.8118 H   0  0  0  0  0  0  0  0  0  0  0  0
   41.6109   28.0402  -11.1892 H   0  0  0  0  0  0  0  0  0  0  0  0
   38.9149   26.4938  -11.8913 H   0  0  0  0  0  0  0  0  0  0  0  0
   37.7742   26.1692  -14.0989 H   0  0  0  0  0  0  0  0  0  0  0  0
   39.0729   26.3081  -16.2226 H   0  0  0  0  0  0  0  0  0  0  0  0
   41.5301   26.7826  -16.1755 H   0  0  0  0  0  0  0  0  0  0  0  0
  1  2  3  0
  2  3  1  0
  3  4  1  0
  4  5  1  0
  5  6  1  0
  6  7  1  0
  7  8  1  0
  8  9  2  0
  9 10  1  0
 10 11  2  0
 11 12  1  0
 12 13  2  0
 13  5  1  0
 13  8  1  0
  1 14  1  0
  3 15  1  0
  3 16  1  0
  4 17  1  0
  4 18  1  0
  5 19  1  1
  6 20  1  0
  6 21  1  0
  7 22  1  0
  7 23  1  0
  9 24  1  0
 10 25  1  0
 11 26  1  0
 12 27  1  0
M  CHG  1   4   1
M  END
>  <meeko>  (7) 
{"is_sidechain": [false], "free_energy": -5.851, "intermolecular_energy": -6.735, "internal_energy": -0.102}

$$$$
rasagiline_out
     RDKit          3D

 27 28  0  0  0  0  0  0  0  0999 V2000
   45.0720   24.6600  -13.8470 C   0  0  0  0  0  0  0  0  0  0  0  0
   44.3340   25.4950  -13.3980 C   0  0  0  0  0  0  0  0  0  0  0  0
   43.4310   26.5130  -12.8470 C   0  0  0  0  0  0  0  0  0  0  0  0
   42.0720   26.2480  -13.2960 N   0  0  0  0  0  0  0  0  0  0  0  0
   41.3110   27.4720  -13.5210 C   0  0  2  0  0  0  0  0  0  0  0  0
   40.4600   27.9210  -12.3120 C   0  0  0  0  0  0  0  0  0  0  0  0
   39.2790   28.7150  -12.8880 C   0  0  0  0  0  0  0  0  0  0  0  0
   39.0830   28.0220  -14.2000 C   0  0  0  0  0  0  0  0  0  0  0  0
   37.9740   28.0630  -15.0270 C   0  0  0  0  0  0  0  0  0  0  0  0
   38.0230   27.3630  -16.2350 C   0  0  0  0  0  0  0  0  0  0  0  0
   39.1730   26.6480  -16.6020 C   0  0  0  0  0  0  0  0  0  0  0  0
   40.2920   26.6240  -15.7670 C   0  0  0  0  0  0  0  0  0  0  0  0
   40.2340   27.3070  -14.5610 C   0  0  0  0  0  0  0  0  0  0  0  0
   45.7477   23.8955  -14.2581 H   0  0  0  0  0  0  0  0  0  0  0  0
   43.4675   26.4798  -11.7481 H   0  0  0  0  0  0  0  0  0  0  0  0
   43.7448   27.5087  -13.1935 H   0  0  0  0  0  0  0  0  0  0  0  0
   41.5950   25.6940  -12.5860 H   0  0  0  0  0  0  0  0  0  0  0  0
   42.1280   25.7490  -14.1840 H   0  0  0  0  0  0  0  0  0  0  0  0
   42.1108   28.1793  -13.7857 H   0  0  0  0  0  0  0  0  0  0  0  0
   40.0950   27.0445  -11.7565 H   0  0  0  0  0  0  0  0  0  0  0  0
   41.0496   28.5320  -11.6127 H   0  0  0  0  0  0  0  0  0  0  0  0
   38.3868   28.6322  -12.2500 H   0  0  0  0  0  0  0  0  0  0  0  0
   39.4562   29.7976  -12.9686 H   0  0  0  0  0  0  0  0  0  0  0  0
   37.0772   28.6320  -14.7405 H   0  0  0  0  0  0  0  0  0  0  0  0
   37.1509   27.3725  -16.9054 H   0  0  0  0  0  0  0  0  0  0  0  0
   39.1934   26.1013  -17.5563 H   0  0  0  0  0  0  0  0  0  0  0  0
   41.1996   26.0755  -16.0592 H   0  0  0  0  0  0  0  0  0  0  0  0
  1  2  3  0
  2  3  1  0
  3  4  1  0
  4  5  1  0
  5  6  1  0
  6  7  1  0
  7  8  1  0
  8  9  2  0
  9 10  1  0
 10 11  2  0
 11 12  1  0
 12 13  2  0
 13  5  1  0
 13  8  1  0
  1 14  1  0
  3 15  1  0
  3 16  1  0
  4 17  1  0
  4 18  1  0
  5 19  1  6
  6 20  1  0
  6 21  1  0
  7 22  1  0
  7 23  1  0
  9 24  1  0
 10 25  1  0
 11 26  1  0
 12 27  1  0
M  CHG  1   4   1
M  END
>  <meeko>  (8) 
{"is_sidechain": [false], "free_energy": -5.522, "intermolecular_energy": -6.305, "internal_energy": -0.165}

$$$$
rasagiline_out
     RDKit          3D

 27 28  0  0  0  0  0  0  0  0999 V2000
   43.4840   27.1370  -12.8980 C   0  0  0  0  0  0  0  0  0  0  0  0
   42.8280   26.4030  -13.5860 C   0  0  0  0  0  0  0  0  0  0  0  0
   42.0270   25.5050  -14.4280 C   0  0  0  0  0  0  0  0  0  0  0  0
   41.4890   26.2520  -15.5570 N   0  0  0  0  0  0  0  0  0  0  0  0
   40.0310   26.2610  -15.5730 C   0  0  2  0  0  0  0  0  0  0  0  0
   39.4150   26.5630  -16.9580 C   0  0  0  0  0  0  0  0  0  0  0  0
   38.0450   27.2020  -16.6900 C   0  0  0  0  0  0  0  0  0  0  0  0
   38.3120   27.9170  -15.4020 C   0  0  0  0  0  0  0  0  0  0  0  0
   37.5700   28.9330  -14.8230 C   0  0  0  0  0  0  0  0  0  0  0  0
   37.9860   29.4330  -13.5870 C   0  0  0  0  0  0  0  0  0  0  0  0
   39.1190   28.9080  -12.9460 C   0  0  0  0  0  0  0  0  0  0  0  0
   39.8520   27.8740  -13.5320 C   0  0  0  0  0  0  0  0  0  0  0  0
   39.4450   27.3910  -14.7670 C   0  0  0  0  0  0  0  0  0  0  0  0
   44.0848   27.8093  -12.2679 H   0  0  0  0  0  0  0  0  0  0  0  0
   42.6614   24.6863  -14.7985 H   0  0  0  0  0  0  0  0  0  0  0  0
   41.1994   25.0873  -13.8360 H   0  0  0  0  0  0  0  0  0  0  0  0
   41.8230   25.8250  -16.4200 H   0  0  0  0  0  0  0  0  0  0  0  0
   41.8050   27.2180  -15.4700 H   0  0  0  0  0  0  0  0  0  0  0  0
   39.8030   25.2527  -15.1971 H   0  0  0  0  0  0  0  0  0  0  0  0
   40.0573   27.2594  -17.5169 H   0  0  0  0  0  0  0  0  0  0  0  0
   39.3184   25.6480  -17.5608 H   0  0  0  0  0  0  0  0  0  0  0  0
   37.7621   27.9021  -17.4899 H   0  0  0  0  0  0  0  0  0  0  0  0
   37.2107   26.4863  -16.6475 H   0  0  0  0  0  0  0  0  0  0  0  0
   36.6768   29.3355  -15.3232 H   0  0  0  0  0  0  0  0  0  0  0  0
   37.4197   30.2469  -13.1108 H   0  0  0  0  0  0  0  0  0  0  0  0
   39.4323   29.3148  -11.9732 H   0  0  0  0  0  0  0  0  0  0  0  0
   40.7325   27.4519  -13.0256 H   0  0  0  0  0  0  0  0  0  0  0  0
  1  2  3  0
  2  3  1  0
  3  4  1  0
  4  5  1  0
  5  6  1  0
  6  7  1  0
  7  8  1  0
  8  9  2  0
  9 10  1  0
 10 11  2  0
 11 12  1  0
 12 13  2  0
 13  5  1  0
 13  8  1  0
  1 14  1  0
  3 15  1  0
  3 16  1  0
  4 17  1  0
  4 18  1  0
  5 19  1  1
  6 20  1  0
  6 21  1  0
  7 22  1  0
  7 23  1  0
  9 24  1  0
 10 25  1  0
 11 26  1  0
 12 27  1  0
M  CHG  1   4   1
M  END
>  <meeko>  (9) 
{"is_sidechain": [false], "free_energy": -4.887, "intermolecular_energy": -5.752, "internal_energy": -0.009}

$$$$
