cand_039_out
     RDKit          3D

 41 43  0  0  0  0  0  0  0  0999 V2000
   19.3170  -23.7750   39.8400 C   0  0  0  0  0  0  0  0  0  0  0  0
   19.0450  -24.8400   40.8930 C   0  0  0  0  0  0  0  0  0  0  0  0
   19.1510  -26.2360   40.3250 C   0  0  0  0  0  0  0  0  0  0  0  0
   18.3850  -26.5470   39.1880 C   0  0  0  0  0  0  0  0  0  0  0  0
   18.4390  -27.8150   38.6050 C   0  0  0  0  0  0  0  0  0  0  0  0
   19.2570  -28.8130   39.1410 C   0  0  0  0  0  0  0  0  0  0  0  0
   19.3180  -30.1430   38.4970 C   0  0  0  0  0  0  0  0  0  0  0  0
   18.9180  -31.1700   39.3430 O   0  0  0  0  0  0  0  0  0  0  0  0
   18.9260  -32.4590   38.8730 C   0  0  0  0  0  0  0  0  0  0  0  0
   18.5020  -33.4570   39.7500 C   0  0  0  0  0  0  0  0  0  0  0  0
   18.4880  -34.7900   39.3340 C   0  0  0  0  0  0  0  0  0  0  0  0
   18.8980  -35.1250   38.0410 C   0  0  0  0  0  0  0  0  0  0  0  0
   19.3200  -34.1270   37.1680 C   0  0  0  0  0  0  0  0  0  0  0  0
   19.7080  -34.5230   35.9180 O   0  0  0  0  0  0  0  0  0  0  0  0
   19.3330  -32.7920   37.5840 C   0  0  0  0  0  0  0  0  0  0  0  0
   19.7700  -31.7130   36.6980 C   0  0  0  0  0  0  0  0  0  0  0  0
   20.1520  -31.9280   35.5500 O   0  0  0  0  0  0  0  0  0  0  0  0
   19.7390  -30.3320   37.2330 C   0  0  0  0  0  0  0  0  0  0  0  0
   20.1670  -29.3220   36.3920 O   0  0  0  0  0  0  0  0  0  0  0  0
   20.0360  -28.4990   40.2640 C   0  0  0  0  0  0  0  0  0  0  0  0
   20.0000  -27.2240   40.8640 C   0  0  0  0  0  0  0  0  0  0  0  0
   20.8590  -26.9930   42.0870 C   0  0  0  0  0  0  0  0  0  0  0  0
   22.2380  -27.6200   41.9390 C   0  0  0  0  0  0  0  0  0  0  0  0
   19.5601  -22.8233   40.3353 H   0  0  0  0  0  0  0  0  0  0  0  0
   20.1640  -24.0883   39.2119 H   0  0  0  0  0  0  0  0  0  0  0  0
   18.4235  -23.6438   39.2119 H   0  0  0  0  0  0  0  0  0  0  0  0
   19.7775  -24.7307   41.7064 H   0  0  0  0  0  0  0  0  0  0  0  0
   18.0181  -24.6997   41.2615 H   0  0  0  0  0  0  0  0  0  0  0  0
   17.7316  -25.7782   38.7498 H   0  0  0  0  0  0  0  0  0  0  0  0
   17.8309  -28.0304   37.7141 H   0  0  0  0  0  0  0  0  0  0  0  0
   18.1790  -33.1945   40.7682 H   0  0  0  0  0  0  0  0  0  0  0  0
   18.1536  -35.5775   40.0254 H   0  0  0  0  0  0  0  0  0  0  0  0
   18.8872  -36.1752   37.7139 H   0  0  0  0  0  0  0  0  0  0  0  0
   20.3150  -34.0030   35.4290 H   0  0  0  0  0  0  0  0  0  0  0  0
   20.4840  -29.5290   35.5350 H   0  0  0  0  0  0  0  0  0  0  0  0
   20.6947  -29.2706   40.6893 H   0  0  0  0  0  0  0  0  0  0  0  0
   20.9754  -25.9100   42.2403 H   0  0  0  0  0  0  0  0  0  0  0  0
   20.3609  -27.4642   42.9472 H   0  0  0  0  0  0  0  0  0  0  0  0
   22.6620  -27.8128   42.9355 H   0  0  0  0  0  0  0  0  0  0  0  0
   22.1526  -28.5678   41.3873 H   0  0  0  0  0  0  0  0  0  0  0  0
   22.8960  -26.9326   41.3873 H   0  0  0  0  0  0  0  0  0  0  0  0
  1  2  1  0
  2  3  1  0
  3  4  2  0
  4  5  1  0
  5  6  2  0
  6  7  1  0
  7  8  1  0
  8  9  1  0
  9 10  2  0
 10 11  1  0
 11 12  2  0
 12 13  1  0
 13 14  1  0
 13 15  2  0
 15 16  1  0
 16 17  2  0
 16 18  1  0
 18 19  1  0
  6 20  1  0
 20 21  2  0
 21 22  1  0
 22 23  1  0
 21  3  1  0
 18  7  2  0
 15  9  1  0
  1 24  1  0
  1 25  1  0
  1 26  1  0
  2 27  1  0
  2 28  1  0
  4 29  1  0
  5 30  1  0
 10 31  1  0
 11 32  1  0
 12 33  1  0
 14 34  1  0
 19 35  1  0
 20 36  1  0
 22 37  1  0
 22 38  1  0
 23 39  1  0
 23 40  1  0
 23 41  1  0
M  END
>  <meeko>  (1) 
{"is_sidechain": [false], "free_energy": -7.953, "intermolecular_energy": -9.813, "internal_energy": -0.48}

$$$$
cand_039_out
     RDKit          3D

 41 43  0  0  0  0  0  0  0  0999 V2000
   20.0760  -32.9130   33.9160 C   0  0  0  0  0  0  0  0  0  0  0  0
   19.8230  -33.4010   35.3350 C   0  0  0  0  0  0  0  0  0  0  0  0
   19.6890  -32.2550   36.3110 C   0  0  0  0  0  0  0  0  0  0  0  0
   19.9270  -30.9530   35.8370 C   0  0  0  0  0  0  0  0  0  0  0  0
   19.8140  -29.8460   36.6810 C   0  0  0  0  0  0  0  0  0  0  0  0
   19.4630  -30.0050   38.0240 C   0  0  0  0  0  0  0  0  0  0  0  0
   19.3260  -28.8190   38.8970 C   0  0  0  0  0  0  0  0  0  0  0  0
   20.2150  -28.8310   39.9660 O   0  0  0  0  0  0  0  0  0  0  0  0
   20.1960  -27.7870   40.8560 C   0  0  0  0  0  0  0  0  0  0  0  0
   21.1150  -27.8320   41.9040 C   0  0  0  0  0  0  0  0  0  0  0  0
   21.1460  -26.8020   42.8480 C   0  0  0  0  0  0  0  0  0  0  0  0
   20.2600  -25.7280   42.7420 C   0  0  0  0  0  0  0  0  0  0  0  0
   19.3430  -25.6860   41.6940 C   0  0  0  0  0  0  0  0  0  0  0  0
   18.5050  -24.6070   41.6500 O   0  0  0  0  0  0  0  0  0  0  0  0
   19.3120  -26.7170   40.7500 C   0  0  0  0  0  0  0  0  0  0  0  0
   18.3660  -26.7120   39.6340 C   0  0  0  0  0  0  0  0  0  0  0  0
   17.5500  -25.8050   39.4780 O   0  0  0  0  0  0  0  0  0  0  0  0
   18.4200  -27.8470   38.6840 C   0  0  0  0  0  0  0  0  0  0  0  0
   17.5120  -27.8380   37.6420 O   0  0  0  0  0  0  0  0  0  0  0  0
   19.2060  -31.3010   38.4930 C   0  0  0  0  0  0  0  0  0  0  0  0
   19.3100  -32.4310   37.6560 C   0  0  0  0  0  0  0  0  0  0  0  0
   19.0370  -33.7880   38.2640 C   0  0  0  0  0  0  0  0  0  0  0  0
   18.5660  -33.6800   39.7070 C   0  0  0  0  0  0  0  0  0  0  0  0
   20.5821  -31.9369   33.9487 H   0  0  0  0  0  0  0  0  0  0  0  0
   20.7118  -33.6381   33.3868 H   0  0  0  0  0  0  0  0  0  0  0  0
   19.1171  -32.8113   33.3868 H   0  0  0  0  0  0  0  0  0  0  0  0
   18.8937  -33.9894   35.3481 H   0  0  0  0  0  0  0  0  0  0  0  0
   20.6843  -34.0118   35.6435 H   0  0  0  0  0  0  0  0  0  0  0  0
   20.2069  -30.8037   34.7837 H   0  0  0  0  0  0  0  0  0  0  0  0
   20.0034  -28.8378   36.2840 H   0  0  0  0  0  0  0  0  0  0  0  0
   21.8144  -28.6769   41.9874 H   0  0  0  0  0  0  0  0  0  0  0  0
   21.8695  -26.8374   43.6758 H   0  0  0  0  0  0  0  0  0  0  0  0
   20.2860  -24.9167   43.4844 H   0  0  0  0  0  0  0  0  0  0  0  0
   18.8540  -23.7390   41.7100 H   0  0  0  0  0  0  0  0  0  0  0  0
   17.7250  -28.2570   36.8310 H   0  0  0  0  0  0  0  0  0  0  0  0
   18.9147  -31.4404   39.5445 H   0  0  0  0  0  0  0  0  0  0  0  0
   18.2584  -34.2923   37.6728 H   0  0  0  0  0  0  0  0  0  0  0  0
   19.9762  -34.3606   38.2543 H   0  0  0  0  0  0  0  0  0  0  0  0
   19.4111  -33.8738   40.3840 H   0  0  0  0  0  0  0  0  0  0  0  0
   18.1740  -32.6687   39.8900 H   0  0  0  0  0  0  0  0  0  0  0  0
   17.7725  -34.4195   39.8900 H   0  0  0  0  0  0  0  0  0  0  0  0
  1  2  1  0
  2  3  1  0
  3  4  2  0
  4  5  1  0
  5  6  2  0
  6  7  1  0
  7  8  1  0
  8  9  1  0
  9 10  2  0
 10 11  1  0
 11 12  2  0
 12 13  1  0
 13 14  1  0
 13 15  2  0
 15 16  1  0
 16 17  2  0
 16 18  1  0
 18 19  1  0
  6 20  1  0
 20 21  2  0
 21 22  1  0
 22 23  1  0
 21  3  1  0
 18  7  2  0
 15  9  1  0
  1 24  1  0
  1 25  1  0
  1 26  1  0
  2 27  1  0
  2 28  1  0
  4 29  1  0
  5 30  1  0
 10 31  1  0
 11 32  1  0
 12 33  1  0
 14 34  1  0
 19 35  1  0
 20 36  1  0
 22 37  1  0
 22 38  1  0
 23 39  1  0
 23 40  1  0
 23 41  1  0
M  END
>  <meeko>  (2) 
{"is_sidechain": [false], "free_energy": -7.709, "intermolecular_energy": -9.519, "internal_energy": -0.473}

$$$$
cand_039_out
     RDKit          3D

 41 43  0  0  0  0  0  0  0  0999 V2000
   18.9200  -34.8920   36.9160 C   0  0  0  0  0  0  0  0  0  0  0  0
   19.6200  -33.7730   36.1570 C   0  0  0  0  0  0  0  0  0  0  0  0
   19.5300  -32.4530   36.8870 C   0  0  0  0  0  0  0  0  0  0  0  0
   19.0230  -32.4560   38.1980 C   0  0  0  0  0  0  0  0  0  0  0  0
   18.9190  -31.2740   38.9340 C   0  0  0  0  0  0  0  0  0  0  0  0
   19.3130  -30.0520   38.3830 C   0  0  0  0  0  0  0  0  0  0  0  0
   19.2150  -28.8140   39.1860 C   0  0  0  0  0  0  0  0  0  0  0  0
   20.1130  -28.7860   40.2450 O   0  0  0  0  0  0  0  0  0  0  0  0
   20.1290  -27.6920   41.0730 C   0  0  0  0  0  0  0  0  0  0  0  0
   21.0580  -27.6990   42.1140 C   0  0  0  0  0  0  0  0  0  0  0  0
   21.1250  -26.6160   42.9950 C   0  0  0  0  0  0  0  0  0  0  0  0
   20.2630  -25.5290   42.8340 C   0  0  0  0  0  0  0  0  0  0  0  0
   19.3380  -25.5250   41.7940 C   0  0  0  0  0  0  0  0  0  0  0  0
   18.5250  -24.4300   41.6940 O   0  0  0  0  0  0  0  0  0  0  0  0
   19.2720  -26.6080   40.9120 C   0  0  0  0  0  0  0  0  0  0  0  0
   18.3140  -26.6440   39.8070 C   0  0  0  0  0  0  0  0  0  0  0  0
   17.5180  -25.7290   39.6050 O   0  0  0  0  0  0  0  0  0  0  0  0
   18.3300  -27.8340   38.9250 C   0  0  0  0  0  0  0  0  0  0  0  0
   17.4120  -27.8630   37.8920 O   0  0  0  0  0  0  0  0  0  0  0  0
   19.8350  -30.0500   37.0820 C   0  0  0  0  0  0  0  0  0  0  0  0
   19.9540  -31.2330   36.3240 C   0  0  0  0  0  0  0  0  0  0  0  0
   20.5070  -31.1210   34.9210 C   0  0  0  0  0  0  0  0  0  0  0  0
   20.2230  -29.7580   34.3060 C   0  0  0  0  0  0  0  0  0  0  0  0
   19.0256  -34.7232   37.9978 H   0  0  0  0  0  0  0  0  0  0  0  0
   17.8529  -34.9043   36.6493 H   0  0  0  0  0  0  0  0  0  0  0  0
   19.3758  -35.8569   36.6493 H   0  0  0  0  0  0  0  0  0  0  0  0
   20.6802  -34.0380   36.0312 H   0  0  0  0  0  0  0  0  0  0  0  0
   19.1210  -33.6582   35.1834 H   0  0  0  0  0  0  0  0  0  0  0  0
   18.7028  -33.4055   38.6518 H   0  0  0  0  0  0  0  0  0  0  0  0
   18.5223  -31.3053   39.9595 H   0  0  0  0  0  0  0  0  0  0  0  0
   21.7365  -28.5554   42.2411 H   0  0  0  0  0  0  0  0  0  0  0  0
   21.8573  -26.6198   43.8158 H   0  0  0  0  0  0  0  0  0  0  0  0
   20.3150  -24.6772   43.5281 H   0  0  0  0  0  0  0  0  0  0  0  0
   17.7790  -24.3470   42.2550 H   0  0  0  0  0  0  0  0  0  0  0  0
   17.2590  -27.0950   37.3780 H   0  0  0  0  0  0  0  0  0  0  0  0
   20.1614  -29.0974   36.6393 H   0  0  0  0  0  0  0  0  0  0  0  0
   21.5955  -31.2762   34.9544 H   0  0  0  0  0  0  0  0  0  0  0  0
   20.0164  -31.8844   34.2993 H   0  0  0  0  0  0  0  0  0  0  0  0
   20.0691  -29.0194   35.1065 H   0  0  0  0  0  0  0  0  0  0  0  0
   21.0766  -29.4516   33.6835 H   0  0  0  0  0  0  0  0  0  0  0  0
   19.3181  -29.8180   33.6835 H   0  0  0  0  0  0  0  0  0  0  0  0
  1  2  1  0
  2  3  1  0
  3  4  2  0
  4  5  1  0
  5  6  2  0
  6  7  1  0
  7  8  1  0
  8  9  1  0
  9 10  2  0
 10 11  1  0
 11 12  2  0
 12 13  1  0
 13 14  1  0
 13 15  2  0
 15 16  1  0
 16 17  2  0
 16 18  1  0
 18 19  1  0
  6 20  1  0
 20 21  2  0
 21 22  1  0
 22 23  1  0
 21  3  1  0
 18  7  2  0
 15  9  1  0
  1 24  1  0
  1 25  1  0
  1 26  1  0
  2 27  1  0
  2 28  1  0
  4 29  1  0
  5 30  1  0
 10 31  1  0
 11 32  1  0
 12 33  1  0
 14 34  1  0
 19 35  1  0
 20 36  1  0
 22 37  1  0
 22 38  1  0
 23 39  1  0
 23 40  1  0
 23 41  1  0
M  END
>  <meeko>  (3) 
{"is_sidechain": [false], "free_energy": -7.582, "intermolecular_energy": -9.274, "internal_energy": -0.561}

$$$$
cand_039_out
     RDKit          3D

 41 43  0  0  0  0  0  0  0  0999 V2000
   19.6250  -24.9970   42.4800 C   0  0  0  0  0  0  0  0  0  0  0  0
   19.4310  -24.8180   40.9810 C   0  0  0  0  0  0  0  0  0  0  0  0
   19.3840  -26.1430   40.2560 C   0  0  0  0  0  0  0  0  0  0  0  0
   20.0510  -27.2370   40.8340 C   0  0  0  0  0  0  0  0  0  0  0  0
   20.0430  -28.4930   40.2230 C   0  0  0  0  0  0  0  0  0  0  0  0
   19.3730  -28.6940   39.0140 C   0  0  0  0  0  0  0  0  0  0  0  0
   19.3570  -30.0360   38.3930 C   0  0  0  0  0  0  0  0  0  0  0  0
   18.9770  -31.0360   39.2800 O   0  0  0  0  0  0  0  0  0  0  0  0
   18.9210  -32.3320   38.8330 C   0  0  0  0  0  0  0  0  0  0  0  0
   18.5190  -33.3020   39.7530 C   0  0  0  0  0  0  0  0  0  0  0  0
   18.4420  -34.6410   39.3630 C   0  0  0  0  0  0  0  0  0  0  0  0
   18.7670  -35.0100   38.0560 C   0  0  0  0  0  0  0  0  0  0  0  0
   19.1670  -34.0400   37.1410 C   0  0  0  0  0  0  0  0  0  0  0  0
   19.4700  -34.4700   35.8780 O   0  0  0  0  0  0  0  0  0  0  0  0
   19.2430  -32.7000   37.5300 C   0  0  0  0  0  0  0  0  0  0  0  0
   19.6590  -31.6500   36.6000 C   0  0  0  0  0  0  0  0  0  0  0  0
   19.9670  -31.8960   35.4360 O   0  0  0  0  0  0  0  0  0  0  0  0
   19.6990  -30.2590   37.1100 C   0  0  0  0  0  0  0  0  0  0  0  0
   20.1060  -29.2770   36.2270 O   0  0  0  0  0  0  0  0  0  0  0  0
   18.6920  -27.6090   38.4450 C   0  0  0  0  0  0  0  0  0  0  0  0
   18.6830  -26.3340   39.0490 C   0  0  0  0  0  0  0  0  0  0  0  0
   17.9400  -25.2220   38.3430 C   0  0  0  0  0  0  0  0  0  0  0  0
   18.8300  -24.4840   37.3540 C   0  0  0  0  0  0  0  0  0  0  0  0
   18.9211  -24.3475   43.0210 H   0  0  0  0  0  0  0  0  0  0  0  0
   19.4380  -26.0465   42.7512 H   0  0  0  0  0  0  0  0  0  0  0  0
   20.6561  -24.7263   42.7512 H   0  0  0  0  0  0  0  0  0  0  0  0
   18.4857  -24.2834   40.8062 H   0  0  0  0  0  0  0  0  0  0  0  0
   20.2874  -24.2473   40.5925 H   0  0  0  0  0  0  0  0  0  0  0  0
   20.5886  -27.1016   41.7841 H   0  0  0  0  0  0  0  0  0  0  0  0
   20.5701  -29.3330   40.6991 H   0  0  0  0  0  0  0  0  0  0  0  0
   18.2634  -33.0124   40.7829 H   0  0  0  0  0  0  0  0  0  0  0  0
   18.1248  -35.4062   40.0867 H   0  0  0  0  0  0  0  0  0  0  0  0
   18.7071  -36.0649   37.7501 H   0  0  0  0  0  0  0  0  0  0  0  0
   19.5330  -35.3870   35.6980 H   0  0  0  0  0  0  0  0  0  0  0  0
   20.1370  -29.4570   35.3080 H   0  0  0  0  0  0  0  0  0  0  0  0
   18.1487  -27.7559   37.4999 H   0  0  0  0  0  0  0  0  0  0  0  0
   17.0863  -25.6535   37.7999 H   0  0  0  0  0  0  0  0  0  0  0  0
   17.6032  -24.5011   39.1025 H   0  0  0  0  0  0  0  0  0  0  0  0
   19.5634  -23.8758   37.9038 H   0  0  0  0  0  0  0  0  0  0  0  0
   19.3583  -25.2127   36.7216 H   0  0  0  0  0  0  0  0  0  0  0  0
   18.2117  -23.8299   36.7216 H   0  0  0  0  0  0  0  0  0  0  0  0
  1  2  1  0
  2  3  1  0
  3  4  2  0
  4  5  1  0
  5  6  2  0
  6  7  1  0
  7  8  1  0
  8  9  1  0
  9 10  2  0
 10 11  1  0
 11 12  2  0
 12 13  1  0
 13 14  1  0
 13 15  2  0
 15 16  1  0
 16 17  2  0
 16 18  1  0
 18 19  1  0
  6 20  1  0
 20 21  2  0
 21 22  1  0
 22 23  1  0
 21  3  1  0
 18  7  2  0
 15  9  1  0
  1 24  1  0
  1 25  1  0
  1 26  1  0
  2 27  1  0
  2 28  1  0
  4 29  1  0
  5 30  1  0
 10 31  1  0
 11 32  1  0
 12 33  1  0
 14 34  1  0
 19 35  1  0
 20 36  1  0
 22 37  1  0
 22 38  1  0
 23 39  1  0
 23 40  1  0
 23 41  1  0
M  END
>  <meeko>  (4) 
{"is_sidechain": [false], "free_energy": -7.226, "intermolecular_energy": -8.986, "internal_energy": -0.409}

$$$$
cand_039_out
     RDKit          3D

 41 43  0  0  0  0  0  0  0  0999 V2000
   19.6450  -23.7920   40.9020 C   0  0  0  0  0  0  0  0  0  0  0  0
   18.9430  -25.0070   41.4890 C   0  0  0  0  0  0  0  0  0  0  0  0
   19.1400  -26.2400   40.6380 C   0  0  0  0  0  0  0  0  0  0  0  0
   18.4080  -26.3420   39.4430 C   0  0  0  0  0  0  0  0  0  0  0  0
   18.5460  -27.4500   38.6030 C   0  0  0  0  0  0  0  0  0  0  0  0
   19.4180  -28.4910   38.9340 C   0  0  0  0  0  0  0  0  0  0  0  0
   19.5670  -29.6460   38.0220 C   0  0  0  0  0  0  0  0  0  0  0  0
   19.8640  -29.2680   36.7180 O   0  0  0  0  0  0  0  0  0  0  0  0
   20.0290  -30.2420   35.7660 C   0  0  0  0  0  0  0  0  0  0  0  0
   20.3420  -29.8190   34.4740 C   0  0  0  0  0  0  0  0  0  0  0  0
   20.5210  -30.7610   33.4570 C   0  0  0  0  0  0  0  0  0  0  0  0
   20.3880  -32.1230   33.7330 C   0  0  0  0  0  0  0  0  0  0  0  0
   20.0760  -32.5420   35.0230 C   0  0  0  0  0  0  0  0  0  0  0  0
   19.9600  -33.8900   35.2240 O   0  0  0  0  0  0  0  0  0  0  0  0
   19.8970  -31.6000   36.0410 C   0  0  0  0  0  0  0  0  0  0  0  0
   19.5680  -31.9980   37.4100 C   0  0  0  0  0  0  0  0  0  0  0  0
   19.4270  -33.1770   37.7290 O   0  0  0  0  0  0  0  0  0  0  0  0
   19.4070  -30.9230   38.4160 C   0  0  0  0  0  0  0  0  0  0  0  0
   19.0840  -31.3100   39.7030 O   0  0  0  0  0  0  0  0  0  0  0  0
   20.1620  -28.3830   40.1170 C   0  0  0  0  0  0  0  0  0  0  0  0
   20.0410  -27.2700   40.9740 C   0  0  0  0  0  0  0  0  0  0  0  0
   20.8700  -27.2590   42.2390 C   0  0  0  0  0  0  0  0  0  0  0  0
   22.3170  -27.6510   41.9730 C   0  0  0  0  0  0  0  0  0  0  0  0
   20.0144  -23.1526   41.7173 H   0  0  0  0  0  0  0  0  0  0  0  0
   20.4918  -24.1217   40.2821 H   0  0  0  0  0  0  0  0  0  0  0  0
   18.9364  -23.2231   40.2821 H   0  0  0  0  0  0  0  0  0  0  0  0
   19.3477  -25.2003   42.4934 H   0  0  0  0  0  0  0  0  0  0  0  0
   17.8653  -24.7904   41.5294 H   0  0  0  0  0  0  0  0  0  0  0  0
   17.7141  -25.5354   39.1639 H   0  0  0  0  0  0  0  0  0  0  0  0
   17.9626  -27.5036   37.6720 H   0  0  0  0  0  0  0  0  0  0  0  0
   20.4477  -28.7460   34.2560 H   0  0  0  0  0  0  0  0  0  0  0  0
   20.7670  -30.4287   32.4377 H   0  0  0  0  0  0  0  0  0  0  0  0
   20.5296  -32.8638   32.9322 H   0  0  0  0  0  0  0  0  0  0  0  0
   20.4020  -34.4880   34.6540 H   0  0  0  0  0  0  0  0  0  0  0  0
   18.9270  -32.2130   39.8960 H   0  0  0  0  0  0  0  0  0  0  0  0
   20.8603  -29.1897   40.3844 H   0  0  0  0  0  0  0  0  0  0  0  0
   20.8491  -26.2468   42.6691 H   0  0  0  0  0  0  0  0  0  0  0  0
   20.4400  -27.9945   42.9348 H   0  0  0  0  0  0  0  0  0  0  0  0
   22.8403  -27.7928   42.9301 H   0  0  0  0  0  0  0  0  0  0  0  0
   22.3432  -28.5886   41.3984 H   0  0  0  0  0  0  0  0  0  0  0  0
   22.8129  -26.8548   41.3984 H   0  0  0  0  0  0  0  0  0  0  0  0
  1  2  1  0
  2  3  1  0
  3  4  2  0
  4  5  1  0
  5  6  2  0
  6  7  1  0
  7  8  1  0
  8  9  1  0
  9 10  2  0
 10 11  1  0
 11 12  2  0
 12 13  1  0
 13 14  1  0
 13 15  2  0
 15 16  1  0
 16 17  2  0
 16 18  1  0
 18 19  1  0
  6 20  1  0
 20 21  2  0
 21 22  1  0
 22 23  1  0
 21  3  1  0
 18  7  2  0
 15  9  1  0
  1 24  1  0
  1 25  1  0
  1 26  1  0
  2 27  1  0
  2 28  1  0
  4 29  1  0
  5 30  1  0
 10 31  1  0
 11 32  1  0
 12 33  1  0
 14 34  1  0
 19 35  1  0
 20 36  1  0
 22 37  1  0
 22 38  1  0
 23 39  1  0
 23 40  1  0
 23 41  1  0
M  END
>  <meeko>  (5) 
{"is_sidechain": [false], "free_energy": -7.21, "intermolecular_energy": -8.904, "internal_energy": -0.472}

$$$$
cand_039_out
     RDKit          3D

 41 43  0  0  0  0  0  0  0  0999 V2000
   18.7220  -27.5800   35.2840 C   0  0  0  0  0  0  0  0  0  0  0  0
   17.9040  -27.2040   36.5110 C   0  0  0  0  0  0  0  0  0  0  0  0
   18.7530  -27.1460   37.7600 C   0  0  0  0  0  0  0  0  0  0  0  0
   18.9180  -28.3290   38.5020 C   0  0  0  0  0  0  0  0  0  0  0  0
   19.6960  -28.3520   39.6620 C   0  0  0  0  0  0  0  0  0  0  0  0
   20.3290  -27.1930   40.1190 C   0  0  0  0  0  0  0  0  0  0  0  0
   21.1650  -27.2410   41.3380 C   0  0  0  0  0  0  0  0  0  0  0  0
   22.1350  -28.2350   41.2870 O   0  0  0  0  0  0  0  0  0  0  0  0
   22.9820  -28.3910   42.3550 C   0  0  0  0  0  0  0  0  0  0  0  0
   23.9500  -29.3900   42.2550 C   0  0  0  0  0  0  0  0  0  0  0  0
   24.8430  -29.6020   43.3080 C   0  0  0  0  0  0  0  0  0  0  0  0
   24.7680  -28.8160   44.4600 C   0  0  0  0  0  0  0  0  0  0  0  0
   23.8000  -27.8190   44.5560 C   0  0  0  0  0  0  0  0  0  0  0  0
   23.7820  -27.0860   45.7110 O   0  0  0  0  0  0  0  0  0  0  0  0
   22.9070  -27.6060   43.5020 C   0  0  0  0  0  0  0  0  0  0  0  0
   21.8760  -26.5700   43.5630 C   0  0  0  0  0  0  0  0  0  0  0  0
   21.7420  -25.8430   44.5450 O   0  0  0  0  0  0  0  0  0  0  0  0
   20.9850  -26.4200   42.3890 C   0  0  0  0  0  0  0  0  0  0  0  0
   20.0060  -25.4470   42.4640 O   0  0  0  0  0  0  0  0  0  0  0  0
   20.1800  -26.0170   39.3710 C   0  0  0  0  0  0  0  0  0  0  0  0
   19.4040  -25.9750   38.1940 C   0  0  0  0  0  0  0  0  0  0  0  0
   19.2860  -24.6510   37.4720 C   0  0  0  0  0  0  0  0  0  0  0  0
   19.2550  -23.4770   38.4410 C   0  0  0  0  0  0  0  0  0  0  0  0
   19.6788  -28.0198   35.6019 H   0  0  0  0  0  0  0  0  0  0  0  0
   18.1641  -28.3120   34.6816 H   0  0  0  0  0  0  0  0  0  0  0  0
   18.9143  -26.6799   34.6816 H   0  0  0  0  0  0  0  0  0  0  0  0
   17.4479  -26.2168   36.3452 H   0  0  0  0  0  0  0  0  0  0  0  0
   17.1354  -27.9772   36.6576 H   0  0  0  0  0  0  0  0  0  0  0  0
   18.4258  -29.2525   38.1631 H   0  0  0  0  0  0  0  0  0  0  0  0
   19.8115  -29.2920   40.2214 H   0  0  0  0  0  0  0  0  0  0  0  0
   24.0102  -30.0100   41.3484 H   0  0  0  0  0  0  0  0  0  0  0  0
   25.6069  -30.3896   43.2297 H   0  0  0  0  0  0  0  0  0  0  0  0
   25.4712  -28.9838   45.2890 H   0  0  0  0  0  0  0  0  0  0  0  0
   23.3420  -27.4170   46.4690 H   0  0  0  0  0  0  0  0  0  0  0  0
   20.1340  -24.6940   43.0070 H   0  0  0  0  0  0  0  0  0  0  0  0
   20.6830  -25.1001   39.7119 H   0  0  0  0  0  0  0  0  0  0  0  0
   20.1487  -24.5345   36.7995 H   0  0  0  0  0  0  0  0  0  0  0  0
   18.3414  -24.6530   36.9083 H   0  0  0  0  0  0  0  0  0  0  0  0
   19.2650  -23.8541   39.4743 H   0  0  0  0  0  0  0  0  0  0  0  0
   20.1367  -22.8407   38.2744 H   0  0  0  0  0  0  0  0  0  0  0  0
   18.3410  -22.8881   38.2744 H   0  0  0  0  0  0  0  0  0  0  0  0
  1  2  1  0
  2  3  1  0
  3  4  2  0
  4  5  1  0
  5  6  2  0
  6  7  1  0
  7  8  1  0
  8  9  1  0
  9 10  2  0
 10 11  1  0
 11 12  2  0
 12 13  1  0
 13 14  1  0
 13 15  2  0
 15 16  1  0
 16 17  2  0
 16 18  1  0
 18 19  1  0
  6 20  1  0
 20 21  2  0
 21 22  1  0
 22 23  1  0
 21  3  1  0
 18  7  2  0
 15  9  1  0
  1 24  1  0
  1 25  1  0
  1 26  1  0
  2 27  1  0
  2 28  1  0
  4 29  1  0
  5 30  1  0
 10 31  1  0
 11 32  1  0
 12 33  1  0
 14 34  1  0
 19 35  1  0
 20 36  1  0
 22 37  1  0
 22 38  1  0
 23 39  1  0
 23 40  1  0
 23 41  1  0
M  END
>  <meeko>  (6) 
{"is_sidechain": [false], "free_energy": -7.065, "intermolecular_energy": -8.751, "internal_energy": -0.446}

$$$$
cand_039_out
     RDKit          3D

 41 43  0  0  0  0  0  0  0  0999 V2000
   25.2360  -30.0980   44.0090 C   0  0  0  0  0  0  0  0  0  0  0  0
   24.6300  -28.8150   44.5600 C   0  0  0  0  0  0  0  0  0  0  0  0
   23.6000  -28.2290   43.6230 C   0  0  0  0  0  0  0  0  0  0  0  0
   23.5330  -28.7370   42.3140 C   0  0  0  0  0  0  0  0  0  0  0  0
   22.6010  -28.2480   41.3960 C   0  0  0  0  0  0  0  0  0  0  0  0
   21.7090  -27.2330   41.7560 C   0  0  0  0  0  0  0  0  0  0  0  0
   20.7140  -26.7430   40.7780 C   0  0  0  0  0  0  0  0  0  0  0  0
   20.5980  -25.3580   40.7750 O   0  0  0  0  0  0  0  0  0  0  0  0
   19.7080  -24.7690   39.9130 C   0  0  0  0  0  0  0  0  0  0  0  0
   19.6350  -23.3760   39.9320 C   0  0  0  0  0  0  0  0  0  0  0  0
   18.7480  -22.7140   39.0800 C   0  0  0  0  0  0  0  0  0  0  0  0
   17.9350  -23.4440   38.2110 C   0  0  0  0  0  0  0  0  0  0  0  0
   18.0100  -24.8330   38.1940 C   0  0  0  0  0  0  0  0  0  0  0  0
   17.1860  -25.4860   37.3190 O   0  0  0  0  0  0  0  0  0  0  0  0
   18.8990  -25.4970   39.0450 C   0  0  0  0  0  0  0  0  0  0  0  0
   19.0090  -26.9560   39.0590 C   0  0  0  0  0  0  0  0  0  0  0  0
   18.3220  -27.6670   38.3290 O   0  0  0  0  0  0  0  0  0  0  0  0
   19.9870  -27.5600   39.9940 C   0  0  0  0  0  0  0  0  0  0  0  0
   20.0720  -28.9400   40.0080 O   0  0  0  0  0  0  0  0  0  0  0  0
   21.7630  -26.7380   43.0670 C   0  0  0  0  0  0  0  0  0  0  0  0
   22.6930  -27.2230   44.0090 C   0  0  0  0  0  0  0  0  0  0  0  0
   22.6860  -26.6060   45.3900 C   0  0  0  0  0  0  0  0  0  0  0  0
   22.0870  -25.2070   45.3840 C   0  0  0  0  0  0  0  0  0  0  0  0
   25.5423  -30.7465   44.8430 H   0  0  0  0  0  0  0  0  0  0  0  0
   24.4897  -30.6209   43.3929 H   0  0  0  0  0  0  0  0  0  0  0  0
   26.1139  -29.8537   43.3929 H   0  0  0  0  0  0  0  0  0  0  0  0
   24.1488  -29.0349   45.5244 H   0  0  0  0  0  0  0  0  0  0  0  0
   25.4396  -28.0798   44.6784 H   0  0  0  0  0  0  0  0  0  0  0  0
   24.2268  -29.5336   42.0074 H   0  0  0  0  0  0  0  0  0  0  0  0
   22.5682  -28.6657   40.3789 H   0  0  0  0  0  0  0  0  0  0  0  0
   20.2748  -22.8000   40.6167 H   0  0  0  0  0  0  0  0  0  0  0  0
   18.6899  -21.6156   39.0937 H   0  0  0  0  0  0  0  0  0  0  0  0
   17.2363  -22.9218   37.5409 H   0  0  0  0  0  0  0  0  0  0  0  0
   16.6130  -26.1600   37.6280 H   0  0  0  0  0  0  0  0  0  0  0  0
   19.4300  -29.4540   39.5600 H   0  0  0  0  0  0  0  0  0  0  0  0
   21.0593  -25.9484   43.3691 H   0  0  0  0  0  0  0  0  0  0  0  0
   22.0926  -27.2440   46.0614 H   0  0  0  0  0  0  0  0  0  0  0  0
   23.7280  -26.5290   45.7340 H   0  0  0  0  0  0  0  0  0  0  0  0
   21.9411  -24.8662   46.4196 H   0  0  0  0  0  0  0  0  0  0  0  0
   22.7691  -24.5183   44.8640 H   0  0  0  0  0  0  0  0  0  0  0  0
   21.1178  -25.2253   44.8640 H   0  0  0  0  0  0  0  0  0  0  0  0
  1  2  1  0
  2  3  1  0
  3  4  2  0
  4  5  1  0
  5  6  2  0
  6  7  1  0
  7  8  1  0
  8  9  1  0
  9 10  2  0
 10 11  1  0
 11 12  2  0
 12 13  1  0
 13 14  1  0
 13 15  2  0
 15 16  1  0
 16 17  2  0
 16 18  1  0
 18 19  1  0
  6 20  1  0
 20 21  2  0
 21 22  1  0
 22 23  1  0
 21  3  1  0
 18  7  2  0
 15  9  1  0
  1 24  1  0
  1 25  1  0
  1 26  1  0
  2 27  1  0
  2 28  1  0
  4 29  1  0
  5 30  1  0
 10 31  1  0
 11 32  1  0
 12 33  1  0
 14 34  1  0
 19 35  1  0
 20 36  1  0
 22 37  1  0
 22 38  1  0
 23 39  1  0
 23 40  1  0
 23 41  1  0
M  END
>  <meeko>  (7) 
{"is_sidechain": [false], "free_energy": -6.982, "intermolecular_energy": -8.828, "internal_energy": -0.266}

$$$$
cand_039_out
     RDKit          3D

 41 43  0  0  0  0  0  0  0  0999 V2000
   20.7540  -34.6950   33.0080 C   0  0  0  0  0  0  0  0  0  0  0  0
   20.0070  -34.7420   34.3330 C   0  0  0  0  0  0  0  0  0  0  0  0
   19.9260  -33.3810   34.9840 C   0  0  0  0  0  0  0  0  0  0  0  0
   20.3920  -32.2720   34.2570 C   0  0  0  0  0  0  0  0  0  0  0  0
   20.3400  -30.9830   34.7940 C   0  0  0  0  0  0  0  0  0  0  0  0
   19.8260  -30.7630   36.0740 C   0  0  0  0  0  0  0  0  0  0  0  0
   19.7600  -29.3890   36.6170 C   0  0  0  0  0  0  0  0  0  0  0  0
   19.9140  -29.3470   37.9980 O   0  0  0  0  0  0  0  0  0  0  0  0
   19.8730  -28.1320   38.6330 C   0  0  0  0  0  0  0  0  0  0  0  0
   20.0480  -28.1340   40.0170 C   0  0  0  0  0  0  0  0  0  0  0  0
   20.0150  -26.9300   40.7260 C   0  0  0  0  0  0  0  0  0  0  0  0
   19.8080  -25.7260   40.0500 C   0  0  0  0  0  0  0  0  0  0  0  0
   19.6340  -25.7270   38.6690 C   0  0  0  0  0  0  0  0  0  0  0  0
   19.4350  -24.5130   38.0710 O   0  0  0  0  0  0  0  0  0  0  0  0
   19.6680  -26.9310   37.9600 C   0  0  0  0  0  0  0  0  0  0  0  0
   19.4890  -26.9760   36.5090 C   0  0  0  0  0  0  0  0  0  0  0  0
   19.2950  -25.9600   35.8450 O   0  0  0  0  0  0  0  0  0  0  0  0
   19.5500  -28.3030   35.8510 C   0  0  0  0  0  0  0  0  0  0  0  0
   19.3660  -28.3350   34.4820 O   0  0  0  0  0  0  0  0  0  0  0  0
   19.3440  -31.8660   36.7940 C   0  0  0  0  0  0  0  0  0  0  0  0
   19.3820  -33.1730   36.2670 C   0  0  0  0  0  0  0  0  0  0  0  0
   18.8600  -34.2990   37.1330 C   0  0  0  0  0  0  0  0  0  0  0  0
   19.3100  -34.1580   38.5800 C   0  0  0  0  0  0  0  0  0  0  0  0
   21.8352  -34.6270   33.1988 H   0  0  0  0  0  0  0  0  0  0  0  0
   20.5398  -35.6084   32.4337 H   0  0  0  0  0  0  0  0  0  0  0  0
   20.4270  -33.8157   32.4337 H   0  0  0  0  0  0  0  0  0  0  0  0
   18.9866  -35.1111   34.1528 H   0  0  0  0  0  0  0  0  0  0  0  0
   20.5575  -35.4112   35.0106 H   0  0  0  0  0  0  0  0  0  0  0  0
   20.8046  -32.4213   33.2483 H   0  0  0  0  0  0  0  0  0  0  0  0
   20.7080  -30.1320   34.2021 H   0  0  0  0  0  0  0  0  0  0  0  0
   20.2118  -29.0823   40.5498 H   0  0  0  0  0  0  0  0  0  0  0  0
   20.1522  -26.9310   41.8174 H   0  0  0  0  0  0  0  0  0  0  0  0
   19.7825  -24.7783   40.6078 H   0  0  0  0  0  0  0  0  0  0  0  0
   20.1150  -23.8680   38.0830 H   0  0  0  0  0  0  0  0  0  0  0  0
   19.8300  -28.9610   33.9610 H   0  0  0  0  0  0  0  0  0  0  0  0
   18.9245  -31.7067   37.7983 H   0  0  0  0  0  0  0  0  0  0  0  0
   17.7605  -34.2923   37.1003 H   0  0  0  0  0  0  0  0  0  0  0  0
   19.2628  -35.2448   36.7415 H   0  0  0  0  0  0  0  0  0  0  0  0
   18.4775  -34.4189   39.2500 H   0  0  0  0  0  0  0  0  0  0  0  0
   20.1574  -34.8337   38.7679 H   0  0  0  0  0  0  0  0  0  0  0  0
   19.6203  -33.1196   38.7679 H   0  0  0  0  0  0  0  0  0  0  0  0
  1  2  1  0
  2  3  1  0
  3  4  2  0
  4  5  1  0
  5  6  2  0
  6  7  1  0
  7  8  1  0
  8  9  1  0
  9 10  2  0
 10 11  1  0
 11 12  2  0
 12 13  1  0
 13 14  1  0
 13 15  2  0
 15 16  1  0
 16 17  2  0
 16 18  1  0
 18 19  1  0
  6 20  1  0
 20 21  2  0
 21 22  1  0
 22 23  1  0
 21  3  1  0
 18  7  2  0
 15  9  1  0
  1 24  1  0
  1 25  1  0
  1 26  1  0
  2 27  1  0
  2 28  1  0
  4 29  1  0
  5 30  1  0
 10 31  1  0
 11 32  1  0
 12 33  1  0
 14 34  1  0
 19 35  1  0
 20 36  1  0
 22 37  1  0
 22 38  1  0
 23 39  1  0
 23 40  1  0
 23 41  1  0
M  END
>  <meeko>  (8) 
{"is_sidechain": [false], "free_energy": -6.918, "intermolecular_energy": -8.888, "internal_energy": -0.127}

$$$$
cand_039_out
     RDKit          3D

 41 43  0  0  0  0  0  0  0  0999 V2000
   18.5830  -34.5120   39.3420 C   0  0  0  0  0  0  0  0  0  0  0  0
   19.2640  -33.9490   38.1030 C   0  0  0  0  0  0  0  0  0  0  0  0
   19.3110  -32.4390   38.1220 C   0  0  0  0  0  0  0  0  0  0  0  0
   19.0120  -31.7830   39.3290 C   0  0  0  0  0  0  0  0  0  0  0  0
   19.0440  -30.3900   39.4220 C   0  0  0  0  0  0  0  0  0  0  0  0
   19.3700  -29.6080   38.3100 C   0  0  0  0  0  0  0  0  0  0  0  0
   19.4190  -28.1350   38.4330 C   0  0  0  0  0  0  0  0  0  0  0  0
   18.6780  -27.4870   37.4520 O   0  0  0  0  0  0  0  0  0  0  0  0
   18.6370  -26.1160   37.4480 C   0  0  0  0  0  0  0  0  0  0  0  0
   17.8680  -25.5080   36.4560 C   0  0  0  0  0  0  0  0  0  0  0  0
   17.7850  -24.1150   36.3940 C   0  0  0  0  0  0  0  0  0  0  0  0
   18.4710  -23.3310   37.3250 C   0  0  0  0  0  0  0  0  0  0  0  0
   19.2380  -23.9410   38.3140 C   0  0  0  0  0  0  0  0  0  0  0  0
   19.8840  -23.1150   39.1920 O   0  0  0  0  0  0  0  0  0  0  0  0
   19.3200  -25.3360   38.3760 C   0  0  0  0  0  0  0  0  0  0  0  0
   20.1140  -26.0160   39.3990 C   0  0  0  0  0  0  0  0  0  0  0  0
   20.7520  -25.3960   40.2470 O   0  0  0  0  0  0  0  0  0  0  0  0
   20.1290  -27.4970   39.3820 C   0  0  0  0  0  0  0  0  0  0  0  0
   20.8930  -28.1290   40.3450 O   0  0  0  0  0  0  0  0  0  0  0  0
   19.6860  -30.2610   37.1100 C   0  0  0  0  0  0  0  0  0  0  0  0
   19.6660  -31.6660   36.9980 C   0  0  0  0  0  0  0  0  0  0  0  0
   19.9980  -32.2730   35.6530 C   0  0  0  0  0  0  0  0  0  0  0  0
   20.6010  -31.2490   34.7020 C   0  0  0  0  0  0  0  0  0  0  0  0
   19.0697  -34.1096   40.2427 H   0  0  0  0  0  0  0  0  0  0  0  0
   17.5213  -34.2244   39.3394 H   0  0  0  0  0  0  0  0  0  0  0  0
   18.6658  -35.6089   39.3394 H   0  0  0  0  0  0  0  0  0  0  0  0
   20.2926  -34.3361   38.0558 H   0  0  0  0  0  0  0  0  0  0  0  0
   18.6819  -34.2605   37.2232 H   0  0  0  0  0  0  0  0  0  0  0  0
   18.7481  -32.3777   40.2160 H   0  0  0  0  0  0  0  0  0  0  0  0
   18.8103  -29.9030   40.3802 H   0  0  0  0  0  0  0  0  0  0  0  0
   17.3273  -26.1249   35.7231 H   0  0  0  0  0  0  0  0  0  0  0  0
   17.1790  -23.6349   35.6115 H   0  0  0  0  0  0  0  0  0  0  0  0
   18.4053  -22.2340   37.2767 H   0  0  0  0  0  0  0  0  0  0  0  0
   20.5320  -23.4630   39.7720 H   0  0  0  0  0  0  0  0  0  0  0  0
   21.6720  -28.5880   40.0980 H   0  0  0  0  0  0  0  0  0  0  0  0
   19.9575  -29.6591   36.2302 H   0  0  0  0  0  0  0  0  0  0  0  0
   20.7195  -33.0902   35.7999 H   0  0  0  0  0  0  0  0  0  0  0  0
   19.0639  -32.6446   35.2065 H   0  0  0  0  0  0  0  0  0  0  0  0
   21.0751  -30.4439   35.2826 H   0  0  0  0  0  0  0  0  0  0  0  0
   21.3558  -31.7372   34.0680 H   0  0  0  0  0  0  0  0  0  0  0  0
   19.8079  -30.8258   34.0680 H   0  0  0  0  0  0  0  0  0  0  0  0
  1  2  1  0
  2  3  1  0
  3  4  2  0
  4  5  1  0
  5  6  2  0
  6  7  1  0
  7  8  1  0
  8  9  1  0
  9 10  2  0
 10 11  1  0
 11 12  2  0
 12 13  1  0
 13 14  1  0
 13 15  2  0
 15 16  1  0
 16 17  2  0
 16 18  1  0
 18 19  1  0
  6 20  1  0
 20 21  2  0
 21 22  1  0
 22 23  1  0
 21  3  1  0
 18  7  2  0
 15  9  1  0
  1 24  1  0
  1 25  1  0
  1 26  1  0
  2 27  1  0
  2 28  1  0
  4 29  1  0
  5 30  1  0
 10 31  1  0
 11 32  1  0
 12 33  1  0
 14 34  1  0
 19 35  1  0
 20 36  1  0
 22 37  1  0
 22 38  1  0
 23 39  1  0
 23 40  1  0
 23 41  1  0
M  END
>  <meeko>  (9) 
{"is_sidechain": [false], "free_energy": -6.887, "intermolecular_energy": -8.619, "internal_energy": -0.359}

$$$$
