cand_012_out
     RDKit          3D

 40 42  0  0  0  0  0  0  0  0999 V2000
   18.8650  -25.1090   41.7420 C   0  0  0  0  0  0  0  0  0  0  0  0
   19.7000  -25.2690   40.5480 N   0  0  0  0  0  0  0  0  0  0  0  0
   19.5370  -24.2010   39.5560 C   0  0  0  0  0  0  0  0  0  0  0  0
   19.6090  -26.5480   39.9680 C   0  0  0  0  0  0  0  0  0  0  0  0
   18.6690  -26.8420   38.9680 C   0  0  0  0  0  0  0  0  0  0  0  0
   18.5930  -28.1140   38.3920 C   0  0  0  0  0  0  0  0  0  0  0  0
   19.4630  -29.1310   38.7930 C   0  0  0  0  0  0  0  0  0  0  0  0
   19.3880  -30.4930   38.2210 C   0  0  0  0  0  0  0  0  0  0  0  0
   19.0320  -31.4540   39.1600 O   0  0  0  0  0  0  0  0  0  0  0  0
   18.9290  -32.7630   38.7640 C   0  0  0  0  0  0  0  0  0  0  0  0
   18.5570  -33.6920   39.7370 C   0  0  0  0  0  0  0  0  0  0  0  0
   18.4350  -35.0420   39.3990 C   0  0  0  0  0  0  0  0  0  0  0  0
   18.6850  -35.4620   38.0920 C   0  0  0  0  0  0  0  0  0  0  0  0
   19.0570  -34.5330   37.1240 C   0  0  0  0  0  0  0  0  0  0  0  0
   19.2870  -35.0130   35.8630 O   0  0  0  0  0  0  0  0  0  0  0  0
   19.1770  -33.1820   37.4610 C   0  0  0  0  0  0  0  0  0  0  0  0
   19.5660  -32.1730   36.4750 C   0  0  0  0  0  0  0  0  0  0  0  0
   19.8090  -32.4650   35.3050 O   0  0  0  0  0  0  0  0  0  0  0  0
   19.6610  -30.7680   36.9320 C   0  0  0  0  0  0  0  0  0  0  0  0
   20.0440  -29.8250   35.9960 O   0  0  0  0  0  0  0  0  0  0  0  0
   20.3990  -28.8440   39.7970 C   0  0  0  0  0  0  0  0  0  0  0  0
   20.4870  -27.5640   40.3860 C   0  0  0  0  0  0  0  0  0  0  0  0
   21.5140  -27.3070   41.4610 C   0  0  0  0  0  0  0  0  0  0  0  0
   22.3020  -26.2190   41.2180 F   0  0  0  0  0  0  0  0  0  0  0  0
   22.3950  -28.3470   41.6070 F   0  0  0  0  0  0  0  0  0  0  0  0
   20.9790  -27.1310   42.7030 F   0  0  0  0  0  0  0  0  0  0  0  0
   19.4858  -25.2280   42.6422 H   0  0  0  0  0  0  0  0  0  0  0  0
   18.4103  -24.1074   41.7399 H   0  0  0  0  0  0  0  0  0  0  0  0
   18.0722  -25.8716   41.7399 H   0  0  0  0  0  0  0  0  0  0  0  0
   19.3904  -23.2406   40.0719 H   0  0  0  0  0  0  0  0  0  0  0  0
   20.4370  -24.1452   38.9261 H   0  0  0  0  0  0  0  0  0  0  0  0
   18.6613  -24.4162   38.9261 H   0  0  0  0  0  0  0  0  0  0  0  0
   17.9779  -26.0556   38.6304 H   0  0  0  0  0  0  0  0  0  0  0  0
   17.8406  -28.3159   37.6153 H   0  0  0  0  0  0  0  0  0  0  0  0
   18.3603  -33.3619   40.7677 H   0  0  0  0  0  0  0  0  0  0  0  0
   18.1413  -35.7752   40.1646 H   0  0  0  0  0  0  0  0  0  0  0  0
   18.5883  -36.5252   37.8269 H   0  0  0  0  0  0  0  0  0  0  0  0
   18.5980  -35.4370   35.3900 H   0  0  0  0  0  0  0  0  0  0  0  0
   20.6270  -29.1320   36.2410 H   0  0  0  0  0  0  0  0  0  0  0  0
   21.0826  -29.6370   40.1345 H   0  0  0  0  0  0  0  0  0  0  0  0
  1  2  1  0
  2  3  1  0
  2  4  1  0
  4  5  2  0
  5  6  1  0
  6  7  2  0
  7  8  1  0
  8  9  1  0
  9 10  1  0
 10 11  2  0
 11 12  1  0
 12 13  2  0
 13 14  1  0
 14 15  1  0
 14 16  2  0
 16 17  1  0
 17 18  2  0
 17 19  1  0
 19 20  1  0
  7 21  1  0
 21 22  2  0
 22 23  1  0
 23 24  1  0
 23 25  1  0
 23 26  1  0
 22  4  1  0
 19  8  2  0
 16 10  1  0
  1 27  1  0
  1 28  1  0
  1 29  1  0
  3 30  1  0
  3 31  1  0
  3 32  1  0
  5 33  1  0
  6 34  1  0
 11 35  1  0
 12 36  1  0
 13 37  1  0
 15 38  1  0
 20 39  1  0
 21 40  1  0
M  END
>  <meeko>  (1) 
{"is_sidechain": [false], "free_energy": -7.395, "intermolecular_energy": -9.124, "internal_energy": -0.296}

$$$$
cand_012_out
     RDKit          3D

 40 42  0  0  0  0  0  0  0  0999 V2000
   20.2160  -20.8200   49.8490 C   0  0  0  0  0  0  0  0  0  0  0  0
   19.6340  -20.6060   48.5210 N   0  0  0  0  0  0  0  0  0  0  0  0
   18.2080  -20.2630   48.5390 C   0  0  0  0  0  0  0  0  0  0  0  0
   19.9180  -21.6430   47.6120 C   0  0  0  0  0  0  0  0  0  0  0  0
   19.4270  -22.9450   47.7980 C   0  0  0  0  0  0  0  0  0  0  0  0
   19.7070  -23.9650   46.8840 C   0  0  0  0  0  0  0  0  0  0  0  0
   20.4810  -23.7130   45.7490 C   0  0  0  0  0  0  0  0  0  0  0  0
   20.8160  -24.7780   44.7800 C   0  0  0  0  0  0  0  0  0  0  0  0
   22.0230  -25.4070   45.0640 O   0  0  0  0  0  0  0  0  0  0  0  0
   22.4570  -26.4140   44.2400 C   0  0  0  0  0  0  0  0  0  0  0  0
   23.6680  -27.0250   44.5700 C   0  0  0  0  0  0  0  0  0  0  0  0
   24.1670  -28.0570   43.7720 C   0  0  0  0  0  0  0  0  0  0  0  0
   23.4560  -28.4770   42.6460 C   0  0  0  0  0  0  0  0  0  0  0  0
   22.2490  -27.8650   42.3200 C   0  0  0  0  0  0  0  0  0  0  0  0
   21.6050  -28.3260   41.2030 O   0  0  0  0  0  0  0  0  0  0  0  0
   21.7490  -26.8340   43.1190 C   0  0  0  0  0  0  0  0  0  0  0  0
   20.4850  -26.1640   42.8110 C   0  0  0  0  0  0  0  0  0  0  0  0
   19.8050  -26.4720   41.8340 O   0  0  0  0  0  0  0  0  0  0  0  0
   20.0410  -25.0850   43.7230 C   0  0  0  0  0  0  0  0  0  0  0  0
   18.8530  -24.4480   43.4150 O   0  0  0  0  0  0  0  0  0  0  0  0
   20.9800  -22.4160   45.5630 C   0  0  0  0  0  0  0  0  0  0  0  0
   20.7050  -21.3760   46.4770 C   0  0  0  0  0  0  0  0  0  0  0  0
   21.2630  -19.9970   46.2290 C   0  0  0  0  0  0  0  0  0  0  0  0
   20.3210  -19.0100   46.2520 F   0  0  0  0  0  0  0  0  0  0  0  0
   21.8550  -19.8820   44.9980 F   0  0  0  0  0  0  0  0  0  0  0  0
   22.2340  -19.6290   47.1140 F   0  0  0  0  0  0  0  0  0  0  0  0
   19.4796  -20.5492   50.6200 H   0  0  0  0  0  0  0  0  0  0  0  0
   20.4926  -21.8787   49.9618 H   0  0  0  0  0  0  0  0  0  0  0  0
   21.1125  -20.1927   49.9618 H   0  0  0  0  0  0  0  0  0  0  0  0
   17.8639  -20.1802   49.5805 H   0  0  0  0  0  0  0  0  0  0  0  0
   18.0554  -19.3025   48.0250 H   0  0  0  0  0  0  0  0  0  0  0  0
   17.6353  -21.0490   48.0250 H   0  0  0  0  0  0  0  0  0  0  0  0
   18.8095  -23.1670   48.6808 H   0  0  0  0  0  0  0  0  0  0  0  0
   19.3135  -24.9769   47.0606 H   0  0  0  0  0  0  0  0  0  0  0  0
   24.2283  -26.6943   45.4570 H   0  0  0  0  0  0  0  0  0  0  0  0
   25.1211  -28.5394   44.0308 H   0  0  0  0  0  0  0  0  0  0  0  0
   23.8490  -29.2900   42.0178 H   0  0  0  0  0  0  0  0  0  0  0  0
   22.0710  -28.8370   40.5710 H   0  0  0  0  0  0  0  0  0  0  0  0
   18.2510  -24.2250   44.0980 H   0  0  0  0  0  0  0  0  0  0  0  0
   21.6024  -22.2032   44.6813 H   0  0  0  0  0  0  0  0  0  0  0  0
  1  2  1  0
  2  3  1  0
  2  4  1  0
  4  5  2  0
  5  6  1  0
  6  7  2  0
  7  8  1  0
  8  9  1  0
  9 10  1  0
 10 11  2  0
 11 12  1  0
 12 13  2  0
 13 14  1  0
 14 15  1  0
 14 16  2  0
 16 17  1  0
 17 18  2  0
 17 19  1  0
 19 20  1  0
  7 21  1  0
 21 22  2  0
 22 23  1  0
 23 24  1  0
 23 25  1  0
 23 26  1  0
 22  4  1  0
 19  8  2  0
 16 10  1  0
  1 27  1  0
  1 28  1  0
  1 29  1  0
  3 30  1  0
  3 31  1  0
  3 32  1  0
  5 33  1  0
  6 34  1  0
 11 35  1  0
 12 36  1  0
 13 37  1  0
 15 38  1  0
 20 39  1  0
 21 40  1  0
M  END
>  <meeko>  (2) 
{"is_sidechain": [false], "free_energy": -6.914, "intermolecular_energy": -8.209, "internal_energy": -0.617}

$$$$
cand_012_out
     RDKit          3D

 40 42  0  0  0  0  0  0  0  0999 V2000
   20.6980  -22.6360   47.2270 C   0  0  0  0  0  0  0  0  0  0  0  0
   19.7950  -22.0290   46.2450 N   0  0  0  0  0  0  0  0  0  0  0  0
   18.4420  -21.7760   46.7520 C   0  0  0  0  0  0  0  0  0  0  0  0
   19.7810  -22.6990   45.0080 C   0  0  0  0  0  0  0  0  0  0  0  0
   19.2950  -24.0100   44.8820 C   0  0  0  0  0  0  0  0  0  0  0  0
   19.2770  -24.6640   43.6460 C   0  0  0  0  0  0  0  0  0  0  0  0
   19.7370  -24.0230   42.4940 C   0  0  0  0  0  0  0  0  0  0  0  0
   19.7550  -24.6970   41.1790 C   0  0  0  0  0  0  0  0  0  0  0  0
   18.9280  -24.0840   40.2450 O   0  0  0  0  0  0  0  0  0  0  0  0
   18.8470  -24.6110   38.9810 C   0  0  0  0  0  0  0  0  0  0  0  0
   18.0140  -23.9550   38.0730 C   0  0  0  0  0  0  0  0  0  0  0  0
   17.8860  -24.4410   36.7700 C   0  0  0  0  0  0  0  0  0  0  0  0
   18.5910  -25.5800   36.3750 C   0  0  0  0  0  0  0  0  0  0  0  0
   19.4200  -26.2320   37.2840 C   0  0  0  0  0  0  0  0  0  0  0  0
   20.0800  -27.3420   36.8310 O   0  0  0  0  0  0  0  0  0  0  0  0
   19.5490  -25.7450   38.5870 C   0  0  0  0  0  0  0  0  0  0  0  0
   20.4100  -26.4000   39.5730 C   0  0  0  0  0  0  0  0  0  0  0  0
   21.0570  -27.4110   39.3040 O   0  0  0  0  0  0  0  0  0  0  0  0
   20.4800  -25.8030   40.9260 C   0  0  0  0  0  0  0  0  0  0  0  0
   21.2840  -26.4380   41.8550 O   0  0  0  0  0  0  0  0  0  0  0  0
   20.2300  -22.7150   42.6160 C   0  0  0  0  0  0  0  0  0  0  0  0
   20.2530  -22.0430   43.8570 C   0  0  0  0  0  0  0  0  0  0  0  0
   20.7920  -20.6360   43.9330 C   0  0  0  0  0  0  0  0  0  0  0  0
   19.8390  -19.6970   44.2030 F   0  0  0  0  0  0  0  0  0  0  0  0
   21.3600  -20.2250   42.7560 F   0  0  0  0  0  0  0  0  0  0  0  0
   21.7740  -20.4730   44.8660 F   0  0  0  0  0  0  0  0  0  0  0  0
   20.3472  -22.4002   48.2426 H   0  0  0  0  0  0  0  0  0  0  0  0
   20.7112  -23.7271   47.0877 H   0  0  0  0  0  0  0  0  0  0  0  0
   21.7133  -22.2363   47.0877 H   0  0  0  0  0  0  0  0  0  0  0  0
   18.4561  -21.7786   47.8519 H   0  0  0  0  0  0  0  0  0  0  0  0
   18.0927  -20.7970   46.3921 H   0  0  0  0  0  0  0  0  0  0  0  0
   17.7625  -22.5627   46.3921 H   0  0  0  0  0  0  0  0  0  0  0  0
   18.9206  -24.5337   45.7740 H   0  0  0  0  0  0  0  0  0  0  0  0
   18.8965  -25.6940   43.5807 H   0  0  0  0  0  0  0  0  0  0  0  0
   17.4595  -23.0570   38.3832 H   0  0  0  0  0  0  0  0  0  0  0  0
   17.2289  -23.9259   36.0538 H   0  0  0  0  0  0  0  0  0  0  0  0
   18.4916  -25.9612   35.3480 H   0  0  0  0  0  0  0  0  0  0  0  0
   19.8510  -27.7180   36.0040 H   0  0  0  0  0  0  0  0  0  0  0  0
   21.5700  -25.9770   42.6190 H   0  0  0  0  0  0  0  0  0  0  0  0
   20.6085  -22.1997   41.7209 H   0  0  0  0  0  0  0  0  0  0  0  0
  1  2  1  0
  2  3  1  0
  2  4  1  0
  4  5  2  0
  5  6  1  0
  6  7  2  0
  7  8  1  0
  8  9  1  0
  9 10  1  0
 10 11  2  0
 11 12  1  0
 12 13  2  0
 13 14  1  0
 14 15  1  0
 14 16  2  0
 16 17  1  0
 17 18  2  0
 17 19  1  0
 19 20  1  0
  7 21  1  0
 21 22  2  0
 22 23  1  0
 23 24  1  0
 23 25  1  0
 23 26  1  0
 22  4  1  0
 19  8  2  0
 16 10  1  0
  1 27  1  0
  1 28  1  0
  1 29  1  0
  3 30  1  0
  3 31  1  0
  3 32  1  0
  5 33  1  0
  6 34  1  0
 11 35  1  0
 12 36  1  0
 13 37  1  0
 15 38  1  0
 20 39  1  0
 21 40  1  0
M  END
>  <meeko>  (3) 
{"is_sidechain": [false], "free_energy": -6.606, "intermolecular_energy": -7.963, "internal_energy": -0.484}

$$$$
cand_012_out
     RDKit          3D

 40 42  0  0  0  0  0  0  0  0999 V2000
   16.5900  -27.0640   35.6970 C   0  0  0  0  0  0  0  0  0  0  0  0
   18.0530  -26.9830   35.6430 N   0  0  0  0  0  0  0  0  0  0  0  0
   18.6740  -27.9720   34.7540 C   0  0  0  0  0  0  0  0  0  0  0  0
   18.6600  -26.9570   36.9120 C   0  0  0  0  0  0  0  0  0  0  0  0
   18.9780  -28.1360   37.6050 C   0  0  0  0  0  0  0  0  0  0  0  0
   19.5890  -28.0990   38.8620 C   0  0  0  0  0  0  0  0  0  0  0  0
   19.9100  -26.8790   39.4630 C   0  0  0  0  0  0  0  0  0  0  0  0
   20.5320  -26.8080   40.8020 C   0  0  0  0  0  0  0  0  0  0  0  0
   21.6170  -27.6660   40.9400 O   0  0  0  0  0  0  0  0  0  0  0  0
   22.2870  -27.7030   42.1370 C   0  0  0  0  0  0  0  0  0  0  0  0
   23.3770  -28.5700   42.2260 C   0  0  0  0  0  0  0  0  0  0  0  0
   24.1010  -28.6560   43.4180 C   0  0  0  0  0  0  0  0  0  0  0  0
   23.7350  -27.8770   44.5170 C   0  0  0  0  0  0  0  0  0  0  0  0
   22.6470  -27.0140   44.4240 C   0  0  0  0  0  0  0  0  0  0  0  0
   22.3430  -26.2810   45.5400 O   0  0  0  0  0  0  0  0  0  0  0  0
   21.9230  -26.9270   43.2330 C   0  0  0  0  0  0  0  0  0  0  0  0
   20.7720  -26.0340   43.0930 C   0  0  0  0  0  0  0  0  0  0  0  0
   20.3840  -25.3210   44.0170 O   0  0  0  0  0  0  0  0  0  0  0  0
   20.0760  -26.0120   41.7870 C   0  0  0  0  0  0  0  0  0  0  0  0
   18.9800  -25.1760   41.6700 O   0  0  0  0  0  0  0  0  0  0  0  0
   19.5880  -25.6990   38.7780 C   0  0  0  0  0  0  0  0  0  0  0  0
   18.9710  -25.7220   37.5080 C   0  0  0  0  0  0  0  0  0  0  0  0
   18.6480  -24.4230   36.8120 C   0  0  0  0  0  0  0  0  0  0  0  0
   19.4490  -23.3840   37.1880 F   0  0  0  0  0  0  0  0  0  0  0  0
   17.3740  -23.9900   37.0720 F   0  0  0  0  0  0  0  0  0  0  0  0
   18.7160  -24.4960   35.4510 F   0  0  0  0  0  0  0  0  0  0  0  0
   16.2623  -27.0821   36.7469 H   0  0  0  0  0  0  0  0  0  0  0  0
   16.1554  -26.1885   35.1923 H   0  0  0  0  0  0  0  0  0  0  0  0
   16.2547  -27.9821   35.1923 H   0  0  0  0  0  0  0  0  0  0  0  0
   19.1632  -28.7511   35.3571 H   0  0  0  0  0  0  0  0  0  0  0  0
   17.9015  -28.4307   34.1193 H   0  0  0  0  0  0  0  0  0  0  0  0
   19.4227  -27.4755   34.1193 H   0  0  0  0  0  0  0  0  0  0  0  0
   18.7415  -29.1089   37.1495 H   0  0  0  0  0  0  0  0  0  0  0  0
   19.8194  -29.0399   39.3832 H   0  0  0  0  0  0  0  0  0  0  0  0
   23.6654  -29.1840   41.3601 H   0  0  0  0  0  0  0  0  0  0  0  0
   24.9606  -29.3385   43.4905 H   0  0  0  0  0  0  0  0  0  0  0  0
   24.3055  -27.9451   45.4550 H   0  0  0  0  0  0  0  0  0  0  0  0
   22.1550  -26.7150   46.3490 H   0  0  0  0  0  0  0  0  0  0  0  0
   18.7430  -24.8290   40.8320 H   0  0  0  0  0  0  0  0  0  0  0  0
   19.8222  -24.7296   39.2421 H   0  0  0  0  0  0  0  0  0  0  0  0
  1  2  1  0
  2  3  1  0
  2  4  1  0
  4  5  2  0
  5  6  1  0
  6  7  2  0
  7  8  1  0
  8  9  1  0
  9 10  1  0
 10 11  2  0
 11 12  1  0
 12 13  2  0
 13 14  1  0
 14 15  1  0
 14 16  2  0
 16 17  1  0
 17 18  2  0
 17 19  1  0
 19 20  1  0
  7 21  1  0
 21 22  2  0
 22 23  1  0
 23 24  1  0
 23 25  1  0
 23 26  1  0
 22  4  1  0
 19  8  2  0
 16 10  1  0
  1 27  1  0
  1 28  1  0
  1 29  1  0
  3 30  1  0
  3 31  1  0
  3 32  1  0
  5 33  1  0
  6 34  1  0
 11 35  1  0
 12 36  1  0
 13 37  1  0
 15 38  1  0
 20 39  1  0
 21 40  1  0
M  END
>  <meeko>  (4) 
{"is_sidechain": [false], "free_energy": -6.594, "intermolecular_energy": -8.443, "internal_energy": 0.012}

$$$$
cand_012_out
     RDKit          3D

 40 42  0  0  0  0  0  0  0  0999 V2000
   21.4020  -20.5410   49.4500 C   0  0  0  0  0  0  0  0  0  0  0  0
   22.1110  -21.7190   48.9440 N   0  0  0  0  0  0  0  0  0  0  0  0
   23.5730  -21.6000   48.9800 C   0  0  0  0  0  0  0  0  0  0  0  0
   21.6460  -22.1570   47.6900 C   0  0  0  0  0  0  0  0  0  0  0  0
   21.7420  -21.3530   46.5430 C   0  0  0  0  0  0  0  0  0  0  0  0
   21.2850  -21.8020   45.3000 C   0  0  0  0  0  0  0  0  0  0  0  0
   20.7260  -23.0740   45.1630 C   0  0  0  0  0  0  0  0  0  0  0  0
   20.2100  -23.5650   43.8670 C   0  0  0  0  0  0  0  0  0  0  0  0
   20.4420  -24.9220   43.6720 O   0  0  0  0  0  0  0  0  0  0  0  0
   20.0170  -25.5080   42.5070 C   0  0  0  0  0  0  0  0  0  0  0  0
   20.2610  -26.8740   42.3600 C   0  0  0  0  0  0  0  0  0  0  0  0
   19.8540  -27.5310   41.1960 C   0  0  0  0  0  0  0  0  0  0  0  0
   19.2050  -26.8240   40.1830 C   0  0  0  0  0  0  0  0  0  0  0  0
   18.9640  -25.4610   40.3330 C   0  0  0  0  0  0  0  0  0  0  0  0
   18.3240  -24.8290   39.3020 O   0  0  0  0  0  0  0  0  0  0  0  0
   19.3700  -24.8030   41.4970 C   0  0  0  0  0  0  0  0  0  0  0  0
   19.1360  -23.3720   41.6950 C   0  0  0  0  0  0  0  0  0  0  0  0
   18.5770  -22.6790   40.8470 O   0  0  0  0  0  0  0  0  0  0  0  0
   19.6010  -22.7710   42.9660 C   0  0  0  0  0  0  0  0  0  0  0  0
   19.3900  -21.4150   43.1380 O   0  0  0  0  0  0  0  0  0  0  0  0
   20.6210  -23.8780   46.3070 C   0  0  0  0  0  0  0  0  0  0  0  0
   21.0790  -23.4380   47.5680 C   0  0  0  0  0  0  0  0  0  0  0  0
   20.9450  -24.3440   48.7680 C   0  0  0  0  0  0  0  0  0  0  0  0
   22.1350  -24.6470   49.3610 F   0  0  0  0  0  0  0  0  0  0  0  0
   20.3950  -25.5580   48.4520 F   0  0  0  0  0  0  0  0  0  0  0  0
   20.1380  -23.8430   49.7470 F   0  0  0  0  0  0  0  0  0  0  0  0
   21.4093  -20.5531   50.5499 H   0  0  0  0  0  0  0  0  0  0  0  0
   21.9017  -19.6296   49.0900 H   0  0  0  0  0  0  0  0  0  0  0  0
   20.3627  -20.5559   49.0900 H   0  0  0  0  0  0  0  0  0  0  0  0
   23.9130  -21.5723   50.0258 H   0  0  0  0  0  0  0  0  0  0  0  0
   24.0239  -22.4644   48.4706 H   0  0  0  0  0  0  0  0  0  0  0  0
   23.8782  -20.6740   48.4706 H   0  0  0  0  0  0  0  0  0  0  0  0
   22.1856  -20.3497   46.6238 H   0  0  0  0  0  0  0  0  0  0  0  0
   21.3668  -21.1460   44.4208 H   0  0  0  0  0  0  0  0  0  0  0  0
   20.7723  -27.4320   43.1582 H   0  0  0  0  0  0  0  0  0  0  0  0
   20.0456  -28.6077   41.0779 H   0  0  0  0  0  0  0  0  0  0  0  0
   18.8844  -27.3427   39.2675 H   0  0  0  0  0  0  0  0  0  0  0  0
   18.7300  -24.1010   38.8740 H   0  0  0  0  0  0  0  0  0  0  0  0
   20.0890  -20.8660   43.4330 H   0  0  0  0  0  0  0  0  0  0  0  0
   20.1701  -24.8775   46.2197 H   0  0  0  0  0  0  0  0  0  0  0  0
  1  2  1  0
  2  3  1  0
  2  4  1  0
  4  5  2  0
  5  6  1  0
  6  7  2  0
  7  8  1  0
  8  9  1  0
  9 10  1  0
 10 11  2  0
 11 12  1  0
 12 13  2  0
 13 14  1  0
 14 15  1  0
 14 16  2  0
 16 17  1  0
 17 18  2  0
 17 19  1  0
 19 20  1  0
  7 21  1  0
 21 22  2  0
 22 23  1  0
 23 24  1  0
 23 25  1  0
 23 26  1  0
 22  4  1  0
 19  8  2  0
 16 10  1  0
  1 27  1  0
  1 28  1  0
  1 29  1  0
  3 30  1  0
  3 31  1  0
  3 32  1  0
  5 33  1  0
  6 34  1  0
 11 35  1  0
 12 36  1  0
 13 37  1  0
 15 38  1  0
 20 39  1  0
 21 40  1  0
M  END
>  <meeko>  (5) 
{"is_sidechain": [false], "free_energy": -6.589, "intermolecular_energy": -8.209, "internal_energy": -0.216}

$$$$
cand_012_out
     RDKit          3D

 40 42  0  0  0  0  0  0  0  0999 V2000
   17.5150  -23.3420   38.4120 C   0  0  0  0  0  0  0  0  0  0  0  0
   18.9030  -23.7980   38.2880 N   0  0  0  0  0  0  0  0  0  0  0  0
   19.7050  -23.0240   37.3350 C   0  0  0  0  0  0  0  0  0  0  0  0
   19.0190  -25.1850   38.0750 C   0  0  0  0  0  0  0  0  0  0  0  0
   18.7280  -25.7690   36.8320 C   0  0  0  0  0  0  0  0  0  0  0  0
   18.8560  -27.1470   36.6290 C   0  0  0  0  0  0  0  0  0  0  0  0
   19.2880  -27.9830   37.6610 C   0  0  0  0  0  0  0  0  0  0  0  0
   19.4070  -29.4460   37.4830 C   0  0  0  0  0  0  0  0  0  0  0  0
   19.0010  -30.1610   38.6040 O   0  0  0  0  0  0  0  0  0  0  0  0
   19.0620  -31.5310   38.5760 C   0  0  0  0  0  0  0  0  0  0  0  0
   18.6330  -32.2080   39.7180 C   0  0  0  0  0  0  0  0  0  0  0  0
   18.6710  -33.6040   39.7550 C   0  0  0  0  0  0  0  0  0  0  0  0
   19.1370  -34.3210   38.6510 C   0  0  0  0  0  0  0  0  0  0  0  0
   19.5650  -33.6420   37.5130 C   0  0  0  0  0  0  0  0  0  0  0  0
   20.0090  -34.4070   36.4690 O   0  0  0  0  0  0  0  0  0  0  0  0
   19.5260  -32.2460   37.4760 C   0  0  0  0  0  0  0  0  0  0  0  0
   19.9670  -31.4940   36.3000 C   0  0  0  0  0  0  0  0  0  0  0  0
   20.3950  -32.0530   35.2920 O   0  0  0  0  0  0  0  0  0  0  0  0
   19.8810  -30.0170   36.3600 C   0  0  0  0  0  0  0  0  0  0  0  0
   20.3140  -29.3150   35.2500 O   0  0  0  0  0  0  0  0  0  0  0  0
   19.5730  -27.4050   38.9060 C   0  0  0  0  0  0  0  0  0  0  0  0
   19.4490  -26.0150   39.1260 C   0  0  0  0  0  0  0  0  0  0  0  0
   19.7710  -25.4430   40.4840 C   0  0  0  0  0  0  0  0  0  0  0  0
   20.4520  -26.3030   41.2950 F   0  0  0  0  0  0  0  0  0  0  0  0
   18.6470  -25.1120   41.1950 F   0  0  0  0  0  0  0  0  0  0  0  0
   20.5010  -24.2910   40.4360 F   0  0  0  0  0  0  0  0  0  0  0  0
   17.2512  -23.2553   39.4764 H   0  0  0  0  0  0  0  0  0  0  0  0
   17.4066  -22.3610   37.9263 H   0  0  0  0  0  0  0  0  0  0  0  0
   16.8459  -24.0676   37.9263 H   0  0  0  0  0  0  0  0  0  0  0  0
   20.3905  -22.3624   37.8850 H   0  0  0  0  0  0  0  0  0  0  0  0
   20.2868  -23.7108   36.7026 H   0  0  0  0  0  0  0  0  0  0  0  0
   19.0393  -22.4182   36.7026 H   0  0  0  0  0  0  0  0  0  0  0  0
   18.3928  -25.1304   36.0014 H   0  0  0  0  0  0  0  0  0  0  0  0
   18.6138  -27.5769   35.6459 H   0  0  0  0  0  0  0  0  0  0  0  0
   18.2655  -31.6436   40.5877 H   0  0  0  0  0  0  0  0  0  0  0  0
   18.3334  -34.1391   40.6549 H   0  0  0  0  0  0  0  0  0  0  0  0
   19.1659  -35.4202   38.6802 H   0  0  0  0  0  0  0  0  0  0  0  0
   19.9370  -35.3400   36.5080 H   0  0  0  0  0  0  0  0  0  0  0  0
   21.0210  -28.7050   35.3290 H   0  0  0  0  0  0  0  0  0  0  0  0
   19.9019  -28.0508   39.7335 H   0  0  0  0  0  0  0  0  0  0  0  0
  1  2  1  0
  2  3  1  0
  2  4  1  0
  4  5  2  0
  5  6  1  0
  6  7  2  0
  7  8  1  0
  8  9  1  0
  9 10  1  0
 10 11  2  0
 11 12  1  0
 12 13  2  0
 13 14  1  0
 14 15  1  0
 14 16  2  0
 16 17  1  0
 17 18  2  0
 17 19  1  0
 19 20  1  0
  7 21  1  0
 21 22  2  0
 22 23  1  0
 23 24  1  0
 23 25  1  0
 23 26  1  0
 22  4  1  0
 19  8  2  0
 16 10  1  0
  1 27  1  0
  1 28  1  0
  1 29  1  0
  3 30  1  0
  3 31  1  0
  3 32  1  0
  5 33  1  0
  6 34  1  0
 11 35  1  0
 12 36  1  0
 13 37  1  0
 15 38  1  0
 20 39  1  0
 21 40  1  0
M  END
>  <meeko>  (6) 
{"is_sidechain": [false], "free_energy": -6.555, "intermolecular_energy": -8.22, "internal_energy": -0.163}

$$$$
cand_012_out
     RDKit          3D

 40 42  0  0  0  0  0  0  0  0999 V2000
   18.4670  -21.8000   43.5450 C   0  0  0  0  0  0  0  0  0  0  0  0
   19.6700  -22.5230   43.1240 N   0  0  0  0  0  0  0  0  0  0  0  0
   20.9010  -21.7270   43.1890 C   0  0  0  0  0  0  0  0  0  0  0  0
   19.5260  -23.1760   41.8860 C   0  0  0  0  0  0  0  0  0  0  0  0
   19.3620  -22.4630   40.6880 C   0  0  0  0  0  0  0  0  0  0  0  0
   19.2290  -23.1220   39.4610 C   0  0  0  0  0  0  0  0  0  0  0  0
   19.2660  -24.5160   39.3940 C   0  0  0  0  0  0  0  0  0  0  0  0
   19.1020  -25.2410   38.1160 C   0  0  0  0  0  0  0  0  0  0  0  0
   17.8960  -24.9570   37.4850 O   0  0  0  0  0  0  0  0  0  0  0  0
   17.6130  -25.5650   36.2890 C   0  0  0  0  0  0  0  0  0  0  0  0
   16.3970  -25.2420   35.6850 C   0  0  0  0  0  0  0  0  0  0  0  0
   16.0480  -25.8270   34.4660 C   0  0  0  0  0  0  0  0  0  0  0  0
   16.9120  -26.7350   33.8520 C   0  0  0  0  0  0  0  0  0  0  0  0
   18.1250  -27.0560   34.4570 C   0  0  0  0  0  0  0  0  0  0  0  0
   18.9240  -27.9530   33.8010 O   0  0  0  0  0  0  0  0  0  0  0  0
   18.4750  -26.4700   35.6760 C   0  0  0  0  0  0  0  0  0  0  0  0
   19.7390  -26.7800   36.3460 C   0  0  0  0  0  0  0  0  0  0  0  0
   20.5500  -27.5730   35.8720 O   0  0  0  0  0  0  0  0  0  0  0  0
   20.0170  -26.1010   37.6310 C   0  0  0  0  0  0  0  0  0  0  0  0
   21.2070  -26.4130   38.2640 O   0  0  0  0  0  0  0  0  0  0  0  0
   19.4230  -25.2330   40.5890 C   0  0  0  0  0  0  0  0  0  0  0  0
   19.5590  -24.5810   41.8340 C   0  0  0  0  0  0  0  0  0  0  0  0
   19.7280  -25.3990   43.0900 C   0  0  0  0  0  0  0  0  0  0  0  0
   21.0120  -25.4370   43.5520 F   0  0  0  0  0  0  0  0  0  0  0  0
   19.3850  -26.7140   42.9120 F   0  0  0  0  0  0  0  0  0  0  0  0
   18.9520  -24.9780   44.1300 F   0  0  0  0  0  0  0  0  0  0  0  0
   18.4214  -21.7726   44.6437 H   0  0  0  0  0  0  0  0  0  0  0  0
   18.5009  -20.7725   43.1537 H   0  0  0  0  0  0  0  0  0  0  0  0
   17.5756  -22.3122   43.1537 H   0  0  0  0  0  0  0  0  0  0  0  0
   21.1700  -21.5530   44.2413 H   0  0  0  0  0  0  0  0  0  0  0  0
   21.7156  -22.2698   42.6872 H   0  0  0  0  0  0  0  0  0  0  0  0
   20.7402  -20.7614   42.6872 H   0  0  0  0  0  0  0  0  0  0  0  0
   19.3375  -21.3636   40.7144 H   0  0  0  0  0  0  0  0  0  0  0  0
   19.0939  -22.5360   38.5400 H   0  0  0  0  0  0  0  0  0  0  0  0
   15.7145  -24.5276   36.1685 H   0  0  0  0  0  0  0  0  0  0  0  0
   15.0903  -25.5717   33.9888 H   0  0  0  0  0  0  0  0  0  0  0  0
   16.6357  -27.1962   32.8923 H   0  0  0  0  0  0  0  0  0  0  0  0
   19.8270  -28.0340   34.0360 H   0  0  0  0  0  0  0  0  0  0  0  0
   21.6820  -27.1820   38.0150 H   0  0  0  0  0  0  0  0  0  0  0  0
   19.4407  -26.3323   40.5555 H   0  0  0  0  0  0  0  0  0  0  0  0
  1  2  1  0
  2  3  1  0
  2  4  1  0
  4  5  2  0
  5  6  1  0
  6  7  2  0
  7  8  1  0
  8  9  1  0
  9 10  1  0
 10 11  2  0
 11 12  1  0
 12 13  2  0
 13 14  1  0
 14 15  1  0
 14 16  2  0
 16 17  1  0
 17 18  2  0
 17 19  1  0
 19 20  1  0
  7 21  1  0
 21 22  2  0
 22 23  1  0
 23 24  1  0
 23 25  1  0
 23 26  1  0
 22  4  1  0
 19  8  2  0
 16 10  1  0
  1 27  1  0
  1 28  1  0
  1 29  1  0
  3 30  1  0
  3 31  1  0
  3 32  1  0
  5 33  1  0
  6 34  1  0
 11 35  1  0
 12 36  1  0
 13 37  1  0
 15 38  1  0
 20 39  1  0
 21 40  1  0
M  END
>  <meeko>  (7) 
{"is_sidechain": [false], "free_energy": -6.514, "intermolecular_energy": -7.997, "internal_energy": -0.336}

$$$$
cand_012_out
     RDKit          3D

 40 42  0  0  0  0  0  0  0  0999 V2000
   18.1390  -21.5910   47.0820 C   0  0  0  0  0  0  0  0  0  0  0  0
   19.4750  -21.7440   46.5000 N   0  0  0  0  0  0  0  0  0  0  0  0
   20.1680  -20.4760   46.2480 C   0  0  0  0  0  0  0  0  0  0  0  0
   19.5040  -22.5950   45.3790 C   0  0  0  0  0  0  0  0  0  0  0  0
   18.8530  -22.2620   44.1810 C   0  0  0  0  0  0  0  0  0  0  0  0
   18.8960  -23.1110   43.0700 C   0  0  0  0  0  0  0  0  0  0  0  0
   19.6000  -24.3160   43.1200 C   0  0  0  0  0  0  0  0  0  0  0  0
   19.6400  -25.2450   41.9710 C   0  0  0  0  0  0  0  0  0  0  0  0
   18.9300  -24.7760   40.8720 O   0  0  0  0  0  0  0  0  0  0  0  0
   18.8830  -25.5430   39.7360 C   0  0  0  0  0  0  0  0  0  0  0  0
   18.1690  -25.0270   38.6530 C   0  0  0  0  0  0  0  0  0  0  0  0
   18.0810  -25.7590   37.4660 C   0  0  0  0  0  0  0  0  0  0  0  0
   18.7050  -27.0030   37.3630 C   0  0  0  0  0  0  0  0  0  0  0  0
   19.4150  -27.5150   38.4450 C   0  0  0  0  0  0  0  0  0  0  0  0
   20.0010  -28.7400   38.2750 O   0  0  0  0  0  0  0  0  0  0  0  0
   19.5050  -26.7830   39.6320 C   0  0  0  0  0  0  0  0  0  0  0  0
   20.2410  -27.2850   40.7930 C   0  0  0  0  0  0  0  0  0  0  0  0
   20.8110  -28.3740   40.7830 O   0  0  0  0  0  0  0  0  0  0  0  0
   20.2790  -26.4300   42.0010 C   0  0  0  0  0  0  0  0  0  0  0  0
   20.9640  -26.9190   43.0990 O   0  0  0  0  0  0  0  0  0  0  0  0
   20.2450  -24.6560   44.3180 C   0  0  0  0  0  0  0  0  0  0  0  0
   20.2110  -23.8090   45.4470 C   0  0  0  0  0  0  0  0  0  0  0  0
   20.9260  -24.2200   46.7100 C   0  0  0  0  0  0  0  0  0  0  0  0
   21.8060  -23.2860   47.1720 F   0  0  0  0  0  0  0  0  0  0  0  0
   21.6770  -25.3540   46.5450 F   0  0  0  0  0  0  0  0  0  0  0  0
   20.0870  -24.5110   47.7460 F   0  0  0  0  0  0  0  0  0  0  0  0
   18.2139  -21.5996   48.1794 H   0  0  0  0  0  0  0  0  0  0  0  0
   17.7022  -20.6370   46.7518 H   0  0  0  0  0  0  0  0  0  0  0  0
   17.4979  -22.4216   46.7518 H   0  0  0  0  0  0  0  0  0  0  0  0
   20.4267  -20.0027   47.2067 H   0  0  0  0  0  0  0  0  0  0  0  0
   21.0866  -20.6679   45.6742 H   0  0  0  0  0  0  0  0  0  0  0  0
   19.5104  -19.8065   45.6742 H   0  0  0  0  0  0  0  0  0  0  0  0
   18.2980  -21.3146   44.1144 H   0  0  0  0  0  0  0  0  0  0  0  0
   18.3696  -22.8263   42.1470 H   0  0  0  0  0  0  0  0  0  0  0  0
   17.6769  -24.0466   38.7339 H   0  0  0  0  0  0  0  0  0  0  0  0
   17.5190  -25.3541   36.6115 H   0  0  0  0  0  0  0  0  0  0  0  0
   18.6358  -27.5781   36.4279 H   0  0  0  0  0  0  0  0  0  0  0  0
   20.4960  -28.9190   37.5000 H   0  0  0  0  0  0  0  0  0  0  0  0
   20.9150  -26.4700   43.9200 H   0  0  0  0  0  0  0  0  0  0  0  0
   20.7921  -25.6083   44.3797 H   0  0  0  0  0  0  0  0  0  0  0  0
  1  2  1  0
  2  3  1  0
  2  4  1  0
  4  5  2  0
  5  6  1  0
  6  7  2  0
  7  8  1  0
  8  9  1  0
  9 10  1  0
 10 11  2  0
 11 12  1  0
 12 13  2  0
 13 14  1  0
 14 15  1  0
 14 16  2  0
 16 17  1  0
 17 18  2  0
 17 19  1  0
 19 20  1  0
  7 21  1  0
 21 22  2  0
 22 23  1  0
 23 24  1  0
 23 25  1  0
 23 26  1  0
 22  4  1  0
 19  8  2  0
 16 10  1  0
  1 27  1  0
  1 28  1  0
  1 29  1  0
  3 30  1  0
  3 31  1  0
  3 32  1  0
  5 33  1  0
  6 34  1  0
 11 35  1  0
 12 36  1  0
 13 37  1  0
 15 38  1  0
 20 39  1  0
 21 40  1  0
M  END
>  <meeko>  (8) 
{"is_sidechain": [false], "free_energy": -6.423, "intermolecular_energy": -8.332, "internal_energy": 0.112}

$$$$
cand_012_out
     RDKit          3D

 40 42  0  0  0  0  0  0  0  0999 V2000
   18.8320  -21.3460   33.1670 C   0  0  0  0  0  0  0  0  0  0  0  0
   17.7470  -21.7500   34.0660 N   0  0  0  0  0  0  0  0  0  0  0  0
   16.8330  -20.6620   34.4300 C   0  0  0  0  0  0  0  0  0  0  0  0
   18.1930  -22.4670   35.1930 C   0  0  0  0  0  0  0  0  0  0  0  0
   18.9440  -21.8560   36.2090 C   0  0  0  0  0  0  0  0  0  0  0  0
   19.3730  -22.5750   37.3290 C   0  0  0  0  0  0  0  0  0  0  0  0
   19.0560  -23.9280   37.4720 C   0  0  0  0  0  0  0  0  0  0  0  0
   19.5180  -24.7200   38.6310 C   0  0  0  0  0  0  0  0  0  0  0  0
   19.2050  -24.1290   39.8500 O   0  0  0  0  0  0  0  0  0  0  0  0
   19.5800  -24.7580   41.0090 C   0  0  0  0  0  0  0  0  0  0  0  0
   19.2350  -24.1340   42.2090 C   0  0  0  0  0  0  0  0  0  0  0  0
   19.5870  -24.7220   43.4260 C   0  0  0  0  0  0  0  0  0  0  0  0
   20.2840  -25.9320   43.4430 C   0  0  0  0  0  0  0  0  0  0  0  0
   20.6280  -26.5510   42.2440 C   0  0  0  0  0  0  0  0  0  0  0  0
   21.3110  -27.7340   42.3340 O   0  0  0  0  0  0  0  0  0  0  0  0
   20.2740  -25.9640   41.0270 C   0  0  0  0  0  0  0  0  0  0  0  0
   20.6160  -26.5810   39.7450 C   0  0  0  0  0  0  0  0  0  0  0  0
   21.2340  -27.6420   39.6770 O   0  0  0  0  0  0  0  0  0  0  0  0
   20.1910  -25.8800   38.5120 C   0  0  0  0  0  0  0  0  0  0  0  0
   20.5330  -26.4640   37.3050 O   0  0  0  0  0  0  0  0  0  0  0  0
   18.3110  -24.5440   36.4560 C   0  0  0  0  0  0  0  0  0  0  0  0
   17.8710  -23.8300   35.3200 C   0  0  0  0  0  0  0  0  0  0  0  0
   17.0700  -24.5400   34.2570 C   0  0  0  0  0  0  0  0  0  0  0  0
   15.8310  -24.0070   34.0550 F   0  0  0  0  0  0  0  0  0  0  0  0
   16.8360  -25.8550   34.5640 F   0  0  0  0  0  0  0  0  0  0  0  0
   17.6820  -24.5740   33.0380 F   0  0  0  0  0  0  0  0  0  0  0  0
   19.6995  -21.0230   33.7613 H   0  0  0  0  0  0  0  0  0  0  0  0
   19.1188  -22.1976   32.5325 H   0  0  0  0  0  0  0  0  0  0  0  0
   18.4920  -20.5142   32.5325 H   0  0  0  0  0  0  0  0  0  0  0  0
   16.7701  -20.5871   35.5256 H   0  0  0  0  0  0  0  0  0  0  0  0
   17.2094  -19.7138   34.0187 H   0  0  0  0  0  0  0  0  0  0  0  0
   15.8341  -20.8692   34.0187 H   0  0  0  0  0  0  0  0  0  0  0  0
   19.2004  -20.7898   36.1225 H   0  0  0  0  0  0  0  0  0  0  0  0
   19.9663  -22.0700   38.1055 H   0  0  0  0  0  0  0  0  0  0  0  0
   18.6867  -23.1805   42.1962 H   0  0  0  0  0  0  0  0  0  0  0  0
   19.3149  -24.2314   44.3722 H   0  0  0  0  0  0  0  0  0  0  0  0
   20.5607  -26.3952   44.4016 H   0  0  0  0  0  0  0  0  0  0  0  0
   20.8410  -28.5430   42.3910 H   0  0  0  0  0  0  0  0  0  0  0  0
   20.0140  -26.2990   36.5420 H   0  0  0  0  0  0  0  0  0  0  0  0
   18.0628  -25.6118   36.5464 H   0  0  0  0  0  0  0  0  0  0  0  0
  1  2  1  0
  2  3  1  0
  2  4  1  0
  4  5  2  0
  5  6  1  0
  6  7  2  0
  7  8  1  0
  8  9  1  0
  9 10  1  0
 10 11  2  0
 11 12  1  0
 12 13  2  0
 13 14  1  0
 14 15  1  0
 14 16  2  0
 16 17  1  0
 17 18  2  0
 17 19  1  0
 19 20  1  0
  7 21  1  0
 21 22  2  0
 22 23  1  0
 23 24  1  0
 23 25  1  0
 23 26  1  0
 22  4  1  0
 19  8  2  0
 16 10  1  0
  1 27  1  0
  1 28  1  0
  1 29  1  0
  3 30  1  0
  3 31  1  0
  3 32  1  0
  5 33  1  0
  6 34  1  0
 11 35  1  0
 12 36  1  0
 13 37  1  0
 15 38  1  0
 20 39  1  0
 21 40  1  0
M  END
>  <meeko>  (9) 
{"is_sidechain": [false], "free_energy": -6.312, "intermolecular_energy": -7.72, "internal_energy": -0.364}

$$$$
