cand_025_out
     RDKit          3D

 53 56  0  0  0  0  0  0  0  0999 V2000
   21.8820  -27.6520   43.0220 C   0  0  0  0  0  0  0  0  0  0  0  0
   22.0160  -27.1900   41.5790 C   0  0  0  0  0  0  0  0  0  0  0  0
   20.7630  -27.4650   40.7780 C   0  0  0  0  0  0  0  0  0  0  0  0
   20.6500  -28.6970   40.1010 C   0  0  0  0  0  0  0  0  0  0  0  0
   19.5220  -29.0120   39.3350 C   0  0  0  0  0  0  0  0  0  0  0  0
   19.4080  -30.2910   38.6030 C   0  0  0  0  0  0  0  0  0  0  0  0
   19.0500  -31.3540   39.4240 O   0  0  0  0  0  0  0  0  0  0  0  0
   18.9090  -32.6010   38.8720 C   0  0  0  0  0  0  0  0  0  0  0  0
   18.5330  -33.6350   39.7290 C   0  0  0  0  0  0  0  0  0  0  0  0
   18.3730  -34.9310   39.2310 C   0  0  0  0  0  0  0  0  0  0  0  0
   18.5900  -35.1900   37.8760 C   0  0  0  0  0  0  0  0  0  0  0  0
   18.9640  -34.1560   37.0220 C   0  0  0  0  0  0  0  0  0  0  0  0
   19.1600  -34.4810   35.7080 O   0  0  0  0  0  0  0  0  0  0  0  0
   19.1230  -32.8610   37.5210 C   0  0  0  0  0  0  0  0  0  0  0  0
   19.5160  -31.7450   36.6580 C   0  0  0  0  0  0  0  0  0  0  0  0
   19.7300  -31.8970   35.4570 O   0  0  0  0  0  0  0  0  0  0  0  0
   19.6500  -30.4100   37.2840 C   0  0  0  0  0  0  0  0  0  0  0  0
   20.0330  -29.3670   36.4620 O   0  0  0  0  0  0  0  0  0  0  0  0
   18.5010  -28.0600   39.2370 C   0  0  0  0  0  0  0  0  0  0  0  0
   18.6040  -26.8320   39.8970 C   0  0  0  0  0  0  0  0  0  0  0  0
   19.7310  -26.5110   40.6690 C   0  0  0  0  0  0  0  0  0  0  0  0
   19.8520  -25.2820   41.3450 N   0  0  0  0  0  0  0  0  0  0  0  0
   19.3710  -24.1150   40.5740 C   0  0  0  0  0  0  0  0  0  0  0  0
   19.6760  -22.8130   41.3530 C   0  0  0  0  0  0  0  0  0  0  0  0
   19.0760  -22.8110   42.7080 N   0  0  0  0  0  0  0  0  0  0  0  0
   19.4340  -21.5910   43.4270 C   0  0  0  0  0  0  0  0  0  0  0  0
   19.5420  -24.0080   43.4480 C   0  0  0  0  0  0  0  0  0  0  0  0
   19.2490  -25.3280   42.6950 C   0  0  0  0  0  0  0  0  0  0  0  0
   22.1238  -26.8184   43.6978 H   0  0  0  0  0  0  0  0  0  0  0  0
   20.8501  -27.9856   43.2059 H   0  0  0  0  0  0  0  0  0  0  0  0
   22.5753  -28.4860   43.2059 H   0  0  0  0  0  0  0  0  0  0  0  0
   22.2135  -26.1079   41.5693 H   0  0  0  0  0  0  0  0  0  0  0  0
   22.8436  -27.7493   41.1184 H   0  0  0  0  0  0  0  0  0  0  0  0
   21.4684  -29.4281   40.1769 H   0  0  0  0  0  0  0  0  0  0  0  0
   18.3625  -33.4306   40.7963 H   0  0  0  0  0  0  0  0  0  0  0  0
   18.0762  -35.7470   39.9063 H   0  0  0  0  0  0  0  0  0  0  0  0
   18.4655  -36.2101   37.4837 H   0  0  0  0  0  0  0  0  0  0  0  0
   19.6510  -33.9080   35.1520 H   0  0  0  0  0  0  0  0  0  0  0  0
   19.4270  -29.0090   35.8440 H   0  0  0  0  0  0  0  0  0  0  0  0
   17.6077  -28.2804   38.6341 H   0  0  0  0  0  0  0  0  0  0  0  0
   17.7852  -26.1027   39.8094 H   0  0  0  0  0  0  0  0  0  0  0  0
   19.8802  -24.0857   39.5994 H   0  0  0  0  0  0  0  0  0  0  0  0
   18.2851  -24.2020   40.4212 H   0  0  0  0  0  0  0  0  0  0  0  0
   20.7666  -22.7065   41.4495 H   0  0  0  0  0  0  0  0  0  0  0  0
   19.2371  -21.9755   40.7909 H   0  0  0  0  0  0  0  0  0  0  0  0
   18.0590  -22.8390   42.6260 H   0  0  0  0  0  0  0  0  0  0  0  0
   19.3801  -21.7746   44.5102 H   0  0  0  0  0  0  0  0  0  0  0  0
   20.4575  -21.2927   43.1561 H   0  0  0  0  0  0  0  0  0  0  0  0
   18.7339  -20.7869   43.1561 H   0  0  0  0  0  0  0  0  0  0  0  0
   20.6278  -23.9250   43.6031 H   0  0  0  0  0  0  0  0  0  0  0  0
   18.9958  -24.0419   44.4022 H   0  0  0  0  0  0  0  0  0  0  0  0
   19.6769  -26.1712   43.2570 H   0  0  0  0  0  0  0  0  0  0  0  0
   18.1607  -25.4576   42.6013 H   0  0  0  0  0  0  0  0  0  0  0  0
  1  2  1  0
  2  3  1  0
  3  4  2  0
  4  5  1  0
  5  6  1  0
  6  7  1  0
  7  8  1  0
  8  9  2  0
  9 10  1  0
 10 11  2  0
 11 12  1  0
 12 13  1  0
 12 14  2  0
 14 15  1  0
 15 16  2  0
 15 17  1  0
 17 18  1  0
  5 19  2  0
 19 20  1  0
 20 21  2  0
 21 22  1  0
 22 23  1  0
 23 24  1  0
 24 25  1  0
 25 26  1  0
 25 27  1  0
 27 28  1  0
 21  3  1  0
 28 22  1  0
 17  6  2  0
 14  8  1  0
  1 29  1  0
  1 30  1  0
  1 31  1  0
  2 32  1  0
  2 33  1  0
  4 34  1  0
  9 35  1  0
 10 36  1  0
 11 37  1  0
 13 38  1  0
 18 39  1  0
 19 40  1  0
 20 41  1  0
 23 42  1  0
 23 43  1  0
 24 44  1  0
 24 45  1  0
 25 46  1  0
 26 47  1  0
 26 48  1  0
 26 49  1  0
 27 50  1  0
 27 51  1  0
 28 52  1  0
 28 53  1  0
M  CHG  1  25   1
M  END
>  <meeko>  (1) 
{"is_sidechain": [false], "free_energy": -7.976, "intermolecular_energy": -9.842, "internal_energy": -0.569}

$$$$
cand_025_out
     RDKit          3D

 53 56  0  0  0  0  0  0  0  0999 V2000
   17.9900  -25.0710   37.6000 C   0  0  0  0  0  0  0  0  0  0  0  0
   17.5750  -25.6040   38.9630 C   0  0  0  0  0  0  0  0  0  0  0  0
   18.5040  -26.6940   39.4510 C   0  0  0  0  0  0  0  0  0  0  0  0
   18.5070  -27.9310   38.7750 C   0  0  0  0  0  0  0  0  0  0  0  0
   19.3360  -28.9850   39.1790 C   0  0  0  0  0  0  0  0  0  0  0  0
   19.3260  -30.2930   38.4900 C   0  0  0  0  0  0  0  0  0  0  0  0
   18.9550  -31.3410   39.3250 O   0  0  0  0  0  0  0  0  0  0  0  0
   18.9030  -32.6120   38.8130 C   0  0  0  0  0  0  0  0  0  0  0  0
   18.5110  -33.6300   39.6810 C   0  0  0  0  0  0  0  0  0  0  0  0
   18.4390  -34.9480   39.2230 C   0  0  0  0  0  0  0  0  0  0  0  0
   18.7600  -35.2460   37.8970 C   0  0  0  0  0  0  0  0  0  0  0  0
   19.1520  -34.2280   37.0320 C   0  0  0  0  0  0  0  0  0  0  0  0
   19.4530  -34.5900   35.7480 O   0  0  0  0  0  0  0  0  0  0  0  0
   19.2230  -32.9100   37.4910 C   0  0  0  0  0  0  0  0  0  0  0  0
   19.6300  -31.8090   36.6150 C   0  0  0  0  0  0  0  0  0  0  0  0
   19.9340  -31.9940   35.4380 O   0  0  0  0  0  0  0  0  0  0  0  0
   19.6650  -30.4480   37.1960 C   0  0  0  0  0  0  0  0  0  0  0  0
   20.0630  -29.4190   36.3640 O   0  0  0  0  0  0  0  0  0  0  0  0
   20.1570  -28.7910   40.2940 C   0  0  0  0  0  0  0  0  0  0  0  0
   20.1580  -27.5710   40.9780 C   0  0  0  0  0  0  0  0  0  0  0  0
   19.3320  -26.5100   40.5760 C   0  0  0  0  0  0  0  0  0  0  0  0
   19.3210  -25.2730   41.2480 N   0  0  0  0  0  0  0  0  0  0  0  0
   19.7140  -25.3520   42.6720 C   0  0  0  0  0  0  0  0  0  0  0  0
   19.5350  -23.9680   43.3400 C   0  0  0  0  0  0  0  0  0  0  0  0
   20.3080  -22.9040   42.6560 N   0  0  0  0  0  0  0  0  0  0  0  0
   20.0670  -21.6080   43.2840 C   0  0  0  0  0  0  0  0  0  0  0  0
   19.9250  -22.8700   41.2240 C   0  0  0  0  0  0  0  0  0  0  0  0
   20.0960  -24.2400   40.5260 C   0  0  0  0  0  0  0  0  0  0  0  0
   18.6609  -24.2093   37.7320 H   0  0  0  0  0  0  0  0  0  0  0  0
   18.5133  -25.8609   37.0412 H   0  0  0  0  0  0  0  0  0  0  0  0
   17.0959  -24.7573   37.0412 H   0  0  0  0  0  0  0  0  0  0  0  0
   17.5873  -24.7760   39.6871 H   0  0  0  0  0  0  0  0  0  0  0  0
   16.5668  -26.0336   38.8678 H   0  0  0  0  0  0  0  0  0  0  0  0
   17.8425  -28.0717   37.9098 H   0  0  0  0  0  0  0  0  0  0  0  0
   18.2586  -33.3958   40.7257 H   0  0  0  0  0  0  0  0  0  0  0  0
   18.1292  -35.7515   39.9074 H   0  0  0  0  0  0  0  0  0  0  0  0
   18.7032  -36.2837   37.5364 H   0  0  0  0  0  0  0  0  0  0  0  0
   18.7660  -34.8290   35.1550 H   0  0  0  0  0  0  0  0  0  0  0  0
   19.9870  -28.5300   36.6480 H   0  0  0  0  0  0  0  0  0  0  0  0
   20.8096  -29.6073   40.6372 H   0  0  0  0  0  0  0  0  0  0  0  0
   20.8188  -27.4406   41.8477 H   0  0  0  0  0  0  0  0  0  0  0  0
   19.0809  -26.0905   43.1856 H   0  0  0  0  0  0  0  0  0  0  0  0
   20.7686  -25.6568   42.7424 H   0  0  0  0  0  0  0  0  0  0  0  0
   18.4684  -23.7000   43.3163 H   0  0  0  0  0  0  0  0  0  0  0  0
   19.9099  -24.0434   44.3714 H   0  0  0  0  0  0  0  0  0  0  0  0
   21.3050  -23.1090   42.7340 H   0  0  0  0  0  0  0  0  0  0  0  0
   20.0880  -21.7211   44.3780 H   0  0  0  0  0  0  0  0  0  0  0  0
   20.8487  -20.8991   42.9736 H   0  0  0  0  0  0  0  0  0  0  0  0
   19.0827  -21.2275   42.9736 H   0  0  0  0  0  0  0  0  0  0  0  0
   18.8704  -22.5665   41.1492 H   0  0  0  0  0  0  0  0  0  0  0  0
   20.5916  -22.1552   40.7193 H   0  0  0  0  0  0  0  0  0  0  0  0
   19.7331  -24.1694   39.4900 H   0  0  0  0  0  0  0  0  0  0  0  0
   21.1604  -24.5177   40.5289 H   0  0  0  0  0  0  0  0  0  0  0  0
  1  2  1  0
  2  3  1  0
  3  4  2  0
  4  5  1  0
  5  6  1  0
  6  7  1  0
  7  8  1  0
  8  9  2  0
  9 10  1  0
 10 11  2  0
 11 12  1  0
 12 13  1  0
 12 14  2  0
 14 15  1  0
 15 16  2  0
 15 17  1  0
 17 18  1  0
  5 19  2  0
 19 20  1  0
 20 21  2  0
 21 22  1  0
 22 23  1  0
 23 24  1  0
 24 25  1  0
 25 26  1  0
 25 27  1  0
 27 28  1  0
 21  3  1  0
 28 22  1  0
 17  6  2  0
 14  8  1  0
  1 29  1  0
  1 30  1  0
  1 31  1  0
  2 32  1  0
  2 33  1  0
  4 34  1  0
  9 35  1  0
 10 36  1  0
 11 37  1  0
 13 38  1  0
 18 39  1  0
 19 40  1  0
 20 41  1  0
 23 42  1  0
 23 43  1  0
 24 44  1  0
 24 45  1  0
 25 46  1  0
 26 47  1  0
 26 48  1  0
 26 49  1  0
 27 50  1  0
 27 51  1  0
 28 52  1  0
 28 53  1  0
M  CHG  1  25   1
M  END
>  <meeko>  (2) 
{"is_sidechain": [false], "free_energy": -7.797, "intermolecular_energy": -9.819, "internal_energy": -0.371}

$$$$
cand_025_out
     RDKit          3D

 53 56  0  0  0  0  0  0  0  0999 V2000
   19.3550  -23.4640   38.1630 C   0  0  0  0  0  0  0  0  0  0  0  0
   19.7010  -24.6330   37.2520 C   0  0  0  0  0  0  0  0  0  0  0  0
   19.7640  -25.9410   38.0100 C   0  0  0  0  0  0  0  0  0  0  0  0
   20.4600  -25.9800   39.2350 C   0  0  0  0  0  0  0  0  0  0  0  0
   20.5640  -27.1590   39.9820 C   0  0  0  0  0  0  0  0  0  0  0  0
   21.3130  -27.2120   41.2550 C   0  0  0  0  0  0  0  0  0  0  0  0
   22.2830  -28.2080   41.2700 O   0  0  0  0  0  0  0  0  0  0  0  0
   23.0540  -28.3670   42.3930 C   0  0  0  0  0  0  0  0  0  0  0  0
   24.0260  -29.3670   42.3590 C   0  0  0  0  0  0  0  0  0  0  0  0
   24.8440  -29.5830   43.4700 C   0  0  0  0  0  0  0  0  0  0  0  0
   24.6890  -28.7990   44.6150 C   0  0  0  0  0  0  0  0  0  0  0  0
   23.7190  -27.8010   44.6470 C   0  0  0  0  0  0  0  0  0  0  0  0
   23.6220  -27.0700   45.7990 O   0  0  0  0  0  0  0  0  0  0  0  0
   22.9020  -27.5850   43.5350 C   0  0  0  0  0  0  0  0  0  0  0  0
   21.8700  -26.5470   43.5260 C   0  0  0  0  0  0  0  0  0  0  0  0
   21.6690  -25.8220   44.4980 O   0  0  0  0  0  0  0  0  0  0  0  0
   21.0610  -26.3940   42.2950 C   0  0  0  0  0  0  0  0  0  0  0  0
   20.0820  -25.4190   42.3030 O   0  0  0  0  0  0  0  0  0  0  0  0
   19.9720  -28.3190   39.4730 C   0  0  0  0  0  0  0  0  0  0  0  0
   19.2850  -28.2970   38.2550 C   0  0  0  0  0  0  0  0  0  0  0  0
   19.1750  -27.1170   37.5030 C   0  0  0  0  0  0  0  0  0  0  0  0
   18.4840  -27.0720   36.2770 N   0  0  0  0  0  0  0  0  0  0  0  0
   18.8440  -28.1550   35.3370 C   0  0  0  0  0  0  0  0  0  0  0  0
   18.1320  -27.9280   33.9820 C   0  0  0  0  0  0  0  0  0  0  0  0
   16.6590  -27.8460   34.1240 N   0  0  0  0  0  0  0  0  0  0  0  0
   16.0310  -27.5770   32.8330 C   0  0  0  0  0  0  0  0  0  0  0  0
   16.3230  -26.7800   35.0990 C   0  0  0  0  0  0  0  0  0  0  0  0
   17.0190  -26.9810   36.4670 C   0  0  0  0  0  0  0  0  0  0  0  0
   19.4478  -23.7776   39.2132 H   0  0  0  0  0  0  0  0  0  0  0  0
   20.0448  -22.6298   37.9671 H   0  0  0  0  0  0  0  0  0  0  0  0
   18.3223  -23.1396   37.9671 H   0  0  0  0  0  0  0  0  0  0  0  0
   18.9328  -24.7127   36.4688 H   0  0  0  0  0  0  0  0  0  0  0  0
   20.6934  -24.4435   36.8170 H   0  0  0  0  0  0  0  0  0  0  0  0
   20.9329  -25.0616   39.6131 H   0  0  0  0  0  0  0  0  0  0  0  0
   24.1481  -29.9852   41.4574 H   0  0  0  0  0  0  0  0  0  0  0  0
   25.6108  -30.3712   43.4431 H   0  0  0  0  0  0  0  0  0  0  0  0
   25.3325  -28.9698   45.4906 H   0  0  0  0  0  0  0  0  0  0  0  0
   23.4780  -26.1450   45.7570 H   0  0  0  0  0  0  0  0  0  0  0  0
   20.1720  -24.6590   41.7630 H   0  0  0  0  0  0  0  0  0  0  0  0
   20.0475  -29.2602   40.0373 H   0  0  0  0  0  0  0  0  0  0  0  0
   18.8223  -29.2216   37.8794 H   0  0  0  0  0  0  0  0  0  0  0  0
   19.9330  -28.1575   35.1819 H   0  0  0  0  0  0  0  0  0  0  0  0
   18.5283  -29.1215   35.7568 H   0  0  0  0  0  0  0  0  0  0  0  0
   18.4975  -26.9874   33.5442 H   0  0  0  0  0  0  0  0  0  0  0  0
   18.3590  -28.7887   33.3357 H   0  0  0  0  0  0  0  0  0  0  0  0
   16.3030  -28.7400   34.4650 H   0  0  0  0  0  0  0  0  0  0  0  0
   15.0307  -27.1485   32.9940 H   0  0  0  0  0  0  0  0  0  0  0  0
   16.6483  -26.8643   32.2664 H   0  0  0  0  0  0  0  0  0  0  0  0
   15.9410  -28.5155   32.2664 H   0  0  0  0  0  0  0  0  0  0  0  0
   16.6370  -25.8112   34.6833 H   0  0  0  0  0  0  0  0  0  0  0  0
   15.2370  -26.8164   35.2701 H   0  0  0  0  0  0  0  0  0  0  0  0
   16.7883  -26.1284   37.1226 H   0  0  0  0  0  0  0  0  0  0  0  0
   16.6544  -27.9117   36.9261 H   0  0  0  0  0  0  0  0  0  0  0  0
  1  2  1  0
  2  3  1  0
  3  4  2  0
  4  5  1  0
  5  6  1  0
  6  7  1  0
  7  8  1  0
  8  9  2  0
  9 10  1  0
 10 11  2  0
 11 12  1  0
 12 13  1  0
 12 14  2  0
 14 15  1  0
 15 16  2  0
 15 17  1  0
 17 18  1  0
  5 19  2  0
 19 20  1  0
 20 21  2  0
 21 22  1  0
 22 23  1  0
 23 24  1  0
 24 25  1  0
 25 26  1  0
 25 27  1  0
 27 28  1  0
 21  3  1  0
 28 22  1  0
 17  6  2  0
 14  8  1  0
  1 29  1  0
  1 30  1  0
  1 31  1  0
  2 32  1  0
  2 33  1  0
  4 34  1  0
  9 35  1  0
 10 36  1  0
 11 37  1  0
 13 38  1  0
 18 39  1  0
 19 40  1  0
 20 41  1  0
 23 42  1  0
 23 43  1  0
 24 44  1  0
 24 45  1  0
 25 46  1  0
 26 47  1  0
 26 48  1  0
 26 49  1  0
 27 50  1  0
 27 51  1  0
 28 52  1  0
 28 53  1  0
M  CHG  1  25   1
M  END
>  <meeko>  (3) 
{"is_sidechain": [false], "free_energy": -7.384, "intermolecular_energy": -9.174, "internal_energy": -0.506}

$$$$
cand_025_out
     RDKit          3D

 53 56  0  0  0  0  0  0  0  0999 V2000
   18.0680  -25.2310   37.4140 C   0  0  0  0  0  0  0  0  0  0  0  0
   17.7090  -25.7690   38.7910 C   0  0  0  0  0  0  0  0  0  0  0  0
   18.6070  -26.9140   39.2030 C   0  0  0  0  0  0  0  0  0  0  0  0
   18.6290  -28.0770   38.4070 C   0  0  0  0  0  0  0  0  0  0  0  0
   19.4310  -29.1760   38.7360 C   0  0  0  0  0  0  0  0  0  0  0  0
   19.4390  -30.4080   37.9190 C   0  0  0  0  0  0  0  0  0  0  0  0
   19.9690  -30.2110   36.6490 O   0  0  0  0  0  0  0  0  0  0  0  0
   20.0370  -31.2750   35.7860 C   0  0  0  0  0  0  0  0  0  0  0  0
   20.5910  -31.0360   34.5280 C   0  0  0  0  0  0  0  0  0  0  0  0
   20.6890  -32.0760   33.6000 C   0  0  0  0  0  0  0  0  0  0  0  0
   20.2320  -33.3530   33.9310 C   0  0  0  0  0  0  0  0  0  0  0  0
   19.6790  -33.5890   35.1870 C   0  0  0  0  0  0  0  0  0  0  0  0
   19.2520  -34.8630   35.4450 O   0  0  0  0  0  0  0  0  0  0  0  0
   19.5830  -32.5490   36.1150 C   0  0  0  0  0  0  0  0  0  0  0  0
   19.0090  -32.7540   37.4460 C   0  0  0  0  0  0  0  0  0  0  0  0
   18.5800  -33.8470   37.8070 O   0  0  0  0  0  0  0  0  0  0  0  0
   18.9600  -31.5880   38.3580 C   0  0  0  0  0  0  0  0  0  0  0  0
   18.4040  -31.7900   39.6070 O   0  0  0  0  0  0  0  0  0  0  0  0
   20.2070  -29.1050   39.8970 C   0  0  0  0  0  0  0  0  0  0  0  0
   20.1900  -27.9600   40.7000 C   0  0  0  0  0  0  0  0  0  0  0  0
   19.3900  -26.8540   40.3740 C   0  0  0  0  0  0  0  0  0  0  0  0
   19.3620  -25.6910   41.1660 N   0  0  0  0  0  0  0  0  0  0  0  0
   19.8440  -25.8870   42.5510 C   0  0  0  0  0  0  0  0  0  0  0  0
   19.6400  -24.5860   43.3630 C   0  0  0  0  0  0  0  0  0  0  0  0
   20.3200  -23.4220   42.7470 N   0  0  0  0  0  0  0  0  0  0  0  0
   20.0570  -22.2070   43.5140 C   0  0  0  0  0  0  0  0  0  0  0  0
   19.8490  -23.2680   41.3500 C   0  0  0  0  0  0  0  0  0  0  0  0
   20.0420  -24.5530   40.5090 C   0  0  0  0  0  0  0  0  0  0  0  0
   18.6756  -24.3205   37.5230 H   0  0  0  0  0  0  0  0  0  0  0  0
   18.6411  -25.9903   36.8617 H   0  0  0  0  0  0  0  0  0  0  0  0
   17.1469  -24.9932   36.8617 H   0  0  0  0  0  0  0  0  0  0  0  0
   17.8084  -24.9572   39.5266 H   0  0  0  0  0  0  0  0  0  0  0  0
   16.6759  -26.1446   38.7506 H   0  0  0  0  0  0  0  0  0  0  0  0
   18.0006  -28.1221   37.5053 H   0  0  0  0  0  0  0  0  0  0  0  0
   20.9503  -30.0297   34.2670 H   0  0  0  0  0  0  0  0  0  0  0  0
   21.1264  -31.8885   32.6083 H   0  0  0  0  0  0  0  0  0  0  0  0
   20.3087  -34.1718   33.2005 H   0  0  0  0  0  0  0  0  0  0  0  0
   18.3760  -35.0110   35.7460 H   0  0  0  0  0  0  0  0  0  0  0  0
   18.8430  -31.4740   40.3720 H   0  0  0  0  0  0  0  0  0  0  0  0
   20.8382  -29.9596   40.1821 H   0  0  0  0  0  0  0  0  0  0  0  0
   20.8155  -27.9257   41.6042 H   0  0  0  0  0  0  0  0  0  0  0  0
   19.2791  -26.7047   43.0225 H   0  0  0  0  0  0  0  0  0  0  0  0
   20.9142  -26.1405   42.5319 H   0  0  0  0  0  0  0  0  0  0  0  0
   18.5625  -24.3735   43.4246 H   0  0  0  0  0  0  0  0  0  0  0  0
   20.0784  -24.7411   44.3599 H   0  0  0  0  0  0  0  0  0  0  0  0
   21.3280  -23.5800   42.7490 H   0  0  0  0  0  0  0  0  0  0  0  0
   20.1062  -22.4343   44.5891 H   0  0  0  0  0  0  0  0  0  0  0  0
   20.8112  -21.4459   43.2652 H   0  0  0  0  0  0  0  0  0  0  0  0
   19.0556  -21.8259   43.2652 H   0  0  0  0  0  0  0  0  0  0  0  0
   18.7786  -23.0151   41.3655 H   0  0  0  0  0  0  0  0  0  0  0  0
   20.4485  -22.4725   40.8833 H   0  0  0  0  0  0  0  0  0  0  0  0
   19.6138  -24.4011   39.5072 H   0  0  0  0  0  0  0  0  0  0  0  0
   21.1165  -24.7727   40.4244 H   0  0  0  0  0  0  0  0  0  0  0  0
  1  2  1  0
  2  3  1  0
  3  4  2  0
  4  5  1  0
  5  6  1  0
  6  7  1  0
  7  8  1  0
  8  9  2  0
  9 10  1  0
 10 11  2  0
 11 12  1  0
 12 13  1  0
 12 14  2  0
 14 15  1  0
 15 16  2  0
 15 17  1  0
 17 18  1  0
  5 19  2  0
 19 20  1  0
 20 21  2  0
 21 22  1  0
 22 23  1  0
 23 24  1  0
 24 25  1  0
 25 26  1  0
 25 27  1  0
 27 28  1  0
 21  3  1  0
 28 22  1  0
 17  6  2  0
 14  8  1  0
  1 29  1  0
  1 30  1  0
  1 31  1  0
  2 32  1  0
  2 33  1  0
  4 34  1  0
  9 35  1  0
 10 36  1  0
 11 37  1  0
 13 38  1  0
 18 39  1  0
 19 40  1  0
 20 41  1  0
 23 42  1  0
 23 43  1  0
 24 44  1  0
 24 45  1  0
 25 46  1  0
 26 47  1  0
 26 48  1  0
 26 49  1  0
 27 50  1  0
 27 51  1  0
 28 52  1  0
 28 53  1  0
M  CHG  1  25   1
M  END
>  <meeko>  (4) 
{"is_sidechain": [false], "free_energy": -7.18, "intermolecular_energy": -9.159, "internal_energy": -0.269}

$$$$
cand_025_out
     RDKit          3D

 53 56  0  0  0  0  0  0  0  0999 V2000
   21.2410  -21.1100   43.2530 C   0  0  0  0  0  0  0  0  0  0  0  0
   19.8200  -21.6270   43.0820 C   0  0  0  0  0  0  0  0  0  0  0  0
   19.7930  -23.0760   42.6480 C   0  0  0  0  0  0  0  0  0  0  0  0
   19.5840  -23.3690   41.2850 C   0  0  0  0  0  0  0  0  0  0  0  0
   19.5390  -24.6880   40.8170 C   0  0  0  0  0  0  0  0  0  0  0  0
   19.2950  -25.0020   39.3940 C   0  0  0  0  0  0  0  0  0  0  0  0
   18.1700  -24.3650   38.8840 O   0  0  0  0  0  0  0  0  0  0  0  0
   17.8280  -24.5690   37.5720 C   0  0  0  0  0  0  0  0  0  0  0  0
   16.7010  -23.8970   37.0990 C   0  0  0  0  0  0  0  0  0  0  0  0
   16.2960  -24.0630   35.7720 C   0  0  0  0  0  0  0  0  0  0  0  0
   17.0190  -24.9000   34.9200 C   0  0  0  0  0  0  0  0  0  0  0  0
   18.1440  -25.5690   35.3950 C   0  0  0  0  0  0  0  0  0  0  0  0
   18.8050  -26.3730   34.5070 O   0  0  0  0  0  0  0  0  0  0  0  0
   18.5480  -25.4030   36.7220 C   0  0  0  0  0  0  0  0  0  0  0  0
   19.7250  -26.0870   37.2610 C   0  0  0  0  0  0  0  0  0  0  0  0
   20.4070  -26.8460   36.5750 O   0  0  0  0  0  0  0  0  0  0  0  0
   20.0730  -25.8380   38.6790 C   0  0  0  0  0  0  0  0  0  0  0  0
   21.1770  -26.4990   39.1810 O   0  0  0  0  0  0  0  0  0  0  0  0
   19.6890  -25.7240   41.7440 C   0  0  0  0  0  0  0  0  0  0  0  0
   19.8890  -25.4480   43.1000 C   0  0  0  0  0  0  0  0  0  0  0  0
   19.9380  -24.1280   43.5750 C   0  0  0  0  0  0  0  0  0  0  0  0
   20.1440  -23.8280   44.9350 N   0  0  0  0  0  0  0  0  0  0  0  0
   18.9140  -23.8610   45.7570 C   0  0  0  0  0  0  0  0  0  0  0  0
   19.2350  -23.3850   47.1940 C   0  0  0  0  0  0  0  0  0  0  0  0
   20.2980  -24.1960   47.8340 N   0  0  0  0  0  0  0  0  0  0  0  0
   20.6070  -23.6790   49.1660 C   0  0  0  0  0  0  0  0  0  0  0  0
   21.5060  -24.1780   46.9750 C   0  0  0  0  0  0  0  0  0  0  0  0
   21.2190  -24.6520   45.5300 C   0  0  0  0  0  0  0  0  0  0  0  0
   21.4739  -21.0253   44.3247 H   0  0  0  0  0  0  0  0  0  0  0  0
   21.9452  -21.8095   42.7789 H   0  0  0  0  0  0  0  0  0  0  0  0
   21.3311  -20.1215   42.7789 H   0  0  0  0  0  0  0  0  0  0  0  0
   19.2902  -21.5336   44.0415 H   0  0  0  0  0  0  0  0  0  0  0  0
   19.3324  -21.0283   42.2986 H   0  0  0  0  0  0  0  0  0  0  0  0
   19.4531  -22.5417   40.5720 H   0  0  0  0  0  0  0  0  0  0  0  0
   16.1316  -23.2370   37.7699 H   0  0  0  0  0  0  0  0  0  0  0  0
   15.4069  -23.5339   35.3984 H   0  0  0  0  0  0  0  0  0  0  0  0
   16.7004  -25.0307   33.8753 H   0  0  0  0  0  0  0  0  0  0  0  0
   19.0190  -27.2550   34.7430 H   0  0  0  0  0  0  0  0  0  0  0  0
   22.0270  -26.3300   38.8250 H   0  0  0  0  0  0  0  0  0  0  0  0
   19.6492  -26.7688   41.4023 H   0  0  0  0  0  0  0  0  0  0  0  0
   20.0103  -26.2811   43.8080 H   0  0  0  0  0  0  0  0  0  0  0  0
   18.1586  -23.1968   45.3118 H   0  0  0  0  0  0  0  0  0  0  0  0
   18.5262  -24.8898   45.7918 H   0  0  0  0  0  0  0  0  0  0  0  0
   19.5667  -22.3370   47.1531 H   0  0  0  0  0  0  0  0  0  0  0  0
   18.3209  -23.4955   47.7958 H   0  0  0  0  0  0  0  0  0  0  0  0
   19.9720  -25.1570   47.9390 H   0  0  0  0  0  0  0  0  0  0  0  0
   20.1997  -24.3605   49.9274 H   0  0  0  0  0  0  0  0  0  0  0  0
   21.6978  -23.6045   49.2865 H   0  0  0  0  0  0  0  0  0  0  0  0
   20.1560  -22.6830   49.2865 H   0  0  0  0  0  0  0  0  0  0  0  0
   21.8956  -23.1500   46.9372 H   0  0  0  0  0  0  0  0  0  0  0  0
   22.2360  -24.8740   47.4140 H   0  0  0  0  0  0  0  0  0  0  0  0
   22.1323  -24.5524   44.9251 H   0  0  0  0  0  0  0  0  0  0  0  0
   20.9000  -25.7045   45.5503 H   0  0  0  0  0  0  0  0  0  0  0  0
  1  2  1  0
  2  3  1  0
  3  4  2  0
  4  5  1  0
  5  6  1  0
  6  7  1  0
  7  8  1  0
  8  9  2  0
  9 10  1  0
 10 11  2  0
 11 12  1  0
 12 13  1  0
 12 14  2  0
 14 15  1  0
 15 16  2  0
 15 17  1  0
 17 18  1  0
  5 19  2  0
 19 20  1  0
 20 21  2  0
 21 22  1  0
 22 23  1  0
 23 24  1  0
 24 25  1  0
 25 26  1  0
 25 27  1  0
 27 28  1  0
 21  3  1  0
 28 22  1  0
 17  6  2  0
 14  8  1  0
  1 29  1  0
  1 30  1  0
  1 31  1  0
  2 32  1  0
  2 33  1  0
  4 34  1  0
  9 35  1  0
 10 36  1  0
 11 37  1  0
 13 38  1  0
 18 39  1  0
 19 40  1  0
 20 41  1  0
 23 42  1  0
 23 43  1  0
 24 44  1  0
 24 45  1  0
 25 46  1  0
 26 47  1  0
 26 48  1  0
 26 49  1  0
 27 50  1  0
 27 51  1  0
 28 52  1  0
 28 53  1  0
M  CHG  1  25   1
M  END
>  <meeko>  (5) 
{"is_sidechain": [false], "free_energy": -7.055, "intermolecular_energy": -8.928, "internal_energy": -0.346}

$$$$
cand_025_out
     RDKit          3D

 53 56  0  0  0  0  0  0  0  0999 V2000
   22.5240  -27.7310   41.8310 C   0  0  0  0  0  0  0  0  0  0  0  0
   21.0090  -27.7610   41.9690 C   0  0  0  0  0  0  0  0  0  0  0  0
   20.3190  -27.7670   40.6230 C   0  0  0  0  0  0  0  0  0  0  0  0
   20.2720  -28.9710   39.8930 C   0  0  0  0  0  0  0  0  0  0  0  0
   19.6560  -29.0450   38.6380 C   0  0  0  0  0  0  0  0  0  0  0  0
   19.6250  -30.2990   37.8560 C   0  0  0  0  0  0  0  0  0  0  0  0
   20.0320  -30.1240   36.5380 O   0  0  0  0  0  0  0  0  0  0  0  0
   20.0530  -31.2090   35.7000 C   0  0  0  0  0  0  0  0  0  0  0  0
   20.4820  -30.9910   34.3910 C   0  0  0  0  0  0  0  0  0  0  0  0
   20.5260  -32.0540   33.4850 C   0  0  0  0  0  0  0  0  0  0  0  0
   20.1380  -33.3330   33.8890 C   0  0  0  0  0  0  0  0  0  0  0  0
   19.7100  -33.5480   35.1960 C   0  0  0  0  0  0  0  0  0  0  0  0
   19.3450  -34.8250   35.5250 O   0  0  0  0  0  0  0  0  0  0  0  0
   19.6670  -32.4850   36.1020 C   0  0  0  0  0  0  0  0  0  0  0  0
   19.2240  -32.6670   37.4850 C   0  0  0  0  0  0  0  0  0  0  0  0
   18.8610  -33.7610   37.9120 O   0  0  0  0  0  0  0  0  0  0  0  0
   19.2230  -31.4780   38.3670 C   0  0  0  0  0  0  0  0  0  0  0  0
   18.7900  -31.6590   39.6670 O   0  0  0  0  0  0  0  0  0  0  0  0
   19.0960  -27.8780   38.1060 C   0  0  0  0  0  0  0  0  0  0  0  0
   19.1420  -26.6750   38.8170 C   0  0  0  0  0  0  0  0  0  0  0  0
   19.7550  -26.5960   40.0760 C   0  0  0  0  0  0  0  0  0  0  0  0
   19.8080  -25.3950   40.8100 N   0  0  0  0  0  0  0  0  0  0  0  0
   19.3260  -24.2090   40.0700 C   0  0  0  0  0  0  0  0  0  0  0  0
   19.5570  -22.9360   40.9180 C   0  0  0  0  0  0  0  0  0  0  0  0
   18.8980  -23.0110   42.2440 N   0  0  0  0  0  0  0  0  0  0  0  0
   19.1860  -21.8150   43.0310 C   0  0  0  0  0  0  0  0  0  0  0  0
   19.3680  -24.2270   42.9510 C   0  0  0  0  0  0  0  0  0  0  0  0
   19.1480  -25.5190   42.1290 C   0  0  0  0  0  0  0  0  0  0  0  0
   22.9831  -27.7219   42.8306 H   0  0  0  0  0  0  0  0  0  0  0  0
   22.8598  -28.6227   41.2813 H   0  0  0  0  0  0  0  0  0  0  0  0
   22.8243  -26.8267   41.2813 H   0  0  0  0  0  0  0  0  0  0  0  0
   20.7202  -28.6679   42.5205 H   0  0  0  0  0  0  0  0  0  0  0  0
   20.6981  -26.8533   42.5069 H   0  0  0  0  0  0  0  0  0  0  0  0
   20.7306  -29.8753   40.3196 H   0  0  0  0  0  0  0  0  0  0  0  0
   20.7855  -29.9830   34.0720 H   0  0  0  0  0  0  0  0  0  0  0  0
   20.8665  -31.8831   32.4531 H   0  0  0  0  0  0  0  0  0  0  0  0
   20.1705  -34.1695   33.1754 H   0  0  0  0  0  0  0  0  0  0  0  0
   18.9800  -35.3900   34.8720 H   0  0  0  0  0  0  0  0  0  0  0  0
   17.8740  -31.6620   39.8600 H   0  0  0  0  0  0  0  0  0  0  0  0
   18.6143  -27.9075   37.1175 H   0  0  0  0  0  0  0  0  0  0  0  0
   18.6886  -25.7729   38.3804 H   0  0  0  0  0  0  0  0  0  0  0  0
   19.8762  -24.1213   39.1215 H   0  0  0  0  0  0  0  0  0  0  0  0
   18.2510  -24.3198   39.8646 H   0  0  0  0  0  0  0  0  0  0  0  0
   20.6386  -22.8035   41.0684 H   0  0  0  0  0  0  0  0  0  0  0  0
   19.1179  -22.0870   40.3736 H   0  0  0  0  0  0  0  0  0  0  0  0
   17.8870  -23.0650   42.1150 H   0  0  0  0  0  0  0  0  0  0  0  0
   19.1275  -22.0581   44.1022 H   0  0  0  0  0  0  0  0  0  0  0  0
   20.1969  -21.4533   42.7918 H   0  0  0  0  0  0  0  0  0  0  0  0
   18.4505  -21.0328   42.7918 H   0  0  0  0  0  0  0  0  0  0  0  0
   20.4431  -24.1203   43.1576 H   0  0  0  0  0  0  0  0  0  0  0  0
   18.7825  -24.3194   43.8776 H   0  0  0  0  0  0  0  0  0  0  0  0
   19.5762  -26.3743   42.6722 H   0  0  0  0  0  0  0  0  0  0  0  0
   18.0692  -25.6750   41.9811 H   0  0  0  0  0  0  0  0  0  0  0  0
  1  2  1  0
  2  3  1  0
  3  4  2  0
  4  5  1  0
  5  6  1  0
  6  7  1  0
  7  8  1  0
  8  9  2  0
  9 10  1  0
 10 11  2  0
 11 12  1  0
 12 13  1  0
 12 14  2  0
 14 15  1  0
 15 16  2  0
 15 17  1  0
 17 18  1  0
  5 19  2  0
 19 20  1  0
 20 21  2  0
 21 22  1  0
 22 23  1  0
 23 24  1  0
 24 25  1  0
 25 26  1  0
 25 27  1  0
 27 28  1  0
 21  3  1  0
 28 22  1  0
 17  6  2  0
 14  8  1  0
  1 29  1  0
  1 30  1  0
  1 31  1  0
  2 32  1  0
  2 33  1  0
  4 34  1  0
  9 35  1  0
 10 36  1  0
 11 37  1  0
 13 38  1  0
 18 39  1  0
 19 40  1  0
 20 41  1  0
 23 42  1  0
 23 43  1  0
 24 44  1  0
 24 45  1  0
 25 46  1  0
 26 47  1  0
 26 48  1  0
 26 49  1  0
 27 50  1  0
 27 51  1  0
 28 52  1  0
 28 53  1  0
M  CHG  1  25   1
M  END
>  <meeko>  (6) 
{"is_sidechain": [false], "free_energy": -7.049, "intermolecular_energy": -9.411, "internal_energy": 0.145}

$$$$
cand_025_out
     RDKit          3D

 53 56  0  0  0  0  0  0  0  0999 V2000
   20.7670  -26.9650   42.7530 C   0  0  0  0  0  0  0  0  0  0  0  0
   20.0150  -25.7110   43.1710 C   0  0  0  0  0  0  0  0  0  0  0  0
   19.7300  -24.8030   41.9960 C   0  0  0  0  0  0  0  0  0  0  0  0
   19.5330  -25.3820   40.7260 C   0  0  0  0  0  0  0  0  0  0  0  0
   19.2740  -24.5990   39.5950 C   0  0  0  0  0  0  0  0  0  0  0  0
   19.0920  -25.1990   38.2560 C   0  0  0  0  0  0  0  0  0  0  0  0
   17.8990  -24.8200   37.6520 O   0  0  0  0  0  0  0  0  0  0  0  0
   17.6030  -25.3050   36.4040 C   0  0  0  0  0  0  0  0  0  0  0  0
   16.4040  -24.8860   35.8280 C   0  0  0  0  0  0  0  0  0  0  0  0
   16.0420  -25.3440   34.5590 C   0  0  0  0  0  0  0  0  0  0  0  0
   16.8800  -26.2200   33.8670 C   0  0  0  0  0  0  0  0  0  0  0  0
   18.0770  -26.6360   34.4430 C   0  0  0  0  0  0  0  0  0  0  0  0
   18.8500  -27.4950   33.7100 O   0  0  0  0  0  0  0  0  0  0  0  0
   18.4390  -26.1780   35.7120 C   0  0  0  0  0  0  0  0  0  0  0  0
   19.6880  -26.5900   36.3540 C   0  0  0  0  0  0  0  0  0  0  0  0
   20.4730  -27.3640   35.8100 O   0  0  0  0  0  0  0  0  0  0  0  0
   19.9820  -26.0410   37.6970 C   0  0  0  0  0  0  0  0  0  0  0  0
   21.1580  -26.4470   38.2990 O   0  0  0  0  0  0  0  0  0  0  0  0
   19.2330  -23.2100   39.7470 C   0  0  0  0  0  0  0  0  0  0  0  0
   19.4340  -22.6210   40.9990 C   0  0  0  0  0  0  0  0  0  0  0  0
   19.6910  -23.4010   42.1370 C   0  0  0  0  0  0  0  0  0  0  0  0
   19.8920  -22.8280   43.4080 N   0  0  0  0  0  0  0  0  0  0  0  0
   20.9040  -21.7500   43.4360 C   0  0  0  0  0  0  0  0  0  0  0  0
   21.1390  -21.2930   44.8950 C   0  0  0  0  0  0  0  0  0  0  0  0
   19.8920  -20.8370   45.5530 N   0  0  0  0  0  0  0  0  0  0  0  0
   20.1480  -20.4670   46.9430 C   0  0  0  0  0  0  0  0  0  0  0  0
   18.8810  -21.9190   45.4800 C   0  0  0  0  0  0  0  0  0  0  0  0
   18.6210  -22.3970   44.0310 C   0  0  0  0  0  0  0  0  0  0  0  0
   21.0949  -27.5118   43.6494 H   0  0  0  0  0  0  0  0  0  0  0  0
   20.1047  -27.6070   42.1536 H   0  0  0  0  0  0  0  0  0  0  0  0
   21.6453  -26.6832   42.1536 H   0  0  0  0  0  0  0  0  0  0  0  0
   19.0606  -26.0062   43.6313 H   0  0  0  0  0  0  0  0  0  0  0  0
   20.6458  -25.1579   43.8825 H   0  0  0  0  0  0  0  0  0  0  0  0
   19.5840  -26.4758   40.6212 H   0  0  0  0  0  0  0  0  0  0  0  0
   15.7437  -24.1952   36.3727 H   0  0  0  0  0  0  0  0  0  0  0  0
   15.0960  -25.0142   34.1047 H   0  0  0  0  0  0  0  0  0  0  0  0
   16.5948  -26.5811   32.8679 H   0  0  0  0  0  0  0  0  0  0  0  0
   19.0580  -27.2930   32.8180 H   0  0  0  0  0  0  0  0  0  0  0  0
   21.2020  -26.5370   39.2300 H   0  0  0  0  0  0  0  0  0  0  0  0
   19.0403  -22.5729   38.8713 H   0  0  0  0  0  0  0  0  0  0  0  0
   19.3899  -21.5260   41.0938 H   0  0  0  0  0  0  0  0  0  0  0  0
   21.8482  -22.1239   43.0134 H   0  0  0  0  0  0  0  0  0  0  0  0
   20.5447  -20.8976   42.8408 H   0  0  0  0  0  0  0  0  0  0  0  0
   21.5519  -22.1369   45.4672 H   0  0  0  0  0  0  0  0  0  0  0  0
   21.8357  -20.4421   44.8714 H   0  0  0  0  0  0  0  0  0  0  0  0
   19.5380  -20.0110   45.0700 H   0  0  0  0  0  0  0  0  0  0  0  0
   19.6508  -21.1855   47.6112 H   0  0  0  0  0  0  0  0  0  0  0  0
   21.2315  -20.4795   47.1322 H   0  0  0  0  0  0  0  0  0  0  0  0
   19.7544  -19.4574   47.1322 H   0  0  0  0  0  0  0  0  0  0  0  0
   19.2368  -22.7737   46.0740 H   0  0  0  0  0  0  0  0  0  0  0  0
   17.9351  -21.5168   45.8719 H   0  0  0  0  0  0  0  0  0  0  0  0
   17.9171  -23.2422   44.0464 H   0  0  0  0  0  0  0  0  0  0  0  0
   18.1938  -21.5684   43.4471 H   0  0  0  0  0  0  0  0  0  0  0  0
  1  2  1  0
  2  3  1  0
  3  4  2  0
  4  5  1  0
  5  6  1  0
  6  7  1  0
  7  8  1  0
  8  9  2  0
  9 10  1  0
 10 11  2  0
 11 12  1  0
 12 13  1  0
 12 14  2  0
 14 15  1  0
 15 16  2  0
 15 17  1  0
 17 18  1  0
  5 19  2  0
 19 20  1  0
 20 21  2  0
 21 22  1  0
 22 23  1  0
 23 24  1  0
 24 25  1  0
 25 26  1  0
 25 27  1  0
 27 28  1  0
 21  3  1  0
 28 22  1  0
 17  6  2  0
 14  8  1  0
  1 29  1  0
  1 30  1  0
  1 31  1  0
  2 32  1  0
  2 33  1  0
  4 34  1  0
  9 35  1  0
 10 36  1  0
 11 37  1  0
 13 38  1  0
 18 39  1  0
 19 40  1  0
 20 41  1  0
 23 42  1  0
 23 43  1  0
 24 44  1  0
 24 45  1  0
 25 46  1  0
 26 47  1  0
 26 48  1  0
 26 49  1  0
 27 50  1  0
 27 51  1  0
 28 52  1  0
 28 53  1  0
M  CHG  1  25   1
M  END
>  <meeko>  (7) 
{"is_sidechain": [false], "free_energy": -6.954, "intermolecular_energy": -8.659, "internal_energy": -0.49}

$$$$
cand_025_out
     RDKit          3D

 53 56  0  0  0  0  0  0  0  0999 V2000
   22.2550  -27.5930   42.0800 C   0  0  0  0  0  0  0  0  0  0  0  0
   20.7450  -27.5770   42.2630 C   0  0  0  0  0  0  0  0  0  0  0  0
   20.1950  -26.1680   42.3070 C   0  0  0  0  0  0  0  0  0  0  0  0
   20.1810  -25.4860   43.5410 C   0  0  0  0  0  0  0  0  0  0  0  0
   19.6780  -24.1840   43.6530 C   0  0  0  0  0  0  0  0  0  0  0  0
   19.6370  -23.4740   44.9480 C   0  0  0  0  0  0  0  0  0  0  0  0
   20.8990  -23.2670   45.4920 O   0  0  0  0  0  0  0  0  0  0  0  0
   21.0060  -22.6160   46.6950 C   0  0  0  0  0  0  0  0  0  0  0  0
   22.2920  -22.4160   47.1950 C   0  0  0  0  0  0  0  0  0  0  0  0
   22.4720  -21.7620   48.4170 C   0  0  0  0  0  0  0  0  0  0  0  0
   21.3640  -21.3080   49.1350 C   0  0  0  0  0  0  0  0  0  0  0  0
   20.0810  -21.5080   48.6330 C   0  0  0  0  0  0  0  0  0  0  0  0
   19.0420  -21.0390   49.3890 O   0  0  0  0  0  0  0  0  0  0  0  0
   19.9030  -22.1630   47.4120 C   0  0  0  0  0  0  0  0  0  0  0  0
   18.5710  -22.3940   46.8480 C   0  0  0  0  0  0  0  0  0  0  0  0
   17.5490  -22.0300   47.4250 O   0  0  0  0  0  0  0  0  0  0  0  0
   18.4910  -23.0900   45.5430 C   0  0  0  0  0  0  0  0  0  0  0  0
   17.2290  -23.3140   45.0270 O   0  0  0  0  0  0  0  0  0  0  0  0
   19.1660  -23.5710   42.5050 C   0  0  0  0  0  0  0  0  0  0  0  0
   19.1670  -24.2390   41.2770 C   0  0  0  0  0  0  0  0  0  0  0  0
   19.6720  -25.5430   41.1570 C   0  0  0  0  0  0  0  0  0  0  0  0
   19.6870  -26.2310   39.9290 N   0  0  0  0  0  0  0  0  0  0  0  0
   18.5430  -27.1470   39.7310 C   0  0  0  0  0  0  0  0  0  0  0  0
   18.7340  -27.9450   38.4200 C   0  0  0  0  0  0  0  0  0  0  0  0
   18.8890  -27.0630   37.2380 N   0  0  0  0  0  0  0  0  0  0  0  0
   19.1210  -27.8540   36.0320 C   0  0  0  0  0  0  0  0  0  0  0  0
   20.0170  -26.1300   37.4740 C   0  0  0  0  0  0  0  0  0  0  0  0
   19.8540  -25.3140   38.7790 C   0  0  0  0  0  0  0  0  0  0  0  0
   22.7437  -27.5982   43.0654 H   0  0  0  0  0  0  0  0  0  0  0  0
   22.5471  -28.4943   41.5211 H   0  0  0  0  0  0  0  0  0  0  0  0
   22.5661  -26.6981   41.5211 H   0  0  0  0  0  0  0  0  0  0  0  0
   20.2796  -28.1140   41.4233 H   0  0  0  0  0  0  0  0  0  0  0  0
   20.5135  -28.0626   43.2225 H   0  0  0  0  0  0  0  0  0  0  0  0
   20.5745  -25.9886   44.4369 H   0  0  0  0  0  0  0  0  0  0  0  0
   23.1645  -22.7727   46.6280 H   0  0  0  0  0  0  0  0  0  0  0  0
   23.4862  -21.6050   48.8129 H   0  0  0  0  0  0  0  0  0  0  0  0
   21.5047  -20.7927   50.0966 H   0  0  0  0  0  0  0  0  0  0  0  0
   19.1440  -20.9380   50.3150 H   0  0  0  0  0  0  0  0  0  0  0  0
   16.5160  -22.7580   45.2730 H   0  0  0  0  0  0  0  0  0  0  0  0
   18.7578  -22.5515   42.5691 H   0  0  0  0  0  0  0  0  0  0  0  0
   18.7641  -23.7327   40.3874 H   0  0  0  0  0  0  0  0  0  0  0  0
   18.4831  -27.8455   40.5786 H   0  0  0  0  0  0  0  0  0  0  0  0
   17.6142  -26.5610   39.6684 H   0  0  0  0  0  0  0  0  0  0  0  0
   19.6344  -28.5698   38.5149 H   0  0  0  0  0  0  0  0  0  0  0  0
   17.8329  -28.5567   38.2658 H   0  0  0  0  0  0  0  0  0  0  0  0
   18.0310  -26.5280   37.1020 H   0  0  0  0  0  0  0  0  0  0  0  0
   19.4202  -28.8741   36.3145 H   0  0  0  0  0  0  0  0  0  0  0  0
   18.1969  -27.8945   35.4367 H   0  0  0  0  0  0  0  0  0  0  0  0
   19.9206  -27.3890   35.4367 H   0  0  0  0  0  0  0  0  0  0  0  0
   20.9481  -26.7123   37.5370 H   0  0  0  0  0  0  0  0  0  0  0  0
   20.0392  -25.4169   36.6368 H   0  0  0  0  0  0  0  0  0  0  0  0
   20.7483  -24.6927   38.9348 H   0  0  0  0  0  0  0  0  0  0  0  0
   18.9649  -24.6717   38.6959 H   0  0  0  0  0  0  0  0  0  0  0  0
  1  2  1  0
  2  3  1  0
  3  4  2  0
  4  5  1  0
  5  6  1  0
  6  7  1  0
  7  8  1  0
  8  9  2  0
  9 10  1  0
 10 11  2  0
 11 12  1  0
 12 13  1  0
 12 14  2  0
 14 15  1  0
 15 16  2  0
 15 17  1  0
 17 18  1  0
  5 19  2  0
 19 20  1  0
 20 21  2  0
 21 22  1  0
 22 23  1  0
 23 24  1  0
 24 25  1  0
 25 26  1  0
 25 27  1  0
 27 28  1  0
 21  3  1  0
 28 22  1  0
 17  6  2  0
 14  8  1  0
  1 29  1  0
  1 30  1  0
  1 31  1  0
  2 32  1  0
  2 33  1  0
  4 34  1  0
  9 35  1  0
 10 36  1  0
 11 37  1  0
 13 38  1  0
 18 39  1  0
 19 40  1  0
 20 41  1  0
 23 42  1  0
 23 43  1  0
 24 44  1  0
 24 45  1  0
 25 46  1  0
 26 47  1  0
 26 48  1  0
 26 49  1  0
 27 50  1  0
 27 51  1  0
 28 52  1  0
 28 53  1  0
M  CHG  1  25   1
M  END
>  <meeko>  (8) 
{"is_sidechain": [false], "free_energy": -6.9, "intermolecular_energy": -8.665, "internal_energy": -0.418}

$$$$
cand_025_out
     RDKit          3D

 53 56  0  0  0  0  0  0  0  0999 V2000
   20.5730  -24.4000   47.2170 C   0  0  0  0  0  0  0  0  0  0  0  0
   19.2990  -23.8400   46.6030 C   0  0  0  0  0  0  0  0  0  0  0  0
   19.4970  -23.4340   45.1590 C   0  0  0  0  0  0  0  0  0  0  0  0
   19.4830  -24.4360   44.1680 C   0  0  0  0  0  0  0  0  0  0  0  0
   19.6690  -24.1310   42.8140 C   0  0  0  0  0  0  0  0  0  0  0  0
   19.6800  -25.1800   41.7730 C   0  0  0  0  0  0  0  0  0  0  0  0
   18.8800  -24.8660   40.6800 O   0  0  0  0  0  0  0  0  0  0  0  0
   18.8010  -25.7530   39.6380 C   0  0  0  0  0  0  0  0  0  0  0  0
   18.0000  -25.3910   38.5560 C   0  0  0  0  0  0  0  0  0  0  0  0
   17.8730  -26.2510   37.4620 C   0  0  0  0  0  0  0  0  0  0  0  0
   18.5490  -27.4730   37.4530 C   0  0  0  0  0  0  0  0  0  0  0  0
   19.3490  -27.8330   38.5340 C   0  0  0  0  0  0  0  0  0  0  0  0
   19.9810  -29.0430   38.4590 O   0  0  0  0  0  0  0  0  0  0  0  0
   19.4750  -26.9720   39.6270 C   0  0  0  0  0  0  0  0  0  0  0  0
   20.3050  -27.3110   40.7840 C   0  0  0  0  0  0  0  0  0  0  0  0
   20.9240  -28.3710   40.8510 O   0  0  0  0  0  0  0  0  0  0  0  0
   20.3780  -26.3260   41.8880 C   0  0  0  0  0  0  0  0  0  0  0  0
   21.1540  -26.6620   42.9800 O   0  0  0  0  0  0  0  0  0  0  0  0
   19.8900  -22.7960   42.4610 C   0  0  0  0  0  0  0  0  0  0  0  0
   19.9130  -21.7930   43.4350 C   0  0  0  0  0  0  0  0  0  0  0  0
   19.7260  -22.0920   44.7930 C   0  0  0  0  0  0  0  0  0  0  0  0
   19.7410  -21.0970   45.7890 N   0  0  0  0  0  0  0  0  0  0  0  0
   21.0800  -20.5300   46.0610 C   0  0  0  0  0  0  0  0  0  0  0  0
   21.0000  -19.5530   47.2580 C   0  0  0  0  0  0  0  0  0  0  0  0
   20.0220  -18.4620   47.0330 N   0  0  0  0  0  0  0  0  0  0  0  0
   19.9380  -17.5960   48.2070 C   0  0  0  0  0  0  0  0  0  0  0  0
   18.6970  -19.0540   46.7260 C   0  0  0  0  0  0  0  0  0  0  0  0
   18.7440  -20.0350   45.5300 C   0  0  0  0  0  0  0  0  0  0  0  0
   20.4969  -24.3665   48.3139 H   0  0  0  0  0  0  0  0  0  0  0  0
   20.7103  -25.4414   46.8906 H   0  0  0  0  0  0  0  0  0  0  0  0
   21.4331  -23.7970   46.8906 H   0  0  0  0  0  0  0  0  0  0  0  0
   18.5137  -24.6088   46.6513 H   0  0  0  0  0  0  0  0  0  0  0  0
   19.0132  -22.9431   47.1721 H   0  0  0  0  0  0  0  0  0  0  0  0
   19.3221  -25.4828   44.4653 H   0  0  0  0  0  0  0  0  0  0  0  0
   17.4679  -24.4283   38.5634 H   0  0  0  0  0  0  0  0  0  0  0  0
   17.2408  -25.9656   36.6082 H   0  0  0  0  0  0  0  0  0  0  0  0
   18.4494  -28.1507   36.5923 H   0  0  0  0  0  0  0  0  0  0  0  0
   20.8370  -29.1020   38.0800 H   0  0  0  0  0  0  0  0  0  0  0  0
   21.2520  -27.5610   43.2270 H   0  0  0  0  0  0  0  0  0  0  0  0
   20.0476  -22.5319   41.4049 H   0  0  0  0  0  0  0  0  0  0  0  0
   20.0810  -20.7494   43.1307 H   0  0  0  0  0  0  0  0  0  0  0  0
   21.7801  -21.3442   46.2999 H   0  0  0  0  0  0  0  0  0  0  0  0
   21.4332  -19.9877   45.1715 H   0  0  0  0  0  0  0  0  0  0  0  0
   20.7008  -20.1162   48.1542 H   0  0  0  0  0  0  0  0  0  0  0  0
   21.9917  -19.0937   47.3827 H   0  0  0  0  0  0  0  0  0  0  0  0
   20.3280  -17.8920   46.2450 H   0  0  0  0  0  0  0  0  0  0  0  0
   19.9974  -18.2080   49.1191 H   0  0  0  0  0  0  0  0  0  0  0  0
   20.7707  -16.8773   48.1928 H   0  0  0  0  0  0  0  0  0  0  0  0
   18.9828  -17.0507   48.1928 H   0  0  0  0  0  0  0  0  0  0  0  0
   18.3403  -19.5976   47.6133 H   0  0  0  0  0  0  0  0  0  0  0  0
   18.0201  -18.2307   46.4541 H   0  0  0  0  0  0  0  0  0  0  0  0
   17.7524  -20.4911   45.3931 H   0  0  0  0  0  0  0  0  0  0  0  0
   19.0287  -19.4847   44.6211 H   0  0  0  0  0  0  0  0  0  0  0  0
  1  2  1  0
  2  3  1  0
  3  4  2  0
  4  5  1  0
  5  6  1  0
  6  7  1  0
  7  8  1  0
  8  9  2  0
  9 10  1  0
 10 11  2  0
 11 12  1  0
 12 13  1  0
 12 14  2  0
 14 15  1  0
 15 16  2  0
 15 17  1  0
 17 18  1  0
  5 19  2  0
 19 20  1  0
 20 21  2  0
 21 22  1  0
 22 23  1  0
 23 24  1  0
 24 25  1  0
 25 26  1  0
 25 27  1  0
 27 28  1  0
 21  3  1  0
 28 22  1  0
 17  6  2  0
 14  8  1  0
  1 29  1  0
  1 30  1  0
  1 31  1  0
  2 32  1  0
  2 33  1  0
  4 34  1  0
  9 35  1  0
 10 36  1  0
 11 37  1  0
 13 38  1  0
 18 39  1  0
 19 40  1  0
 20 41  1  0
 23 42  1  0
 23 43  1  0
 24 44  1  0
 24 45  1  0
 25 46  1  0
 26 47  1  0
 26 48  1  0
 26 49  1  0
 27 50  1  0
 27 51  1  0
 28 52  1  0
 28 53  1  0
M  CHG  1  25   1
M  END
>  <meeko>  (9) 
{"is_sidechain": [false], "free_energy": -6.677, "intermolecular_energy": -8.347, "internal_energy": -0.461}

$$$$
