cand_004_out
     RDKit          3D

 38 40  0  0  0  0  0  0  0  0999 V2000
   22.2140  -27.6590   41.7590 C   0  0  0  0  0  0  0  0  0  0  0  0
   20.7650  -27.2050   41.8540 C   0  0  0  0  0  0  0  0  0  0  0  0
   20.0160  -27.4290   40.5570 C   0  0  0  0  0  0  0  0  0  0  0  0
   20.0250  -28.7250   40.0020 C   0  0  0  0  0  0  0  0  0  0  0  0
   19.3770  -29.0170   38.7920 C   0  0  0  0  0  0  0  0  0  0  0  0
   19.3680  -30.3800   38.2240 C   0  0  0  0  0  0  0  0  0  0  0  0
   18.9460  -31.3420   39.1340 O   0  0  0  0  0  0  0  0  0  0  0  0
   18.8910  -32.6540   38.7340 C   0  0  0  0  0  0  0  0  0  0  0  0
   18.4770  -33.5880   39.6840 C   0  0  0  0  0  0  0  0  0  0  0  0
   18.3960  -34.9400   39.3420 C   0  0  0  0  0  0  0  0  0  0  0  0
   18.7300  -35.3570   38.0510 C   0  0  0  0  0  0  0  0  0  0  0  0
   19.1430  -34.4220   37.1060 C   0  0  0  0  0  0  0  0  0  0  0  0
   19.4540  -34.8990   35.8620 O   0  0  0  0  0  0  0  0  0  0  0  0
   19.2240  -33.0700   37.4480 C   0  0  0  0  0  0  0  0  0  0  0  0
   19.6530  -32.0550   36.4850 C   0  0  0  0  0  0  0  0  0  0  0  0
   19.9570  -32.3420   35.3280 O   0  0  0  0  0  0  0  0  0  0  0  0
   19.7120  -30.6510   36.9500 C   0  0  0  0  0  0  0  0  0  0  0  0
   20.1060  -29.6980   36.0290 O   0  0  0  0  0  0  0  0  0  0  0  0
   18.6950  -27.9840   38.1400 C   0  0  0  0  0  0  0  0  0  0  0  0
   18.6770  -26.6920   38.6740 C   0  0  0  0  0  0  0  0  0  0  0  0
   19.3390  -26.3930   39.8790 C   0  0  0  0  0  0  0  0  0  0  0  0
   19.2830  -24.9760   40.4140 C   0  0  0  0  0  0  0  0  0  0  0  0
   18.6480  -24.8840   41.6150 F   0  0  0  0  0  0  0  0  0  0  0  0
   18.6280  -24.1270   39.5740 F   0  0  0  0  0  0  0  0  0  0  0  0
   20.5130  -24.4210   40.6110 F   0  0  0  0  0  0  0  0  0  0  0  0
   22.6250  -27.7878   42.7712 H   0  0  0  0  0  0  0  0  0  0  0  0
   22.2638  -28.6158   41.2186 H   0  0  0  0  0  0  0  0  0  0  0  0
   22.8009  -26.9017   41.2186 H   0  0  0  0  0  0  0  0  0  0  0  0
   20.2668  -27.7714   42.6546 H   0  0  0  0  0  0  0  0  0  0  0  0
   20.7595  -26.1261   42.0685 H   0  0  0  0  0  0  0  0  0  0  0  0
   20.5549  -29.5299   40.5324 H   0  0  0  0  0  0  0  0  0  0  0  0
   18.2148  -33.2603   40.7008 H   0  0  0  0  0  0  0  0  0  0  0  0
   18.0689  -35.6772   40.0900 H   0  0  0  0  0  0  0  0  0  0  0  0
   18.6667  -36.4217   37.7819 H   0  0  0  0  0  0  0  0  0  0  0  0
   20.3340  -34.8460   35.5460 H   0  0  0  0  0  0  0  0  0  0  0  0
   19.8700  -28.7990   36.1540 H   0  0  0  0  0  0  0  0  0  0  0  0
   18.1673  -28.1905   37.1972 H   0  0  0  0  0  0  0  0  0  0  0  0
   18.1358  -25.8952   38.1427 H   0  0  0  0  0  0  0  0  0  0  0  0
  1  2  1  0
  2  3  1  0
  3  4  2  0
  4  5  1  0
  5  6  1  0
  6  7  1  0
  7  8  1  0
  8  9  2  0
  9 10  1  0
 10 11  2  0
 11 12  1  0
 12 13  1  0
 12 14  2  0
 14 15  1  0
 15 16  2  0
 15 17  1  0
 17 18  1  0
  5 19  2  0
 19 20  1  0
 20 21  2  0
 21 22  1  0
 22 23  1  0
 22 24  1  0
 22 25  1  0
 21  3  1  0
 17  6  2  0
 14  8  1  0
  1 26  1  0
  1 27  1  0
  1 28  1  0
  2 29  1  0
  2 30  1  0
  4 31  1  0
  9 32  1  0
 10 33  1  0
 11 34  1  0
 13 35  1  0
 18 36  1  0
 19 37  1  0
 20 38  1  0
M  END
>  <meeko>  (1) 
{"is_sidechain": [false], "free_energy": -8.148, "intermolecular_energy": -10.054, "internal_energy": -0.425}

$$$$
cand_004_out
     RDKit          3D

 38 40  0  0  0  0  0  0  0  0999 V2000
   18.5780  -33.6220   39.7290 C   0  0  0  0  0  0  0  0  0  0  0  0
   18.9520  -34.1730   38.3610 C   0  0  0  0  0  0  0  0  0  0  0  0
   19.3400  -33.0730   37.3960 C   0  0  0  0  0  0  0  0  0  0  0  0
   19.3420  -31.7450   37.8710 C   0  0  0  0  0  0  0  0  0  0  0  0
   19.6660  -30.6620   37.0410 C   0  0  0  0  0  0  0  0  0  0  0  0
   19.6900  -29.2740   37.5460 C   0  0  0  0  0  0  0  0  0  0  0  0
   20.0220  -29.1950   38.8930 O   0  0  0  0  0  0  0  0  0  0  0  0
   20.0800  -27.9610   39.4900 C   0  0  0  0  0  0  0  0  0  0  0  0
   20.4020  -27.9290   40.8480 C   0  0  0  0  0  0  0  0  0  0  0  0
   20.4800  -26.7050   41.5170 C   0  0  0  0  0  0  0  0  0  0  0  0
   20.2360  -25.5150   40.8280 C   0  0  0  0  0  0  0  0  0  0  0  0
   19.9150  -25.5500   39.4740 C   0  0  0  0  0  0  0  0  0  0  0  0
   19.6900  -24.3470   38.8620 O   0  0  0  0  0  0  0  0  0  0  0  0
   19.8370  -26.7740   38.8060 C   0  0  0  0  0  0  0  0  0  0  0  0
   19.5020  -26.8560   37.3830 C   0  0  0  0  0  0  0  0  0  0  0  0
   19.2810  -25.8520   36.7070 O   0  0  0  0  0  0  0  0  0  0  0  0
   19.4370  -28.2020   36.7710 C   0  0  0  0  0  0  0  0  0  0  0  0
   19.1340  -28.2680   35.4240 O   0  0  0  0  0  0  0  0  0  0  0  0
   20.0090  -30.9270   35.7110 C   0  0  0  0  0  0  0  0  0  0  0  0
   20.0110  -32.2360   35.2210 C   0  0  0  0  0  0  0  0  0  0  0  0
   19.6720  -33.3230   36.0470 C   0  0  0  0  0  0  0  0  0  0  0  0
   19.6940  -34.7220   35.4660 C   0  0  0  0  0  0  0  0  0  0  0  0
   18.5680  -35.4340   35.7460 F   0  0  0  0  0  0  0  0  0  0  0  0
   20.7360  -35.4650   35.9320 F   0  0  0  0  0  0  0  0  0  0  0  0
   19.8090  -34.7430   34.1070 F   0  0  0  0  0  0  0  0  0  0  0  0
   19.0116  -34.2607   40.5126 H   0  0  0  0  0  0  0  0  0  0  0  0
   18.9691  -32.5990   39.8317 H   0  0  0  0  0  0  0  0  0  0  0  0
   17.4829  -33.6079   39.8317 H   0  0  0  0  0  0  0  0  0  0  0  0
   19.8019  -34.8619   38.4753 H   0  0  0  0  0  0  0  0  0  0  0  0
   18.0732  -34.6920   37.9507 H   0  0  0  0  0  0  0  0  0  0  0  0
   19.0820  -31.5533   38.9225 H   0  0  0  0  0  0  0  0  0  0  0  0
   20.5941  -28.8664   41.3906 H   0  0  0  0  0  0  0  0  0  0  0  0
   20.7337  -26.6786   42.5870 H   0  0  0  0  0  0  0  0  0  0  0  0
   20.2974  -24.5512   41.3547 H   0  0  0  0  0  0  0  0  0  0  0  0
   20.2090  -23.6020   39.0890 H   0  0  0  0  0  0  0  0  0  0  0  0
   19.2350  -29.0760   34.9590 H   0  0  0  0  0  0  0  0  0  0  0  0
   20.2802  -30.0959   35.0433 H   0  0  0  0  0  0  0  0  0  0  0  0
   20.2825  -32.4194   34.1709 H   0  0  0  0  0  0  0  0  0  0  0  0
  1  2  1  0
  2  3  1  0
  3  4  2  0
  4  5  1  0
  5  6  1  0
  6  7  1  0
  7  8  1  0
  8  9  2  0
  9 10  1  0
 10 11  2  0
 11 12  1  0
 12 13  1  0
 12 14  2  0
 14 15  1  0
 15 16  2  0
 15 17  1  0
 17 18  1  0
  5 19  2  0
 19 20  1  0
 20 21  2  0
 21 22  1  0
 22 23  1  0
 22 24  1  0
 22 25  1  0
 21  3  1  0
 17  6  2  0
 14  8  1  0
  1 26  1  0
  1 27  1  0
  1 28  1  0
  2 29  1  0
  2 30  1  0
  4 31  1  0
  9 32  1  0
 10 33  1  0
 11 34  1  0
 13 35  1  0
 18 36  1  0
 19 37  1  0
 20 38  1  0
M  END
>  <meeko>  (2) 
{"is_sidechain": [false], "free_energy": -7.745, "intermolecular_energy": -9.917, "internal_energy": -0.064}

$$$$
cand_004_out
     RDKit          3D

 38 40  0  0  0  0  0  0  0  0999 V2000
   20.3350  -29.9710   34.5310 C   0  0  0  0  0  0  0  0  0  0  0  0
   20.3550  -31.3770   35.1130 C   0  0  0  0  0  0  0  0  0  0  0  0
   19.8130  -31.4110   36.5260 C   0  0  0  0  0  0  0  0  0  0  0  0
   19.7420  -30.1960   37.2390 C   0  0  0  0  0  0  0  0  0  0  0  0
   19.2740  -30.1390   38.5590 C   0  0  0  0  0  0  0  0  0  0  0  0
   19.1790  -28.8620   39.2970 C   0  0  0  0  0  0  0  0  0  0  0  0
   20.0760  -28.7810   40.3550 O   0  0  0  0  0  0  0  0  0  0  0  0
   20.0940  -27.6460   41.1240 C   0  0  0  0  0  0  0  0  0  0  0  0
   20.9990  -27.6130   42.1860 C   0  0  0  0  0  0  0  0  0  0  0  0
   21.0700  -26.4850   43.0070 C   0  0  0  0  0  0  0  0  0  0  0  0
   20.2350  -25.3920   42.7670 C   0  0  0  0  0  0  0  0  0  0  0  0
   19.3320  -25.4270   41.7080 C   0  0  0  0  0  0  0  0  0  0  0  0
   18.5460  -24.3220   41.5300 O   0  0  0  0  0  0  0  0  0  0  0  0
   19.2620  -26.5550   40.8860 C   0  0  0  0  0  0  0  0  0  0  0  0
   18.3280  -26.6340   39.7630 C   0  0  0  0  0  0  0  0  0  0  0  0
   17.5660  -25.7090   39.4830 O   0  0  0  0  0  0  0  0  0  0  0  0
   18.3260  -27.8760   38.9580 C   0  0  0  0  0  0  0  0  0  0  0  0
   17.4500  -27.9360   37.8910 O   0  0  0  0  0  0  0  0  0  0  0  0
   18.8560  -31.3280   39.1660 C   0  0  0  0  0  0  0  0  0  0  0  0
   18.9210  -32.5420   38.4770 C   0  0  0  0  0  0  0  0  0  0  0  0
   19.4040  -32.6060   37.1570 C   0  0  0  0  0  0  0  0  0  0  0  0
   19.4490  -33.9480   36.4560 C   0  0  0  0  0  0  0  0  0  0  0  0
   20.2150  -33.9370   35.3300 F   0  0  0  0  0  0  0  0  0  0  0  0
   18.2150  -34.3760   36.0690 F   0  0  0  0  0  0  0  0  0  0  0  0
   19.9570  -34.9490   37.2310 F   0  0  0  0  0  0  0  0  0  0  0  0
   20.3245  -29.2357   35.3490 H   0  0  0  0  0  0  0  0  0  0  0  0
   21.2311  -29.8178   33.9116 H   0  0  0  0  0  0  0  0  0  0  0  0
   19.4349  -29.8433   33.9116 H   0  0  0  0  0  0  0  0  0  0  0  0
   19.7390  -32.0327   34.4800 H   0  0  0  0  0  0  0  0  0  0  0  0
   21.3999  -31.7197   35.1404 H   0  0  0  0  0  0  0  0  0  0  0  0
   20.0630  -29.2670   36.7452 H   0  0  0  0  0  0  0  0  0  0  0  0
   21.6559  -28.4746   42.3764 H   0  0  0  0  0  0  0  0  0  0  0  0
   21.7842  -26.4579   43.8431 H   0  0  0  0  0  0  0  0  0  0  0  0
   20.2906  -24.5041   43.4140 H   0  0  0  0  0  0  0  0  0  0  0  0
   17.9050  -24.0940   42.1730 H   0  0  0  0  0  0  0  0  0  0  0  0
   17.7580  -27.7720   37.0210 H   0  0  0  0  0  0  0  0  0  0  0  0
   18.4721  -31.3071   40.1966 H   0  0  0  0  0  0  0  0  0  0  0  0
   18.5885  -33.4644   38.9757 H   0  0  0  0  0  0  0  0  0  0  0  0
  1  2  1  0
  2  3  1  0
  3  4  2  0
  4  5  1  0
  5  6  1  0
  6  7  1  0
  7  8  1  0
  8  9  2  0
  9 10  1  0
 10 11  2  0
 11 12  1  0
 12 13  1  0
 12 14  2  0
 14 15  1  0
 15 16  2  0
 15 17  1  0
 17 18  1  0
  5 19  2  0
 19 20  1  0
 20 21  2  0
 21 22  1  0
 22 23  1  0
 22 24  1  0
 22 25  1  0
 21  3  1  0
 17  6  2  0
 14  8  1  0
  1 26  1  0
  1 27  1  0
  1 28  1  0
  2 29  1  0
  2 30  1  0
  4 31  1  0
  9 32  1  0
 10 33  1  0
 11 34  1  0
 13 35  1  0
 18 36  1  0
 19 37  1  0
 20 38  1  0
M  END
>  <meeko>  (3) 
{"is_sidechain": [false], "free_energy": -7.672, "intermolecular_energy": -9.79, "internal_energy": -0.101}

$$$$
cand_004_out
     RDKit          3D

 38 40  0  0  0  0  0  0  0  0999 V2000
   20.1390  -32.1030   34.6200 C   0  0  0  0  0  0  0  0  0  0  0  0
   19.6500  -33.1430   35.6170 C   0  0  0  0  0  0  0  0  0  0  0  0
   19.4940  -32.5630   37.0070 C   0  0  0  0  0  0  0  0  0  0  0  0
   19.5680  -31.1620   37.1530 C   0  0  0  0  0  0  0  0  0  0  0  0
   19.4560  -30.5420   38.4060 C   0  0  0  0  0  0  0  0  0  0  0  0
   19.5120  -29.0730   38.5550 C   0  0  0  0  0  0  0  0  0  0  0  0
   19.6180  -28.6680   39.8800 O   0  0  0  0  0  0  0  0  0  0  0  0
   19.6790  -27.3270   40.1610 C   0  0  0  0  0  0  0  0  0  0  0  0
   19.7690  -26.9640   41.5050 C   0  0  0  0  0  0  0  0  0  0  0  0
   19.8370  -25.6140   41.8600 C   0  0  0  0  0  0  0  0  0  0  0  0
   19.8140  -24.6290   40.8700 C   0  0  0  0  0  0  0  0  0  0  0  0
   19.7250  -24.9940   39.5290 C   0  0  0  0  0  0  0  0  0  0  0  0
   19.7090  -23.9780   38.6130 O   0  0  0  0  0  0  0  0  0  0  0  0
   19.6570  -26.3440   39.1750 C   0  0  0  0  0  0  0  0  0  0  0  0
   19.5620  -26.7700   37.7790 C   0  0  0  0  0  0  0  0  0  0  0  0
   19.5440  -25.9630   36.8510 O   0  0  0  0  0  0  0  0  0  0  0  0
   19.4870  -28.2240   37.5100 C   0  0  0  0  0  0  0  0  0  0  0  0
   19.4110  -28.6180   36.1870 O   0  0  0  0  0  0  0  0  0  0  0  0
   19.2510  -31.3500   39.5290 C   0  0  0  0  0  0  0  0  0  0  0  0
   19.1760  -32.7400   39.4040 C   0  0  0  0  0  0  0  0  0  0  0  0
   19.3030  -33.3670   38.1510 C   0  0  0  0  0  0  0  0  0  0  0  0
   19.2100  -34.8770   38.0730 C   0  0  0  0  0  0  0  0  0  0  0  0
   19.1060  -35.4690   39.2950 F   0  0  0  0  0  0  0  0  0  0  0  0
   20.2980  -35.4360   37.4740 F   0  0  0  0  0  0  0  0  0  0  0  0
   18.1340  -35.3190   37.3620 F   0  0  0  0  0  0  0  0  0  0  0  0
   20.5460  -31.2373   35.1631 H   0  0  0  0  0  0  0  0  0  0  0  0
   20.9250  -32.5420   33.9880 H   0  0  0  0  0  0  0  0  0  0  0  0
   19.2995  -31.7777   33.9880 H   0  0  0  0  0  0  0  0  0  0  0  0
   18.6758  -33.5276   35.2807 H   0  0  0  0  0  0  0  0  0  0  0  0
   20.3987  -33.9475   35.6653 H   0  0  0  0  0  0  0  0  0  0  0  0
   19.7177  -30.5384   36.2593 H   0  0  0  0  0  0  0  0  0  0  0  0
   19.7864  -27.7397   42.2847 H   0  0  0  0  0  0  0  0  0  0  0  0
   19.9087  -25.3271   42.9195 H   0  0  0  0  0  0  0  0  0  0  0  0
   19.8661  -23.5663   41.1492 H   0  0  0  0  0  0  0  0  0  0  0  0
   20.0740  -24.1100   37.7610 H   0  0  0  0  0  0  0  0  0  0  0  0
   18.8460  -29.3240   35.9390 H   0  0  0  0  0  0  0  0  0  0  0  0
   19.1477  -30.8866   40.5212 H   0  0  0  0  0  0  0  0  0  0  0  0
   19.0147  -33.3550   40.3017 H   0  0  0  0  0  0  0  0  0  0  0  0
  1  2  1  0
  2  3  1  0
  3  4  2  0
  4  5  1  0
  5  6  1  0
  6  7  1  0
  7  8  1  0
  8  9  2  0
  9 10  1  0
 10 11  2  0
 11 12  1  0
 12 13  1  0
 12 14  2  0
 14 15  1  0
 15 16  2  0
 15 17  1  0
 17 18  1  0
  5 19  2  0
 19 20  1  0
 20 21  2  0
 21 22  1  0
 22 23  1  0
 22 24  1  0
 22 25  1  0
 21  3  1  0
 17  6  2  0
 14  8  1  0
  1 26  1  0
  1 27  1  0
  1 28  1  0
  2 29  1  0
  2 30  1  0
  4 31  1  0
  9 32  1  0
 10 33  1  0
 11 34  1  0
 13 35  1  0
 18 36  1  0
 19 37  1  0
 20 38  1  0
M  END
>  <meeko>  (4) 
{"is_sidechain": [false], "free_energy": -7.509, "intermolecular_energy": -9.687, "internal_energy": -0.002}

$$$$
cand_004_out
     RDKit          3D

 38 40  0  0  0  0  0  0  0  0999 V2000
   18.7730  -24.7090   37.3410 C   0  0  0  0  0  0  0  0  0  0  0  0
   17.9970  -25.3610   38.4760 C   0  0  0  0  0  0  0  0  0  0  0  0
   18.7800  -26.4820   39.1260 C   0  0  0  0  0  0  0  0  0  0  0  0
   18.7390  -27.7560   38.5220 C   0  0  0  0  0  0  0  0  0  0  0  0
   19.4160  -28.8560   39.0690 C   0  0  0  0  0  0  0  0  0  0  0  0
   19.3900  -30.1850   38.4230 C   0  0  0  0  0  0  0  0  0  0  0  0
   18.9640  -31.1930   39.2800 O   0  0  0  0  0  0  0  0  0  0  0  0
   18.8930  -32.4790   38.8070 C   0  0  0  0  0  0  0  0  0  0  0  0
   18.4760  -33.4620   39.7060 C   0  0  0  0  0  0  0  0  0  0  0  0
   18.3790  -34.7920   39.2880 C   0  0  0  0  0  0  0  0  0  0  0  0
   18.7000  -35.1370   37.9730 C   0  0  0  0  0  0  0  0  0  0  0  0
   19.1160  -34.1540   37.0790 C   0  0  0  0  0  0  0  0  0  0  0  0
   19.4130  -34.5620   35.8080 O   0  0  0  0  0  0  0  0  0  0  0  0
   19.2120  -32.8240   37.4970 C   0  0  0  0  0  0  0  0  0  0  0  0
   19.6460  -31.7610   36.5900 C   0  0  0  0  0  0  0  0  0  0  0  0
   19.9380  -31.9840   35.4170 O   0  0  0  0  0  0  0  0  0  0  0  0
   19.7220  -30.3860   37.1340 C   0  0  0  0  0  0  0  0  0  0  0  0
   20.1190  -29.3860   36.2660 O   0  0  0  0  0  0  0  0  0  0  0  0
   20.1610  -28.6620   40.2360 C   0  0  0  0  0  0  0  0  0  0  0  0
   20.2120  -27.4070   40.8500 C   0  0  0  0  0  0  0  0  0  0  0  0
   19.5220  -26.3050   40.3130 C   0  0  0  0  0  0  0  0  0  0  0  0
   19.6160  -24.9660   41.0170 C   0  0  0  0  0  0  0  0  0  0  0  0
   20.2790  -24.0260   40.2900 F   0  0  0  0  0  0  0  0  0  0  0  0
   20.2670  -25.0490   42.2110 F   0  0  0  0  0  0  0  0  0  0  0  0
   18.4010  -24.4160   41.3010 F   0  0  0  0  0  0  0  0  0  0  0  0
   19.5522  -24.0543   37.7583 H   0  0  0  0  0  0  0  0  0  0  0  0
   19.2416  -25.4883   36.7221 H   0  0  0  0  0  0  0  0  0  0  0  0
   18.0861  -24.1131   36.7221 H   0  0  0  0  0  0  0  0  0  0  0  0
   17.7708  -24.5985   39.2358 H   0  0  0  0  0  0  0  0  0  0  0  0
   17.0748  -25.7890   38.0560 H   0  0  0  0  0  0  0  0  0  0  0  0
   18.1601  -27.8906   37.5964 H   0  0  0  0  0  0  0  0  0  0  0  0
   18.2242  -33.1903   40.7417 H   0  0  0  0  0  0  0  0  0  0  0  0
   18.0497  -35.5677   39.9950 H   0  0  0  0  0  0  0  0  0  0  0  0
   18.6242  -36.1840   37.6442 H   0  0  0  0  0  0  0  0  0  0  0  0
   18.8120  -34.3950   35.1090 H   0  0  0  0  0  0  0  0  0  0  0  0
   19.9550  -29.4700   35.3470 H   0  0  0  0  0  0  0  0  0  0  0  0
   20.7129  -29.5058   40.6758 H   0  0  0  0  0  0  0  0  0  0  0  0
   20.8022  -27.2790   41.7694 H   0  0  0  0  0  0  0  0  0  0  0  0
  1  2  1  0
  2  3  1  0
  3  4  2  0
  4  5  1  0
  5  6  1  0
  6  7  1  0
  7  8  1  0
  8  9  2  0
  9 10  1  0
 10 11  2  0
 11 12  1  0
 12 13  1  0
 12 14  2  0
 14 15  1  0
 15 16  2  0
 15 17  1  0
 17 18  1  0
  5 19  2  0
 19 20  1  0
 20 21  2  0
 21 22  1  0
 22 23  1  0
 22 24  1  0
 22 25  1  0
 21  3  1  0
 17  6  2  0
 14  8  1  0
  1 26  1  0
  1 27  1  0
  1 28  1  0
  2 29  1  0
  2 30  1  0
  4 31  1  0
  9 32  1  0
 10 33  1  0
 11 34  1  0
 13 35  1  0
 18 36  1  0
 19 37  1  0
 20 38  1  0
M  END
>  <meeko>  (5) 
{"is_sidechain": [false], "free_energy": -7.393, "intermolecular_energy": -9.058, "internal_energy": -0.489}

$$$$
cand_004_out
     RDKit          3D

 38 40  0  0  0  0  0  0  0  0999 V2000
   21.9790  -27.5200   41.7050 C   0  0  0  0  0  0  0  0  0  0  0  0
   20.4590  -27.5040   41.6350 C   0  0  0  0  0  0  0  0  0  0  0  0
   19.9580  -27.5840   40.2090 C   0  0  0  0  0  0  0  0  0  0  0  0
   19.9790  -28.8410   39.5680 C   0  0  0  0  0  0  0  0  0  0  0  0
   19.5540  -29.0020   38.2410 C   0  0  0  0  0  0  0  0  0  0  0  0
   19.5560  -30.3220   37.5790 C   0  0  0  0  0  0  0  0  0  0  0  0
   19.9610  -30.2600   36.2510 O   0  0  0  0  0  0  0  0  0  0  0  0
   20.0090  -31.4180   35.5170 C   0  0  0  0  0  0  0  0  0  0  0  0
   20.4060  -31.3070   34.1840 C   0  0  0  0  0  0  0  0  0  0  0  0
   20.4770  -32.4490   33.3810 C   0  0  0  0  0  0  0  0  0  0  0  0
   20.1510  -33.6990   33.9120 C   0  0  0  0  0  0  0  0  0  0  0  0
   19.7560  -33.8060   35.2420 C   0  0  0  0  0  0  0  0  0  0  0  0
   19.4520  -35.0600   35.6970 O   0  0  0  0  0  0  0  0  0  0  0  0
   19.6840  -32.6650   36.0450 C   0  0  0  0  0  0  0  0  0  0  0  0
   19.2720  -32.7330   37.4470 C   0  0  0  0  0  0  0  0  0  0  0  0
   18.9760  -33.7970   37.9890 O   0  0  0  0  0  0  0  0  0  0  0  0
   19.2210  -31.4640   38.2090 C   0  0  0  0  0  0  0  0  0  0  0  0
   18.8440  -31.5410   39.5370 O   0  0  0  0  0  0  0  0  0  0  0  0
   19.0860  -27.8770   37.5550 C   0  0  0  0  0  0  0  0  0  0  0  0
   19.0590  -26.6230   38.1720 C   0  0  0  0  0  0  0  0  0  0  0  0
   19.4980  -26.4550   39.4980 C   0  0  0  0  0  0  0  0  0  0  0  0
   19.4440  -25.0740   40.1190 C   0  0  0  0  0  0  0  0  0  0  0  0
   18.6140  -25.0060   41.1960 F   0  0  0  0  0  0  0  0  0  0  0  0
   19.0070  -24.1250   39.2450 F   0  0  0  0  0  0  0  0  0  0  0  0
   20.6540  -24.6310   40.5650 F   0  0  0  0  0  0  0  0  0  0  0  0
   22.2975  -27.5234   42.7579 H   0  0  0  0  0  0  0  0  0  0  0  0
   22.3597  -28.4222   41.2039 H   0  0  0  0  0  0  0  0  0  0  0  0
   22.3786  -26.6260   41.2039 H   0  0  0  0  0  0  0  0  0  0  0  0
   20.0681  -28.3645   42.1979 H   0  0  0  0  0  0  0  0  0  0  0  0
   20.1082  -26.5549   42.0665 H   0  0  0  0  0  0  0  0  0  0  0  0
   20.3387  -29.7190   40.1245 H   0  0  0  0  0  0  0  0  0  0  0  0
   20.6627  -30.3225   33.7657 H   0  0  0  0  0  0  0  0  0  0  0  0
   20.7899  -32.3631   32.3299 H   0  0  0  0  0  0  0  0  0  0  0  0
   20.2064  -34.5975   33.2798 H   0  0  0  0  0  0  0  0  0  0  0  0
   18.6790  -35.2000   36.2060 H   0  0  0  0  0  0  0  0  0  0  0  0
   19.1740  -30.9180   40.1550 H   0  0  0  0  0  0  0  0  0  0  0  0
   18.7350  -27.9800   36.5176 H   0  0  0  0  0  0  0  0  0  0  0  0
   18.6881  -25.7525   37.6111 H   0  0  0  0  0  0  0  0  0  0  0  0
  1  2  1  0
  2  3  1  0
  3  4  2  0
  4  5  1  0
  5  6  1  0
  6  7  1  0
  7  8  1  0
  8  9  2  0
  9 10  1  0
 10 11  2  0
 11 12  1  0
 12 13  1  0
 12 14  2  0
 14 15  1  0
 15 16  2  0
 15 17  1  0
 17 18  1  0
  5 19  2  0
 19 20  1  0
 20 21  2  0
 21 22  1  0
 22 23  1  0
 22 24  1  0
 22 25  1  0
 21  3  1  0
 17  6  2  0
 14  8  1  0
  1 26  1  0
  1 27  1  0
  1 28  1  0
  2 29  1  0
  2 30  1  0
  4 31  1  0
  9 32  1  0
 10 33  1  0
 11 34  1  0
 13 35  1  0
 18 36  1  0
 19 37  1  0
 20 38  1  0
M  END
>  <meeko>  (6) 
{"is_sidechain": [false], "free_energy": -7.277, "intermolecular_energy": -9.077, "internal_energy": -0.327}

$$$$
cand_004_out
     RDKit          3D

 38 40  0  0  0  0  0  0  0  0999 V2000
   20.3490  -31.5940   34.6810 C   0  0  0  0  0  0  0  0  0  0  0  0
   19.9360  -32.6090   35.7360 C   0  0  0  0  0  0  0  0  0  0  0  0
   19.5220  -31.9410   37.0300 C   0  0  0  0  0  0  0  0  0  0  0  0
   19.6350  -30.5380   37.1180 C   0  0  0  0  0  0  0  0  0  0  0  0
   19.2950  -29.8400   38.2860 C   0  0  0  0  0  0  0  0  0  0  0  0
   19.3940  -28.3680   38.3690 C   0  0  0  0  0  0  0  0  0  0  0  0
   18.7080  -27.7220   37.3470 O   0  0  0  0  0  0  0  0  0  0  0  0
   18.7170  -26.3510   37.3050 C   0  0  0  0  0  0  0  0  0  0  0  0
   18.0290  -25.7440   36.2530 C   0  0  0  0  0  0  0  0  0  0  0  0
   17.9970  -24.3520   36.1530 C   0  0  0  0  0  0  0  0  0  0  0  0
   18.6540  -23.5660   37.1040 C   0  0  0  0  0  0  0  0  0  0  0  0
   19.3400  -24.1740   38.1510 C   0  0  0  0  0  0  0  0  0  0  0  0
   19.9590  -23.3460   39.0460 O   0  0  0  0  0  0  0  0  0  0  0  0
   19.3710  -25.5670   38.2520 C   0  0  0  0  0  0  0  0  0  0  0  0
   20.0810  -26.2470   39.3360 C   0  0  0  0  0  0  0  0  0  0  0  0
   20.6760  -25.6250   40.2150 O   0  0  0  0  0  0  0  0  0  0  0  0
   20.0600  -27.7270   39.3480 C   0  0  0  0  0  0  0  0  0  0  0  0
   20.7220  -28.3590   40.3840 O   0  0  0  0  0  0  0  0  0  0  0  0
   18.8170  -30.5700   39.3790 C   0  0  0  0  0  0  0  0  0  0  0  0
   18.7000  -31.9610   39.3110 C   0  0  0  0  0  0  0  0  0  0  0  0
   19.0540  -32.6660   38.1470 C   0  0  0  0  0  0  0  0  0  0  0  0
   18.9020  -34.1740   38.1270 C   0  0  0  0  0  0  0  0  0  0  0  0
   18.1090  -34.6180   37.1140 F   0  0  0  0  0  0  0  0  0  0  0  0
   18.3540  -34.6580   39.2760 F   0  0  0  0  0  0  0  0  0  0  0  0
   20.0850  -34.8370   37.9790 F   0  0  0  0  0  0  0  0  0  0  0  0
   20.7196  -30.6831   35.1738 H   0  0  0  0  0  0  0  0  0  0  0  0
   21.1449  -32.0210   34.0531 H   0  0  0  0  0  0  0  0  0  0  0  0
   19.4811  -31.3440   34.0531 H   0  0  0  0  0  0  0  0  0  0  0  0
   19.0889  -33.1964   35.3521 H   0  0  0  0  0  0  0  0  0  0  0  0
   20.8021  -33.2535   35.9468 H   0  0  0  0  0  0  0  0  0  0  0  0
   20.0000  -29.9754   36.2461 H   0  0  0  0  0  0  0  0  0  0  0  0
   17.5126  -26.3619   35.5036 H   0  0  0  0  0  0  0  0  0  0  0  0
   17.4541  -23.8731   35.3248 H   0  0  0  0  0  0  0  0  0  0  0  0
   18.6288  -22.4691   37.0249 H   0  0  0  0  0  0  0  0  0  0  0  0
   20.1980  -22.4760   38.7930 H   0  0  0  0  0  0  0  0  0  0  0  0
   20.2860  -29.0220   40.8830 H   0  0  0  0  0  0  0  0  0  0  0  0
   18.5302  -30.0440   40.3015 H   0  0  0  0  0  0  0  0  0  0  0  0
   18.3241  -32.5145   40.1841 H   0  0  0  0  0  0  0  0  0  0  0  0
  1  2  1  0
  2  3  1  0
  3  4  2  0
  4  5  1  0
  5  6  1  0
  6  7  1  0
  7  8  1  0
  8  9  2  0
  9 10  1  0
 10 11  2  0
 11 12  1  0
 12 13  1  0
 12 14  2  0
 14 15  1  0
 15 16  2  0
 15 17  1  0
 17 18  1  0
  5 19  2  0
 19 20  1  0
 20 21  2  0
 21 22  1  0
 22 23  1  0
 22 24  1  0
 22 25  1  0
 21  3  1  0
 17  6  2  0
 14  8  1  0
  1 26  1  0
  1 27  1  0
  1 28  1  0
  2 29  1  0
  2 30  1  0
  4 31  1  0
  9 32  1  0
 10 33  1  0
 11 34  1  0
 13 35  1  0
 18 36  1  0
 19 37  1  0
 20 38  1  0
M  END
>  <meeko>  (7) 
{"is_sidechain": [false], "free_energy": -7.259, "intermolecular_energy": -8.986, "internal_energy": -0.395}

$$$$
cand_004_out
     RDKit          3D

 38 40  0  0  0  0  0  0  0  0999 V2000
   19.2050  -23.0670   38.5240 C   0  0  0  0  0  0  0  0  0  0  0  0
   19.5570  -24.2070   37.5800 C   0  0  0  0  0  0  0  0  0  0  0  0
   19.5290  -25.5490   38.2790 C   0  0  0  0  0  0  0  0  0  0  0  0
   20.3200  -25.7110   39.4360 C   0  0  0  0  0  0  0  0  0  0  0  0
   20.3710  -26.9260   40.1330 C   0  0  0  0  0  0  0  0  0  0  0  0
   21.1830  -27.0870   41.3570 C   0  0  0  0  0  0  0  0  0  0  0  0
   22.1440  -28.0850   41.2400 O   0  0  0  0  0  0  0  0  0  0  0  0
   22.9690  -28.3390   42.3060 C   0  0  0  0  0  0  0  0  0  0  0  0
   23.9090  -29.3600   42.1510 C   0  0  0  0  0  0  0  0  0  0  0  0
   24.7810  -29.6680   43.1980 C   0  0  0  0  0  0  0  0  0  0  0  0
   24.7130  -28.9570   44.3980 C   0  0  0  0  0  0  0  0  0  0  0  0
   23.7740  -27.9400   44.5500 C   0  0  0  0  0  0  0  0  0  0  0  0
   23.7640  -27.2850   45.7510 O   0  0  0  0  0  0  0  0  0  0  0  0
   22.9020  -27.6320   43.5030 C   0  0  0  0  0  0  0  0  0  0  0  0
   21.9010  -26.5710   43.6210 C   0  0  0  0  0  0  0  0  0  0  0  0
   21.7840  -25.8960   44.6430 O   0  0  0  0  0  0  0  0  0  0  0  0
   21.0190  -26.3280   42.4570 C   0  0  0  0  0  0  0  0  0  0  0  0
   20.0860  -25.3150   42.5730 O   0  0  0  0  0  0  0  0  0  0  0  0
   19.5970  -27.9930   39.6640 C   0  0  0  0  0  0  0  0  0  0  0  0
   18.8090  -27.8520   38.5190 C   0  0  0  0  0  0  0  0  0  0  0  0
   18.7660  -26.6390   37.8080 C   0  0  0  0  0  0  0  0  0  0  0  0
   17.8900  -26.5410   36.5750 C   0  0  0  0  0  0  0  0  0  0  0  0
   17.0880  -27.6270   36.4020 F   0  0  0  0  0  0  0  0  0  0  0  0
   18.6160  -26.4210   35.4280 F   0  0  0  0  0  0  0  0  0  0  0  0
   17.0500  -25.4670   36.5900 F   0  0  0  0  0  0  0  0  0  0  0  0
   19.3100  -23.4071   39.5648 H   0  0  0  0  0  0  0  0  0  0  0  0
   19.8834  -22.2198   38.3449 H   0  0  0  0  0  0  0  0  0  0  0  0
   18.1671  -22.7498   38.3449 H   0  0  0  0  0  0  0  0  0  0  0  0
   18.8309  -24.2214   36.7538 H   0  0  0  0  0  0  0  0  0  0  0  0
   20.5784  -24.0381   37.2082 H   0  0  0  0  0  0  0  0  0  0  0  0
   20.9134  -24.8599   39.8013 H   0  0  0  0  0  0  0  0  0  0  0  0
   23.9627  -29.9207   41.2062 H   0  0  0  0  0  0  0  0  0  0  0  0
   25.5222  -30.4717   43.0770 H   0  0  0  0  0  0  0  0  0  0  0  0
   25.4001  -29.1999   45.2219 H   0  0  0  0  0  0  0  0  0  0  0  0
   24.4580  -26.6960   45.9690 H   0  0  0  0  0  0  0  0  0  0  0  0
   19.1720  -25.5070   42.4940 H   0  0  0  0  0  0  0  0  0  0  0  0
   19.6090  -28.9523   40.2021 H   0  0  0  0  0  0  0  0  0  0  0  0
   18.2110  -28.7055   38.1669 H   0  0  0  0  0  0  0  0  0  0  0  0
  1  2  1  0
  2  3  1  0
  3  4  2  0
  4  5  1  0
  5  6  1  0
  6  7  1  0
  7  8  1  0
  8  9  2  0
  9 10  1  0
 10 11  2  0
 11 12  1  0
 12 13  1  0
 12 14  2  0
 14 15  1  0
 15 16  2  0
 15 17  1  0
 17 18  1  0
  5 19  2  0
 19 20  1  0
 20 21  2  0
 21 22  1  0
 22 23  1  0
 22 24  1  0
 22 25  1  0
 21  3  1  0
 17  6  2  0
 14  8  1  0
  1 26  1  0
  1 27  1  0
  1 28  1  0
  2 29  1  0
  2 30  1  0
  4 31  1  0
  9 32  1  0
 10 33  1  0
 11 34  1  0
 13 35  1  0
 18 36  1  0
 19 37  1  0
 20 38  1  0
M  END
>  <meeko>  (8) 
{"is_sidechain": [false], "free_energy": -7.127, "intermolecular_energy": -8.739, "internal_energy": -0.48}

$$$$
cand_004_out
     RDKit          3D

 38 40  0  0  0  0  0  0  0  0999 V2000
   23.8010  -30.0580   42.5810 C   0  0  0  0  0  0  0  0  0  0  0  0
   24.0470  -28.5710   42.3700 C   0  0  0  0  0  0  0  0  0  0  0  0
   22.7550  -27.7820   42.3470 C   0  0  0  0  0  0  0  0  0  0  0  0
   22.1170  -27.5900   41.1040 C   0  0  0  0  0  0  0  0  0  0  0  0
   20.9290  -26.8540   40.9880 C   0  0  0  0  0  0  0  0  0  0  0  0
   20.2500  -26.6720   39.6890 C   0  0  0  0  0  0  0  0  0  0  0  0
   20.0620  -25.3350   39.3600 O   0  0  0  0  0  0  0  0  0  0  0  0
   19.4420  -25.0240   38.1760 C   0  0  0  0  0  0  0  0  0  0  0  0
   19.2600  -23.6700   37.8930 C   0  0  0  0  0  0  0  0  0  0  0  0
   18.6370  -23.2840   36.7030 C   0  0  0  0  0  0  0  0  0  0  0  0
   18.1970  -24.2530   35.7980 C   0  0  0  0  0  0  0  0  0  0  0  0
   18.3810  -25.6030   36.0830 C   0  0  0  0  0  0  0  0  0  0  0  0
   17.9270  -26.4970   35.1530 O   0  0  0  0  0  0  0  0  0  0  0  0
   19.0030  -25.9880   37.2730 C   0  0  0  0  0  0  0  0  0  0  0  0
   19.2150  -27.3960   37.6120 C   0  0  0  0  0  0  0  0  0  0  0  0
   18.8630  -28.3060   36.8640 O   0  0  0  0  0  0  0  0  0  0  0  0
   19.8770  -27.6990   38.9010 C   0  0  0  0  0  0  0  0  0  0  0  0
   20.0860  -29.0310   39.2050 O   0  0  0  0  0  0  0  0  0  0  0  0
   20.3670  -26.3160   42.1500 C   0  0  0  0  0  0  0  0  0  0  0  0
   20.9860  -26.4940   43.3910 C   0  0  0  0  0  0  0  0  0  0  0  0
   22.1850  -27.2190   43.5090 C   0  0  0  0  0  0  0  0  0  0  0  0
   22.8110  -27.3850   44.8800 C   0  0  0  0  0  0  0  0  0  0  0  0
   22.6510  -28.6360   45.3910 F   0  0  0  0  0  0  0  0  0  0  0  0
   22.2840  -26.5300   45.8000 F   0  0  0  0  0  0  0  0  0  0  0  0
   24.1550  -27.1550   44.8940 F   0  0  0  0  0  0  0  0  0  0  0  0
   23.7652  -30.2744   43.6589 H   0  0  0  0  0  0  0  0  0  0  0  0
   22.8439  -30.3406   42.1183 H   0  0  0  0  0  0  0  0  0  0  0  0
   24.6161  -30.6338   42.1183 H   0  0  0  0  0  0  0  0  0  0  0  0
   24.6784  -28.1954   43.1887 H   0  0  0  0  0  0  0  0  0  0  0  0
   24.5420  -28.4425   41.3961 H   0  0  0  0  0  0  0  0  0  0  0  0
   22.5638  -28.0299   40.2002 H   0  0  0  0  0  0  0  0  0  0  0  0
   19.6065  -22.9071   38.6057 H   0  0  0  0  0  0  0  0  0  0  0  0
   18.4930  -22.2167   36.4789 H   0  0  0  0  0  0  0  0  0  0  0  0
   17.7059  -23.9496   34.8616 H   0  0  0  0  0  0  0  0  0  0  0  0
   17.3310  -26.2190   34.4870 H   0  0  0  0  0  0  0  0  0  0  0  0
   20.6070  -29.2660   39.9480 H   0  0  0  0  0  0  0  0  0  0  0  0
   19.4279  -25.7467   42.0870 H   0  0  0  0  0  0  0  0  0  0  0  0
   20.5268  -26.0591   44.2910 H   0  0  0  0  0  0  0  0  0  0  0  0
  1  2  1  0
  2  3  1  0
  3  4  2  0
  4  5  1  0
  5  6  1  0
  6  7  1  0
  7  8  1  0
  8  9  2  0
  9 10  1  0
 10 11  2  0
 11 12  1  0
 12 13  1  0
 12 14  2  0
 14 15  1  0
 15 16  2  0
 15 17  1  0
 17 18  1  0
  5 19  2  0
 19 20  1  0
 20 21  2  0
 21 22  1  0
 22 23  1  0
 22 24  1  0
 22 25  1  0
 21  3  1  0
 17  6  2  0
 14  8  1  0
  1 26  1  0
  1 27  1  0
  1 28  1  0
  2 29  1  0
  2 30  1  0
  4 31  1  0
  9 32  1  0
 10 33  1  0
 11 34  1  0
 13 35  1  0
 18 36  1  0
 19 37  1  0
 20 38  1  0
M  END
>  <meeko>  (9) 
{"is_sidechain": [false], "free_energy": -7.127, "intermolecular_energy": -8.769, "internal_energy": -0.448}

$$$$
