cand_023_out
     RDKit          3D

 47 50  0  0  0  0  0  0  0  0999 V2000
   21.7900  -27.5250   41.7270 C   0  0  0  0  0  0  0  0  0  0  0  0
   20.6460  -27.7520   40.7750 C   0  0  0  0  0  0  0  0  0  0  0  0
   20.5320  -28.9860   40.1100 C   0  0  0  0  0  0  0  0  0  0  0  0
   19.4800  -29.2430   39.2180 C   0  0  0  0  0  0  0  0  0  0  0  0
   19.4090  -30.5420   38.5170 C   0  0  0  0  0  0  0  0  0  0  0  0
   19.0200  -31.5850   39.3500 O   0  0  0  0  0  0  0  0  0  0  0  0
   18.9120  -32.8480   38.8280 C   0  0  0  0  0  0  0  0  0  0  0  0
   18.5320  -33.8660   39.7030 C   0  0  0  0  0  0  0  0  0  0  0  0
   18.4010  -35.1750   39.2340 C   0  0  0  0  0  0  0  0  0  0  0  0
   18.6500  -35.4660   37.8910 C   0  0  0  0  0  0  0  0  0  0  0  0
   19.0290  -34.4480   37.0190 C   0  0  0  0  0  0  0  0  0  0  0  0
   19.2560  -34.8020   35.7170 O   0  0  0  0  0  0  0  0  0  0  0  0
   19.1600  -33.1380   37.4890 C   0  0  0  0  0  0  0  0  0  0  0  0
   19.5550  -32.0390   36.6070 C   0  0  0  0  0  0  0  0  0  0  0  0
   19.7840  -32.2140   35.4120 O   0  0  0  0  0  0  0  0  0  0  0  0
   19.6720  -30.6890   37.2050 C   0  0  0  0  0  0  0  0  0  0  0  0
   20.0330  -29.6560   36.3590 O   0  0  0  0  0  0  0  0  0  0  0  0
   18.5420  -28.2300   38.9900 C   0  0  0  0  0  0  0  0  0  0  0  0
   18.6440  -27.0000   39.6480 C   0  0  0  0  0  0  0  0  0  0  0  0
   19.6930  -26.7410   40.5440 C   0  0  0  0  0  0  0  0  0  0  0  0
   19.8110  -25.5140   41.2310 N   0  0  0  0  0  0  0  0  0  0  0  0
   19.2790  -24.3670   40.4770 C   0  0  0  0  0  0  0  0  0  0  0  0
   19.6680  -23.0750   41.1980 C   0  0  0  0  0  0  0  0  0  0  0  0
   19.1880  -23.0880   42.6480 C   0  0  0  0  0  0  0  0  0  0  0  0
   19.6710  -24.3440   43.3730 C   0  0  0  0  0  0  0  0  0  0  0  0
   19.2910  -25.6100   42.6040 C   0  0  0  0  0  0  0  0  0  0  0  0
   21.4254  -27.5974   42.7623 H   0  0  0  0  0  0  0  0  0  0  0  0
   22.5651  -28.2869   41.5571 H   0  0  0  0  0  0  0  0  0  0  0  0
   22.2154  -26.5249   41.5571 H   0  0  0  0  0  0  0  0  0  0  0  0
   21.2845  -29.7671   40.2933 H   0  0  0  0  0  0  0  0  0  0  0  0
   18.3358  -33.6379   40.7611 H   0  0  0  0  0  0  0  0  0  0  0  0
   18.1012  -35.9780   39.9235 H   0  0  0  0  0  0  0  0  0  0  0  0
   18.5470  -36.4973   37.5224 H   0  0  0  0  0  0  0  0  0  0  0  0
   20.0320  -34.5100   35.2820 H   0  0  0  0  0  0  0  0  0  0  0  0
   20.5200  -29.8380   35.5790 H   0  0  0  0  0  0  0  0  0  0  0  0
   17.7152  -28.4029   38.2854 H   0  0  0  0  0  0  0  0  0  0  0  0
   17.8892  -26.2222   39.4601 H   0  0  0  0  0  0  0  0  0  0  0  0
   19.7020  -24.3647   39.4616 H   0  0  0  0  0  0  0  0  0  0  0  0
   18.1835  -24.4409   40.4109 H   0  0  0  0  0  0  0  0  0  0  0  0
   20.7630  -22.9710   41.1831 H   0  0  0  0  0  0  0  0  0  0  0  0
   19.1920  -22.2293   40.6802 H   0  0  0  0  0  0  0  0  0  0  0  0
   19.5812  -22.2003   43.1652 H   0  0  0  0  0  0  0  0  0  0  0  0
   18.0880  -23.0811   42.6534 H   0  0  0  0  0  0  0  0  0  0  0  0
   20.7655  -24.3010   43.4739 H   0  0  0  0  0  0  0  0  0  0  0  0
   19.1903  -24.3808   44.3617 H   0  0  0  0  0  0  0  0  0  0  0  0
   19.7269  -26.4884   43.1023 H   0  0  0  0  0  0  0  0  0  0  0  0
   18.1962  -25.7137   42.5791 H   0  0  0  0  0  0  0  0  0  0  0  0
  1  2  1  0
  2  3  2  0
  3  4  1  0
  4  5  1  0
  5  6  1  0
  6  7  1  0
  7  8  2  0
  8  9  1  0
  9 10  2  0
 10 11  1  0
 11 12  1  0
 11 13  2  0
 13 14  1  0
 14 15  2  0
 14 16  1  0
 16 17  1  0
  4 18  2  0
 18 19  1  0
 19 20  2  0
 20 21  1  0
 21 22  1  0
 22 23  1  0
 23 24  1  0
 24 25  1  0
 25 26  1  0
 20  2  1  0
 26 21  1  0
 16  5  2  0
 13  7  1  0
  1 27  1  0
  1 28  1  0
  1 29  1  0
  3 30  1  0
  8 31  1  0
  9 32  1  0
 10 33  1  0
 12 34  1  0
 17 35  1  0
 18 36  1  0
 19 37  1  0
 22 38  1  0
 22 39  1  0
 23 40  1  0
 23 41  1  0
 24 42  1  0
 24 43  1  0
 25 44  1  0
 25 45  1  0
 26 46  1  0
 26 47  1  0
M  END
>  <meeko>  (1) 
{"is_sidechain": [false], "free_energy": -8.273, "intermolecular_energy": -9.724, "internal_energy": -0.407}

$$$$
cand_023_out
     RDKit          3D

 47 50  0  0  0  0  0  0  0  0999 V2000
   19.7110  -24.6280   37.3900 C   0  0  0  0  0  0  0  0  0  0  0  0
   19.7810  -25.9440   38.1170 C   0  0  0  0  0  0  0  0  0  0  0  0
   20.4710  -26.0230   39.3410 C   0  0  0  0  0  0  0  0  0  0  0  0
   20.5570  -27.2280   40.0550 C   0  0  0  0  0  0  0  0  0  0  0  0
   21.3140  -27.2790   41.3240 C   0  0  0  0  0  0  0  0  0  0  0  0
   22.3040  -28.2550   41.3240 O   0  0  0  0  0  0  0  0  0  0  0  0
   23.0840  -28.4100   42.4400 C   0  0  0  0  0  0  0  0  0  0  0  0
   24.0560  -29.4110   42.4000 C   0  0  0  0  0  0  0  0  0  0  0  0
   24.8860  -29.6200   43.5040 C   0  0  0  0  0  0  0  0  0  0  0  0
   24.7450  -28.8290   44.6460 C   0  0  0  0  0  0  0  0  0  0  0  0
   23.7740  -27.8320   44.6830 C   0  0  0  0  0  0  0  0  0  0  0  0
   23.6890  -27.0940   45.8330 O   0  0  0  0  0  0  0  0  0  0  0  0
   22.9430  -27.6230   43.5790 C   0  0  0  0  0  0  0  0  0  0  0  0
   21.9110  -26.5850   43.5760 C   0  0  0  0  0  0  0  0  0  0  0  0
   21.7300  -25.8450   44.5410 O   0  0  0  0  0  0  0  0  0  0  0  0
   21.0790  -26.4500   42.3580 C   0  0  0  0  0  0  0  0  0  0  0  0
   20.1160  -25.4570   42.3620 O   0  0  0  0  0  0  0  0  0  0  0  0
   19.9490  -28.3650   39.5130 C   0  0  0  0  0  0  0  0  0  0  0  0
   19.2590  -28.2970   38.2990 C   0  0  0  0  0  0  0  0  0  0  0  0
   19.1660  -27.0930   37.5830 C   0  0  0  0  0  0  0  0  0  0  0  0
   18.4640  -26.9950   36.3630 N   0  0  0  0  0  0  0  0  0  0  0  0
   18.8860  -27.9860   35.3620 C   0  0  0  0  0  0  0  0  0  0  0  0
   18.2410  -27.6420   34.0180 C   0  0  0  0  0  0  0  0  0  0  0  0
   16.7210  -27.5560   34.1440 C   0  0  0  0  0  0  0  0  0  0  0  0
   16.3180  -26.5960   35.2620 C   0  0  0  0  0  0  0  0  0  0  0  0
   17.0080  -26.9550   36.5780 C   0  0  0  0  0  0  0  0  0  0  0  0
   19.6673  -23.8072   38.1210 H   0  0  0  0  0  0  0  0  0  0  0  0
   20.6041  -24.5098   36.7588 H   0  0  0  0  0  0  0  0  0  0  0  0
   18.8104  -24.6052   36.7588 H   0  0  0  0  0  0  0  0  0  0  0  0
   20.9530  -25.1212   39.7466 H   0  0  0  0  0  0  0  0  0  0  0  0
   24.1682  -30.0343   41.5006 H   0  0  0  0  0  0  0  0  0  0  0  0
   25.6519  -30.4090   43.4736 H   0  0  0  0  0  0  0  0  0  0  0  0
   25.3997  -28.9933   45.5145 H   0  0  0  0  0  0  0  0  0  0  0  0
   23.3420  -27.4800   46.6120 H   0  0  0  0  0  0  0  0  0  0  0  0
   19.2780  -25.6170   41.9750 H   0  0  0  0  0  0  0  0  0  0  0  0
   20.0145  -29.3238   40.0481 H   0  0  0  0  0  0  0  0  0  0  0  0
   18.7806  -29.2027   37.8978 H   0  0  0  0  0  0  0  0  0  0  0  0
   19.9812  -27.9654   35.2615 H   0  0  0  0  0  0  0  0  0  0  0  0
   18.5715  -28.9914   35.6787 H   0  0  0  0  0  0  0  0  0  0  0  0
   18.6283  -26.6726   33.6712 H   0  0  0  0  0  0  0  0  0  0  0  0
   18.4877  -28.4364   33.2983 H   0  0  0  0  0  0  0  0  0  0  0  0
   16.3009  -27.1972   33.1928 H   0  0  0  0  0  0  0  0  0  0  0  0
   16.3320  -28.5566   34.3839 H   0  0  0  0  0  0  0  0  0  0  0  0
   16.6027  -25.5728   34.9756 H   0  0  0  0  0  0  0  0  0  0  0  0
   15.2304  -26.6708   35.4086 H   0  0  0  0  0  0  0  0  0  0  0  0
   16.7686  -26.1969   37.3383 H   0  0  0  0  0  0  0  0  0  0  0  0
   16.6573  -27.9384   36.9242 H   0  0  0  0  0  0  0  0  0  0  0  0
  1  2  1  0
  2  3  2  0
  3  4  1  0
  4  5  1  0
  5  6  1  0
  6  7  1  0
  7  8  2  0
  8  9  1  0
  9 10  2  0
 10 11  1  0
 11 12  1  0
 11 13  2  0
 13 14  1  0
 14 15  2  0
 14 16  1  0
 16 17  1  0
  4 18  2  0
 18 19  1  0
 19 20  2  0
 20 21  1  0
 21 22  1  0
 22 23  1  0
 23 24  1  0
 24 25  1  0
 25 26  1  0
 20  2  1  0
 26 21  1  0
 16  5  2  0
 13  7  1  0
  1 27  1  0
  1 28  1  0
  1 29  1  0
  3 30  1  0
  8 31  1  0
  9 32  1  0
 10 33  1  0
 12 34  1  0
 17 35  1  0
 18 36  1  0
 19 37  1  0
 22 38  1  0
 22 39  1  0
 23 40  1  0
 23 41  1  0
 24 42  1  0
 24 43  1  0
 25 44  1  0
 25 45  1  0
 26 46  1  0
 26 47  1  0
M  END
>  <meeko>  (2) 
{"is_sidechain": [false], "free_energy": -7.577, "intermolecular_energy": -8.848, "internal_energy": -0.465}

$$$$
cand_023_out
     RDKit          3D

 47 50  0  0  0  0  0  0  0  0999 V2000
   20.1610  -21.7540   42.8660 C   0  0  0  0  0  0  0  0  0  0  0  0
   19.9290  -23.1850   42.4610 C   0  0  0  0  0  0  0  0  0  0  0  0
   19.7100  -23.4950   41.1060 C   0  0  0  0  0  0  0  0  0  0  0  0
   19.4950  -24.8150   40.6830 C   0  0  0  0  0  0  0  0  0  0  0  0
   19.2410  -25.0980   39.2540 C   0  0  0  0  0  0  0  0  0  0  0  0
   18.1120  -24.4490   38.7670 O   0  0  0  0  0  0  0  0  0  0  0  0
   17.7600  -24.6220   37.4540 C   0  0  0  0  0  0  0  0  0  0  0  0
   16.6130  -23.9620   37.0120 C   0  0  0  0  0  0  0  0  0  0  0  0
   16.2010  -24.0950   35.6850 C   0  0  0  0  0  0  0  0  0  0  0  0
   16.9340  -24.8870   34.7990 C   0  0  0  0  0  0  0  0  0  0  0  0
   18.0780  -25.5460   35.2430 C   0  0  0  0  0  0  0  0  0  0  0  0
   18.7500  -26.3050   34.3240 O   0  0  0  0  0  0  0  0  0  0  0  0
   18.4910  -25.4120   36.5720 C   0  0  0  0  0  0  0  0  0  0  0  0
   19.6870  -26.0860   37.0790 C   0  0  0  0  0  0  0  0  0  0  0  0
   20.3890  -26.7950   36.3590 O   0  0  0  0  0  0  0  0  0  0  0  0
   20.0350  -25.8850   38.5040 C   0  0  0  0  0  0  0  0  0  0  0  0
   21.1750  -26.5160   38.9680 O   0  0  0  0  0  0  0  0  0  0  0  0
   19.4890  -25.8280   41.6470 C   0  0  0  0  0  0  0  0  0  0  0  0
   19.7090  -25.5320   42.9960 C   0  0  0  0  0  0  0  0  0  0  0  0
   19.9280  -24.2130   43.4230 C   0  0  0  0  0  0  0  0  0  0  0  0
   20.1660  -23.8900   44.7770 N   0  0  0  0  0  0  0  0  0  0  0  0
   18.9490  -23.8940   45.6040 C   0  0  0  0  0  0  0  0  0  0  0  0
   19.2780  -23.3060   46.9760 C   0  0  0  0  0  0  0  0  0  0  0  0
   20.4310  -24.0620   47.6370 C   0  0  0  0  0  0  0  0  0  0  0  0
   21.6440  -24.1270   46.7100 C   0  0  0  0  0  0  0  0  0  0  0  0
   21.2660  -24.6900   45.3390 C   0  0  0  0  0  0  0  0  0  0  0  0
   20.1729  -21.6809   43.9635 H   0  0  0  0  0  0  0  0  0  0  0  0
   21.1264  -21.4114   42.4652 H   0  0  0  0  0  0  0  0  0  0  0  0
   19.3533  -21.1239   42.4652 H   0  0  0  0  0  0  0  0  0  0  0  0
   19.7073  -22.6845   40.3623 H   0  0  0  0  0  0  0  0  0  0  0  0
   16.0341  -23.3376   37.7084 H   0  0  0  0  0  0  0  0  0  0  0  0
   15.2967  -23.5746   35.3364 H   0  0  0  0  0  0  0  0  0  0  0  0
   16.6089  -24.9902   33.7532 H   0  0  0  0  0  0  0  0  0  0  0  0
   18.3110  -26.6010   33.5510 H   0  0  0  0  0  0  0  0  0  0  0  0
   21.1400  -27.0270   39.7530 H   0  0  0  0  0  0  0  0  0  0  0  0
   19.3093  -26.8691   41.3409 H   0  0  0  0  0  0  0  0  0  0  0  0
   19.7104  -26.3468   43.7350 H   0  0  0  0  0  0  0  0  0  0  0  0
   18.1714  -23.2857   45.1189 H   0  0  0  0  0  0  0  0  0  0  0  0
   18.5815  -24.9243   45.7196 H   0  0  0  0  0  0  0  0  0  0  0  0
   19.5629  -22.2504   46.8555 H   0  0  0  0  0  0  0  0  0  0  0  0
   18.3885  -23.3958   47.6169 H   0  0  0  0  0  0  0  0  0  0  0  0
   20.7149  -23.5452   48.5656 H   0  0  0  0  0  0  0  0  0  0  0  0
   20.0994  -25.0882   47.8538 H   0  0  0  0  0  0  0  0  0  0  0  0
   22.0513  -23.1133   46.5812 H   0  0  0  0  0  0  0  0  0  0  0  0
   22.3929  -24.7925   47.1642 H   0  0  0  0  0  0  0  0  0  0  0  0
   22.1365  -24.6420   44.6683 H   0  0  0  0  0  0  0  0  0  0  0  0
   20.9469  -25.7375   45.4435 H   0  0  0  0  0  0  0  0  0  0  0  0
  1  2  1  0
  2  3  2  0
  3  4  1  0
  4  5  1  0
  5  6  1  0
  6  7  1  0
  7  8  2  0
  8  9  1  0
  9 10  2  0
 10 11  1  0
 11 12  1  0
 11 13  2  0
 13 14  1  0
 14 15  2  0
 14 16  1  0
 16 17  1  0
  4 18  2  0
 18 19  1  0
 19 20  2  0
 20 21  1  0
 21 22  1  0
 22 23  1  0
 23 24  1  0
 24 25  1  0
 25 26  1  0
 20  2  1  0
 26 21  1  0
 16  5  2  0
 13  7  1  0
  1 27  1  0
  1 28  1  0
  1 29  1  0
  3 30  1  0
  8 31  1  0
  9 32  1  0
 10 33  1  0
 12 34  1  0
 17 35  1  0
 18 36  1  0
 19 37  1  0
 22 38  1  0
 22 39  1  0
 23 40  1  0
 23 41  1  0
 24 42  1  0
 24 43  1  0
 25 44  1  0
 25 45  1  0
 26 46  1  0
 26 47  1  0
M  END
>  <meeko>  (3) 
{"is_sidechain": [false], "free_energy": -7.469, "intermolecular_energy": -8.601, "internal_energy": -0.585}

$$$$
cand_023_out
     RDKit          3D

 47 50  0  0  0  0  0  0  0  0999 V2000
   21.8070  -27.6260   41.6500 C   0  0  0  0  0  0  0  0  0  0  0  0
   20.6710  -27.7570   40.6720 C   0  0  0  0  0  0  0  0  0  0  0  0
   20.5580  -28.9230   39.8940 C   0  0  0  0  0  0  0  0  0  0  0  0
   19.5120  -29.0900   38.9730 C   0  0  0  0  0  0  0  0  0  0  0  0
   19.4420  -30.3180   38.1530 C   0  0  0  0  0  0  0  0  0  0  0  0
   20.0110  -30.1610   36.8940 O   0  0  0  0  0  0  0  0  0  0  0  0
   20.0160  -31.2240   36.0300 C   0  0  0  0  0  0  0  0  0  0  0  0
   20.5840  -31.0170   34.7720 C   0  0  0  0  0  0  0  0  0  0  0  0
   20.6230  -32.0600   33.8450 C   0  0  0  0  0  0  0  0  0  0  0  0
   20.0940  -33.3100   34.1740 C   0  0  0  0  0  0  0  0  0  0  0  0
   19.5260  -33.5140   35.4290 C   0  0  0  0  0  0  0  0  0  0  0  0
   19.0270  -34.7620   35.6860 O   0  0  0  0  0  0  0  0  0  0  0  0
   19.4870  -32.4700   36.3570 C   0  0  0  0  0  0  0  0  0  0  0  0
   18.9010  -32.6420   37.6870 C   0  0  0  0  0  0  0  0  0  0  0  0
   18.4210  -33.7140   38.0530 O   0  0  0  0  0  0  0  0  0  0  0  0
   18.9030  -31.4710   38.5930 C   0  0  0  0  0  0  0  0  0  0  0  0
   18.3590  -31.6500   39.8520 O   0  0  0  0  0  0  0  0  0  0  0  0
   18.5810  -28.0560   38.8320 C   0  0  0  0  0  0  0  0  0  0  0  0
   18.6830  -26.8930   39.6020 C   0  0  0  0  0  0  0  0  0  0  0  0
   19.7250  -26.7240   40.5270 C   0  0  0  0  0  0  0  0  0  0  0  0
   19.8410  -25.5660   41.3270 N   0  0  0  0  0  0  0  0  0  0  0  0
   19.3170  -24.3530   40.6810 C   0  0  0  0  0  0  0  0  0  0  0  0
   19.7040  -23.1350   41.5210 C   0  0  0  0  0  0  0  0  0  0  0  0
   19.2160  -23.2820   42.9610 C   0  0  0  0  0  0  0  0  0  0  0  0
   19.6920  -24.6010   43.5680 C   0  0  0  0  0  0  0  0  0  0  0  0
   19.3140  -25.7890   42.6830 C   0  0  0  0  0  0  0  0  0  0  0  0
   21.4142  -27.6713   42.6765 H   0  0  0  0  0  0  0  0  0  0  0  0
   22.5215  -28.4477   41.4942 H   0  0  0  0  0  0  0  0  0  0  0  0
   22.3157  -26.6632   41.4942 H   0  0  0  0  0  0  0  0  0  0  0  0
   21.3056  -29.7216   40.0097 H   0  0  0  0  0  0  0  0  0  0  0  0
   21.0005  -30.0329   34.5112 H   0  0  0  0  0  0  0  0  0  0  0  0
   21.0711  -31.8971   32.8537 H   0  0  0  0  0  0  0  0  0  0  0  0
   20.1260  -34.1316   33.4433 H   0  0  0  0  0  0  0  0  0  0  0  0
   18.5360  -35.2140   35.0290 H   0  0  0  0  0  0  0  0  0  0  0  0
   18.2280  -32.5150   40.1870 H   0  0  0  0  0  0  0  0  0  0  0  0
   17.7596  -28.1586   38.1076 H   0  0  0  0  0  0  0  0  0  0  0  0
   17.9336  -26.0969   39.4806 H   0  0  0  0  0  0  0  0  0  0  0  0
   19.7464  -24.2572   39.6728 H   0  0  0  0  0  0  0  0  0  0  0  0
   18.2217  -24.4174   40.6022 H   0  0  0  0  0  0  0  0  0  0  0  0
   20.7992  -23.0324   41.5216 H   0  0  0  0  0  0  0  0  0  0  0  0
   19.2322  -22.2437   41.0817 H   0  0  0  0  0  0  0  0  0  0  0  0
   19.6083  -22.4476   43.5608 H   0  0  0  0  0  0  0  0  0  0  0  0
   18.1160  -23.2726   42.9612 H   0  0  0  0  0  0  0  0  0  0  0  0
   20.7860  -24.5703   43.6784 H   0  0  0  0  0  0  0  0  0  0  0  0
   19.2052  -24.7284   44.5462 H   0  0  0  0  0  0  0  0  0  0  0  0
   19.7464  -26.7108   43.0993 H   0  0  0  0  0  0  0  0  0  0  0  0
   18.2192  -25.8883   42.6435 H   0  0  0  0  0  0  0  0  0  0  0  0
  1  2  1  0
  2  3  2  0
  3  4  1  0
  4  5  1  0
  5  6  1  0
  6  7  1  0
  7  8  2  0
  8  9  1  0
  9 10  2  0
 10 11  1  0
 11 12  1  0
 11 13  2  0
 13 14  1  0
 14 15  2  0
 14 16  1  0
 16 17  1  0
  4 18  2  0
 18 19  1  0
 19 20  2  0
 20 21  1  0
 21 22  1  0
 22 23  1  0
 23 24  1  0
 24 25  1  0
 25 26  1  0
 20  2  1  0
 26 21  1  0
 16  5  2  0
 13  7  1  0
  1 27  1  0
  1 28  1  0
  1 29  1  0
  3 30  1  0
  8 31  1  0
  9 32  1  0
 10 33  1  0
 12 34  1  0
 17 35  1  0
 18 36  1  0
 19 37  1  0
 22 38  1  0
 22 39  1  0
 23 40  1  0
 23 41  1  0
 24 42  1  0
 24 43  1  0
 25 44  1  0
 25 45  1  0
 26 46  1  0
 26 47  1  0
M  END
>  <meeko>  (4) 
{"is_sidechain": [false], "free_energy": -7.37, "intermolecular_energy": -8.605, "internal_energy": -0.465}

$$$$
cand_023_out
     RDKit          3D

 47 50  0  0  0  0  0  0  0  0999 V2000
   19.5030  -32.1460   39.2120 C   0  0  0  0  0  0  0  0  0  0  0  0
   19.5620  -31.0570   38.1740 C   0  0  0  0  0  0  0  0  0  0  0  0
   19.5280  -29.7110   38.5800 C   0  0  0  0  0  0  0  0  0  0  0  0
   19.5850  -28.6630   37.6480 C   0  0  0  0  0  0  0  0  0  0  0  0
   19.5180  -27.2610   38.1110 C   0  0  0  0  0  0  0  0  0  0  0  0
   18.5940  -26.5010   37.4030 O   0  0  0  0  0  0  0  0  0  0  0  0
   18.4290  -25.1810   37.7310 C   0  0  0  0  0  0  0  0  0  0  0  0
   17.5010  -24.4530   36.9850 C   0  0  0  0  0  0  0  0  0  0  0  0
   17.2830  -23.1040   37.2690 C   0  0  0  0  0  0  0  0  0  0  0  0
   17.9920  -22.4810   38.2980 C   0  0  0  0  0  0  0  0  0  0  0  0
   18.9190  -23.2090   39.0410 C   0  0  0  0  0  0  0  0  0  0  0  0
   19.5790  -22.5380   40.0340 O   0  0  0  0  0  0  0  0  0  0  0  0
   19.1370  -24.5600   38.7560 C   0  0  0  0  0  0  0  0  0  0  0  0
   20.1000  -25.3620   39.5120 C   0  0  0  0  0  0  0  0  0  0  0  0
   20.7580  -24.8870   40.4370 O   0  0  0  0  0  0  0  0  0  0  0  0
   20.2610  -26.7820   39.1270 C   0  0  0  0  0  0  0  0  0  0  0  0
   21.1650  -27.5330   39.8580 O   0  0  0  0  0  0  0  0  0  0  0  0
   19.6630  -28.9880   36.2900 C   0  0  0  0  0  0  0  0  0  0  0  0
   19.7010  -30.3230   35.8750 C   0  0  0  0  0  0  0  0  0  0  0  0
   19.6480  -31.3740   36.8050 C   0  0  0  0  0  0  0  0  0  0  0  0
   19.6990  -32.7290   36.4130 N   0  0  0  0  0  0  0  0  0  0  0  0
   18.5400  -33.5140   36.8670 C   0  0  0  0  0  0  0  0  0  0  0  0
   18.8080  -34.9960   36.6000 C   0  0  0  0  0  0  0  0  0  0  0  0
   19.1320  -35.2400   35.1270 C   0  0  0  0  0  0  0  0  0  0  0  0
   20.2710  -34.3350   34.6610 C   0  0  0  0  0  0  0  0  0  0  0  0
   19.9790  -32.8670   34.9750 C   0  0  0  0  0  0  0  0  0  0  0  0
   19.5273  -31.6973   40.2160 H   0  0  0  0  0  0  0  0  0  0  0  0
   18.5725  -32.7196   39.0892 H   0  0  0  0  0  0  0  0  0  0  0  0
   20.3661  -32.8168   39.0892 H   0  0  0  0  0  0  0  0  0  0  0  0
   19.4551  -29.4742   39.6517 H   0  0  0  0  0  0  0  0  0  0  0  0
   16.9418  -24.9420   36.1738 H   0  0  0  0  0  0  0  0  0  0  0  0
   16.5513  -22.5305   36.6811 H   0  0  0  0  0  0  0  0  0  0  0  0
   17.8191  -21.4179   38.5215 H   0  0  0  0  0  0  0  0  0  0  0  0
   19.1040  -21.9820   40.6190 H   0  0  0  0  0  0  0  0  0  0  0  0
   21.0340  -28.4560   39.9560 H   0  0  0  0  0  0  0  0  0  0  0  0
   19.6948  -28.1843   35.5396 H   0  0  0  0  0  0  0  0  0  0  0  0
   19.7736  -30.5537   34.8019 H   0  0  0  0  0  0  0  0  0  0  0  0
   18.3861  -33.3552   37.9445 H   0  0  0  0  0  0  0  0  0  0  0  0
   17.6386  -33.1951   36.3231 H   0  0  0  0  0  0  0  0  0  0  0  0
   19.6599  -35.3233   37.2142 H   0  0  0  0  0  0  0  0  0  0  0  0
   17.9035  -35.5665   36.8578 H   0  0  0  0  0  0  0  0  0  0  0  0
   19.4292  -36.2906   34.9931 H   0  0  0  0  0  0  0  0  0  0  0  0
   18.2370  -35.0141   34.5287 H   0  0  0  0  0  0  0  0  0  0  0  0
   21.1979  -34.6333   35.1728 H   0  0  0  0  0  0  0  0  0  0  0  0
   20.3759  -34.4425   33.5713 H   0  0  0  0  0  0  0  0  0  0  0  0
   20.8519  -32.2527   34.7090 H   0  0  0  0  0  0  0  0  0  0  0  0
   19.1082  -32.5297   34.3937 H   0  0  0  0  0  0  0  0  0  0  0  0
  1  2  1  0
  2  3  2  0
  3  4  1  0
  4  5  1  0
  5  6  1  0
  6  7  1  0
  7  8  2  0
  8  9  1  0
  9 10  2  0
 10 11  1  0
 11 12  1  0
 11 13  2  0
 13 14  1  0
 14 15  2  0
 14 16  1  0
 16 17  1  0
  4 18  2  0
 18 19  1  0
 19 20  2  0
 20 21  1  0
 21 22  1  0
 22 23  1  0
 23 24  1  0
 24 25  1  0
 25 26  1  0
 20  2  1  0
 26 21  1  0
 16  5  2  0
 13  7  1  0
  1 27  1  0
  1 28  1  0
  1 29  1  0
  3 30  1  0
  8 31  1  0
  9 32  1  0
 10 33  1  0
 12 34  1  0
 17 35  1  0
 18 36  1  0
 19 37  1  0
 22 38  1  0
 22 39  1  0
 23 40  1  0
 23 41  1  0
 24 42  1  0
 24 43  1  0
 25 44  1  0
 25 45  1  0
 26 46  1  0
 26 47  1  0
M  END
>  <meeko>  (5) 
{"is_sidechain": [false], "free_energy": -7.173, "intermolecular_energy": -9.145, "internal_energy": 0.306}

$$$$
cand_023_out
     RDKit          3D

 47 50  0  0  0  0  0  0  0  0999 V2000
   19.1850  -23.2590   39.9300 C   0  0  0  0  0  0  0  0  0  0  0  0
   19.5220  -24.1740   41.0770 C   0  0  0  0  0  0  0  0  0  0  0  0
   19.8440  -23.6240   42.3310 C   0  0  0  0  0  0  0  0  0  0  0  0
   20.1600  -24.4380   43.4290 C   0  0  0  0  0  0  0  0  0  0  0  0
   20.5200  -23.8230   44.7230 C   0  0  0  0  0  0  0  0  0  0  0  0
   20.1330  -24.5920   45.8140 O   0  0  0  0  0  0  0  0  0  0  0  0
   20.4080  -24.1390   47.0780 C   0  0  0  0  0  0  0  0  0  0  0  0
   19.9900  -24.9380   48.1440 C   0  0  0  0  0  0  0  0  0  0  0  0
   20.2400  -24.5340   49.4570 C   0  0  0  0  0  0  0  0  0  0  0  0
   20.9080  -23.3340   49.7060 C   0  0  0  0  0  0  0  0  0  0  0  0
   21.3250  -22.5380   48.6410 C   0  0  0  0  0  0  0  0  0  0  0  0
   21.9740  -21.3760   48.9550 O   0  0  0  0  0  0  0  0  0  0  0  0
   21.0740  -22.9420   47.3260 C   0  0  0  0  0  0  0  0  0  0  0  0
   21.4950  -22.1370   46.1790 C   0  0  0  0  0  0  0  0  0  0  0  0
   22.0940  -21.0720   46.3160 O   0  0  0  0  0  0  0  0  0  0  0  0
   21.1750  -22.6500   44.8280 C   0  0  0  0  0  0  0  0  0  0  0  0
   21.5890  -21.8870   43.7510 O   0  0  0  0  0  0  0  0  0  0  0  0
   20.1610  -25.8250   43.2470 C   0  0  0  0  0  0  0  0  0  0  0  0
   19.8400  -26.3830   42.0050 C   0  0  0  0  0  0  0  0  0  0  0  0
   19.5200  -25.5720   40.9050 C   0  0  0  0  0  0  0  0  0  0  0  0
   19.1780  -26.1110   39.6460 N   0  0  0  0  0  0  0  0  0  0  0  0
   20.3160  -26.1980   38.7170 C   0  0  0  0  0  0  0  0  0  0  0  0
   19.7960  -26.5640   37.3270 C   0  0  0  0  0  0  0  0  0  0  0  0
   18.9800  -27.8550   37.3670 C   0  0  0  0  0  0  0  0  0  0  0  0
   17.8710  -27.7690   38.4150 C   0  0  0  0  0  0  0  0  0  0  0  0
   18.4280  -27.3700   39.7810 C   0  0  0  0  0  0  0  0  0  0  0  0
   18.8298  -22.2947   40.3224 H   0  0  0  0  0  0  0  0  0  0  0  0
   20.0823  -23.0965   39.3148 H   0  0  0  0  0  0  0  0  0  0  0  0
   18.3967  -23.7173   39.3148 H   0  0  0  0  0  0  0  0  0  0  0  0
   19.8481  -22.5308   42.4535 H   0  0  0  0  0  0  0  0  0  0  0  0
   19.4644  -25.8846   47.9497 H   0  0  0  0  0  0  0  0  0  0  0  0
   19.9098  -25.1628   50.2970 H   0  0  0  0  0  0  0  0  0  0  0  0
   21.1049  -23.0173   50.7409 H   0  0  0  0  0  0  0  0  0  0  0  0
   22.1870  -20.7620   48.2810 H   0  0  0  0  0  0  0  0  0  0  0  0
   21.9920  -22.3000   43.0120 H   0  0  0  0  0  0  0  0  0  0  0  0
   20.4170  -26.4841   44.0897 H   0  0  0  0  0  0  0  0  0  0  0  0
   19.8383  -27.4768   41.8884 H   0  0  0  0  0  0  0  0  0  0  0  0
   20.8322  -25.2276   38.6741 H   0  0  0  0  0  0  0  0  0  0  0  0
   21.0218  -26.9669   39.0644 H   0  0  0  0  0  0  0  0  0  0  0  0
   19.1590  -25.7478   36.9554 H   0  0  0  0  0  0  0  0  0  0  0  0
   20.6578  -26.7161   36.6606 H   0  0  0  0  0  0  0  0  0  0  0  0
   18.5286  -28.0261   36.3786 H   0  0  0  0  0  0  0  0  0  0  0  0
   19.6504  -28.6855   37.6331 H   0  0  0  0  0  0  0  0  0  0  0  0
   17.1334  -27.0181   38.0955 H   0  0  0  0  0  0  0  0  0  0  0  0
   17.4024  -28.7600   38.5070 H   0  0  0  0  0  0  0  0  0  0  0  0
   17.5990  -27.2307   40.4905 H   0  0  0  0  0  0  0  0  0  0  0  0
   19.0953  -28.1607   40.1545 H   0  0  0  0  0  0  0  0  0  0  0  0
  1  2  1  0
  2  3  2  0
  3  4  1  0
  4  5  1  0
  5  6  1  0
  6  7  1  0
  7  8  2  0
  8  9  1  0
  9 10  2  0
 10 11  1  0
 11 12  1  0
 11 13  2  0
 13 14  1  0
 14 15  2  0
 14 16  1  0
 16 17  1  0
  4 18  2  0
 18 19  1  0
 19 20  2  0
 20 21  1  0
 21 22  1  0
 22 23  1  0
 23 24  1  0
 24 25  1  0
 25 26  1  0
 20  2  1  0
 26 21  1  0
 16  5  2  0
 13  7  1  0
  1 27  1  0
  1 28  1  0
  1 29  1  0
  3 30  1  0
  8 31  1  0
  9 32  1  0
 10 33  1  0
 12 34  1  0
 17 35  1  0
 18 36  1  0
 19 37  1  0
 22 38  1  0
 22 39  1  0
 23 40  1  0
 23 41  1  0
 24 42  1  0
 24 43  1  0
 25 44  1  0
 25 45  1  0
 26 46  1  0
 26 47  1  0
M  END
>  <meeko>  (6) 
{"is_sidechain": [false], "free_energy": -6.878, "intermolecular_energy": -8.424, "internal_energy": -0.068}

$$$$
cand_023_out
     RDKit          3D

 47 50  0  0  0  0  0  0  0  0999 V2000
   19.8500  -25.5870   43.0840 C   0  0  0  0  0  0  0  0  0  0  0  0
   19.6300  -24.7470   41.8540 C   0  0  0  0  0  0  0  0  0  0  0  0
   19.4290  -25.3770   40.6130 C   0  0  0  0  0  0  0  0  0  0  0  0
   19.2150  -24.6350   39.4410 C   0  0  0  0  0  0  0  0  0  0  0  0
   19.0360  -25.3310   38.1500 C   0  0  0  0  0  0  0  0  0  0  0  0
   17.8280  -25.0250   37.5340 O   0  0  0  0  0  0  0  0  0  0  0  0
   17.5330  -25.6020   36.3260 C   0  0  0  0  0  0  0  0  0  0  0  0
   16.3040  -25.2760   35.7500 C   0  0  0  0  0  0  0  0  0  0  0  0
   15.9440  -25.8280   34.5200 C   0  0  0  0  0  0  0  0  0  0  0  0
   16.8100  -26.7050   33.8640 C   0  0  0  0  0  0  0  0  0  0  0  0
   18.0360  -27.0290   34.4410 C   0  0  0  0  0  0  0  0  0  0  0  0
   18.8360  -27.8940   33.7450 O   0  0  0  0  0  0  0  0  0  0  0  0
   18.3970  -26.4770   35.6730 C   0  0  0  0  0  0  0  0  0  0  0  0
   19.6750  -26.7900   36.3130 C   0  0  0  0  0  0  0  0  0  0  0  0
   20.4930  -27.5480   35.7960 O   0  0  0  0  0  0  0  0  0  0  0  0
   19.9590  -26.1570   37.6210 C   0  0  0  0  0  0  0  0  0  0  0  0
   21.1750  -26.4500   38.2110 O   0  0  0  0  0  0  0  0  0  0  0  0
   19.2190  -23.2390   39.5310 C   0  0  0  0  0  0  0  0  0  0  0  0
   19.4140  -22.6030   40.7620 C   0  0  0  0  0  0  0  0  0  0  0  0
   19.6250  -23.3420   41.9360 C   0  0  0  0  0  0  0  0  0  0  0  0
   19.8100  -22.7240   43.1910 N   0  0  0  0  0  0  0  0  0  0  0  0
   20.8590  -21.6920   43.1880 C   0  0  0  0  0  0  0  0  0  0  0  0
   21.1390  -21.2620   44.6280 C   0  0  0  0  0  0  0  0  0  0  0  0
   19.8620  -20.7880   45.3190 C   0  0  0  0  0  0  0  0  0  0  0  0
   18.7610  -21.8420   45.2150 C   0  0  0  0  0  0  0  0  0  0  0  0
   18.5340  -22.2670   43.7640 C   0  0  0  0  0  0  0  0  0  0  0  0
   19.6889  -24.9720   43.9817 H   0  0  0  0  0  0  0  0  0  0  0  0
   19.1421  -26.4289   43.0845 H   0  0  0  0  0  0  0  0  0  0  0  0
   20.8797  -25.9738   43.0845 H   0  0  0  0  0  0  0  0  0  0  0  0
   19.4397  -26.4757   40.5596 H   0  0  0  0  0  0  0  0  0  0  0  0
   15.6203  -24.5850   36.2649 H   0  0  0  0  0  0  0  0  0  0  0  0
   14.9754  -25.5715   34.0660 H   0  0  0  0  0  0  0  0  0  0  0  0
   16.5250  -27.1390   32.8942 H   0  0  0  0  0  0  0  0  0  0  0  0
   18.6770  -28.8160   33.7880 H   0  0  0  0  0  0  0  0  0  0  0  0
   21.7080  -27.1390   37.8660 H   0  0  0  0  0  0  0  0  0  0  0  0
   19.0672  -22.6348   38.6244 H   0  0  0  0  0  0  0  0  0  0  0  0
   19.4017  -21.5041   40.8103 H   0  0  0  0  0  0  0  0  0  0  0  0
   21.7769  -22.1006   42.7401 H   0  0  0  0  0  0  0  0  0  0  0  0
   20.5250  -20.8246   42.5996 H   0  0  0  0  0  0  0  0  0  0  0  0
   21.5523  -22.1164   45.1840 H   0  0  0  0  0  0  0  0  0  0  0  0
   21.8565  -20.4284   44.6102 H   0  0  0  0  0  0  0  0  0  0  0  0
   20.0772  -20.5959   46.3805 H   0  0  0  0  0  0  0  0  0  0  0  0
   19.5157  -19.8687   44.8240 H   0  0  0  0  0  0  0  0  0  0  0  0
   19.0519  -22.7235   45.8052 H   0  0  0  0  0  0  0  0  0  0  0  0
   17.8267  -21.4071   45.5996 H   0  0  0  0  0  0  0  0  0  0  0  0
   17.8007  -23.0863   43.7305 H   0  0  0  0  0  0  0  0  0  0  0  0
   18.1513  -21.4145   43.1836 H   0  0  0  0  0  0  0  0  0  0  0  0
  1  2  1  0
  2  3  2  0
  3  4  1  0
  4  5  1  0
  5  6  1  0
  6  7  1  0
  7  8  2  0
  8  9  1  0
  9 10  2  0
 10 11  1  0
 11 12  1  0
 11 13  2  0
 13 14  1  0
 14 15  2  0
 14 16  1  0
 16 17  1  0
  4 18  2  0
 18 19  1  0
 19 20  2  0
 20 21  1  0
 21 22  1  0
 22 23  1  0
 23 24  1  0
 24 25  1  0
 25 26  1  0
 20  2  1  0
 26 21  1  0
 16  5  2  0
 13  7  1  0
  1 27  1  0
  1 28  1  0
  1 29  1  0
  3 30  1  0
  8 31  1  0
  9 32  1  0
 10 33  1  0
 12 34  1  0
 17 35  1  0
 18 36  1  0
 19 37  1  0
 22 38  1  0
 22 39  1  0
 23 40  1  0
 23 41  1  0
 24 42  1  0
 24 43  1  0
 25 44  1  0
 25 45  1  0
 26 46  1  0
 26 47  1  0
M  END
>  <meeko>  (7) 
{"is_sidechain": [false], "free_energy": -6.876, "intermolecular_energy": -7.977, "internal_energy": -0.511}

$$$$
cand_023_out
     RDKit          3D

 47 50  0  0  0  0  0  0  0  0999 V2000
   20.4600  -20.5160   43.5980 C   0  0  0  0  0  0  0  0  0  0  0  0
   20.0990  -21.9780   43.5950 C   0  0  0  0  0  0  0  0  0  0  0  0
   20.1010  -22.6890   42.3820 C   0  0  0  0  0  0  0  0  0  0  0  0
   19.7770  -24.0540   42.3330 C   0  0  0  0  0  0  0  0  0  0  0  0
   19.7630  -24.7610   41.0360 C   0  0  0  0  0  0  0  0  0  0  0  0
   18.9130  -24.1710   40.1070 O   0  0  0  0  0  0  0  0  0  0  0  0
   18.8050  -24.7260   38.8580 C   0  0  0  0  0  0  0  0  0  0  0  0
   17.9310  -24.1090   37.9630 C   0  0  0  0  0  0  0  0  0  0  0  0
   17.7760  -24.6220   36.6740 C   0  0  0  0  0  0  0  0  0  0  0  0
   18.4950  -25.7520   36.2790 C   0  0  0  0  0  0  0  0  0  0  0  0
   19.3670  -26.3670   37.1740 C   0  0  0  0  0  0  0  0  0  0  0  0
   20.0400  -27.4690   36.7230 O   0  0  0  0  0  0  0  0  0  0  0  0
   19.5220  -25.8530   38.4650 C   0  0  0  0  0  0  0  0  0  0  0  0
   20.4280  -26.4670   39.4360 C   0  0  0  0  0  0  0  0  0  0  0  0
   21.1000  -27.4600   39.1620 O   0  0  0  0  0  0  0  0  0  0  0  0
   20.5140  -25.8490   40.7790 C   0  0  0  0  0  0  0  0  0  0  0  0
   21.3840  -26.4300   41.6840 O   0  0  0  0  0  0  0  0  0  0  0  0
   19.4330  -24.6960   43.5270 C   0  0  0  0  0  0  0  0  0  0  0  0
   19.4300  -23.9990   44.7390 C   0  0  0  0  0  0  0  0  0  0  0  0
   19.7580  -22.6350   44.7930 C   0  0  0  0  0  0  0  0  0  0  0  0
   19.7760  -21.9120   46.0050 N   0  0  0  0  0  0  0  0  0  0  0  0
   18.5200  -22.0080   46.7640 C   0  0  0  0  0  0  0  0  0  0  0  0
   18.5600  -21.0110   47.9230 C   0  0  0  0  0  0  0  0  0  0  0  0
   19.7880  -21.2400   48.8030 C   0  0  0  0  0  0  0  0  0  0  0  0
   21.0680  -21.2370   47.9680 C   0  0  0  0  0  0  0  0  0  0  0  0
   20.9730  -22.2230   46.8030 C   0  0  0  0  0  0  0  0  0  0  0  0
   20.5474  -20.1620   44.6358 H   0  0  0  0  0  0  0  0  0  0  0  0
   21.4201  -20.3743   43.0802 H   0  0  0  0  0  0  0  0  0  0  0  0
   19.6762  -19.9437   43.0802 H   0  0  0  0  0  0  0  0  0  0  0  0
   20.3621  -22.1642   41.4512 H   0  0  0  0  0  0  0  0  0  0  0  0
   17.3642  -23.2186   38.2727 H   0  0  0  0  0  0  0  0  0  0  0  0
   17.0865  -24.1354   35.9685 H   0  0  0  0  0  0  0  0  0  0  0  0
   18.3729  -26.1556   35.2630 H   0  0  0  0  0  0  0  0  0  0  0  0
   19.6050  -28.0920   36.1760 H   0  0  0  0  0  0  0  0  0  0  0  0
   21.4220  -26.1140   42.5650 H   0  0  0  0  0  0  0  0  0  0  0  0
   19.1616  -25.7619   43.5123 H   0  0  0  0  0  0  0  0  0  0  0  0
   19.1661  -24.5285   45.6663 H   0  0  0  0  0  0  0  0  0  0  0  0
   17.6718  -21.7726   46.1044 H   0  0  0  0  0  0  0  0  0  0  0  0
   18.4004  -23.0287   47.1563 H   0  0  0  0  0  0  0  0  0  0  0  0
   18.5944  -19.9892   47.5170 H   0  0  0  0  0  0  0  0  0  0  0  0
   17.6585  -21.1527   48.5372 H   0  0  0  0  0  0  0  0  0  0  0  0
   19.8467  -20.4387   49.5543 H   0  0  0  0  0  0  0  0  0  0  0  0
   19.6908  -22.2204   49.2922 H   0  0  0  0  0  0  0  0  0  0  0  0
   21.2332  -20.2254   47.5688 H   0  0  0  0  0  0  0  0  0  0  0  0
   21.9048  -21.5417   48.6137 H   0  0  0  0  0  0  0  0  0  0  0  0
   21.8696  -22.1348   46.1718 H   0  0  0  0  0  0  0  0  0  0  0  0
   20.9029  -23.2498   47.1914 H   0  0  0  0  0  0  0  0  0  0  0  0
  1  2  1  0
  2  3  2  0
  3  4  1  0
  4  5  1  0
  5  6  1  0
  6  7  1  0
  7  8  2  0
  8  9  1  0
  9 10  2  0
 10 11  1  0
 11 12  1  0
 11 13  2  0
 13 14  1  0
 14 15  2  0
 14 16  1  0
 16 17  1  0
  4 18  2  0
 18 19  1  0
 19 20  2  0
 20 21  1  0
 21 22  1  0
 22 23  1  0
 23 24  1  0
 24 25  1  0
 25 26  1  0
 20  2  1  0
 26 21  1  0
 16  5  2  0
 13  7  1  0
  1 27  1  0
  1 28  1  0
  1 29  1  0
  3 30  1  0
  8 31  1  0
  9 32  1  0
 10 33  1  0
 12 34  1  0
 17 35  1  0
 18 36  1  0
 19 37  1  0
 22 38  1  0
 22 39  1  0
 23 40  1  0
 23 41  1  0
 24 42  1  0
 24 43  1  0
 25 44  1  0
 25 45  1  0
 26 46  1  0
 26 47  1  0
M  END
>  <meeko>  (8) 
{"is_sidechain": [false], "free_energy": -6.804, "intermolecular_energy": -7.852, "internal_energy": -0.553}

$$$$
cand_023_out
     RDKit          3D

 47 50  0  0  0  0  0  0  0  0999 V2000
   16.9140  -24.6990   34.3270 C   0  0  0  0  0  0  0  0  0  0  0  0
   17.7520  -23.9510   35.3290 C   0  0  0  0  0  0  0  0  0  0  0  0
   18.2430  -24.6260   36.4620 C   0  0  0  0  0  0  0  0  0  0  0  0
   19.0320  -23.9690   37.4190 C   0  0  0  0  0  0  0  0  0  0  0  0
   19.5070  -24.7040   38.6110 C   0  0  0  0  0  0  0  0  0  0  0  0
   19.1600  -24.0810   39.8040 O   0  0  0  0  0  0  0  0  0  0  0  0
   19.5370  -24.6570   40.9890 C   0  0  0  0  0  0  0  0  0  0  0  0
   19.1790  -23.9890   42.1610 C   0  0  0  0  0  0  0  0  0  0  0  0
   19.5310  -24.5240   43.4020 C   0  0  0  0  0  0  0  0  0  0  0  0
   20.2400  -25.7250   43.4720 C   0  0  0  0  0  0  0  0  0  0  0  0
   20.5960  -26.3890   42.3010 C   0  0  0  0  0  0  0  0  0  0  0  0
   21.2900  -27.5600   42.4410 O   0  0  0  0  0  0  0  0  0  0  0  0
   20.2440  -25.8540   41.0580 C   0  0  0  0  0  0  0  0  0  0  0  0
   20.5980  -26.5190   39.8040 C   0  0  0  0  0  0  0  0  0  0  0  0
   21.2160  -27.5820   39.7830 O   0  0  0  0  0  0  0  0  0  0  0  0
   20.1840  -25.8660   38.5420 C   0  0  0  0  0  0  0  0  0  0  0  0
   20.5130  -26.5110   37.3630 O   0  0  0  0  0  0  0  0  0  0  0  0
   19.3120  -22.6120   37.2300 C   0  0  0  0  0  0  0  0  0  0  0  0
   18.8310  -21.9330   36.1060 C   0  0  0  0  0  0  0  0  0  0  0  0
   18.0450  -22.5860   35.1440 C   0  0  0  0  0  0  0  0  0  0  0  0
   17.5590  -21.9270   33.9950 N   0  0  0  0  0  0  0  0  0  0  0  0
   16.4000  -21.0610   34.2610 C   0  0  0  0  0  0  0  0  0  0  0  0
   15.8140  -20.5910   32.9290 C   0  0  0  0  0  0  0  0  0  0  0  0
   16.8740  -19.8950   32.0770 C   0  0  0  0  0  0  0  0  0  0  0  0
   18.1070  -20.7810   31.9060 C   0  0  0  0  0  0  0  0  0  0  0  0
   18.6420  -21.2560   33.2570 C   0  0  0  0  0  0  0  0  0  0  0  0
   16.1948  -25.3409   34.8568 H   0  0  0  0  0  0  0  0  0  0  0  0
   16.3693  -23.9813   33.6960 H   0  0  0  0  0  0  0  0  0  0  0  0
   17.5655  -25.3214   33.6960 H   0  0  0  0  0  0  0  0  0  0  0  0
   18.0035  -25.6906   36.6005 H   0  0  0  0  0  0  0  0  0  0  0  0
   18.6206  -23.0428   42.1073 H   0  0  0  0  0  0  0  0  0  0  0  0
   19.2492  -23.9983   44.3262 H   0  0  0  0  0  0  0  0  0  0  0  0
   20.5167  -26.1456   44.4500 H   0  0  0  0  0  0  0  0  0  0  0  0
   21.8040  -27.8880   41.7300 H   0  0  0  0  0  0  0  0  0  0  0  0
   20.8310  -27.3920   37.3840 H   0  0  0  0  0  0  0  0  0  0  0  0
   19.9172  -22.0727   37.9736 H   0  0  0  0  0  0  0  0  0  0  0  0
   19.0730  -20.8682   35.9735 H   0  0  0  0  0  0  0  0  0  0  0  0
   15.6389  -21.6248   34.8204 H   0  0  0  0  0  0  0  0  0  0  0  0
   16.7147  -20.1912   34.8563 H   0  0  0  0  0  0  0  0  0  0  0  0
   15.4265  -21.4617   32.3798 H   0  0  0  0  0  0  0  0  0  0  0  0
   15.0061  -19.8738   33.1363 H   0  0  0  0  0  0  0  0  0  0  0  0
   16.4504  -19.6728   31.0864 H   0  0  0  0  0  0  0  0  0  0  0  0
   17.1769  -18.9667   32.5835 H   0  0  0  0  0  0  0  0  0  0  0  0
   17.8367  -21.6579   31.2994 H   0  0  0  0  0  0  0  0  0  0  0  0
   18.8919  -20.1913   31.4099 H   0  0  0  0  0  0  0  0  0  0  0  0
   19.4711  -21.9612   33.0976 H   0  0  0  0  0  0  0  0  0  0  0  0
   19.0059  -20.3940   33.8354 H   0  0  0  0  0  0  0  0  0  0  0  0
  1  2  1  0
  2  3  2  0
  3  4  1  0
  4  5  1  0
  5  6  1  0
  6  7  1  0
  7  8  2  0
  8  9  1  0
  9 10  2  0
 10 11  1  0
 11 12  1  0
 11 13  2  0
 13 14  1  0
 14 15  2  0
 14 16  1  0
 16 17  1  0
  4 18  2  0
 18 19  1  0
 19 20  2  0
 20 21  1  0
 21 22  1  0
 22 23  1  0
 23 24  1  0
 24 25  1  0
 25 26  1  0
 20  2  1  0
 26 21  1  0
 16  5  2  0
 13  7  1  0
  1 27  1  0
  1 28  1  0
  1 29  1  0
  3 30  1  0
  8 31  1  0
  9 32  1  0
 10 33  1  0
 12 34  1  0
 17 35  1  0
 18 36  1  0
 19 37  1  0
 22 38  1  0
 22 39  1  0
 23 40  1  0
 23 41  1  0
 24 42  1  0
 24 43  1  0
 25 44  1  0
 25 45  1  0
 26 46  1  0
 26 47  1  0
M  END
>  <meeko>  (9) 
{"is_sidechain": [false], "free_energy": -6.718, "intermolecular_energy": -7.842, "internal_energy": -0.461}

$$$$
