cand_017_out
     RDKit          3D

 38 40  0  0  0  0  0  0  0  0999 V2000
   22.3280  -27.6850   41.8280 C   0  0  0  0  0  0  0  0  0  0  0  0
   20.9350  -27.0960   42.0030 C   0  0  0  0  0  0  0  0  0  0  0  0
   20.0640  -27.3310   40.7880 C   0  0  0  0  0  0  0  0  0  0  0  0
   20.1060  -28.6010   40.1770 C   0  0  0  0  0  0  0  0  0  0  0  0
   19.3280  -28.9040   39.0510 C   0  0  0  0  0  0  0  0  0  0  0  0
   19.3550  -30.2440   38.4260 C   0  0  0  0  0  0  0  0  0  0  0  0
   18.9070  -31.2470   39.2770 O   0  0  0  0  0  0  0  0  0  0  0  0
   18.8800  -32.5400   38.8210 C   0  0  0  0  0  0  0  0  0  0  0  0
   18.4390  -33.5170   39.7140 C   0  0  0  0  0  0  0  0  0  0  0  0
   18.3860  -34.8550   39.3130 C   0  0  0  0  0  0  0  0  0  0  0  0
   18.7740  -35.2130   38.0210 C   0  0  0  0  0  0  0  0  0  0  0  0
   19.2140  -34.2360   37.1320 C   0  0  0  0  0  0  0  0  0  0  0  0
   19.5780  -34.6570   35.8820 O   0  0  0  0  0  0  0  0  0  0  0  0
   19.2670  -32.8990   37.5330 C   0  0  0  0  0  0  0  0  0  0  0  0
   19.7240  -31.8410   36.6320 C   0  0  0  0  0  0  0  0  0  0  0  0
   20.0750  -32.0760   35.4760 O   0  0  0  0  0  0  0  0  0  0  0  0
   19.7510  -30.4560   37.1570 C   0  0  0  0  0  0  0  0  0  0  0  0
   20.1720  -29.4630   36.2920 O   0  0  0  0  0  0  0  0  0  0  0  0
   18.4770  -27.9160   38.5460 C   0  0  0  0  0  0  0  0  0  0  0  0
   18.4190  -26.6530   39.1420 C   0  0  0  0  0  0  0  0  0  0  0  0
   19.2030  -26.3420   40.2660 C   0  0  0  0  0  0  0  0  0  0  0  0
   19.1160  -24.9530   40.8560 C   0  0  0  0  0  0  0  0  0  0  0  0
   20.2170  -24.1920   40.5990 F   0  0  0  0  0  0  0  0  0  0  0  0
   18.9830  -24.9450   42.2150 F   0  0  0  0  0  0  0  0  0  0  0  0
   22.7733  -27.8733   42.8161 H   0  0  0  0  0  0  0  0  0  0  0  0
   22.2588  -28.6309   41.2707 H   0  0  0  0  0  0  0  0  0  0  0  0
   22.9584  -26.9764   41.2707 H   0  0  0  0  0  0  0  0  0  0  0  0
   20.4588  -27.5638   42.8773 H   0  0  0  0  0  0  0  0  0  0  0  0
   21.0400  -26.0098   42.1411 H   0  0  0  0  0  0  0  0  0  0  0  0
   20.7669  -29.3746   40.5950 H   0  0  0  0  0  0  0  0  0  0  0  0
   18.1334  -33.2347   40.7323 H   0  0  0  0  0  0  0  0  0  0  0  0
   18.0383  -35.6262   40.0161 H   0  0  0  0  0  0  0  0  0  0  0  0
   18.7322  -36.2659   37.7054 H   0  0  0  0  0  0  0  0  0  0  0  0
   19.5100  -34.0730   35.1530 H   0  0  0  0  0  0  0  0  0  0  0  0
   19.6050  -28.7430   36.0950 H   0  0  0  0  0  0  0  0  0  0  0  0
   17.8471  -28.1349   37.6712 H   0  0  0  0  0  0  0  0  0  0  0  0
   17.7476  -25.8887   38.7236 H   0  0  0  0  0  0  0  0  0  0  0  0
   18.2200  -24.5393   40.3703 H   0  0  0  0  0  0  0  0  0  0  0  0
  1  2  1  0
  2  3  1  0
  3  4  2  0
  4  5  1  0
  5  6  1  0
  6  7  1  0
  7  8  1  0
  8  9  2  0
  9 10  1  0
 10 11  2  0
 11 12  1  0
 12 13  1  0
 12 14  2  0
 14 15  1  0
 15 16  2  0
 15 17  1  0
 17 18  1  0
  5 19  2  0
 19 20  1  0
 20 21  2  0
 21 22  1  0
 22 23  1  0
 22 24  1  0
 21  3  1  0
 17  6  2  0
 14  8  1  0
  1 25  1  0
  1 26  1  0
  1 27  1  0
  2 28  1  0
  2 29  1  0
  4 30  1  0
  9 31  1  0
 10 32  1  0
 11 33  1  0
 13 34  1  0
 18 35  1  0
 19 36  1  0
 20 37  1  0
 22 38  1  0
M  END
>  <meeko>  (1) 
{"is_sidechain": [false], "free_energy": -8.121, "intermolecular_energy": -10.02, "internal_energy": -0.373}

$$$$
cand_017_out
     RDKit          3D

 38 40  0  0  0  0  0  0  0  0999 V2000
   18.4330  -33.6430   39.6760 C   0  0  0  0  0  0  0  0  0  0  0  0
   19.2470  -33.6830   38.3900 C   0  0  0  0  0  0  0  0  0  0  0  0
   19.4130  -32.3070   37.7820 C   0  0  0  0  0  0  0  0  0  0  0  0
   19.2620  -31.1860   38.6250 C   0  0  0  0  0  0  0  0  0  0  0  0
   19.4050  -29.8770   38.1450 C   0  0  0  0  0  0  0  0  0  0  0  0
   19.2720  -28.7040   39.0340 C   0  0  0  0  0  0  0  0  0  0  0  0
   20.2050  -28.6970   40.0640 O   0  0  0  0  0  0  0  0  0  0  0  0
   20.1920  -27.6630   40.9640 C   0  0  0  0  0  0  0  0  0  0  0  0
   21.1360  -27.7040   41.9910 C   0  0  0  0  0  0  0  0  0  0  0  0
   21.1780  -26.6800   42.9410 C   0  0  0  0  0  0  0  0  0  0  0  0
   20.2770  -25.6170   42.8630 C   0  0  0  0  0  0  0  0  0  0  0  0
   19.3360  -25.5780   41.8370 C   0  0  0  0  0  0  0  0  0  0  0  0
   18.4850  -24.5070   41.8200 O   0  0  0  0  0  0  0  0  0  0  0  0
   19.2940  -26.6020   40.8880 C   0  0  0  0  0  0  0  0  0  0  0  0
   18.3210  -26.6010   39.7950 C   0  0  0  0  0  0  0  0  0  0  0  0
   17.5000  -25.6950   39.6540 O   0  0  0  0  0  0  0  0  0  0  0  0
   18.3550  -27.7370   38.8450 C   0  0  0  0  0  0  0  0  0  0  0  0
   17.4390  -27.7190   37.8090 O   0  0  0  0  0  0  0  0  0  0  0  0
   19.7250  -29.6960   36.7960 C   0  0  0  0  0  0  0  0  0  0  0  0
   19.8820  -30.7950   35.9470 C   0  0  0  0  0  0  0  0  0  0  0  0
   19.7330  -32.1090   36.4220 C   0  0  0  0  0  0  0  0  0  0  0  0
   19.8920  -33.2590   35.4540 C   0  0  0  0  0  0  0  0  0  0  0  0
   20.2710  -32.8620   34.2070 F   0  0  0  0  0  0  0  0  0  0  0  0
   18.7470  -33.9790   35.2700 F   0  0  0  0  0  0  0  0  0  0  0  0
   19.1119  -33.6764   40.5409 H   0  0  0  0  0  0  0  0  0  0  0  0
   17.8436  -32.7148   39.7081 H   0  0  0  0  0  0  0  0  0  0  0  0
   17.7554  -34.5089   39.7081 H   0  0  0  0  0  0  0  0  0  0  0  0
   20.2422  -34.0957   38.6121 H   0  0  0  0  0  0  0  0  0  0  0  0
   18.7084  -34.3120   37.6660 H   0  0  0  0  0  0  0  0  0  0  0  0
   19.0257  -31.3435   39.6877 H   0  0  0  0  0  0  0  0  0  0  0  0
   21.8464  -28.5416   42.0527 H   0  0  0  0  0  0  0  0  0  0  0  0
   21.9217  -26.7118   43.7509 H   0  0  0  0  0  0  0  0  0  0  0  0
   20.3100  -24.8110   43.6109 H   0  0  0  0  0  0  0  0  0  0  0  0
   18.8100  -23.6470   42.0020 H   0  0  0  0  0  0  0  0  0  0  0  0
   17.6770  -27.3500   36.9810 H   0  0  0  0  0  0  0  0  0  0  0  0
   19.8545  -28.6784   36.3989 H   0  0  0  0  0  0  0  0  0  0  0  0
   20.1267  -30.6283   34.8876 H   0  0  0  0  0  0  0  0  0  0  0  0
   20.6699  -33.8720   35.9326 H   0  0  0  0  0  0  0  0  0  0  0  0
  1  2  1  0
  2  3  1  0
  3  4  2  0
  4  5  1  0
  5  6  1  0
  6  7  1  0
  7  8  1  0
  8  9  2  0
  9 10  1  0
 10 11  2  0
 11 12  1  0
 12 13  1  0
 12 14  2  0
 14 15  1  0
 15 16  2  0
 15 17  1  0
 17 18  1  0
  5 19  2  0
 19 20  1  0
 20 21  2  0
 21 22  1  0
 22 23  1  0
 22 24  1  0
 21  3  1  0
 17  6  2  0
 14  8  1  0
  1 25  1  0
  1 26  1  0
  1 27  1  0
  2 28  1  0
  2 29  1  0
  4 30  1  0
  9 31  1  0
 10 32  1  0
 11 33  1  0
 13 34  1  0
 18 35  1  0
 19 36  1  0
 20 37  1  0
 22 38  1  0
M  END
>  <meeko>  (2) 
{"is_sidechain": [false], "free_energy": -7.96, "intermolecular_energy": -9.728, "internal_energy": -0.467}

$$$$
cand_017_out
     RDKit          3D

 38 40  0  0  0  0  0  0  0  0999 V2000
   19.9280  -30.0590   34.1780 C   0  0  0  0  0  0  0  0  0  0  0  0
   20.5970  -31.1440   35.0100 C   0  0  0  0  0  0  0  0  0  0  0  0
   20.0080  -31.2360   36.4000 C   0  0  0  0  0  0  0  0  0  0  0  0
   19.9110  -30.0510   37.1600 C   0  0  0  0  0  0  0  0  0  0  0  0
   19.3720  -30.0460   38.4540 C   0  0  0  0  0  0  0  0  0  0  0  0
   19.2480  -28.8000   39.2400 C   0  0  0  0  0  0  0  0  0  0  0  0
   20.1590  -28.7290   40.2870 O   0  0  0  0  0  0  0  0  0  0  0  0
   20.1520  -27.6230   41.0970 C   0  0  0  0  0  0  0  0  0  0  0  0
   21.0720  -27.6000   42.1460 C   0  0  0  0  0  0  0  0  0  0  0  0
   21.1190  -26.5010   43.0080 C   0  0  0  0  0  0  0  0  0  0  0  0
   20.2470  -25.4280   42.8210 C   0  0  0  0  0  0  0  0  0  0  0  0
   19.3300  -25.4530   41.7740 C   0  0  0  0  0  0  0  0  0  0  0  0
   18.5070  -24.3670   41.6480 O   0  0  0  0  0  0  0  0  0  0  0  0
   19.2830  -26.5510   40.9120 C   0  0  0  0  0  0  0  0  0  0  0  0
   18.3340  -26.6190   39.8000 C   0  0  0  0  0  0  0  0  0  0  0  0
   17.5390  -25.7100   39.5650 O   0  0  0  0  0  0  0  0  0  0  0  0
   18.3600  -27.8310   38.9490 C   0  0  0  0  0  0  0  0  0  0  0  0
   17.4680  -27.8790   37.8930 O   0  0  0  0  0  0  0  0  0  0  0  0
   18.9060  -31.2530   38.9830 C   0  0  0  0  0  0  0  0  0  0  0  0
   18.9900  -32.4360   38.2440 C   0  0  0  0  0  0  0  0  0  0  0  0
   19.5350  -32.4470   36.9490 C   0  0  0  0  0  0  0  0  0  0  0  0
   19.6220  -33.7590   36.2030 C   0  0  0  0  0  0  0  0  0  0  0  0
   18.8640  -33.7850   35.0710 F   0  0  0  0  0  0  0  0  0  0  0  0
   19.2070  -34.8320   36.9380 F   0  0  0  0  0  0  0  0  0  0  0  0
   19.4693  -29.3151   34.8461 H   0  0  0  0  0  0  0  0  0  0  0  0
   20.6801  -29.5675   33.5434 H   0  0  0  0  0  0  0  0  0  0  0  0
   19.1511  -30.5103   33.5434 H   0  0  0  0  0  0  0  0  0  0  0  0
   20.4653  -32.1117   34.5037 H   0  0  0  0  0  0  0  0  0  0  0  0
   21.6623  -30.8883   35.1086 H   0  0  0  0  0  0  0  0  0  0  0  0
   20.2680  -29.1057   36.7253 H   0  0  0  0  0  0  0  0  0  0  0  0
   21.7594  -28.4459   42.2942 H   0  0  0  0  0  0  0  0  0  0  0  0
   21.8443  -26.4819   43.8348 H   0  0  0  0  0  0  0  0  0  0  0  0
   20.2841  -24.5634   43.5000 H   0  0  0  0  0  0  0  0  0  0  0  0
   18.7570  -23.6500   41.1000 H   0  0  0  0  0  0  0  0  0  0  0  0
   16.8600  -28.5870   37.8260 H   0  0  0  0  0  0  0  0  0  0  0  0
   18.4684  -31.2718   39.9920 H   0  0  0  0  0  0  0  0  0  0  0  0
   18.6230  -33.3751   38.6838 H   0  0  0  0  0  0  0  0  0  0  0  0
   20.6941  -33.8324   35.9681 H   0  0  0  0  0  0  0  0  0  0  0  0
  1  2  1  0
  2  3  1  0
  3  4  2  0
  4  5  1  0
  5  6  1  0
  6  7  1  0
  7  8  1  0
  8  9  2  0
  9 10  1  0
 10 11  2  0
 11 12  1  0
 12 13  1  0
 12 14  2  0
 14 15  1  0
 15 16  2  0
 15 17  1  0
 17 18  1  0
  5 19  2  0
 19 20  1  0
 20 21  2  0
 21 22  1  0
 22 23  1  0
 22 24  1  0
 21  3  1  0
 17  6  2  0
 14  8  1  0
  1 25  1  0
  1 26  1  0
  1 27  1  0
  2 28  1  0
  2 29  1  0
  4 30  1  0
  9 31  1  0
 10 32  1  0
 11 33  1  0
 13 34  1  0
 18 35  1  0
 19 36  1  0
 20 37  1  0
 22 38  1  0
M  END
>  <meeko>  (3) 
{"is_sidechain": [false], "free_energy": -7.835, "intermolecular_energy": -9.453, "internal_energy": -0.586}

$$$$
cand_017_out
     RDKit          3D

 38 40  0  0  0  0  0  0  0  0999 V2000
   18.5370  -24.9730   36.8260 C   0  0  0  0  0  0  0  0  0  0  0  0
   17.8920  -25.2880   38.1680 C   0  0  0  0  0  0  0  0  0  0  0  0
   18.6370  -26.3720   38.9150 C   0  0  0  0  0  0  0  0  0  0  0  0
   18.6590  -27.6670   38.3570 C   0  0  0  0  0  0  0  0  0  0  0  0
   19.3310  -28.7280   38.9790 C   0  0  0  0  0  0  0  0  0  0  0  0
   19.3740  -30.0790   38.3810 C   0  0  0  0  0  0  0  0  0  0  0  0
   18.9290  -31.0690   39.2490 O   0  0  0  0  0  0  0  0  0  0  0  0
   18.9170  -32.3710   38.8190 C   0  0  0  0  0  0  0  0  0  0  0  0
   18.4770  -33.3340   39.7280 C   0  0  0  0  0  0  0  0  0  0  0  0
   18.4380  -34.6800   39.3530 C   0  0  0  0  0  0  0  0  0  0  0  0
   18.8390  -35.0610   38.0720 C   0  0  0  0  0  0  0  0  0  0  0  0
   19.2760  -34.0980   37.1660 C   0  0  0  0  0  0  0  0  0  0  0  0
   19.6530  -34.5410   35.9270 O   0  0  0  0  0  0  0  0  0  0  0  0
   19.3160  -32.7520   37.5410 C   0  0  0  0  0  0  0  0  0  0  0  0
   19.7700  -31.7080   36.6220 C   0  0  0  0  0  0  0  0  0  0  0  0
   20.1310  -31.9630   35.4740 O   0  0  0  0  0  0  0  0  0  0  0  0
   19.7810  -30.3140   37.1190 C   0  0  0  0  0  0  0  0  0  0  0  0
   20.1990  -29.3340   36.2370 O   0  0  0  0  0  0  0  0  0  0  0  0
   20.0090  -28.4740   40.1750 C   0  0  0  0  0  0  0  0  0  0  0  0
   20.0020  -27.1960   40.7410 C   0  0  0  0  0  0  0  0  0  0  0  0
   19.3240  -26.1310   40.1240 C   0  0  0  0  0  0  0  0  0  0  0  0
   19.3300  -24.7750   40.7920 C   0  0  0  0  0  0  0  0  0  0  0  0
   20.1180  -23.8650   40.1520 F   0  0  0  0  0  0  0  0  0  0  0  0
   19.7860  -24.8040   42.0780 F   0  0  0  0  0  0  0  0  0  0  0  0
   19.5141  -24.4958   36.9918 H   0  0  0  0  0  0  0  0  0  0  0  0
   18.6757  -25.9048   36.2581 H   0  0  0  0  0  0  0  0  0  0  0  0
   17.8874  -24.2907   36.2581 H   0  0  0  0  0  0  0  0  0  0  0  0
   17.8847  -24.3749   38.7814 H   0  0  0  0  0  0  0  0  0  0  0  0
   16.8702  -25.6479   37.9774 H   0  0  0  0  0  0  0  0  0  0  0  0
   18.1343  -27.8493   37.4075 H   0  0  0  0  0  0  0  0  0  0  0  0
   18.1613  -33.0343   40.7382 H   0  0  0  0  0  0  0  0  0  0  0  0
   18.0908  -35.4398   40.0686 H   0  0  0  0  0  0  0  0  0  0  0  0
   18.8100  -36.1206   37.7782 H   0  0  0  0  0  0  0  0  0  0  0  0
   19.0670  -34.4560   35.2020 H   0  0  0  0  0  0  0  0  0  0  0  0
   19.8600  -28.4640   36.3090 H   0  0  0  0  0  0  0  0  0  0  0  0
   20.5535  -29.2882   40.6757 H   0  0  0  0  0  0  0  0  0  0  0  0
   20.5367  -27.0208   41.6862 H   0  0  0  0  0  0  0  0  0  0  0  0
   18.2703  -24.4823   40.7559 H   0  0  0  0  0  0  0  0  0  0  0  0
  1  2  1  0
  2  3  1  0
  3  4  2  0
  4  5  1  0
  5  6  1  0
  6  7  1  0
  7  8  1  0
  8  9  2  0
  9 10  1  0
 10 11  2  0
 11 12  1  0
 12 13  1  0
 12 14  2  0
 14 15  1  0
 15 16  2  0
 15 17  1  0
 17 18  1  0
  5 19  2  0
 19 20  1  0
 20 21  2  0
 21 22  1  0
 22 23  1  0
 22 24  1  0
 21  3  1  0
 17  6  2  0
 14  8  1  0
  1 25  1  0
  1 26  1  0
  1 27  1  0
  2 28  1  0
  2 29  1  0
  4 30  1  0
  9 31  1  0
 10 32  1  0
 11 33  1  0
 13 34  1  0
 18 35  1  0
 19 36  1  0
 20 37  1  0
 22 38  1  0
M  END
>  <meeko>  (4) 
{"is_sidechain": [false], "free_energy": -7.584, "intermolecular_energy": -9.248, "internal_energy": -0.482}

$$$$
cand_017_out
     RDKit          3D

 38 40  0  0  0  0  0  0  0  0999 V2000
   21.9860  -25.1530   45.4140 C   0  0  0  0  0  0  0  0  0  0  0  0
   22.7280  -26.4820   45.3950 C   0  0  0  0  0  0  0  0  0  0  0  0
   22.7360  -27.1070   44.0170 C   0  0  0  0  0  0  0  0  0  0  0  0
   21.7600  -26.6840   43.0910 C   0  0  0  0  0  0  0  0  0  0  0  0
   21.6990  -27.2070   41.7920 C   0  0  0  0  0  0  0  0  0  0  0  0
   20.6900  -26.7450   40.8140 C   0  0  0  0  0  0  0  0  0  0  0  0
   20.5880  -25.3600   40.7570 O   0  0  0  0  0  0  0  0  0  0  0  0
   19.6870  -24.7980   39.8890 C   0  0  0  0  0  0  0  0  0  0  0  0
   19.6060  -23.4050   39.8760 C   0  0  0  0  0  0  0  0  0  0  0  0
   18.7100  -22.7670   39.0140 C   0  0  0  0  0  0  0  0  0  0  0  0
   17.8970  -23.5220   38.1670 C   0  0  0  0  0  0  0  0  0  0  0  0
   17.9800  -24.9120   38.1820 C   0  0  0  0  0  0  0  0  0  0  0  0
   17.1550  -25.5900   37.3260 O   0  0  0  0  0  0  0  0  0  0  0  0
   18.8760  -25.5490   39.0450 C   0  0  0  0  0  0  0  0  0  0  0  0
   18.9950  -27.0070   39.0930 C   0  0  0  0  0  0  0  0  0  0  0  0
   18.3190  -27.7410   38.3730 O   0  0  0  0  0  0  0  0  0  0  0  0
   19.9690  -27.5840   40.0480 C   0  0  0  0  0  0  0  0  0  0  0  0
   20.0820  -28.9620   40.0760 O   0  0  0  0  0  0  0  0  0  0  0  0
   22.6510  -28.1580   41.4140 C   0  0  0  0  0  0  0  0  0  0  0  0
   23.6280  -28.5860   42.3170 C   0  0  0  0  0  0  0  0  0  0  0  0
   23.6890  -28.0700   43.6220 C   0  0  0  0  0  0  0  0  0  0  0  0
   24.7540  -28.5850   44.5630 C   0  0  0  0  0  0  0  0  0  0  0  0
   25.6510  -29.4120   43.9570 F   0  0  0  0  0  0  0  0  0  0  0  0
   24.2530  -29.3030   45.6110 F   0  0  0  0  0  0  0  0  0  0  0  0
   21.8136  -24.8442   46.4556 H   0  0  0  0  0  0  0  0  0  0  0  0
   22.5883  -24.3894   44.9001 H   0  0  0  0  0  0  0  0  0  0  0  0
   21.0199  -25.2651   44.9001 H   0  0  0  0  0  0  0  0  0  0  0  0
   23.7670  -26.3133   45.7145 H   0  0  0  0  0  0  0  0  0  0  0  0
   22.2088  -27.1709   46.0775 H   0  0  0  0  0  0  0  0  0  0  0  0
   21.0268  -25.9230   43.3965 H   0  0  0  0  0  0  0  0  0  0  0  0
   20.2466  -22.8099   40.5434 H   0  0  0  0  0  0  0  0  0  0  0  0
   18.6454  -21.6690   39.0030 H   0  0  0  0  0  0  0  0  0  0  0  0
   17.1917  -23.0197   37.4886 H   0  0  0  0  0  0  0  0  0  0  0  0
   16.3940  -25.1700   36.9780 H   0  0  0  0  0  0  0  0  0  0  0  0
   20.7010  -29.3920   39.5200 H   0  0  0  0  0  0  0  0  0  0  0  0
   22.6310  -28.5737   40.3958 H   0  0  0  0  0  0  0  0  0  0  0  0
   24.3627  -29.3408   42.0000 H   0  0  0  0  0  0  0  0  0  0  0  0
   25.2361  -27.6603   44.9131 H   0  0  0  0  0  0  0  0  0  0  0  0
  1  2  1  0
  2  3  1  0
  3  4  2  0
  4  5  1  0
  5  6  1  0
  6  7  1  0
  7  8  1  0
  8  9  2  0
  9 10  1  0
 10 11  2  0
 11 12  1  0
 12 13  1  0
 12 14  2  0
 14 15  1  0
 15 16  2  0
 15 17  1  0
 17 18  1  0
  5 19  2  0
 19 20  1  0
 20 21  2  0
 21 22  1  0
 22 23  1  0
 22 24  1  0
 21  3  1  0
 17  6  2  0
 14  8  1  0
  1 25  1  0
  1 26  1  0
  1 27  1  0
  2 28  1  0
  2 29  1  0
  4 30  1  0
  9 31  1  0
 10 32  1  0
 11 33  1  0
 13 34  1  0
 18 35  1  0
 19 36  1  0
 20 37  1  0
 22 38  1  0
M  END
>  <meeko>  (5) 
{"is_sidechain": [false], "free_energy": -7.38, "intermolecular_energy": -9.156, "internal_energy": -0.322}

$$$$
cand_017_out
     RDKit          3D

 38 40  0  0  0  0  0  0  0  0999 V2000
   20.6240  -31.2140   34.6640 C   0  0  0  0  0  0  0  0  0  0  0  0
   20.0220  -32.2590   35.5940 C   0  0  0  0  0  0  0  0  0  0  0  0
   19.6720  -31.6790   36.9470 C   0  0  0  0  0  0  0  0  0  0  0  0
   19.7270  -30.2790   37.1030 C   0  0  0  0  0  0  0  0  0  0  0  0
   19.4130  -29.6590   38.3200 C   0  0  0  0  0  0  0  0  0  0  0  0
   19.4470  -28.1890   38.4760 C   0  0  0  0  0  0  0  0  0  0  0  0
   18.6710  -27.5280   37.5320 O   0  0  0  0  0  0  0  0  0  0  0  0
   18.6140  -26.1580   37.5620 C   0  0  0  0  0  0  0  0  0  0  0  0
   17.8360  -25.5340   36.5860 C   0  0  0  0  0  0  0  0  0  0  0  0
   17.7340  -24.1410   36.5620 C   0  0  0  0  0  0  0  0  0  0  0  0
   18.4090  -23.3730   37.5120 C   0  0  0  0  0  0  0  0  0  0  0  0
   19.1840  -23.9980   38.4850 C   0  0  0  0  0  0  0  0  0  0  0  0
   19.8170  -23.1860   39.3860 O   0  0  0  0  0  0  0  0  0  0  0  0
   19.2870  -25.3910   38.5090 C   0  0  0  0  0  0  0  0  0  0  0  0
   20.0920  -26.0880   39.5140 C   0  0  0  0  0  0  0  0  0  0  0  0
   20.7090  -25.4830   40.3880 O   0  0  0  0  0  0  0  0  0  0  0  0
   20.1410  -27.5670   39.4470 C   0  0  0  0  0  0  0  0  0  0  0  0
   20.8940  -28.2150   40.4090 O   0  0  0  0  0  0  0  0  0  0  0  0
   19.0190  -30.4640   39.3930 C   0  0  0  0  0  0  0  0  0  0  0  0
   18.9550  -31.8530   39.2560 C   0  0  0  0  0  0  0  0  0  0  0  0
   19.2750  -32.4800   38.0390 C   0  0  0  0  0  0  0  0  0  0  0  0
   19.2100  -33.9870   37.9540 C   0  0  0  0  0  0  0  0  0  0  0  0
   18.0930  -34.4410   37.3190 F   0  0  0  0  0  0  0  0  0  0  0  0
   19.2050  -34.6020   39.1720 F   0  0  0  0  0  0  0  0  0  0  0  0
   21.0851  -30.4136   35.2614 H   0  0  0  0  0  0  0  0  0  0  0  0
   21.3891  -31.6851   34.0295 H   0  0  0  0  0  0  0  0  0  0  0  0
   19.8326  -30.7885   34.0295 H   0  0  0  0  0  0  0  0  0  0  0  0
   19.1079  -32.6607   35.1325 H   0  0  0  0  0  0  0  0  0  0  0  0
   20.7711  -33.0499   35.7467 H   0  0  0  0  0  0  0  0  0  0  0  0
   20.0244  -29.6564   36.2463 H   0  0  0  0  0  0  0  0  0  0  0  0
   17.3038  -26.1382   35.8365 H   0  0  0  0  0  0  0  0  0  0  0  0
   17.1206  -23.6486   35.7931 H   0  0  0  0  0  0  0  0  0  0  0  0
   18.3288  -22.2761   37.4919 H   0  0  0  0  0  0  0  0  0  0  0  0
   19.4550  -23.0610   40.2410 H   0  0  0  0  0  0  0  0  0  0  0  0
   20.9040  -27.8960   41.2890 H   0  0  0  0  0  0  0  0  0  0  0  0
   18.7567  -29.9991   40.3548 H   0  0  0  0  0  0  0  0  0  0  0  0
   18.6487  -32.4670   40.1158 H   0  0  0  0  0  0  0  0  0  0  0  0
   20.1210  -34.2364   37.3902 H   0  0  0  0  0  0  0  0  0  0  0  0
  1  2  1  0
  2  3  1  0
  3  4  2  0
  4  5  1  0
  5  6  1  0
  6  7  1  0
  7  8  1  0
  8  9  2  0
  9 10  1  0
 10 11  2  0
 11 12  1  0
 12 13  1  0
 12 14  2  0
 14 15  1  0
 15 16  2  0
 15 17  1  0
 17 18  1  0
  5 19  2  0
 19 20  1  0
 20 21  2  0
 21 22  1  0
 22 23  1  0
 22 24  1  0
 21  3  1  0
 17  6  2  0
 14  8  1  0
  1 25  1  0
  1 26  1  0
  1 27  1  0
  2 28  1  0
  2 29  1  0
  4 30  1  0
  9 31  1  0
 10 32  1  0
 11 33  1  0
 13 34  1  0
 18 35  1  0
 19 36  1  0
 20 37  1  0
 22 38  1  0
M  END
>  <meeko>  (6) 
{"is_sidechain": [false], "free_energy": -7.244, "intermolecular_energy": -8.878, "internal_energy": -0.433}

$$$$
cand_017_out
     RDKit          3D

 38 40  0  0  0  0  0  0  0  0999 V2000
   19.2940  -23.5530   38.2050 C   0  0  0  0  0  0  0  0  0  0  0  0
   19.5750  -24.7620   37.3240 C   0  0  0  0  0  0  0  0  0  0  0  0
   19.5910  -26.0500   38.1170 C   0  0  0  0  0  0  0  0  0  0  0  0
   20.3690  -26.0950   39.2930 C   0  0  0  0  0  0  0  0  0  0  0  0
   20.4350  -27.2460   40.0900 C   0  0  0  0  0  0  0  0  0  0  0  0
   21.2310  -27.2850   41.3350 C   0  0  0  0  0  0  0  0  0  0  0  0
   22.2280  -28.2520   41.3100 O   0  0  0  0  0  0  0  0  0  0  0  0
   23.0410  -28.3950   42.4050 C   0  0  0  0  0  0  0  0  0  0  0  0
   24.0180  -29.3900   42.3430 C   0  0  0  0  0  0  0  0  0  0  0  0
   24.8820  -29.5870   43.4240 C   0  0  0  0  0  0  0  0  0  0  0  0
   24.7670  -28.7910   44.5640 C   0  0  0  0  0  0  0  0  0  0  0  0
   23.7910  -27.7990   44.6240 C   0  0  0  0  0  0  0  0  0  0  0  0
   23.7360  -27.0560   45.7710 O   0  0  0  0  0  0  0  0  0  0  0  0
   22.9280  -27.6030   43.5430 C   0  0  0  0  0  0  0  0  0  0  0  0
   21.8880  -26.5730   43.5640 C   0  0  0  0  0  0  0  0  0  0  0  0
   21.7290  -25.8270   44.5290 O   0  0  0  0  0  0  0  0  0  0  0  0
   21.0200  -26.4510   42.3700 C   0  0  0  0  0  0  0  0  0  0  0  0
   20.0490  -25.4660   42.3960 O   0  0  0  0  0  0  0  0  0  0  0  0
   19.6890  -28.3640   39.7040 C   0  0  0  0  0  0  0  0  0  0  0  0
   18.9100  -28.3360   38.5440 C   0  0  0  0  0  0  0  0  0  0  0  0
   18.8460  -27.1870   37.7390 C   0  0  0  0  0  0  0  0  0  0  0  0
   18.0050  -27.2200   36.4840 C   0  0  0  0  0  0  0  0  0  0  0  0
   18.7390  -27.1010   35.3420 F   0  0  0  0  0  0  0  0  0  0  0  0
   17.0790  -26.2190   36.4210 F   0  0  0  0  0  0  0  0  0  0  0  0
   19.3622  -23.8464   39.2629 H   0  0  0  0  0  0  0  0  0  0  0  0
   20.0332  -22.7661   37.9944 H   0  0  0  0  0  0  0  0  0  0  0  0
   18.2835  -23.1727   37.9944 H   0  0  0  0  0  0  0  0  0  0  0  0
   18.7930  -24.8292   36.5533 H   0  0  0  0  0  0  0  0  0  0  0  0
   20.5690  -24.6291   36.8720 H   0  0  0  0  0  0  0  0  0  0  0  0
   20.9389  -25.2031   39.5924 H   0  0  0  0  0  0  0  0  0  0  0  0
   24.1079  -30.0183   41.4446 H   0  0  0  0  0  0  0  0  0  0  0  0
   25.6530  -30.3701   43.3758 H   0  0  0  0  0  0  0  0  0  0  0  0
   25.4466  -28.9467   45.4148 H   0  0  0  0  0  0  0  0  0  0  0  0
   23.4650  -27.4530   46.5740 H   0  0  0  0  0  0  0  0  0  0  0  0
   19.9420  -24.9340   43.1600 H   0  0  0  0  0  0  0  0  0  0  0  0
   19.7156  -29.2751   40.3198 H   0  0  0  0  0  0  0  0  0  0  0  0
   18.3368  -29.2298   38.2564 H   0  0  0  0  0  0  0  0  0  0  0  0
   17.5180  -28.2043   36.5467 H   0  0  0  0  0  0  0  0  0  0  0  0
  1  2  1  0
  2  3  1  0
  3  4  2  0
  4  5  1  0
  5  6  1  0
  6  7  1  0
  7  8  1  0
  8  9  2  0
  9 10  1  0
 10 11  2  0
 11 12  1  0
 12 13  1  0
 12 14  2  0
 14 15  1  0
 15 16  2  0
 15 17  1  0
 17 18  1  0
  5 19  2  0
 19 20  1  0
 20 21  2  0
 21 22  1  0
 22 23  1  0
 22 24  1  0
 21  3  1  0
 17  6  2  0
 14  8  1  0
  1 25  1  0
  1 26  1  0
  1 27  1  0
  2 28  1  0
  2 29  1  0
  4 30  1  0
  9 31  1  0
 10 32  1  0
 11 33  1  0
 13 34  1  0
 18 35  1  0
 19 36  1  0
 20 37  1  0
 22 38  1  0
M  END
>  <meeko>  (7) 
{"is_sidechain": [false], "free_energy": -7.244, "intermolecular_energy": -8.891, "internal_energy": -0.42}

$$$$
cand_017_out
     RDKit          3D

 38 40  0  0  0  0  0  0  0  0999 V2000
   19.8690  -31.3720   32.6710 C   0  0  0  0  0  0  0  0  0  0  0  0
   20.5200  -32.3720   33.6170 C   0  0  0  0  0  0  0  0  0  0  0  0
   20.0720  -32.1730   35.0480 C   0  0  0  0  0  0  0  0  0  0  0  0
   20.1030  -30.8660   35.5770 C   0  0  0  0  0  0  0  0  0  0  0  0
   19.6990  -30.5910   36.8910 C   0  0  0  0  0  0  0  0  0  0  0  0
   19.7090  -29.2170   37.4370 C   0  0  0  0  0  0  0  0  0  0  0  0
   20.0380  -29.1750   38.7860 O   0  0  0  0  0  0  0  0  0  0  0  0
   20.0830  -27.9590   39.4190 C   0  0  0  0  0  0  0  0  0  0  0  0
   20.4000  -27.9630   40.7780 C   0  0  0  0  0  0  0  0  0  0  0  0
   20.4660  -26.7580   41.4820 C   0  0  0  0  0  0  0  0  0  0  0  0
   20.2130  -25.5520   40.8290 C   0  0  0  0  0  0  0  0  0  0  0  0
   19.8960  -25.5500   39.4730 C   0  0  0  0  0  0  0  0  0  0  0  0
   19.6610  -24.3320   38.8950 O   0  0  0  0  0  0  0  0  0  0  0  0
   19.8310  -26.7550   38.7690 C   0  0  0  0  0  0  0  0  0  0  0  0
   19.5010  -26.7980   37.3440 C   0  0  0  0  0  0  0  0  0  0  0  0
   19.2720  -25.7780   36.6960 O   0  0  0  0  0  0  0  0  0  0  0  0
   19.4500  -28.1270   36.6920 C   0  0  0  0  0  0  0  0  0  0  0  0
   19.1490  -28.1550   35.3420 O   0  0  0  0  0  0  0  0  0  0  0  0
   19.2390  -31.6510   37.6780 C   0  0  0  0  0  0  0  0  0  0  0  0
   19.1970  -32.9520   37.1700 C   0  0  0  0  0  0  0  0  0  0  0  0
   19.6070  -33.2320   35.8550 C   0  0  0  0  0  0  0  0  0  0  0  0
   19.5620  -34.6610   35.3640 C   0  0  0  0  0  0  0  0  0  0  0  0
   18.5980  -35.4080   35.9740 F   0  0  0  0  0  0  0  0  0  0  0  0
   20.7270  -35.3440   35.5660 F   0  0  0  0  0  0  0  0  0  0  0  0
   19.3607  -30.5913   33.2559 H   0  0  0  0  0  0  0  0  0  0  0  0
   20.6407  -30.9112   32.0369 H   0  0  0  0  0  0  0  0  0  0  0  0
   19.1353  -31.8912   32.0369 H   0  0  0  0  0  0  0  0  0  0  0  0
   20.2500  -33.3897   33.2986 H   0  0  0  0  0  0  0  0  0  0  0  0
   21.6085  -32.2182   33.5773 H   0  0  0  0  0  0  0  0  0  0  0  0
   20.4538  -30.0397   34.9412 H   0  0  0  0  0  0  0  0  0  0  0  0
   20.5977  -28.9139   41.2944 H   0  0  0  0  0  0  0  0  0  0  0  0
   20.7179  -26.7605   42.5528 H   0  0  0  0  0  0  0  0  0  0  0  0
   20.2638  -24.6038   41.3842 H   0  0  0  0  0  0  0  0  0  0  0  0
   18.7820  -24.0420   38.7540 H   0  0  0  0  0  0  0  0  0  0  0  0
   18.7470  -27.4130   34.9370 H   0  0  0  0  0  0  0  0  0  0  0  0
   18.9064  -31.4587   38.7087 H   0  0  0  0  0  0  0  0  0  0  0  0
   18.8370  -33.7710   37.8100 H   0  0  0  0  0  0  0  0  0  0  0  0
   19.3566  -34.5411   34.2900 H   0  0  0  0  0  0  0  0  0  0  0  0
  1  2  1  0
  2  3  1  0
  3  4  2  0
  4  5  1  0
  5  6  1  0
  6  7  1  0
  7  8  1  0
  8  9  2  0
  9 10  1  0
 10 11  2  0
 11 12  1  0
 12 13  1  0
 12 14  2  0
 14 15  1  0
 15 16  2  0
 15 17  1  0
 17 18  1  0
  5 19  2  0
 19 20  1  0
 20 21  2  0
 21 22  1  0
 22 23  1  0
 22 24  1  0
 21  3  1  0
 17  6  2  0
 14  8  1  0
  1 25  1  0
  1 26  1  0
  1 27  1  0
  2 28  1  0
  2 29  1  0
  4 30  1  0
  9 31  1  0
 10 32  1  0
 11 33  1  0
 13 34  1  0
 18 35  1  0
 19 36  1  0
 20 37  1  0
 22 38  1  0
M  END
>  <meeko>  (8) 
{"is_sidechain": [false], "free_energy": -7.229, "intermolecular_energy": -9.075, "internal_energy": -0.217}

$$$$
cand_017_out
     RDKit          3D

 38 40  0  0  0  0  0  0  0  0999 V2000
   22.1260  -27.5850   41.9010 C   0  0  0  0  0  0  0  0  0  0  0  0
   20.6120  -27.4710   41.7900 C   0  0  0  0  0  0  0  0  0  0  0  0
   20.1450  -27.5080   40.3520 C   0  0  0  0  0  0  0  0  0  0  0  0
   20.1120  -28.7570   39.6960 C   0  0  0  0  0  0  0  0  0  0  0  0
   19.6870  -28.8820   38.3660 C   0  0  0  0  0  0  0  0  0  0  0  0
   19.6300  -30.1940   37.6880 C   0  0  0  0  0  0  0  0  0  0  0  0
   20.0090  -30.1290   36.3530 O   0  0  0  0  0  0  0  0  0  0  0  0
   20.0010  -31.2790   35.6050 C   0  0  0  0  0  0  0  0  0  0  0  0
   20.3730  -31.1650   34.2650 C   0  0  0  0  0  0  0  0  0  0  0  0
   20.3880  -32.2980   33.4470 C   0  0  0  0  0  0  0  0  0  0  0  0
   20.0310  -33.5420   33.9700 C   0  0  0  0  0  0  0  0  0  0  0  0
   19.6610  -33.6530   35.3080 C   0  0  0  0  0  0  0  0  0  0  0  0
   19.3240  -34.9020   35.7540 O   0  0  0  0  0  0  0  0  0  0  0  0
   19.6450  -32.5200   36.1250 C   0  0  0  0  0  0  0  0  0  0  0  0
   19.2610  -32.5910   37.5350 C   0  0  0  0  0  0  0  0  0  0  0  0
   18.9420  -33.6510   38.0710 O   0  0  0  0  0  0  0  0  0  0  0  0
   19.2710  -31.3310   38.3130 C   0  0  0  0  0  0  0  0  0  0  0  0
   18.9190  -31.4120   39.6480 O   0  0  0  0  0  0  0  0  0  0  0  0
   19.2700  -27.7300   37.6920 C   0  0  0  0  0  0  0  0  0  0  0  0
   19.2920  -26.4850   38.3270 C   0  0  0  0  0  0  0  0  0  0  0  0
   19.7230  -26.3540   39.6580 C   0  0  0  0  0  0  0  0  0  0  0  0
   19.7480  -24.9800   40.2870 C   0  0  0  0  0  0  0  0  0  0  0  0
   18.7300  -24.7760   41.1700 F   0  0  0  0  0  0  0  0  0  0  0  0
   19.6460  -23.9640   39.3810 F   0  0  0  0  0  0  0  0  0  0  0  0
   22.4152  -27.6068   42.9621 H   0  0  0  0  0  0  0  0  0  0  0  0
   22.4609  -28.5109   41.4106 H   0  0  0  0  0  0  0  0  0  0  0  0
   22.5958  -26.7197   41.4106 H   0  0  0  0  0  0  0  0  0  0  0  0
   20.1519  -28.3088   42.3345 H   0  0  0  0  0  0  0  0  0  0  0  0
   20.3116  -26.5041   42.2200 H   0  0  0  0  0  0  0  0  0  0  0  0
   20.4284  -29.6572   40.2433 H   0  0  0  0  0  0  0  0  0  0  0  0
   20.6541  -30.1846   33.8530 H   0  0  0  0  0  0  0  0  0  0  0  0
   20.6813  -32.2095   32.3905 H   0  0  0  0  0  0  0  0  0  0  0  0
   20.0419  -34.4337   33.3260 H   0  0  0  0  0  0  0  0  0  0  0  0
   18.6030  -35.0110   36.3410 H   0  0  0  0  0  0  0  0  0  0  0  0
   19.0570  -30.6790   40.2140 H   0  0  0  0  0  0  0  0  0  0  0  0
   18.9211  -27.8043   36.6515 H   0  0  0  0  0  0  0  0  0  0  0  0
   18.9659  -25.5914   37.7746 H   0  0  0  0  0  0  0  0  0  0  0  0
   20.7256  -24.9623   40.7909 H   0  0  0  0  0  0  0  0  0  0  0  0
  1  2  1  0
  2  3  1  0
  3  4  2  0
  4  5  1  0
  5  6  1  0
  6  7  1  0
  7  8  1  0
  8  9  2  0
  9 10  1  0
 10 11  2  0
 11 12  1  0
 12 13  1  0
 12 14  2  0
 14 15  1  0
 15 16  2  0
 15 17  1  0
 17 18  1  0
  5 19  2  0
 19 20  1  0
 20 21  2  0
 21 22  1  0
 22 23  1  0
 22 24  1  0
 21  3  1  0
 17  6  2  0
 14  8  1  0
  1 25  1  0
  1 26  1  0
  1 27  1  0
  2 28  1  0
  2 29  1  0
  4 30  1  0
  9 31  1  0
 10 32  1  0
 11 33  1  0
 13 34  1  0
 18 35  1  0
 19 36  1  0
 20 37  1  0
 22 38  1  0
M  END
>  <meeko>  (9) 
{"is_sidechain": [false], "free_energy": -7.168, "intermolecular_energy": -8.947, "internal_energy": -0.269}

$$$$
