cand_051_out
     RDKit          3D

 44 46  0  0  0  0  0  0  0  0999 V2000
   20.9810  -27.1110   41.9760 C   0  0  0  0  0  0  0  0  0  0  0  0
   19.9990  -27.3980   40.8740 C   0  0  0  0  0  0  0  0  0  0  0  0
   20.0630  -28.6440   40.2210 C   0  0  0  0  0  0  0  0  0  0  0  0
   19.1830  -28.9810   39.1800 C   0  0  0  0  0  0  0  0  0  0  0  0
   19.3050  -30.2920   38.5080 C   0  0  0  0  0  0  0  0  0  0  0  0
   18.9040  -31.3510   39.3150 O   0  0  0  0  0  0  0  0  0  0  0  0
   18.9660  -32.6270   38.8140 C   0  0  0  0  0  0  0  0  0  0  0  0
   18.5670  -33.6610   39.6630 C   0  0  0  0  0  0  0  0  0  0  0  0
   18.6040  -34.9830   39.2150 C   0  0  0  0  0  0  0  0  0  0  0  0
   19.0370  -35.2720   37.9200 C   0  0  0  0  0  0  0  0  0  0  0  0
   19.4330  -34.2380   37.0740 C   0  0  0  0  0  0  0  0  0  0  0  0
   19.8460  -34.5910   35.8190 O   0  0  0  0  0  0  0  0  0  0  0  0
   19.3980  -32.9150   37.5230 C   0  0  0  0  0  0  0  0  0  0  0  0
   19.8060  -31.8000   36.6680 C   0  0  0  0  0  0  0  0  0  0  0  0
   20.1920  -31.9720   35.5130 O   0  0  0  0  0  0  0  0  0  0  0  0
   19.7380  -30.4360   37.2420 C   0  0  0  0  0  0  0  0  0  0  0  0
   20.1120  -29.3890   36.4200 O   0  0  0  0  0  0  0  0  0  0  0  0
   18.2370  -28.0340   38.7810 C   0  0  0  0  0  0  0  0  0  0  0  0
   18.1610  -26.7930   39.4160 C   0  0  0  0  0  0  0  0  0  0  0  0
   19.0310  -26.4580   40.4680 C   0  0  0  0  0  0  0  0  0  0  0  0
   18.8860  -25.0940   41.1130 C   0  0  0  0  0  0  0  0  0  0  0  0
   19.8030  -24.0130   40.5040 C   0  0  0  0  0  0  0  0  0  0  0  0
   19.9800  -22.8630   41.4990 C   0  0  0  0  0  0  0  0  0  0  0  0
   19.2570  -23.4690   39.1820 C   0  0  0  0  0  0  0  0  0  0  0  0
   20.4909  -27.2542   42.9503 H   0  0  0  0  0  0  0  0  0  0  0  0
   21.8372  -27.7965   41.8919 H   0  0  0  0  0  0  0  0  0  0  0  0
   21.3333  -26.0723   41.8919 H   0  0  0  0  0  0  0  0  0  0  0  0
   20.8237  -29.3738   40.5352 H   0  0  0  0  0  0  0  0  0  0  0  0
   18.2240  -33.4346   40.6833 H   0  0  0  0  0  0  0  0  0  0  0  0
   18.2913  -35.7983   39.8840 H   0  0  0  0  0  0  0  0  0  0  0  0
   19.0656  -36.3138   37.5680 H   0  0  0  0  0  0  0  0  0  0  0  0
   20.0590  -33.9280   35.1920 H   0  0  0  0  0  0  0  0  0  0  0  0
   20.2540  -29.5380   35.5060 H   0  0  0  0  0  0  0  0  0  0  0  0
   17.5452  -28.2683   37.9585 H   0  0  0  0  0  0  0  0  0  0  0  0
   17.4061  -26.0637   39.0869 H   0  0  0  0  0  0  0  0  0  0  0  0
   17.8420  -24.7665   40.9994 H   0  0  0  0  0  0  0  0  0  0  0  0
   19.1815  -25.2064   42.1666 H   0  0  0  0  0  0  0  0  0  0  0  0
   20.7742  -24.4849   40.2939 H   0  0  0  0  0  0  0  0  0  0  0  0
   19.9199  -23.2538   42.5255 H   0  0  0  0  0  0  0  0  0  0  0  0
   20.9614  -22.3911   41.3432 H   0  0  0  0  0  0  0  0  0  0  0  0
   19.1860  -22.1179   41.3432 H   0  0  0  0  0  0  0  0  0  0  0  0
   18.4915  -22.7063   39.3876 H   0  0  0  0  0  0  0  0  0  0  0  0
   20.0774  -23.0186   38.6041 H   0  0  0  0  0  0  0  0  0  0  0  0
   18.8096  -24.2911   38.6041 H   0  0  0  0  0  0  0  0  0  0  0  0
  1  2  1  0
  2  3  2  0
  3  4  1  0
  4  5  1  0
  5  6  1  0
  6  7  1  0
  7  8  2  0
  8  9  1  0
  9 10  2  0
 10 11  1  0
 11 12  1  0
 11 13  2  0
 13 14  1  0
 14 15  2  0
 14 16  1  0
 16 17  1  0
  4 18  2  0
 18 19  1  0
 19 20  2  0
 20 21  1  0
 21 22  1  0
 22 23  1  0
 22 24  1  0
 20  2  1  0
 16  5  2  0
 13  7  1  0
  1 25  1  0
  1 26  1  0
  1 27  1  0
  3 28  1  0
  8 29  1  0
  9 30  1  0
 10 31  1  0
 12 32  1  0
 17 33  1  0
 18 34  1  0
 19 35  1  0
 21 36  1  0
 21 37  1  0
 22 38  1  0
 23 39  1  0
 23 40  1  0
 23 41  1  0
 24 42  1  0
 24 43  1  0
 24 44  1  0
M  END
>  <meeko>  (1) 
{"is_sidechain": [false], "free_energy": -7.899, "intermolecular_energy": -9.746, "internal_energy": -0.565}

$$$$
cand_051_out
     RDKit          3D

 44 46  0  0  0  0  0  0  0  0999 V2000
   19.4370  -24.7220   37.4470 C   0  0  0  0  0  0  0  0  0  0  0  0
   19.5150  -26.0330   38.1810 C   0  0  0  0  0  0  0  0  0  0  0  0
   20.2570  -26.0940   39.3760 C   0  0  0  0  0  0  0  0  0  0  0  0
   20.3800  -27.2820   40.1130 C   0  0  0  0  0  0  0  0  0  0  0  0
   21.1900  -27.3030   41.3490 C   0  0  0  0  0  0  0  0  0  0  0  0
   22.2030  -28.2540   41.3140 O   0  0  0  0  0  0  0  0  0  0  0  0
   23.0320  -28.3810   42.4000 C   0  0  0  0  0  0  0  0  0  0  0  0
   24.0270  -29.3580   42.3270 C   0  0  0  0  0  0  0  0  0  0  0  0
   24.9050  -29.5370   43.3980 C   0  0  0  0  0  0  0  0  0  0  0  0
   24.7910  -28.7420   44.5390 C   0  0  0  0  0  0  0  0  0  0  0  0
   23.7970  -27.7680   44.6080 C   0  0  0  0  0  0  0  0  0  0  0  0
   23.7420  -27.0230   45.7550 O   0  0  0  0  0  0  0  0  0  0  0  0
   22.9170  -27.5880   43.5380 C   0  0  0  0  0  0  0  0  0  0  0  0
   21.8610  -26.5770   43.5700 C   0  0  0  0  0  0  0  0  0  0  0  0
   21.7010  -25.8330   44.5360 O   0  0  0  0  0  0  0  0  0  0  0  0
   20.9760  -26.4730   42.3860 C   0  0  0  0  0  0  0  0  0  0  0  0
   19.9890  -25.5050   42.4220 O   0  0  0  0  0  0  0  0  0  0  0  0
   19.7580  -28.4320   39.6210 C   0  0  0  0  0  0  0  0  0  0  0  0
   19.0190  -28.3900   38.4360 C   0  0  0  0  0  0  0  0  0  0  0  0
   18.8830  -27.1980   37.7040 C   0  0  0  0  0  0  0  0  0  0  0  0
   18.0630  -27.2290   36.4290 C   0  0  0  0  0  0  0  0  0  0  0  0
   18.9100  -27.2690   35.1400 C   0  0  0  0  0  0  0  0  0  0  0  0
   18.2280  -26.4420   34.0470 C   0  0  0  0  0  0  0  0  0  0  0  0
   19.1340  -28.6980   34.6400 C   0  0  0  0  0  0  0  0  0  0  0  0
   19.3879  -23.8974   38.1734 H   0  0  0  0  0  0  0  0  0  0  0  0
   20.3296  -24.6017   36.8155 H   0  0  0  0  0  0  0  0  0  0  0  0
   18.5365  -24.7084   36.8155 H   0  0  0  0  0  0  0  0  0  0  0  0
   20.7547  -25.1841   39.7426 H   0  0  0  0  0  0  0  0  0  0  0  0
   24.1190  -29.9851   41.4280 H   0  0  0  0  0  0  0  0  0  0  0  0
   25.6887  -30.3069   43.3420 H   0  0  0  0  0  0  0  0  0  0  0  0
   25.4838  -28.8838   45.3816 H   0  0  0  0  0  0  0  0  0  0  0  0
   23.5210  -26.1140   45.7130 H   0  0  0  0  0  0  0  0  0  0  0  0
   20.2210  -24.6050   42.5430 H   0  0  0  0  0  0  0  0  0  0  0  0
   19.8509  -29.3796   40.1718 H   0  0  0  0  0  0  0  0  0  0  0  0
   18.5346  -29.3070   38.0692 H   0  0  0  0  0  0  0  0  0  0  0  0
   17.4233  -28.1236   36.4506 H   0  0  0  0  0  0  0  0  0  0  0  0
   17.4831  -26.2947   36.4003 H   0  0  0  0  0  0  0  0  0  0  0  0
   19.8953  -26.8419   35.3784 H   0  0  0  0  0  0  0  0  0  0  0  0
   17.5936  -25.6727   34.5114 H   0  0  0  0  0  0  0  0  0  0  0  0
   18.9931  -25.9581   33.4221 H   0  0  0  0  0  0  0  0  0  0  0  0
   17.6073  -27.1010   33.4221 H   0  0  0  0  0  0  0  0  0  0  0  0
   19.2401  -29.3751   35.5004 H   0  0  0  0  0  0  0  0  0  0  0  0
   18.2741  -29.0121   34.0301 H   0  0  0  0  0  0  0  0  0  0  0  0
   20.0487  -28.7339   34.0301 H   0  0  0  0  0  0  0  0  0  0  0  0
  1  2  1  0
  2  3  2  0
  3  4  1  0
  4  5  1  0
  5  6  1  0
  6  7  1  0
  7  8  2  0
  8  9  1  0
  9 10  2  0
 10 11  1  0
 11 12  1  0
 11 13  2  0
 13 14  1  0
 14 15  2  0
 14 16  1  0
 16 17  1  0
  4 18  2  0
 18 19  1  0
 19 20  2  0
 20 21  1  0
 21 22  1  0
 22 23  1  0
 22 24  1  0
 20  2  1  0
 16  5  2  0
 13  7  1  0
  1 25  1  0
  1 26  1  0
  1 27  1  0
  3 28  1  0
  8 29  1  0
  9 30  1  0
 10 31  1  0
 12 32  1  0
 17 33  1  0
 18 34  1  0
 19 35  1  0
 21 36  1  0
 21 37  1  0
 22 38  1  0
 23 39  1  0
 23 40  1  0
 23 41  1  0
 24 42  1  0
 24 43  1  0
 24 44  1  0
M  END
>  <meeko>  (2) 
{"is_sidechain": [false], "free_energy": -7.225, "intermolecular_energy": -9.027, "internal_energy": -0.452}

$$$$
cand_051_out
     RDKit          3D

 44 46  0  0  0  0  0  0  0  0999 V2000
   21.1020  -27.1720   41.9640 C   0  0  0  0  0  0  0  0  0  0  0  0
   20.1210  -27.2860   40.8300 C   0  0  0  0  0  0  0  0  0  0  0  0
   20.2300  -28.3790   39.9500 C   0  0  0  0  0  0  0  0  0  0  0  0
   19.3530  -28.5500   38.8670 C   0  0  0  0  0  0  0  0  0  0  0  0
   19.5230  -29.7010   37.9550 C   0  0  0  0  0  0  0  0  0  0  0  0
   19.8630  -29.3190   36.6620 O   0  0  0  0  0  0  0  0  0  0  0  0
   20.0500  -30.2910   35.7120 C   0  0  0  0  0  0  0  0  0  0  0  0
   20.3770  -29.8620   34.4240 C   0  0  0  0  0  0  0  0  0  0  0  0
   20.5830  -30.8000   33.4100 C   0  0  0  0  0  0  0  0  0  0  0  0
   20.4640  -32.1640   33.6820 C   0  0  0  0  0  0  0  0  0  0  0  0
   20.1390  -32.5880   34.9680 C   0  0  0  0  0  0  0  0  0  0  0  0
   20.0400  -33.9390   35.1660 O   0  0  0  0  0  0  0  0  0  0  0  0
   19.9320  -31.6500   35.9830 C   0  0  0  0  0  0  0  0  0  0  0  0
   19.5880  -32.0540   37.3470 C   0  0  0  0  0  0  0  0  0  0  0  0
   19.4730  -33.2350   37.6670 O   0  0  0  0  0  0  0  0  0  0  0  0
   19.3820  -30.9810   38.3470 C   0  0  0  0  0  0  0  0  0  0  0  0
   19.0710  -31.3740   39.6360 O   0  0  0  0  0  0  0  0  0  0  0  0
   18.3630  -27.5870   38.6600 C   0  0  0  0  0  0  0  0  0  0  0  0
   18.2410  -26.4950   39.5220 C   0  0  0  0  0  0  0  0  0  0  0  0
   19.1080  -26.3300   40.6160 C   0  0  0  0  0  0  0  0  0  0  0  0
   18.9130  -25.1210   41.5100 C   0  0  0  0  0  0  0  0  0  0  0  0
   19.7620  -23.8980   41.1060 C   0  0  0  0  0  0  0  0  0  0  0  0
   19.7180  -22.8470   42.2180 C   0  0  0  0  0  0  0  0  0  0  0  0
   19.2880  -23.2750   39.7910 C   0  0  0  0  0  0  0  0  0  0  0  0
   20.5643  -27.2345   42.9216 H   0  0  0  0  0  0  0  0  0  0  0  0
   21.8333  -27.9912   41.9000 H   0  0  0  0  0  0  0  0  0  0  0  0
   21.6260  -26.2069   41.9000 H   0  0  0  0  0  0  0  0  0  0  0  0
   21.0253  -29.1207   40.1155 H   0  0  0  0  0  0  0  0  0  0  0  0
   20.4721  -28.7875   34.2085 H   0  0  0  0  0  0  0  0  0  0  0  0
   20.8396  -30.4632   32.3947 H   0  0  0  0  0  0  0  0  0  0  0  0
   20.6265  -32.9020   32.8826 H   0  0  0  0  0  0  0  0  0  0  0  0
   20.7740  -34.4940   34.9910 H   0  0  0  0  0  0  0  0  0  0  0  0
   19.7560  -31.5150   40.2600 H   0  0  0  0  0  0  0  0  0  0  0  0
   17.6726  -27.6896   37.8098 H   0  0  0  0  0  0  0  0  0  0  0  0
   17.4518  -25.7503   39.3415 H   0  0  0  0  0  0  0  0  0  0  0  0
   17.8521  -24.8324   41.4748 H   0  0  0  0  0  0  0  0  0  0  0  0
   19.2389  -25.4153   42.5186 H   0  0  0  0  0  0  0  0  0  0  0  0
   20.7942  -24.2474   40.9561 H   0  0  0  0  0  0  0  0  0  0  0  0
   19.7390  -23.3480   43.1971 H   0  0  0  0  0  0  0  0  0  0  0  0
   20.5891  -22.1813   42.1280 H   0  0  0  0  0  0  0  0  0  0  0  0
   18.7943  -22.2564   42.1280 H   0  0  0  0  0  0  0  0  0  0  0  0
   18.6348  -22.4165   40.0064 H   0  0  0  0  0  0  0  0  0  0  0  0
   20.1590  -22.9365   39.2107 H   0  0  0  0  0  0  0  0  0  0  0  0
   18.7294  -24.0242   39.2107 H   0  0  0  0  0  0  0  0  0  0  0  0
  1  2  1  0
  2  3  2  0
  3  4  1  0
  4  5  1  0
  5  6  1  0
  6  7  1  0
  7  8  2  0
  8  9  1  0
  9 10  2  0
 10 11  1  0
 11 12  1  0
 11 13  2  0
 13 14  1  0
 14 15  2  0
 14 16  1  0
 16 17  1  0
  4 18  2  0
 18 19  1  0
 19 20  2  0
 20 21  1  0
 21 22  1  0
 22 23  1  0
 22 24  1  0
 20  2  1  0
 16  5  2  0
 13  7  1  0
  1 25  1  0
  1 26  1  0
  1 27  1  0
  3 28  1  0
  8 29  1  0
  9 30  1  0
 10 31  1  0
 12 32  1  0
 17 33  1  0
 18 34  1  0
 19 35  1  0
 21 36  1  0
 21 37  1  0
 22 38  1  0
 23 39  1  0
 23 40  1  0
 23 41  1  0
 24 42  1  0
 24 43  1  0
 24 44  1  0
M  END
>  <meeko>  (3) 
{"is_sidechain": [false], "free_energy": -7.201, "intermolecular_energy": -8.999, "internal_energy": -0.451}

$$$$
cand_051_out
     RDKit          3D

 44 46  0  0  0  0  0  0  0  0999 V2000
   19.0600  -33.7830   37.3740 C   0  0  0  0  0  0  0  0  0  0  0  0
   19.3920  -32.4100   36.8580 C   0  0  0  0  0  0  0  0  0  0  0  0
   19.2360  -31.3090   37.7220 C   0  0  0  0  0  0  0  0  0  0  0  0
   19.5230  -29.9970   37.3100 C   0  0  0  0  0  0  0  0  0  0  0  0
   19.3210  -28.8700   38.2450 C   0  0  0  0  0  0  0  0  0  0  0  0
   20.1980  -28.9000   39.3230 O   0  0  0  0  0  0  0  0  0  0  0  0
   20.1190  -27.9100   40.2700 C   0  0  0  0  0  0  0  0  0  0  0  0
   21.0100  -27.9870   41.3420 C   0  0  0  0  0  0  0  0  0  0  0  0
   20.9840  -27.0090   42.3390 C   0  0  0  0  0  0  0  0  0  0  0  0
   20.0700  -25.9570   42.2650 C   0  0  0  0  0  0  0  0  0  0  0  0
   19.1830  -25.8830   41.1930 C   0  0  0  0  0  0  0  0  0  0  0  0
   18.3150  -24.8250   41.1820 O   0  0  0  0  0  0  0  0  0  0  0  0
   19.2080  -26.8610   40.1960 C   0  0  0  0  0  0  0  0  0  0  0  0
   18.2950  -26.8210   39.0540 C   0  0  0  0  0  0  0  0  0  0  0  0
   17.4670  -25.9220   38.9140 O   0  0  0  0  0  0  0  0  0  0  0  0
   18.3970  -27.9100   38.0550 C   0  0  0  0  0  0  0  0  0  0  0  0
   17.5380  -27.8540   36.9730 O   0  0  0  0  0  0  0  0  0  0  0  0
   19.9540  -29.7960   35.9970 C   0  0  0  0  0  0  0  0  0  0  0  0
   20.1120  -30.8770   35.1260 C   0  0  0  0  0  0  0  0  0  0  0  0
   19.8400  -32.1910   35.5400 C   0  0  0  0  0  0  0  0  0  0  0  0
   20.0390  -33.3140   34.5410 C   0  0  0  0  0  0  0  0  0  0  0  0
   20.7170  -32.8720   33.2280 C   0  0  0  0  0  0  0  0  0  0  0  0
   19.6560  -32.4000   32.2300 C   0  0  0  0  0  0  0  0  0  0  0  0
   21.5490  -33.9940   32.6000 C   0  0  0  0  0  0  0  0  0  0  0  0
   19.0627  -33.7719   38.4739 H   0  0  0  0  0  0  0  0  0  0  0  0
   18.0642  -34.0796   37.0127 H   0  0  0  0  0  0  0  0  0  0  0  0
   19.8102  -34.5018   37.0127 H   0  0  0  0  0  0  0  0  0  0  0  0
   18.8794  -31.4811   38.7483 H   0  0  0  0  0  0  0  0  0  0  0  0
   21.7308  -28.8158   41.4014 H   0  0  0  0  0  0  0  0  0  0  0  0
   21.6854  -27.0682   43.1843 H   0  0  0  0  0  0  0  0  0  0  0  0
   20.0499  -25.1879   43.0512 H   0  0  0  0  0  0  0  0  0  0  0  0
   18.0740  -24.4080   41.9860 H   0  0  0  0  0  0  0  0  0  0  0  0
   16.6280  -28.0490   37.0870 H   0  0  0  0  0  0  0  0  0  0  0  0
   20.1712  -28.7767   35.6451 H   0  0  0  0  0  0  0  0  0  0  0  0
   20.4558  -30.6954   34.0970 H   0  0  0  0  0  0  0  0  0  0  0  0
   20.6647  -34.0876   35.0101 H   0  0  0  0  0  0  0  0  0  0  0  0
   19.0380  -33.6837   34.2738 H   0  0  0  0  0  0  0  0  0  0  0  0
   21.4014  -32.0463   33.4726 H   0  0  0  0  0  0  0  0  0  0  0  0
   18.7843  -32.0122   32.7775 H   0  0  0  0  0  0  0  0  0  0  0  0
   20.0758  -31.6037   31.5977 H   0  0  0  0  0  0  0  0  0  0  0  0
   19.3457  -33.2450   31.5977 H   0  0  0  0  0  0  0  0  0  0  0  0
   22.0015  -34.6042   33.3955 H   0  0  0  0  0  0  0  0  0  0  0  0
   20.9001  -34.6268   31.9767 H   0  0  0  0  0  0  0  0  0  0  0  0
   22.3430  -33.5569   31.9767 H   0  0  0  0  0  0  0  0  0  0  0  0
  1  2  1  0
  2  3  2  0
  3  4  1  0
  4  5  1  0
  5  6  1  0
  6  7  1  0
  7  8  2  0
  8  9  1  0
  9 10  2  0
 10 11  1  0
 11 12  1  0
 11 13  2  0
 13 14  1  0
 14 15  2  0
 14 16  1  0
 16 17  1  0
  4 18  2  0
 18 19  1  0
 19 20  2  0
 20 21  1  0
 21 22  1  0
 22 23  1  0
 22 24  1  0
 20  2  1  0
 16  5  2  0
 13  7  1  0
  1 25  1  0
  1 26  1  0
  1 27  1  0
  3 28  1  0
  8 29  1  0
  9 30  1  0
 10 31  1  0
 12 32  1  0
 17 33  1  0
 18 34  1  0
 19 35  1  0
 21 36  1  0
 21 37  1  0
 22 38  1  0
 23 39  1  0
 23 40  1  0
 23 41  1  0
 24 42  1  0
 24 43  1  0
 24 44  1  0
M  END
>  <meeko>  (4) 
{"is_sidechain": [false], "free_energy": -7.062, "intermolecular_energy": -8.936, "internal_energy": -0.342}

$$$$
cand_051_out
     RDKit          3D

 44 46  0  0  0  0  0  0  0  0999 V2000
   19.9250  -25.3390   43.6430 C   0  0  0  0  0  0  0  0  0  0  0  0
   20.2470  -25.9110   42.2890 C   0  0  0  0  0  0  0  0  0  0  0  0
   19.5960  -25.3780   41.1600 C   0  0  0  0  0  0  0  0  0  0  0  0
   19.8410  -25.8640   39.8660 C   0  0  0  0  0  0  0  0  0  0  0  0
   19.1150  -25.2890   38.7130 C   0  0  0  0  0  0  0  0  0  0  0  0
   19.5270  -23.9970   38.4060 O   0  0  0  0  0  0  0  0  0  0  0  0
   18.9340  -23.3440   37.3550 C   0  0  0  0  0  0  0  0  0  0  0  0
   19.3670  -22.0440   37.0910 C   0  0  0  0  0  0  0  0  0  0  0  0
   18.8060  -21.3250   36.0340 C   0  0  0  0  0  0  0  0  0  0  0  0
   17.8130  -21.9030   35.2420 C   0  0  0  0  0  0  0  0  0  0  0  0
   17.3820  -23.2010   35.5080 C   0  0  0  0  0  0  0  0  0  0  0  0
   16.4070  -23.7070   34.6920 O   0  0  0  0  0  0  0  0  0  0  0  0
   17.9430  -23.9210   36.5660 C   0  0  0  0  0  0  0  0  0  0  0  0
   17.5200  -25.2860   36.8790 C   0  0  0  0  0  0  0  0  0  0  0  0
   16.6570  -25.8670   36.2230 O   0  0  0  0  0  0  0  0  0  0  0  0
   18.1720  -25.9600   38.0260 C   0  0  0  0  0  0  0  0  0  0  0  0
   17.7740  -27.2540   38.3050 O   0  0  0  0  0  0  0  0  0  0  0  0
   20.7450  -26.9180   39.7150 C   0  0  0  0  0  0  0  0  0  0  0  0
   21.3990  -27.4590   40.8240 C   0  0  0  0  0  0  0  0  0  0  0  0
   21.1660  -26.9650   42.1190 C   0  0  0  0  0  0  0  0  0  0  0  0
   21.9140  -27.6000   43.2750 C   0  0  0  0  0  0  0  0  0  0  0  0
   23.4480  -27.5980   43.1050 C   0  0  0  0  0  0  0  0  0  0  0  0
   23.9640  -29.0380   43.0440 C   0  0  0  0  0  0  0  0  0  0  0  0
   24.1530  -26.8460   44.2370 C   0  0  0  0  0  0  0  0  0  0  0  0
   20.3043  -26.0128   44.4253 H   0  0  0  0  0  0  0  0  0  0  0  0
   20.4003  -24.3524   43.7467 H   0  0  0  0  0  0  0  0  0  0  0  0
   18.8350  -25.2336   43.7467 H   0  0  0  0  0  0  0  0  0  0  0  0
   18.8754  -24.5580   41.2957 H   0  0  0  0  0  0  0  0  0  0  0  0
   20.1491  -21.5865   37.7147 H   0  0  0  0  0  0  0  0  0  0  0  0
   19.1475  -20.3005   35.8250 H   0  0  0  0  0  0  0  0  0  0  0  0
   17.3716  -21.3352   34.4097 H   0  0  0  0  0  0  0  0  0  0  0  0
   15.7530  -24.2790   35.0430 H   0  0  0  0  0  0  0  0  0  0  0  0
   17.8570  -27.5930   39.1750 H   0  0  0  0  0  0  0  0  0  0  0  0
   20.9437  -27.3259   38.7129 H   0  0  0  0  0  0  0  0  0  0  0  0
   22.1093  -28.2867   40.6814 H   0  0  0  0  0  0  0  0  0  0  0  0
   21.6667  -27.0467   44.1930 H   0  0  0  0  0  0  0  0  0  0  0  0
   21.5993  -28.6531   43.3184 H   0  0  0  0  0  0  0  0  0  0  0  0
   23.6760  -27.0746   42.1648 H   0  0  0  0  0  0  0  0  0  0  0  0
   24.1015  -29.4218   44.0657 H   0  0  0  0  0  0  0  0  0  0  0  0
   23.2351  -29.6664   42.5113 H   0  0  0  0  0  0  0  0  0  0  0  0
   24.9261  -29.0605   42.5113 H   0  0  0  0  0  0  0  0  0  0  0  0
   23.7974  -27.2253   45.2064 H   0  0  0  0  0  0  0  0  0  0  0  0
   25.2393  -27.0005   44.1590 H   0  0  0  0  0  0  0  0  0  0  0  0
   23.9288  -25.7719   44.1590 H   0  0  0  0  0  0  0  0  0  0  0  0
  1  2  1  0
  2  3  2  0
  3  4  1  0
  4  5  1  0
  5  6  1  0
  6  7  1  0
  7  8  2  0
  8  9  1  0
  9 10  2  0
 10 11  1  0
 11 12  1  0
 11 13  2  0
 13 14  1  0
 14 15  2  0
 14 16  1  0
 16 17  1  0
  4 18  2  0
 18 19  1  0
 19 20  2  0
 20 21  1  0
 21 22  1  0
 22 23  1  0
 22 24  1  0
 20  2  1  0
 16  5  2  0
 13  7  1  0
  1 25  1  0
  1 26  1  0
  1 27  1  0
  3 28  1  0
  8 29  1  0
  9 30  1  0
 10 31  1  0
 12 32  1  0
 17 33  1  0
 18 34  1  0
 19 35  1  0
 21 36  1  0
 21 37  1  0
 22 38  1  0
 23 39  1  0
 23 40  1  0
 23 41  1  0
 24 42  1  0
 24 43  1  0
 24 44  1  0
M  END
>  <meeko>  (5) 
{"is_sidechain": [false], "free_energy": -6.972, "intermolecular_energy": -8.547, "internal_energy": -0.621}

$$$$
cand_051_out
     RDKit          3D

 44 46  0  0  0  0  0  0  0  0999 V2000
   17.7820  -22.8120   46.0680 C   0  0  0  0  0  0  0  0  0  0  0  0
   18.9880  -23.5680   45.5820 C   0  0  0  0  0  0  0  0  0  0  0  0
   19.0140  -24.0120   44.2460 C   0  0  0  0  0  0  0  0  0  0  0  0
   20.1030  -24.7270   43.7230 C   0  0  0  0  0  0  0  0  0  0  0  0
   20.0730  -25.1940   42.3210 C   0  0  0  0  0  0  0  0  0  0  0  0
   19.7480  -24.1840   41.4230 O   0  0  0  0  0  0  0  0  0  0  0  0
   19.6850  -24.4810   40.0850 C   0  0  0  0  0  0  0  0  0  0  0  0
   19.3410  -23.4400   39.2200 C   0  0  0  0  0  0  0  0  0  0  0  0
   19.2610  -23.6740   37.8460 C   0  0  0  0  0  0  0  0  0  0  0  0
   19.5240  -24.9470   37.3360 C   0  0  0  0  0  0  0  0  0  0  0  0
   19.8680  -25.9830   38.2010 C   0  0  0  0  0  0  0  0  0  0  0  0
   20.1140  -27.2040   37.6350 O   0  0  0  0  0  0  0  0  0  0  0  0
   19.9470  -25.7490   39.5770 C   0  0  0  0  0  0  0  0  0  0  0  0
   20.3040  -26.8090   40.5190 C   0  0  0  0  0  0  0  0  0  0  0  0
   20.5580  -27.9540   40.1470 O   0  0  0  0  0  0  0  0  0  0  0  0
   20.3530  -26.4590   41.9580 C   0  0  0  0  0  0  0  0  0  0  0  0
   20.7050  -27.4650   42.8390 O   0  0  0  0  0  0  0  0  0  0  0  0
   21.1750  -25.0140   44.5720 C   0  0  0  0  0  0  0  0  0  0  0  0
   21.1650  -24.5830   45.9000 C   0  0  0  0  0  0  0  0  0  0  0  0
   20.0830  -23.8540   46.4220 C   0  0  0  0  0  0  0  0  0  0  0  0
   20.1450  -23.4160   47.8720 C   0  0  0  0  0  0  0  0  0  0  0  0
   20.9660  -24.3580   48.7770 C   0  0  0  0  0  0  0  0  0  0  0  0
   20.0310  -25.3430   49.4840 C   0  0  0  0  0  0  0  0  0  0  0  0
   21.7860  -23.5910   49.8180 C   0  0  0  0  0  0  0  0  0  0  0  0
   17.7719  -22.8057   47.1679 H   0  0  0  0  0  0  0  0  0  0  0  0
   17.8231  -21.7777   45.6958 H   0  0  0  0  0  0  0  0  0  0  0  0
   16.8690  -23.2997   45.6958 H   0  0  0  0  0  0  0  0  0  0  0  0
   18.1563  -23.7923   43.5933 H   0  0  0  0  0  0  0  0  0  0  0  0
   19.1333  -22.4369   39.6208 H   0  0  0  0  0  0  0  0  0  0  0  0
   18.9904  -22.8543   37.1642 H   0  0  0  0  0  0  0  0  0  0  0  0
   19.4596  -25.1312   36.2534 H   0  0  0  0  0  0  0  0  0  0  0  0
   20.4270  -27.2570   36.7540 H   0  0  0  0  0  0  0  0  0  0  0  0
   21.3600  -28.0910   42.5980 H   0  0  0  0  0  0  0  0  0  0  0  0
   22.0346  -25.5847   44.1907 H   0  0  0  0  0  0  0  0  0  0  0  0
   22.0205  -24.8186   46.5501 H   0  0  0  0  0  0  0  0  0  0  0  0
   20.5993  -22.4150   47.9119 H   0  0  0  0  0  0  0  0  0  0  0  0
   19.1131  -23.4280   48.2527 H   0  0  0  0  0  0  0  0  0  0  0  0
   21.6717  -24.9020   48.1320 H   0  0  0  0  0  0  0  0  0  0  0  0
   20.1368  -25.2316   50.5732 H   0  0  0  0  0  0  0  0  0  0  0  0
   18.9908  -25.1342   49.1934 H   0  0  0  0  0  0  0  0  0  0  0  0
   20.2936  -26.3709   49.1934 H   0  0  0  0  0  0  0  0  0  0  0  0
   21.4674  -23.8890   50.8278 H   0  0  0  0  0  0  0  0  0  0  0  0
   22.8534  -23.8224   49.6870 H   0  0  0  0  0  0  0  0  0  0  0  0
   21.6263  -22.5106   49.6870 H   0  0  0  0  0  0  0  0  0  0  0  0
  1  2  1  0
  2  3  2  0
  3  4  1  0
  4  5  1  0
  5  6  1  0
  6  7  1  0
  7  8  2  0
  8  9  1  0
  9 10  2  0
 10 11  1  0
 11 12  1  0
 11 13  2  0
 13 14  1  0
 14 15  2  0
 14 16  1  0
 16 17  1  0
  4 18  2  0
 18 19  1  0
 19 20  2  0
 20 21  1  0
 21 22  1  0
 22 23  1  0
 22 24  1  0
 20  2  1  0
 16  5  2  0
 13  7  1  0
  1 25  1  0
  1 26  1  0
  1 27  1  0
  3 28  1  0
  8 29  1  0
  9 30  1  0
 10 31  1  0
 12 32  1  0
 17 33  1  0
 18 34  1  0
 19 35  1  0
 21 36  1  0
 21 37  1  0
 22 38  1  0
 23 39  1  0
 23 40  1  0
 23 41  1  0
 24 42  1  0
 24 43  1  0
 24 44  1  0
M  END
>  <meeko>  (6) 
{"is_sidechain": [false], "free_energy": -6.914, "intermolecular_energy": -8.667, "internal_energy": -0.429}

$$$$
cand_051_out
     RDKit          3D

 44 46  0  0  0  0  0  0  0  0999 V2000
   20.4240  -31.3650   35.5250 C   0  0  0  0  0  0  0  0  0  0  0  0
   19.8400  -30.9580   36.8500 C   0  0  0  0  0  0  0  0  0  0  0  0
   19.8770  -29.5990   37.2140 C   0  0  0  0  0  0  0  0  0  0  0  0
   19.3560  -29.1450   38.4360 C   0  0  0  0  0  0  0  0  0  0  0  0
   19.4390  -27.7110   38.7860 C   0  0  0  0  0  0  0  0  0  0  0  0
   18.6420  -26.9110   37.9750 O   0  0  0  0  0  0  0  0  0  0  0  0
   18.6250  -25.5560   38.1910 C   0  0  0  0  0  0  0  0  0  0  0  0
   17.8210  -24.7890   37.3460 C   0  0  0  0  0  0  0  0  0  0  0  0
   17.7570  -23.4040   37.5140 C   0  0  0  0  0  0  0  0  0  0  0  0
   18.4950  -22.7860   38.5250 C   0  0  0  0  0  0  0  0  0  0  0  0
   19.2960  -23.5540   39.3670 C   0  0  0  0  0  0  0  0  0  0  0  0
   19.9910  -22.8850   40.3370 O   0  0  0  0  0  0  0  0  0  0  0  0
   19.3610  -24.9400   39.2000 C   0  0  0  0  0  0  0  0  0  0  0  0
   20.1880  -25.7830   40.0620 C   0  0  0  0  0  0  0  0  0  0  0  0
   20.8600  -25.3140   40.9790 O   0  0  0  0  0  0  0  0  0  0  0  0
   20.1930  -27.2400   39.7960 C   0  0  0  0  0  0  0  0  0  0  0  0
   20.9690  -28.0280   40.6260 O   0  0  0  0  0  0  0  0  0  0  0  0
   18.8060  -30.0850   39.3110 C   0  0  0  0  0  0  0  0  0  0  0  0
   18.7630  -31.4380   38.9660 C   0  0  0  0  0  0  0  0  0  0  0  0
   19.2710  -31.8930   37.7380 C   0  0  0  0  0  0  0  0  0  0  0  0
   19.1860  -33.3750   37.4310 C   0  0  0  0  0  0  0  0  0  0  0  0
   19.5700  -34.2840   38.6170 C   0  0  0  0  0  0  0  0  0  0  0  0
   20.3980  -35.4700   38.1140 C   0  0  0  0  0  0  0  0  0  0  0  0
   18.3430  -34.7980   39.3730 C   0  0  0  0  0  0  0  0  0  0  0  0
   21.3159  -31.9866   35.6928 H   0  0  0  0  0  0  0  0  0  0  0  0
   19.6781  -31.9399   34.9566 H   0  0  0  0  0  0  0  0  0  0  0  0
   20.7051  -30.4662   34.9566 H   0  0  0  0  0  0  0  0  0  0  0  0
   20.3268  -28.8722   36.5216 H   0  0  0  0  0  0  0  0  0  0  0  0
   17.2388  -25.2747   36.5491 H   0  0  0  0  0  0  0  0  0  0  0  0
   17.1238  -22.7990   36.8484 H   0  0  0  0  0  0  0  0  0  0  0  0
   18.4441  -21.6951   38.6565 H   0  0  0  0  0  0  0  0  0  0  0  0
   20.6740  -22.2900   40.0980 H   0  0  0  0  0  0  0  0  0  0  0  0
   21.1310  -28.9240   40.4040 H   0  0  0  0  0  0  0  0  0  0  0  0
   18.4031  -29.7567   40.2805 H   0  0  0  0  0  0  0  0  0  0  0  0
   18.3231  -32.1606   39.6691 H   0  0  0  0  0  0  0  0  0  0  0  0
   18.1522  -33.6086   37.1366 H   0  0  0  0  0  0  0  0  0  0  0  0
   19.9105  -33.5760   36.6281 H   0  0  0  0  0  0  0  0  0  0  0  0
   20.1629  -33.6782   39.3180 H   0  0  0  0  0  0  0  0  0  0  0  0
   20.7912  -36.0333   38.9731 H   0  0  0  0  0  0  0  0  0  0  0  0
   19.7623  -36.1285   37.5038 H   0  0  0  0  0  0  0  0  0  0  0  0
   21.2352  -35.1002   37.5038 H   0  0  0  0  0  0  0  0  0  0  0  0
   18.5216  -34.7232   40.4558 H   0  0  0  0  0  0  0  0  0  0  0  0
   17.4656  -34.1918   39.1033 H   0  0  0  0  0  0  0  0  0  0  0  0
   18.1597  -35.8486   39.1033 H   0  0  0  0  0  0  0  0  0  0  0  0
  1  2  1  0
  2  3  2  0
  3  4  1  0
  4  5  1  0
  5  6  1  0
  6  7  1  0
  7  8  2  0
  8  9  1  0
  9 10  2  0
 10 11  1  0
 11 12  1  0
 11 13  2  0
 13 14  1  0
 14 15  2  0
 14 16  1  0
 16 17  1  0
  4 18  2  0
 18 19  1  0
 19 20  2  0
 20 21  1  0
 21 22  1  0
 22 23  1  0
 22 24  1  0
 20  2  1  0
 16  5  2  0
 13  7  1  0
  1 25  1  0
  1 26  1  0
  1 27  1  0
  3 28  1  0
  8 29  1  0
  9 30  1  0
 10 31  1  0
 12 32  1  0
 17 33  1  0
 18 34  1  0
 19 35  1  0
 21 36  1  0
 21 37  1  0
 22 38  1  0
 23 39  1  0
 23 40  1  0
 23 41  1  0
 24 42  1  0
 24 43  1  0
 24 44  1  0
M  END
>  <meeko>  (7) 
{"is_sidechain": [false], "free_energy": -6.908, "intermolecular_energy": -8.642, "internal_energy": -0.447}

$$$$
cand_051_out
     RDKit          3D

 44 46  0  0  0  0  0  0  0  0999 V2000
   17.5440  -22.6110   46.0090 C   0  0  0  0  0  0  0  0  0  0  0  0
   18.6910  -23.3860   45.4220 C   0  0  0  0  0  0  0  0  0  0  0  0
   18.6750  -23.6740   44.0440 C   0  0  0  0  0  0  0  0  0  0  0  0
   19.7080  -24.3960   43.4260 C   0  0  0  0  0  0  0  0  0  0  0  0
   19.6360  -24.6960   41.9800 C   0  0  0  0  0  0  0  0  0  0  0  0
   19.5350  -26.0570   41.7160 O   0  0  0  0  0  0  0  0  0  0  0  0
   19.4600  -26.4760   40.4120 C   0  0  0  0  0  0  0  0  0  0  0  0
   19.3740  -27.8520   40.1920 C   0  0  0  0  0  0  0  0  0  0  0  0
   19.2920  -28.3450   38.8880 C   0  0  0  0  0  0  0  0  0  0  0  0
   19.2960  -27.4650   37.8050 C   0  0  0  0  0  0  0  0  0  0  0  0
   19.3820  -26.0920   38.0270 C   0  0  0  0  0  0  0  0  0  0  0  0
   19.3800  -25.2860   36.9210 O   0  0  0  0  0  0  0  0  0  0  0  0
   19.4640  -25.5980   39.3320 C   0  0  0  0  0  0  0  0  0  0  0  0
   19.5550  -24.1650   39.6090 C   0  0  0  0  0  0  0  0  0  0  0  0
   19.5570  -23.3270   38.7090 O   0  0  0  0  0  0  0  0  0  0  0  0
   19.6460  -23.7460   41.0270 C   0  0  0  0  0  0  0  0  0  0  0  0
   19.7180  -22.3880   41.2780 O   0  0  0  0  0  0  0  0  0  0  0  0
   20.7640  -24.8510   44.2190 C   0  0  0  0  0  0  0  0  0  0  0  0
   20.7950  -24.5750   45.5880 C   0  0  0  0  0  0  0  0  0  0  0  0
   19.7690  -23.8400   46.2070 C   0  0  0  0  0  0  0  0  0  0  0  0
   19.8730  -23.5770   47.6960 C   0  0  0  0  0  0  0  0  0  0  0  0
   20.7700  -24.5810   48.4500 C   0  0  0  0  0  0  0  0  0  0  0  0
   19.9130  -25.4430   49.3810 C   0  0  0  0  0  0  0  0  0  0  0  0
   21.8650  -23.8830   49.2590 C   0  0  0  0  0  0  0  0  0  0  0  0
   17.5998  -22.6487   47.1069 H   0  0  0  0  0  0  0  0  0  0  0  0
   17.5994  -21.5645   45.6747 H   0  0  0  0  0  0  0  0  0  0  0  0
   16.5937  -23.0529   45.6747 H   0  0  0  0  0  0  0  0  0  0  0  0
   17.8291  -23.3233   43.4345 H   0  0  0  0  0  0  0  0  0  0  0  0
   19.3708  -28.5469   41.0447 H   0  0  0  0  0  0  0  0  0  0  0  0
   19.2241  -29.4291   38.7142 H   0  0  0  0  0  0  0  0  0  0  0  0
   19.2314  -27.8543   36.7782 H   0  0  0  0  0  0  0  0  0  0  0  0
   18.6410  -24.7400   36.7410 H   0  0  0  0  0  0  0  0  0  0  0  0
   19.1650  -21.7950   40.8080 H   0  0  0  0  0  0  0  0  0  0  0  0
   21.5784  -25.4318   43.7614 H   0  0  0  0  0  0  0  0  0  0  0  0
   21.6382  -24.9397   46.1931 H   0  0  0  0  0  0  0  0  0  0  0  0
   20.2859  -22.5678   47.8409 H   0  0  0  0  0  0  0  0  0  0  0  0
   18.8592  -23.6835   48.1094 H   0  0  0  0  0  0  0  0  0  0  0  0
   21.2640  -25.2127   47.6971 H   0  0  0  0  0  0  0  0  0  0  0  0
   20.1524  -25.2022   50.4273 H   0  0  0  0  0  0  0  0  0  0  0  0
   18.8485  -25.2398   49.1923 H   0  0  0  0  0  0  0  0  0  0  0  0
   20.1224  -26.5063   49.1923 H   0  0  0  0  0  0  0  0  0  0  0  0
   21.6650  -24.0105   50.3331 H   0  0  0  0  0  0  0  0  0  0  0  0
   22.8414  -24.3257   49.0128 H   0  0  0  0  0  0  0  0  0  0  0  0
   21.8759  -22.8110   49.0128 H   0  0  0  0  0  0  0  0  0  0  0  0
  1  2  1  0
  2  3  2  0
  3  4  1  0
  4  5  1  0
  5  6  1  0
  6  7  1  0
  7  8  2  0
  8  9  1  0
  9 10  2  0
 10 11  1  0
 11 12  1  0
 11 13  2  0
 13 14  1  0
 14 15  2  0
 14 16  1  0
 16 17  1  0
  4 18  2  0
 18 19  1  0
 19 20  2  0
 20 21  1  0
 21 22  1  0
 22 23  1  0
 22 24  1  0
 20  2  1  0
 16  5  2  0
 13  7  1  0
  1 25  1  0
  1 26  1  0
  1 27  1  0
  3 28  1  0
  8 29  1  0
  9 30  1  0
 10 31  1  0
 12 32  1  0
 17 33  1  0
 18 34  1  0
 19 35  1  0
 21 36  1  0
 21 37  1  0
 22 38  1  0
 23 39  1  0
 23 40  1  0
 23 41  1  0
 24 42  1  0
 24 43  1  0
 24 44  1  0
M  END
>  <meeko>  (8) 
{"is_sidechain": [false], "free_energy": -6.839, "intermolecular_energy": -8.458, "internal_energy": -0.546}

$$$$
cand_051_out
     RDKit          3D

 44 46  0  0  0  0  0  0  0  0999 V2000
   19.7350  -21.9320   43.0160 C   0  0  0  0  0  0  0  0  0  0  0  0
   19.6810  -23.3650   42.5610 C   0  0  0  0  0  0  0  0  0  0  0  0
   19.4890  -23.6310   41.1920 C   0  0  0  0  0  0  0  0  0  0  0  0
   19.4240  -24.9420   40.6940 C   0  0  0  0  0  0  0  0  0  0  0  0
   19.1960  -25.1720   39.2510 C   0  0  0  0  0  0  0  0  0  0  0  0
   18.0780  -24.5010   38.7680 O   0  0  0  0  0  0  0  0  0  0  0  0
   17.7500  -24.6270   37.4420 C   0  0  0  0  0  0  0  0  0  0  0  0
   16.6130  -23.9470   37.0020 C   0  0  0  0  0  0  0  0  0  0  0  0
   16.2250  -24.0320   35.6640 C   0  0  0  0  0  0  0  0  0  0  0  0
   16.9730  -24.7960   34.7650 C   0  0  0  0  0  0  0  0  0  0  0  0
   18.1070  -25.4730   35.2060 C   0  0  0  0  0  0  0  0  0  0  0  0
   18.7930  -26.2010   34.2730 O   0  0  0  0  0  0  0  0  0  0  0  0
   18.4950  -25.3890   36.5460 C   0  0  0  0  0  0  0  0  0  0  0  0
   19.6800  -26.0830   37.0500 C   0  0  0  0  0  0  0  0  0  0  0  0
   20.3930  -26.7690   36.3200 O   0  0  0  0  0  0  0  0  0  0  0  0
   20.0000  -25.9350   38.4890 C   0  0  0  0  0  0  0  0  0  0  0  0
   21.1290  -26.5860   38.9520 O   0  0  0  0  0  0  0  0  0  0  0  0
   19.5350  -26.0000   41.5990 C   0  0  0  0  0  0  0  0  0  0  0  0
   19.7240  -25.7540   42.9610 C   0  0  0  0  0  0  0  0  0  0  0  0
   19.8040  -24.4430   43.4600 C   0  0  0  0  0  0  0  0  0  0  0  0
   20.0140  -24.2530   44.9500 C   0  0  0  0  0  0  0  0  0  0  0  0
   21.4880  -24.0360   45.3520 C   0  0  0  0  0  0  0  0  0  0  0  0
   22.1710  -25.3890   45.5670 C   0  0  0  0  0  0  0  0  0  0  0  0
   21.6220  -23.1860   46.6180 C   0  0  0  0  0  0  0  0  0  0  0  0
   19.7364  -21.8962   44.1154 H   0  0  0  0  0  0  0  0  0  0  0  0
   20.6516  -21.4599   42.6326 H   0  0  0  0  0  0  0  0  0  0  0  0
   18.8566  -21.3922   42.6326 H   0  0  0  0  0  0  0  0  0  0  0  0
   19.3870  -22.7879   40.4928 H   0  0  0  0  0  0  0  0  0  0  0  0
   16.0235  -23.3448   37.7090 H   0  0  0  0  0  0  0  0  0  0  0  0
   15.3289  -23.4966   35.3169 H   0  0  0  0  0  0  0  0  0  0  0  0
   16.6667  -24.8627   33.7106 H   0  0  0  0  0  0  0  0  0  0  0  0
   19.1100  -27.0570   34.4860 H   0  0  0  0  0  0  0  0  0  0  0  0
   21.7640  -26.1190   39.4600 H   0  0  0  0  0  0  0  0  0  0  0  0
   19.4730  -27.0365   41.2359 H   0  0  0  0  0  0  0  0  0  0  0  0
   19.8118  -26.6023   43.6557 H   0  0  0  0  0  0  0  0  0  0  0  0
   19.4345  -23.3752   45.2721 H   0  0  0  0  0  0  0  0  0  0  0  0
   19.6832  -25.1809   45.4395 H   0  0  0  0  0  0  0  0  0  0  0  0
   21.9773  -23.4912   44.5312 H   0  0  0  0  0  0  0  0  0  0  0  0
   22.2690  -25.5830   46.6453 H   0  0  0  0  0  0  0  0  0  0  0  0
   21.5656  -26.1828   45.1051 H   0  0  0  0  0  0  0  0  0  0  0  0
   23.1692  -25.3734   45.1051 H   0  0  0  0  0  0  0  0  0  0  0  0
   21.5205  -23.8297   47.5042 H   0  0  0  0  0  0  0  0  0  0  0  0
   22.6081  -22.6986   46.6298 H   0  0  0  0  0  0  0  0  0  0  0  0
   20.8337  -22.4189   46.6298 H   0  0  0  0  0  0  0  0  0  0  0  0
  1  2  1  0
  2  3  2  0
  3  4  1  0
  4  5  1  0
  5  6  1  0
  6  7  1  0
  7  8  2  0
  8  9  1  0
  9 10  2  0
 10 11  1  0
 11 12  1  0
 11 13  2  0
 13 14  1  0
 14 15  2  0
 14 16  1  0
 16 17  1  0
  4 18  2  0
 18 19  1  0
 19 20  2  0
 20 21  1  0
 21 22  1  0
 22 23  1  0
 22 24  1  0
 20  2  1  0
 16  5  2  0
 13  7  1  0
  1 25  1  0
  1 26  1  0
  1 27  1  0
  3 28  1  0
  8 29  1  0
  9 30  1  0
 10 31  1  0
 12 32  1  0
 17 33  1  0
 18 34  1  0
 19 35  1  0
 21 36  1  0
 21 37  1  0
 22 38  1  0
 23 39  1  0
 23 40  1  0
 23 41  1  0
 24 42  1  0
 24 43  1  0
 24 44  1  0
M  END
>  <meeko>  (9) 
{"is_sidechain": [false], "free_energy": -6.814, "intermolecular_energy": -8.478, "internal_energy": -0.494}

$$$$
