cand_027_out
     RDKit          3D

 44 46  0  0  0  0  0  0  0  0999 V2000
   19.9760  -33.1660   35.1040 C   0  0  0  0  0  0  0  0  0  0  0  0
   19.7670  -32.0830   36.1290 C   0  0  0  0  0  0  0  0  0  0  0  0
   20.0590  -30.7730   35.6910 C   0  0  0  0  0  0  0  0  0  0  0  0
   19.9100  -29.6670   36.5230 C   0  0  0  0  0  0  0  0  0  0  0  0
   19.4560  -29.8350   37.8250 C   0  0  0  0  0  0  0  0  0  0  0  0
   19.2980  -28.6900   38.7470 C   0  0  0  0  0  0  0  0  0  0  0  0
   20.1940  -28.7250   39.8100 O   0  0  0  0  0  0  0  0  0  0  0  0
   20.1560  -27.7210   40.7440 C   0  0  0  0  0  0  0  0  0  0  0  0
   21.0810  -27.7910   41.7860 C   0  0  0  0  0  0  0  0  0  0  0  0
   21.0950  -26.8010   42.7720 C   0  0  0  0  0  0  0  0  0  0  0  0
   20.1830  -25.7440   42.7160 C   0  0  0  0  0  0  0  0  0  0  0  0
   19.2620  -25.6790   41.6750 C   0  0  0  0  0  0  0  0  0  0  0  0
   18.3980  -24.6170   41.6820 O   0  0  0  0  0  0  0  0  0  0  0  0
   19.2480  -26.6680   40.6880 C   0  0  0  0  0  0  0  0  0  0  0  0
   18.2970  -26.6360   39.5780 C   0  0  0  0  0  0  0  0  0  0  0  0
   17.4610  -25.7430   39.4630 O   0  0  0  0  0  0  0  0  0  0  0  0
   18.3690  -27.7300   38.5810 C   0  0  0  0  0  0  0  0  0  0  0  0
   17.4560  -27.6980   37.5440 O   0  0  0  0  0  0  0  0  0  0  0  0
   19.1860  -31.1410   38.2750 C   0  0  0  0  0  0  0  0  0  0  0  0
   19.3440  -32.2980   37.4670 C   0  0  0  0  0  0  0  0  0  0  0  0
   19.0130  -33.6890   38.0760 C   0  0  0  0  0  0  0  0  0  0  0  0
   18.2110  -34.5950   37.1140 C   0  0  0  0  0  0  0  0  0  0  0  0
   18.2280  -33.4910   39.3900 C   0  0  0  0  0  0  0  0  0  0  0  0
   20.2770  -34.5190   38.4410 C   0  0  0  0  0  0  0  0  0  0  0  0
   20.1607  -34.1229   35.6141 H   0  0  0  0  0  0  0  0  0  0  0  0
   19.0781  -33.2533   34.4745 H   0  0  0  0  0  0  0  0  0  0  0  0
   20.8419  -32.9129   34.4745 H   0  0  0  0  0  0  0  0  0  0  0  0
   20.4150  -30.6218   34.6612 H   0  0  0  0  0  0  0  0  0  0  0  0
   20.1516  -28.6609   36.1498 H   0  0  0  0  0  0  0  0  0  0  0  0
   21.7980  -28.6240   41.8313 H   0  0  0  0  0  0  0  0  0  0  0  0
   21.8249  -26.8539   43.5933 H   0  0  0  0  0  0  0  0  0  0  0  0
   20.1930  -24.9653   43.4928 H   0  0  0  0  0  0  0  0  0  0  0  0
   18.0030  -24.3400   42.4840 H   0  0  0  0  0  0  0  0  0  0  0  0
   17.3450  -26.9150   37.0420 H   0  0  0  0  0  0  0  0  0  0  0  0
   18.8335  -31.2726   39.3086 H   0  0  0  0  0  0  0  0  0  0  0  0
   17.5930  -35.2932   37.6976 H   0  0  0  0  0  0  0  0  0  0  0  0
   17.5622  -33.9730   36.4799 H   0  0  0  0  0  0  0  0  0  0  0  0
   18.9072  -35.1636   36.4799 H   0  0  0  0  0  0  0  0  0  0  0  0
   18.8977  -33.6599   40.2462 H   0  0  0  0  0  0  0  0  0  0  0  0
   17.8331  -32.4651   39.4302 H   0  0  0  0  0  0  0  0  0  0  0  0
   17.3938  -34.2069   39.4302 H   0  0  0  0  0  0  0  0  0  0  0  0
   20.3715  -34.5811   39.5352 H   0  0  0  0  0  0  0  0  0  0  0  0
   20.1837  -35.5322   38.0230 H   0  0  0  0  0  0  0  0  0  0  0  0
   21.1696  -34.0307   38.0230 H   0  0  0  0  0  0  0  0  0  0  0  0
  1  2  1  0
  2  3  2  0
  3  4  1  0
  4  5  2  0
  5  6  1  0
  6  7  1  0
  7  8  1  0
  8  9  2  0
  9 10  1  0
 10 11  2  0
 11 12  1  0
 12 13  1  0
 12 14  2  0
 14 15  1  0
 15 16  2  0
 15 17  1  0
 17 18  1  0
  5 19  1  0
 19 20  2  0
 20 21  1  0
 21 22  1  0
 21 23  1  0
 21 24  1  0
 20  2  1  0
 17  6  2  0
 14  8  1  0
  1 25  1  0
  1 26  1  0
  1 27  1  0
  3 28  1  0
  4 29  1  0
  9 30  1  0
 10 31  1  0
 11 32  1  0
 13 33  1  0
 18 34  1  0
 19 35  1  0
 22 36  1  0
 22 37  1  0
 22 38  1  0
 23 39  1  0
 23 40  1  0
 23 41  1  0
 24 42  1  0
 24 43  1  0
 24 44  1  0
M  END
>  <meeko>  (1) 
{"is_sidechain": [false], "free_energy": -7.623, "intermolecular_energy": -8.96, "internal_energy": -0.126}

$$$$
cand_027_out
     RDKit          3D

 44 46  0  0  0  0  0  0  0  0999 V2000
   19.6470  -24.6470   40.5170 C   0  0  0  0  0  0  0  0  0  0  0  0
   19.5490  -25.9820   39.8290 C   0  0  0  0  0  0  0  0  0  0  0  0
   19.9770  -27.0880   40.5960 C   0  0  0  0  0  0  0  0  0  0  0  0
   19.9410  -28.3870   40.0980 C   0  0  0  0  0  0  0  0  0  0  0  0
   19.4690  -28.6270   38.8140 C   0  0  0  0  0  0  0  0  0  0  0  0
   19.4290  -29.9890   38.2410 C   0  0  0  0  0  0  0  0  0  0  0  0
   19.0670  -30.9570   39.1720 O   0  0  0  0  0  0  0  0  0  0  0  0
   18.9930  -32.2660   38.7740 C   0  0  0  0  0  0  0  0  0  0  0  0
   18.6140  -33.2010   39.7380 C   0  0  0  0  0  0  0  0  0  0  0  0
   18.5210  -34.5530   39.3990 C   0  0  0  0  0  0  0  0  0  0  0  0
   18.8080  -34.9690   38.0960 C   0  0  0  0  0  0  0  0  0  0  0  0
   19.1860  -34.0340   37.1370 C   0  0  0  0  0  0  0  0  0  0  0  0
   19.4520  -34.5110   35.8820 O   0  0  0  0  0  0  0  0  0  0  0  0
   19.2780  -32.6820   37.4760 C   0  0  0  0  0  0  0  0  0  0  0  0
   19.6720  -31.6670   36.4990 C   0  0  0  0  0  0  0  0  0  0  0  0
   19.9460  -31.9560   35.3360 O   0  0  0  0  0  0  0  0  0  0  0  0
   19.7340  -30.2600   36.9580 C   0  0  0  0  0  0  0  0  0  0  0  0
   20.1210  -29.3110   36.0310 O   0  0  0  0  0  0  0  0  0  0  0  0
   19.0630  -27.5260   38.0370 C   0  0  0  0  0  0  0  0  0  0  0  0
   19.1020  -26.1820   38.4960 C   0  0  0  0  0  0  0  0  0  0  0  0
   18.6270  -25.0500   37.5440 C   0  0  0  0  0  0  0  0  0  0  0  0
   17.2860  -24.4160   37.9810 C   0  0  0  0  0  0  0  0  0  0  0  0
   18.5010  -25.6130   36.1130 C   0  0  0  0  0  0  0  0  0  0  0  0
   19.6210  -23.8560   37.4610 C   0  0  0  0  0  0  0  0  0  0  0  0
   19.6362  -24.7946   41.6070 H   0  0  0  0  0  0  0  0  0  0  0  0
   20.5840  -24.1511   40.2234 H   0  0  0  0  0  0  0  0  0  0  0  0
   18.7925  -24.0196   40.2234 H   0  0  0  0  0  0  0  0  0  0  0  0
   20.3497  -26.9177   41.6168 H   0  0  0  0  0  0  0  0  0  0  0  0
   20.2867  -29.2244   40.7219 H   0  0  0  0  0  0  0  0  0  0  0  0
   18.3887  -32.8738   40.7638 H   0  0  0  0  0  0  0  0  0  0  0  0
   18.2217  -35.2907   40.1581 H   0  0  0  0  0  0  0  0  0  0  0  0
   18.7352  -36.0336   37.8289 H   0  0  0  0  0  0  0  0  0  0  0  0
   19.9390  -33.9880   35.2770 H   0  0  0  0  0  0  0  0  0  0  0  0
   20.2980  -28.4330   36.3050 H   0  0  0  0  0  0  0  0  0  0  0  0
   18.6951  -27.7166   37.0180 H   0  0  0  0  0  0  0  0  0  0  0  0
   17.2330  -24.3909   39.0794 H   0  0  0  0  0  0  0  0  0  0  0  0
   17.2194  -23.3911   37.5872 H   0  0  0  0  0  0  0  0  0  0  0  0
   16.4517  -25.0150   37.5872 H   0  0  0  0  0  0  0  0  0  0  0  0
   18.2610  -26.6854   36.1607 H   0  0  0  0  0  0  0  0  0  0  0  0
   17.6996  -25.0813   35.5790 H   0  0  0  0  0  0  0  0  0  0  0  0
   19.4526  -25.4736   35.5790 H   0  0  0  0  0  0  0  0  0  0  0  0
   19.8907  -23.5321   38.4771 H   0  0  0  0  0  0  0  0  0  0  0  0
   20.5278  -24.1705   36.9236 H   0  0  0  0  0  0  0  0  0  0  0  0
   19.1473  -23.0212   36.9236 H   0  0  0  0  0  0  0  0  0  0  0  0
  1  2  1  0
  2  3  2  0
  3  4  1  0
  4  5  2  0
  5  6  1  0
  6  7  1  0
  7  8  1  0
  8  9  2  0
  9 10  1  0
 10 11  2  0
 11 12  1  0
 12 13  1  0
 12 14  2  0
 14 15  1  0
 15 16  2  0
 15 17  1  0
 17 18  1  0
  5 19  1  0
 19 20  2  0
 20 21  1  0
 21 22  1  0
 21 23  1  0
 21 24  1  0
 20  2  1  0
 17  6  2  0
 14  8  1  0
  1 25  1  0
  1 26  1  0
  1 27  1  0
  3 28  1  0
  4 29  1  0
  9 30  1  0
 10 31  1  0
 11 32  1  0
 13 33  1  0
 18 34  1  0
 19 35  1  0
 22 36  1  0
 22 37  1  0
 22 38  1  0
 23 39  1  0
 23 40  1  0
 23 41  1  0
 24 42  1  0
 24 43  1  0
 24 44  1  0
M  END
>  <meeko>  (2) 
{"is_sidechain": [false], "free_energy": -7.409, "intermolecular_energy": -8.989, "internal_energy": 0.155}

$$$$
cand_027_out
     RDKit          3D

 44 46  0  0  0  0  0  0  0  0999 V2000
   19.7090  -24.5940   38.0780 C   0  0  0  0  0  0  0  0  0  0  0  0
   19.6790  -26.0980   38.0150 C   0  0  0  0  0  0  0  0  0  0  0  0
   19.3590  -26.6420   36.7510 C   0  0  0  0  0  0  0  0  0  0  0  0
   19.2980  -28.0150   36.5350 C   0  0  0  0  0  0  0  0  0  0  0  0
   19.5620  -28.8950   37.5780 C   0  0  0  0  0  0  0  0  0  0  0  0
   19.4920  -30.3610   37.3960 C   0  0  0  0  0  0  0  0  0  0  0  0
   19.0980  -31.0300   38.5490 O   0  0  0  0  0  0  0  0  0  0  0  0
   18.9940  -32.3970   38.5200 C   0  0  0  0  0  0  0  0  0  0  0  0
   18.5840  -33.0260   39.6960 C   0  0  0  0  0  0  0  0  0  0  0  0
   18.4590  -34.4170   39.7350 C   0  0  0  0  0  0  0  0  0  0  0  0
   18.7460  -35.1780   38.5990 C   0  0  0  0  0  0  0  0  0  0  0  0
   19.1550  -34.5470   37.4280 C   0  0  0  0  0  0  0  0  0  0  0  0
   19.4200  -35.3520   36.3530 O   0  0  0  0  0  0  0  0  0  0  0  0
   19.2790  -33.1560   37.3880 C   0  0  0  0  0  0  0  0  0  0  0  0
   19.7060  -32.4540   36.1780 C   0  0  0  0  0  0  0  0  0  0  0  0
   19.9820  -33.0530   35.1410 O   0  0  0  0  0  0  0  0  0  0  0  0
   19.8000  -30.9770   36.2390 C   0  0  0  0  0  0  0  0  0  0  0  0
   20.2190  -30.3240   35.0940 O   0  0  0  0  0  0  0  0  0  0  0  0
   19.8580  -28.3580   38.8450 C   0  0  0  0  0  0  0  0  0  0  0  0
   19.9110  -26.9650   39.1150 C   0  0  0  0  0  0  0  0  0  0  0  0
   20.2490  -26.4920   40.5560 C   0  0  0  0  0  0  0  0  0  0  0  0
   20.1050  -24.9640   40.7400 C   0  0  0  0  0  0  0  0  0  0  0  0
   21.6860  -26.9310   40.9070 C   0  0  0  0  0  0  0  0  0  0  0  0
   19.3230  -27.1110   41.6420 C   0  0  0  0  0  0  0  0  0  0  0  0
   19.7154  -24.2711   39.1295 H   0  0  0  0  0  0  0  0  0  0  0  0
   20.6147  -24.2239   37.5753 H   0  0  0  0  0  0  0  0  0  0  0  0
   18.8188  -24.1881   37.5753 H   0  0  0  0  0  0  0  0  0  0  0  0
   19.1520  -25.9600   35.9131 H   0  0  0  0  0  0  0  0  0  0  0  0
   19.0408  -28.4042   35.5388 H   0  0  0  0  0  0  0  0  0  0  0  0
   18.3595  -32.4275   40.5912 H   0  0  0  0  0  0  0  0  0  0  0  0
   18.1342  -34.9136   40.6612 H   0  0  0  0  0  0  0  0  0  0  0  0
   18.6489  -36.2733   38.6301 H   0  0  0  0  0  0  0  0  0  0  0  0
   19.6110  -34.9720   35.5190 H   0  0  0  0  0  0  0  0  0  0  0  0
   19.9330  -30.6240   34.2540 H   0  0  0  0  0  0  0  0  0  0  0  0
   20.0593  -29.0557   39.6712 H   0  0  0  0  0  0  0  0  0  0  0  0
   20.0824  -24.7245   41.8134 H   0  0  0  0  0  0  0  0  0  0  0  0
   20.9592  -24.4558   40.2688 H   0  0  0  0  0  0  0  0  0  0  0  0
   19.1709  -24.6244   40.2688 H   0  0  0  0  0  0  0  0  0  0  0  0
   21.8018  -26.9664   42.0003 H   0  0  0  0  0  0  0  0  0  0  0  0
   21.8779  -27.9287   40.4855 H   0  0  0  0  0  0  0  0  0  0  0  0
   22.4027  -26.2108   40.4855 H   0  0  0  0  0  0  0  0  0  0  0  0
   19.7066  -26.8545   42.6405 H   0  0  0  0  0  0  0  0  0  0  0  0
   18.3047  -26.7114   41.5267 H   0  0  0  0  0  0  0  0  0  0  0  0
   19.3029  -28.2048   41.5267 H   0  0  0  0  0  0  0  0  0  0  0  0
  1  2  1  0
  2  3  2  0
  3  4  1  0
  4  5  2  0
  5  6  1  0
  6  7  1  0
  7  8  1  0
  8  9  2  0
  9 10  1  0
 10 11  2  0
 11 12  1  0
 12 13  1  0
 12 14  2  0
 14 15  1  0
 15 16  2  0
 15 17  1  0
 17 18  1  0
  5 19  1  0
 19 20  2  0
 20 21  1  0
 21 22  1  0
 21 23  1  0
 21 24  1  0
 20  2  1  0
 17  6  2  0
 14  8  1  0
  1 25  1  0
  1 26  1  0
  1 27  1  0
  3 28  1  0
  4 29  1  0
  9 30  1  0
 10 31  1  0
 11 32  1  0
 13 33  1  0
 18 34  1  0
 19 35  1  0
 22 36  1  0
 22 37  1  0
 22 38  1  0
 23 39  1  0
 23 40  1  0
 23 41  1  0
 24 42  1  0
 24 43  1  0
 24 44  1  0
M  END
>  <meeko>  (3) 
{"is_sidechain": [false], "free_energy": -7.12, "intermolecular_energy": -9.183, "internal_energy": 0.689}

$$$$
cand_027_out
     RDKit          3D

 44 46  0  0  0  0  0  0  0  0999 V2000
   20.3730  -21.4760   49.7420 C   0  0  0  0  0  0  0  0  0  0  0  0
   20.6070  -22.3100   48.5100 C   0  0  0  0  0  0  0  0  0  0  0  0
   20.3600  -23.6930   48.6630 C   0  0  0  0  0  0  0  0  0  0  0  0
   20.5270  -24.5910   47.6130 C   0  0  0  0  0  0  0  0  0  0  0  0
   20.9420  -24.1340   46.3680 C   0  0  0  0  0  0  0  0  0  0  0  0
   21.1470  -25.0560   45.2300 C   0  0  0  0  0  0  0  0  0  0  0  0
   22.3250  -25.7880   45.3330 O   0  0  0  0  0  0  0  0  0  0  0  0
   22.6400  -26.6810   44.3420 C   0  0  0  0  0  0  0  0  0  0  0  0
   23.8260  -27.4020   44.4930 C   0  0  0  0  0  0  0  0  0  0  0  0
   24.2070  -28.3280   43.5180 C   0  0  0  0  0  0  0  0  0  0  0  0
   23.4040  -28.5300   42.3930 C   0  0  0  0  0  0  0  0  0  0  0  0
   22.2220  -27.8090   42.2460 C   0  0  0  0  0  0  0  0  0  0  0  0
   21.4840  -28.0570   41.1210 O   0  0  0  0  0  0  0  0  0  0  0  0
   21.8410  -26.8840   43.2210 C   0  0  0  0  0  0  0  0  0  0  0  0
   20.6080  -26.1060   43.1050 C   0  0  0  0  0  0  0  0  0  0  0  0
   19.8520  -26.2240   42.1420 O   0  0  0  0  0  0  0  0  0  0  0  0
   20.2910  -25.1560   44.1960 C   0  0  0  0  0  0  0  0  0  0  0  0
   19.1310  -24.4150   44.0690 O   0  0  0  0  0  0  0  0  0  0  0  0
   21.2120  -22.7610   46.2170 C   0  0  0  0  0  0  0  0  0  0  0  0
   21.0750  -21.8130   47.2650 C   0  0  0  0  0  0  0  0  0  0  0  0
   21.4030  -20.3220   46.9770 C   0  0  0  0  0  0  0  0  0  0  0  0
   20.2950  -19.3560   47.4550 C   0  0  0  0  0  0  0  0  0  0  0  0
   21.6420  -20.1410   45.4630 C   0  0  0  0  0  0  0  0  0  0  0  0
   22.6950  -19.8260   47.6880 C   0  0  0  0  0  0  0  0  0  0  0  0
   20.5452  -22.0898   50.6384 H   0  0  0  0  0  0  0  0  0  0  0  0
   21.0662  -20.6219   49.7437 H   0  0  0  0  0  0  0  0  0  0  0  0
   19.3367  -21.1072   49.7437 H   0  0  0  0  0  0  0  0  0  0  0  0
   20.0260  -24.0708   49.6406 H   0  0  0  0  0  0  0  0  0  0  0  0
   20.3306  -25.6621   47.7685 H   0  0  0  0  0  0  0  0  0  0  0  0
   24.4595  -27.2415   45.3778 H   0  0  0  0  0  0  0  0  0  0  0  0
   25.1401  -28.8983   43.6366 H   0  0  0  0  0  0  0  0  0  0  0  0
   23.7049  -29.2574   41.6246 H   0  0  0  0  0  0  0  0  0  0  0  0
   21.8690  -28.5160   40.4010 H   0  0  0  0  0  0  0  0  0  0  0  0
   19.1600  -23.4820   44.1500 H   0  0  0  0  0  0  0  0  0  0  0  0
   21.5477  -22.4026   45.2327 H   0  0  0  0  0  0  0  0  0  0  0  0
   20.2739  -19.3376   48.5546 H   0  0  0  0  0  0  0  0  0  0  0  0
   20.5015  -18.3445   47.0753 H   0  0  0  0  0  0  0  0  0  0  0  0
   19.3211  -19.6985   47.0753 H   0  0  0  0  0  0  0  0  0  0  0  0
   22.5098  -19.4838   45.3048 H   0  0  0  0  0  0  0  0  0  0  0  0
   21.8355  -21.1211   45.0026 H   0  0  0  0  0  0  0  0  0  0  0  0
   20.7510  -19.6891   45.0026 H   0  0  0  0  0  0  0  0  0  0  0  0
   22.5570  -19.8790   48.7780 H   0  0  0  0  0  0  0  0  0  0  0  0
   23.5426  -20.4627   47.3943 H   0  0  0  0  0  0  0  0  0  0  0  0
   22.8988  -18.7857   47.3943 H   0  0  0  0  0  0  0  0  0  0  0  0
  1  2  1  0
  2  3  2  0
  3  4  1  0
  4  5  2  0
  5  6  1  0
  6  7  1  0
  7  8  1  0
  8  9  2  0
  9 10  1  0
 10 11  2  0
 11 12  1  0
 12 13  1  0
 12 14  2  0
 14 15  1  0
 15 16  2  0
 15 17  1  0
 17 18  1  0
  5 19  1  0
 19 20  2  0
 20 21  1  0
 21 22  1  0
 21 23  1  0
 21 24  1  0
 20  2  1  0
 17  6  2  0
 14  8  1  0
  1 25  1  0
  1 26  1  0
  1 27  1  0
  3 28  1  0
  4 29  1  0
  9 30  1  0
 10 31  1  0
 11 32  1  0
 13 33  1  0
 18 34  1  0
 19 35  1  0
 22 36  1  0
 22 37  1  0
 22 38  1  0
 23 39  1  0
 23 40  1  0
 23 41  1  0
 24 42  1  0
 24 43  1  0
 24 44  1  0
M  END
>  <meeko>  (4) 
{"is_sidechain": [false], "free_energy": -6.957, "intermolecular_energy": -8.075, "internal_energy": -0.228}

$$$$
cand_027_out
     RDKit          3D

 44 46  0  0  0  0  0  0  0  0999 V2000
   17.3110  -27.2020   36.2930 C   0  0  0  0  0  0  0  0  0  0  0  0
   18.1210  -26.9740   37.5410 C   0  0  0  0  0  0  0  0  0  0  0  0
   18.3980  -28.1330   38.3000 C   0  0  0  0  0  0  0  0  0  0  0  0
   19.1400  -28.0820   39.4760 C   0  0  0  0  0  0  0  0  0  0  0  0
   19.6380  -26.8680   39.9330 C   0  0  0  0  0  0  0  0  0  0  0  0
   20.4170  -26.7680   41.1850 C   0  0  0  0  0  0  0  0  0  0  0  0
   21.5010  -27.6390   41.2180 O   0  0  0  0  0  0  0  0  0  0  0  0
   22.3090  -27.6500   42.3260 C   0  0  0  0  0  0  0  0  0  0  0  0
   23.3910  -28.5310   42.3110 C   0  0  0  0  0  0  0  0  0  0  0  0
   24.2530  -28.5940   43.4090 C   0  0  0  0  0  0  0  0  0  0  0  0
   24.0310  -27.7790   44.5210 C   0  0  0  0  0  0  0  0  0  0  0  0
   22.9500  -26.9020   44.5320 C   0  0  0  0  0  0  0  0  0  0  0  0
   22.7910  -26.1330   45.6540 O   0  0  0  0  0  0  0  0  0  0  0  0
   22.0890  -26.8380   43.4340 C   0  0  0  0  0  0  0  0  0  0  0  0
   20.9410  -25.9310   43.4070 C   0  0  0  0  0  0  0  0  0  0  0  0
   20.6770  -25.1870   44.3490 O   0  0  0  0  0  0  0  0  0  0  0  0
   20.0930  -25.9360   42.1920 C   0  0  0  0  0  0  0  0  0  0  0  0
   19.0030  -25.0850   42.1820 O   0  0  0  0  0  0  0  0  0  0  0  0
   19.3440  -25.7070   39.1930 C   0  0  0  0  0  0  0  0  0  0  0  0
   18.5740  -25.7090   38.0000 C   0  0  0  0  0  0  0  0  0  0  0  0
   18.3170  -24.3610   37.2710 C   0  0  0  0  0  0  0  0  0  0  0  0
   18.4140  -24.4780   35.7320 C   0  0  0  0  0  0  0  0  0  0  0  0
   19.3230  -23.3100   37.7830 C   0  0  0  0  0  0  0  0  0  0  0  0
   16.8990  -23.7780   37.5350 C   0  0  0  0  0  0  0  0  0  0  0  0
   16.2860  -27.4905   36.5688 H   0  0  0  0  0  0  0  0  0  0  0  0
   17.2842  -26.2765   35.6991 H   0  0  0  0  0  0  0  0  0  0  0  0
   17.7709  -28.0056   35.6991 H   0  0  0  0  0  0  0  0  0  0  0  0
   18.0160  -29.1038   37.9512 H   0  0  0  0  0  0  0  0  0  0  0  0
   19.3325  -29.0038   40.0445 H   0  0  0  0  0  0  0  0  0  0  0  0
   23.5651  -29.1748   41.4363 H   0  0  0  0  0  0  0  0  0  0  0  0
   25.1076  -29.2865   43.3974 H   0  0  0  0  0  0  0  0  0  0  0  0
   24.7086  -27.8299   45.3860 H   0  0  0  0  0  0  0  0  0  0  0  0
   23.5320  -25.9260   46.1880 H   0  0  0  0  0  0  0  0  0  0  0  0
   19.0990  -24.2050   41.8760 H   0  0  0  0  0  0  0  0  0  0  0  0
   19.7322  -24.7452   39.5592 H   0  0  0  0  0  0  0  0  0  0  0  0
   19.0957  -25.3003   35.4690 H   0  0  0  0  0  0  0  0  0  0  0  0
   17.4162  -24.6817   35.3161 H   0  0  0  0  0  0  0  0  0  0  0  0
   18.7991  -23.5352   35.3161 H   0  0  0  0  0  0  0  0  0  0  0  0
   19.3241  -23.3089   38.8830 H   0  0  0  0  0  0  0  0  0  0  0  0
   20.3300  -23.5568   37.4156 H   0  0  0  0  0  0  0  0  0  0  0  0
   19.0324  -22.3147   37.4156 H   0  0  0  0  0  0  0  0  0  0  0  0
   16.7276  -23.7075   38.6193 H   0  0  0  0  0  0  0  0  0  0  0  0
   16.8249  -22.7765   37.0862 H   0  0  0  0  0  0  0  0  0  0  0  0
   16.1419  -24.4378   37.0862 H   0  0  0  0  0  0  0  0  0  0  0  0
  1  2  1  0
  2  3  2  0
  3  4  1  0
  4  5  2  0
  5  6  1  0
  6  7  1  0
  7  8  1  0
  8  9  2  0
  9 10  1  0
 10 11  2  0
 11 12  1  0
 12 13  1  0
 12 14  2  0
 14 15  1  0
 15 16  2  0
 15 17  1  0
 17 18  1  0
  5 19  1  0
 19 20  2  0
 20 21  1  0
 21 22  1  0
 21 23  1  0
 21 24  1  0
 20  2  1  0
 17  6  2  0
 14  8  1  0
  1 25  1  0
  1 26  1  0
  1 27  1  0
  3 28  1  0
  4 29  1  0
  9 30  1  0
 10 31  1  0
 11 32  1  0
 13 33  1  0
 18 34  1  0
 19 35  1  0
 22 36  1  0
 22 37  1  0
 22 38  1  0
 23 39  1  0
 23 40  1  0
 23 41  1  0
 24 42  1  0
 24 43  1  0
 24 44  1  0
M  END
>  <meeko>  (5) 
{"is_sidechain": [false], "free_energy": -6.814, "intermolecular_energy": -8.234, "internal_energy": 0.099}

$$$$
cand_027_out
     RDKit          3D

 44 46  0  0  0  0  0  0  0  0999 V2000
   19.3890  -23.9120   40.2170 C   0  0  0  0  0  0  0  0  0  0  0  0
   19.4270  -25.2000   39.4370 C   0  0  0  0  0  0  0  0  0  0  0  0
   19.9850  -26.3030   40.1200 C   0  0  0  0  0  0  0  0  0  0  0  0
   20.0830  -27.5600   39.5320 C   0  0  0  0  0  0  0  0  0  0  0  0
   19.6200  -27.7600   38.2380 C   0  0  0  0  0  0  0  0  0  0  0  0
   19.7200  -29.0750   37.5700 C   0  0  0  0  0  0  0  0  0  0  0  0
   19.9260  -28.9700   36.1980 O   0  0  0  0  0  0  0  0  0  0  0  0
   20.0350  -30.1170   35.4540 C   0  0  0  0  0  0  0  0  0  0  0  0
   20.2540  -29.9650   34.0850 C   0  0  0  0  0  0  0  0  0  0  0  0
   20.3730  -31.0920   33.2680 C   0  0  0  0  0  0  0  0  0  0  0  0
   20.2730  -32.3710   33.8220 C   0  0  0  0  0  0  0  0  0  0  0  0
   20.0550  -32.5190   35.1890 C   0  0  0  0  0  0  0  0  0  0  0  0
   19.9670  -33.7990   35.6640 O   0  0  0  0  0  0  0  0  0  0  0  0
   19.9370  -31.3910   36.0050 C   0  0  0  0  0  0  0  0  0  0  0  0
   19.7070  -31.5030   37.4460 C   0  0  0  0  0  0  0  0  0  0  0  0
   19.6020  -32.5920   38.0050 O   0  0  0  0  0  0  0  0  0  0  0  0
   19.6020  -30.2460   38.2230 C   0  0  0  0  0  0  0  0  0  0  0  0
   19.3710  -30.3630   39.5810 O   0  0  0  0  0  0  0  0  0  0  0  0
   19.0850  -26.6580   37.5440 C   0  0  0  0  0  0  0  0  0  0  0  0
   18.9850  -25.3540   38.0960 C   0  0  0  0  0  0  0  0  0  0  0  0
   18.3740  -24.2170   37.2310 C   0  0  0  0  0  0  0  0  0  0  0  0
   17.0250  -23.6980   37.7790 C   0  0  0  0  0  0  0  0  0  0  0  0
   18.1950  -24.7240   35.7850 C   0  0  0  0  0  0  0  0  0  0  0  0
   19.2790  -22.9540   37.1450 C   0  0  0  0  0  0  0  0  0  0  0  0
   19.3956  -24.1353   41.2941 H   0  0  0  0  0  0  0  0  0  0  0  0
   20.2696  -23.3036   39.9633 H   0  0  0  0  0  0  0  0  0  0  0  0
   18.4741  -23.3565   39.9633 H   0  0  0  0  0  0  0  0  0  0  0  0
   20.3530  -26.1641   41.1473 H   0  0  0  0  0  0  0  0  0  0  0  0
   20.5274  -28.3959   40.0922 H   0  0  0  0  0  0  0  0  0  0  0  0
   20.3330  -28.9583   33.6488 H   0  0  0  0  0  0  0  0  0  0  0  0
   20.5455  -30.9725   32.1882 H   0  0  0  0  0  0  0  0  0  0  0  0
   20.3663  -33.2589   33.1794 H   0  0  0  0  0  0  0  0  0  0  0  0
   20.1720  -33.9810   36.5600 H   0  0  0  0  0  0  0  0  0  0  0  0
   19.9930  -30.8040   40.1250 H   0  0  0  0  0  0  0  0  0  0  0  0
   18.7244  -26.8163   36.5169 H   0  0  0  0  0  0  0  0  0  0  0  0
   17.0482  -23.7069   38.8787 H   0  0  0  0  0  0  0  0  0  0  0  0
   16.8559  -22.6706   37.4241 H   0  0  0  0  0  0  0  0  0  0  0  0
   16.2109  -24.3471   37.4241 H   0  0  0  0  0  0  0  0  0  0  0  0
   17.8288  -25.7611   35.8028 H   0  0  0  0  0  0  0  0  0  0  0  0
   17.4674  -24.0872   35.2606 H   0  0  0  0  0  0  0  0  0  0  0  0
   19.1612  -24.6852   35.2606 H   0  0  0  0  0  0  0  0  0  0  0  0
   19.5256  -22.6098   38.1602 H   0  0  0  0  0  0  0  0  0  0  0  0
   20.2056  -23.2028   36.6070 H   0  0  0  0  0  0  0  0  0  0  0  0
   18.7455  -22.1566   36.6070 H   0  0  0  0  0  0  0  0  0  0  0  0
  1  2  1  0
  2  3  2  0
  3  4  1  0
  4  5  2  0
  5  6  1  0
  6  7  1  0
  7  8  1  0
  8  9  2  0
  9 10  1  0
 10 11  2  0
 11 12  1  0
 12 13  1  0
 12 14  2  0
 14 15  1  0
 15 16  2  0
 15 17  1  0
 17 18  1  0
  5 19  1  0
 19 20  2  0
 20 21  1  0
 21 22  1  0
 21 23  1  0
 21 24  1  0
 20  2  1  0
 17  6  2  0
 14  8  1  0
  1 25  1  0
  1 26  1  0
  1 27  1  0
  3 28  1  0
  4 29  1  0
  9 30  1  0
 10 31  1  0
 11 32  1  0
 13 33  1  0
 18 34  1  0
 19 35  1  0
 22 36  1  0
 22 37  1  0
 22 38  1  0
 23 39  1  0
 23 40  1  0
 23 41  1  0
 24 42  1  0
 24 43  1  0
 24 44  1  0
M  END
>  <meeko>  (6) 
{"is_sidechain": [false], "free_energy": -6.754, "intermolecular_energy": -8.183, "internal_energy": 0.119}

$$$$
cand_027_out
     RDKit          3D

 44 46  0  0  0  0  0  0  0  0999 V2000
   19.2860  -24.0670   37.4660 C   0  0  0  0  0  0  0  0  0  0  0  0
   19.2930  -24.1210   38.9710 C   0  0  0  0  0  0  0  0  0  0  0  0
   19.3000  -22.8650   39.6190 C   0  0  0  0  0  0  0  0  0  0  0  0
   19.3020  -22.7530   41.0060 C   0  0  0  0  0  0  0  0  0  0  0  0
   19.2900  -23.8960   41.7960 C   0  0  0  0  0  0  0  0  0  0  0  0
   19.3080  -23.8210   43.2720 C   0  0  0  0  0  0  0  0  0  0  0  0
   20.4830  -24.3190   43.8240 O   0  0  0  0  0  0  0  0  0  0  0  0
   20.6310  -24.3120   45.1870 C   0  0  0  0  0  0  0  0  0  0  0  0
   21.8310  -24.8100   45.6970 C   0  0  0  0  0  0  0  0  0  0  0  0
   22.0450  -24.8330   47.0770 C   0  0  0  0  0  0  0  0  0  0  0  0
   21.0600  -24.3590   47.9460 C   0  0  0  0  0  0  0  0  0  0  0  0
   19.8640  -23.8630   47.4350 C   0  0  0  0  0  0  0  0  0  0  0  0
   18.9430  -23.4160   48.3420 O   0  0  0  0  0  0  0  0  0  0  0  0
   19.6500  -23.8390   46.0540 C   0  0  0  0  0  0  0  0  0  0  0  0
   18.4080  -23.3270   45.4760 C   0  0  0  0  0  0  0  0  0  0  0  0
   17.4920  -22.8990   46.1750 O   0  0  0  0  0  0  0  0  0  0  0  0
   18.2820  -23.3410   44.0000 C   0  0  0  0  0  0  0  0  0  0  0  0
   17.0990  -22.8680   43.4640 O   0  0  0  0  0  0  0  0  0  0  0  0
   19.3080  -25.1490   41.1550 C   0  0  0  0  0  0  0  0  0  0  0  0
   19.3280  -25.3110   39.7440 C   0  0  0  0  0  0  0  0  0  0  0  0
   19.3450  -26.7480   39.1540 C   0  0  0  0  0  0  0  0  0  0  0  0
   17.9330  -27.2830   38.8230 C   0  0  0  0  0  0  0  0  0  0  0  0
   20.0470  -27.6950   40.1500 C   0  0  0  0  0  0  0  0  0  0  0  0
   20.1330  -26.8550   37.8170 C   0  0  0  0  0  0  0  0  0  0  0  0
   19.1511  -23.0260   37.1371 H   0  0  0  0  0  0  0  0  0  0  0  0
   20.2416  -24.4523   37.0808 H   0  0  0  0  0  0  0  0  0  0  0  0
   18.4602  -24.6832   37.0808 H   0  0  0  0  0  0  0  0  0  0  0  0
   19.3040  -21.9495   39.0093 H   0  0  0  0  0  0  0  0  0  0  0  0
   19.3131  -21.7591   41.4773 H   0  0  0  0  0  0  0  0  0  0  0  0
   22.6071  -25.1839   45.0130 H   0  0  0  0  0  0  0  0  0  0  0  0
   22.9906  -25.2250   47.4798 H   0  0  0  0  0  0  0  0  0  0  0  0
   21.2290  -24.3776   49.0328 H   0  0  0  0  0  0  0  0  0  0  0  0
   18.9750  -23.7170   49.2290 H   0  0  0  0  0  0  0  0  0  0  0  0
   16.5100  -22.3700   43.9960 H   0  0  0  0  0  0  0  0  0  0  0  0
   19.3065  -26.0531   41.7816 H   0  0  0  0  0  0  0  0  0  0  0  0
   17.3904  -27.4886   39.7575 H   0  0  0  0  0  0  0  0  0  0  0  0
   17.3837  -26.5307   38.2380 H   0  0  0  0  0  0  0  0  0  0  0  0
   18.0201  -28.2104   38.2380 H   0  0  0  0  0  0  0  0  0  0  0  0
   19.8152  -27.3823   41.1788 H   0  0  0  0  0  0  0  0  0  0  0  0
   19.6916  -28.7237   39.9906 H   0  0  0  0  0  0  0  0  0  0  0  0
   21.1346  -27.6540   39.9906 H   0  0  0  0  0  0  0  0  0  0  0  0
   21.2020  -27.0002   38.0320 H   0  0  0  0  0  0  0  0  0  0  0  0
   19.7563  -27.7102   37.2368 H   0  0  0  0  0  0  0  0  0  0  0  0
   19.9980  -25.9303   37.2368 H   0  0  0  0  0  0  0  0  0  0  0  0
  1  2  1  0
  2  3  2  0
  3  4  1  0
  4  5  2  0
  5  6  1  0
  6  7  1  0
  7  8  1  0
  8  9  2  0
  9 10  1  0
 10 11  2  0
 11 12  1  0
 12 13  1  0
 12 14  2  0
 14 15  1  0
 15 16  2  0
 15 17  1  0
 17 18  1  0
  5 19  1  0
 19 20  2  0
 20 21  1  0
 21 22  1  0
 21 23  1  0
 21 24  1  0
 20  2  1  0
 17  6  2  0
 14  8  1  0
  1 25  1  0
  1 26  1  0
  1 27  1  0
  3 28  1  0
  4 29  1  0
  9 30  1  0
 10 31  1  0
 11 32  1  0
 13 33  1  0
 18 34  1  0
 19 35  1  0
 22 36  1  0
 22 37  1  0
 22 38  1  0
 23 39  1  0
 23 40  1  0
 23 41  1  0
 24 42  1  0
 24 43  1  0
 24 44  1  0
M  END
>  <meeko>  (7) 
{"is_sidechain": [false], "free_energy": -6.706, "intermolecular_energy": -7.985, "internal_energy": -0.023}

$$$$
cand_027_out
     RDKit          3D

 44 46  0  0  0  0  0  0  0  0999 V2000
   18.7750  -22.3090   47.2390 C   0  0  0  0  0  0  0  0  0  0  0  0
   19.0220  -22.9180   45.8840 C   0  0  0  0  0  0  0  0  0  0  0  0
   18.0550  -22.6140   44.9010 C   0  0  0  0  0  0  0  0  0  0  0  0
   18.1490  -23.1000   43.6010 C   0  0  0  0  0  0  0  0  0  0  0  0
   19.2210  -23.9040   43.2350 C   0  0  0  0  0  0  0  0  0  0  0  0
   19.3510  -24.4550   41.8690 C   0  0  0  0  0  0  0  0  0  0  0  0
   19.3360  -25.8450   41.8430 O   0  0  0  0  0  0  0  0  0  0  0  0
   19.4510  -26.4870   40.6370 C   0  0  0  0  0  0  0  0  0  0  0  0
   19.4190  -27.8820   40.6570 C   0  0  0  0  0  0  0  0  0  0  0  0
   19.5330  -28.5980   39.4630 C   0  0  0  0  0  0  0  0  0  0  0  0
   19.6800  -27.9200   38.2510 C   0  0  0  0  0  0  0  0  0  0  0  0
   19.7110  -26.5280   38.2350 C   0  0  0  0  0  0  0  0  0  0  0  0
   19.8580  -25.9280   37.0140 O   0  0  0  0  0  0  0  0  0  0  0  0
   19.5970  -25.8120   39.4290 C   0  0  0  0  0  0  0  0  0  0  0  0
   19.6250  -24.3500   39.4560 C   0  0  0  0  0  0  0  0  0  0  0  0
   19.7570  -23.6820   38.4320 O   0  0  0  0  0  0  0  0  0  0  0  0
   19.4900  -23.6850   40.7730 C   0  0  0  0  0  0  0  0  0  0  0  0
   19.5330  -22.3040   40.7900 O   0  0  0  0  0  0  0  0  0  0  0  0
   20.1750  -24.2300   44.2180 C   0  0  0  0  0  0  0  0  0  0  0  0
   20.1080  -23.7740   45.5610 C   0  0  0  0  0  0  0  0  0  0  0  0
   21.2230  -24.2010   46.5550 C   0  0  0  0  0  0  0  0  0  0  0  0
   22.0600  -23.0080   47.0720 C   0  0  0  0  0  0  0  0  0  0  0  0
   22.1430  -25.2320   45.8700 C   0  0  0  0  0  0  0  0  0  0  0  0
   20.6750  -24.8860   47.8400 C   0  0  0  0  0  0  0  0  0  0  0  0
   19.0656  -23.0254   48.0215 H   0  0  0  0  0  0  0  0  0  0  0  0
   19.3718  -21.3908   47.3426 H   0  0  0  0  0  0  0  0  0  0  0  0
   17.7072  -22.0659   47.3426 H   0  0  0  0  0  0  0  0  0  0  0  0
   17.2022  -21.9740   45.1712 H   0  0  0  0  0  0  0  0  0  0  0  0
   17.3740  -22.8475   42.8624 H   0  0  0  0  0  0  0  0  0  0  0  0
   19.3042  -28.4168   41.6113 H   0  0  0  0  0  0  0  0  0  0  0  0
   19.5069  -29.6976   39.4775 H   0  0  0  0  0  0  0  0  0  0  0  0
   19.7711  -28.4843   37.3112 H   0  0  0  0  0  0  0  0  0  0  0  0
   19.8800  -26.4490   36.2360 H   0  0  0  0  0  0  0  0  0  0  0  0
   19.9120  -21.8390   40.0700 H   0  0  0  0  0  0  0  0  0  0  0  0
   21.0190  -24.8737   43.9295 H   0  0  0  0  0  0  0  0  0  0  0  0
   22.0593  -23.0090   48.1720 H   0  0  0  0  0  0  0  0  0  0  0  0
   23.0933  -23.0990   46.7059 H   0  0  0  0  0  0  0  0  0  0  0  0
   21.6228  -22.0673   46.7059 H   0  0  0  0  0  0  0  0  0  0  0  0
   22.6684  -25.8208   46.6363 H   0  0  0  0  0  0  0  0  0  0  0  0
   21.5383  -25.9033   45.2426 H   0  0  0  0  0  0  0  0  0  0  0  0
   22.8785  -24.7073   45.2426 H   0  0  0  0  0  0  0  0  0  0  0  0
   21.0809  -24.3786   48.7276 H   0  0  0  0  0  0  0  0  0  0  0  0
   19.5770  -24.8208   47.8505 H   0  0  0  0  0  0  0  0  0  0  0  0
   20.9797  -25.9429   47.8505 H   0  0  0  0  0  0  0  0  0  0  0  0
  1  2  1  0
  2  3  2  0
  3  4  1  0
  4  5  2  0
  5  6  1  0
  6  7  1  0
  7  8  1  0
  8  9  2  0
  9 10  1  0
 10 11  2  0
 11 12  1  0
 12 13  1  0
 12 14  2  0
 14 15  1  0
 15 16  2  0
 15 17  1  0
 17 18  1  0
  5 19  1  0
 19 20  2  0
 20 21  1  0
 21 22  1  0
 21 23  1  0
 21 24  1  0
 20  2  1  0
 17  6  2  0
 14  8  1  0
  1 25  1  0
  1 26  1  0
  1 27  1  0
  3 28  1  0
  4 29  1  0
  9 30  1  0
 10 31  1  0
 11 32  1  0
 13 33  1  0
 18 34  1  0
 19 35  1  0
 22 36  1  0
 22 37  1  0
 22 38  1  0
 23 39  1  0
 23 40  1  0
 23 41  1  0
 24 42  1  0
 24 43  1  0
 24 44  1  0
M  END
>  <meeko>  (8) 
{"is_sidechain": [false], "free_energy": -6.668, "intermolecular_energy": -7.77, "internal_energy": -0.192}

$$$$
cand_027_out
     RDKit          3D

 44 46  0  0  0  0  0  0  0  0999 V2000
   18.6030  -22.3000   47.2180 C   0  0  0  0  0  0  0  0  0  0  0  0
   18.9380  -22.9270   45.8910 C   0  0  0  0  0  0  0  0  0  0  0  0
   18.0280  -22.6510   44.8460 C   0  0  0  0  0  0  0  0  0  0  0  0
   18.2050  -23.1560   43.5620 C   0  0  0  0  0  0  0  0  0  0  0  0
   19.3060  -23.9530   43.2750 C   0  0  0  0  0  0  0  0  0  0  0  0
   19.5250  -24.5240   41.9290 C   0  0  0  0  0  0  0  0  0  0  0  0
   18.9290  -23.7730   40.9210 O   0  0  0  0  0  0  0  0  0  0  0  0
   19.0520  -24.1910   39.6210 C   0  0  0  0  0  0  0  0  0  0  0  0
   18.4490  -23.4010   38.6420 C   0  0  0  0  0  0  0  0  0  0  0  0
   18.5340  -23.7710   37.2980 C   0  0  0  0  0  0  0  0  0  0  0  0
   19.2210  -24.9320   36.9340 C   0  0  0  0  0  0  0  0  0  0  0  0
   19.8220  -25.7180   37.9130 C   0  0  0  0  0  0  0  0  0  0  0  0
   20.4780  -26.8400   37.4870 O   0  0  0  0  0  0  0  0  0  0  0  0
   19.7370  -25.3470   39.2580 C   0  0  0  0  0  0  0  0  0  0  0  0
   20.3530  -26.1450   40.3180 C   0  0  0  0  0  0  0  0  0  0  0  0
   20.9690  -27.1810   40.0770 O   0  0  0  0  0  0  0  0  0  0  0  0
   20.2100  -25.6620   41.7110 C   0  0  0  0  0  0  0  0  0  0  0  0
   20.7840  -26.4300   42.7060 O   0  0  0  0  0  0  0  0  0  0  0  0
   20.2030  -24.2520   44.3180 C   0  0  0  0  0  0  0  0  0  0  0  0
   20.0500  -23.7750   45.6470 C   0  0  0  0  0  0  0  0  0  0  0  0
   21.1080  -24.1730   46.7140 C   0  0  0  0  0  0  0  0  0  0  0  0
   21.8870  -22.9610   47.2730 C   0  0  0  0  0  0  0  0  0  0  0  0
   22.0900  -25.1910   46.0970 C   0  0  0  0  0  0  0  0  0  0  0  0
   20.4920  -24.8600   47.9670 C   0  0  0  0  0  0  0  0  0  0  0  0
   18.9522  -22.9536   48.0309 H   0  0  0  0  0  0  0  0  0  0  0  0
   19.0982  -21.3209   47.2963 H   0  0  0  0  0  0  0  0  0  0  0  0
   17.5138  -22.1674   47.2963 H   0  0  0  0  0  0  0  0  0  0  0  0
   17.1531  -22.0176   45.0541 H   0  0  0  0  0  0  0  0  0  0  0  0
   17.4733  -22.9243   42.7740 H   0  0  0  0  0  0  0  0  0  0  0  0
   17.9071  -22.4876   38.9283 H   0  0  0  0  0  0  0  0  0  0  0  0
   18.0598  -23.1480   36.5254 H   0  0  0  0  0  0  0  0  0  0  0  0
   19.2868  -25.2243   35.8756 H   0  0  0  0  0  0  0  0  0  0  0  0
   20.8150  -27.4510   38.1110 H   0  0  0  0  0  0  0  0  0  0  0  0
   20.2560  -27.0270   43.1990 H   0  0  0  0  0  0  0  0  0  0  0  0
   21.0699  -24.8900   44.0912 H   0  0  0  0  0  0  0  0  0  0  0  0
   21.8690  -22.9890   48.3725 H   0  0  0  0  0  0  0  0  0  0  0  0
   22.9288  -23.0013   46.9222 H   0  0  0  0  0  0  0  0  0  0  0  0
   21.4177  -22.0300   46.9222 H   0  0  0  0  0  0  0  0  0  0  0  0
   22.6112  -25.7313   46.9010 H   0  0  0  0  0  0  0  0  0  0  0  0
   21.5330  -25.9072   45.4751 H   0  0  0  0  0  0  0  0  0  0  0  0
   22.8258  -24.6601   45.4751 H   0  0  0  0  0  0  0  0  0  0  0  0
   20.9043  -24.4001   48.8772 H   0  0  0  0  0  0  0  0  0  0  0  0
   19.3994  -24.7332   47.9548 H   0  0  0  0  0  0  0  0  0  0  0  0
   20.7368  -25.9323   47.9548 H   0  0  0  0  0  0  0  0  0  0  0  0
  1  2  1  0
  2  3  2  0
  3  4  1  0
  4  5  2  0
  5  6  1  0
  6  7  1  0
  7  8  1  0
  8  9  2  0
  9 10  1  0
 10 11  2  0
 11 12  1  0
 12 13  1  0
 12 14  2  0
 14 15  1  0
 15 16  2  0
 15 17  1  0
 17 18  1  0
  5 19  1  0
 19 20  2  0
 20 21  1  0
 21 22  1  0
 21 23  1  0
 21 24  1  0
 20  2  1  0
 17  6  2  0
 14  8  1  0
  1 25  1  0
  1 26  1  0
  1 27  1  0
  3 28  1  0
  4 29  1  0
  9 30  1  0
 10 31  1  0
 11 32  1  0
 13 33  1  0
 18 34  1  0
 19 35  1  0
 22 36  1  0
 22 37  1  0
 22 38  1  0
 23 39  1  0
 23 40  1  0
 23 41  1  0
 24 42  1  0
 24 43  1  0
 24 44  1  0
M  END
>  <meeko>  (9) 
{"is_sidechain": [false], "free_energy": -6.557, "intermolecular_energy": -8.084, "internal_energy": 0.252}

$$$$
