cand_029_out
     RDKit          3D

 50 53  0  0  0  0  0  0  0  0999 V2000
   21.9160  -27.7320   42.6600 C   0  0  0  0  0  0  0  0  0  0  0  0
   21.9710  -27.2010   41.2350 C   0  0  0  0  0  0  0  0  0  0  0  0
   20.7090  -27.5140   40.4630 C   0  0  0  0  0  0  0  0  0  0  0  0
   20.6050  -28.7570   39.8090 C   0  0  0  0  0  0  0  0  0  0  0  0
   19.4720  -29.1010   39.0570 C   0  0  0  0  0  0  0  0  0  0  0  0
   19.3920  -30.4280   38.4120 C   0  0  0  0  0  0  0  0  0  0  0  0
   19.0330  -31.4390   39.2970 O   0  0  0  0  0  0  0  0  0  0  0  0
   18.9230  -32.7240   38.8310 C   0  0  0  0  0  0  0  0  0  0  0  0
   18.5490  -33.7030   39.7510 C   0  0  0  0  0  0  0  0  0  0  0  0
   18.4210  -35.0310   39.3420 C   0  0  0  0  0  0  0  0  0  0  0  0
   18.6670  -35.3810   38.0120 C   0  0  0  0  0  0  0  0  0  0  0  0
   19.0400  -34.4010   37.0950 C   0  0  0  0  0  0  0  0  0  0  0  0
   19.2660  -34.8130   35.8100 O   0  0  0  0  0  0  0  0  0  0  0  0
   19.1680  -33.0720   37.5060 C   0  0  0  0  0  0  0  0  0  0  0  0
   19.5590  -32.0110   36.5750 C   0  0  0  0  0  0  0  0  0  0  0  0
   19.7980  -32.2410   35.3910 O   0  0  0  0  0  0  0  0  0  0  0  0
   19.6590  -30.6340   37.1090 C   0  0  0  0  0  0  0  0  0  0  0  0
   20.0420  -29.6430   36.2230 O   0  0  0  0  0  0  0  0  0  0  0  0
   18.4260  -28.1780   38.9810 C   0  0  0  0  0  0  0  0  0  0  0  0
   18.5190  -26.9360   39.6170 C   0  0  0  0  0  0  0  0  0  0  0  0
   19.6570  -26.5820   40.3570 C   0  0  0  0  0  0  0  0  0  0  0  0
   19.7680  -25.3340   41.0070 N   0  0  0  0  0  0  0  0  0  0  0  0
   19.2450  -24.2120   40.2120 C   0  0  0  0  0  0  0  0  0  0  0  0
   19.6360  -22.8980   40.8910 C   0  0  0  0  0  0  0  0  0  0  0  0
   19.1460  -22.8590   42.3380 C   0  0  0  0  0  0  0  0  0  0  0  0
   19.6190  -24.0920   43.1070 C   0  0  0  0  0  0  0  0  0  0  0  0
   19.2390  -25.3820   42.3790 C   0  0  0  0  0  0  0  0  0  0  0  0
   22.0028  -26.8939   43.3672 H   0  0  0  0  0  0  0  0  0  0  0  0
   20.9594  -28.2504   42.8215 H   0  0  0  0  0  0  0  0  0  0  0  0
   22.7461  -28.4355   42.8215 H   0  0  0  0  0  0  0  0  0  0  0  0
   22.1054  -26.1097   41.2679 H   0  0  0  0  0  0  0  0  0  0  0  0
   22.8121  -27.6911   40.7228 H   0  0  0  0  0  0  0  0  0  0  0  0
   21.4333  -29.4763   39.8900 H   0  0  0  0  0  0  0  0  0  0  0  0
   18.3550  -33.4286   40.7984 H   0  0  0  0  0  0  0  0  0  0  0  0
   18.1260  -35.8033   40.0677 H   0  0  0  0  0  0  0  0  0  0  0  0
   18.5664  -36.4279   37.6897 H   0  0  0  0  0  0  0  0  0  0  0  0
   20.0490  -34.5530   35.3650 H   0  0  0  0  0  0  0  0  0  0  0  0
   20.4280  -28.8520   36.5440 H   0  0  0  0  0  0  0  0  0  0  0  0
   17.5181  -28.4313   38.4139 H   0  0  0  0  0  0  0  0  0  0  0  0
   17.6847  -26.2237   39.5355 H   0  0  0  0  0  0  0  0  0  0  0  0
   19.6732  -24.2459   39.1993 H   0  0  0  0  0  0  0  0  0  0  0  0
   18.1495  -24.2836   40.1424 H   0  0  0  0  0  0  0  0  0  0  0  0
   20.7316  -22.8001   40.8800 H   0  0  0  0  0  0  0  0  0  0  0  0
   19.1680  -22.0681   40.3413 H   0  0  0  0  0  0  0  0  0  0  0  0
   19.5400  -21.9561   42.8275 H   0  0  0  0  0  0  0  0  0  0  0  0
   18.0461  -22.8461   42.3365 H   0  0  0  0  0  0  0  0  0  0  0  0
   20.7130  -24.0498   43.2134 H   0  0  0  0  0  0  0  0  0  0  0  0
   19.1313  -24.0938   44.0930 H   0  0  0  0  0  0  0  0  0  0  0  0
   19.6686  -26.2446   42.9095 H   0  0  0  0  0  0  0  0  0  0  0  0
   18.1440  -25.4829   42.3508 H   0  0  0  0  0  0  0  0  0  0  0  0
  1  2  1  0
  2  3  1  0
  3  4  2  0
  4  5  1  0
  5  6  1  0
  6  7  1  0
  7  8  1  0
  8  9  2  0
  9 10  1  0
 10 11  2  0
 11 12  1  0
 12 13  1  0
 12 14  2  0
 14 15  1  0
 15 16  2  0
 15 17  1  0
 17 18  1  0
  5 19  2  0
 19 20  1  0
 20 21  2  0
 21 22  1  0
 22 23  1  0
 23 24  1  0
 24 25  1  0
 25 26  1  0
 26 27  1  0
 21  3  1  0
 27 22  1  0
 17  6  2  0
 14  8  1  0
  1 28  1  0
  1 29  1  0
  1 30  1  0
  2 31  1  0
  2 32  1  0
  4 33  1  0
  9 34  1  0
 10 35  1  0
 11 36  1  0
 13 37  1  0
 18 38  1  0
 19 39  1  0
 20 40  1  0
 23 41  1  0
 23 42  1  0
 24 43  1  0
 24 44  1  0
 25 45  1  0
 25 46  1  0
 26 47  1  0
 26 48  1  0
 27 49  1  0
 27 50  1  0
M  END
>  <meeko>  (1) 
{"is_sidechain": [false], "free_energy": -7.966, "intermolecular_energy": -9.829, "internal_energy": -0.79}

$$$$
cand_029_out
     RDKit          3D

 50 53  0  0  0  0  0  0  0  0999 V2000
   18.6560  -33.2430   39.7360 C   0  0  0  0  0  0  0  0  0  0  0  0
   19.4590  -33.2610   38.4430 C   0  0  0  0  0  0  0  0  0  0  0  0
   19.5850  -31.8830   37.8340 C   0  0  0  0  0  0  0  0  0  0  0  0
   19.3930  -30.7570   38.6590 C   0  0  0  0  0  0  0  0  0  0  0  0
   19.4730  -29.4510   38.1520 C   0  0  0  0  0  0  0  0  0  0  0  0
   19.2950  -28.2980   39.0590 C   0  0  0  0  0  0  0  0  0  0  0  0
   20.1440  -28.3390   40.1590 O   0  0  0  0  0  0  0  0  0  0  0  0
   20.0830  -27.3290   41.0840 C   0  0  0  0  0  0  0  0  0  0  0  0
   20.9620  -27.4050   42.1650 C   0  0  0  0  0  0  0  0  0  0  0  0
   20.9500  -26.4090   43.1440 C   0  0  0  0  0  0  0  0  0  0  0  0
   20.0590  -25.3390   43.0430 C   0  0  0  0  0  0  0  0  0  0  0  0
   19.1830  -25.2650   41.9620 C   0  0  0  0  0  0  0  0  0  0  0  0
   18.3370  -24.1900   41.9260 O   0  0  0  0  0  0  0  0  0  0  0  0
   19.1960  -26.2620   40.9830 C   0  0  0  0  0  0  0  0  0  0  0  0
   18.2910  -26.2230   39.8330 C   0  0  0  0  0  0  0  0  0  0  0  0
   17.4750  -25.3170   39.6770 O   0  0  0  0  0  0  0  0  0  0  0  0
   18.3890  -27.3240   38.8470 C   0  0  0  0  0  0  0  0  0  0  0  0
   17.5210  -27.2840   37.7720 O   0  0  0  0  0  0  0  0  0  0  0  0
   19.7640  -29.2860   36.7950 C   0  0  0  0  0  0  0  0  0  0  0  0
   19.9480  -30.3950   35.9630 C   0  0  0  0  0  0  0  0  0  0  0  0
   19.8530  -31.7030   36.4620 C   0  0  0  0  0  0  0  0  0  0  0  0
   20.0370  -32.8330   35.6370 N   0  0  0  0  0  0  0  0  0  0  0  0
   19.0120  -33.8700   35.8280 C   0  0  0  0  0  0  0  0  0  0  0  0
   19.4400  -35.1350   35.0810 C   0  0  0  0  0  0  0  0  0  0  0  0
   19.6970  -34.8410   33.6040 C   0  0  0  0  0  0  0  0  0  0  0  0
   20.6870  -33.6880   33.4420 C   0  0  0  0  0  0  0  0  0  0  0  0
   20.2400  -32.4550   34.2290 C   0  0  0  0  0  0  0  0  0  0  0  0
   19.3433  -33.2584   40.5947 H   0  0  0  0  0  0  0  0  0  0  0  0
   18.0423  -32.3309   39.7738 H   0  0  0  0  0  0  0  0  0  0  0  0
   18.0021  -34.1267   39.7738 H   0  0  0  0  0  0  0  0  0  0  0  0
   20.4663  -33.6483   38.6561 H   0  0  0  0  0  0  0  0  0  0  0  0
   18.9293  -33.9027   37.7236 H   0  0  0  0  0  0  0  0  0  0  0  0
   19.1750  -30.9054   39.7269 H   0  0  0  0  0  0  0  0  0  0  0  0
   21.6636  -28.2484   42.2460 H   0  0  0  0  0  0  0  0  0  0  0  0
   21.6435  -26.4677   43.9958 H   0  0  0  0  0  0  0  0  0  0  0  0
   20.0485  -24.5558   43.8154 H   0  0  0  0  0  0  0  0  0  0  0  0
   17.5620  -24.2210   41.4010 H   0  0  0  0  0  0  0  0  0  0  0  0
   17.0130  -28.0410   37.5510 H   0  0  0  0  0  0  0  0  0  0  0  0
   19.8493  -28.2723   36.3766 H   0  0  0  0  0  0  0  0  0  0  0  0
   20.1714  -30.2389   34.8973 H   0  0  0  0  0  0  0  0  0  0  0  0
   18.9071  -34.0922   36.9002 H   0  0  0  0  0  0  0  0  0  0  0  0
   18.0467  -33.5157   35.4374 H   0  0  0  0  0  0  0  0  0  0  0  0
   20.3624  -35.5258   35.5353 H   0  0  0  0  0  0  0  0  0  0  0  0
   18.6295  -35.8751   35.1541 H   0  0  0  0  0  0  0  0  0  0  0  0
   20.1101  -35.7406   33.1242 H   0  0  0  0  0  0  0  0  0  0  0  0
   18.7454  -34.5563   33.1314 H   0  0  0  0  0  0  0  0  0  0  0  0
   21.6732  -34.0087   33.8087 H   0  0  0  0  0  0  0  0  0  0  0  0
   20.7355  -33.4200   32.3762 H   0  0  0  0  0  0  0  0  0  0  0  0
   21.0136  -31.6757   34.1642 H   0  0  0  0  0  0  0  0  0  0  0  0
   19.3003  -32.0666   33.8092 H   0  0  0  0  0  0  0  0  0  0  0  0
  1  2  1  0
  2  3  1  0
  3  4  2  0
  4  5  1  0
  5  6  1  0
  6  7  1  0
  7  8  1  0
  8  9  2  0
  9 10  1  0
 10 11  2  0
 11 12  1  0
 12 13  1  0
 12 14  2  0
 14 15  1  0
 15 16  2  0
 15 17  1  0
 17 18  1  0
  5 19  2  0
 19 20  1  0
 20 21  2  0
 21 22  1  0
 22 23  1  0
 23 24  1  0
 24 25  1  0
 25 26  1  0
 26 27  1  0
 21  3  1  0
 27 22  1  0
 17  6  2  0
 14  8  1  0
  1 28  1  0
  1 29  1  0
  1 30  1  0
  2 31  1  0
  2 32  1  0
  4 33  1  0
  9 34  1  0
 10 35  1  0
 11 36  1  0
 13 37  1  0
 18 38  1  0
 19 39  1  0
 20 40  1  0
 23 41  1  0
 23 42  1  0
 24 43  1  0
 24 44  1  0
 25 45  1  0
 25 46  1  0
 26 47  1  0
 26 48  1  0
 27 49  1  0
 27 50  1  0
M  END
>  <meeko>  (2) 
{"is_sidechain": [false], "free_energy": -7.687, "intermolecular_energy": -10.513, "internal_energy": 0.238}

$$$$
cand_029_out
     RDKit          3D

 50 53  0  0  0  0  0  0  0  0999 V2000
   18.0470  -25.2110   37.3390 C   0  0  0  0  0  0  0  0  0  0  0  0
   17.6520  -25.5500   38.7690 C   0  0  0  0  0  0  0  0  0  0  0  0
   18.5330  -26.6280   39.3600 C   0  0  0  0  0  0  0  0  0  0  0  0
   18.5690  -27.8910   38.7380 C   0  0  0  0  0  0  0  0  0  0  0  0
   19.3460  -28.9410   39.2490 C   0  0  0  0  0  0  0  0  0  0  0  0
   19.3780  -30.2420   38.5480 C   0  0  0  0  0  0  0  0  0  0  0  0
   19.0030  -31.3040   39.3630 O   0  0  0  0  0  0  0  0  0  0  0  0
   18.9900  -32.5710   38.8390 C   0  0  0  0  0  0  0  0  0  0  0  0
   18.5950  -33.6050   39.6890 C   0  0  0  0  0  0  0  0  0  0  0  0
   18.5620  -34.9190   39.2180 C   0  0  0  0  0  0  0  0  0  0  0  0
   18.9240  -35.2000   37.8990 C   0  0  0  0  0  0  0  0  0  0  0  0
   19.3170  -34.1660   37.0530 C   0  0  0  0  0  0  0  0  0  0  0  0
   19.6580  -34.5120   35.7730 O   0  0  0  0  0  0  0  0  0  0  0  0
   19.3490  -32.8510   37.5240 C   0  0  0  0  0  0  0  0  0  0  0  0
   19.7570  -31.7350   36.6680 C   0  0  0  0  0  0  0  0  0  0  0  0
   20.0950  -31.9030   35.4980 O   0  0  0  0  0  0  0  0  0  0  0  0
   19.7510  -30.3790   37.2620 C   0  0  0  0  0  0  0  0  0  0  0  0
   20.1510  -29.3350   36.4480 O   0  0  0  0  0  0  0  0  0  0  0  0
   20.1080  -28.7010   40.3960 C   0  0  0  0  0  0  0  0  0  0  0  0
   20.0750  -27.4550   41.0290 C   0  0  0  0  0  0  0  0  0  0  0  0
   19.2860  -26.4070   40.5310 C   0  0  0  0  0  0  0  0  0  0  0  0
   19.2420  -25.1420   41.1560 N   0  0  0  0  0  0  0  0  0  0  0  0
   19.6490  -25.1740   42.5700 C   0  0  0  0  0  0  0  0  0  0  0  0
   19.3300  -23.8210   43.2080 C   0  0  0  0  0  0  0  0  0  0  0  0
   19.9950  -22.6790   42.4400 C   0  0  0  0  0  0  0  0  0  0  0  0
   19.6350  -22.7380   40.9560 C   0  0  0  0  0  0  0  0  0  0  0  0
   19.9380  -24.1150   40.3640 C   0  0  0  0  0  0  0  0  0  0  0  0
   18.8817  -24.4946   37.3492 H   0  0  0  0  0  0  0  0  0  0  0  0
   18.3573  -26.1282   36.8171 H   0  0  0  0  0  0  0  0  0  0  0  0
   17.1875  -24.7651   36.8171 H   0  0  0  0  0  0  0  0  0  0  0  0
   17.7383  -24.6432   39.3857 H   0  0  0  0  0  0  0  0  0  0  0  0
   16.6182  -25.9255   38.7559 H   0  0  0  0  0  0  0  0  0  0  0  0
   17.9729  -28.0582   37.8288 H   0  0  0  0  0  0  0  0  0  0  0  0
   18.3101  -33.3851   40.7285 H   0  0  0  0  0  0  0  0  0  0  0  0
   18.2502  -35.7344   39.8873 H   0  0  0  0  0  0  0  0  0  0  0  0
   18.8988  -36.2356   37.5291 H   0  0  0  0  0  0  0  0  0  0  0  0
   19.7730  -33.8470   35.1230 H   0  0  0  0  0  0  0  0  0  0  0  0
   20.7840  -29.4840   35.7720 H   0  0  0  0  0  0  0  0  0  0  0  0
   20.7411  -29.5020   40.8054 H   0  0  0  0  0  0  0  0  0  0  0  0
   20.6787  -27.2932   41.9342 H   0  0  0  0  0  0  0  0  0  0  0  0
   19.0985  -25.9687   43.0948 H   0  0  0  0  0  0  0  0  0  0  0  0
   20.7280  -25.3753   42.6428 H   0  0  0  0  0  0  0  0  0  0  0  0
   18.2404  -23.6700   43.2038 H   0  0  0  0  0  0  0  0  0  0  0  0
   19.7168  -23.8208   44.2377 H   0  0  0  0  0  0  0  0  0  0  0  0
   19.6543  -21.7191   42.8554 H   0  0  0  0  0  0  0  0  0  0  0  0
   21.0861  -22.7757   42.5412 H   0  0  0  0  0  0  0  0  0  0  0  0
   18.5619  -22.5262   40.8391 H   0  0  0  0  0  0  0  0  0  0  0  0
   20.2402  -21.9904   40.4224 H   0  0  0  0  0  0  0  0  0  0  0  0
   19.5881  -24.1533   39.3218 H   0  0  0  0  0  0  0  0  0  0  0  0
   21.0222  -24.2991   40.3883 H   0  0  0  0  0  0  0  0  0  0  0  0
  1  2  1  0
  2  3  1  0
  3  4  2  0
  4  5  1  0
  5  6  1  0
  6  7  1  0
  7  8  1  0
  8  9  2  0
  9 10  1  0
 10 11  2  0
 11 12  1  0
 12 13  1  0
 12 14  2  0
 14 15  1  0
 15 16  2  0
 15 17  1  0
 17 18  1  0
  5 19  2  0
 19 20  1  0
 20 21  2  0
 21 22  1  0
 22 23  1  0
 23 24  1  0
 24 25  1  0
 25 26  1  0
 26 27  1  0
 21  3  1  0
 27 22  1  0
 17  6  2  0
 14  8  1  0
  1 28  1  0
  1 29  1  0
  1 30  1  0
  2 31  1  0
  2 32  1  0
  4 33  1  0
  9 34  1  0
 10 35  1  0
 11 36  1  0
 13 37  1  0
 18 38  1  0
 19 39  1  0
 20 40  1  0
 23 41  1  0
 23 42  1  0
 24 43  1  0
 24 44  1  0
 25 45  1  0
 25 46  1  0
 26 47  1  0
 26 48  1  0
 27 49  1  0
 27 50  1  0
M  END
>  <meeko>  (3) 
{"is_sidechain": [false], "free_energy": -7.351, "intermolecular_energy": -9.519, "internal_energy": -0.341}

$$$$
cand_029_out
     RDKit          3D

 50 53  0  0  0  0  0  0  0  0999 V2000
   19.3180  -23.4500   38.3010 C   0  0  0  0  0  0  0  0  0  0  0  0
   19.6750  -24.5840   37.3520 C   0  0  0  0  0  0  0  0  0  0  0  0
   19.7510  -25.9170   38.0630 C   0  0  0  0  0  0  0  0  0  0  0  0
   20.4840  -26.0030   39.2640 C   0  0  0  0  0  0  0  0  0  0  0  0
   20.6140  -27.2140   39.9600 C   0  0  0  0  0  0  0  0  0  0  0  0
   21.3670  -27.2540   41.2310 C   0  0  0  0  0  0  0  0  0  0  0  0
   22.3420  -28.2450   41.2510 O   0  0  0  0  0  0  0  0  0  0  0  0
   23.1160  -28.3940   42.3740 C   0  0  0  0  0  0  0  0  0  0  0  0
   24.0900  -29.3930   42.3440 C   0  0  0  0  0  0  0  0  0  0  0  0
   24.9100  -29.5990   43.4550 C   0  0  0  0  0  0  0  0  0  0  0  0
   24.7560  -28.8080   44.5960 C   0  0  0  0  0  0  0  0  0  0  0  0
   23.7830  -27.8110   44.6220 C   0  0  0  0  0  0  0  0  0  0  0  0
   23.6860  -27.0730   45.7700 O   0  0  0  0  0  0  0  0  0  0  0  0
   22.9630  -27.6050   43.5100 C   0  0  0  0  0  0  0  0  0  0  0  0
   21.9280  -26.5700   43.4960 C   0  0  0  0  0  0  0  0  0  0  0  0
   21.7280  -25.8380   44.4630 O   0  0  0  0  0  0  0  0  0  0  0  0
   21.1160  -26.4280   42.2650 C   0  0  0  0  0  0  0  0  0  0  0  0
   20.1330  -25.4560   42.2690 O   0  0  0  0  0  0  0  0  0  0  0  0
   19.9800  -28.3460   39.4410 C   0  0  0  0  0  0  0  0  0  0  0  0
   19.2580  -28.2760   38.2470 C   0  0  0  0  0  0  0  0  0  0  0  0
   19.1380  -27.0720   37.5380 C   0  0  0  0  0  0  0  0  0  0  0  0
   18.4110  -26.9830   36.3310 N   0  0  0  0  0  0  0  0  0  0  0  0
   18.7640  -28.0280   35.3570 C   0  0  0  0  0  0  0  0  0  0  0  0
   18.1100  -27.6950   34.0150 C   0  0  0  0  0  0  0  0  0  0  0  0
   16.5990  -27.5290   34.1640 C   0  0  0  0  0  0  0  0  0  0  0  0
   16.2670  -26.5140   35.2560 C   0  0  0  0  0  0  0  0  0  0  0  0
   16.9640  -26.8640   36.5720 C   0  0  0  0  0  0  0  0  0  0  0  0
   19.4262  -23.7938   39.3403 H   0  0  0  0  0  0  0  0  0  0  0  0
   19.9915  -22.5984   38.1245 H   0  0  0  0  0  0  0  0  0  0  0  0
   18.2781  -23.1378   38.1245 H   0  0  0  0  0  0  0  0  0  0  0  0
   18.9075  -24.6441   36.5663 H   0  0  0  0  0  0  0  0  0  0  0  0
   20.6661  -24.3701   36.9255 H   0  0  0  0  0  0  0  0  0  0  0  0
   20.9655  -25.0989   39.6650 H   0  0  0  0  0  0  0  0  0  0  0  0
   24.2115  -30.0171   41.4464 H   0  0  0  0  0  0  0  0  0  0  0  0
   25.6787  -30.3855   43.4318 H   0  0  0  0  0  0  0  0  0  0  0  0
   25.4012  -28.9718   45.4717 H   0  0  0  0  0  0  0  0  0  0  0  0
   23.0400  -26.3990   45.8410 H   0  0  0  0  0  0  0  0  0  0  0  0
   19.2370  -25.6960   42.1350 H   0  0  0  0  0  0  0  0  0  0  0  0
   20.0502  -29.3031   39.9787 H   0  0  0  0  0  0  0  0  0  0  0  0
   18.7742  -29.1830   37.8554 H   0  0  0  0  0  0  0  0  0  0  0  0
   19.8567  -28.0662   35.2360 H   0  0  0  0  0  0  0  0  0  0  0  0
   18.4073  -29.0057   35.7133 H   0  0  0  0  0  0  0  0  0  0  0  0
   18.5379  -26.7576   33.6300 H   0  0  0  0  0  0  0  0  0  0  0  0
   18.3027  -28.5239   33.3180 H   0  0  0  0  0  0  0  0  0  0  0  0
   16.1791  -27.1806   33.2089 H   0  0  0  0  0  0  0  0  0  0  0  0
   16.1647  -28.5003   34.4433 H   0  0  0  0  0  0  0  0  0  0  0  0
   16.5970  -25.5165   34.9302 H   0  0  0  0  0  0  0  0  0  0  0  0
   15.1801  -26.5290   35.4246 H   0  0  0  0  0  0  0  0  0  0  0  0
   16.7772  -26.0706   37.3107 H   0  0  0  0  0  0  0  0  0  0  0  0
   16.5720  -27.8164   36.9583 H   0  0  0  0  0  0  0  0  0  0  0  0
  1  2  1  0
  2  3  1  0
  3  4  2  0
  4  5  1  0
  5  6  1  0
  6  7  1  0
  7  8  1  0
  8  9  2  0
  9 10  1  0
 10 11  2  0
 11 12  1  0
 12 13  1  0
 12 14  2  0
 14 15  1  0
 15 16  2  0
 15 17  1  0
 17 18  1  0
  5 19  2  0
 19 20  1  0
 20 21  2  0
 21 22  1  0
 22 23  1  0
 23 24  1  0
 24 25  1  0
 25 26  1  0
 26 27  1  0
 21  3  1  0
 27 22  1  0
 17  6  2  0
 14  8  1  0
  1 28  1  0
  1 29  1  0
  1 30  1  0
  2 31  1  0
  2 32  1  0
  4 33  1  0
  9 34  1  0
 10 35  1  0
 11 36  1  0
 13 37  1  0
 18 38  1  0
 19 39  1  0
 20 40  1  0
 23 41  1  0
 23 42  1  0
 24 43  1  0
 24 44  1  0
 25 45  1  0
 25 46  1  0
 26 47  1  0
 26 48  1  0
 27 49  1  0
 27 50  1  0
M  END
>  <meeko>  (4) 
{"is_sidechain": [false], "free_energy": -7.17, "intermolecular_energy": -9.049, "internal_energy": -0.588}

$$$$
cand_029_out
     RDKit          3D

 50 53  0  0  0  0  0  0  0  0999 V2000
   18.4680  -32.0460   39.3570 C   0  0  0  0  0  0  0  0  0  0  0  0
   19.6870  -32.1120   38.4490 C   0  0  0  0  0  0  0  0  0  0  0  0
   19.7610  -30.9270   37.5120 C   0  0  0  0  0  0  0  0  0  0  0  0
   19.6310  -29.6300   38.0480 C   0  0  0  0  0  0  0  0  0  0  0  0
   19.6680  -28.4900   37.2320 C   0  0  0  0  0  0  0  0  0  0  0  0
   19.5570  -27.1470   37.8390 C   0  0  0  0  0  0  0  0  0  0  0  0
   18.6960  -26.3070   37.1410 O   0  0  0  0  0  0  0  0  0  0  0  0
   18.5020  -25.0280   37.5950 C   0  0  0  0  0  0  0  0  0  0  0  0
   17.6200  -24.2260   36.8700 C   0  0  0  0  0  0  0  0  0  0  0  0
   17.3790  -22.9120   37.2780 C   0  0  0  0  0  0  0  0  0  0  0  0
   18.0200  -22.4010   38.4080 C   0  0  0  0  0  0  0  0  0  0  0  0
   18.9000  -23.2040   39.1290 C   0  0  0  0  0  0  0  0  0  0  0  0
   19.4940  -22.6400   40.2250 O   0  0  0  0  0  0  0  0  0  0  0  0
   19.1400  -24.5190   38.7210 C   0  0  0  0  0  0  0  0  0  0  0  0
   20.0580  -25.3970   39.4500 C   0  0  0  0  0  0  0  0  0  0  0  0
   20.6640  -25.0180   40.4500 O   0  0  0  0  0  0  0  0  0  0  0  0
   20.2380  -26.7750   38.9390 C   0  0  0  0  0  0  0  0  0  0  0  0
   21.1170  -27.5900   39.6280 O   0  0  0  0  0  0  0  0  0  0  0  0
   19.8530  -28.6670   35.8580 C   0  0  0  0  0  0  0  0  0  0  0  0
   19.9750  -29.9480   35.3120 C   0  0  0  0  0  0  0  0  0  0  0  0
   19.9230  -31.0920   36.1220 C   0  0  0  0  0  0  0  0  0  0  0  0
   20.0450  -32.3930   35.5880 N   0  0  0  0  0  0  0  0  0  0  0  0
   19.0200  -33.3270   36.0800 C   0  0  0  0  0  0  0  0  0  0  0  0
   19.3900  -34.7450   35.6410 C   0  0  0  0  0  0  0  0  0  0  0  0
   19.5650  -34.8240   34.1260 C   0  0  0  0  0  0  0  0  0  0  0  0
   20.5570  -33.7710   33.6350 C   0  0  0  0  0  0  0  0  0  0  0  0
   20.1710  -32.3730   34.1220 C   0  0  0  0  0  0  0  0  0  0  0  0
   18.7923  -32.0636   40.4080 H   0  0  0  0  0  0  0  0  0  0  0  0
   17.9138  -31.1165   39.1598 H   0  0  0  0  0  0  0  0  0  0  0  0
   17.8166  -32.9102   39.1598 H   0  0  0  0  0  0  0  0  0  0  0  0
   20.5933  -32.1291   39.0721 H   0  0  0  0  0  0  0  0  0  0  0  0
   19.6065  -33.0233   37.8382 H   0  0  0  0  0  0  0  0  0  0  0  0
   19.4972  -29.5089   39.1331 H   0  0  0  0  0  0  0  0  0  0  0  0
   17.1154  -24.6277   35.9789 H   0  0  0  0  0  0  0  0  0  0  0  0
   16.6831  -22.2789   36.7080 H   0  0  0  0  0  0  0  0  0  0  0  0
   17.8303  -21.3659   38.7283 H   0  0  0  0  0  0  0  0  0  0  0  0
   20.4260  -22.5550   40.2620 H   0  0  0  0  0  0  0  0  0  0  0  0
   20.9820  -28.5180   39.6420 H   0  0  0  0  0  0  0  0  0  0  0  0
   19.9032  -27.7880   35.1986 H   0  0  0  0  0  0  0  0  0  0  0  0
   20.1144  -30.0610   34.2267 H   0  0  0  0  0  0  0  0  0  0  0  0
   18.9746  -33.2804   37.1781 H   0  0  0  0  0  0  0  0  0  0  0  0
   18.0377  -33.0535   35.6673 H   0  0  0  0  0  0  0  0  0  0  0  0
   20.3325  -35.0370   36.1271 H   0  0  0  0  0  0  0  0  0  0  0  0
   18.5765  -35.4248   35.9344 H   0  0  0  0  0  0  0  0  0  0  0  0
   19.9390  -35.8233   33.8585 H   0  0  0  0  0  0  0  0  0  0  0  0
   18.5910  -34.6376   33.6500 H   0  0  0  0  0  0  0  0  0  0  0  0
   21.5593  -34.0185   34.0146 H   0  0  0  0  0  0  0  0  0  0  0  0
   20.5463  -33.7705   32.5351 H   0  0  0  0  0  0  0  0  0  0  0  0
   20.9489  -31.6527   33.8287 H   0  0  0  0  0  0  0  0  0  0  0  0
   19.2131  -32.0743   33.6712 H   0  0  0  0  0  0  0  0  0  0  0  0
  1  2  1  0
  2  3  1  0
  3  4  2  0
  4  5  1  0
  5  6  1  0
  6  7  1  0
  7  8  1  0
  8  9  2  0
  9 10  1  0
 10 11  2  0
 11 12  1  0
 12 13  1  0
 12 14  2  0
 14 15  1  0
 15 16  2  0
 15 17  1  0
 17 18  1  0
  5 19  2  0
 19 20  1  0
 20 21  2  0
 21 22  1  0
 22 23  1  0
 23 24  1  0
 24 25  1  0
 25 26  1  0
 26 27  1  0
 21  3  1  0
 27 22  1  0
 17  6  2  0
 14  8  1  0
  1 28  1  0
  1 29  1  0
  1 30  1  0
  2 31  1  0
  2 32  1  0
  4 33  1  0
  9 34  1  0
 10 35  1  0
 11 36  1  0
 13 37  1  0
 18 38  1  0
 19 39  1  0
 20 40  1  0
 23 41  1  0
 23 42  1  0
 24 43  1  0
 24 44  1  0
 25 45  1  0
 25 46  1  0
 26 47  1  0
 26 48  1  0
 27 49  1  0
 27 50  1  0
M  END
>  <meeko>  (5) 
{"is_sidechain": [false], "free_energy": -7.15, "intermolecular_energy": -10.014, "internal_energy": 0.402}

$$$$
cand_029_out
     RDKit          3D

 50 53  0  0  0  0  0  0  0  0999 V2000
   21.2530  -21.2960   43.2590 C   0  0  0  0  0  0  0  0  0  0  0  0
   19.8250  -21.7800   43.0590 C   0  0  0  0  0  0  0  0  0  0  0  0
   19.7720  -23.2270   42.6220 C   0  0  0  0  0  0  0  0  0  0  0  0
   19.5430  -23.5160   41.2620 C   0  0  0  0  0  0  0  0  0  0  0  0
   19.4590  -24.8360   40.7950 C   0  0  0  0  0  0  0  0  0  0  0  0
   19.2470  -25.0950   39.3550 C   0  0  0  0  0  0  0  0  0  0  0  0
   18.1060  -24.4770   38.8570 O   0  0  0  0  0  0  0  0  0  0  0  0
   17.7880  -24.6360   37.5320 C   0  0  0  0  0  0  0  0  0  0  0  0
   16.6410  -23.9880   37.0740 C   0  0  0  0  0  0  0  0  0  0  0  0
   16.2600  -24.1100   35.7360 C   0  0  0  0  0  0  0  0  0  0  0  0
   17.0250  -24.8810   34.8580 C   0  0  0  0  0  0  0  0  0  0  0  0
   18.1700  -25.5260   35.3190 C   0  0  0  0  0  0  0  0  0  0  0  0
   18.8720  -26.2640   34.4050 O   0  0  0  0  0  0  0  0  0  0  0  0
   18.5500  -25.4030   36.6570 C   0  0  0  0  0  0  0  0  0  0  0  0
   19.7460  -26.0660   37.1830 C   0  0  0  0  0  0  0  0  0  0  0  0
   20.4660  -26.7650   36.4740 O   0  0  0  0  0  0  0  0  0  0  0  0
   20.0660  -25.8660   38.6150 C   0  0  0  0  0  0  0  0  0  0  0  0
   21.1890  -26.5080   39.1030 O   0  0  0  0  0  0  0  0  0  0  0  0
   19.6250  -25.8750   41.7150 C   0  0  0  0  0  0  0  0  0  0  0  0
   19.8440  -25.6020   43.0690 C   0  0  0  0  0  0  0  0  0  0  0  0
   19.9120  -24.2840   43.5440 C   0  0  0  0  0  0  0  0  0  0  0  0
   20.1340  -23.9900   44.9070 N   0  0  0  0  0  0  0  0  0  0  0  0
   18.8980  -23.9400   45.7030 C   0  0  0  0  0  0  0  0  0  0  0  0
   19.2240  -23.3770   47.0880 C   0  0  0  0  0  0  0  0  0  0  0  0
   20.3190  -24.1940   47.7710 C   0  0  0  0  0  0  0  0  0  0  0  0
   21.5490  -24.3150   46.8730 C   0  0  0  0  0  0  0  0  0  0  0  0
   21.1770  -24.8500   45.4890 C   0  0  0  0  0  0  0  0  0  0  0  0
   21.4681  -21.2231   44.3353 H   0  0  0  0  0  0  0  0  0  0  0  0
   21.9501  -22.0080   42.7932 H   0  0  0  0  0  0  0  0  0  0  0  0
   21.3735  -20.3068   42.7932 H   0  0  0  0  0  0  0  0  0  0  0  0
   19.2787  -21.6756   44.0080 H   0  0  0  0  0  0  0  0  0  0  0  0
   19.3676  -21.1693   42.2666 H   0  0  0  0  0  0  0  0  0  0  0  0
   19.4273  -22.6862   40.5492 H   0  0  0  0  0  0  0  0  0  0  0  0
   16.0375  -23.3818   37.7656 H   0  0  0  0  0  0  0  0  0  0  0  0
   15.3564  -23.5983   35.3732 H   0  0  0  0  0  0  0  0  0  0  0  0
   16.7238  -24.9786   33.8046 H   0  0  0  0  0  0  0  0  0  0  0  0
   19.3040  -27.0520   34.6710 H   0  0  0  0  0  0  0  0  0  0  0  0
   21.7930  -26.9100   38.5090 H   0  0  0  0  0  0  0  0  0  0  0  0
   19.5829  -26.9188   41.3703 H   0  0  0  0  0  0  0  0  0  0  0  0
   19.9652  -26.4368   43.7750 H   0  0  0  0  0  0  0  0  0  0  0  0
   18.1632  -23.2911   45.2040 H   0  0  0  0  0  0  0  0  0  0  0  0
   18.4763  -24.9512   45.8011 H   0  0  0  0  0  0  0  0  0  0  0  0
   19.5657  -22.3368   46.9815 H   0  0  0  0  0  0  0  0  0  0  0  0
   18.3157  -23.4247   47.7067 H   0  0  0  0  0  0  0  0  0  0  0  0
   20.6059  -23.6979   48.7099 H   0  0  0  0  0  0  0  0  0  0  0  0
   19.9305  -25.2031   47.9729 H   0  0  0  0  0  0  0  0  0  0  0  0
   22.0101  -23.3225   46.7614 H   0  0  0  0  0  0  0  0  0  0  0  0
   22.2517  -25.0205   47.3403 H   0  0  0  0  0  0  0  0  0  0  0  0
   22.0651  -24.8431   44.8400 H   0  0  0  0  0  0  0  0  0  0  0  0
   20.8023  -25.8804   45.5774 H   0  0  0  0  0  0  0  0  0  0  0  0
  1  2  1  0
  2  3  1  0
  3  4  2  0
  4  5  1  0
  5  6  1  0
  6  7  1  0
  7  8  1  0
  8  9  2  0
  9 10  1  0
 10 11  2  0
 11 12  1  0
 12 13  1  0
 12 14  2  0
 14 15  1  0
 15 16  2  0
 15 17  1  0
 17 18  1  0
  5 19  2  0
 19 20  1  0
 20 21  2  0
 21 22  1  0
 22 23  1  0
 23 24  1  0
 24 25  1  0
 25 26  1  0
 26 27  1  0
 21  3  1  0
 27 22  1  0
 17  6  2  0
 14  8  1  0
  1 28  1  0
  1 29  1  0
  1 30  1  0
  2 31  1  0
  2 32  1  0
  4 33  1  0
  9 34  1  0
 10 35  1  0
 11 36  1  0
 13 37  1  0
 18 38  1  0
 19 39  1  0
 20 40  1  0
 23 41  1  0
 23 42  1  0
 24 43  1  0
 24 44  1  0
 25 45  1  0
 25 46  1  0
 26 47  1  0
 26 48  1  0
 27 49  1  0
 27 50  1  0
M  END
>  <meeko>  (6) 
{"is_sidechain": [false], "free_energy": -7.08, "intermolecular_energy": -8.995, "internal_energy": -0.531}

$$$$
cand_029_out
     RDKit          3D

 50 53  0  0  0  0  0  0  0  0999 V2000
   20.2250  -30.2560   34.2230 C   0  0  0  0  0  0  0  0  0  0  0  0
   20.6510  -31.0130   35.4720 C   0  0  0  0  0  0  0  0  0  0  0  0
   20.0170  -30.4470   36.7230 C   0  0  0  0  0  0  0  0  0  0  0  0
   19.9500  -29.0480   36.8750 C   0  0  0  0  0  0  0  0  0  0  0  0
   19.3960  -28.4580   38.0210 C   0  0  0  0  0  0  0  0  0  0  0  0
   19.3180  -26.9860   38.1260 C   0  0  0  0  0  0  0  0  0  0  0  0
   18.7050  -26.3970   37.0260 O   0  0  0  0  0  0  0  0  0  0  0  0
   18.5680  -25.0320   36.9930 C   0  0  0  0  0  0  0  0  0  0  0  0
   17.9360  -24.4860   35.8760 C   0  0  0  0  0  0  0  0  0  0  0  0
   17.7660  -23.1040   35.7790 C   0  0  0  0  0  0  0  0  0  0  0  0
   18.2290  -22.2680   36.7970 C   0  0  0  0  0  0  0  0  0  0  0  0
   18.8600  -22.8160   37.9110 C   0  0  0  0  0  0  0  0  0  0  0  0
   19.2890  -21.9400   38.8710 O   0  0  0  0  0  0  0  0  0  0  0  0
   19.0290  -24.2000   38.0080 C   0  0  0  0  0  0  0  0  0  0  0  0
   19.6870  -24.8170   39.1610 C   0  0  0  0  0  0  0  0  0  0  0  0
   20.1260  -24.1480   40.0940 O   0  0  0  0  0  0  0  0  0  0  0  0
   19.8100  -26.2930   39.1710 C   0  0  0  0  0  0  0  0  0  0  0  0
   20.4450  -26.8630   40.2580 O   0  0  0  0  0  0  0  0  0  0  0  0
   18.8910  -29.2980   39.0170 C   0  0  0  0  0  0  0  0  0  0  0  0
   18.9590  -30.6870   38.8840 C   0  0  0  0  0  0  0  0  0  0  0  0
   19.5270  -31.2820   37.7470 C   0  0  0  0  0  0  0  0  0  0  0  0
   19.6020  -32.6830   37.5950 N   0  0  0  0  0  0  0  0  0  0  0  0
   19.2590  -33.4240   38.8190 C   0  0  0  0  0  0  0  0  0  0  0  0
   19.6110  -34.9000   38.6200 C   0  0  0  0  0  0  0  0  0  0  0  0
   18.9160  -35.4700   37.3850 C   0  0  0  0  0  0  0  0  0  0  0  0
   19.2090  -34.6160   36.1520 C   0  0  0  0  0  0  0  0  0  0  0  0
   18.8750  -33.1450   36.4020 C   0  0  0  0  0  0  0  0  0  0  0  0
   19.7048  -29.3315   34.5141 H   0  0  0  0  0  0  0  0  0  0  0  0
   21.1138  -30.0041   33.6259 H   0  0  0  0  0  0  0  0  0  0  0  0
   19.5484  -30.8850   33.6259 H   0  0  0  0  0  0  0  0  0  0  0  0
   20.3518  -32.0664   35.3679 H   0  0  0  0  0  0  0  0  0  0  0  0
   21.7423  -30.9166   35.5714 H   0  0  0  0  0  0  0  0  0  0  0  0
   20.3418  -28.4022   36.0753 H   0  0  0  0  0  0  0  0  0  0  0  0
   17.5721  -25.1435   35.0727 H   0  0  0  0  0  0  0  0  0  0  0  0
   17.2664  -22.6727   34.8990 H   0  0  0  0  0  0  0  0  0  0  0  0
   18.0956  -21.1789   36.7193 H   0  0  0  0  0  0  0  0  0  0  0  0
   20.1750  -21.9740   39.1730 H   0  0  0  0  0  0  0  0  0  0  0  0
   20.9440  -27.6500   40.1500 H   0  0  0  0  0  0  0  0  0  0  0  0
   18.4343  -28.8602   39.9168 H   0  0  0  0  0  0  0  0  0  0  0  0
   18.5599  -31.3262   39.6854 H   0  0  0  0  0  0  0  0  0  0  0  0
   19.8299  -33.0194   39.6678 H   0  0  0  0  0  0  0  0  0  0  0  0
   18.1837  -33.3221   39.0274 H   0  0  0  0  0  0  0  0  0  0  0  0
   20.6997  -34.9960   38.4958 H   0  0  0  0  0  0  0  0  0  0  0  0
   19.2712  -35.4620   39.5024 H   0  0  0  0  0  0  0  0  0  0  0  0
   19.2777  -36.4937   37.2084 H   0  0  0  0  0  0  0  0  0  0  0  0
   17.8303  -35.4715   37.5618 H   0  0  0  0  0  0  0  0  0  0  0  0
   20.2765  -34.7033   35.9012 H   0  0  0  0  0  0  0  0  0  0  0  0
   18.5832  -34.9777   35.3228 H   0  0  0  0  0  0  0  0  0  0  0  0
   19.1775  -32.5453   35.5309 H   0  0  0  0  0  0  0  0  0  0  0  0
   17.7923  -33.0322   36.5606 H   0  0  0  0  0  0  0  0  0  0  0  0
  1  2  1  0
  2  3  1  0
  3  4  2  0
  4  5  1  0
  5  6  1  0
  6  7  1  0
  7  8  1  0
  8  9  2  0
  9 10  1  0
 10 11  2  0
 11 12  1  0
 12 13  1  0
 12 14  2  0
 14 15  1  0
 15 16  2  0
 15 17  1  0
 17 18  1  0
  5 19  2  0
 19 20  1  0
 20 21  2  0
 21 22  1  0
 22 23  1  0
 23 24  1  0
 24 25  1  0
 25 26  1  0
 26 27  1  0
 21  3  1  0
 27 22  1  0
 17  6  2  0
 14  8  1  0
  1 28  1  0
  1 29  1  0
  1 30  1  0
  2 31  1  0
  2 32  1  0
  4 33  1  0
  9 34  1  0
 10 35  1  0
 11 36  1  0
 13 37  1  0
 18 38  1  0
 19 39  1  0
 20 40  1  0
 23 41  1  0
 23 42  1  0
 24 43  1  0
 24 44  1  0
 25 45  1  0
 25 46  1  0
 26 47  1  0
 26 48  1  0
 27 49  1  0
 27 50  1  0
M  END
>  <meeko>  (7) 
{"is_sidechain": [false], "free_energy": -7.023, "intermolecular_energy": -9.373, "internal_energy": -0.083}

$$$$
cand_029_out
     RDKit          3D

 50 53  0  0  0  0  0  0  0  0999 V2000
   18.1630  -24.5790   37.7360 C   0  0  0  0  0  0  0  0  0  0  0  0
   17.7500  -25.2160   39.0550 C   0  0  0  0  0  0  0  0  0  0  0  0
   18.6690  -26.3500   39.4500 C   0  0  0  0  0  0  0  0  0  0  0  0
   18.7580  -27.4750   38.6060 C   0  0  0  0  0  0  0  0  0  0  0  0
   19.5730  -28.5710   38.9260 C   0  0  0  0  0  0  0  0  0  0  0  0
   19.6600  -29.7180   37.9980 C   0  0  0  0  0  0  0  0  0  0  0  0
   19.9590  -29.3380   36.6950 O   0  0  0  0  0  0  0  0  0  0  0  0
   20.0690  -30.3050   35.7280 C   0  0  0  0  0  0  0  0  0  0  0  0
   20.3820  -29.8780   34.4370 C   0  0  0  0  0  0  0  0  0  0  0  0
   20.5060  -30.8120   33.4060 C   0  0  0  0  0  0  0  0  0  0  0  0
   20.3160  -32.1710   33.6660 C   0  0  0  0  0  0  0  0  0  0  0  0
   20.0040  -32.5940   34.9560 C   0  0  0  0  0  0  0  0  0  0  0  0
   19.8310  -33.9380   35.1390 O   0  0  0  0  0  0  0  0  0  0  0  0
   19.8800  -31.6590   35.9870 C   0  0  0  0  0  0  0  0  0  0  0  0
   19.5520  -32.0610   37.3560 C   0  0  0  0  0  0  0  0  0  0  0  0
   19.3650  -33.2360   37.6620 O   0  0  0  0  0  0  0  0  0  0  0  0
   19.4510  -30.9930   38.3770 C   0  0  0  0  0  0  0  0  0  0  0  0
   19.1280  -31.3830   39.6640 O   0  0  0  0  0  0  0  0  0  0  0  0
   20.3180  -28.5180   40.1080 C   0  0  0  0  0  0  0  0  0  0  0  0
   20.2320  -27.4120   40.9580 C   0  0  0  0  0  0  0  0  0  0  0  0
   19.4050  -26.3210   40.6510 C   0  0  0  0  0  0  0  0  0  0  0  0
   19.3080  -25.1950   41.4970 N   0  0  0  0  0  0  0  0  0  0  0  0
   19.6810  -25.4780   42.8920 C   0  0  0  0  0  0  0  0  0  0  0  0
   19.3060  -24.2750   43.7590 C   0  0  0  0  0  0  0  0  0  0  0  0
   19.9530  -22.9950   43.2350 C   0  0  0  0  0  0  0  0  0  0  0  0
   19.6320  -22.7870   41.7560 C   0  0  0  0  0  0  0  0  0  0  0  0
   19.9910  -24.0220   40.9290 C   0  0  0  0  0  0  0  0  0  0  0  0
   18.7515  -23.6713   37.9356 H   0  0  0  0  0  0  0  0  0  0  0  0
   18.7716  -25.2912   37.1595 H   0  0  0  0  0  0  0  0  0  0  0  0
   17.2644  -24.3140   37.1595 H   0  0  0  0  0  0  0  0  0  0  0  0
   17.7743  -24.4486   39.8427 H   0  0  0  0  0  0  0  0  0  0  0  0
   16.7375  -25.6275   38.9307 H   0  0  0  0  0  0  0  0  0  0  0  0
   18.1743  -27.4942   37.6738 H   0  0  0  0  0  0  0  0  0  0  0  0
   20.5308  -28.8076   34.2316 H   0  0  0  0  0  0  0  0  0  0  0  0
   20.7536  -30.4768   32.3880 H   0  0  0  0  0  0  0  0  0  0  0  0
   20.4126  -32.9061   32.8534 H   0  0  0  0  0  0  0  0  0  0  0  0
   19.9870  -34.5320   34.4310 H   0  0  0  0  0  0  0  0  0  0  0  0
   18.3010  -31.1400   40.0330 H   0  0  0  0  0  0  0  0  0  0  0  0
   20.9794  -29.3564   40.3719 H   0  0  0  0  0  0  0  0  0  0  0  0
   20.8238  -27.3966   41.8851 H   0  0  0  0  0  0  0  0  0  0  0  0
   19.1420  -26.3697   43.2447 H   0  0  0  0  0  0  0  0  0  0  0  0
   20.7634  -25.6622   42.9583 H   0  0  0  0  0  0  0  0  0  0  0  0
   18.2127  -24.1538   43.7513 H   0  0  0  0  0  0  0  0  0  0  0  0
   19.6685  -24.4556   44.7817 H   0  0  0  0  0  0  0  0  0  0  0  0
   19.5726  -22.1379   43.8100 H   0  0  0  0  0  0  0  0  0  0  0  0
   21.0437  -23.0808   43.3489 H   0  0  0  0  0  0  0  0  0  0  0  0
   18.5562  -22.5842   41.6482 H   0  0  0  0  0  0  0  0  0  0  0  0
   20.2275  -21.9385   41.3881 H   0  0  0  0  0  0  0  0  0  0  0  0
   19.6675  -23.8753   39.8879 H   0  0  0  0  0  0  0  0  0  0  0  0
   21.0794  -24.1796   40.9504 H   0  0  0  0  0  0  0  0  0  0  0  0
  1  2  1  0
  2  3  1  0
  3  4  2  0
  4  5  1  0
  5  6  1  0
  6  7  1  0
  7  8  1  0
  8  9  2  0
  9 10  1  0
 10 11  2  0
 11 12  1  0
 12 13  1  0
 12 14  2  0
 14 15  1  0
 15 16  2  0
 15 17  1  0
 17 18  1  0
  5 19  2  0
 19 20  1  0
 20 21  2  0
 21 22  1  0
 22 23  1  0
 23 24  1  0
 24 25  1  0
 25 26  1  0
 26 27  1  0
 21  3  1  0
 27 22  1  0
 17  6  2  0
 14  8  1  0
  1 28  1  0
  1 29  1  0
  1 30  1  0
  2 31  1  0
  2 32  1  0
  4 33  1  0
  9 34  1  0
 10 35  1  0
 11 36  1  0
 13 37  1  0
 18 38  1  0
 19 39  1  0
 20 40  1  0
 23 41  1  0
 23 42  1  0
 24 43  1  0
 24 44  1  0
 25 45  1  0
 25 46  1  0
 26 47  1  0
 26 48  1  0
 27 49  1  0
 27 50  1  0
M  END
>  <meeko>  (8) 
{"is_sidechain": [false], "free_energy": -6.87, "intermolecular_energy": -8.894, "internal_energy": -0.373}

$$$$
cand_029_out
     RDKit          3D

 50 53  0  0  0  0  0  0  0  0999 V2000
   21.0190  -27.2010   42.6980 C   0  0  0  0  0  0  0  0  0  0  0  0
   20.1030  -26.1000   43.2110 C   0  0  0  0  0  0  0  0  0  0  0  0
   19.7830  -25.0830   42.1390 C   0  0  0  0  0  0  0  0  0  0  0  0
   19.6200  -25.5250   40.8110 C   0  0  0  0  0  0  0  0  0  0  0  0
   19.3450  -24.6310   39.7660 C   0  0  0  0  0  0  0  0  0  0  0  0
   19.1520  -25.1410   38.3930 C   0  0  0  0  0  0  0  0  0  0  0  0
   17.9760  -24.6850   37.8070 O   0  0  0  0  0  0  0  0  0  0  0  0
   17.6710  -25.0840   36.5310 C   0  0  0  0  0  0  0  0  0  0  0  0
   16.4880  -24.5920   35.9790 C   0  0  0  0  0  0  0  0  0  0  0  0
   16.1170  -24.9610   34.6840 C   0  0  0  0  0  0  0  0  0  0  0  0
   16.9290  -25.8220   33.9420 C   0  0  0  0  0  0  0  0  0  0  0  0
   18.1100  -26.3110   34.4960 C   0  0  0  0  0  0  0  0  0  0  0  0
   18.8570  -27.1500   33.7140 O   0  0  0  0  0  0  0  0  0  0  0  0
   18.4800  -25.9410   35.7910 C   0  0  0  0  0  0  0  0  0  0  0  0
   19.7120  -26.4330   36.4110 C   0  0  0  0  0  0  0  0  0  0  0  0
   20.4740  -27.1980   35.8240 O   0  0  0  0  0  0  0  0  0  0  0  0
   20.0160  -25.9760   37.7870 C   0  0  0  0  0  0  0  0  0  0  0  0
   21.1760  -26.4580   38.3660 O   0  0  0  0  0  0  0  0  0  0  0  0
   19.2190  -23.2730   40.0750 C   0  0  0  0  0  0  0  0  0  0  0  0
   19.3870  -22.8200   41.3860 C   0  0  0  0  0  0  0  0  0  0  0  0
   19.6780  -23.7080   42.4320 C   0  0  0  0  0  0  0  0  0  0  0  0
   19.8490  -23.2670   43.7620 N   0  0  0  0  0  0  0  0  0  0  0  0
   20.7450  -22.1060   43.8830 C   0  0  0  0  0  0  0  0  0  0  0  0
   21.0540  -21.8710   45.3630 C   0  0  0  0  0  0  0  0  0  0  0  0
   19.7710  -21.6980   46.1730 C   0  0  0  0  0  0  0  0  0  0  0  0
   18.8180  -22.8710   45.9420 C   0  0  0  0  0  0  0  0  0  0  0  0
   18.5600  -23.0940   44.4510 C   0  0  0  0  0  0  0  0  0  0  0  0
   21.4634  -27.7352   43.5507 H   0  0  0  0  0  0  0  0  0  0  0  0
   20.4375  -27.9064   42.0862 H   0  0  0  0  0  0  0  0  0  0  0  0
   21.8184  -26.7575   42.0862 H   0  0  0  0  0  0  0  0  0  0  0  0
   19.1642  -26.5538   43.5614 H   0  0  0  0  0  0  0  0  0  0  0  0
   20.6231  -25.5792   44.0285 H   0  0  0  0  0  0  0  0  0  0  0  0
   19.7107  -26.5984   40.5883 H   0  0  0  0  0  0  0  0  0  0  0  0
   15.8481  -23.9142   36.5630 H   0  0  0  0  0  0  0  0  0  0  0  0
   15.1845  -24.5732   34.2480 H   0  0  0  0  0  0  0  0  0  0  0  0
   16.6365  -26.1133   32.9224 H   0  0  0  0  0  0  0  0  0  0  0  0
   18.4730  -27.5540   32.9610 H   0  0  0  0  0  0  0  0  0  0  0  0
   21.4260  -27.3520   38.2390 H   0  0  0  0  0  0  0  0  0  0  0  0
   18.9849  -22.5532   39.2768 H   0  0  0  0  0  0  0  0  0  0  0  0
   19.2891  -21.7459   41.6021 H   0  0  0  0  0  0  0  0  0  0  0  0
   21.6797  -22.3024   43.3372 H   0  0  0  0  0  0  0  0  0  0  0  0
   20.2603  -21.2150   43.4573 H   0  0  0  0  0  0  0  0  0  0  0  0
   21.6123  -22.7341   45.7547 H   0  0  0  0  0  0  0  0  0  0  0  0
   21.6502  -20.9510   45.4531 H   0  0  0  0  0  0  0  0  0  0  0  0
   20.0244  -21.6449   47.2421 H   0  0  0  0  0  0  0  0  0  0  0  0
   19.2734  -20.7718   45.8498 H   0  0  0  0  0  0  0  0  0  0  0  0
   19.2620  -23.7824   46.3688 H   0  0  0  0  0  0  0  0  0  0  0  0
   17.8591  -22.6396   46.4288 H   0  0  0  0  0  0  0  0  0  0  0  0
   17.9448  -23.9955   44.3140 H   0  0  0  0  0  0  0  0  0  0  0  0
   18.0283  -22.2269   44.0322 H   0  0  0  0  0  0  0  0  0  0  0  0
  1  2  1  0
  2  3  1  0
  3  4  2  0
  4  5  1  0
  5  6  1  0
  6  7  1  0
  7  8  1  0
  8  9  2  0
  9 10  1  0
 10 11  2  0
 11 12  1  0
 12 13  1  0
 12 14  2  0
 14 15  1  0
 15 16  2  0
 15 17  1  0
 17 18  1  0
  5 19  2  0
 19 20  1  0
 20 21  2  0
 21 22  1  0
 22 23  1  0
 23 24  1  0
 24 25  1  0
 25 26  1  0
 26 27  1  0
 21  3  1  0
 27 22  1  0
 17  6  2  0
 14  8  1  0
  1 28  1  0
  1 29  1  0
  1 30  1  0
  2 31  1  0
  2 32  1  0
  4 33  1  0
  9 34  1  0
 10 35  1  0
 11 36  1  0
 13 37  1  0
 18 38  1  0
 19 39  1  0
 20 40  1  0
 23 41  1  0
 23 42  1  0
 24 43  1  0
 24 44  1  0
 25 45  1  0
 25 46  1  0
 26 47  1  0
 26 48  1  0
 27 49  1  0
 27 50  1  0
M  END
>  <meeko>  (9) 
{"is_sidechain": [false], "free_energy": -6.8, "intermolecular_energy": -8.638, "internal_energy": -0.542}

$$$$
