cand_020_out
     RDKit          3D

 50 53  0  0  0  0  0  0  0  0999 V2000
   19.4690  -23.8940   39.7900 C   0  0  0  0  0  0  0  0  0  0  0  0
   19.4970  -24.9860   40.8490 C   0  0  0  0  0  0  0  0  0  0  0  0
   19.4960  -26.3700   40.2390 C   0  0  0  0  0  0  0  0  0  0  0  0
   18.5860  -26.6560   39.2100 C   0  0  0  0  0  0  0  0  0  0  0  0
   18.5360  -27.9250   38.6310 C   0  0  0  0  0  0  0  0  0  0  0  0
   19.3900  -28.9420   39.0700 C   0  0  0  0  0  0  0  0  0  0  0  0
   19.3430  -30.2720   38.4240 C   0  0  0  0  0  0  0  0  0  0  0  0
   18.9470  -31.2810   39.2950 O   0  0  0  0  0  0  0  0  0  0  0  0
   18.8610  -32.5660   38.8250 C   0  0  0  0  0  0  0  0  0  0  0  0
   18.4450  -33.5440   39.7290 C   0  0  0  0  0  0  0  0  0  0  0  0
   18.3380  -34.8740   39.3160 C   0  0  0  0  0  0  0  0  0  0  0  0
   18.6460  -35.2260   38.0010 C   0  0  0  0  0  0  0  0  0  0  0  0
   19.0600  -34.2480   37.1000 C   0  0  0  0  0  0  0  0  0  0  0  0
   19.3470  -34.6610   35.8280 O   0  0  0  0  0  0  0  0  0  0  0  0
   19.1670  -32.9170   37.5140 C   0  0  0  0  0  0  0  0  0  0  0  0
   19.5990  -31.8580   36.6000 C   0  0  0  0  0  0  0  0  0  0  0  0
   19.8930  -32.0900   35.4290 O   0  0  0  0  0  0  0  0  0  0  0  0
   19.6710  -30.4790   37.1350 C   0  0  0  0  0  0  0  0  0  0  0  0
   20.0920  -29.4900   36.2650 O   0  0  0  0  0  0  0  0  0  0  0  0
   20.3010  -28.6540   40.0970 C   0  0  0  0  0  0  0  0  0  0  0  0
   20.3610  -27.3830   40.7000 C   0  0  0  0  0  0  0  0  0  0  0  0
   21.2720  -27.0950   41.7420 N   0  0  0  0  0  0  0  0  0  0  0  0
   20.6260  -26.9610   43.0570 C   0  0  0  0  0  0  0  0  0  0  0  0
   21.6450  -26.4140   44.0560 C   0  0  0  0  0  0  0  0  0  0  0  0
   22.8920  -27.2970   44.1110 C   0  0  0  0  0  0  0  0  0  0  0  0
   23.4760  -27.5040   42.7140 C   0  0  0  0  0  0  0  0  0  0  0  0
   22.4170  -28.0190   41.7380 C   0  0  0  0  0  0  0  0  0  0  0  0
   19.4437  -22.9092   40.2794 H   0  0  0  0  0  0  0  0  0  0  0  0
   20.3694  -23.9686   39.1625 H   0  0  0  0  0  0  0  0  0  0  0  0
   18.5737  -24.0147   39.1625 H   0  0  0  0  0  0  0  0  0  0  0  0
   20.4058  -24.8671   41.4572 H   0  0  0  0  0  0  0  0  0  0  0  0
   18.5899  -24.8858   41.4631 H   0  0  0  0  0  0  0  0  0  0  0  0
   17.9032  -25.8700   38.8550 H   0  0  0  0  0  0  0  0  0  0  0  0
   17.8185  -28.1271   37.8221 H   0  0  0  0  0  0  0  0  0  0  0  0
   18.2016  -33.2680   40.7656 H   0  0  0  0  0  0  0  0  0  0  0  0
   18.0104  -35.6454   40.0284 H   0  0  0  0  0  0  0  0  0  0  0  0
   18.5619  -36.2738   37.6769 H   0  0  0  0  0  0  0  0  0  0  0  0
   19.2780  -34.0580   35.1130 H   0  0  0  0  0  0  0  0  0  0  0  0
   19.9010  -29.5570   35.3510 H   0  0  0  0  0  0  0  0  0  0  0  0
   20.9870  -29.4423   40.4405 H   0  0  0  0  0  0  0  0  0  0  0  0
   19.7747  -26.2684   42.9813 H   0  0  0  0  0  0  0  0  0  0  0  0
   20.2625  -27.9425   43.3953 H   0  0  0  0  0  0  0  0  0  0  0  0
   21.9373  -25.3984   43.7510 H   0  0  0  0  0  0  0  0  0  0  0  0
   21.1827  -26.4005   45.0540 H   0  0  0  0  0  0  0  0  0  0  0  0
   23.6470  -26.8145   44.7491 H   0  0  0  0  0  0  0  0  0  0  0  0
   22.6104  -28.2773   44.5229 H   0  0  0  0  0  0  0  0  0  0  0  0
   23.8677  -26.5450   42.3440 H   0  0  0  0  0  0  0  0  0  0  0  0
   24.2786  -28.2531   42.7815 H   0  0  0  0  0  0  0  0  0  0  0  0
   22.8437  -28.0730   40.7256 H   0  0  0  0  0  0  0  0  0  0  0  0
   22.0859  -29.0223   42.0443 H   0  0  0  0  0  0  0  0  0  0  0  0
  1  2  1  0
  2  3  1  0
  3  4  2  0
  4  5  1  0
  5  6  2  0
  6  7  1  0
  7  8  1  0
  8  9  1  0
  9 10  2  0
 10 11  1  0
 11 12  2  0
 12 13  1  0
 13 14  1  0
 13 15  2  0
 15 16  1  0
 16 17  2  0
 16 18  1  0
 18 19  1  0
  6 20  1  0
 20 21  2  0
 21 22  1  0
 22 23  1  0
 23 24  1  0
 24 25  1  0
 25 26  1  0
 26 27  1  0
 21  3  1  0
 27 22  1  0
 18  7  2  0
 15  9  1  0
  1 28  1  0
  1 29  1  0
  1 30  1  0
  2 31  1  0
  2 32  1  0
  4 33  1  0
  5 34  1  0
 10 35  1  0
 11 36  1  0
 12 37  1  0
 14 38  1  0
 19 39  1  0
 20 40  1  0
 23 41  1  0
 23 42  1  0
 24 43  1  0
 24 44  1  0
 25 45  1  0
 25 46  1  0
 26 47  1  0
 26 48  1  0
 27 49  1  0
 27 50  1  0
M  END
>  <meeko>  (1) 
{"is_sidechain": [false], "free_energy": -8.25, "intermolecular_energy": -10.18, "internal_energy": -0.44}

$$$$
cand_020_out
     RDKit          3D

 50 53  0  0  0  0  0  0  0  0999 V2000
   19.5610  -26.8130   41.8510 C   0  0  0  0  0  0  0  0  0  0  0  0
   18.6960  -26.4850   40.6430 C   0  0  0  0  0  0  0  0  0  0  0  0
   18.9740  -27.4080   39.4770 C   0  0  0  0  0  0  0  0  0  0  0  0
   19.3210  -28.7430   39.7380 C   0  0  0  0  0  0  0  0  0  0  0  0
   19.6050  -29.6250   38.6950 C   0  0  0  0  0  0  0  0  0  0  0  0
   19.5560  -29.1940   37.3640 C   0  0  0  0  0  0  0  0  0  0  0  0
   19.8310  -30.1510   36.2710 C   0  0  0  0  0  0  0  0  0  0  0  0
   19.4960  -31.4600   36.6020 O   0  0  0  0  0  0  0  0  0  0  0  0
   19.7000  -32.4510   35.6770 C   0  0  0  0  0  0  0  0  0  0  0  0
   19.3370  -33.7460   36.0470 C   0  0  0  0  0  0  0  0  0  0  0  0
   19.5200  -34.8030   35.1530 C   0  0  0  0  0  0  0  0  0  0  0  0
   20.0650  -34.5650   33.8890 C   0  0  0  0  0  0  0  0  0  0  0  0
   20.4260  -33.2710   33.5230 C   0  0  0  0  0  0  0  0  0  0  0  0
   20.9550  -33.1090   32.2720 O   0  0  0  0  0  0  0  0  0  0  0  0
   20.2430  -32.2140   34.4180 C   0  0  0  0  0  0  0  0  0  0  0  0
   20.6100  -30.8400   34.0740 C   0  0  0  0  0  0  0  0  0  0  0  0
   21.1010  -30.5510   32.9840 O   0  0  0  0  0  0  0  0  0  0  0  0
   20.3670  -29.7900   35.0900 C   0  0  0  0  0  0  0  0  0  0  0  0
   20.7280  -28.4980   34.7570 O   0  0  0  0  0  0  0  0  0  0  0  0
   19.2060  -27.8610   37.1060 C   0  0  0  0  0  0  0  0  0  0  0  0
   18.9250  -26.9530   38.1450 C   0  0  0  0  0  0  0  0  0  0  0  0
   18.5820  -25.6060   37.8850 N   0  0  0  0  0  0  0  0  0  0  0  0
   19.7520  -24.7230   37.7600 C   0  0  0  0  0  0  0  0  0  0  0  0
   19.2760  -23.2710   37.7280 C   0  0  0  0  0  0  0  0  0  0  0  0
   18.2610  -23.0490   36.6070 C   0  0  0  0  0  0  0  0  0  0  0  0
   17.1130  -24.0520   36.7020 C   0  0  0  0  0  0  0  0  0  0  0  0
   17.6320  -25.4890   36.7660 C   0  0  0  0  0  0  0  0  0  0  0  0
   18.9996  -26.6001   42.7727 H   0  0  0  0  0  0  0  0  0  0  0  0
   19.8360  -27.8778   41.8268 H   0  0  0  0  0  0  0  0  0  0  0  0
   20.4728  -26.1982   41.8268 H   0  0  0  0  0  0  0  0  0  0  0  0
   17.6379  -26.5817   40.9276 H   0  0  0  0  0  0  0  0  0  0  0  0
   18.9316  -25.4583   40.3262 H   0  0  0  0  0  0  0  0  0  0  0  0
   19.3696  -29.0981   40.7780 H   0  0  0  0  0  0  0  0  0  0  0  0
   19.8698  -30.6685   38.9206 H   0  0  0  0  0  0  0  0  0  0  0  0
   18.9071  -33.9344   37.0418 H   0  0  0  0  0  0  0  0  0  0  0  0
   19.2346  -35.8245   35.4445 H   0  0  0  0  0  0  0  0  0  0  0  0
   20.2086  -35.3977   33.1847 H   0  0  0  0  0  0  0  0  0  0  0  0
   21.8790  -32.9850   32.1660 H   0  0  0  0  0  0  0  0  0  0  0  0
   20.1610  -27.9740   34.2270 H   0  0  0  0  0  0  0  0  0  0  0  0
   19.1494  -27.5150   36.0634 H   0  0  0  0  0  0  0  0  0  0  0  0
   20.4214  -24.8732   38.6199 H   0  0  0  0  0  0  0  0  0  0  0  0
   20.2976  -24.9566   36.8338 H   0  0  0  0  0  0  0  0  0  0  0  0
   18.8061  -23.0257   38.6918 H   0  0  0  0  0  0  0  0  0  0  0  0
   20.1454  -22.6224   37.5455 H   0  0  0  0  0  0  0  0  0  0  0  0
   17.8555  -22.0295   36.6855 H   0  0  0  0  0  0  0  0  0  0  0  0
   18.7691  -23.1881   35.6413 H   0  0  0  0  0  0  0  0  0  0  0  0
   16.5282  -23.8418   37.6097 H   0  0  0  0  0  0  0  0  0  0  0  0
   16.4879  -23.9492   35.8027 H   0  0  0  0  0  0  0  0  0  0  0  0
   16.7897  -26.1787   36.9236 H   0  0  0  0  0  0  0  0  0  0  0  0
   18.1360  -25.7446   35.8222 H   0  0  0  0  0  0  0  0  0  0  0  0
  1  2  1  0
  2  3  1  0
  3  4  2  0
  4  5  1  0
  5  6  2  0
  6  7  1  0
  7  8  1  0
  8  9  1  0
  9 10  2  0
 10 11  1  0
 11 12  2  0
 12 13  1  0
 13 14  1  0
 13 15  2  0
 15 16  1  0
 16 17  2  0
 16 18  1  0
 18 19  1  0
  6 20  1  0
 20 21  2  0
 21 22  1  0
 22 23  1  0
 23 24  1  0
 24 25  1  0
 25 26  1  0
 26 27  1  0
 21  3  1  0
 27 22  1  0
 18  7  2  0
 15  9  1  0
  1 28  1  0
  1 29  1  0
  1 30  1  0
  2 31  1  0
  2 32  1  0
  4 33  1  0
  5 34  1  0
 10 35  1  0
 11 36  1  0
 12 37  1  0
 14 38  1  0
 19 39  1  0
 20 40  1  0
 23 41  1  0
 23 42  1  0
 24 43  1  0
 24 44  1  0
 25 45  1  0
 25 46  1  0
 26 47  1  0
 26 48  1  0
 27 49  1  0
 27 50  1  0
M  END
>  <meeko>  (2) 
{"is_sidechain": [false], "free_energy": -7.767, "intermolecular_energy": -9.636, "internal_energy": -0.388}

$$$$
cand_020_out
     RDKit          3D

 50 53  0  0  0  0  0  0  0  0999 V2000
   18.5710  -34.5590   39.3740 C   0  0  0  0  0  0  0  0  0  0  0  0
   19.2990  -34.0020   38.1610 C   0  0  0  0  0  0  0  0  0  0  0  0
   19.3320  -32.4890   38.1630 C   0  0  0  0  0  0  0  0  0  0  0  0
   18.9690  -31.8060   39.3330 C   0  0  0  0  0  0  0  0  0  0  0  0
   18.9660  -30.4110   39.3760 C   0  0  0  0  0  0  0  0  0  0  0  0
   19.3180  -29.6630   38.2470 C   0  0  0  0  0  0  0  0  0  0  0  0
   19.3380  -28.1860   38.3190 C   0  0  0  0  0  0  0  0  0  0  0  0
   18.5690  -27.5870   37.3270 O   0  0  0  0  0  0  0  0  0  0  0  0
   18.5000  -26.2190   37.2780 C   0  0  0  0  0  0  0  0  0  0  0  0
   17.7050  -25.6610   36.2750 C   0  0  0  0  0  0  0  0  0  0  0  0
   17.5920  -24.2730   36.1680 C   0  0  0  0  0  0  0  0  0  0  0  0
   18.2720  -23.4430   37.0620 C   0  0  0  0  0  0  0  0  0  0  0  0
   19.0640  -24.0030   38.0610 C   0  0  0  0  0  0  0  0  0  0  0  0
   19.7030  -23.1340   38.9020 O   0  0  0  0  0  0  0  0  0  0  0  0
   19.1770  -25.3920   38.1690 C   0  0  0  0  0  0  0  0  0  0  0  0
   19.9990  -26.0210   39.2040 C   0  0  0  0  0  0  0  0  0  0  0  0
   20.6320  -25.3580   40.0230 O   0  0  0  0  0  0  0  0  0  0  0  0
   20.0450  -27.5010   39.2370 C   0  0  0  0  0  0  0  0  0  0  0  0
   20.8340  -28.0830   40.2120 O   0  0  0  0  0  0  0  0  0  0  0  0
   19.6830  -30.3490   37.0780 C   0  0  0  0  0  0  0  0  0  0  0  0
   19.6840  -31.7550   37.0130 C   0  0  0  0  0  0  0  0  0  0  0  0
   20.0420  -32.4460   35.8320 N   0  0  0  0  0  0  0  0  0  0  0  0
   19.1990  -33.6240   35.5710 C   0  0  0  0  0  0  0  0  0  0  0  0
   19.8140  -34.4290   34.4270 C   0  0  0  0  0  0  0  0  0  0  0  0
   19.9990  -33.5630   33.1820 C   0  0  0  0  0  0  0  0  0  0  0  0
   20.7860  -32.2950   33.5100 C   0  0  0  0  0  0  0  0  0  0  0  0
   20.1580  -31.5370   34.6800 C   0  0  0  0  0  0  0  0  0  0  0  0
   19.0526  -34.1905   40.2918 H   0  0  0  0  0  0  0  0  0  0  0  0
   17.5211  -34.2314   39.3539 H   0  0  0  0  0  0  0  0  0  0  0  0
   18.6126  -35.6580   39.3539 H   0  0  0  0  0  0  0  0  0  0  0  0
   20.3322  -34.3795   38.1630 H   0  0  0  0  0  0  0  0  0  0  0  0
   18.7571  -34.3281   37.2610 H   0  0  0  0  0  0  0  0  0  0  0  0
   18.6829  -32.3773   40.2284 H   0  0  0  0  0  0  0  0  0  0  0  0
   18.6844  -29.8949   40.3057 H   0  0  0  0  0  0  0  0  0  0  0  0
   17.1686  -26.3134   35.5703 H   0  0  0  0  0  0  0  0  0  0  0  0
   16.9661  -23.8326   35.3779 H   0  0  0  0  0  0  0  0  0  0  0  0
   18.1822  -22.3500   36.9772 H   0  0  0  0  0  0  0  0  0  0  0  0
   20.6090  -22.9330   38.7680 H   0  0  0  0  0  0  0  0  0  0  0  0
   20.8710  -29.0160   40.2900 H   0  0  0  0  0  0  0  0  0  0  0  0
   19.9762  -29.7721   36.1885 H   0  0  0  0  0  0  0  0  0  0  0  0
   19.1465  -34.2482   36.4752 H   0  0  0  0  0  0  0  0  0  0  0  0
   18.1836  -33.3022   35.2965 H   0  0  0  0  0  0  0  0  0  0  0  0
   20.7938  -34.8145   34.7452 H   0  0  0  0  0  0  0  0  0  0  0  0
   19.1346  -35.2576   34.1783 H   0  0  0  0  0  0  0  0  0  0  0  0
   20.5457  -34.1391   32.4209 H   0  0  0  0  0  0  0  0  0  0  0  0
   19.0069  -33.2727   32.8060 H   0  0  0  0  0  0  0  0  0  0  0  0
   21.8171  -32.5719   33.7749 H   0  0  0  0  0  0  0  0  0  0  0  0
   20.7731  -31.6405   32.6260 H   0  0  0  0  0  0  0  0  0  0  0  0
   20.7938  -30.6805   34.9485 H   0  0  0  0  0  0  0  0  0  0  0  0
   19.1612  -31.1705   34.3936 H   0  0  0  0  0  0  0  0  0  0  0  0
  1  2  1  0
  2  3  1  0
  3  4  2  0
  4  5  1  0
  5  6  2  0
  6  7  1  0
  7  8  1  0
  8  9  1  0
  9 10  2  0
 10 11  1  0
 11 12  2  0
 12 13  1  0
 13 14  1  0
 13 15  2  0
 15 16  1  0
 16 17  2  0
 16 18  1  0
 18 19  1  0
  6 20  1  0
 20 21  2  0
 21 22  1  0
 22 23  1  0
 23 24  1  0
 24 25  1  0
 25 26  1  0
 26 27  1  0
 21  3  1  0
 27 22  1  0
 18  7  2  0
 15  9  1  0
  1 28  1  0
  1 29  1  0
  1 30  1  0
  2 31  1  0
  2 32  1  0
  4 33  1  0
  5 34  1  0
 10 35  1  0
 11 36  1  0
 12 37  1  0
 14 38  1  0
 19 39  1  0
 20 40  1  0
 23 41  1  0
 23 42  1  0
 24 43  1  0
 24 44  1  0
 25 45  1  0
 25 46  1  0
 26 47  1  0
 26 48  1  0
 27 49  1  0
 27 50  1  0
M  END
>  <meeko>  (3) 
{"is_sidechain": [false], "free_energy": -7.743, "intermolecular_energy": -10.439, "internal_energy": 0.445}

$$$$
cand_020_out
     RDKit          3D

 50 53  0  0  0  0  0  0  0  0999 V2000
   19.5890  -24.8400   42.4070 C   0  0  0  0  0  0  0  0  0  0  0  0
   19.6220  -24.6970   40.8930 C   0  0  0  0  0  0  0  0  0  0  0  0
   19.5550  -26.0370   40.1940 C   0  0  0  0  0  0  0  0  0  0  0  0
   20.0280  -27.1760   40.8650 C   0  0  0  0  0  0  0  0  0  0  0  0
   20.0040  -28.4290   40.2530 C   0  0  0  0  0  0  0  0  0  0  0  0
   19.5130  -28.5770   38.9510 C   0  0  0  0  0  0  0  0  0  0  0  0
   19.4670  -29.9170   38.3290 C   0  0  0  0  0  0  0  0  0  0  0  0
   19.1050  -30.9160   39.2270 O   0  0  0  0  0  0  0  0  0  0  0  0
   19.0240  -32.2100   38.7820 C   0  0  0  0  0  0  0  0  0  0  0  0
   18.6430  -33.1770   39.7130 C   0  0  0  0  0  0  0  0  0  0  0  0
   18.5420  -34.5150   39.3260 C   0  0  0  0  0  0  0  0  0  0  0  0
   18.8220  -34.8870   38.0090 C   0  0  0  0  0  0  0  0  0  0  0  0
   19.2020  -33.9190   37.0820 C   0  0  0  0  0  0  0  0  0  0  0  0
   19.4620  -34.3510   35.8110 O   0  0  0  0  0  0  0  0  0  0  0  0
   19.3020  -32.5800   37.4700 C   0  0  0  0  0  0  0  0  0  0  0  0
   19.6980  -31.5320   36.5280 C   0  0  0  0  0  0  0  0  0  0  0  0
   19.9670  -31.7810   35.3540 O   0  0  0  0  0  0  0  0  0  0  0  0
   19.7660  -30.1430   37.0370 C   0  0  0  0  0  0  0  0  0  0  0  0
   20.1530  -29.1640   36.1400 O   0  0  0  0  0  0  0  0  0  0  0  0
   19.0380  -27.4380   38.2830 C   0  0  0  0  0  0  0  0  0  0  0  0
   19.0620  -26.1630   38.8800 C   0  0  0  0  0  0  0  0  0  0  0  0
   18.5930  -25.0140   38.2030 N   0  0  0  0  0  0  0  0  0  0  0  0
   19.6730  -24.1130   37.7710 C   0  0  0  0  0  0  0  0  0  0  0  0
   19.0590  -22.8030   37.2780 C   0  0  0  0  0  0  0  0  0  0  0  0
   18.0390  -23.0570   36.1690 C   0  0  0  0  0  0  0  0  0  0  0  0
   16.9920  -24.0780   36.6120 C   0  0  0  0  0  0  0  0  0  0  0  0
   17.6480  -25.3590   37.1290 C   0  0  0  0  0  0  0  0  0  0  0  0
   19.8132  -23.8687   42.8720 H   0  0  0  0  0  0  0  0  0  0  0  0
   18.5898  -25.1754   42.7219 H   0  0  0  0  0  0  0  0  0  0  0  0
   20.3401  -25.5793   42.7219 H   0  0  0  0  0  0  0  0  0  0  0  0
   18.7630  -24.0877   40.5753 H   0  0  0  0  0  0  0  0  0  0  0  0
   20.5736  -24.2185   40.6183 H   0  0  0  0  0  0  0  0  0  0  0  0
   20.4228  -27.0788   41.8871 H   0  0  0  0  0  0  0  0  0  0  0  0
   20.3745  -29.3092   40.7989 H   0  0  0  0  0  0  0  0  0  0  0  0
   18.4225  -32.8857   40.7506 H   0  0  0  0  0  0  0  0  0  0  0  0
   18.2414  -35.2775   40.0597 H   0  0  0  0  0  0  0  0  0  0  0  0
   18.7427  -35.9411   37.7048 H   0  0  0  0  0  0  0  0  0  0  0  0
   19.8690  -33.7740   35.1940 H   0  0  0  0  0  0  0  0  0  0  0  0
   21.0630  -29.0030   35.9860 H   0  0  0  0  0  0  0  0  0  0  0  0
   18.6357  -27.5442   37.2647 H   0  0  0  0  0  0  0  0  0  0  0  0
   20.3450  -23.9099   38.6178 H   0  0  0  0  0  0  0  0  0  0  0  0
   20.2478  -24.5832   36.9595 H   0  0  0  0  0  0  0  0  0  0  0  0
   18.5578  -22.3021   38.1193 H   0  0  0  0  0  0  0  0  0  0  0  0
   19.8632  -22.1700   36.8749 H   0  0  0  0  0  0  0  0  0  0  0  0
   17.5361  -22.1111   35.9192 H   0  0  0  0  0  0  0  0  0  0  0  0
   18.5679  -23.4556   35.2907 H   0  0  0  0  0  0  0  0  0  0  0  0
   16.3811  -23.6393   37.4147 H   0  0  0  0  0  0  0  0  0  0  0  0
   16.3679  -24.3341   35.7432 H   0  0  0  0  0  0  0  0  0  0  0  0
   16.8753  -26.0365   37.5213 H   0  0  0  0  0  0  0  0  0  0  0  0
   18.1841  -25.8589   36.3089 H   0  0  0  0  0  0  0  0  0  0  0  0
  1  2  1  0
  2  3  1  0
  3  4  2  0
  4  5  1  0
  5  6  2  0
  6  7  1  0
  7  8  1  0
  8  9  1  0
  9 10  2  0
 10 11  1  0
 11 12  2  0
 12 13  1  0
 13 14  1  0
 13 15  2  0
 15 16  1  0
 16 17  2  0
 16 18  1  0
 18 19  1  0
  6 20  1  0
 20 21  2  0
 21 22  1  0
 22 23  1  0
 23 24  1  0
 24 25  1  0
 25 26  1  0
 26 27  1  0
 21  3  1  0
 27 22  1  0
 18  7  2  0
 15  9  1  0
  1 28  1  0
  1 29  1  0
  1 30  1  0
  2 31  1  0
  2 32  1  0
  4 33  1  0
  5 34  1  0
 10 35  1  0
 11 36  1  0
 12 37  1  0
 14 38  1  0
 19 39  1  0
 20 40  1  0
 23 41  1  0
 23 42  1  0
 24 43  1  0
 24 44  1  0
 25 45  1  0
 25 46  1  0
 26 47  1  0
 26 48  1  0
 27 49  1  0
 27 50  1  0
M  END
>  <meeko>  (4) 
{"is_sidechain": [false], "free_energy": -7.739, "intermolecular_energy": -9.769, "internal_energy": -0.219}

$$$$
cand_020_out
     RDKit          3D

 50 53  0  0  0  0  0  0  0  0999 V2000
   18.5060  -35.1890   39.1000 C   0  0  0  0  0  0  0  0  0  0  0  0
   19.1390  -34.5250   37.8870 C   0  0  0  0  0  0  0  0  0  0  0  0
   19.2350  -33.0240   38.0460 C   0  0  0  0  0  0  0  0  0  0  0  0
   18.8590  -32.4470   39.2680 C   0  0  0  0  0  0  0  0  0  0  0  0
   18.9130  -31.0640   39.4540 C   0  0  0  0  0  0  0  0  0  0  0  0
   19.3370  -30.2230   38.4190 C   0  0  0  0  0  0  0  0  0  0  0  0
   19.4160  -28.7630   38.6430 C   0  0  0  0  0  0  0  0  0  0  0  0
   19.5210  -28.4300   39.9890 O   0  0  0  0  0  0  0  0  0  0  0  0
   19.6020  -27.1070   40.3400 C   0  0  0  0  0  0  0  0  0  0  0  0
   19.7220  -26.8190   41.7000 C   0  0  0  0  0  0  0  0  0  0  0  0
   19.8070  -25.4910   42.1260 C   0  0  0  0  0  0  0  0  0  0  0  0
   19.7740  -24.4530   41.1930 C   0  0  0  0  0  0  0  0  0  0  0  0
   19.6550  -24.7440   39.8360 C   0  0  0  0  0  0  0  0  0  0  0  0
   19.6270  -23.6800   38.9770 O   0  0  0  0  0  0  0  0  0  0  0  0
   19.5690  -26.0720   39.4100 C   0  0  0  0  0  0  0  0  0  0  0  0
   19.4430  -26.4210   37.9950 C   0  0  0  0  0  0  0  0  0  0  0  0
   19.4000  -25.5640   37.1150 O   0  0  0  0  0  0  0  0  0  0  0  0
   19.3690  -27.8590   37.6470 C   0  0  0  0  0  0  0  0  0  0  0  0
   19.2370  -28.1760   36.3080 O   0  0  0  0  0  0  0  0  0  0  0  0
   19.7140  -30.8030   37.1980 C   0  0  0  0  0  0  0  0  0  0  0  0
   19.6590  -32.1940   36.9890 C   0  0  0  0  0  0  0  0  0  0  0  0
   20.0300  -32.7770   35.7550 N   0  0  0  0  0  0  0  0  0  0  0  0
   19.1720  -33.9080   35.3670 C   0  0  0  0  0  0  0  0  0  0  0  0
   19.7970  -34.6140   34.1640 C   0  0  0  0  0  0  0  0  0  0  0  0
   20.0250  -33.6380   33.0110 C   0  0  0  0  0  0  0  0  0  0  0  0
   20.8270  -32.4230   33.4730 C   0  0  0  0  0  0  0  0  0  0  0  0
   20.1870  -31.7660   34.6970 C   0  0  0  0  0  0  0  0  0  0  0  0
   18.9241  -34.7504   40.0180 H   0  0  0  0  0  0  0  0  0  0  0  0
   17.4179  -35.0287   39.0797 H   0  0  0  0  0  0  0  0  0  0  0  0
   18.7181  -36.2682   39.0797 H   0  0  0  0  0  0  0  0  0  0  0  0
   20.1512  -34.9324   37.7474 H   0  0  0  0  0  0  0  0  0  0  0  0
   18.5014  -34.7334   37.0152 H   0  0  0  0  0  0  0  0  0  0  0  0
   18.5171  -33.0924   40.0906 H   0  0  0  0  0  0  0  0  0  0  0  0
   18.6198  -30.6321   40.4222 H   0  0  0  0  0  0  0  0  0  0  0  0
   19.7496  -27.6363   42.4357 H   0  0  0  0  0  0  0  0  0  0  0  0
   19.9001  -25.2630   43.1981 H   0  0  0  0  0  0  0  0  0  0  0  0
   19.8418  -23.4077   41.5287 H   0  0  0  0  0  0  0  0  0  0  0  0
   18.9060  -23.5730   38.3870 H   0  0  0  0  0  0  0  0  0  0  0  0
   18.5520  -28.7500   36.0270 H   0  0  0  0  0  0  0  0  0  0  0  0
   20.0620  -30.1528   36.3818 H   0  0  0  0  0  0  0  0  0  0  0  0
   19.0888  -34.6135   36.2069 H   0  0  0  0  0  0  0  0  0  0  0  0
   18.1687  -33.5415   35.1041 H   0  0  0  0  0  0  0  0  0  0  0  0
   20.7624  -35.0479   34.4637 H   0  0  0  0  0  0  0  0  0  0  0  0
   19.1081  -35.4014   33.8242 H   0  0  0  0  0  0  0  0  0  0  0  0
   20.5778  -34.1505   32.2099 H   0  0  0  0  0  0  0  0  0  0  0  0
   19.0467  -33.2935   32.6447 H   0  0  0  0  0  0  0  0  0  0  0  0
   21.8469  -32.7442   33.7312 H   0  0  0  0  0  0  0  0  0  0  0  0
   20.8453  -31.6880   32.6548 H   0  0  0  0  0  0  0  0  0  0  0  0
   20.8319  -30.9512   35.0580 H   0  0  0  0  0  0  0  0  0  0  0  0
   19.2034  -31.3544   34.4267 H   0  0  0  0  0  0  0  0  0  0  0  0
  1  2  1  0
  2  3  1  0
  3  4  2  0
  4  5  1  0
  5  6  2  0
  6  7  1  0
  7  8  1  0
  8  9  1  0
  9 10  2  0
 10 11  1  0
 11 12  2  0
 12 13  1  0
 13 14  1  0
 13 15  2  0
 15 16  1  0
 16 17  2  0
 16 18  1  0
 18 19  1  0
  6 20  1  0
 20 21  2  0
 21 22  1  0
 22 23  1  0
 23 24  1  0
 24 25  1  0
 25 26  1  0
 26 27  1  0
 21  3  1  0
 27 22  1  0
 18  7  2  0
 15  9  1  0
  1 28  1  0
  1 29  1  0
  1 30  1  0
  2 31  1  0
  2 32  1  0
  4 33  1  0
  5 34  1  0
 10 35  1  0
 11 36  1  0
 12 37  1  0
 14 38  1  0
 19 39  1  0
 20 40  1  0
 23 41  1  0
 23 42  1  0
 24 43  1  0
 24 44  1  0
 25 45  1  0
 25 46  1  0
 26 47  1  0
 26 48  1  0
 27 49  1  0
 27 50  1  0
M  END
>  <meeko>  (5) 
{"is_sidechain": [false], "free_energy": -7.463, "intermolecular_energy": -10.424, "internal_energy": 0.777}

$$$$
cand_020_out
     RDKit          3D

 50 53  0  0  0  0  0  0  0  0999 V2000
   18.5980  -27.4530   35.1790 C   0  0  0  0  0  0  0  0  0  0  0  0
   17.7420  -27.1960   36.4100 C   0  0  0  0  0  0  0  0  0  0  0  0
   18.5700  -27.1300   37.6750 C   0  0  0  0  0  0  0  0  0  0  0  0
   18.9180  -28.3270   38.3200 C   0  0  0  0  0  0  0  0  0  0  0  0
   19.6640  -28.3140   39.4990 C   0  0  0  0  0  0  0  0  0  0  0  0
   20.0760  -27.1040   40.0670 C   0  0  0  0  0  0  0  0  0  0  0  0
   20.8920  -27.1110   41.3010 C   0  0  0  0  0  0  0  0  0  0  0  0
   21.9240  -28.0420   41.2590 O   0  0  0  0  0  0  0  0  0  0  0  0
   22.7600  -28.1540   42.3400 C   0  0  0  0  0  0  0  0  0  0  0  0
   23.7910  -29.0900   42.2490 C   0  0  0  0  0  0  0  0  0  0  0  0
   24.6770  -29.2560   43.3170 C   0  0  0  0  0  0  0  0  0  0  0  0
   24.5320  -28.4870   44.4730 C   0  0  0  0  0  0  0  0  0  0  0  0
   23.5030  -27.5530   44.5610 C   0  0  0  0  0  0  0  0  0  0  0  0
   23.4180  -26.8350   45.7210 O   0  0  0  0  0  0  0  0  0  0  0  0
   22.6170  -27.3870   43.4930 C   0  0  0  0  0  0  0  0  0  0  0  0
   21.5210  -26.4180   43.5440 C   0  0  0  0  0  0  0  0  0  0  0  0
   21.3260  -25.7090   44.5290 O   0  0  0  0  0  0  0  0  0  0  0  0
   20.6430  -26.3130   42.3560 C   0  0  0  0  0  0  0  0  0  0  0  0
   19.6050  -25.4030   42.4210 O   0  0  0  0  0  0  0  0  0  0  0  0
   19.7300  -25.9090   39.4190 C   0  0  0  0  0  0  0  0  0  0  0  0
   18.9700  -25.9010   38.2340 C   0  0  0  0  0  0  0  0  0  0  0  0
   18.6120  -24.6950   37.5870 N   0  0  0  0  0  0  0  0  0  0  0  0
   17.2140  -24.3030   37.8230 C   0  0  0  0  0  0  0  0  0  0  0  0
   16.8620  -23.1410   36.8950 C   0  0  0  0  0  0  0  0  0  0  0  0
   17.8300  -21.9740   37.0830 C   0  0  0  0  0  0  0  0  0  0  0  0
   19.2790  -22.4360   36.9380 C   0  0  0  0  0  0  0  0  0  0  0  0
   19.5800  -23.6210   37.8580 C   0  0  0  0  0  0  0  0  0  0  0  0
   19.6081  -27.7563   35.4916 H   0  0  0  0  0  0  0  0  0  0  0  0
   18.1442  -28.2545   34.5776 H   0  0  0  0  0  0  0  0  0  0  0  0
   18.6607  -26.5341   34.5776 H   0  0  0  0  0  0  0  0  0  0  0  0
   17.2138  -26.2397   36.2814 H   0  0  0  0  0  0  0  0  0  0  0  0
   17.0344  -28.0321   36.5113 H   0  0  0  0  0  0  0  0  0  0  0  0
   18.5984  -29.2879   37.8904 H   0  0  0  0  0  0  0  0  0  0  0  0
   19.9305  -29.2636   39.9861 H   0  0  0  0  0  0  0  0  0  0  0  0
   23.9061  -29.6961   41.3383 H   0  0  0  0  0  0  0  0  0  0  0  0
   25.4899  -29.9938   43.2466 H   0  0  0  0  0  0  0  0  0  0  0  0
   25.2296  -28.6187   45.3132 H   0  0  0  0  0  0  0  0  0  0  0  0
   22.8160  -26.1190   45.7870 H   0  0  0  0  0  0  0  0  0  0  0  0
   18.7780  -25.6060   42.0300 H   0  0  0  0  0  0  0  0  0  0  0  0
   20.0615  -24.9521   39.8485 H   0  0  0  0  0  0  0  0  0  0  0  0
   16.5512  -25.1558   37.6145 H   0  0  0  0  0  0  0  0  0  0  0  0
   17.0853  -23.9949   38.8711 H   0  0  0  0  0  0  0  0  0  0  0  0
   16.9136  -23.4861   35.8518 H   0  0  0  0  0  0  0  0  0  0  0  0
   15.8465  -22.7951   37.1381 H   0  0  0  0  0  0  0  0  0  0  0  0
   17.6196  -21.2062   36.3240 H   0  0  0  0  0  0  0  0  0  0  0  0
   17.6924  -21.5639   38.0944 H   0  0  0  0  0  0  0  0  0  0  0  0
   19.4560  -22.7381   35.8952 H   0  0  0  0  0  0  0  0  0  0  0  0
   19.9389  -21.6020   37.2192 H   0  0  0  0  0  0  0  0  0  0  0  0
   20.5997  -23.9866   37.6670 H   0  0  0  0  0  0  0  0  0  0  0  0
   19.5008  -23.3055   38.9088 H   0  0  0  0  0  0  0  0  0  0  0  0
  1  2  1  0
  2  3  1  0
  3  4  2  0
  4  5  1  0
  5  6  2  0
  6  7  1  0
  7  8  1  0
  8  9  1  0
  9 10  2  0
 10 11  1  0
 11 12  2  0
 12 13  1  0
 13 14  1  0
 13 15  2  0
 15 16  1  0
 16 17  2  0
 16 18  1  0
 18 19  1  0
  6 20  1  0
 20 21  2  0
 21 22  1  0
 22 23  1  0
 23 24  1  0
 24 25  1  0
 25 26  1  0
 26 27  1  0
 21  3  1  0
 27 22  1  0
 18  7  2  0
 15  9  1  0
  1 28  1  0
  1 29  1  0
  1 30  1  0
  2 31  1  0
  2 32  1  0
  4 33  1  0
  5 34  1  0
 10 35  1  0
 11 36  1  0
 12 37  1  0
 14 38  1  0
 19 39  1  0
 20 40  1  0
 23 41  1  0
 23 42  1  0
 24 43  1  0
 24 44  1  0
 25 45  1  0
 25 46  1  0
 26 47  1  0
 26 48  1  0
 27 49  1  0
 27 50  1  0
M  END
>  <meeko>  (6) 
{"is_sidechain": [false], "free_energy": -7.442, "intermolecular_energy": -9.213, "internal_energy": -0.408}

$$$$
cand_020_out
     RDKit          3D

 50 53  0  0  0  0  0  0  0  0999 V2000
   21.7690  -24.7610   45.4970 C   0  0  0  0  0  0  0  0  0  0  0  0
   20.3090  -24.4940   45.1650 C   0  0  0  0  0  0  0  0  0  0  0  0
   20.0310  -24.6210   43.6830 C   0  0  0  0  0  0  0  0  0  0  0  0
   20.0020  -25.9000   43.1060 C   0  0  0  0  0  0  0  0  0  0  0  0
   19.7680  -26.0640   41.7400 C   0  0  0  0  0  0  0  0  0  0  0  0
   19.5650  -24.9530   40.9140 C   0  0  0  0  0  0  0  0  0  0  0  0
   19.2890  -25.1470   39.4750 C   0  0  0  0  0  0  0  0  0  0  0  0
   18.1370  -24.4910   39.0530 O   0  0  0  0  0  0  0  0  0  0  0  0
   17.7630  -24.5880   37.7380 C   0  0  0  0  0  0  0  0  0  0  0  0
   16.6090  -23.9020   37.3550 C   0  0  0  0  0  0  0  0  0  0  0  0
   16.1720  -23.9610   36.0300 C   0  0  0  0  0  0  0  0  0  0  0  0
   16.8860  -24.7040   35.0880 C   0  0  0  0  0  0  0  0  0  0  0  0
   18.0370  -25.3870   35.4730 C   0  0  0  0  0  0  0  0  0  0  0  0
   18.6880  -26.0950   34.5010 O   0  0  0  0  0  0  0  0  0  0  0  0
   18.4750  -25.3280   36.7990 C   0  0  0  0  0  0  0  0  0  0  0  0
   19.6790  -26.0310   37.2450 C   0  0  0  0  0  0  0  0  0  0  0  0
   20.3570  -26.7110   36.4760 O   0  0  0  0  0  0  0  0  0  0  0  0
   20.0620  -25.8980   38.6690 C   0  0  0  0  0  0  0  0  0  0  0  0
   21.1940  -26.5770   39.0800 O   0  0  0  0  0  0  0  0  0  0  0  0
   19.5910  -23.6750   41.4940 C   0  0  0  0  0  0  0  0  0  0  0  0
   19.8340  -23.4880   42.8680 C   0  0  0  0  0  0  0  0  0  0  0  0
   19.8710  -22.2000   43.4500 N   0  0  0  0  0  0  0  0  0  0  0  0
   21.1050  -21.4590   43.1420 C   0  0  0  0  0  0  0  0  0  0  0  0
   21.1550  -20.2000   44.0060 C   0  0  0  0  0  0  0  0  0  0  0  0
   19.9030  -19.3460   43.8080 C   0  0  0  0  0  0  0  0  0  0  0  0
   18.6370  -20.1730   44.0300 C   0  0  0  0  0  0  0  0  0  0  0  0
   18.6420  -21.4400   43.1730 C   0  0  0  0  0  0  0  0  0  0  0  0
   21.8983  -24.7846   46.5891 H   0  0  0  0  0  0  0  0  0  0  0  0
   22.0708  -25.7292   45.0710 H   0  0  0  0  0  0  0  0  0  0  0  0
   22.3939  -23.9622   45.0710 H   0  0  0  0  0  0  0  0  0  0  0  0
   19.6835  -25.2187   45.7068 H   0  0  0  0  0  0  0  0  0  0  0  0
   20.0757  -23.4622   45.4667 H   0  0  0  0  0  0  0  0  0  0  0  0
   20.1659  -26.7848   43.7387 H   0  0  0  0  0  0  0  0  0  0  0  0
   19.7429  -27.0757   41.3088 H   0  0  0  0  0  0  0  0  0  0  0  0
   16.0450  -23.3161   38.0956 H   0  0  0  0  0  0  0  0  0  0  0  0
   15.2628  -23.4206   35.7277 H   0  0  0  0  0  0  0  0  0  0  0  0
   16.5404  -24.7498   34.0447 H   0  0  0  0  0  0  0  0  0  0  0  0
   18.2540  -26.2910   33.6930 H   0  0  0  0  0  0  0  0  0  0  0  0
   22.0170  -26.4150   38.6610 H   0  0  0  0  0  0  0  0  0  0  0  0
   19.4167  -22.7952   40.8572 H   0  0  0  0  0  0  0  0  0  0  0  0
   21.9790  -22.0907   43.3590 H   0  0  0  0  0  0  0  0  0  0  0  0
   21.1171  -21.1813   42.0777 H   0  0  0  0  0  0  0  0  0  0  0  0
   21.2263  -20.4930   45.0639 H   0  0  0  0  0  0  0  0  0  0  0  0
   22.0326  -19.6072   43.7087 H   0  0  0  0  0  0  0  0  0  0  0  0
   19.9188  -18.5123   44.5254 H   0  0  0  0  0  0  0  0  0  0  0  0
   19.8972  -18.9653   42.7760 H   0  0  0  0  0  0  0  0  0  0  0  0
   18.5771  -20.4583   45.0907 H   0  0  0  0  0  0  0  0  0  0  0  0
   17.7689  -19.5624   43.7410 H   0  0  0  0  0  0  0  0  0  0  0  0
   17.7642  -22.0555   43.4193 H   0  0  0  0  0  0  0  0  0  0  0  0
   18.6047  -21.1686   42.1077 H   0  0  0  0  0  0  0  0  0  0  0  0
  1  2  1  0
  2  3  1  0
  3  4  2  0
  4  5  1  0
  5  6  2  0
  6  7  1  0
  7  8  1  0
  8  9  1  0
  9 10  2  0
 10 11  1  0
 11 12  2  0
 12 13  1  0
 13 14  1  0
 13 15  2  0
 15 16  1  0
 16 17  2  0
 16 18  1  0
 18 19  1  0
  6 20  1  0
 20 21  2  0
 21 22  1  0
 22 23  1  0
 23 24  1  0
 24 25  1  0
 25 26  1  0
 26 27  1  0
 21  3  1  0
 27 22  1  0
 18  7  2  0
 15  9  1  0
  1 28  1  0
  1 29  1  0
  1 30  1  0
  2 31  1  0
  2 32  1  0
  4 33  1  0
  5 34  1  0
 10 35  1  0
 11 36  1  0
 12 37  1  0
 14 38  1  0
 19 39  1  0
 20 40  1  0
 23 41  1  0
 23 42  1  0
 24 43  1  0
 24 44  1  0
 25 45  1  0
 25 46  1  0
 26 47  1  0
 26 48  1  0
 27 49  1  0
 27 50  1  0
M  END
>  <meeko>  (7) 
{"is_sidechain": [false], "free_energy": -7.382, "intermolecular_energy": -8.847, "internal_energy": -0.701}

$$$$
cand_020_out
     RDKit          3D

 50 53  0  0  0  0  0  0  0  0999 V2000
   19.4370  -28.3700   38.8860 C   0  0  0  0  0  0  0  0  0  0  0  0
   20.2700  -27.0990   38.9490 C   0  0  0  0  0  0  0  0  0  0  0  0
   20.0720  -26.3540   40.2510 C   0  0  0  0  0  0  0  0  0  0  0  0
   20.3490  -27.0140   41.4580 C   0  0  0  0  0  0  0  0  0  0  0  0
   20.1620  -26.3730   42.6840 C   0  0  0  0  0  0  0  0  0  0  0  0
   19.6870  -25.0580   42.7340 C   0  0  0  0  0  0  0  0  0  0  0  0
   19.5240  -24.3840   44.0410 C   0  0  0  0  0  0  0  0  0  0  0  0
   20.4970  -24.7540   44.9630 O   0  0  0  0  0  0  0  0  0  0  0  0
   20.4640  -24.2040   46.2180 C   0  0  0  0  0  0  0  0  0  0  0  0
   21.4680  -24.5930   47.1070 C   0  0  0  0  0  0  0  0  0  0  0  0
   21.4920  -24.0700   48.4020 C   0  0  0  0  0  0  0  0  0  0  0  0
   20.5140  -23.1610   48.8090 C   0  0  0  0  0  0  0  0  0  0  0  0
   19.5140  -22.7740   47.9200 C   0  0  0  0  0  0  0  0  0  0  0  0
   18.5870  -21.8810   48.3830 O   0  0  0  0  0  0  0  0  0  0  0  0
   19.4900  -23.2960   46.6240 C   0  0  0  0  0  0  0  0  0  0  0  0
   18.4570  -22.9180   45.6590 C   0  0  0  0  0  0  0  0  0  0  0  0
   17.5590  -22.1280   45.9440 O   0  0  0  0  0  0  0  0  0  0  0  0
   18.5270  -23.5210   44.3080 C   0  0  0  0  0  0  0  0  0  0  0  0
   17.5380  -23.1650   43.4090 O   0  0  0  0  0  0  0  0  0  0  0  0
   19.4140  -24.3990   41.5260 C   0  0  0  0  0  0  0  0  0  0  0  0
   19.5860  -25.0310   40.2800 C   0  0  0  0  0  0  0  0  0  0  0  0
   19.3010  -24.3710   39.0630 N   0  0  0  0  0  0  0  0  0  0  0  0
   18.0560  -24.8350   38.4300 C   0  0  0  0  0  0  0  0  0  0  0  0
   17.9680  -24.2470   37.0220 C   0  0  0  0  0  0  0  0  0  0  0  0
   18.0670  -22.7220   37.0550 C   0  0  0  0  0  0  0  0  0  0  0  0
   19.3150  -22.2720   37.8130 C   0  0  0  0  0  0  0  0  0  0  0  0
   19.3820  -22.9080   39.2020 C   0  0  0  0  0  0  0  0  0  0  0  0
   19.2126  -28.7123   39.9070 H   0  0  0  0  0  0  0  0  0  0  0  0
   18.4968  -28.1661   38.3527 H   0  0  0  0  0  0  0  0  0  0  0  0
   19.9991  -29.1508   38.3527 H   0  0  0  0  0  0  0  0  0  0  0  0
   21.3326  -27.3659   38.8509 H   0  0  0  0  0  0  0  0  0  0  0  0
   19.9470  -26.4407   38.1290 H   0  0  0  0  0  0  0  0  0  0  0  0
   20.7183  -28.0500   41.4379 H   0  0  0  0  0  0  0  0  0  0  0  0
   20.3901  -26.9064   43.6186 H   0  0  0  0  0  0  0  0  0  0  0  0
   22.2387  -25.3101   46.7881 H   0  0  0  0  0  0  0  0  0  0  0  0
   22.2833  -24.3751   49.1026 H   0  0  0  0  0  0  0  0  0  0  0  0
   20.5330  -22.7512   49.8296 H   0  0  0  0  0  0  0  0  0  0  0  0
   17.7490  -22.1840   48.6740 H   0  0  0  0  0  0  0  0  0  0  0  0
   17.2090  -22.2880   43.3990 H   0  0  0  0  0  0  0  0  0  0  0  0
   19.0555  -23.3594   41.5532 H   0  0  0  0  0  0  0  0  0  0  0  0
   18.0583  -25.9335   38.3720 H   0  0  0  0  0  0  0  0  0  0  0  0
   17.1907  -24.5081   39.0253 H   0  0  0  0  0  0  0  0  0  0  0  0
   18.7922  -24.6474   36.4134 H   0  0  0  0  0  0  0  0  0  0  0  0
   16.9962  -24.5246   36.5877 H   0  0  0  0  0  0  0  0  0  0  0  0
   18.1156  -22.3420   36.0239 H   0  0  0  0  0  0  0  0  0  0  0  0
   17.1806  -22.3237   37.5704 H   0  0  0  0  0  0  0  0  0  0  0  0
   20.2072  -22.5664   37.2409 H   0  0  0  0  0  0  0  0  0  0  0  0
   19.2725  -21.1794   37.9335 H   0  0  0  0  0  0  0  0  0  0  0  0
   20.3309  -22.6355   39.6871 H   0  0  0  0  0  0  0  0  0  0  0  0
   18.5452  -22.5461   39.8175 H   0  0  0  0  0  0  0  0  0  0  0  0
  1  2  1  0
  2  3  1  0
  3  4  2  0
  4  5  1  0
  5  6  2  0
  6  7  1  0
  7  8  1  0
  8  9  1  0
  9 10  2  0
 10 11  1  0
 11 12  2  0
 12 13  1  0
 13 14  1  0
 13 15  2  0
 15 16  1  0
 16 17  2  0
 16 18  1  0
 18 19  1  0
  6 20  1  0
 20 21  2  0
 21 22  1  0
 22 23  1  0
 23 24  1  0
 24 25  1  0
 25 26  1  0
 26 27  1  0
 21  3  1  0
 27 22  1  0
 18  7  2  0
 15  9  1  0
  1 28  1  0
  1 29  1  0
  1 30  1  0
  2 31  1  0
  2 32  1  0
  4 33  1  0
  5 34  1  0
 10 35  1  0
 11 36  1  0
 12 37  1  0
 14 38  1  0
 19 39  1  0
 20 40  1  0
 23 41  1  0
 23 42  1  0
 24 43  1  0
 24 44  1  0
 25 45  1  0
 25 46  1  0
 26 47  1  0
 26 48  1  0
 27 49  1  0
 27 50  1  0
M  END
>  <meeko>  (8) 
{"is_sidechain": [false], "free_energy": -7.298, "intermolecular_energy": -9.172, "internal_energy": -0.272}

$$$$
