cand_038_out
     RDKit          3D

 47 49  0  0  0  0  0  0  0  0999 V2000
   20.2000  -31.7390   34.6760 C   0  0  0  0  0  0  0  0  0  0  0  0
   19.8850  -32.9020   35.6110 C   0  0  0  0  0  0  0  0  0  0  0  0
   19.6050  -32.4440   37.0280 C   0  0  0  0  0  0  0  0  0  0  0  0
   19.6450  -31.0340   37.2020 C   0  0  0  0  0  0  0  0  0  0  0  0
   19.3980  -30.4130   38.4280 C   0  0  0  0  0  0  0  0  0  0  0  0
   19.4650  -28.9460   38.5970 C   0  0  0  0  0  0  0  0  0  0  0  0
   19.5430  -28.5590   39.9310 O   0  0  0  0  0  0  0  0  0  0  0  0
   19.6120  -27.2240   40.2300 C   0  0  0  0  0  0  0  0  0  0  0  0
   19.7030  -26.8810   41.5810 C   0  0  0  0  0  0  0  0  0  0  0  0
   19.7740  -25.5380   41.9560 C   0  0  0  0  0  0  0  0  0  0  0  0
   19.7540  -24.5370   40.9810 C   0  0  0  0  0  0  0  0  0  0  0  0
   19.6610  -24.8810   39.6350 C   0  0  0  0  0  0  0  0  0  0  0  0
   19.6450  -23.8520   38.7340 O   0  0  0  0  0  0  0  0  0  0  0  0
   19.5910  -26.2260   39.2610 C   0  0  0  0  0  0  0  0  0  0  0  0
   19.4930  -26.6310   37.8580 C   0  0  0  0  0  0  0  0  0  0  0  0
   19.4620  -25.8090   36.9440 O   0  0  0  0  0  0  0  0  0  0  0  0
   19.4320  -28.0820   37.5660 C   0  0  0  0  0  0  0  0  0  0  0  0
   19.3270  -28.4520   36.2370 O   0  0  0  0  0  0  0  0  0  0  0  0
   19.1250  -31.2320   39.5170 C   0  0  0  0  0  0  0  0  0  0  0  0
   19.0830  -32.6250   39.3720 C   0  0  0  0  0  0  0  0  0  0  0  0
   19.3110  -33.2810   38.1370 C   0  0  0  0  0  0  0  0  0  0  0  0
   19.2540  -34.8340   38.0970 C   0  0  0  0  0  0  0  0  0  0  0  0
   18.5430  -35.4000   36.8320 C   0  0  0  0  0  0  0  0  0  0  0  0
   20.6630  -35.4700   38.0670 C   0  0  0  0  0  0  0  0  0  0  0  0
   18.4390  -35.3600   39.2980 C   0  0  0  0  0  0  0  0  0  0  0  0
   20.4420  -30.8457   35.2705 H   0  0  0  0  0  0  0  0  0  0  0  0
   21.0595  -32.0010   34.0415 H   0  0  0  0  0  0  0  0  0  0  0  0
   19.3257  -31.5314   34.0415 H   0  0  0  0  0  0  0  0  0  0  0  0
   18.9999  -33.4322   35.2296 H   0  0  0  0  0  0  0  0  0  0  0  0
   20.7671  -33.5586   35.6387 H   0  0  0  0  0  0  0  0  0  0  0  0
   19.8811  -30.4037   36.3319 H   0  0  0  0  0  0  0  0  0  0  0  0
   19.7187  -27.6684   42.3489 H   0  0  0  0  0  0  0  0  0  0  0  0
   19.8457  -25.2676   43.0198 H   0  0  0  0  0  0  0  0  0  0  0  0
   19.8116  -23.4790   41.2765 H   0  0  0  0  0  0  0  0  0  0  0  0
   20.4500  -23.4970   38.4130 H   0  0  0  0  0  0  0  0  0  0  0  0
   19.0220  -29.3100   36.0140 H   0  0  0  0  0  0  0  0  0  0  0  0
   18.9399  -30.7818   40.5034 H   0  0  0  0  0  0  0  0  0  0  0  0
   18.8627  -33.2380   40.2584 H   0  0  0  0  0  0  0  0  0  0  0  0
   17.7167  -36.0578   37.1393 H   0  0  0  0  0  0  0  0  0  0  0  0
   18.1457  -34.5683   36.2317 H   0  0  0  0  0  0  0  0  0  0  0  0
   19.2645  -35.9736   36.2317 H   0  0  0  0  0  0  0  0  0  0  0  0
   21.0155  -35.6291   39.0968 H   0  0  0  0  0  0  0  0  0  0  0  0
   20.6185  -36.4353   37.5414 H   0  0  0  0  0  0  0  0  0  0  0  0
   21.3575  -34.7981   37.5414 H   0  0  0  0  0  0  0  0  0  0  0  0
   18.9233  -35.0474   40.2349 H   0  0  0  0  0  0  0  0  0  0  0  0
   17.4194  -34.9491   39.2574 H   0  0  0  0  0  0  0  0  0  0  0  0
   18.3935  -36.4583   39.2574 H   0  0  0  0  0  0  0  0  0  0  0  0
  1  2  1  0
  2  3  1  0
  3  4  2  0
  4  5  1  0
  5  6  1  0
  6  7  1  0
  7  8  1  0
  8  9  2  0
  9 10  1  0
 10 11  2  0
 11 12  1  0
 12 13  1  0
 12 14  2  0
 14 15  1  0
 15 16  2  0
 15 17  1  0
 17 18  1  0
  5 19  2  0
 19 20  1  0
 20 21  2  0
 21 22  1  0
 22 23  1  0
 22 24  1  0
 22 25  1  0
 21  3  1  0
 17  6  2  0
 14  8  1  0
  1 26  1  0
  1 27  1  0
  1 28  1  0
  2 29  1  0
  2 30  1  0
  4 31  1  0
  9 32  1  0
 10 33  1  0
 11 34  1  0
 13 35  1  0
 18 36  1  0
 19 37  1  0
 20 38  1  0
 23 39  1  0
 23 40  1  0
 23 41  1  0
 24 42  1  0
 24 43  1  0
 24 44  1  0
 25 45  1  0
 25 46  1  0
 25 47  1  0
M  END
>  <meeko>  (1) 
{"is_sidechain": [false], "free_energy": -7.664, "intermolecular_energy": -9.456, "internal_energy": 0.102}

$$$$
cand_038_out
     RDKit          3D

 47 49  0  0  0  0  0  0  0  0999 V2000
   17.1180  -23.0510   45.6350 C   0  0  0  0  0  0  0  0  0  0  0  0
   18.2250  -23.0880   46.6840 C   0  0  0  0  0  0  0  0  0  0  0  0
   19.4450  -23.8500   46.2070 C   0  0  0  0  0  0  0  0  0  0  0  0
   19.4030  -24.2150   44.8340 C   0  0  0  0  0  0  0  0  0  0  0  0
   20.4380  -24.9070   44.2000 C   0  0  0  0  0  0  0  0  0  0  0  0
   20.3690  -25.2990   42.7770 C   0  0  0  0  0  0  0  0  0  0  0  0
   19.9530  -24.2600   41.9500 O   0  0  0  0  0  0  0  0  0  0  0  0
   19.8460  -24.4880   40.6030 C   0  0  0  0  0  0  0  0  0  0  0  0
   19.4400  -23.4140   39.8090 C   0  0  0  0  0  0  0  0  0  0  0  0
   19.3080  -23.5780   38.4290 C   0  0  0  0  0  0  0  0  0  0  0  0
   19.5820  -24.8160   37.8420 C   0  0  0  0  0  0  0  0  0  0  0  0
   19.9860  -25.8860   38.6360 C   0  0  0  0  0  0  0  0  0  0  0  0
   20.2370  -27.0690   37.9970 O   0  0  0  0  0  0  0  0  0  0  0  0
   20.1180  -25.7200   40.0170 C   0  0  0  0  0  0  0  0  0  0  0  0
   20.5410  -26.8180   40.8880 C   0  0  0  0  0  0  0  0  0  0  0  0
   20.7930  -27.9380   40.4470 O   0  0  0  0  0  0  0  0  0  0  0  0
   20.6580  -26.5380   42.3370 C   0  0  0  0  0  0  0  0  0  0  0  0
   21.0450  -27.5870   43.1520 O   0  0  0  0  0  0  0  0  0  0  0  0
   21.5380  -25.2620   44.9720 C   0  0  0  0  0  0  0  0  0  0  0  0
   21.6020  -24.9160   46.3280 C   0  0  0  0  0  0  0  0  0  0  0  0
   20.5760  -24.1990   46.9930 C   0  0  0  0  0  0  0  0  0  0  0  0
   20.7470  -23.8830   48.5050 C   0  0  0  0  0  0  0  0  0  0  0  0
   22.2110  -24.0380   49.0130 C   0  0  0  0  0  0  0  0  0  0  0  0
   20.3720  -22.4230   48.8440 C   0  0  0  0  0  0  0  0  0  0  0  0
   19.9130  -24.8740   49.3450 C   0  0  0  0  0  0  0  0  0  0  0  0
   16.1392  -23.0183   46.1359 H   0  0  0  0  0  0  0  0  0  0  0  0
   17.2383  -22.1564   45.0064 H   0  0  0  0  0  0  0  0  0  0  0  0
   17.1783  -23.9517   45.0064 H   0  0  0  0  0  0  0  0  0  0  0  0
   18.5229  -22.0558   46.9203 H   0  0  0  0  0  0  0  0  0  0  0  0
   17.8307  -23.6058   47.5708 H   0  0  0  0  0  0  0  0  0  0  0  0
   18.5160  -23.9404   44.2442 H   0  0  0  0  0  0  0  0  0  0  0  0
   19.2242  -22.4391   40.2705 H   0  0  0  0  0  0  0  0  0  0  0  0
   18.9880  -22.7319   37.8032 H   0  0  0  0  0  0  0  0  0  0  0  0
   19.4787  -24.9451   36.7545 H   0  0  0  0  0  0  0  0  0  0  0  0
   21.1040  -27.4230   37.9900 H   0  0  0  0  0  0  0  0  0  0  0  0
   21.7700  -27.4820   43.7370 H   0  0  0  0  0  0  0  0  0  0  0  0
   22.3672  -25.8206   44.5133 H   0  0  0  0  0  0  0  0  0  0  0  0
   22.4904  -25.2148   46.9038 H   0  0  0  0  0  0  0  0  0  0  0  0
   22.2193  -24.0389   50.1130 H   0  0  0  0  0  0  0  0  0  0  0  0
   22.6293  -24.9855   48.6424 H   0  0  0  0  0  0  0  0  0  0  0  0
   22.8185  -23.1991   48.6424 H   0  0  0  0  0  0  0  0  0  0  0  0
   20.3396  -22.2969   49.9363 H   0  0  0  0  0  0  0  0  0  0  0  0
   21.1246  -21.7429   48.4185 H   0  0  0  0  0  0  0  0  0  0  0  0
   19.3848  -22.1898   48.4185 H   0  0  0  0  0  0  0  0  0  0  0  0
   20.0783  -24.6776   50.4146 H   0  0  0  0  0  0  0  0  0  0  0  0
   18.8461  -24.7469   49.1095 H   0  0  0  0  0  0  0  0  0  0  0  0
   20.2204  -25.9036   49.1095 H   0  0  0  0  0  0  0  0  0  0  0  0
  1  2  1  0
  2  3  1  0
  3  4  2  0
  4  5  1  0
  5  6  1  0
  6  7  1  0
  7  8  1  0
  8  9  2  0
  9 10  1  0
 10 11  2  0
 11 12  1  0
 12 13  1  0
 12 14  2  0
 14 15  1  0
 15 16  2  0
 15 17  1  0
 17 18  1  0
  5 19  2  0
 19 20  1  0
 20 21  2  0
 21 22  1  0
 22 23  1  0
 22 24  1  0
 22 25  1  0
 21  3  1  0
 17  6  2  0
 14  8  1  0
  1 26  1  0
  1 27  1  0
  1 28  1  0
  2 29  1  0
  2 30  1  0
  4 31  1  0
  9 32  1  0
 10 33  1  0
 11 34  1  0
 13 35  1  0
 18 36  1  0
 19 37  1  0
 20 38  1  0
 23 39  1  0
 23 40  1  0
 23 41  1  0
 24 42  1  0
 24 43  1  0
 24 44  1  0
 25 45  1  0
 25 46  1  0
 25 47  1  0
M  END
>  <meeko>  (2) 
{"is_sidechain": [false], "free_energy": -7.441, "intermolecular_energy": -8.934, "internal_energy": -0.144}

$$$$
cand_038_out
     RDKit          3D

 47 49  0  0  0  0  0  0  0  0999 V2000
   20.3080  -31.5790   34.6560 C   0  0  0  0  0  0  0  0  0  0  0  0
   19.9480  -32.6940   35.6330 C   0  0  0  0  0  0  0  0  0  0  0  0
   19.5720  -32.1620   37.0010 C   0  0  0  0  0  0  0  0  0  0  0  0
   19.6200  -30.7450   37.1070 C   0  0  0  0  0  0  0  0  0  0  0  0
   19.2940  -30.0600   38.2800 C   0  0  0  0  0  0  0  0  0  0  0  0
   19.3700  -28.5870   38.3800 C   0  0  0  0  0  0  0  0  0  0  0  0
   18.7750  -27.9410   37.3020 O   0  0  0  0  0  0  0  0  0  0  0  0
   18.7740  -26.5710   37.2690 C   0  0  0  0  0  0  0  0  0  0  0  0
   18.1540  -25.9630   36.1750 C   0  0  0  0  0  0  0  0  0  0  0  0
   18.1200  -24.5710   36.0790 C   0  0  0  0  0  0  0  0  0  0  0  0
   18.7050  -23.7850   37.0740 C   0  0  0  0  0  0  0  0  0  0  0  0
   19.3240  -24.3930   38.1640 C   0  0  0  0  0  0  0  0  0  0  0  0
   19.8780  -23.5650   39.1010 O   0  0  0  0  0  0  0  0  0  0  0  0
   19.3580  -25.7870   38.2590 C   0  0  0  0  0  0  0  0  0  0  0  0
   19.9970  -26.4660   39.3880 C   0  0  0  0  0  0  0  0  0  0  0  0
   20.5400  -25.8440   40.2990 O   0  0  0  0  0  0  0  0  0  0  0  0
   19.9710  -27.9470   39.4000 C   0  0  0  0  0  0  0  0  0  0  0  0
   20.5900  -28.5780   40.4640 O   0  0  0  0  0  0  0  0  0  0  0  0
   18.9300  -30.8200   39.3850 C   0  0  0  0  0  0  0  0  0  0  0  0
   18.8780  -32.2180   39.3070 C   0  0  0  0  0  0  0  0  0  0  0  0
   19.1860  -32.9380   38.1260 C   0  0  0  0  0  0  0  0  0  0  0  0
   19.1100  -34.4900   38.1590 C   0  0  0  0  0  0  0  0  0  0  0  0
   20.5010  -35.1810   38.2630 C   0  0  0  0  0  0  0  0  0  0  0  0
   18.3260  -35.0110   39.3850 C   0  0  0  0  0  0  0  0  0  0  0  0
   18.4870  -35.0120   36.8460 C   0  0  0  0  0  0  0  0  0  0  0  0
   20.5986  -30.6790   35.2177 H   0  0  0  0  0  0  0  0  0  0  0  0
   21.1472  -31.9030   34.0229 H   0  0  0  0  0  0  0  0  0  0  0  0
   19.4378  -31.3511   34.0229 H   0  0  0  0  0  0  0  0  0  0  0  0
   19.0958  -33.2586   35.2267 H   0  0  0  0  0  0  0  0  0  0  0  0
   20.8342  -33.3345   35.7534 H   0  0  0  0  0  0  0  0  0  0  0  0
   19.9275  -30.1622   36.2262 H   0  0  0  0  0  0  0  0  0  0  0  0
   17.6931  -26.5805   35.3900 H   0  0  0  0  0  0  0  0  0  0  0  0
   17.6313  -24.0920   35.2177 H   0  0  0  0  0  0  0  0  0  0  0  0
   18.6771  -22.6880   36.9973 H   0  0  0  0  0  0  0  0  0  0  0  0
   19.9140  -22.6420   38.9470 H   0  0  0  0  0  0  0  0  0  0  0  0
   21.5260  -28.6120   40.5080 H   0  0  0  0  0  0  0  0  0  0  0  0
   18.6799  -30.3184   40.3315 H   0  0  0  0  0  0  0  0  0  0  0  0
   18.5845  -32.7828   40.2041 H   0  0  0  0  0  0  0  0  0  0  0  0
   20.7666  -35.3129   39.3223 H   0  0  0  0  0  0  0  0  0  0  0  0
   20.4601  -36.1635   37.7701 H   0  0  0  0  0  0  0  0  0  0  0  0
   21.2593  -34.5548   37.7701 H   0  0  0  0  0  0  0  0  0  0  0  0
   18.8251  -34.6793   40.3074 H   0  0  0  0  0  0  0  0  0  0  0  0
   17.3004  -34.6142   39.3600 H   0  0  0  0  0  0  0  0  0  0  0  0
   18.2946  -36.1103   39.3600 H   0  0  0  0  0  0  0  0  0  0  0  0
   17.6632  -35.7023   37.0801 H   0  0  0  0  0  0  0  0  0  0  0  0
   18.1002  -34.1643   36.2613 H   0  0  0  0  0  0  0  0  0  0  0  0
   19.2538  -35.5412   36.2613 H   0  0  0  0  0  0  0  0  0  0  0  0
  1  2  1  0
  2  3  1  0
  3  4  2  0
  4  5  1  0
  5  6  1  0
  6  7  1  0
  7  8  1  0
  8  9  2  0
  9 10  1  0
 10 11  2  0
 11 12  1  0
 12 13  1  0
 12 14  2  0
 14 15  1  0
 15 16  2  0
 15 17  1  0
 17 18  1  0
  5 19  2  0
 19 20  1  0
 20 21  2  0
 21 22  1  0
 22 23  1  0
 22 24  1  0
 22 25  1  0
 21  3  1  0
 17  6  2  0
 14  8  1  0
  1 26  1  0
  1 27  1  0
  1 28  1  0
  2 29  1  0
  2 30  1  0
  4 31  1  0
  9 32  1  0
 10 33  1  0
 11 34  1  0
 13 35  1  0
 18 36  1  0
 19 37  1  0
 20 38  1  0
 23 39  1  0
 23 40  1  0
 23 41  1  0
 24 42  1  0
 24 43  1  0
 24 44  1  0
 25 45  1  0
 25 46  1  0
 25 47  1  0
M  END
>  <meeko>  (3) 
{"is_sidechain": [false], "free_energy": -7.346, "intermolecular_energy": -8.947, "internal_energy": -0.015}

$$$$
cand_038_out
     RDKit          3D

 47 49  0  0  0  0  0  0  0  0999 V2000
   16.8020  -22.7670   45.7530 C   0  0  0  0  0  0  0  0  0  0  0  0
   17.9630  -22.9310   46.7290 C   0  0  0  0  0  0  0  0  0  0  0  0
   19.1480  -23.6370   46.1020 C   0  0  0  0  0  0  0  0  0  0  0  0
   19.0360  -23.8270   44.6980 C   0  0  0  0  0  0  0  0  0  0  0  0
   20.0290  -24.4430   43.9330 C   0  0  0  0  0  0  0  0  0  0  0  0
   19.8870  -24.6530   42.4770 C   0  0  0  0  0  0  0  0  0  0  0  0
   19.8920  -25.9970   42.1220 O   0  0  0  0  0  0  0  0  0  0  0  0
   19.7670  -26.3340   40.7990 C   0  0  0  0  0  0  0  0  0  0  0  0
   19.7620  -27.6950   40.4890 C   0  0  0  0  0  0  0  0  0  0  0  0
   19.6400  -28.1070   39.1610 C   0  0  0  0  0  0  0  0  0  0  0  0
   19.5230  -27.1590   38.1420 C   0  0  0  0  0  0  0  0  0  0  0  0
   19.5290  -25.8020   38.4530 C   0  0  0  0  0  0  0  0  0  0  0  0
   19.4130  -24.9280   37.4070 O   0  0  0  0  0  0  0  0  0  0  0  0
   19.6510  -25.3910   39.7830 C   0  0  0  0  0  0  0  0  0  0  0  0
   19.6610  -23.9750   40.1540 C   0  0  0  0  0  0  0  0  0  0  0  0
   19.5710  -23.0810   39.3140 O   0  0  0  0  0  0  0  0  0  0  0  0
   19.7860  -23.6430   41.5920 C   0  0  0  0  0  0  0  0  0  0  0  0
   19.8090  -22.3020   41.9290 O   0  0  0  0  0  0  0  0  0  0  0  0
   21.1590  -24.9020   44.6000 C   0  0  0  0  0  0  0  0  0  0  0  0
   21.2910  -24.7300   45.9840 C   0  0  0  0  0  0  0  0  0  0  0  0
   20.3090  -24.0930   46.7820 C   0  0  0  0  0  0  0  0  0  0  0  0
   20.5560  -23.9710   48.3120 C   0  0  0  0  0  0  0  0  0  0  0  0
   22.0300  -24.2470   48.7300 C   0  0  0  0  0  0  0  0  0  0  0  0
   20.2640  -22.5480   48.8400 C   0  0  0  0  0  0  0  0  0  0  0  0
   19.7110  -25.0200   49.0650 C   0  0  0  0  0  0  0  0  0  0  0  0
   15.8660  -22.6348   46.3155 H   0  0  0  0  0  0  0  0  0  0  0  0
   16.9771  -21.8847   45.1199 H   0  0  0  0  0  0  0  0  0  0  0  0
   16.7258  -23.6633   45.1199 H   0  0  0  0  0  0  0  0  0  0  0  0
   18.2837  -21.9347   47.0674 H   0  0  0  0  0  0  0  0  0  0  0  0
   17.6109  -23.5475   47.5692 H   0  0  0  0  0  0  0  0  0  0  0  0
   18.1263  -23.4730   44.1910 H   0  0  0  0  0  0  0  0  0  0  0  0
   19.8542  -28.4424   41.2908 H   0  0  0  0  0  0  0  0  0  0  0  0
   19.6360  -29.1795   38.9167 H   0  0  0  0  0  0  0  0  0  0  0  0
   19.4263  -27.4840   37.0956 H   0  0  0  0  0  0  0  0  0  0  0  0
   19.0660  -25.2210   36.5880 H   0  0  0  0  0  0  0  0  0  0  0  0
   20.6120  -21.9000   42.1970 H   0  0  0  0  0  0  0  0  0  0  0  0
   21.9576  -25.4054   44.0353 H   0  0  0  0  0  0  0  0  0  0  0  0
   22.2004  -25.1075   46.4744 H   0  0  0  0  0  0  0  0  0  0  0  0
   22.1035  -24.2608   49.8275 H   0  0  0  0  0  0  0  0  0  0  0  0
   22.3487  -25.2204   48.3289 H   0  0  0  0  0  0  0  0  0  0  0  0
   22.6793  -23.4548   48.3289 H   0  0  0  0  0  0  0  0  0  0  0  0
   20.2659  -22.5575   49.9400 H   0  0  0  0  0  0  0  0  0  0  0  0
   21.0389  -21.8564   48.4779 H   0  0  0  0  0  0  0  0  0  0  0  0
   19.2793  -22.2174   48.4779 H   0  0  0  0  0  0  0  0  0  0  0  0
   19.8277  -24.8752   50.1492 H   0  0  0  0  0  0  0  0  0  0  0  0
   18.6521  -24.9029   48.7913 H   0  0  0  0  0  0  0  0  0  0  0  0
   20.0509  -26.0297   48.7913 H   0  0  0  0  0  0  0  0  0  0  0  0
  1  2  1  0
  2  3  1  0
  3  4  2  0
  4  5  1  0
  5  6  1  0
  6  7  1  0
  7  8  1  0
  8  9  2  0
  9 10  1  0
 10 11  2  0
 11 12  1  0
 12 13  1  0
 12 14  2  0
 14 15  1  0
 15 16  2  0
 15 17  1  0
 17 18  1  0
  5 19  2  0
 19 20  1  0
 20 21  2  0
 21 22  1  0
 22 23  1  0
 22 24  1  0
 22 25  1  0
 21  3  1  0
 17  6  2  0
 14  8  1  0
  1 26  1  0
  1 27  1  0
  1 28  1  0
  2 29  1  0
  2 30  1  0
  4 31  1  0
  9 32  1  0
 10 33  1  0
 11 34  1  0
 13 35  1  0
 18 36  1  0
 19 37  1  0
 20 38  1  0
 23 39  1  0
 23 40  1  0
 23 41  1  0
 24 42  1  0
 24 43  1  0
 24 44  1  0
 25 45  1  0
 25 46  1  0
 25 47  1  0
M  END
>  <meeko>  (4) 
{"is_sidechain": [false], "free_energy": -7.216, "intermolecular_energy": -8.424, "internal_energy": -0.378}

$$$$
cand_038_out
     RDKit          3D

 47 49  0  0  0  0  0  0  0  0999 V2000
   20.8350  -27.1970   41.5830 C   0  0  0  0  0  0  0  0  0  0  0  0
   20.7300  -26.1130   40.5160 C   0  0  0  0  0  0  0  0  0  0  0  0
   19.8800  -26.5420   39.3380 C   0  0  0  0  0  0  0  0  0  0  0  0
   19.9470  -27.9330   39.0500 C   0  0  0  0  0  0  0  0  0  0  0  0
   19.2250  -28.5290   38.0130 C   0  0  0  0  0  0  0  0  0  0  0  0
   19.3220  -29.9730   37.7130 C   0  0  0  0  0  0  0  0  0  0  0  0
   18.8930  -30.7740   38.7660 O   0  0  0  0  0  0  0  0  0  0  0  0
   18.9290  -32.1360   38.6200 C   0  0  0  0  0  0  0  0  0  0  0  0
   18.4750  -32.9010   39.6970 C   0  0  0  0  0  0  0  0  0  0  0  0
   18.4870  -34.2950   39.6150 C   0  0  0  0  0  0  0  0  0  0  0  0
   18.9520  -34.9240   38.4580 C   0  0  0  0  0  0  0  0  0  0  0  0
   19.4050  -34.1590   37.3860 C   0  0  0  0  0  0  0  0  0  0  0  0
   19.8480  -34.8400   36.2860 O   0  0  0  0  0  0  0  0  0  0  0  0
   19.3930  -32.7650   37.4690 C   0  0  0  0  0  0  0  0  0  0  0  0
   19.8590  -31.9230   36.3660 C   0  0  0  0  0  0  0  0  0  0  0  0
   20.2900  -32.4030   35.3190 O   0  0  0  0  0  0  0  0  0  0  0  0
   19.7960  -30.4550   36.5490 C   0  0  0  0  0  0  0  0  0  0  0  0
   20.2520  -29.6700   35.5050 O   0  0  0  0  0  0  0  0  0  0  0  0
   18.4300  -27.7020   37.2290 C   0  0  0  0  0  0  0  0  0  0  0  0
   18.3500  -26.3280   37.4900 C   0  0  0  0  0  0  0  0  0  0  0  0
   19.0560  -25.7000   38.5450 C   0  0  0  0  0  0  0  0  0  0  0  0
   18.9040  -24.1640   38.7330 C   0  0  0  0  0  0  0  0  0  0  0  0
   17.4530  -23.6480   38.5040 C   0  0  0  0  0  0  0  0  0  0  0  0
   19.2540  -23.7130   40.1690 C   0  0  0  0  0  0  0  0  0  0  0  0
   19.7740  -23.4200   37.6960 C   0  0  0  0  0  0  0  0  0  0  0  0
   20.7903  -26.7353   42.5804 H   0  0  0  0  0  0  0  0  0  0  0  0
   20.0013  -27.9055   41.4692 H   0  0  0  0  0  0  0  0  0  0  0  0
   21.7892  -27.7323   41.4692 H   0  0  0  0  0  0  0  0  0  0  0  0
   20.2813  -25.2157   40.9671 H   0  0  0  0  0  0  0  0  0  0  0  0
   21.7446  -25.9118   40.1416 H   0  0  0  0  0  0  0  0  0  0  0  0
   20.5960  -28.5678   39.6712 H   0  0  0  0  0  0  0  0  0  0  0  0
   18.1085  -32.4060   40.6084 H   0  0  0  0  0  0  0  0  0  0  0  0
   18.1298  -34.8983   40.4626 H   0  0  0  0  0  0  0  0  0  0  0  0
   18.9604  -36.0221   38.3935 H   0  0  0  0  0  0  0  0  0  0  0  0
   20.3560  -34.3980   35.6350 H   0  0  0  0  0  0  0  0  0  0  0  0
   20.8100  -30.0410   34.8500 H   0  0  0  0  0  0  0  0  0  0  0  0
   17.8569  -28.1311   36.3939 H   0  0  0  0  0  0  0  0  0  0  0  0
   17.7092  -25.7081   36.8457 H   0  0  0  0  0  0  0  0  0  0  0  0
   16.9676  -23.4754   39.4759 H   0  0  0  0  0  0  0  0  0  0  0  0
   17.4841  -22.7058   37.9372 H   0  0  0  0  0  0  0  0  0  0  0  0
   16.8822  -24.3983   37.9372 H   0  0  0  0  0  0  0  0  0  0  0  0
   18.7462  -24.3673   40.8929 H   0  0  0  0  0  0  0  0  0  0  0  0
   20.3420  -23.7760   40.3182 H   0  0  0  0  0  0  0  0  0  0  0  0
   18.9229  -22.6747   40.3182 H   0  0  0  0  0  0  0  0  0  0  0  0
   20.5097  -22.7909   38.2184 H   0  0  0  0  0  0  0  0  0  0  0  0
   20.2997  -24.1522   37.0655 H   0  0  0  0  0  0  0  0  0  0  0  0
   19.1322  -22.7871   37.0655 H   0  0  0  0  0  0  0  0  0  0  0  0
  1  2  1  0
  2  3  1  0
  3  4  2  0
  4  5  1  0
  5  6  1  0
  6  7  1  0
  7  8  1  0
  8  9  2  0
  9 10  1  0
 10 11  2  0
 11 12  1  0
 12 13  1  0
 12 14  2  0
 14 15  1  0
 15 16  2  0
 15 17  1  0
 17 18  1  0
  5 19  2  0
 19 20  1  0
 20 21  2  0
 21 22  1  0
 22 23  1  0
 22 24  1  0
 22 25  1  0
 21  3  1  0
 17  6  2  0
 14  8  1  0
  1 26  1  0
  1 27  1  0
  1 28  1  0
  2 29  1  0
  2 30  1  0
  4 31  1  0
  9 32  1  0
 10 33  1  0
 11 34  1  0
 13 35  1  0
 18 36  1  0
 19 37  1  0
 20 38  1  0
 23 39  1  0
 23 40  1  0
 23 41  1  0
 24 42  1  0
 24 43  1  0
 24 44  1  0
 25 45  1  0
 25 46  1  0
 25 47  1  0
M  END
>  <meeko>  (5) 
{"is_sidechain": [false], "free_energy": -7.124, "intermolecular_energy": -8.704, "internal_energy": 0.017}

$$$$
cand_038_out
     RDKit          3D

 47 49  0  0  0  0  0  0  0  0999 V2000
   21.1370  -20.1310   43.5400 C   0  0  0  0  0  0  0  0  0  0  0  0
   19.7150  -20.6280   43.7770 C   0  0  0  0  0  0  0  0  0  0  0  0
   19.6330  -22.1400   43.8250 C   0  0  0  0  0  0  0  0  0  0  0  0
   19.7070  -22.7670   42.5520 C   0  0  0  0  0  0  0  0  0  0  0  0
   19.6660  -24.1530   42.3840 C   0  0  0  0  0  0  0  0  0  0  0  0
   19.7220  -24.7890   41.0510 C   0  0  0  0  0  0  0  0  0  0  0  0
   18.8680  -24.1900   40.1310 O   0  0  0  0  0  0  0  0  0  0  0  0
   18.8220  -24.6810   38.8520 C   0  0  0  0  0  0  0  0  0  0  0  0
   17.9620  -24.0410   37.9580 C   0  0  0  0  0  0  0  0  0  0  0  0
   17.8650  -24.4930   36.6400 C   0  0  0  0  0  0  0  0  0  0  0  0
   18.6260  -25.5840   36.2160 C   0  0  0  0  0  0  0  0  0  0  0  0
   19.4820  -26.2220   37.1100 C   0  0  0  0  0  0  0  0  0  0  0  0
   20.1970  -27.2850   36.6300 O   0  0  0  0  0  0  0  0  0  0  0  0
   19.5790  -25.7690   38.4290 C   0  0  0  0  0  0  0  0  0  0  0  0
   20.4670  -26.4100   39.4000 C   0  0  0  0  0  0  0  0  0  0  0  0
   21.1620  -27.3800   39.1060 O   0  0  0  0  0  0  0  0  0  0  0  0
   20.5030  -25.8490   40.7700 C   0  0  0  0  0  0  0  0  0  0  0  0
   21.3350  -26.4710   41.6830 O   0  0  0  0  0  0  0  0  0  0  0  0
   19.5240  -24.9330   43.5260 C   0  0  0  0  0  0  0  0  0  0  0  0
   19.4450  -24.3380   44.7920 C   0  0  0  0  0  0  0  0  0  0  0  0
   19.5030  -22.9370   44.9940 C   0  0  0  0  0  0  0  0  0  0  0  0
   19.3910  -22.3880   46.4430 C   0  0  0  0  0  0  0  0  0  0  0  0
   19.2320  -23.5000   47.5230 C   0  0  0  0  0  0  0  0  0  0  0  0
   20.6540  -21.6080   46.8730 C   0  0  0  0  0  0  0  0  0  0  0  0
   18.1300  -21.5060   46.5740 C   0  0  0  0  0  0  0  0  0  0  0  0
   21.6311  -19.9583   44.5075 H   0  0  0  0  0  0  0  0  0  0  0  0
   21.6992  -20.8859   42.9708 H   0  0  0  0  0  0  0  0  0  0  0  0
   21.1065  -19.1902   42.9708 H   0  0  0  0  0  0  0  0  0  0  0  0
   19.3544  -20.2239   44.7344 H   0  0  0  0  0  0  0  0  0  0  0  0
   19.0948  -20.2847   42.9359 H   0  0  0  0  0  0  0  0  0  0  0  0
   19.8008  -22.1322   41.6586 H   0  0  0  0  0  0  0  0  0  0  0  0
   17.3614  -23.1817   38.2911 H   0  0  0  0  0  0  0  0  0  0  0  0
   17.1879  -23.9886   35.9349 H   0  0  0  0  0  0  0  0  0  0  0  0
   18.5495  -25.9389   35.1776 H   0  0  0  0  0  0  0  0  0  0  0  0
   20.0090  -28.1510   36.9330 H   0  0  0  0  0  0  0  0  0  0  0  0
   21.5920  -27.3620   41.5510 H   0  0  0  0  0  0  0  0  0  0  0  0
   19.4732  -26.0280   43.4348 H   0  0  0  0  0  0  0  0  0  0  0  0
   19.3326  -24.9897   45.6710 H   0  0  0  0  0  0  0  0  0  0  0  0
   19.2963  -23.0501   48.5247 H   0  0  0  0  0  0  0  0  0  0  0  0
   18.2546  -23.9903   47.4033 H   0  0  0  0  0  0  0  0  0  0  0  0
   20.0328  -24.2446   47.4033 H   0  0  0  0  0  0  0  0  0  0  0  0
   20.7081  -21.5746   47.9712 H   0  0  0  0  0  0  0  0  0  0  0  0
   21.5483  -22.1113   46.4770 H   0  0  0  0  0  0  0  0  0  0  0  0
   20.6045  -20.5830   46.4770 H   0  0  0  0  0  0  0  0  0  0  0  0
   17.9027  -21.3470   47.6385 H   0  0  0  0  0  0  0  0  0  0  0  0
   18.3094  -20.5354   46.0884 H   0  0  0  0  0  0  0  0  0  0  0  0
   17.2798  -22.0074   46.0884 H   0  0  0  0  0  0  0  0  0  0  0  0
  1  2  1  0
  2  3  1  0
  3  4  2  0
  4  5  1  0
  5  6  1  0
  6  7  1  0
  7  8  1  0
  8  9  2  0
  9 10  1  0
 10 11  2  0
 11 12  1  0
 12 13  1  0
 12 14  2  0
 14 15  1  0
 15 16  2  0
 15 17  1  0
 17 18  1  0
  5 19  2  0
 19 20  1  0
 20 21  2  0
 21 22  1  0
 22 23  1  0
 22 24  1  0
 22 25  1  0
 21  3  1  0
 17  6  2  0
 14  8  1  0
  1 26  1  0
  1 27  1  0
  1 28  1  0
  2 29  1  0
  2 30  1  0
  4 31  1  0
  9 32  1  0
 10 33  1  0
 11 34  1  0
 13 35  1  0
 18 36  1  0
 19 37  1  0
 20 38  1  0
 23 39  1  0
 23 40  1  0
 23 41  1  0
 24 42  1  0
 24 43  1  0
 24 44  1  0
 25 45  1  0
 25 46  1  0
 25 47  1  0
M  END
>  <meeko>  (6) 
{"is_sidechain": [false], "free_energy": -7.03, "intermolecular_energy": -8.263, "internal_energy": -0.308}

$$$$
cand_038_out
     RDKit          3D

 47 49  0  0  0  0  0  0  0  0999 V2000
   22.8470  -26.6100   44.8900 C   0  0  0  0  0  0  0  0  0  0  0  0
   22.2790  -25.4920   45.7580 C   0  0  0  0  0  0  0  0  0  0  0  0
   21.0510  -24.8510   45.1430 C   0  0  0  0  0  0  0  0  0  0  0  0
   20.8590  -25.1630   43.7690 C   0  0  0  0  0  0  0  0  0  0  0  0
   19.7780  -24.6840   43.0250 C   0  0  0  0  0  0  0  0  0  0  0  0
   19.6050  -24.9990   41.5920 C   0  0  0  0  0  0  0  0  0  0  0  0
   19.5020  -26.3650   41.3480 O   0  0  0  0  0  0  0  0  0  0  0  0
   19.3370  -26.7970   40.0580 C   0  0  0  0  0  0  0  0  0  0  0  0
   19.2240  -28.1740   39.8600 C   0  0  0  0  0  0  0  0  0  0  0  0
   19.0560  -28.6820   38.5710 C   0  0  0  0  0  0  0  0  0  0  0  0
   19.0020  -27.8140   37.4780 C   0  0  0  0  0  0  0  0  0  0  0  0
   19.1160  -26.4400   37.6770 C   0  0  0  0  0  0  0  0  0  0  0  0
   19.0560  -25.6470   36.5640 O   0  0  0  0  0  0  0  0  0  0  0  0
   19.2840  -25.9330   38.9690 C   0  0  0  0  0  0  0  0  0  0  0  0
   19.4070  -24.4960   39.2220 C   0  0  0  0  0  0  0  0  0  0  0  0
   19.3770  -23.6700   38.3130 O   0  0  0  0  0  0  0  0  0  0  0  0
   19.5730  -24.0600   40.6280 C   0  0  0  0  0  0  0  0  0  0  0  0
   19.7030  -22.7020   40.8540 O   0  0  0  0  0  0  0  0  0  0  0  0
   18.8750  -23.8500   43.6730 C   0  0  0  0  0  0  0  0  0  0  0  0
   19.0440  -23.5250   45.0260 C   0  0  0  0  0  0  0  0  0  0  0  0
   20.1200  -24.0110   45.8090 C   0  0  0  0  0  0  0  0  0  0  0  0
   20.2160  -23.5720   47.2970 C   0  0  0  0  0  0  0  0  0  0  0  0
   20.0780  -24.7510   48.3060 C   0  0  0  0  0  0  0  0  0  0  0  0
   21.5840  -22.9340   47.6320 C   0  0  0  0  0  0  0  0  0  0  0  0
   19.0610  -22.6040   47.6340 C   0  0  0  0  0  0  0  0  0  0  0  0
   23.2509  -27.4050   45.5341 H   0  0  0  0  0  0  0  0  0  0  0  0
   22.0492  -27.0225   44.2549 H   0  0  0  0  0  0  0  0  0  0  0  0
   23.6506  -26.2089   44.2549 H   0  0  0  0  0  0  0  0  0  0  0  0
   22.0061  -25.9097   46.7383 H   0  0  0  0  0  0  0  0  0  0  0  0
   23.0517  -24.7148   45.8523 H   0  0  0  0  0  0  0  0  0  0  0  0
   21.5947  -25.8106   43.2696 H   0  0  0  0  0  0  0  0  0  0  0  0
   19.2674  -28.8587   40.7198 H   0  0  0  0  0  0  0  0  0  0  0  0
   18.9660  -29.7672   38.4156 H   0  0  0  0  0  0  0  0  0  0  0  0
   18.8697  -28.2146   36.4621 H   0  0  0  0  0  0  0  0  0  0  0  0
   19.6480  -24.9270   36.4690 H   0  0  0  0  0  0  0  0  0  0  0  0
   20.3770  -22.3840   41.4220 H   0  0  0  0  0  0  0  0  0  0  0  0
   18.0181  -23.4403   43.1181 H   0  0  0  0  0  0  0  0  0  0  0  0
   18.3068  -22.8617   45.5020 H   0  0  0  0  0  0  0  0  0  0  0  0
   20.1236  -24.3614   49.3337 H   0  0  0  0  0  0  0  0  0  0  0  0
   19.1144  -25.2576   48.1484 H   0  0  0  0  0  0  0  0  0  0  0  0
   20.8985  -25.4665   48.1484 H   0  0  0  0  0  0  0  0  0  0  0  0
   21.7048  -22.8777   48.7239 H   0  0  0  0  0  0  0  0  0  0  0  0
   22.3898  -23.5492   47.2052 H   0  0  0  0  0  0  0  0  0  0  0  0
   21.6306  -21.9212   47.2052 H   0  0  0  0  0  0  0  0  0  0  0  0
   18.9602  -22.5195   48.7261 H   0  0  0  0  0  0  0  0  0  0  0  0
   19.2769  -21.6131   47.2080 H   0  0  0  0  0  0  0  0  0  0  0  0
   18.1231  -22.9898   47.2080 H   0  0  0  0  0  0  0  0  0  0  0  0
  1  2  1  0
  2  3  1  0
  3  4  2  0
  4  5  1  0
  5  6  1  0
  6  7  1  0
  7  8  1  0
  8  9  2  0
  9 10  1  0
 10 11  2  0
 11 12  1  0
 12 13  1  0
 12 14  2  0
 14 15  1  0
 15 16  2  0
 15 17  1  0
 17 18  1  0
  5 19  2  0
 19 20  1  0
 20 21  2  0
 21 22  1  0
 22 23  1  0
 22 24  1  0
 22 25  1  0
 21  3  1  0
 17  6  2  0
 14  8  1  0
  1 26  1  0
  1 27  1  0
  1 28  1  0
  2 29  1  0
  2 30  1  0
  4 31  1  0
  9 32  1  0
 10 33  1  0
 11 34  1  0
 13 35  1  0
 18 36  1  0
 19 37  1  0
 20 38  1  0
 23 39  1  0
 23 40  1  0
 23 41  1  0
 24 42  1  0
 24 43  1  0
 24 44  1  0
 25 45  1  0
 25 46  1  0
 25 47  1  0
M  END
>  <meeko>  (7) 
{"is_sidechain": [false], "free_energy": -7.024, "intermolecular_energy": -8.214, "internal_energy": -0.35}

$$$$
cand_038_out
     RDKit          3D

 47 49  0  0  0  0  0  0  0  0999 V2000
   20.9660  -24.5320   47.0840 C   0  0  0  0  0  0  0  0  0  0  0  0
   19.5890  -24.0350   46.6550 C   0  0  0  0  0  0  0  0  0  0  0  0
   19.5930  -23.4670   45.2500 C   0  0  0  0  0  0  0  0  0  0  0  0
   19.6220  -24.4510   44.2250 C   0  0  0  0  0  0  0  0  0  0  0  0
   19.6130  -24.1310   42.8650 C   0  0  0  0  0  0  0  0  0  0  0  0
   19.6660  -25.1660   41.8120 C   0  0  0  0  0  0  0  0  0  0  0  0
   18.8870  -24.8500   40.7040 O   0  0  0  0  0  0  0  0  0  0  0  0
   18.8460  -25.7250   39.6510 C   0  0  0  0  0  0  0  0  0  0  0  0
   18.0620  -25.3610   38.5540 C   0  0  0  0  0  0  0  0  0  0  0  0
   17.9750  -26.2080   37.4480 C   0  0  0  0  0  0  0  0  0  0  0  0
   18.6700  -27.4200   37.4370 C   0  0  0  0  0  0  0  0  0  0  0  0
   19.4500  -27.7820   38.5320 C   0  0  0  0  0  0  0  0  0  0  0  0
   20.1020  -28.9810   38.4560 O   0  0  0  0  0  0  0  0  0  0  0  0
   19.5370  -26.9330   39.6390 C   0  0  0  0  0  0  0  0  0  0  0  0
   20.3460  -27.2740   40.8100 C   0  0  0  0  0  0  0  0  0  0  0  0
   20.9800  -28.3250   40.8790 O   0  0  0  0  0  0  0  0  0  0  0  0
   20.3790  -26.3030   41.9270 C   0  0  0  0  0  0  0  0  0  0  0  0
   21.1350  -26.6420   43.0340 O   0  0  0  0  0  0  0  0  0  0  0  0
   19.5980  -22.7840   42.5240 C   0  0  0  0  0  0  0  0  0  0  0  0
   19.5720  -21.7950   43.5160 C   0  0  0  0  0  0  0  0  0  0  0  0
   19.5610  -22.0900   44.9020 C   0  0  0  0  0  0  0  0  0  0  0  0
   19.5480  -20.9110   45.9140 C   0  0  0  0  0  0  0  0  0  0  0  0
   19.3270  -19.5190   45.2500 C   0  0  0  0  0  0  0  0  0  0  0  0
   18.4010  -21.0360   46.9430 C   0  0  0  0  0  0  0  0  0  0  0  0
   20.9150  -20.8150   46.6250 C   0  0  0  0  0  0  0  0  0  0  0  0
   21.0226  -24.5524   48.1824 H   0  0  0  0  0  0  0  0  0  0  0  0
   21.1292  -25.5458   46.6895 H   0  0  0  0  0  0  0  0  0  0  0  0
   21.7391  -23.8562   46.6895 H   0  0  0  0  0  0  0  0  0  0  0  0
   18.8815  -24.8764   46.6941 H   0  0  0  0  0  0  0  0  0  0  0  0
   19.2937  -23.2286   47.3425 H   0  0  0  0  0  0  0  0  0  0  0  0
   19.6529  -25.5116   44.5152 H   0  0  0  0  0  0  0  0  0  0  0  0
   17.5135  -24.4075   38.5616 H   0  0  0  0  0  0  0  0  0  0  0  0
   17.3582  -25.9208   36.5836 H   0  0  0  0  0  0  0  0  0  0  0  0
   18.6011  -28.0869   36.5649 H   0  0  0  0  0  0  0  0  0  0  0  0
   21.0170  -29.0300   38.6500 H   0  0  0  0  0  0  0  0  0  0  0  0
   21.8700  -26.1140   43.2790 H   0  0  0  0  0  0  0  0  0  0  0  0
   19.6066  -22.4910   41.4638 H   0  0  0  0  0  0  0  0  0  0  0  0
   19.5595  -20.7401   43.2044 H   0  0  0  0  0  0  0  0  0  0  0  0
   19.2057  -18.7549   46.0319 H   0  0  0  0  0  0  0  0  0  0  0  0
   20.1967  -19.2688   44.6246 H   0  0  0  0  0  0  0  0  0  0  0  0
   18.4226  -19.5505   44.6246 H   0  0  0  0  0  0  0  0  0  0  0  0
   18.8152  -20.9909   47.9610 H   0  0  0  0  0  0  0  0  0  0  0  0
   17.6885  -20.2102   46.8001 H   0  0  0  0  0  0  0  0  0  0  0  0
   17.8832  -21.9959   46.8001 H   0  0  0  0  0  0  0  0  0  0  0  0
   20.7632  -20.8257   47.7144 H   0  0  0  0  0  0  0  0  0  0  0  0
   21.5408  -21.6714   46.3336 H   0  0  0  0  0  0  0  0  0  0  0  0
   21.4150  -19.8795   46.3336 H   0  0  0  0  0  0  0  0  0  0  0  0
  1  2  1  0
  2  3  1  0
  3  4  2  0
  4  5  1  0
  5  6  1  0
  6  7  1  0
  7  8  1  0
  8  9  2  0
  9 10  1  0
 10 11  2  0
 11 12  1  0
 12 13  1  0
 12 14  2  0
 14 15  1  0
 15 16  2  0
 15 17  1  0
 17 18  1  0
  5 19  2  0
 19 20  1  0
 20 21  2  0
 21 22  1  0
 22 23  1  0
 22 24  1  0
 22 25  1  0
 21  3  1  0
 17  6  2  0
 14  8  1  0
  1 26  1  0
  1 27  1  0
  1 28  1  0
  2 29  1  0
  2 30  1  0
  4 31  1  0
  9 32  1  0
 10 33  1  0
 11 34  1  0
 13 35  1  0
 18 36  1  0
 19 37  1  0
 20 38  1  0
 23 39  1  0
 23 40  1  0
 23 41  1  0
 24 42  1  0
 24 43  1  0
 24 44  1  0
 25 45  1  0
 25 46  1  0
 25 47  1  0
M  END
>  <meeko>  (8) 
{"is_sidechain": [false], "free_energy": -6.89, "intermolecular_energy": -8.182, "internal_energy": -0.218}

$$$$
cand_038_out
     RDKit          3D

 47 49  0  0  0  0  0  0  0  0999 V2000
   20.2490  -25.3980   48.7270 C   0  0  0  0  0  0  0  0  0  0  0  0
   19.5110  -24.1140   48.3630 C   0  0  0  0  0  0  0  0  0  0  0  0
   20.1790  -23.3680   47.2260 C   0  0  0  0  0  0  0  0  0  0  0  0
   19.8640  -23.8730   45.9350 C   0  0  0  0  0  0  0  0  0  0  0  0
   20.3650  -23.3140   44.7570 C   0  0  0  0  0  0  0  0  0  0  0  0
   20.0460  -23.8650   43.4240 C   0  0  0  0  0  0  0  0  0  0  0  0
   20.4180  -25.1980   43.2870 O   0  0  0  0  0  0  0  0  0  0  0  0
   20.1780  -25.8340   42.0980 C   0  0  0  0  0  0  0  0  0  0  0  0
   20.5530  -27.1760   42.0090 C   0  0  0  0  0  0  0  0  0  0  0  0
   20.3390  -27.8830   40.8240 C   0  0  0  0  0  0  0  0  0  0  0  0
   19.7500  -27.2500   39.7280 C   0  0  0  0  0  0  0  0  0  0  0  0
   19.3770  -25.9110   39.8180 C   0  0  0  0  0  0  0  0  0  0  0  0
   18.8080  -25.3530   38.7060 O   0  0  0  0  0  0  0  0  0  0  0  0
   19.5920  -25.2050   41.0040 C   0  0  0  0  0  0  0  0  0  0  0  0
   19.2140  -23.7970   41.1410 C   0  0  0  0  0  0  0  0  0  0  0  0
   18.6980  -23.1680   40.2190 O   0  0  0  0  0  0  0  0  0  0  0  0
   19.4760  -23.1410   42.4430 C   0  0  0  0  0  0  0  0  0  0  0  0
   19.1280  -21.8070   42.5560 O   0  0  0  0  0  0  0  0  0  0  0  0
   21.2260  -22.2290   44.8800 C   0  0  0  0  0  0  0  0  0  0  0  0
   21.5540  -21.7150   46.1410 C   0  0  0  0  0  0  0  0  0  0  0  0
   21.0460  -22.2500   47.3500 C   0  0  0  0  0  0  0  0  0  0  0  0
   21.4900  -21.6070   48.6940 C   0  0  0  0  0  0  0  0  0  0  0  0
   22.3130  -20.2970   48.5180 C   0  0  0  0  0  0  0  0  0  0  0  0
   20.2870  -21.1940   49.5710 C   0  0  0  0  0  0  0  0  0  0  0  0
   22.4190  -22.5770   49.4570 C   0  0  0  0  0  0  0  0  0  0  0  0
   20.3031  -25.4921   49.8216 H   0  0  0  0  0  0  0  0  0  0  0  0
   19.7094  -26.2616   48.3110 H   0  0  0  0  0  0  0  0  0  0  0  0
   21.2668  -25.3665   48.3110 H   0  0  0  0  0  0  0  0  0  0  0  0
   18.4840  -24.3694   48.0631 H   0  0  0  0  0  0  0  0  0  0  0  0
   19.5210  -23.4588   49.2465 H   0  0  0  0  0  0  0  0  0  0  0  0
   19.1955  -24.7433   45.8603 H   0  0  0  0  0  0  0  0  0  0  0  0
   21.0168  -27.6761   42.8720 H   0  0  0  0  0  0  0  0  0  0  0  0
   20.6349  -28.9401   40.7540 H   0  0  0  0  0  0  0  0  0  0  0  0
   19.5808  -27.8076   38.7950 H   0  0  0  0  0  0  0  0  0  0  0  0
   18.7300  -24.4220   38.6380 H   0  0  0  0  0  0  0  0  0  0  0  0
   19.3980  -21.3150   43.3070 H   0  0  0  0  0  0  0  0  0  0  0  0
   21.6542  -21.7693   43.9770 H   0  0  0  0  0  0  0  0  0  0  0  0
   22.2383  -20.8554   46.1949 H   0  0  0  0  0  0  0  0  0  0  0  0
   22.5692  -19.8893   49.5070 H   0  0  0  0  0  0  0  0  0  0  0  0
   23.2361  -20.5159   47.9613 H   0  0  0  0  0  0  0  0  0  0  0  0
   21.7151  -19.5604   47.9613 H   0  0  0  0  0  0  0  0  0  0  0  0
   20.5583  -21.2871   50.6329 H   0  0  0  0  0  0  0  0  0  0  0  0
   20.0147  -20.1509   49.3522 H   0  0  0  0  0  0  0  0  0  0  0  0
   19.4315  -21.8499   49.3522 H   0  0  0  0  0  0  0  0  0  0  0  0
   22.2852  -22.4373   50.5399 H   0  0  0  0  0  0  0  0  0  0  0  0
   22.1680  -23.6135   49.1872 H   0  0  0  0  0  0  0  0  0  0  0  0
   23.4653  -22.3710   49.1872 H   0  0  0  0  0  0  0  0  0  0  0  0
  1  2  1  0
  2  3  1  0
  3  4  2  0
  4  5  1  0
  5  6  1  0
  6  7  1  0
  7  8  1  0
  8  9  2  0
  9 10  1  0
 10 11  2  0
 11 12  1  0
 12 13  1  0
 12 14  2  0
 14 15  1  0
 15 16  2  0
 15 17  1  0
 17 18  1  0
  5 19  2  0
 19 20  1  0
 20 21  2  0
 21 22  1  0
 22 23  1  0
 22 24  1  0
 22 25  1  0
 21  3  1  0
 17  6  2  0
 14  8  1  0
  1 26  1  0
  1 27  1  0
  1 28  1  0
  2 29  1  0
  2 30  1  0
  4 31  1  0
  9 32  1  0
 10 33  1  0
 11 34  1  0
 13 35  1  0
 18 36  1  0
 19 37  1  0
 20 38  1  0
 23 39  1  0
 23 40  1  0
 23 41  1  0
 24 42  1  0
 24 43  1  0
 24 44  1  0
 25 45  1  0
 25 46  1  0
 25 47  1  0
M  END
>  <meeko>  (9) 
{"is_sidechain": [false], "free_energy": -6.873, "intermolecular_energy": -7.947, "internal_energy": -0.431}

$$$$
