cand_021_out
     RDKit          3D

 36 38  0  0  0  0  0  0  0  0999 V2000
   22.3070  -27.6850   41.9410 C   0  0  0  0  0  0  0  0  0  0  0  0
   21.1350  -27.0470   41.8290 C   0  0  0  0  0  0  0  0  0  0  0  0
   20.1820  -27.3250   40.7470 C   0  0  0  0  0  0  0  0  0  0  0  0
   20.2060  -28.5840   40.1200 C   0  0  0  0  0  0  0  0  0  0  0  0
   19.3120  -28.9060   39.0880 C   0  0  0  0  0  0  0  0  0  0  0  0
   19.3220  -30.2340   38.4410 C   0  0  0  0  0  0  0  0  0  0  0  0
   18.9190  -31.2550   39.2940 O   0  0  0  0  0  0  0  0  0  0  0  0
   18.8840  -32.5410   38.8180 C   0  0  0  0  0  0  0  0  0  0  0  0
   18.4880  -33.5370   39.7130 C   0  0  0  0  0  0  0  0  0  0  0  0
   18.4290  -34.8670   39.2910 C   0  0  0  0  0  0  0  0  0  0  0  0
   18.7650  -35.2010   37.9780 C   0  0  0  0  0  0  0  0  0  0  0  0
   19.1590  -34.2050   37.0880 C   0  0  0  0  0  0  0  0  0  0  0  0
   19.4730  -34.6020   35.8170 O   0  0  0  0  0  0  0  0  0  0  0  0
   19.2190  -32.8750   37.5090 C   0  0  0  0  0  0  0  0  0  0  0  0
   19.6270  -31.7980   36.6060 C   0  0  0  0  0  0  0  0  0  0  0  0
   19.9310  -32.0100   35.4340 O   0  0  0  0  0  0  0  0  0  0  0  0
   19.6660  -30.4230   37.1530 C   0  0  0  0  0  0  0  0  0  0  0  0
   20.0400  -29.4100   36.2890 O   0  0  0  0  0  0  0  0  0  0  0  0
   18.3660  -27.9500   38.7040 C   0  0  0  0  0  0  0  0  0  0  0  0
   18.3270  -26.6970   39.3210 C   0  0  0  0  0  0  0  0  0  0  0  0
   19.2310  -26.3690   40.3460 C   0  0  0  0  0  0  0  0  0  0  0  0
   19.1750  -25.0000   40.9790 C   0  0  0  0  0  0  0  0  0  0  0  0
   20.2410  -24.2200   40.6430 F   0  0  0  0  0  0  0  0  0  0  0  0
   19.1690  -25.0350   42.3440 F   0  0  0  0  0  0  0  0  0  0  0  0
   22.9885  -27.4421   42.7696 H   0  0  0  0  0  0  0  0  0  0  0  0
   22.5883  -28.4520   41.2044 H   0  0  0  0  0  0  0  0  0  0  0  0
   20.8757  -26.2839   42.5777 H   0  0  0  0  0  0  0  0  0  0  0  0
   20.9425  -29.3330   40.4463 H   0  0  0  0  0  0  0  0  0  0  0  0
   18.2232  -33.2747   40.7479 H   0  0  0  0  0  0  0  0  0  0  0  0
   18.1171  -35.6529   39.9947 H   0  0  0  0  0  0  0  0  0  0  0  0
   18.7187  -36.2490   37.6469 H   0  0  0  0  0  0  0  0  0  0  0  0
   19.5520  -35.5150   35.6160 H   0  0  0  0  0  0  0  0  0  0  0  0
   19.4200  -29.0640   35.6770 H   0  0  0  0  0  0  0  0  0  0  0  0
   17.6450  -28.1871   37.9078 H   0  0  0  0  0  0  0  0  0  0  0  0
   17.5787  -25.9573   39.0002 H   0  0  0  0  0  0  0  0  0  0  0  0
   18.2329  -24.5833   40.5931 H   0  0  0  0  0  0  0  0  0  0  0  0
  1  2  2  0
  2  3  1  0
  3  4  2  0
  4  5  1  0
  5  6  1  0
  6  7  1  0
  7  8  1  0
  8  9  2  0
  9 10  1  0
 10 11  2  0
 11 12  1  0
 12 13  1  0
 12 14  2  0
 14 15  1  0
 15 16  2  0
 15 17  1  0
 17 18  1  0
  5 19  2  0
 19 20  1  0
 20 21  2  0
 21 22  1  0
 22 23  1  0
 22 24  1  0
 21  3  1  0
 17  6  2  0
 14  8  1  0
  1 25  1  0
  1 26  1  0
  2 27  1  0
  4 28  1  0
  9 29  1  0
 10 30  1  0
 11 31  1  0
 13 32  1  0
 18 33  1  0
 19 34  1  0
 20 35  1  0
 22 36  1  0
M  END
>  <meeko>  (1) 
{"is_sidechain": [false], "free_energy": -8.144, "intermolecular_energy": -10.048, "internal_energy": -0.348}

$$$$
cand_021_out
     RDKit          3D

 36 38  0  0  0  0  0  0  0  0999 V2000
   18.4820  -33.8700   39.5970 C   0  0  0  0  0  0  0  0  0  0  0  0
   19.1480  -33.6630   38.4540 C   0  0  0  0  0  0  0  0  0  0  0  0
   19.3410  -32.3250   37.8800 C   0  0  0  0  0  0  0  0  0  0  0  0
   19.1990  -31.1970   38.7090 C   0  0  0  0  0  0  0  0  0  0  0  0
   19.3810  -29.8970   38.2150 C   0  0  0  0  0  0  0  0  0  0  0  0
   19.2520  -28.7120   39.0870 C   0  0  0  0  0  0  0  0  0  0  0  0
   20.1760  -28.7000   40.1250 O   0  0  0  0  0  0  0  0  0  0  0  0
   20.1640  -27.6530   41.0110 C   0  0  0  0  0  0  0  0  0  0  0  0
   21.0980  -27.6890   42.0470 C   0  0  0  0  0  0  0  0  0  0  0  0
   21.1400  -26.6520   42.9830 C   0  0  0  0  0  0  0  0  0  0  0  0
   20.2510  -25.5820   42.8820 C   0  0  0  0  0  0  0  0  0  0  0  0
   19.3190  -25.5480   41.8470 C   0  0  0  0  0  0  0  0  0  0  0  0
   18.4780  -24.4710   41.8080 O   0  0  0  0  0  0  0  0  0  0  0  0
   19.2760  -26.5860   40.9120 C   0  0  0  0  0  0  0  0  0  0  0  0
   18.3140  -26.5890   39.8090 C   0  0  0  0  0  0  0  0  0  0  0  0
   17.5030  -25.6790   39.6490 O   0  0  0  0  0  0  0  0  0  0  0  0
   18.3450  -27.7390   38.8770 C   0  0  0  0  0  0  0  0  0  0  0  0
   17.4420  -27.7270   37.8300 O   0  0  0  0  0  0  0  0  0  0  0  0
   19.7360  -29.7390   36.8710 C   0  0  0  0  0  0  0  0  0  0  0  0
   19.8860  -30.8500   36.0370 C   0  0  0  0  0  0  0  0  0  0  0  0
   19.6900  -32.1520   36.5280 C   0  0  0  0  0  0  0  0  0  0  0  0
   19.8410  -33.3300   35.5960 C   0  0  0  0  0  0  0  0  0  0  0  0
   20.3280  -32.9760   34.3730 F   0  0  0  0  0  0  0  0  0  0  0  0
   18.6630  -33.9730   35.3430 F   0  0  0  0  0  0  0  0  0  0  0  0
   18.3636  -34.8916   39.9873 H   0  0  0  0  0  0  0  0  0  0  0  0
   18.0533  -33.0185   40.1457 H   0  0  0  0  0  0  0  0  0  0  0  0
   19.5676  -34.5303   37.9233 H   0  0  0  0  0  0  0  0  0  0  0  0
   18.9394  -31.3379   39.7686 H   0  0  0  0  0  0  0  0  0  0  0  0
   21.8000  -28.5321   42.1269 H   0  0  0  0  0  0  0  0  0  0  0  0
   21.8753  -26.6797   43.8006 H   0  0  0  0  0  0  0  0  0  0  0  0
   20.2857  -24.7659   43.6187 H   0  0  0  0  0  0  0  0  0  0  0  0
   17.5640  -24.5820   41.9860 H   0  0  0  0  0  0  0  0  0  0  0  0
   16.8470  -27.0100   37.7330 H   0  0  0  0  0  0  0  0  0  0  0  0
   19.8988  -28.7291   36.4664 H   0  0  0  0  0  0  0  0  0  0  0  0
   20.1612  -30.7035   34.9821 H   0  0  0  0  0  0  0  0  0  0  0  0
   20.5403  -33.9875   36.1333 H   0  0  0  0  0  0  0  0  0  0  0  0
  1  2  2  0
  2  3  1  0
  3  4  2  0
  4  5  1  0
  5  6  1  0
  6  7  1  0
  7  8  1  0
  8  9  2  0
  9 10  1  0
 10 11  2  0
 11 12  1  0
 12 13  1  0
 12 14  2  0
 14 15  1  0
 15 16  2  0
 15 17  1  0
 17 18  1  0
  5 19  2  0
 19 20  1  0
 20 21  2  0
 21 22  1  0
 22 23  1  0
 22 24  1  0
 21  3  1  0
 17  6  2  0
 14  8  1  0
  1 25  1  0
  1 26  1  0
  2 27  1  0
  4 28  1  0
  9 29  1  0
 10 30  1  0
 11 31  1  0
 13 32  1  0
 18 33  1  0
 19 34  1  0
 20 35  1  0
 22 36  1  0
M  END
>  <meeko>  (2) 
{"is_sidechain": [false], "free_energy": -8.008, "intermolecular_energy": -9.745, "internal_energy": -0.484}

$$$$
cand_021_out
     RDKit          3D

 36 38  0  0  0  0  0  0  0  0999 V2000
   20.0560  -30.4840   34.0140 C   0  0  0  0  0  0  0  0  0  0  0  0
   20.6280  -31.1530   35.0220 C   0  0  0  0  0  0  0  0  0  0  0  0
   20.0400  -31.2180   36.3660 C   0  0  0  0  0  0  0  0  0  0  0  0
   19.9330  -30.0380   37.1240 C   0  0  0  0  0  0  0  0  0  0  0  0
   19.3710  -30.0410   38.4090 C   0  0  0  0  0  0  0  0  0  0  0  0
   19.2400  -28.8000   39.2000 C   0  0  0  0  0  0  0  0  0  0  0  0
   20.1500  -28.7270   40.2470 O   0  0  0  0  0  0  0  0  0  0  0  0
   20.1350  -27.6240   41.0630 C   0  0  0  0  0  0  0  0  0  0  0  0
   21.0560  -27.5990   42.1120 C   0  0  0  0  0  0  0  0  0  0  0  0
   21.0940  -26.5040   42.9790 C   0  0  0  0  0  0  0  0  0  0  0  0
   20.2140  -25.4360   42.7960 C   0  0  0  0  0  0  0  0  0  0  0  0
   19.2970  -25.4640   41.7490 C   0  0  0  0  0  0  0  0  0  0  0  0
   18.4650  -24.3850   41.6280 O   0  0  0  0  0  0  0  0  0  0  0  0
   19.2580  -26.5590   40.8830 C   0  0  0  0  0  0  0  0  0  0  0  0
   18.3100  -26.6280   39.7700 C   0  0  0  0  0  0  0  0  0  0  0  0
   17.5080  -25.7250   39.5390 O   0  0  0  0  0  0  0  0  0  0  0  0
   18.3440  -27.8360   38.9150 C   0  0  0  0  0  0  0  0  0  0  0  0
   17.4540  -27.8860   37.8580 O   0  0  0  0  0  0  0  0  0  0  0  0
   18.8880  -31.2500   38.9230 C   0  0  0  0  0  0  0  0  0  0  0  0
   18.9820  -32.4280   38.1780 C   0  0  0  0  0  0  0  0  0  0  0  0
   19.5580  -32.4290   36.8960 C   0  0  0  0  0  0  0  0  0  0  0  0
   19.6620  -33.7230   36.1270 C   0  0  0  0  0  0  0  0  0  0  0  0
   18.8720  -33.7410   35.0160 F   0  0  0  0  0  0  0  0  0  0  0  0
   19.2850  -34.8160   36.8540 F   0  0  0  0  0  0  0  0  0  0  0  0
   20.5358  -30.4648   33.0243 H   0  0  0  0  0  0  0  0  0  0  0  0
   19.1060  -29.9533   34.1751 H   0  0  0  0  0  0  0  0  0  0  0  0
   21.5778  -31.6758   34.8361 H   0  0  0  0  0  0  0  0  0  0  0  0
   20.2984  -29.0913   36.6993 H   0  0  0  0  0  0  0  0  0  0  0  0
   21.7505  -28.4399   42.2556 H   0  0  0  0  0  0  0  0  0  0  0  0
   21.8182  -26.4835   43.8067 H   0  0  0  0  0  0  0  0  0  0  0  0
   20.2451  -24.5736   43.4781 H   0  0  0  0  0  0  0  0  0  0  0  0
   18.3620  -23.9610   40.7980 H   0  0  0  0  0  0  0  0  0  0  0  0
   16.5590  -27.6410   37.9860 H   0  0  0  0  0  0  0  0  0  0  0  0
   18.4301  -31.2728   39.9229 H   0  0  0  0  0  0  0  0  0  0  0  0
   18.5996  -33.3687   38.6010 H   0  0  0  0  0  0  0  0  0  0  0  0
   20.7291  -33.7739   35.8649 H   0  0  0  0  0  0  0  0  0  0  0  0
  1  2  2  0
  2  3  1  0
  3  4  2  0
  4  5  1  0
  5  6  1  0
  6  7  1  0
  7  8  1  0
  8  9  2  0
  9 10  1  0
 10 11  2  0
 11 12  1  0
 12 13  1  0
 12 14  2  0
 14 15  1  0
 15 16  2  0
 15 17  1  0
 17 18  1  0
  5 19  2  0
 19 20  1  0
 20 21  2  0
 21 22  1  0
 22 23  1  0
 22 24  1  0
 21  3  1  0
 17  6  2  0
 14  8  1  0
  1 25  1  0
  1 26  1  0
  2 27  1  0
  4 28  1  0
  9 29  1  0
 10 30  1  0
 11 31  1  0
 13 32  1  0
 18 33  1  0
 19 34  1  0
 20 35  1  0
 22 36  1  0
M  END
>  <meeko>  (3) 
{"is_sidechain": [false], "free_energy": -7.826, "intermolecular_energy": -9.396, "internal_energy": -0.608}

$$$$
cand_021_out
     RDKit          3D

 36 38  0  0  0  0  0  0  0  0999 V2000
   18.3420  -24.6620   37.2090 C   0  0  0  0  0  0  0  0  0  0  0  0
   17.8770  -25.3010   38.2890 C   0  0  0  0  0  0  0  0  0  0  0  0
   18.6210  -26.3780   38.9550 C   0  0  0  0  0  0  0  0  0  0  0  0
   18.6230  -27.6640   38.3840 C   0  0  0  0  0  0  0  0  0  0  0  0
   19.3240  -28.7260   38.9730 C   0  0  0  0  0  0  0  0  0  0  0  0
   19.3440  -30.0720   38.3660 C   0  0  0  0  0  0  0  0  0  0  0  0
   18.9400  -31.0690   39.2460 O   0  0  0  0  0  0  0  0  0  0  0  0
   18.9130  -32.3690   38.8090 C   0  0  0  0  0  0  0  0  0  0  0  0
   18.5170  -33.3390   39.7310 C   0  0  0  0  0  0  0  0  0  0  0  0
   18.4670  -34.6830   39.3490 C   0  0  0  0  0  0  0  0  0  0  0  0
   18.8110  -35.0540   38.0480 C   0  0  0  0  0  0  0  0  0  0  0  0
   19.2060  -34.0830   37.1300 C   0  0  0  0  0  0  0  0  0  0  0  0
   19.5290  -34.5160   35.8740 O   0  0  0  0  0  0  0  0  0  0  0  0
   19.2570  -32.7400   37.5130 C   0  0  0  0  0  0  0  0  0  0  0  0
   19.6660  -31.6890   36.5800 C   0  0  0  0  0  0  0  0  0  0  0  0
   19.9770  -31.9350   35.4160 O   0  0  0  0  0  0  0  0  0  0  0  0
   19.6950  -30.2980   37.0860 C   0  0  0  0  0  0  0  0  0  0  0  0
   20.0690  -29.3100   36.1940 O   0  0  0  0  0  0  0  0  0  0  0  0
   20.0530  -28.4770   40.1410 C   0  0  0  0  0  0  0  0  0  0  0  0
   20.0650  -27.2030   40.7160 C   0  0  0  0  0  0  0  0  0  0  0  0
   19.3520  -26.1420   40.1340 C   0  0  0  0  0  0  0  0  0  0  0  0
   19.3700  -24.7830   40.7910 C   0  0  0  0  0  0  0  0  0  0  0  0
   20.1500  -23.8860   40.1250 F   0  0  0  0  0  0  0  0  0  0  0  0
   19.8560  -24.8060   42.0670 F   0  0  0  0  0  0  0  0  0  0  0  0
   17.7473  -23.8612   36.7452 H   0  0  0  0  0  0  0  0  0  0  0  0
   19.3189  -24.9375   36.7851 H   0  0  0  0  0  0  0  0  0  0  0  0
   16.8975  -25.0076   38.6945 H   0  0  0  0  0  0  0  0  0  0  0  0
   18.0619  -27.8402   37.4544 H   0  0  0  0  0  0  0  0  0  0  0  0
   18.2448  -33.0468   40.7559 H   0  0  0  0  0  0  0  0  0  0  0  0
   18.1562  -35.4491   40.0746 H   0  0  0  0  0  0  0  0  0  0  0  0
   18.7703  -36.1115   37.7479 H   0  0  0  0  0  0  0  0  0  0  0  0
   20.0980  -35.2540   35.7630 H   0  0  0  0  0  0  0  0  0  0  0  0
   19.4290  -28.9140   35.6360 H   0  0  0  0  0  0  0  0  0  0  0  0
   20.6224  -29.2921   40.6115 H   0  0  0  0  0  0  0  0  0  0  0  0
   20.6408  -27.0290   41.6370 H   0  0  0  0  0  0  0  0  0  0  0  0
   18.3115  -24.4841   40.7790 H   0  0  0  0  0  0  0  0  0  0  0  0
  1  2  2  0
  2  3  1  0
  3  4  2  0
  4  5  1  0
  5  6  1  0
  6  7  1  0
  7  8  1  0
  8  9  2  0
  9 10  1  0
 10 11  2  0
 11 12  1  0
 12 13  1  0
 12 14  2  0
 14 15  1  0
 15 16  2  0
 15 17  1  0
 17 18  1  0
  5 19  2  0
 19 20  1  0
 20 21  2  0
 21 22  1  0
 22 23  1  0
 22 24  1  0
 21  3  1  0
 17  6  2  0
 14  8  1  0
  1 25  1  0
  1 26  1  0
  2 27  1  0
  4 28  1  0
  9 29  1  0
 10 30  1  0
 11 31  1  0
 13 32  1  0
 18 33  1  0
 19 34  1  0
 20 35  1  0
 22 36  1  0
M  END
>  <meeko>  (4) 
{"is_sidechain": [false], "free_energy": -7.533, "intermolecular_energy": -9.166, "internal_energy": -0.476}

$$$$
cand_021_out
     RDKit          3D

 36 38  0  0  0  0  0  0  0  0999 V2000
   24.0010  -29.8390   42.3170 C   0  0  0  0  0  0  0  0  0  0  0  0
   23.9470  -28.5040   42.4030 C   0  0  0  0  0  0  0  0  0  0  0  0
   22.6830  -27.7570   42.3530 C   0  0  0  0  0  0  0  0  0  0  0  0
   22.0780  -27.5180   41.1060 C   0  0  0  0  0  0  0  0  0  0  0  0
   20.8680  -26.8180   41.0000 C   0  0  0  0  0  0  0  0  0  0  0  0
   20.2200  -26.5820   39.6940 C   0  0  0  0  0  0  0  0  0  0  0  0
   20.0320  -25.2330   39.4190 O   0  0  0  0  0  0  0  0  0  0  0  0
   19.4380  -24.8740   38.2350 C   0  0  0  0  0  0  0  0  0  0  0  0
   19.2550  -23.5090   38.0070 C   0  0  0  0  0  0  0  0  0  0  0  0
   18.6580  -23.0770   36.8200 C   0  0  0  0  0  0  0  0  0  0  0  0
   18.2460  -24.0070   35.8640 C   0  0  0  0  0  0  0  0  0  0  0  0
   18.4310  -25.3680   36.0940 C   0  0  0  0  0  0  0  0  0  0  0  0
   18.0050  -26.2230   35.1160 O   0  0  0  0  0  0  0  0  0  0  0  0
   19.0270  -25.8010   37.2820 C   0  0  0  0  0  0  0  0  0  0  0  0
   19.2400  -27.2210   37.5640 C   0  0  0  0  0  0  0  0  0  0  0  0
   18.9120  -28.1000   36.7690 O   0  0  0  0  0  0  0  0  0  0  0  0
   19.8730  -27.5750   38.8540 C   0  0  0  0  0  0  0  0  0  0  0  0
   20.0830  -28.9190   39.1060 O   0  0  0  0  0  0  0  0  0  0  0  0
   20.2490  -26.3770   42.1750 C   0  0  0  0  0  0  0  0  0  0  0  0
   20.8350  -26.6120   43.4210 C   0  0  0  0  0  0  0  0  0  0  0  0
   22.0550  -27.3010   43.5270 C   0  0  0  0  0  0  0  0  0  0  0  0
   22.6720  -27.5220   44.8860 C   0  0  0  0  0  0  0  0  0  0  0  0
   23.9430  -27.0360   44.9740 F   0  0  0  0  0  0  0  0  0  0  0  0
   22.7660  -28.8400   45.2300 F   0  0  0  0  0  0  0  0  0  0  0  0
   24.9720  -30.3540   42.3594 H   0  0  0  0  0  0  0  0  0  0  0  0
   23.0743  -30.4208   42.2040 H   0  0  0  0  0  0  0  0  0  0  0  0
   24.8870  -27.9439   42.5156 H   0  0  0  0  0  0  0  0  0  0  0  0
   22.5657  -27.8890   40.1925 H   0  0  0  0  0  0  0  0  0  0  0  0
   19.5799  -22.7756   38.7597 H   0  0  0  0  0  0  0  0  0  0  0  0
   18.5123  -22.0019   36.6384 H   0  0  0  0  0  0  0  0  0  0  0  0
   17.7758  -23.6653   34.9301 H   0  0  0  0  0  0  0  0  0  0  0  0
   17.6440  -27.0580   35.3470 H   0  0  0  0  0  0  0  0  0  0  0  0
   20.5000  -29.4570   38.4620 H   0  0  0  0  0  0  0  0  0  0  0  0
   19.2909  -25.8397   42.1168 H   0  0  0  0  0  0  0  0  0  0  0  0
   20.3343  -26.2526   44.3321 H   0  0  0  0  0  0  0  0  0  0  0  0
   21.9877  -26.9875   45.5613 H   0  0  0  0  0  0  0  0  0  0  0  0
  1  2  2  0
  2  3  1  0
  3  4  2  0
  4  5  1  0
  5  6  1  0
  6  7  1  0
  7  8  1  0
  8  9  2  0
  9 10  1  0
 10 11  2  0
 11 12  1  0
 12 13  1  0
 12 14  2  0
 14 15  1  0
 15 16  2  0
 15 17  1  0
 17 18  1  0
  5 19  2  0
 19 20  1  0
 20 21  2  0
 21 22  1  0
 22 23  1  0
 22 24  1  0
 21  3  1  0
 17  6  2  0
 14  8  1  0
  1 25  1  0
  1 26  1  0
  2 27  1  0
  4 28  1  0
  9 29  1  0
 10 30  1  0
 11 31  1  0
 13 32  1  0
 18 33  1  0
 19 34  1  0
 20 35  1  0
 22 36  1  0
M  END
>  <meeko>  (5) 
{"is_sidechain": [false], "free_energy": -7.415, "intermolecular_energy": -9.148, "internal_energy": -0.349}

$$$$
cand_021_out
     RDKit          3D

 36 38  0  0  0  0  0  0  0  0999 V2000
   19.3640  -23.6020   37.9100 C   0  0  0  0  0  0  0  0  0  0  0  0
   19.6100  -24.7800   37.3230 C   0  0  0  0  0  0  0  0  0  0  0  0
   19.6940  -26.0380   38.0750 C   0  0  0  0  0  0  0  0  0  0  0  0
   20.4420  -26.0760   39.2650 C   0  0  0  0  0  0  0  0  0  0  0  0
   20.5480  -27.2490   40.0270 C   0  0  0  0  0  0  0  0  0  0  0  0
   21.3170  -27.2870   41.2880 C   0  0  0  0  0  0  0  0  0  0  0  0
   22.3060  -28.2630   41.2890 O   0  0  0  0  0  0  0  0  0  0  0  0
   23.0950  -28.4060   42.4030 C   0  0  0  0  0  0  0  0  0  0  0  0
   24.0650  -29.4090   42.3670 C   0  0  0  0  0  0  0  0  0  0  0  0
   24.9030  -29.6060   43.4680 C   0  0  0  0  0  0  0  0  0  0  0  0
   24.7700  -28.8020   44.6010 C   0  0  0  0  0  0  0  0  0  0  0  0
   23.8010  -27.8020   44.6340 C   0  0  0  0  0  0  0  0  0  0  0  0
   23.7260  -27.0520   45.7750 O   0  0  0  0  0  0  0  0  0  0  0  0
   22.9630  -27.6060   43.5330 C   0  0  0  0  0  0  0  0  0  0  0  0
   21.9320  -26.5670   43.5260 C   0  0  0  0  0  0  0  0  0  0  0  0
   21.7580  -25.8140   44.4820 O   0  0  0  0  0  0  0  0  0  0  0  0
   21.0910  -26.4450   42.3140 C   0  0  0  0  0  0  0  0  0  0  0  0
   20.1290  -25.4520   42.3100 O   0  0  0  0  0  0  0  0  0  0  0  0
   19.8670  -28.3910   39.5910 C   0  0  0  0  0  0  0  0  0  0  0  0
   19.1150  -28.3660   38.4140 C   0  0  0  0  0  0  0  0  0  0  0  0
   19.0200  -27.1950   37.6420 C   0  0  0  0  0  0  0  0  0  0  0  0
   18.2160  -27.2080   36.3650 C   0  0  0  0  0  0  0  0  0  0  0  0
   16.8800  -27.3710   36.5840 F   0  0  0  0  0  0  0  0  0  0  0  0
   18.5670  -28.2170   35.5150 F   0  0  0  0  0  0  0  0  0  0  0  0
   19.3104  -22.6858   37.3035 H   0  0  0  0  0  0  0  0  0  0  0  0
   19.2155  -23.5504   38.9987 H   0  0  0  0  0  0  0  0  0  0  0  0
   19.7551  -24.8062   36.2329 H   0  0  0  0  0  0  0  0  0  0  0  0
   20.9558  -25.1652   39.6062 H   0  0  0  0  0  0  0  0  0  0  0  0
   24.1696  -30.0429   41.4741 H   0  0  0  0  0  0  0  0  0  0  0  0
   25.6683  -30.3957   43.4415 H   0  0  0  0  0  0  0  0  0  0  0  0
   25.4299  -28.9579   45.4672 H   0  0  0  0  0  0  0  0  0  0  0  0
   24.0980  -27.3740   46.5730 H   0  0  0  0  0  0  0  0  0  0  0  0
   19.4450  -25.4590   42.9510 H   0  0  0  0  0  0  0  0  0  0  0  0
   19.9244  -29.3177   40.1809 H   0  0  0  0  0  0  0  0  0  0  0  0
   18.5898  -29.2754   38.0867 H   0  0  0  0  0  0  0  0  0  0  0  0
   18.4354  -26.2258   35.9210 H   0  0  0  0  0  0  0  0  0  0  0  0
  1  2  2  0
  2  3  1  0
  3  4  2  0
  4  5  1  0
  5  6  1  0
  6  7  1  0
  7  8  1  0
  8  9  2  0
  9 10  1  0
 10 11  2  0
 11 12  1  0
 12 13  1  0
 12 14  2  0
 14 15  1  0
 15 16  2  0
 15 17  1  0
 17 18  1  0
  5 19  2  0
 19 20  1  0
 20 21  2  0
 21 22  1  0
 22 23  1  0
 22 24  1  0
 21  3  1  0
 17  6  2  0
 14  8  1  0
  1 25  1  0
  1 26  1  0
  2 27  1  0
  4 28  1  0
  9 29  1  0
 10 30  1  0
 11 31  1  0
 13 32  1  0
 18 33  1  0
 19 34  1  0
 20 35  1  0
 22 36  1  0
M  END
>  <meeko>  (6) 
{"is_sidechain": [false], "free_energy": -7.378, "intermolecular_energy": -8.991, "internal_energy": -0.46}

$$$$
cand_021_out
     RDKit          3D

 36 38  0  0  0  0  0  0  0  0999 V2000
   22.2310  -25.2880   45.5920 C   0  0  0  0  0  0  0  0  0  0  0  0
   22.6530  -26.5350   45.3460 C   0  0  0  0  0  0  0  0  0  0  0  0
   22.6660  -27.1170   43.9980 C   0  0  0  0  0  0  0  0  0  0  0  0
   21.6990  -26.7030   43.0640 C   0  0  0  0  0  0  0  0  0  0  0  0
   21.6710  -27.2190   41.7610 C   0  0  0  0  0  0  0  0  0  0  0  0
   20.6680  -26.7720   40.7720 C   0  0  0  0  0  0  0  0  0  0  0  0
   20.5600  -25.3880   40.6980 O   0  0  0  0  0  0  0  0  0  0  0  0
   19.6620  -24.8390   39.8180 C   0  0  0  0  0  0  0  0  0  0  0  0
   19.5740  -23.4470   39.7890 C   0  0  0  0  0  0  0  0  0  0  0  0
   18.6810  -22.8240   38.9140 C   0  0  0  0  0  0  0  0  0  0  0  0
   17.8780  -23.5930   38.0690 C   0  0  0  0  0  0  0  0  0  0  0  0
   17.9670  -24.9820   38.1010 C   0  0  0  0  0  0  0  0  0  0  0  0
   17.1520  -25.6730   37.2470 O   0  0  0  0  0  0  0  0  0  0  0  0
   18.8600  -25.6050   38.9770 C   0  0  0  0  0  0  0  0  0  0  0  0
   18.9870  -27.0610   39.0420 C   0  0  0  0  0  0  0  0  0  0  0  0
   18.3200  -27.8060   38.3260 O   0  0  0  0  0  0  0  0  0  0  0  0
   19.9560  -27.6230   40.0100 C   0  0  0  0  0  0  0  0  0  0  0  0
   20.0780  -28.9990   40.0540 O   0  0  0  0  0  0  0  0  0  0  0  0
   22.6500  -28.1470   41.3900 C   0  0  0  0  0  0  0  0  0  0  0  0
   23.6210  -28.5630   42.3050 C   0  0  0  0  0  0  0  0  0  0  0  0
   23.6410  -28.0570   43.6160 C   0  0  0  0  0  0  0  0  0  0  0  0
   24.6900  -28.5420   44.5860 C   0  0  0  0  0  0  0  0  0  0  0  0
   25.6860  -29.2460   43.9770 F   0  0  0  0  0  0  0  0  0  0  0  0
   24.1950  -29.3760   45.5470 F   0  0  0  0  0  0  0  0  0  0  0  0
   22.2405  -24.8969   46.6201 H   0  0  0  0  0  0  0  0  0  0  0  0
   21.8749  -24.6549   44.7660 H   0  0  0  0  0  0  0  0  0  0  0  0
   23.0044  -27.1486   46.1886 H   0  0  0  0  0  0  0  0  0  0  0  0
   20.9476  -25.9573   43.3630 H   0  0  0  0  0  0  0  0  0  0  0  0
   20.2068  -22.8410   40.4541 H   0  0  0  0  0  0  0  0  0  0  0  0
   18.6102  -21.7265   38.8905 H   0  0  0  0  0  0  0  0  0  0  0  0
   17.1761  -23.1019   37.3790 H   0  0  0  0  0  0  0  0  0  0  0  0
   17.4560  -25.9020   36.3900 H   0  0  0  0  0  0  0  0  0  0  0  0
   19.6810  -29.5270   39.3900 H   0  0  0  0  0  0  0  0  0  0  0  0
   22.6555  -28.5533   40.3678 H   0  0  0  0  0  0  0  0  0  0  0  0
   24.3799  -29.2964   41.9949 H   0  0  0  0  0  0  0  0  0  0  0  0
   25.0683  -27.6103   45.0320 H   0  0  0  0  0  0  0  0  0  0  0  0
  1  2  2  0
  2  3  1  0
  3  4  2  0
  4  5  1  0
  5  6  1  0
  6  7  1  0
  7  8  1  0
  8  9  2  0
  9 10  1  0
 10 11  2  0
 11 12  1  0
 12 13  1  0
 12 14  2  0
 14 15  1  0
 15 16  2  0
 15 17  1  0
 17 18  1  0
  5 19  2  0
 19 20  1  0
 20 21  2  0
 21 22  1  0
 22 23  1  0
 22 24  1  0
 21  3  1  0
 17  6  2  0
 14  8  1  0
  1 25  1  0
  1 26  1  0
  2 27  1  0
  4 28  1  0
  9 29  1  0
 10 30  1  0
 11 31  1  0
 13 32  1  0
 18 33  1  0
 19 34  1  0
 20 35  1  0
 22 36  1  0
M  END
>  <meeko>  (7) 
{"is_sidechain": [false], "free_energy": -7.37, "intermolecular_energy": -9.08, "internal_energy": -0.361}

$$$$
cand_021_out
     RDKit          3D

 36 38  0  0  0  0  0  0  0  0999 V2000
   20.5600  -31.3240   34.5270 C   0  0  0  0  0  0  0  0  0  0  0  0
   20.1230  -32.0890   35.5350 C   0  0  0  0  0  0  0  0  0  0  0  0
   19.7230  -31.5350   36.8350 C   0  0  0  0  0  0  0  0  0  0  0  0
   19.7590  -30.1420   37.0260 C   0  0  0  0  0  0  0  0  0  0  0  0
   19.3800  -29.5590   38.2440 C   0  0  0  0  0  0  0  0  0  0  0  0
   19.3980  -28.0950   38.4410 C   0  0  0  0  0  0  0  0  0  0  0  0
   18.5510  -27.4210   37.5700 O   0  0  0  0  0  0  0  0  0  0  0  0
   18.4740  -26.0530   37.6450 C   0  0  0  0  0  0  0  0  0  0  0  0
   17.6230  -25.4160   36.7410 C   0  0  0  0  0  0  0  0  0  0  0  0
   17.4970  -24.0250   36.7670 C   0  0  0  0  0  0  0  0  0  0  0  0
   18.2190  -23.2730   37.6950 C   0  0  0  0  0  0  0  0  0  0  0  0
   19.0670  -23.9120   38.5960 C   0  0  0  0  0  0  0  0  0  0  0  0
   19.7440  -23.1160   39.4780 O   0  0  0  0  0  0  0  0  0  0  0  0
   19.1940  -25.3030   38.5700 C   0  0  0  0  0  0  0  0  0  0  0  0
   20.0730  -26.0150   39.4990 C   0  0  0  0  0  0  0  0  0  0  0  0
   20.7370  -25.4250   40.3500 O   0  0  0  0  0  0  0  0  0  0  0  0
   20.1430  -27.4890   39.3840 C   0  0  0  0  0  0  0  0  0  0  0  0
   20.9660  -28.1530   40.2740 O   0  0  0  0  0  0  0  0  0  0  0  0
   18.9340  -30.3960   39.2730 C   0  0  0  0  0  0  0  0  0  0  0  0
   18.8880  -31.7810   39.0950 C   0  0  0  0  0  0  0  0  0  0  0  0
   19.2810  -32.3670   37.8800 C   0  0  0  0  0  0  0  0  0  0  0  0
   19.2380  -33.8680   37.7280 C   0  0  0  0  0  0  0  0  0  0  0  0
   18.1260  -34.2990   37.0660 F   0  0  0  0  0  0  0  0  0  0  0  0
   19.2260  -34.5330   38.9210 F   0  0  0  0  0  0  0  0  0  0  0  0
   20.8483  -31.7857   33.5711 H   0  0  0  0  0  0  0  0  0  0  0  0
   20.6307  -30.2337   34.6546 H   0  0  0  0  0  0  0  0  0  0  0  0
   20.0610  -33.1767   35.3834 H   0  0  0  0  0  0  0  0  0  0  0  0
   20.0921  -29.4949   36.2011 H   0  0  0  0  0  0  0  0  0  0  0  0
   17.0528  -26.0077   36.0097 H   0  0  0  0  0  0  0  0  0  0  0  0
   16.8273  -23.5212   36.0545 H   0  0  0  0  0  0  0  0  0  0  0  0
   18.1184  -22.1778   37.7146 H   0  0  0  0  0  0  0  0  0  0  0  0
   19.3300  -22.8360   40.2720 H   0  0  0  0  0  0  0  0  0  0  0  0
   20.7520  -28.1700   41.1870 H   0  0  0  0  0  0  0  0  0  0  0  0
   18.6165  -29.9592   40.2314 H   0  0  0  0  0  0  0  0  0  0  0  0
   18.5390  -32.4220   39.9180 H   0  0  0  0  0  0  0  0  0  0  0  0
   20.1561  -34.0892   37.1639 H   0  0  0  0  0  0  0  0  0  0  0  0
  1  2  2  0
  2  3  1  0
  3  4  2  0
  4  5  1  0
  5  6  1  0
  6  7  1  0
  7  8  1  0
  8  9  2  0
  9 10  1  0
 10 11  2  0
 11 12  1  0
 12 13  1  0
 12 14  2  0
 14 15  1  0
 15 16  2  0
 15 17  1  0
 17 18  1  0
  5 19  2  0
 19 20  1  0
 20 21  2  0
 21 22  1  0
 22 23  1  0
 22 24  1  0
 21  3  1  0
 17  6  2  0
 14  8  1  0
  1 25  1  0
  1 26  1  0
  2 27  1  0
  4 28  1  0
  9 29  1  0
 10 30  1  0
 11 31  1  0
 13 32  1  0
 18 33  1  0
 19 34  1  0
 20 35  1  0
 22 36  1  0
M  END
>  <meeko>  (8) 
{"is_sidechain": [false], "free_energy": -7.241, "intermolecular_energy": -8.77, "internal_energy": -0.512}

$$$$
cand_021_out
     RDKit          3D

 36 38  0  0  0  0  0  0  0  0999 V2000
   21.9310  -27.5810   41.9080 C   0  0  0  0  0  0  0  0  0  0  0  0
   20.6340  -27.5150   41.5820 C   0  0  0  0  0  0  0  0  0  0  0  0
   20.1600  -27.5940   40.1940 C   0  0  0  0  0  0  0  0  0  0  0  0
   20.1240  -28.8460   39.5530 C   0  0  0  0  0  0  0  0  0  0  0  0
   19.6730  -28.9800   38.2320 C   0  0  0  0  0  0  0  0  0  0  0  0
   19.6170  -30.2950   37.5620 C   0  0  0  0  0  0  0  0  0  0  0  0
   20.0430  -30.2480   36.2400 O   0  0  0  0  0  0  0  0  0  0  0  0
   20.0400  -31.4040   35.5010 C   0  0  0  0  0  0  0  0  0  0  0  0
   20.4600  -31.3080   34.1740 C   0  0  0  0  0  0  0  0  0  0  0  0
   20.4830  -32.4480   33.3670 C   0  0  0  0  0  0  0  0  0  0  0  0
   20.0860  -33.6820   33.8860 C   0  0  0  0  0  0  0  0  0  0  0  0
   19.6660  -33.7740   35.2120 C   0  0  0  0  0  0  0  0  0  0  0  0
   19.2920  -35.0120   35.6560 O   0  0  0  0  0  0  0  0  0  0  0  0
   19.6430  -32.6330   36.0180 C   0  0  0  0  0  0  0  0  0  0  0  0
   19.2100  -32.6870   37.4150 C   0  0  0  0  0  0  0  0  0  0  0  0
   18.8530  -33.7360   37.9480 O   0  0  0  0  0  0  0  0  0  0  0  0
   19.2150  -31.4200   38.1820 C   0  0  0  0  0  0  0  0  0  0  0  0
   18.8170  -31.4830   39.5050 O   0  0  0  0  0  0  0  0  0  0  0  0
   19.2270  -27.8350   37.5610 C   0  0  0  0  0  0  0  0  0  0  0  0
   19.2510  -26.5870   38.1880 C   0  0  0  0  0  0  0  0  0  0  0  0
   19.7170  -26.4500   39.5060 C   0  0  0  0  0  0  0  0  0  0  0  0
   19.7480  -25.0840   40.1470 C   0  0  0  0  0  0  0  0  0  0  0  0
   18.7180  -24.8870   41.0180 F   0  0  0  0  0  0  0  0  0  0  0  0
   19.6570  -24.0610   39.2460 F   0  0  0  0  0  0  0  0  0  0  0  0
   22.2370  -27.5171   42.9627 H   0  0  0  0  0  0  0  0  0  0  0  0
   22.6906  -27.6991   41.1212 H   0  0  0  0  0  0  0  0  0  0  0  0
   19.8932  -27.3968   42.3865 H   0  0  0  0  0  0  0  0  0  0  0  0
   20.4572  -29.7400   40.1005 H   0  0  0  0  0  0  0  0  0  0  0  0
   20.7725  -30.3363   33.7639 H   0  0  0  0  0  0  0  0  0  0  0  0
   20.8145  -32.3734   32.3208 H   0  0  0  0  0  0  0  0  0  0  0  0
   20.1046  -34.5793   33.2500 H   0  0  0  0  0  0  0  0  0  0  0  0
   19.8320  -35.4750   36.2660 H   0  0  0  0  0  0  0  0  0  0  0  0
   18.1700  -30.8870   39.8290 H   0  0  0  0  0  0  0  0  0  0  0  0
   18.8539  -27.9190   36.5296 H   0  0  0  0  0  0  0  0  0  0  0  0
   18.9000  -25.6990   37.6419 H   0  0  0  0  0  0  0  0  0  0  0  0
   20.7205  -25.0704   40.6608 H   0  0  0  0  0  0  0  0  0  0  0  0
  1  2  2  0
  2  3  1  0
  3  4  2  0
  4  5  1  0
  5  6  1  0
  6  7  1  0
  7  8  1  0
  8  9  2  0
  9 10  1  0
 10 11  2  0
 11 12  1  0
 12 13  1  0
 12 14  2  0
 14 15  1  0
 15 16  2  0
 15 17  1  0
 17 18  1  0
  5 19  2  0
 19 20  1  0
 20 21  2  0
 21 22  1  0
 22 23  1  0
 22 24  1  0
 21  3  1  0
 17  6  2  0
 14  8  1  0
  1 25  1  0
  1 26  1  0
  2 27  1  0
  4 28  1  0
  9 29  1  0
 10 30  1  0
 11 31  1  0
 13 32  1  0
 18 33  1  0
 19 34  1  0
 20 35  1  0
 22 36  1  0
M  END
>  <meeko>  (9) 
{"is_sidechain": [false], "free_energy": -7.163, "intermolecular_energy": -8.887, "internal_energy": -0.3}

$$$$
