cand_050_out
     RDKit          3D

 38 40  0  0  0  0  0  0  0  0999 V2000
   20.0360  -33.0850   34.4150 C   0  0  0  0  0  0  0  0  0  0  0  0
   19.7390  -33.5020   35.8480 C   0  0  0  0  0  0  0  0  0  0  0  0
   19.5790  -32.3080   36.7650 C   0  0  0  0  0  0  0  0  0  0  0  0
   19.8400  -31.0300   36.2410 C   0  0  0  0  0  0  0  0  0  0  0  0
   19.7210  -29.8880   37.0360 C   0  0  0  0  0  0  0  0  0  0  0  0
   19.3340  -29.9870   38.3760 C   0  0  0  0  0  0  0  0  0  0  0  0
   19.2320  -28.7680   39.2050 C   0  0  0  0  0  0  0  0  0  0  0  0
   20.1610  -28.7360   40.2390 O   0  0  0  0  0  0  0  0  0  0  0  0
   20.1730  -27.6560   41.0850 C   0  0  0  0  0  0  0  0  0  0  0  0
   21.1110  -27.6720   42.1180 C   0  0  0  0  0  0  0  0  0  0  0  0
   21.1790  -26.6030   43.0140 C   0  0  0  0  0  0  0  0  0  0  0  0
   20.3100  -25.5190   42.8760 C   0  0  0  0  0  0  0  0  0  0  0  0
   19.3750  -25.5050   41.8450 C   0  0  0  0  0  0  0  0  0  0  0  0
   18.5540  -24.4130   41.7690 O   0  0  0  0  0  0  0  0  0  0  0  0
   19.3060  -26.5760   40.9490 C   0  0  0  0  0  0  0  0  0  0  0  0
   18.3390  -26.6010   39.8520 C   0  0  0  0  0  0  0  0  0  0  0  0
   17.5450  -25.6820   39.6610 O   0  0  0  0  0  0  0  0  0  0  0  0
   18.3430  -27.7860   38.9630 C   0  0  0  0  0  0  0  0  0  0  0  0
   17.4350  -27.7970   37.9210 O   0  0  0  0  0  0  0  0  0  0  0  0
   19.0900  -31.2630   38.9050 C   0  0  0  0  0  0  0  0  0  0  0  0
   19.2060  -32.4310   38.1210 C   0  0  0  0  0  0  0  0  0  0  0  0
   18.9080  -33.7700   38.7580 C   0  0  0  0  0  0  0  0  0  0  0  0
   19.9430  -34.6570   38.6810 F   0  0  0  0  0  0  0  0  0  0  0  0
   17.8460  -34.4060   38.1870 F   0  0  0  0  0  0  0  0  0  0  0  0
   18.6140  -33.6660   40.0840 F   0  0  0  0  0  0  0  0  0  0  0  0
   20.6741  -32.1890   34.4186 H   0  0  0  0  0  0  0  0  0  0  0  0
   20.5558  -33.9033   33.8952 H   0  0  0  0  0  0  0  0  0  0  0  0
   19.0927  -32.8612   33.8952 H   0  0  0  0  0  0  0  0  0  0  0  0
   18.8079  -34.0875   35.8617 H   0  0  0  0  0  0  0  0  0  0  0  0
   20.5893  -34.0978   36.2115 H   0  0  0  0  0  0  0  0  0  0  0  0
   20.1427  -30.9278   35.1884 H   0  0  0  0  0  0  0  0  0  0  0  0
   19.9341  -28.8995   36.6031 H   0  0  0  0  0  0  0  0  0  0  0  0
   21.7961  -28.5257   42.2264 H   0  0  0  0  0  0  0  0  0  0  0  0
   21.9177  -26.6150   43.8290 H   0  0  0  0  0  0  0  0  0  0  0  0
   20.3642  -24.6767   43.5814 H   0  0  0  0  0  0  0  0  0  0  0  0
   18.9070  -23.5780   41.5330 H   0  0  0  0  0  0  0  0  0  0  0  0
   17.2740  -27.0140   37.4320 H   0  0  0  0  0  0  0  0  0  0  0  0
   18.7997  -31.3561   39.9619 H   0  0  0  0  0  0  0  0  0  0  0  0
  1  2  1  0
  2  3  1  0
  3  4  2  0
  4  5  1  0
  5  6  2  0
  6  7  1  0
  7  8  1  0
  8  9  1  0
  9 10  2  0
 10 11  1  0
 11 12  2  0
 12 13  1  0
 13 14  1  0
 13 15  2  0
 15 16  1  0
 16 17  2  0
 16 18  1  0
 18 19  1  0
  6 20  1  0
 20 21  2  0
 21 22  1  0
 22 23  1  0
 22 24  1  0
 22 25  1  0
 21  3  1  0
 18  7  2  0
 15  9  1  0
  1 26  1  0
  1 27  1  0
  1 28  1  0
  2 29  1  0
  2 30  1  0
  4 31  1  0
  5 32  1  0
 10 33  1  0
 11 34  1  0
 12 35  1  0
 14 36  1  0
 19 37  1  0
 20 38  1  0
M  END
>  <meeko>  (1) 
{"is_sidechain": [false], "free_energy": -8.37, "intermolecular_energy": -10.327, "internal_energy": -0.517}

$$$$
cand_050_out
     RDKit          3D

 38 40  0  0  0  0  0  0  0  0999 V2000
   19.2670  -34.6410   36.1650 C   0  0  0  0  0  0  0  0  0  0  0  0
   19.7530  -33.4030   35.4260 C   0  0  0  0  0  0  0  0  0  0  0  0
   19.6670  -32.1600   36.2860 C   0  0  0  0  0  0  0  0  0  0  0  0
   19.2200  -32.3000   37.6110 C   0  0  0  0  0  0  0  0  0  0  0  0
   19.1100  -31.1910   38.4540 C   0  0  0  0  0  0  0  0  0  0  0  0
   19.4450  -29.9120   38.0000 C   0  0  0  0  0  0  0  0  0  0  0  0
   19.3030  -28.7500   38.9030 C   0  0  0  0  0  0  0  0  0  0  0  0
   20.2380  -28.7460   39.9320 O   0  0  0  0  0  0  0  0  0  0  0  0
   20.2160  -27.7210   40.8430 C   0  0  0  0  0  0  0  0  0  0  0  0
   21.1620  -27.7650   41.8680 C   0  0  0  0  0  0  0  0  0  0  0  0
   21.1960  -26.7500   42.8280 C   0  0  0  0  0  0  0  0  0  0  0  0
   20.2860  -25.6930   42.7610 C   0  0  0  0  0  0  0  0  0  0  0  0
   19.3430  -25.6520   41.7370 C   0  0  0  0  0  0  0  0  0  0  0  0
   18.4820  -24.5890   41.7330 O   0  0  0  0  0  0  0  0  0  0  0  0
   19.3080  -26.6680   40.7780 C   0  0  0  0  0  0  0  0  0  0  0  0
   18.3340  -26.6630   39.6860 C   0  0  0  0  0  0  0  0  0  0  0  0
   17.5060  -25.7650   39.5550 O   0  0  0  0  0  0  0  0  0  0  0  0
   18.3770  -27.7900   38.7260 C   0  0  0  0  0  0  0  0  0  0  0  0
   17.4620  -27.7720   37.6900 O   0  0  0  0  0  0  0  0  0  0  0  0
   19.8760  -29.7680   36.6730 C   0  0  0  0  0  0  0  0  0  0  0  0
   19.9930  -30.8740   35.8030 C   0  0  0  0  0  0  0  0  0  0  0  0
   20.4820  -30.6420   34.3900 C   0  0  0  0  0  0  0  0  0  0  0  0
   19.5770  -30.9940   33.4320 F   0  0  0  0  0  0  0  0  0  0  0  0
   21.6110  -31.3470   34.0960 F   0  0  0  0  0  0  0  0  0  0  0  0
   20.7820  -29.3350   34.1470 F   0  0  0  0  0  0  0  0  0  0  0  0
   19.3340  -34.4705   37.2496 H   0  0  0  0  0  0  0  0  0  0  0  0
   18.2218  -34.8456   35.8898 H   0  0  0  0  0  0  0  0  0  0  0  0
   19.8939  -35.5020   35.8898 H   0  0  0  0  0  0  0  0  0  0  0  0
   20.8003  -33.5562   35.1266 H   0  0  0  0  0  0  0  0  0  0  0  0
   19.1064  -33.2549   34.5485 H   0  0  0  0  0  0  0  0  0  0  0  0
   18.9527  -33.2974   37.9901 H   0  0  0  0  0  0  0  0  0  0  0  0
   18.7558  -31.3260   39.4866 H   0  0  0  0  0  0  0  0  0  0  0  0
   21.8796  -28.5971   41.9202 H   0  0  0  0  0  0  0  0  0  0  0  0
   21.9403  -26.7838   43.6372 H   0  0  0  0  0  0  0  0  0  0  0  0
   20.3139  -24.8937   43.5162 H   0  0  0  0  0  0  0  0  0  0  0  0
   18.1190  -24.2840   40.9250 H   0  0  0  0  0  0  0  0  0  0  0  0
   16.6110  -28.1450   37.8100 H   0  0  0  0  0  0  0  0  0  0  0  0
   20.1301  -28.7650   36.2995 H   0  0  0  0  0  0  0  0  0  0  0  0
  1  2  1  0
  2  3  1  0
  3  4  2  0
  4  5  1  0
  5  6  2  0
  6  7  1  0
  7  8  1  0
  8  9  1  0
  9 10  2  0
 10 11  1  0
 11 12  2  0
 12 13  1  0
 13 14  1  0
 13 15  2  0
 15 16  1  0
 16 17  2  0
 16 18  1  0
 18 19  1  0
  6 20  1  0
 20 21  2  0
 21 22  1  0
 22 23  1  0
 22 24  1  0
 22 25  1  0
 21  3  1  0
 18  7  2  0
 15  9  1  0
  1 26  1  0
  1 27  1  0
  1 28  1  0
  2 29  1  0
  2 30  1  0
  4 31  1  0
  5 32  1  0
 10 33  1  0
 11 34  1  0
 12 35  1  0
 14 36  1  0
 19 37  1  0
 20 38  1  0
M  END
>  <meeko>  (2) 
{"is_sidechain": [false], "free_energy": -8.128, "intermolecular_energy": -9.986, "internal_energy": -0.56}

$$$$
cand_050_out
     RDKit          3D

 38 40  0  0  0  0  0  0  0  0999 V2000
   19.3630  -24.1250   39.8200 C   0  0  0  0  0  0  0  0  0  0  0  0
   19.0190  -25.2280   40.8110 C   0  0  0  0  0  0  0  0  0  0  0  0
   19.1510  -26.6050   40.1950 C   0  0  0  0  0  0  0  0  0  0  0  0
   18.1790  -27.0110   39.2650 C   0  0  0  0  0  0  0  0  0  0  0  0
   18.2380  -28.2720   38.6670 C   0  0  0  0  0  0  0  0  0  0  0  0
   19.2700  -29.1630   38.9770 C   0  0  0  0  0  0  0  0  0  0  0  0
   19.3040  -30.5000   38.3470 C   0  0  0  0  0  0  0  0  0  0  0  0
   18.8560  -31.5090   39.1930 O   0  0  0  0  0  0  0  0  0  0  0  0
   18.8370  -32.8000   38.7310 C   0  0  0  0  0  0  0  0  0  0  0  0
   18.3960  -33.7830   39.6170 C   0  0  0  0  0  0  0  0  0  0  0  0
   18.3490  -35.1180   39.2100 C   0  0  0  0  0  0  0  0  0  0  0  0
   18.7420  -35.4690   37.9170 C   0  0  0  0  0  0  0  0  0  0  0  0
   19.1820  -34.4860   37.0340 C   0  0  0  0  0  0  0  0  0  0  0  0
   19.5520  -34.9000   35.7830 O   0  0  0  0  0  0  0  0  0  0  0  0
   19.2300  -33.1500   37.4430 C   0  0  0  0  0  0  0  0  0  0  0  0
   19.6860  -32.0870   36.5470 C   0  0  0  0  0  0  0  0  0  0  0  0
   20.0410  -32.3140   35.3920 O   0  0  0  0  0  0  0  0  0  0  0  0
   19.7060  -30.7060   37.0790 C   0  0  0  0  0  0  0  0  0  0  0  0
   20.1250  -29.7040   36.2230 O   0  0  0  0  0  0  0  0  0  0  0  0
   20.2320  -28.7650   39.9180 C   0  0  0  0  0  0  0  0  0  0  0  0
   20.1910  -27.4970   40.5360 C   0  0  0  0  0  0  0  0  0  0  0  0
   21.2750  -27.1330   41.5270 C   0  0  0  0  0  0  0  0  0  0  0  0
   22.0900  -28.1770   41.8550 F   0  0  0  0  0  0  0  0  0  0  0  0
   20.7800  -26.6760   42.7120 F   0  0  0  0  0  0  0  0  0  0  0  0
   22.1020  -26.1550   41.0630 F   0  0  0  0  0  0  0  0  0  0  0  0
   19.6469  -23.2147   40.3685 H   0  0  0  0  0  0  0  0  0  0  0  0
   20.2028  -24.4490   39.1877 H   0  0  0  0  0  0  0  0  0  0  0  0
   18.4879  -23.9142   39.1877 H   0  0  0  0  0  0  0  0  0  0  0  0
   19.7001  -25.1572   41.6718 H   0  0  0  0  0  0  0  0  0  0  0  0
   17.9720  -25.0928   41.1201 H   0  0  0  0  0  0  0  0  0  0  0  0
   17.3593  -26.3255   39.0040 H   0  0  0  0  0  0  0  0  0  0  0  0
   17.4636  -28.5675   37.9438 H   0  0  0  0  0  0  0  0  0  0  0  0
   18.0855  -33.5068   40.6355 H   0  0  0  0  0  0  0  0  0  0  0  0
   18.0021  -35.8936   39.9086 H   0  0  0  0  0  0  0  0  0  0  0  0
   18.7041  -36.5205   37.5962 H   0  0  0  0  0  0  0  0  0  0  0  0
   20.2080  -35.5600   35.6840 H   0  0  0  0  0  0  0  0  0  0  0  0
   20.5810  -29.9240   35.4340 H   0  0  0  0  0  0  0  0  0  0  0  0
   21.0415  -29.4616   40.1815 H   0  0  0  0  0  0  0  0  0  0  0  0
  1  2  1  0
  2  3  1  0
  3  4  2  0
  4  5  1  0
  5  6  2  0
  6  7  1  0
  7  8  1  0
  8  9  1  0
  9 10  2  0
 10 11  1  0
 11 12  2  0
 12 13  1  0
 13 14  1  0
 13 15  2  0
 15 16  1  0
 16 17  2  0
 16 18  1  0
 18 19  1  0
  6 20  1  0
 20 21  2  0
 21 22  1  0
 22 23  1  0
 22 24  1  0
 22 25  1  0
 21  3  1  0
 18  7  2  0
 15  9  1  0
  1 26  1  0
  1 27  1  0
  1 28  1  0
  2 29  1  0
  2 30  1  0
  4 31  1  0
  5 32  1  0
 10 33  1  0
 11 34  1  0
 12 35  1  0
 14 36  1  0
 19 37  1  0
 20 38  1  0
M  END
>  <meeko>  (3) 
{"is_sidechain": [false], "free_energy": -8.084, "intermolecular_energy": -9.829, "internal_energy": -0.662}

$$$$
cand_050_out
     RDKit          3D

 38 40  0  0  0  0  0  0  0  0999 V2000
   19.3940  -24.6760   41.9390 C   0  0  0  0  0  0  0  0  0  0  0  0
   19.8880  -24.6820   40.4990 C   0  0  0  0  0  0  0  0  0  0  0  0
   19.7510  -26.0470   39.8590 C   0  0  0  0  0  0  0  0  0  0  0  0
   20.1560  -27.1710   40.6000 C   0  0  0  0  0  0  0  0  0  0  0  0
   20.0640  -28.4570   40.0630 C   0  0  0  0  0  0  0  0  0  0  0  0
   19.5620  -28.6600   38.7740 C   0  0  0  0  0  0  0  0  0  0  0  0
   19.4910  -30.0280   38.2190 C   0  0  0  0  0  0  0  0  0  0  0  0
   19.0820  -30.9720   39.1540 O   0  0  0  0  0  0  0  0  0  0  0  0
   18.9750  -32.2840   38.7680 C   0  0  0  0  0  0  0  0  0  0  0  0
   18.5760  -33.2000   39.7420 C   0  0  0  0  0  0  0  0  0  0  0  0
   18.4440  -34.5520   39.4150 C   0  0  0  0  0  0  0  0  0  0  0  0
   18.7090  -34.9850   38.1150 C   0  0  0  0  0  0  0  0  0  0  0  0
   19.1070  -34.0690   37.1450 C   0  0  0  0  0  0  0  0  0  0  0  0
   19.3510  -34.5630   35.8920 O   0  0  0  0  0  0  0  0  0  0  0  0
   19.2400  -32.7170   37.4720 C   0  0  0  0  0  0  0  0  0  0  0  0
   19.6550  -31.7220   36.4830 C   0  0  0  0  0  0  0  0  0  0  0  0
   19.9000  -32.0240   35.3170 O   0  0  0  0  0  0  0  0  0  0  0  0
   19.7730  -30.3170   36.9350 C   0  0  0  0  0  0  0  0  0  0  0  0
   20.1530  -29.3800   35.9910 O   0  0  0  0  0  0  0  0  0  0  0  0
   19.1730  -27.5380   38.0280 C   0  0  0  0  0  0  0  0  0  0  0  0
   19.2590  -26.2290   38.5480 C   0  0  0  0  0  0  0  0  0  0  0  0
   18.8020  -25.0700   37.6890 C   0  0  0  0  0  0  0  0  0  0  0  0
   17.7040  -24.4250   38.1780 F   0  0  0  0  0  0  0  0  0  0  0  0
   18.4640  -25.4480   36.4240 F   0  0  0  0  0  0  0  0  0  0  0  0
   19.7590  -24.1110   37.5510 F   0  0  0  0  0  0  0  0  0  0  0  0
   20.2559  -24.6865   42.6224 H   0  0  0  0  0  0  0  0  0  0  0  0
   18.7955  -23.7705   42.1175 H   0  0  0  0  0  0  0  0  0  0  0  0
   18.7737  -25.5667   42.1175 H   0  0  0  0  0  0  0  0  0  0  0  0
   19.2992  -23.9566   39.9184 H   0  0  0  0  0  0  0  0  0  0  0  0
   20.9549  -24.4144   40.5043 H   0  0  0  0  0  0  0  0  0  0  0  0
   20.5511  -27.0356   41.6176 H   0  0  0  0  0  0  0  0  0  0  0  0
   20.3904  -29.3204   40.6613 H   0  0  0  0  0  0  0  0  0  0  0  0
   18.3656  -32.8581   40.7661 H   0  0  0  0  0  0  0  0  0  0  0  0
   18.1311  -35.2753   40.1824 H   0  0  0  0  0  0  0  0  0  0  0  0
   18.6035  -36.0491   37.8570 H   0  0  0  0  0  0  0  0  0  0  0  0
   18.7080  -34.4690   35.2180 H   0  0  0  0  0  0  0  0  0  0  0  0
   19.5110  -28.9960   35.4270 H   0  0  0  0  0  0  0  0  0  0  0  0
   18.7895  -27.6826   37.0072 H   0  0  0  0  0  0  0  0  0  0  0  0
  1  2  1  0
  2  3  1  0
  3  4  2  0
  4  5  1  0
  5  6  2  0
  6  7  1  0
  7  8  1  0
  8  9  1  0
  9 10  2  0
 10 11  1  0
 11 12  2  0
 12 13  1  0
 13 14  1  0
 13 15  2  0
 15 16  1  0
 16 17  2  0
 16 18  1  0
 18 19  1  0
  6 20  1  0
 20 21  2  0
 21 22  1  0
 22 23  1  0
 22 24  1  0
 22 25  1  0
 21  3  1  0
 18  7  2  0
 15  9  1  0
  1 26  1  0
  1 27  1  0
  1 28  1  0
  2 29  1  0
  2 30  1  0
  4 31  1  0
  5 32  1  0
 10 33  1  0
 11 34  1  0
 12 35  1  0
 14 36  1  0
 19 37  1  0
 20 38  1  0
M  END
>  <meeko>  (4) 
{"is_sidechain": [false], "free_energy": -7.544, "intermolecular_energy": -9.58, "internal_energy": -0.245}

$$$$
cand_050_out
     RDKit          3D

 38 40  0  0  0  0  0  0  0  0999 V2000
   18.1860  -35.4700   39.6950 C   0  0  0  0  0  0  0  0  0  0  0  0
   19.0830  -35.0480   38.5400 C   0  0  0  0  0  0  0  0  0  0  0  0
   19.2030  -33.5430   38.4360 C   0  0  0  0  0  0  0  0  0  0  0  0
   19.1630  -32.7910   39.6230 C   0  0  0  0  0  0  0  0  0  0  0  0
   19.2590  -31.3980   39.5960 C   0  0  0  0  0  0  0  0  0  0  0  0
   19.4020  -30.7150   38.3840 C   0  0  0  0  0  0  0  0  0  0  0  0
   19.4840  -29.2390   38.3760 C   0  0  0  0  0  0  0  0  0  0  0  0
   19.3910  -28.6840   39.6480 O   0  0  0  0  0  0  0  0  0  0  0  0
   19.4520  -27.3200   39.7820 C   0  0  0  0  0  0  0  0  0  0  0  0
   19.3390  -26.8050   41.0740 C   0  0  0  0  0  0  0  0  0  0  0  0
   19.3960  -25.4250   41.2810 C   0  0  0  0  0  0  0  0  0  0  0  0
   19.5660  -24.5620   40.1970 C   0  0  0  0  0  0  0  0  0  0  0  0
   19.6780  -25.0780   38.9090 C   0  0  0  0  0  0  0  0  0  0  0  0
   19.8420  -24.1750   37.8930 O   0  0  0  0  0  0  0  0  0  0  0  0
   19.6200  -26.4590   38.7010 C   0  0  0  0  0  0  0  0  0  0  0  0
   19.7340  -27.0430   37.3650 C   0  0  0  0  0  0  0  0  0  0  0  0
   19.8920  -26.3500   36.3620 O   0  0  0  0  0  0  0  0  0  0  0  0
   19.6520  -28.5170   37.2530 C   0  0  0  0  0  0  0  0  0  0  0  0
   19.7740  -29.0620   35.9880 O   0  0  0  0  0  0  0  0  0  0  0  0
   19.4260  -31.4620   37.1980 C   0  0  0  0  0  0  0  0  0  0  0  0
   19.3280  -32.8700   37.2010 C   0  0  0  0  0  0  0  0  0  0  0  0
   19.3800  -33.6090   35.8810 C   0  0  0  0  0  0  0  0  0  0  0  0
   18.2630  -34.3490   35.6230 F   0  0  0  0  0  0  0  0  0  0  0  0
   20.4190  -34.4870   35.8040 F   0  0  0  0  0  0  0  0  0  0  0  0
   19.5170  -32.7700   34.8170 F   0  0  0  0  0  0  0  0  0  0  0  0
   18.6820  -35.2366   40.6487 H   0  0  0  0  0  0  0  0  0  0  0  0
   17.2315  -34.9265   39.6355 H   0  0  0  0  0  0  0  0  0  0  0  0
   17.9962  -36.5519   39.6355 H   0  0  0  0  0  0  0  0  0  0  0  0
   20.0852  -35.4743   38.6945 H   0  0  0  0  0  0  0  0  0  0  0  0
   18.6326  -35.4182   37.6072 H   0  0  0  0  0  0  0  0  0  0  0  0
   19.0544  -33.3077   40.5880 H   0  0  0  0  0  0  0  0  0  0  0  0
   19.2217  -30.8318   40.5384 H   0  0  0  0  0  0  0  0  0  0  0  0
   19.2052  -27.4850   41.9282 H   0  0  0  0  0  0  0  0  0  0  0  0
   19.3069  -25.0178   42.2990 H   0  0  0  0  0  0  0  0  0  0  0  0
   19.6114  -23.4752   40.3605 H   0  0  0  0  0  0  0  0  0  0  0  0
   20.6210  -23.6580   37.8480 H   0  0  0  0  0  0  0  0  0  0  0  0
   20.3270  -28.6520   35.3520 H   0  0  0  0  0  0  0  0  0  0  0  0
   19.5241  -30.9355   36.2372 H   0  0  0  0  0  0  0  0  0  0  0  0
  1  2  1  0
  2  3  1  0
  3  4  2  0
  4  5  1  0
  5  6  2  0
  6  7  1  0
  7  8  1  0
  8  9  1  0
  9 10  2  0
 10 11  1  0
 11 12  2  0
 12 13  1  0
 13 14  1  0
 13 15  2  0
 15 16  1  0
 16 17  2  0
 16 18  1  0
 18 19  1  0
  6 20  1  0
 20 21  2  0
 21 22  1  0
 22 23  1  0
 22 24  1  0
 22 25  1  0
 21  3  1  0
 18  7  2  0
 15  9  1  0
  1 26  1  0
  1 27  1  0
  1 28  1  0
  2 29  1  0
  2 30  1  0
  4 31  1  0
  5 32  1  0
 10 33  1  0
 11 34  1  0
 12 35  1  0
 14 36  1  0
 19 37  1  0
 20 38  1  0
M  END
>  <meeko>  (5) 
{"is_sidechain": [false], "free_energy": -7.259, "intermolecular_energy": -9.472, "internal_energy": -0.002}

$$$$
cand_050_out
     RDKit          3D

 38 40  0  0  0  0  0  0  0  0999 V2000
   19.6220  -24.3840   40.3730 C   0  0  0  0  0  0  0  0  0  0  0  0
   19.0210  -25.5760   41.1040 C   0  0  0  0  0  0  0  0  0  0  0  0
   19.1620  -26.8570   40.3120 C   0  0  0  0  0  0  0  0  0  0  0  0
   18.1780  -27.1560   39.3530 C   0  0  0  0  0  0  0  0  0  0  0  0
   18.2440  -28.3270   38.5950 C   0  0  0  0  0  0  0  0  0  0  0  0
   19.2950  -29.2320   38.7690 C   0  0  0  0  0  0  0  0  0  0  0  0
   19.3360  -30.4750   37.9690 C   0  0  0  0  0  0  0  0  0  0  0  0
   19.8540  -30.2810   36.6930 O   0  0  0  0  0  0  0  0  0  0  0  0
   19.9470  -31.3560   35.8460 C   0  0  0  0  0  0  0  0  0  0  0  0
   20.4570  -31.1130   34.5700 C   0  0  0  0  0  0  0  0  0  0  0  0
   20.5810  -32.1650   33.6580 C   0  0  0  0  0  0  0  0  0  0  0  0
   20.1960  -33.4560   34.0230 C   0  0  0  0  0  0  0  0  0  0  0  0
   19.6870  -33.6950   35.2960 C   0  0  0  0  0  0  0  0  0  0  0  0
   19.3280  -34.9830   35.5870 O   0  0  0  0  0  0  0  0  0  0  0  0
   19.5620  -32.6430   36.2080 C   0  0  0  0  0  0  0  0  0  0  0  0
   19.0310  -32.8510   37.5560 C   0  0  0  0  0  0  0  0  0  0  0  0
   18.6770  -33.9580   37.9540 O   0  0  0  0  0  0  0  0  0  0  0  0
   18.9330  -31.6690   38.4420 C   0  0  0  0  0  0  0  0  0  0  0  0
   18.4430  -31.8750   39.7190 O   0  0  0  0  0  0  0  0  0  0  0  0
   20.2680  -28.9450   39.7370 C   0  0  0  0  0  0  0  0  0  0  0  0
   20.2210  -27.7680   40.5160 C   0  0  0  0  0  0  0  0  0  0  0  0
   21.3180  -27.5180   41.5280 C   0  0  0  0  0  0  0  0  0  0  0  0
   22.1540  -28.5830   41.7040 F   0  0  0  0  0  0  0  0  0  0  0  0
   20.8380  -27.2280   42.7700 F   0  0  0  0  0  0  0  0  0  0  0  0
   22.1220  -26.4750   41.1820 F   0  0  0  0  0  0  0  0  0  0  0  0
   19.9910  -23.6521   41.1065 H   0  0  0  0  0  0  0  0  0  0  0  0
   20.4566  -24.7236   39.7421 H   0  0  0  0  0  0  0  0  0  0  0  0
   18.8527  -23.9149   39.7421 H   0  0  0  0  0  0  0  0  0  0  0  0
   19.5351  -25.6968   42.0689 H   0  0  0  0  0  0  0  0  0  0  0  0
   17.9478  -25.3812   41.2463 H   0  0  0  0  0  0  0  0  0  0  0  0
   17.3433  -26.4566   39.1975 H   0  0  0  0  0  0  0  0  0  0  0  0
   17.4604  -28.5395   37.8529 H   0  0  0  0  0  0  0  0  0  0  0  0
   20.7608  -30.0956   34.2825 H   0  0  0  0  0  0  0  0  0  0  0  0
   20.9824  -31.9752   32.6516 H   0  0  0  0  0  0  0  0  0  0  0  0
   20.2948  -34.2837   33.3052 H   0  0  0  0  0  0  0  0  0  0  0  0
   19.9750  -35.6590   35.5920 H   0  0  0  0  0  0  0  0  0  0  0  0
   17.6510  -31.4560   39.9900 H   0  0  0  0  0  0  0  0  0  0  0  0
   21.0916  -29.6571   39.8941 H   0  0  0  0  0  0  0  0  0  0  0  0
  1  2  1  0
  2  3  1  0
  3  4  2  0
  4  5  1  0
  5  6  2  0
  6  7  1  0
  7  8  1  0
  8  9  1  0
  9 10  2  0
 10 11  1  0
 11 12  2  0
 12 13  1  0
 13 14  1  0
 13 15  2  0
 15 16  1  0
 16 17  2  0
 16 18  1  0
 18 19  1  0
  6 20  1  0
 20 21  2  0
 21 22  1  0
 22 23  1  0
 22 24  1  0
 22 25  1  0
 21  3  1  0
 18  7  2  0
 15  9  1  0
  1 26  1  0
  1 27  1  0
  1 28  1  0
  2 29  1  0
  2 30  1  0
  4 31  1  0
  5 32  1  0
 10 33  1  0
 11 34  1  0
 12 35  1  0
 14 36  1  0
 19 37  1  0
 20 38  1  0
M  END
>  <meeko>  (6) 
{"is_sidechain": [false], "free_energy": -7.15, "intermolecular_energy": -8.642, "internal_energy": -0.697}

$$$$
cand_050_out
     RDKit          3D

 38 40  0  0  0  0  0  0  0  0999 V2000
   18.4240  -27.5220   35.4130 C   0  0  0  0  0  0  0  0  0  0  0  0
   17.6730  -27.1020   36.6680 C   0  0  0  0  0  0  0  0  0  0  0  0
   18.5730  -27.0710   37.8840 C   0  0  0  0  0  0  0  0  0  0  0  0
   18.8730  -28.2890   38.5190 C   0  0  0  0  0  0  0  0  0  0  0  0
   19.6900  -28.3280   39.6510 C   0  0  0  0  0  0  0  0  0  0  0  0
   20.2350  -27.1550   40.1800 C   0  0  0  0  0  0  0  0  0  0  0  0
   21.0830  -27.2170   41.3900 C   0  0  0  0  0  0  0  0  0  0  0  0
   22.0780  -28.1830   41.3050 O   0  0  0  0  0  0  0  0  0  0  0  0
   22.9360  -28.3450   42.3630 C   0  0  0  0  0  0  0  0  0  0  0  0
   23.9100  -29.3370   42.2420 C   0  0  0  0  0  0  0  0  0  0  0  0
   24.8180  -29.5530   43.2820 C   0  0  0  0  0  0  0  0  0  0  0  0
   24.7510  -28.7770   44.4410 C   0  0  0  0  0  0  0  0  0  0  0  0
   23.7770  -27.7890   44.5590 C   0  0  0  0  0  0  0  0  0  0  0  0
   23.7680  -27.0660   45.7220 O   0  0  0  0  0  0  0  0  0  0  0  0
   22.8690  -27.5730   43.5190 C   0  0  0  0  0  0  0  0  0  0  0  0
   21.8310  -26.5450   43.6030 C   0  0  0  0  0  0  0  0  0  0  0  0
   21.7120  -25.8180   44.5860 O   0  0  0  0  0  0  0  0  0  0  0  0
   20.9140  -26.4030   42.4490 C   0  0  0  0  0  0  0  0  0  0  0  0
   19.9440  -25.4210   42.5300 O   0  0  0  0  0  0  0  0  0  0  0  0
   19.9240  -25.9370   39.5580 C   0  0  0  0  0  0  0  0  0  0  0  0
   19.0990  -25.8730   38.4150 C   0  0  0  0  0  0  0  0  0  0  0  0
   18.8230  -24.5230   37.7880 C   0  0  0  0  0  0  0  0  0  0  0  0
   18.9950  -24.5030   36.4340 F   0  0  0  0  0  0  0  0  0  0  0  0
   19.6340  -23.5390   38.2690 F   0  0  0  0  0  0  0  0  0  0  0  0
   17.5470  -24.0970   38.0010 F   0  0  0  0  0  0  0  0  0  0  0  0
   19.3515  -28.0407   35.6970 H   0  0  0  0  0  0  0  0  0  0  0  0
   17.7933  -28.1983   34.8174 H   0  0  0  0  0  0  0  0  0  0  0  0
   18.6701  -26.6306   34.8174 H   0  0  0  0  0  0  0  0  0  0  0  0
   17.2534  -26.0974   36.5112 H   0  0  0  0  0  0  0  0  0  0  0  0
   16.8791  -27.8408   36.8519 H   0  0  0  0  0  0  0  0  0  0  0  0
   18.4579  -29.2255   38.1181 H   0  0  0  0  0  0  0  0  0  0  0  0
   19.9070  -29.2933   40.1318 H   0  0  0  0  0  0  0  0  0  0  0  0
   23.9629  -29.9482   41.3290 H   0  0  0  0  0  0  0  0  0  0  0  0
   25.5860  -30.3348   43.1876 H   0  0  0  0  0  0  0  0  0  0  0  0
   25.4664  -28.9459   45.2593 H   0  0  0  0  0  0  0  0  0  0  0  0
   24.0370  -26.1700   45.7180 H   0  0  0  0  0  0  0  0  0  0  0  0
   19.1570  -25.5790   43.0130 H   0  0  0  0  0  0  0  0  0  0  0  0
   20.3350  -25.0049   39.9731 H   0  0  0  0  0  0  0  0  0  0  0  0
  1  2  1  0
  2  3  1  0
  3  4  2  0
  4  5  1  0
  5  6  2  0
  6  7  1  0
  7  8  1  0
  8  9  1  0
  9 10  2  0
 10 11  1  0
 11 12  2  0
 12 13  1  0
 13 14  1  0
 13 15  2  0
 15 16  1  0
 16 17  2  0
 16 18  1  0
 18 19  1  0
  6 20  1  0
 20 21  2  0
 21 22  1  0
 22 23  1  0
 22 24  1  0
 22 25  1  0
 21  3  1  0
 18  7  2  0
 15  9  1  0
  1 26  1  0
  1 27  1  0
  1 28  1  0
  2 29  1  0
  2 30  1  0
  4 31  1  0
  5 32  1  0
 10 33  1  0
 11 34  1  0
 12 35  1  0
 14 36  1  0
 19 37  1  0
 20 38  1  0
M  END
>  <meeko>  (7) 
{"is_sidechain": [false], "free_energy": -7.141, "intermolecular_energy": -8.982, "internal_energy": -0.346}

$$$$
cand_050_out
     RDKit          3D

 38 40  0  0  0  0  0  0  0  0999 V2000
   19.9620  -32.9310   34.7320 C   0  0  0  0  0  0  0  0  0  0  0  0
   19.6990  -32.9350   36.2310 C   0  0  0  0  0  0  0  0  0  0  0  0
   19.6190  -31.5330   36.7960 C   0  0  0  0  0  0  0  0  0  0  0  0
   19.7820  -30.4520   35.9130 C   0  0  0  0  0  0  0  0  0  0  0  0
   19.7290  -29.1340   36.3730 C   0  0  0  0  0  0  0  0  0  0  0  0
   19.5070  -28.8560   37.7250 C   0  0  0  0  0  0  0  0  0  0  0  0
   19.4720  -27.4550   38.1930 C   0  0  0  0  0  0  0  0  0  0  0  0
   18.5400  -26.6790   37.5120 O   0  0  0  0  0  0  0  0  0  0  0  0
   18.4070  -25.3560   37.8500 C   0  0  0  0  0  0  0  0  0  0  0  0
   17.4700  -24.6110   37.1320 C   0  0  0  0  0  0  0  0  0  0  0  0
   17.2820  -23.2590   37.4260 C   0  0  0  0  0  0  0  0  0  0  0  0
   18.0290  -22.6530   38.4380 C   0  0  0  0  0  0  0  0  0  0  0  0
   18.9630  -23.3990   39.1530 C   0  0  0  0  0  0  0  0  0  0  0  0
   19.6610  -22.7420   40.1300 O   0  0  0  0  0  0  0  0  0  0  0  0
   19.1520  -24.7520   38.8580 C   0  0  0  0  0  0  0  0  0  0  0  0
   20.1220  -25.5710   39.5850 C   0  0  0  0  0  0  0  0  0  0  0  0
   20.8120  -25.1130   40.4930 O   0  0  0  0  0  0  0  0  0  0  0  0
   20.2500  -26.9920   39.1890 C   0  0  0  0  0  0  0  0  0  0  0  0
   21.1600  -27.7630   39.8890 O   0  0  0  0  0  0  0  0  0  0  0  0
   19.3600  -29.9340   38.6100 C   0  0  0  0  0  0  0  0  0  0  0  0
   19.4120  -31.2740   38.1680 C   0  0  0  0  0  0  0  0  0  0  0  0
   19.2260  -32.3840   39.1810 C   0  0  0  0  0  0  0  0  0  0  0  0
   19.7990  -32.1220   40.3910 F   0  0  0  0  0  0  0  0  0  0  0  0
   19.7660  -33.5680   38.7760 F   0  0  0  0  0  0  0  0  0  0  0  0
   17.9140  -32.6390   39.4430 F   0  0  0  0  0  0  0  0  0  0  0  0
   21.0467  -32.9145   34.5501 H   0  0  0  0  0  0  0  0  0  0  0  0
   19.5283  -33.8358   34.2812 H   0  0  0  0  0  0  0  0  0  0  0  0
   19.5010  -32.0398   34.2812 H   0  0  0  0  0  0  0  0  0  0  0  0
   18.7463  -33.4503   36.4231 H   0  0  0  0  0  0  0  0  0  0  0  0
   20.5368  -33.4520   36.7217 H   0  0  0  0  0  0  0  0  0  0  0  0
   19.9538  -30.6465   34.8440 H   0  0  0  0  0  0  0  0  0  0  0  0
   19.8636  -28.3048   35.6628 H   0  0  0  0  0  0  0  0  0  0  0  0
   16.8804  -25.0885   36.3355 H   0  0  0  0  0  0  0  0  0  0  0  0
   16.5448  -22.6709   36.8598 H   0  0  0  0  0  0  0  0  0  0  0  0
   17.8802  -21.5882   38.6703 H   0  0  0  0  0  0  0  0  0  0  0  0
   20.3500  -22.1530   39.8980 H   0  0  0  0  0  0  0  0  0  0  0  0
   21.8310  -27.3500   40.3950 H   0  0  0  0  0  0  0  0  0  0  0  0
   19.1996  -29.7298   39.6789 H   0  0  0  0  0  0  0  0  0  0  0  0
  1  2  1  0
  2  3  1  0
  3  4  2  0
  4  5  1  0
  5  6  2  0
  6  7  1  0
  7  8  1  0
  8  9  1  0
  9 10  2  0
 10 11  1  0
 11 12  2  0
 12 13  1  0
 13 14  1  0
 13 15  2  0
 15 16  1  0
 16 17  2  0
 16 18  1  0
 18 19  1  0
  6 20  1  0
 20 21  2  0
 21 22  1  0
 22 23  1  0
 22 24  1  0
 22 25  1  0
 21  3  1  0
 18  7  2  0
 15  9  1  0
  1 26  1  0
  1 27  1  0
  1 28  1  0
  2 29  1  0
  2 30  1  0
  4 31  1  0
  5 32  1  0
 10 33  1  0
 11 34  1  0
 12 35  1  0
 14 36  1  0
 19 37  1  0
 20 38  1  0
M  END
>  <meeko>  (8) 
{"is_sidechain": [false], "free_energy": -6.951, "intermolecular_energy": -9.043, "internal_energy": -0.05}

$$$$
cand_050_out
     RDKit          3D

 38 40  0  0  0  0  0  0  0  0999 V2000
   19.6550  -25.5660   42.1180 C   0  0  0  0  0  0  0  0  0  0  0  0
   19.8650  -25.3020   40.6340 C   0  0  0  0  0  0  0  0  0  0  0  0
   19.7720  -26.5710   39.8140 C   0  0  0  0  0  0  0  0  0  0  0  0
   20.0940  -27.7890   40.4380 C   0  0  0  0  0  0  0  0  0  0  0  0
   20.0370  -28.9950   39.7350 C   0  0  0  0  0  0  0  0  0  0  0  0
   19.6530  -29.0210   38.3910 C   0  0  0  0  0  0  0  0  0  0  0  0
   19.6170  -30.3060   37.6600 C   0  0  0  0  0  0  0  0  0  0  0  0
   20.0170  -30.1860   36.3340 O   0  0  0  0  0  0  0  0  0  0  0  0
   20.0290  -31.3060   35.5430 C   0  0  0  0  0  0  0  0  0  0  0  0
   20.4220  -31.1390   34.2140 C   0  0  0  0  0  0  0  0  0  0  0  0
   20.4590  -32.2390   33.3540 C   0  0  0  0  0  0  0  0  0  0  0  0
   20.1040  -33.5050   33.8230 C   0  0  0  0  0  0  0  0  0  0  0  0
   19.7120  -33.6700   35.1490 C   0  0  0  0  0  0  0  0  0  0  0  0
   19.3770  -34.9370   35.5420 O   0  0  0  0  0  0  0  0  0  0  0  0
   19.6740  -32.5680   36.0090 C   0  0  0  0  0  0  0  0  0  0  0  0
   19.2680  -32.6980   37.4090 C   0  0  0  0  0  0  0  0  0  0  0  0
   18.9480  -33.7790   37.8980 O   0  0  0  0  0  0  0  0  0  0  0  0
   19.2550  -31.4680   38.2340 C   0  0  0  0  0  0  0  0  0  0  0  0
   18.8830  -31.6000   39.5590 O   0  0  0  0  0  0  0  0  0  0  0  0
   19.3470  -27.8050   37.7620 C   0  0  0  0  0  0  0  0  0  0  0  0
   19.4000  -26.5750   38.4520 C   0  0  0  0  0  0  0  0  0  0  0  0
   19.0380  -25.3060   37.7110 C   0  0  0  0  0  0  0  0  0  0  0  0
   18.8250  -25.4940   36.3760 F   0  0  0  0  0  0  0  0  0  0  0  0
   20.0050  -24.3490   37.7900 F   0  0  0  0  0  0  0  0  0  0  0  0
   17.8990  -24.7290   38.1860 F   0  0  0  0  0  0  0  0  0  0  0  0
   20.2340  -24.8382   42.7054 H   0  0  0  0  0  0  0  0  0  0  0  0
   18.5867  -25.4662   42.3606 H   0  0  0  0  0  0  0  0  0  0  0  0
   19.9925  -26.5844   42.3606 H   0  0  0  0  0  0  0  0  0  0  0  0
   19.0954  -24.5971   40.2862 H   0  0  0  0  0  0  0  0  0  0  0  0
   20.8745  -24.8854   40.5023 H   0  0  0  0  0  0  0  0  0  0  0  0
   20.3954  -27.7925   41.4959 H   0  0  0  0  0  0  0  0  0  0  0  0
   20.2971  -29.9345   40.2446 H   0  0  0  0  0  0  0  0  0  0  0  0
   20.7024  -30.1417   33.8442 H   0  0  0  0  0  0  0  0  0  0  0  0
   20.7681  -32.1076   32.3065 H   0  0  0  0  0  0  0  0  0  0  0  0
   20.1339  -34.3713   33.1458 H   0  0  0  0  0  0  0  0  0  0  0  0
   19.1350  -35.5770   34.9020 H   0  0  0  0  0  0  0  0  0  0  0  0
   19.4930  -31.3960   40.2390 H   0  0  0  0  0  0  0  0  0  0  0  0
   19.0575  -27.8103   36.7008 H   0  0  0  0  0  0  0  0  0  0  0  0
  1  2  1  0
  2  3  1  0
  3  4  2  0
  4  5  1  0
  5  6  2  0
  6  7  1  0
  7  8  1  0
  8  9  1  0
  9 10  2  0
 10 11  1  0
 11 12  2  0
 12 13  1  0
 13 14  1  0
 13 15  2  0
 15 16  1  0
 16 17  2  0
 16 18  1  0
 18 19  1  0
  6 20  1  0
 20 21  2  0
 21 22  1  0
 22 23  1  0
 22 24  1  0
 22 25  1  0
 21  3  1  0
 18  7  2  0
 15  9  1  0
  1 26  1  0
  1 27  1  0
  1 28  1  0
  2 29  1  0
  2 30  1  0
  4 31  1  0
  5 32  1  0
 10 33  1  0
 11 34  1  0
 12 35  1  0
 14 36  1  0
 19 37  1  0
 20 38  1  0
M  END
>  <meeko>  (9) 
{"is_sidechain": [false], "free_energy": -6.775, "intermolecular_energy": -8.712, "internal_energy": -0.165}

$$$$
