cand_055_out
     RDKit          3D

 41 43  0  0  0  0  0  0  0  0999 V2000
   19.1340  -23.0540   39.5520 C   0  0  0  0  0  0  0  0  0  0  0  0
   19.8940  -24.0060   40.4610 C   0  0  0  0  0  0  0  0  0  0  0  0
   18.9590  -25.0390   41.0940 C   0  0  0  0  0  0  0  0  0  0  0  0
   19.0860  -26.3930   40.4320 C   0  0  0  0  0  0  0  0  0  0  0  0
   18.2310  -26.6930   39.3580 C   0  0  0  0  0  0  0  0  0  0  0  0
   18.2930  -27.9300   38.7120 C   0  0  0  0  0  0  0  0  0  0  0  0
   19.2140  -28.8990   39.1180 C   0  0  0  0  0  0  0  0  0  0  0  0
   19.2850  -30.2260   38.4670 C   0  0  0  0  0  0  0  0  0  0  0  0
   18.8770  -31.2600   39.3030 O   0  0  0  0  0  0  0  0  0  0  0  0
   18.8930  -32.5440   38.8250 C   0  0  0  0  0  0  0  0  0  0  0  0
   18.4610  -33.5490   39.6930 C   0  0  0  0  0  0  0  0  0  0  0  0
   18.4540  -34.8800   39.2700 C   0  0  0  0  0  0  0  0  0  0  0  0
   18.8790  -35.2070   37.9800 C   0  0  0  0  0  0  0  0  0  0  0  0
   19.3090  -34.2020   37.1170 C   0  0  0  0  0  0  0  0  0  0  0  0
   19.7130  -34.5920   35.8690 O   0  0  0  0  0  0  0  0  0  0  0  0
   19.3150  -32.8710   37.5400 C   0  0  0  0  0  0  0  0  0  0  0  0
   19.7600  -31.7860   36.6640 C   0  0  0  0  0  0  0  0  0  0  0  0
   20.1540  -31.9940   35.5190 O   0  0  0  0  0  0  0  0  0  0  0  0
   19.7210  -30.4080   37.2070 C   0  0  0  0  0  0  0  0  0  0  0  0
   20.1550  -29.3920   36.3740 O   0  0  0  0  0  0  0  0  0  0  0  0
   20.0580  -28.6060   40.2000 C   0  0  0  0  0  0  0  0  0  0  0  0
   20.0040  -27.3680   40.8670 C   0  0  0  0  0  0  0  0  0  0  0  0
   20.9500  -27.1170   42.0080 C   0  0  0  0  0  0  0  0  0  0  0  0
   18.5637  -22.3396   40.1639 H   0  0  0  0  0  0  0  0  0  0  0  0
   19.8460  -22.5064   38.9171 H   0  0  0  0  0  0  0  0  0  0  0  0
   18.4422  -23.6270   38.9171 H   0  0  0  0  0  0  0  0  0  0  0  0
   20.6594  -24.5305   39.8702 H   0  0  0  0  0  0  0  0  0  0  0  0
   20.3579  -23.4188   41.2672 H   0  0  0  0  0  0  0  0  0  0  0  0
   19.2093  -25.1394   42.1604 H   0  0  0  0  0  0  0  0  0  0  0  0
   17.9244  -24.6897   40.9615 H   0  0  0  0  0  0  0  0  0  0  0  0
   17.5015  -25.9420   39.0207 H   0  0  0  0  0  0  0  0  0  0  0  0
   17.6105  -28.1431   37.8761 H   0  0  0  0  0  0  0  0  0  0  0  0
   18.1265  -33.2925   40.7090 H   0  0  0  0  0  0  0  0  0  0  0  0
   18.1134  -35.6718   39.9534 H   0  0  0  0  0  0  0  0  0  0  0  0
   18.8740  -36.2553   37.6468 H   0  0  0  0  0  0  0  0  0  0  0  0
   19.6360  -35.4900   35.6110 H   0  0  0  0  0  0  0  0  0  0  0  0
   20.0620  -29.4760   35.4460 H   0  0  0  0  0  0  0  0  0  0  0  0
   20.7810  -29.3640   40.5357 H   0  0  0  0  0  0  0  0  0  0  0  0
   20.4199  -27.2577   42.9615 H   0  0  0  0  0  0  0  0  0  0  0  0
   21.7915  -27.8229   41.9487 H   0  0  0  0  0  0  0  0  0  0  0  0
   21.3308  -26.0867   41.9487 H   0  0  0  0  0  0  0  0  0  0  0  0
  1  2  1  0
  2  3  1  0
  3  4  1  0
  4  5  2  0
  5  6  1  0
  6  7  2  0
  7  8  1  0
  8  9  1  0
  9 10  1  0
 10 11  2  0
 11 12  1  0
 12 13  2  0
 13 14  1  0
 14 15  1  0
 14 16  2  0
 16 17  1  0
 17 18  2  0
 17 19  1  0
 19 20  1  0
  7 21  1  0
 21 22  2  0
 22 23  1  0
 22  4  1  0
 19  8  2  0
 16 10  1  0
  1 24  1  0
  1 25  1  0
  1 26  1  0
  2 27  1  0
  2 28  1  0
  3 29  1  0
  3 30  1  0
  5 31  1  0
  6 32  1  0
 11 33  1  0
 12 34  1  0
 13 35  1  0
 15 36  1  0
 20 37  1  0
 21 38  1  0
 23 39  1  0
 23 40  1  0
 23 41  1  0
M  END
>  <meeko>  (1) 
{"is_sidechain": [false], "free_energy": -7.756, "intermolecular_energy": -9.569, "internal_energy": -0.523}

$$$$
cand_055_out
     RDKit          3D

 41 43  0  0  0  0  0  0  0  0999 V2000
   20.1250  -34.8560   34.1660 C   0  0  0  0  0  0  0  0  0  0  0  0
   19.7180  -33.5920   34.9060 C   0  0  0  0  0  0  0  0  0  0  0  0
   19.5900  -33.8430   36.4100 C   0  0  0  0  0  0  0  0  0  0  0  0
   19.4520  -32.5520   37.1860 C   0  0  0  0  0  0  0  0  0  0  0  0
   19.8990  -31.3630   36.5870 C   0  0  0  0  0  0  0  0  0  0  0  0
   19.8080  -30.1410   37.2570 C   0  0  0  0  0  0  0  0  0  0  0  0
   19.2640  -30.0720   38.5420 C   0  0  0  0  0  0  0  0  0  0  0  0
   19.1770  -28.7950   39.2840 C   0  0  0  0  0  0  0  0  0  0  0  0
   20.0610  -28.7320   40.3550 O   0  0  0  0  0  0  0  0  0  0  0  0
   20.0860  -27.6010   41.1290 C   0  0  0  0  0  0  0  0  0  0  0  0
   20.9990  -27.5750   42.1850 C   0  0  0  0  0  0  0  0  0  0  0  0
   21.0740  -26.4530   43.0140 C   0  0  0  0  0  0  0  0  0  0  0  0
   20.2360  -25.3590   42.7880 C   0  0  0  0  0  0  0  0  0  0  0  0
   19.3270  -25.3870   41.7340 C   0  0  0  0  0  0  0  0  0  0  0  0
   18.5370  -24.2830   41.5700 O   0  0  0  0  0  0  0  0  0  0  0  0
   19.2530  -26.5100   40.9050 C   0  0  0  0  0  0  0  0  0  0  0  0
   18.3110  -26.5800   39.7860 C   0  0  0  0  0  0  0  0  0  0  0  0
   17.5370  -25.6610   39.5280 O   0  0  0  0  0  0  0  0  0  0  0  0
   18.3160  -27.8120   38.9630 C   0  0  0  0  0  0  0  0  0  0  0  0
   17.4130  -27.8720   37.9170 O   0  0  0  0  0  0  0  0  0  0  0  0
   18.8320  -31.2620   39.1480 C   0  0  0  0  0  0  0  0  0  0  0  0
   18.9230  -32.5030   38.4900 C   0  0  0  0  0  0  0  0  0  0  0  0
   18.4240  -33.7350   39.1930 C   0  0  0  0  0  0  0  0  0  0  0  0
   20.3779  -35.6414   34.8934 H   0  0  0  0  0  0  0  0  0  0  0  0
   19.2909  -35.1959   33.5346 H   0  0  0  0  0  0  0  0  0  0  0  0
   21.0007  -34.6453   33.5346 H   0  0  0  0  0  0  0  0  0  0  0  0
   20.4796  -32.8167   34.7360 H   0  0  0  0  0  0  0  0  0  0  0  0
   18.7388  -33.2672   34.5244 H   0  0  0  0  0  0  0  0  0  0  0  0
   18.7012  -34.4648   36.5927 H   0  0  0  0  0  0  0  0  0  0  0  0
   20.5047  -34.3502   36.7507 H   0  0  0  0  0  0  0  0  0  0  0  0
   20.3275  -31.3947   35.5744 H   0  0  0  0  0  0  0  0  0  0  0  0
   20.1682  -29.2238   36.7682 H   0  0  0  0  0  0  0  0  0  0  0  0
   21.6585  -28.4370   42.3640 H   0  0  0  0  0  0  0  0  0  0  0  0
   21.7938  -26.4313   43.8455 H   0  0  0  0  0  0  0  0  0  0  0  0
   20.2941  -24.4764   43.4419 H   0  0  0  0  0  0  0  0  0  0  0  0
   17.6030  -24.3690   41.5800 H   0  0  0  0  0  0  0  0  0  0  0  0
   17.6690  -27.5910   37.0610 H   0  0  0  0  0  0  0  0  0  0  0  0
   18.4113  -31.2238   40.1637 H   0  0  0  0  0  0  0  0  0  0  0  0
   18.4843  -33.5860   40.2812 H   0  0  0  0  0  0  0  0  0  0  0  0
   17.3789  -33.9230   38.9060 H   0  0  0  0  0  0  0  0  0  0  0  0
   19.0438  -34.5973   38.9060 H   0  0  0  0  0  0  0  0  0  0  0  0
  1  2  1  0
  2  3  1  0
  3  4  1  0
  4  5  2  0
  5  6  1  0
  6  7  2  0
  7  8  1  0
  8  9  1  0
  9 10  1  0
 10 11  2  0
 11 12  1  0
 12 13  2  0
 13 14  1  0
 14 15  1  0
 14 16  2  0
 16 17  1  0
 17 18  2  0
 17 19  1  0
 19 20  1  0
  7 21  1  0
 21 22  2  0
 22 23  1  0
 22  4  1  0
 19  8  2  0
 16 10  1  0
  1 24  1  0
  1 25  1  0
  1 26  1  0
  2 27  1  0
  2 28  1  0
  3 29  1  0
  3 30  1  0
  5 31  1  0
  6 32  1  0
 11 33  1  0
 12 34  1  0
 13 35  1  0
 15 36  1  0
 20 37  1  0
 21 38  1  0
 23 39  1  0
 23 40  1  0
 23 41  1  0
M  END
>  <meeko>  (2) 
{"is_sidechain": [false], "free_energy": -7.736, "intermolecular_energy": -9.579, "internal_energy": -0.489}

$$$$
cand_055_out
     RDKit          3D

 41 43  0  0  0  0  0  0  0  0999 V2000
   18.2030  -35.4700   39.3060 C   0  0  0  0  0  0  0  0  0  0  0  0
   19.4240  -34.6390   38.9470 C   0  0  0  0  0  0  0  0  0  0  0  0
   19.2280  -33.9030   37.6210 C   0  0  0  0  0  0  0  0  0  0  0  0
   19.3230  -32.4030   37.7910 C   0  0  0  0  0  0  0  0  0  0  0  0
   18.9730  -31.8490   39.0330 C   0  0  0  0  0  0  0  0  0  0  0  0
   19.0310  -30.4700   39.2490 C   0  0  0  0  0  0  0  0  0  0  0  0
   19.4450  -29.6060   38.2310 C   0  0  0  0  0  0  0  0  0  0  0  0
   19.4920  -28.1410   38.4240 C   0  0  0  0  0  0  0  0  0  0  0  0
   18.8290  -27.4420   37.4210 O   0  0  0  0  0  0  0  0  0  0  0  0
   18.7950  -26.0730   37.4780 C   0  0  0  0  0  0  0  0  0  0  0  0
   18.1060  -25.4130   36.4580 C   0  0  0  0  0  0  0  0  0  0  0  0
   18.0350  -24.0180   36.4550 C   0  0  0  0  0  0  0  0  0  0  0  0
   18.6530  -23.2840   37.4690 C   0  0  0  0  0  0  0  0  0  0  0  0
   19.3380  -23.9450   38.4850 C   0  0  0  0  0  0  0  0  0  0  0  0
   19.9210  -23.1640   39.4460 O   0  0  0  0  0  0  0  0  0  0  0  0
   19.4090  -25.3400   38.4880 C   0  0  0  0  0  0  0  0  0  0  0  0
   20.1210  -26.0730   39.5370 C   0  0  0  0  0  0  0  0  0  0  0  0
   20.6950  -25.4970   40.4580 O   0  0  0  0  0  0  0  0  0  0  0  0
   20.1300  -27.5520   39.4520 C   0  0  0  0  0  0  0  0  0  0  0  0
   20.8160  -28.2340   40.4420 O   0  0  0  0  0  0  0  0  0  0  0  0
   19.7790  -30.1580   36.9840 C   0  0  0  0  0  0  0  0  0  0  0  0
   19.7200  -31.5440   36.7470 C   0  0  0  0  0  0  0  0  0  0  0  0
   20.1100  -32.0660   35.3920 C   0  0  0  0  0  0  0  0  0  0  0  0
   18.1110  -35.5326   40.4004 H   0  0  0  0  0  0  0  0  0  0  0  0
   17.3019  -34.9969   38.8887 H   0  0  0  0  0  0  0  0  0  0  0  0
   18.3125  -36.4819   38.8887 H   0  0  0  0  0  0  0  0  0  0  0  0
   19.6013  -33.9009   39.7431 H   0  0  0  0  0  0  0  0  0  0  0  0
   20.2849  -35.3158   38.8432 H   0  0  0  0  0  0  0  0  0  0  0  0
   20.0041  -34.2309   36.9138 H   0  0  0  0  0  0  0  0  0  0  0  0
   18.2226  -34.1410   37.2435 H   0  0  0  0  0  0  0  0  0  0  0  0
   18.6480  -32.5114   39.8488 H   0  0  0  0  0  0  0  0  0  0  0  0
   18.7481  -30.0600   40.2298 H   0  0  0  0  0  0  0  0  0  0  0  0
   17.6200  -25.9910   35.6582 H   0  0  0  0  0  0  0  0  0  0  0  0
   17.4916  -23.4972   35.6528 H   0  0  0  0  0  0  0  0  0  0  0  0
   18.5988  -22.1853   37.4653 H   0  0  0  0  0  0  0  0  0  0  0  0
   20.4970  -23.5500   40.0770 H   0  0  0  0  0  0  0  0  0  0  0  0
   21.6400  -28.6340   40.2480 H   0  0  0  0  0  0  0  0  0  0  0  0
   20.0954  -29.4890   36.1702 H   0  0  0  0  0  0  0  0  0  0  0  0
   20.7645  -32.9420   35.5110 H   0  0  0  0  0  0  0  0  0  0  0  0
   19.2059  -32.3565   34.8368 H   0  0  0  0  0  0  0  0  0  0  0  0
   20.6449  -31.2814   34.8368 H   0  0  0  0  0  0  0  0  0  0  0  0
  1  2  1  0
  2  3  1  0
  3  4  1  0
  4  5  2  0
  5  6  1  0
  6  7  2  0
  7  8  1  0
  8  9  1  0
  9 10  1  0
 10 11  2  0
 11 12  1  0
 12 13  2  0
 13 14  1  0
 14 15  1  0
 14 16  2  0
 16 17  1  0
 17 18  2  0
 17 19  1  0
 19 20  1  0
  7 21  1  0
 21 22  2  0
 22 23  1  0
 22  4  1  0
 19  8  2  0
 16 10  1  0
  1 24  1  0
  1 25  1  0
  1 26  1  0
  2 27  1  0
  2 28  1  0
  3 29  1  0
  3 30  1  0
  5 31  1  0
  6 32  1  0
 11 33  1  0
 12 34  1  0
 13 35  1  0
 15 36  1  0
 20 37  1  0
 21 38  1  0
 23 39  1  0
 23 40  1  0
 23 41  1  0
M  END
>  <meeko>  (3) 
{"is_sidechain": [false], "free_energy": -6.976, "intermolecular_energy": -8.783, "internal_energy": -0.347}

$$$$
cand_055_out
     RDKit          3D

 41 43  0  0  0  0  0  0  0  0999 V2000
   19.8930  -25.5720   49.1600 C   0  0  0  0  0  0  0  0  0  0  0  0
   20.9800  -24.5130   49.0720 C   0  0  0  0  0  0  0  0  0  0  0  0
   20.5980  -23.4010   48.0930 C   0  0  0  0  0  0  0  0  0  0  0  0
   20.4730  -23.9170   46.6770 C   0  0  0  0  0  0  0  0  0  0  0  0
   21.5660  -24.5970   46.1150 C   0  0  0  0  0  0  0  0  0  0  0  0
   21.5140  -25.0890   44.8080 C   0  0  0  0  0  0  0  0  0  0  0  0
   20.3670  -24.9190   44.0280 C   0  0  0  0  0  0  0  0  0  0  0  0
   20.2940  -25.4080   42.6340 C   0  0  0  0  0  0  0  0  0  0  0  0
   19.9100  -24.4200   41.7350 O   0  0  0  0  0  0  0  0  0  0  0  0
   19.8030  -24.7380   40.4060 C   0  0  0  0  0  0  0  0  0  0  0  0
   19.4280  -23.7120   39.5370 C   0  0  0  0  0  0  0  0  0  0  0  0
   19.2990  -23.9690   38.1700 C   0  0  0  0  0  0  0  0  0  0  0  0
   19.5410  -25.2510   37.6730 C   0  0  0  0  0  0  0  0  0  0  0  0
   19.9150  -26.2730   38.5420 C   0  0  0  0  0  0  0  0  0  0  0  0
   20.1360  -27.5040   37.9890 O   0  0  0  0  0  0  0  0  0  0  0  0
   20.0450  -26.0150   39.9100 C   0  0  0  0  0  0  0  0  0  0  0  0
   20.4350  -27.0600   40.8570 C   0  0  0  0  0  0  0  0  0  0  0  0
   20.6590  -28.2140   40.4970 O   0  0  0  0  0  0  0  0  0  0  0  0
   20.5520  -26.6820   42.2850 C   0  0  0  0  0  0  0  0  0  0  0  0
   20.9090  -27.6810   43.1720 O   0  0  0  0  0  0  0  0  0  0  0  0
   19.2800  -24.2270   44.5840 C   0  0  0  0  0  0  0  0  0  0  0  0
   19.3180  -23.7180   45.8960 C   0  0  0  0  0  0  0  0  0  0  0  0
   18.1090  -23.0020   46.4310 C   0  0  0  0  0  0  0  0  0  0  0  0
   19.6738  -25.7855   50.2166 H   0  0  0  0  0  0  0  0  0  0  0  0
   18.9826  -25.2051   48.6636 H   0  0  0  0  0  0  0  0  0  0  0  0
   20.2360  -26.4917   48.6636 H   0  0  0  0  0  0  0  0  0  0  0  0
   21.1342  -24.0747   50.0690 H   0  0  0  0  0  0  0  0  0  0  0  0
   21.9015  -24.9920   48.7094 H   0  0  0  0  0  0  0  0  0  0  0  0
   19.6337  -22.9709   48.4015 H   0  0  0  0  0  0  0  0  0  0  0  0
   21.3938  -22.6418   48.1109 H   0  0  0  0  0  0  0  0  0  0  0  0
   22.4773  -24.7446   46.7131 H   0  0  0  0  0  0  0  0  0  0  0  0
   22.3844  -25.6152   44.3891 H   0  0  0  0  0  0  0  0  0  0  0  0
   19.2343  -22.7023   39.9282 H   0  0  0  0  0  0  0  0  0  0  0  0
   19.0064  -23.1602   37.4843 H   0  0  0  0  0  0  0  0  0  0  0  0
   19.4364  -25.4535   36.5969 H   0  0  0  0  0  0  0  0  0  0  0  0
   20.1310  -28.2690   38.5310 H   0  0  0  0  0  0  0  0  0  0  0  0
   20.7970  -28.5800   42.9340 H   0  0  0  0  0  0  0  0  0  0  0  0
   18.3739  -24.0783   43.9783 H   0  0  0  0  0  0  0  0  0  0  0  0
   18.1317  -23.0154   47.5307 H   0  0  0  0  0  0  0  0  0  0  0  0
   18.1131  -21.9606   46.0769 H   0  0  0  0  0  0  0  0  0  0  0  0
   17.1977  -23.5062   46.0769 H   0  0  0  0  0  0  0  0  0  0  0  0
  1  2  1  0
  2  3  1  0
  3  4  1  0
  4  5  2  0
  5  6  1  0
  6  7  2  0
  7  8  1  0
  8  9  1  0
  9 10  1  0
 10 11  2  0
 11 12  1  0
 12 13  2  0
 13 14  1  0
 14 15  1  0
 14 16  2  0
 16 17  1  0
 17 18  2  0
 17 19  1  0
 19 20  1  0
  7 21  1  0
 21 22  2  0
 22 23  1  0
 22  4  1  0
 19  8  2  0
 16 10  1  0
  1 24  1  0
  1 25  1  0
  1 26  1  0
  2 27  1  0
  2 28  1  0
  3 29  1  0
  3 30  1  0
  5 31  1  0
  6 32  1  0
 11 33  1  0
 12 34  1  0
 13 35  1  0
 15 36  1  0
 20 37  1  0
 21 38  1  0
 23 39  1  0
 23 40  1  0
 23 41  1  0
M  END
>  <meeko>  (4) 
{"is_sidechain": [false], "free_energy": -6.944, "intermolecular_energy": -8.586, "internal_energy": -0.505}

$$$$
cand_055_out
     RDKit          3D

 41 43  0  0  0  0  0  0  0  0999 V2000
   18.2500  -26.6920   34.1670 C   0  0  0  0  0  0  0  0  0  0  0  0
   18.5980  -27.6010   35.3340 C   0  0  0  0  0  0  0  0  0  0  0  0
   17.8270  -27.2080   36.5960 C   0  0  0  0  0  0  0  0  0  0  0  0
   18.7190  -27.1920   37.8180 C   0  0  0  0  0  0  0  0  0  0  0  0
   18.8450  -28.3720   38.5680 C   0  0  0  0  0  0  0  0  0  0  0  0
   19.6460  -28.4170   39.7120 C   0  0  0  0  0  0  0  0  0  0  0  0
   20.3480  -27.2840   40.1340 C   0  0  0  0  0  0  0  0  0  0  0  0
   21.1840  -27.2970   41.3540 C   0  0  0  0  0  0  0  0  0  0  0  0
   22.1690  -28.2770   41.3240 O   0  0  0  0  0  0  0  0  0  0  0  0
   23.0170  -28.3990   42.3940 C   0  0  0  0  0  0  0  0  0  0  0  0
   24.0010  -29.3870   42.3140 C   0  0  0  0  0  0  0  0  0  0  0  0
   24.8960  -29.5660   43.3710 C   0  0  0  0  0  0  0  0  0  0  0  0
   24.8080  -28.7590   44.5070 C   0  0  0  0  0  0  0  0  0  0  0  0
   23.8260  -27.7740   44.5840 C   0  0  0  0  0  0  0  0  0  0  0  0
   23.7950  -27.0200   45.7250 O   0  0  0  0  0  0  0  0  0  0  0  0
   22.9310  -27.5950   43.5250 C   0  0  0  0  0  0  0  0  0  0  0  0
   21.8840  -26.5720   43.5660 C   0  0  0  0  0  0  0  0  0  0  0  0
   21.7390  -25.8280   44.5340 O   0  0  0  0  0  0  0  0  0  0  0  0
   20.9910  -26.4590   42.3900 C   0  0  0  0  0  0  0  0  0  0  0  0
   19.9980  -25.4980   42.4450 O   0  0  0  0  0  0  0  0  0  0  0  0
   20.2100  -26.1000   39.3940 C   0  0  0  0  0  0  0  0  0  0  0  0
   19.4010  -26.0350   38.2440 C   0  0  0  0  0  0  0  0  0  0  0  0
   19.3150  -24.7370   37.4900 C   0  0  0  0  0  0  0  0  0  0  0  0
   17.8813  -25.7289   34.5497 H   0  0  0  0  0  0  0  0  0  0  0  0
   19.1472  -26.5234   33.5533 H   0  0  0  0  0  0  0  0  0  0  0  0
   17.4696  -27.1657   33.5533 H   0  0  0  0  0  0  0  0  0  0  0  0
   18.3448  -28.6379   35.0681 H   0  0  0  0  0  0  0  0  0  0  0  0
   19.6740  -27.5031   35.5407 H   0  0  0  0  0  0  0  0  0  0  0  0
   17.3998  -26.2044   36.4540 H   0  0  0  0  0  0  0  0  0  0  0  0
   17.0364  -27.9550   36.7599 H   0  0  0  0  0  0  0  0  0  0  0  0
   18.3045  -29.2757   38.2500 H   0  0  0  0  0  0  0  0  0  0  0  0
   19.7250  -29.3522   40.2857 H   0  0  0  0  0  0  0  0  0  0  0  0
   24.0709  -30.0234   41.4195 H   0  0  0  0  0  0  0  0  0  0  0  0
   25.6713  -30.3438   43.3085 H   0  0  0  0  0  0  0  0  0  0  0  0
   25.5128  -28.9008   45.3396 H   0  0  0  0  0  0  0  0  0  0  0  0
   22.9770  -26.7080   46.0580 H   0  0  0  0  0  0  0  0  0  0  0  0
   19.3440  -25.5380   43.1150 H   0  0  0  0  0  0  0  0  0  0  0  0
   20.7485  -25.1984   39.7213 H   0  0  0  0  0  0  0  0  0  0  0  0
   19.2596  -23.9015   38.2034 H   0  0  0  0  0  0  0  0  0  0  0  0
   20.2074  -24.6206   36.8575 H   0  0  0  0  0  0  0  0  0  0  0  0
   18.4150  -24.7393   36.8575 H   0  0  0  0  0  0  0  0  0  0  0  0
  1  2  1  0
  2  3  1  0
  3  4  1  0
  4  5  2  0
  5  6  1  0
  6  7  2  0
  7  8  1  0
  8  9  1  0
  9 10  1  0
 10 11  2  0
 11 12  1  0
 12 13  2  0
 13 14  1  0
 14 15  1  0
 14 16  2  0
 16 17  1  0
 17 18  2  0
 17 19  1  0
 19 20  1  0
  7 21  1  0
 21 22  2  0
 22 23  1  0
 22  4  1  0
 19  8  2  0
 16 10  1  0
  1 24  1  0
  1 25  1  0
  1 26  1  0
  2 27  1  0
  2 28  1  0
  3 29  1  0
  3 30  1  0
  5 31  1  0
  6 32  1  0
 11 33  1  0
 12 34  1  0
 13 35  1  0
 15 36  1  0
 20 37  1  0
 21 38  1  0
 23 39  1  0
 23 40  1  0
 23 41  1  0
M  END
>  <meeko>  (5) 
{"is_sidechain": [false], "free_energy": -6.924, "intermolecular_energy": -8.671, "internal_energy": -0.395}

$$$$
cand_055_out
     RDKit          3D

 41 43  0  0  0  0  0  0  0  0999 V2000
   19.6570  -34.8630   34.7550 C   0  0  0  0  0  0  0  0  0  0  0  0
   19.6330  -33.4440   35.2990 C   0  0  0  0  0  0  0  0  0  0  0  0
   19.3910  -33.4300   36.8100 C   0  0  0  0  0  0  0  0  0  0  0  0
   19.4200  -32.0250   37.3710 C   0  0  0  0  0  0  0  0  0  0  0  0
   19.9450  -30.9980   36.5700 C   0  0  0  0  0  0  0  0  0  0  0  0
   20.0080  -29.6820   37.0360 C   0  0  0  0  0  0  0  0  0  0  0  0
   19.5430  -29.3560   38.3130 C   0  0  0  0  0  0  0  0  0  0  0  0
   19.6200  -27.9760   38.8400 C   0  0  0  0  0  0  0  0  0  0  0  0
   19.0290  -27.0420   37.9970 O   0  0  0  0  0  0  0  0  0  0  0  0
   19.0280  -25.7220   38.3650 C   0  0  0  0  0  0  0  0  0  0  0  0
   18.4110  -24.8210   37.4960 C   0  0  0  0  0  0  0  0  0  0  0  0
   18.3770  -23.4610   37.8100 C   0  0  0  0  0  0  0  0  0  0  0  0
   18.9620  -23.0010   38.9930 C   0  0  0  0  0  0  0  0  0  0  0  0
   19.5760  -23.9020   39.8580 C   0  0  0  0  0  0  0  0  0  0  0  0
   20.1290  -23.3850   40.9980 O   0  0  0  0  0  0  0  0  0  0  0  0
   19.6090  -25.2630   39.5430 C   0  0  0  0  0  0  0  0  0  0  0  0
   20.2460  -26.2430   40.4250 C   0  0  0  0  0  0  0  0  0  0  0  0
   20.7860  -25.9150   41.4790 O   0  0  0  0  0  0  0  0  0  0  0  0
   20.2200  -27.6630   40.0030 C   0  0  0  0  0  0  0  0  0  0  0  0
   20.8350  -28.5780   40.8390 O   0  0  0  0  0  0  0  0  0  0  0  0
   19.0330  -30.3850   39.1190 C   0  0  0  0  0  0  0  0  0  0  0  0
   18.9700  -31.7170   38.6690 C   0  0  0  0  0  0  0  0  0  0  0  0
   18.3950  -32.7650   39.5820 C   0  0  0  0  0  0  0  0  0  0  0  0
   19.6691  -35.5765   35.5922 H   0  0  0  0  0  0  0  0  0  0  0  0
   18.7616  -35.0349   34.1396 H   0  0  0  0  0  0  0  0  0  0  0  0
   20.5577  -35.0046   34.1396 H   0  0  0  0  0  0  0  0  0  0  0  0
   20.5991  -32.9628   35.0867 H   0  0  0  0  0  0  0  0  0  0  0  0
   18.8107  -32.8999   34.8114 H   0  0  0  0  0  0  0  0  0  0  0  0
   18.4069  -33.8758   37.0171 H   0  0  0  0  0  0  0  0  0  0  0  0
   20.1953  -34.0065   37.2903 H   0  0  0  0  0  0  0  0  0  0  0  0
   20.3123  -31.2330   35.5601 H   0  0  0  0  0  0  0  0  0  0  0  0
   20.4275  -28.8953   36.3917 H   0  0  0  0  0  0  0  0  0  0  0  0
   17.9517  -25.1822   36.5640 H   0  0  0  0  0  0  0  0  0  0  0  0
   17.8894  -22.7510   37.1258 H   0  0  0  0  0  0  0  0  0  0  0  0
   18.9372  -21.9293   39.2398 H   0  0  0  0  0  0  0  0  0  0  0  0
   19.6070  -23.2860   41.7690 H   0  0  0  0  0  0  0  0  0  0  0  0
   21.3570  -28.2790   41.5570 H   0  0  0  0  0  0  0  0  0  0  0  0
   18.6726  -30.1441   40.1300 H   0  0  0  0  0  0  0  0  0  0  0  0
   18.5576  -32.4686   40.6288 H   0  0  0  0  0  0  0  0  0  0  0  0
   17.3160  -32.8644   39.3925 H   0  0  0  0  0  0  0  0  0  0  0  0
   18.8908  -33.7284   39.3925 H   0  0  0  0  0  0  0  0  0  0  0  0
  1  2  1  0
  2  3  1  0
  3  4  1  0
  4  5  2  0
  5  6  1  0
  6  7  2  0
  7  8  1  0
  8  9  1  0
  9 10  1  0
 10 11  2  0
 11 12  1  0
 12 13  2  0
 13 14  1  0
 14 15  1  0
 14 16  2  0
 16 17  1  0
 17 18  2  0
 17 19  1  0
 19 20  1  0
  7 21  1  0
 21 22  2  0
 22 23  1  0
 22  4  1  0
 19  8  2  0
 16 10  1  0
  1 24  1  0
  1 25  1  0
  1 26  1  0
  2 27  1  0
  2 28  1  0
  3 29  1  0
  3 30  1  0
  5 31  1  0
  6 32  1  0
 11 33  1  0
 12 34  1  0
 13 35  1  0
 15 36  1  0
 20 37  1  0
 21 38  1  0
 23 39  1  0
 23 40  1  0
 23 41  1  0
M  END
>  <meeko>  (6) 
{"is_sidechain": [false], "free_energy": -6.791, "intermolecular_energy": -8.62, "internal_energy": -0.283}

$$$$
cand_055_out
     RDKit          3D

 41 43  0  0  0  0  0  0  0  0999 V2000
   24.9800  -30.6150   43.8820 C   0  0  0  0  0  0  0  0  0  0  0  0
   25.3350  -29.1440   44.0190 C   0  0  0  0  0  0  0  0  0  0  0  0
   24.1950  -28.3520   44.6640 C   0  0  0  0  0  0  0  0  0  0  0  0
   23.1950  -27.8690   43.6370 C   0  0  0  0  0  0  0  0  0  0  0  0
   23.2640  -28.3980   42.3380 C   0  0  0  0  0  0  0  0  0  0  0  0
   22.3740  -27.9840   41.3440 C   0  0  0  0  0  0  0  0  0  0  0  0
   21.3870  -27.0330   41.6210 C   0  0  0  0  0  0  0  0  0  0  0  0
   20.4480  -26.5600   40.5820 C   0  0  0  0  0  0  0  0  0  0  0  0
   20.3260  -25.1750   40.5550 O   0  0  0  0  0  0  0  0  0  0  0  0
   19.4860  -24.6010   39.6370 C   0  0  0  0  0  0  0  0  0  0  0  0
   19.4050  -23.2070   39.6350 C   0  0  0  0  0  0  0  0  0  0  0  0
   18.5660  -22.5580   38.7270 C   0  0  0  0  0  0  0  0  0  0  0  0
   17.8070  -23.3020   37.8210 C   0  0  0  0  0  0  0  0  0  0  0  0
   17.8900  -24.6920   37.8240 C   0  0  0  0  0  0  0  0  0  0  0  0
   17.1200  -25.3590   36.9110 O   0  0  0  0  0  0  0  0  0  0  0  0
   18.7300  -25.3410   38.7330 C   0  0  0  0  0  0  0  0  0  0  0  0
   18.8460  -26.8000   38.7700 C   0  0  0  0  0  0  0  0  0  0  0  0
   18.2060  -27.5230   38.0090 O   0  0  0  0  0  0  0  0  0  0  0  0
   19.7700  -27.3890   39.7670 C   0  0  0  0  0  0  0  0  0  0  0  0
   19.8610  -28.7680   39.8010 O   0  0  0  0  0  0  0  0  0  0  0  0
   21.3280  -26.4930   42.9150 C   0  0  0  0  0  0  0  0  0  0  0  0
   22.2210  -26.8930   43.9270 C   0  0  0  0  0  0  0  0  0  0  0  0
   22.0870  -26.2840   45.2950 C   0  0  0  0  0  0  0  0  0  0  0  0
   24.8724  -31.0609   44.8818 H   0  0  0  0  0  0  0  0  0  0  0  0
   24.0322  -30.7138   43.3325 H   0  0  0  0  0  0  0  0  0  0  0  0
   25.7784  -31.1352   43.3325 H   0  0  0  0  0  0  0  0  0  0  0  0
   26.2349  -29.0498   44.6445 H   0  0  0  0  0  0  0  0  0  0  0  0
   25.5142  -28.7360   43.0133 H   0  0  0  0  0  0  0  0  0  0  0  0
   23.6776  -28.9984   45.3881 H   0  0  0  0  0  0  0  0  0  0  0  0
   24.6286  -27.4709   45.1596 H   0  0  0  0  0  0  0  0  0  0  0  0
   24.0306  -29.1499   42.0995 H   0  0  0  0  0  0  0  0  0  0  0  0
   22.4504  -28.4105   40.3329 H   0  0  0  0  0  0  0  0  0  0  0  0
   20.0021  -22.6203   40.3486 H   0  0  0  0  0  0  0  0  0  0  0  0
   18.5028  -21.4598   38.7253 H   0  0  0  0  0  0  0  0  0  0  0  0
   17.1449  -22.7910   37.1065 H   0  0  0  0  0  0  0  0  0  0  0  0
   17.0780  -25.0580   36.0240 H   0  0  0  0  0  0  0  0  0  0  0  0
   20.7010  -29.1810   39.8340 H   0  0  0  0  0  0  0  0  0  0  0  0
   20.5631  -25.7366   43.1447 H   0  0  0  0  0  0  0  0  0  0  0  0
   22.2571  -27.0571   46.0588 H   0  0  0  0  0  0  0  0  0  0  0  0
   22.8301  -25.4816   45.4136 H   0  0  0  0  0  0  0  0  0  0  0  0
   21.0758  -25.8677   45.4136 H   0  0  0  0  0  0  0  0  0  0  0  0
  1  2  1  0
  2  3  1  0
  3  4  1  0
  4  5  2  0
  5  6  1  0
  6  7  2  0
  7  8  1  0
  8  9  1  0
  9 10  1  0
 10 11  2  0
 11 12  1  0
 12 13  2  0
 13 14  1  0
 14 15  1  0
 14 16  2  0
 16 17  1  0
 17 18  2  0
 17 19  1  0
 19 20  1  0
  7 21  1  0
 21 22  2  0
 22 23  1  0
 22  4  1  0
 19  8  2  0
 16 10  1  0
  1 24  1  0
  1 25  1  0
  1 26  1  0
  2 27  1  0
  2 28  1  0
  3 29  1  0
  3 30  1  0
  5 31  1  0
  6 32  1  0
 11 33  1  0
 12 34  1  0
 13 35  1  0
 15 36  1  0
 20 37  1  0
 21 38  1  0
 23 39  1  0
 23 40  1  0
 23 41  1  0
M  END
>  <meeko>  (7) 
{"is_sidechain": [false], "free_energy": -6.657, "intermolecular_energy": -8.715, "internal_energy": -0.021}

$$$$
cand_055_out
     RDKit          3D

 41 43  0  0  0  0  0  0  0  0999 V2000
   20.0170  -25.4810   49.3090 C   0  0  0  0  0  0  0  0  0  0  0  0
   20.7480  -24.2610   48.7720 C   0  0  0  0  0  0  0  0  0  0  0  0
   19.7930  -23.3130   48.0450 C   0  0  0  0  0  0  0  0  0  0  0  0
   19.7110  -23.6230   46.5660 C   0  0  0  0  0  0  0  0  0  0  0  0
   20.7900  -24.2920   45.9640 C   0  0  0  0  0  0  0  0  0  0  0  0
   20.7770  -24.5970   44.6010 C   0  0  0  0  0  0  0  0  0  0  0  0
   19.6850  -24.2470   43.8030 C   0  0  0  0  0  0  0  0  0  0  0  0
   19.6560  -24.5360   42.3530 C   0  0  0  0  0  0  0  0  0  0  0  0
   19.7090  -25.8970   42.0720 O   0  0  0  0  0  0  0  0  0  0  0  0
   19.6900  -26.3060   40.7640 C   0  0  0  0  0  0  0  0  0  0  0  0
   19.7310  -27.6810   40.5290 C   0  0  0  0  0  0  0  0  0  0  0  0
   19.7150  -28.1660   39.2200 C   0  0  0  0  0  0  0  0  0  0  0  0
   19.6600  -27.2750   38.1450 C   0  0  0  0  0  0  0  0  0  0  0  0
   19.6190  -25.9040   38.3820 C   0  0  0  0  0  0  0  0  0  0  0  0
   19.5670  -25.0890   37.2850 O   0  0  0  0  0  0  0  0  0  0  0  0
   19.6340  -25.4200   39.6930 C   0  0  0  0  0  0  0  0  0  0  0  0
   19.5920  -23.9860   39.9860 C   0  0  0  0  0  0  0  0  0  0  0  0
   19.5500  -23.1410   39.0940 O   0  0  0  0  0  0  0  0  0  0  0  0
   19.6050  -23.5770   41.4100 C   0  0  0  0  0  0  0  0  0  0  0  0
   19.5780  -22.2200   41.6730 O   0  0  0  0  0  0  0  0  0  0  0  0
   18.6140  -23.5650   44.4010 C   0  0  0  0  0  0  0  0  0  0  0  0
   18.6130  -23.2420   45.7710 C   0  0  0  0  0  0  0  0  0  0  0  0
   17.4230  -22.5260   46.3470 C   0  0  0  0  0  0  0  0  0  0  0  0
   20.0290  -25.4610   50.4088 H   0  0  0  0  0  0  0  0  0  0  0  0
   18.9761  -25.4707   48.9534 H   0  0  0  0  0  0  0  0  0  0  0  0
   20.5170  -26.3940   48.9534 H   0  0  0  0  0  0  0  0  0  0  0  0
   21.2141  -23.7248   49.6118 H   0  0  0  0  0  0  0  0  0  0  0  0
   21.5097  -24.6017   48.0552 H   0  0  0  0  0  0  0  0  0  0  0  0
   18.7899  -23.4113   48.4855 H   0  0  0  0  0  0  0  0  0  0  0  0
   20.1761  -22.2882   48.1588 H   0  0  0  0  0  0  0  0  0  0  0  0
   21.6580  -24.5799   46.5753 H   0  0  0  0  0  0  0  0  0  0  0  0
   21.6352  -25.1180   44.1514 H   0  0  0  0  0  0  0  0  0  0  0  0
   19.7759  -28.3826   41.3750 H   0  0  0  0  0  0  0  0  0  0  0  0
   19.7457  -29.2499   39.0348 H   0  0  0  0  0  0  0  0  0  0  0  0
   19.6491  -27.6564   37.1133 H   0  0  0  0  0  0  0  0  0  0  0  0
   20.1730  -25.2120   36.5810 H   0  0  0  0  0  0  0  0  0  0  0  0
   20.0090  -21.6220   41.0950 H   0  0  0  0  0  0  0  0  0  0  0  0
   17.7520  -23.2750   43.7823 H   0  0  0  0  0  0  0  0  0  0  0  0
   17.4732  -22.5562   47.4454 H   0  0  0  0  0  0  0  0  0  0  0  0
   17.4256  -21.4794   46.0085 H   0  0  0  0  0  0  0  0  0  0  0  0
   16.4995  -23.0185   46.0085 H   0  0  0  0  0  0  0  0  0  0  0  0
  1  2  1  0
  2  3  1  0
  3  4  1  0
  4  5  2  0
  5  6  1  0
  6  7  2  0
  7  8  1  0
  8  9  1  0
  9 10  1  0
 10 11  2  0
 11 12  1  0
 12 13  2  0
 13 14  1  0
 14 15  1  0
 14 16  2  0
 16 17  1  0
 17 18  2  0
 17 19  1  0
 19 20  1  0
  7 21  1  0
 21 22  2  0
 22 23  1  0
 22  4  1  0
 19  8  2  0
 16 10  1  0
  1 24  1  0
  1 25  1  0
  1 26  1  0
  2 27  1  0
  2 28  1  0
  3 29  1  0
  3 30  1  0
  5 31  1  0
  6 32  1  0
 11 33  1  0
 12 34  1  0
 13 35  1  0
 15 36  1  0
 20 37  1  0
 21 38  1  0
 23 39  1  0
 23 40  1  0
 23 41  1  0
M  END
>  <meeko>  (8) 
{"is_sidechain": [false], "free_energy": -6.615, "intermolecular_energy": -8.251, "internal_energy": -0.433}

$$$$
cand_055_out
     RDKit          3D

 41 43  0  0  0  0  0  0  0  0999 V2000
   24.0720  -28.6610   44.6370 C   0  0  0  0  0  0  0  0  0  0  0  0
   23.4830  -27.6600   43.6560 C   0  0  0  0  0  0  0  0  0  0  0  0
   22.0000  -27.4090   43.9370 C   0  0  0  0  0  0  0  0  0  0  0  0
   21.2660  -26.9350   42.7030 C   0  0  0  0  0  0  0  0  0  0  0  0
   21.5270  -27.5790   41.4820 C   0  0  0  0  0  0  0  0  0  0  0  0
   20.8870  -27.1800   40.3060 C   0  0  0  0  0  0  0  0  0  0  0  0
   19.9650  -26.1300   40.3180 C   0  0  0  0  0  0  0  0  0  0  0  0
   19.2920  -25.6710   39.0830 C   0  0  0  0  0  0  0  0  0  0  0  0
   19.6200  -24.3630   38.7430 O   0  0  0  0  0  0  0  0  0  0  0  0
   19.0650  -23.8120   37.6180 C   0  0  0  0  0  0  0  0  0  0  0  0
   19.4320  -22.5010   37.3060 C   0  0  0  0  0  0  0  0  0  0  0  0
   18.9020  -21.8790   36.1740 C   0  0  0  0  0  0  0  0  0  0  0  0
   18.0030  -22.5650   35.3550 C   0  0  0  0  0  0  0  0  0  0  0  0
   17.6380  -23.8720   35.6680 C   0  0  0  0  0  0  0  0  0  0  0  0
   16.7530  -24.4850   34.8240 O   0  0  0  0  0  0  0  0  0  0  0  0
   18.1700  -24.4950   36.8000 C   0  0  0  0  0  0  0  0  0  0  0  0
   17.8120  -25.8660   37.1650 C   0  0  0  0  0  0  0  0  0  0  0  0
   17.0230  -26.5320   36.4980 O   0  0  0  0  0  0  0  0  0  0  0  0
   18.4370  -26.4370   38.3810 C   0  0  0  0  0  0  0  0  0  0  0  0
   18.0810  -27.7300   38.7220 O   0  0  0  0  0  0  0  0  0  0  0  0
   19.7150  -25.4760   41.5340 C   0  0  0  0  0  0  0  0  0  0  0  0
   20.3560  -25.8590   42.7270 C   0  0  0  0  0  0  0  0  0  0  0  0
   20.0260  -25.1250   43.9970 C   0  0  0  0  0  0  0  0  0  0  0  0
   23.8747  -28.3257   45.6659 H   0  0  0  0  0  0  0  0  0  0  0  0
   23.6097  -29.6463   44.4775 H   0  0  0  0  0  0  0  0  0  0  0  0
   25.1578  -28.7353   44.4775 H   0  0  0  0  0  0  0  0  0  0  0  0
   24.0296  -26.7094   43.7432 H   0  0  0  0  0  0  0  0  0  0  0  0
   23.5778  -28.0733   42.6410 H   0  0  0  0  0  0  0  0  0  0  0  0
   21.5406  -28.3453   44.2866 H   0  0  0  0  0  0  0  0  0  0  0  0
   21.9258  -26.6219   44.7018 H   0  0  0  0  0  0  0  0  0  0  0  0
   22.2466  -28.4104   41.4514 H   0  0  0  0  0  0  0  0  0  0  0  0
   21.1110  -27.6974   39.3615 H   0  0  0  0  0  0  0  0  0  0  0  0
   20.1383  -21.9588   37.9519 H   0  0  0  0  0  0  0  0  0  0  0  0
   19.1930  -20.8473   35.9271 H   0  0  0  0  0  0  0  0  0  0  0  0
   17.5839  -22.0741   34.4643 H   0  0  0  0  0  0  0  0  0  0  0  0
   17.0610  -24.8960   34.0400 H   0  0  0  0  0  0  0  0  0  0  0  0
   17.1850  -27.9960   38.6750 H   0  0  0  0  0  0  0  0  0  0  0  0
   18.9987  -24.6415   41.5554 H   0  0  0  0  0  0  0  0  0  0  0  0
   20.3047  -25.7450   44.8618 H   0  0  0  0  0  0  0  0  0  0  0  0
   20.5851  -24.1782   44.0292 H   0  0  0  0  0  0  0  0  0  0  0  0
   18.9467  -24.9148   44.0292 H   0  0  0  0  0  0  0  0  0  0  0  0
  1  2  1  0
  2  3  1  0
  3  4  1  0
  4  5  2  0
  5  6  1  0
  6  7  2  0
  7  8  1  0
  8  9  1  0
  9 10  1  0
 10 11  2  0
 11 12  1  0
 12 13  2  0
 13 14  1  0
 14 15  1  0
 14 16  2  0
 16 17  1  0
 17 18  2  0
 17 19  1  0
 19 20  1  0
  7 21  1  0
 21 22  2  0
 22 23  1  0
 22  4  1  0
 19  8  2  0
 16 10  1  0
  1 24  1  0
  1 25  1  0
  1 26  1  0
  2 27  1  0
  2 28  1  0
  3 29  1  0
  3 30  1  0
  5 31  1  0
  6 32  1  0
 11 33  1  0
 12 34  1  0
 13 35  1  0
 15 36  1  0
 20 37  1  0
 21 38  1  0
 23 39  1  0
 23 40  1  0
 23 41  1  0
M  END
>  <meeko>  (9) 
{"is_sidechain": [false], "free_energy": -6.513, "intermolecular_energy": -8.106, "internal_energy": -0.454}

$$$$
