cand_038_out
     RDKit          3D

 47 49  0  0  0  0  0  0  0  0999 V2000
   19.6080  -26.5120   42.3490 C   0  0  0  0  0  0  0  0  0  0  0  0
   21.1070  -26.2590   42.2260 C   0  0  0  0  0  0  0  0  0  0  0  0
   21.8750  -27.5090   41.8500 C   0  0  0  0  0  0  0  0  0  0  0  0
   21.3200  -28.2250   40.7540 C   0  0  0  0  0  0  0  0  0  0  0  0
   21.8880  -29.3950   40.2450 C   0  0  0  0  0  0  0  0  0  0  0  0
   21.2860  -30.1390   39.1190 C   0  0  0  0  0  0  0  0  0  0  0  0
   20.5630  -31.2530   39.5340 O   0  0  0  0  0  0  0  0  0  0  0  0
   19.9490  -32.0340   38.5890 C   0  0  0  0  0  0  0  0  0  0  0  0
   19.2220  -33.1330   39.0500 C   0  0  0  0  0  0  0  0  0  0  0  0
   18.5750  -33.9710   38.1410 C   0  0  0  0  0  0  0  0  0  0  0  0
   18.6540  -33.7120   36.7710 C   0  0  0  0  0  0  0  0  0  0  0  0
   19.3810  -32.6160   36.3130 C   0  0  0  0  0  0  0  0  0  0  0  0
   19.4180  -32.4220   34.9590 O   0  0  0  0  0  0  0  0  0  0  0  0
   20.0280  -31.7770   37.2240 C   0  0  0  0  0  0  0  0  0  0  0  0
   20.8020  -30.6140   36.7850 C   0  0  0  0  0  0  0  0  0  0  0  0
   20.9250  -30.3250   35.5970 O   0  0  0  0  0  0  0  0  0  0  0  0
   21.4430  -29.7840   37.8300 C   0  0  0  0  0  0  0  0  0  0  0  0
   22.1820  -28.6960   37.4030 O   0  0  0  0  0  0  0  0  0  0  0  0
   23.0360  -29.8720   40.8660 C   0  0  0  0  0  0  0  0  0  0  0  0
   23.6010  -29.1870   41.9500 C   0  0  0  0  0  0  0  0  0  0  0  0
   23.0570  -27.9890   42.4760 C   0  0  0  0  0  0  0  0  0  0  0  0
   23.7600  -27.3220   43.6910 C   0  0  0  0  0  0  0  0  0  0  0  0
   24.4340  -25.9600   43.3520 C   0  0  0  0  0  0  0  0  0  0  0  0
   22.7690  -26.9910   44.8300 C   0  0  0  0  0  0  0  0  0  0  0  0
   24.9000  -28.2300   44.2010 C   0  0  0  0  0  0  0  0  0  0  0  0
   19.3301  -26.5589   43.4123 H   0  0  0  0  0  0  0  0  0  0  0  0
   19.0569  -25.6942   41.8617 H   0  0  0  0  0  0  0  0  0  0  0  0
   19.3559  -27.4654   41.8617 H   0  0  0  0  0  0  0  0  0  0  0  0
   21.2740  -25.4956   41.4518 H   0  0  0  0  0  0  0  0  0  0  0  0
   21.4721  -25.9240   43.2081 H   0  0  0  0  0  0  0  0  0  0  0  0
   20.4020  -27.8401   40.2860 H   0  0  0  0  0  0  0  0  0  0  0  0
   19.1592  -33.3382   40.1289 H   0  0  0  0  0  0  0  0  0  0  0  0
   18.0019  -34.8369   38.5041 H   0  0  0  0  0  0  0  0  0  0  0  0
   18.1430  -34.3724   36.0550 H   0  0  0  0  0  0  0  0  0  0  0  0
   20.0830  -31.8810   34.5820 H   0  0  0  0  0  0  0  0  0  0  0  0
   22.6650  -28.1850   38.0240 H   0  0  0  0  0  0  0  0  0  0  0  0
   23.5064  -30.7976   40.5026 H   0  0  0  0  0  0  0  0  0  0  0  0
   24.5093  -29.5985   42.4143 H   0  0  0  0  0  0  0  0  0  0  0  0
   24.6929  -25.4369   44.2844 H   0  0  0  0  0  0  0  0  0  0  0  0
   25.3476  -26.1388   42.7661 H   0  0  0  0  0  0  0  0  0  0  0  0
   23.7377  -25.3421   42.7661 H   0  0  0  0  0  0  0  0  0  0  0  0
   23.2588  -27.1546   45.8013 H   0  0  0  0  0  0  0  0  0  0  0  0
   22.4560  -25.9395   44.7497 H   0  0  0  0  0  0  0  0  0  0  0  0
   21.8869  -27.6433   44.7497 H   0  0  0  0  0  0  0  0  0  0  0  0
   24.9028  -28.2322   45.3010 H   0  0  0  0  0  0  0  0  0  0  0  0
   24.7451  -29.2549   43.8327 H   0  0  0  0  0  0  0  0  0  0  0  0
   25.8642  -27.8498   43.8327 H   0  0  0  0  0  0  0  0  0  0  0  0
  1  2  1  0
  2  3  1  0
  3  4  2  0
  4  5  1  0
  5  6  1  0
  6  7  1  0
  7  8  1  0
  8  9  2  0
  9 10  1  0
 10 11  2  0
 11 12  1  0
 12 13  1  0
 12 14  2  0
 14 15  1  0
 15 16  2  0
 15 17  1  0
 17 18  1  0
  5 19  2  0
 19 20  1  0
 20 21  2  0
 21 22  1  0
 22 23  1  0
 22 24  1  0
 22 25  1  0
 21  3  1  0
 17  6  2  0
 14  8  1  0
  1 26  1  0
  1 27  1  0
  1 28  1  0
  2 29  1  0
  2 30  1  0
  4 31  1  0
  9 32  1  0
 10 33  1  0
 11 34  1  0
 13 35  1  0
 18 36  1  0
 19 37  1  0
 20 38  1  0
 23 39  1  0
 23 40  1  0
 23 41  1  0
 24 42  1  0
 24 43  1  0
 24 44  1  0
 25 45  1  0
 25 46  1  0
 25 47  1  0
M  END
>  <meeko>  (1) 
{"is_sidechain": [false], "free_energy": -9.924, "intermolecular_energy": -12.244, "internal_energy": -0.533}

$$$$
cand_038_out
     RDKit          3D

 47 49  0  0  0  0  0  0  0  0999 V2000
   24.5080  -30.6720   42.7640 C   0  0  0  0  0  0  0  0  0  0  0  0
   24.4670  -29.1480   42.7480 C   0  0  0  0  0  0  0  0  0  0  0  0
   23.1970  -28.6120   42.1170 C   0  0  0  0  0  0  0  0  0  0  0  0
   22.6830  -29.4220   41.0680 C   0  0  0  0  0  0  0  0  0  0  0  0
   21.5130  -29.1090   40.3710 C   0  0  0  0  0  0  0  0  0  0  0  0
   21.0040  -29.9500   39.2680 C   0  0  0  0  0  0  0  0  0  0  0  0
   20.2750  -31.0470   39.7170 O   0  0  0  0  0  0  0  0  0  0  0  0
   19.7430  -31.9110   38.7960 C   0  0  0  0  0  0  0  0  0  0  0  0
   19.0070  -32.9900   39.2890 C   0  0  0  0  0  0  0  0  0  0  0  0
   18.4400  -33.9090   38.4050 C   0  0  0  0  0  0  0  0  0  0  0  0
   18.6080  -33.7520   37.0280 C   0  0  0  0  0  0  0  0  0  0  0  0
   19.3430  -32.6760   36.5370 C   0  0  0  0  0  0  0  0  0  0  0  0
   19.4700  -32.5830   35.1780 O   0  0  0  0  0  0  0  0  0  0  0  0
   19.9110  -31.7560   37.4230 C   0  0  0  0  0  0  0  0  0  0  0  0
   20.6900  -30.6110   36.9500 C   0  0  0  0  0  0  0  0  0  0  0  0
   20.8890  -30.4080   35.7530 O   0  0  0  0  0  0  0  0  0  0  0  0
   21.2420  -29.6890   37.9690 C   0  0  0  0  0  0  0  0  0  0  0  0
   21.9880  -28.6180   37.5110 O   0  0  0  0  0  0  0  0  0  0  0  0
   20.8520  -27.9380   40.7220 C   0  0  0  0  0  0  0  0  0  0  0  0
   21.3410  -27.1220   41.7500 C   0  0  0  0  0  0  0  0  0  0  0  0
   22.5140  -27.4230   42.4860 C   0  0  0  0  0  0  0  0  0  0  0  0
   22.9710  -26.4360   43.5960 C   0  0  0  0  0  0  0  0  0  0  0  0
   23.1670  -27.1080   44.9870 C   0  0  0  0  0  0  0  0  0  0  0  0
   24.3410  -25.7940   43.2800 C   0  0  0  0  0  0  0  0  0  0  0  0
   21.8930  -25.3520   43.8110 C   0  0  0  0  0  0  0  0  0  0  0  0
   24.5176  -31.0276   43.8049 H   0  0  0  0  0  0  0  0  0  0  0  0
   23.6202  -31.0681   42.2493 H   0  0  0  0  0  0  0  0  0  0  0  0
   25.4158  -31.0198   42.2493 H   0  0  0  0  0  0  0  0  0  0  0  0
   24.5291  -28.7818   43.7834 H   0  0  0  0  0  0  0  0  0  0  0  0
   25.3166  -28.7953   42.1448 H   0  0  0  0  0  0  0  0  0  0  0  0
   23.2304  -30.3355   40.7928 H   0  0  0  0  0  0  0  0  0  0  0  0
   18.8741  -33.1157   40.3737 H   0  0  0  0  0  0  0  0  0  0  0  0
   17.8596  -34.7587   38.7939 H   0  0  0  0  0  0  0  0  0  0  0  0
   18.1606  -34.4770   36.3321 H   0  0  0  0  0  0  0  0  0  0  0  0
   18.7210  -32.7010   34.6290 H   0  0  0  0  0  0  0  0  0  0  0  0
   22.9200  -28.6210   37.6090 H   0  0  0  0  0  0  0  0  0  0  0  0
   19.9354  -27.6490   40.1870 H   0  0  0  0  0  0  0  0  0  0  0  0
   20.7882  -26.2038   41.9978 H   0  0  0  0  0  0  0  0  0  0  0  0
   22.9538  -26.3769   45.7807 H   0  0  0  0  0  0  0  0  0  0  0  0
   22.4806  -27.9624   45.0814 H   0  0  0  0  0  0  0  0  0  0  0  0
   24.2051  -27.4594   45.0814 H   0  0  0  0  0  0  0  0  0  0  0  0
   24.8580  -25.5517   44.2202 H   0  0  0  0  0  0  0  0  0  0  0  0
   24.9511  -26.5000   42.6974 H   0  0  0  0  0  0  0  0  0  0  0  0
   24.1889  -24.8734   42.6974 H   0  0  0  0  0  0  0  0  0  0  0  0
   21.7388  -25.1970   44.8890 H   0  0  0  0  0  0  0  0  0  0  0  0
   22.2229  -24.4100   43.3486 H   0  0  0  0  0  0  0  0  0  0  0  0
   20.9492  -25.6767   43.3486 H   0  0  0  0  0  0  0  0  0  0  0  0
  1  2  1  0
  2  3  1  0
  3  4  2  0
  4  5  1  0
  5  6  1  0
  6  7  1  0
  7  8  1  0
  8  9  2  0
  9 10  1  0
 10 11  2  0
 11 12  1  0
 12 13  1  0
 12 14  2  0
 14 15  1  0
 15 16  2  0
 15 17  1  0
 17 18  1  0
  5 19  2  0
 19 20  1  0
 20 21  2  0
 21 22  1  0
 22 23  1  0
 22 24  1  0
 22 25  1  0
 21  3  1  0
 17  6  2  0
 14  8  1  0
  1 26  1  0
  1 27  1  0
  1 28  1  0
  2 29  1  0
  2 30  1  0
  4 31  1  0
  9 32  1  0
 10 33  1  0
 11 34  1  0
 13 35  1  0
 18 36  1  0
 19 37  1  0
 20 38  1  0
 23 39  1  0
 23 40  1  0
 23 41  1  0
 24 42  1  0
 24 43  1  0
 24 44  1  0
 25 45  1  0
 25 46  1  0
 25 47  1  0
M  END
>  <meeko>  (2) 
{"is_sidechain": [false], "free_energy": -9.714, "intermolecular_energy": -11.979, "internal_energy": -0.54}

$$$$
cand_038_out
     RDKit          3D

 47 49  0  0  0  0  0  0  0  0999 V2000
   23.3920  -29.8500   41.0850 C   0  0  0  0  0  0  0  0  0  0  0  0
   22.6480  -28.5310   41.2670 C   0  0  0  0  0  0  0  0  0  0  0  0
   21.3620  -28.4790   40.4680 C   0  0  0  0  0  0  0  0  0  0  0  0
   21.1420  -29.6180   39.6450 C   0  0  0  0  0  0  0  0  0  0  0  0
   20.0080  -29.7680   38.8440 C   0  0  0  0  0  0  0  0  0  0  0  0
   19.8050  -30.9480   37.9780 C   0  0  0  0  0  0  0  0  0  0  0  0
   20.1870  -30.7230   36.6600 O   0  0  0  0  0  0  0  0  0  0  0  0
   20.0520  -31.7370   35.7480 C   0  0  0  0  0  0  0  0  0  0  0  0
   20.4620  -31.4720   34.4400 C   0  0  0  0  0  0  0  0  0  0  0  0
   20.3490  -32.4610   33.4610 C   0  0  0  0  0  0  0  0  0  0  0  0
   19.8270  -33.7150   33.7880 C   0  0  0  0  0  0  0  0  0  0  0  0
   19.4190  -33.9760   35.0930 C   0  0  0  0  0  0  0  0  0  0  0  0
   18.9160  -35.2240   35.3450 O   0  0  0  0  0  0  0  0  0  0  0  0
   19.5320  -32.9860   36.0730 C   0  0  0  0  0  0  0  0  0  0  0  0
   19.1150  -33.2200   37.4570 C   0  0  0  0  0  0  0  0  0  0  0  0
   18.6390  -34.2930   37.8200 O   0  0  0  0  0  0  0  0  0  0  0  0
   19.2840  -32.1080   38.4200 C   0  0  0  0  0  0  0  0  0  0  0  0
   18.8730  -32.3360   39.7220 O   0  0  0  0  0  0  0  0  0  0  0  0
   19.0770  -28.7360   38.8520 C   0  0  0  0  0  0  0  0  0  0  0  0
   19.2730  -27.6020   39.6510 C   0  0  0  0  0  0  0  0  0  0  0  0
   20.4040  -27.4310   40.4870 C   0  0  0  0  0  0  0  0  0  0  0  0
   20.5240  -26.1240   41.3190 C   0  0  0  0  0  0  0  0  0  0  0  0
   21.9950  -25.6930   41.5970 C   0  0  0  0  0  0  0  0  0  0  0  0
   19.8950  -24.9100   40.5970 C   0  0  0  0  0  0  0  0  0  0  0  0
   19.8850  -26.3270   42.7100 C   0  0  0  0  0  0  0  0  0  0  0  0
   23.6317  -30.2749   42.0709 H   0  0  0  0  0  0  0  0  0  0  0  0
   22.7582  -30.5544   40.5264 H   0  0  0  0  0  0  0  0  0  0  0  0
   24.3227  -29.6719   40.5264 H   0  0  0  0  0  0  0  0  0  0  0  0
   22.4071  -28.4053   42.3329 H   0  0  0  0  0  0  0  0  0  0  0  0
   23.3016  -27.7241   40.9039 H   0  0  0  0  0  0  0  0  0  0  0  0
   21.8988  -30.4162   39.6392 H   0  0  0  0  0  0  0  0  0  0  0  0
   20.8735  -30.4853   34.1811 H   0  0  0  0  0  0  0  0  0  0  0  0
   20.6716  -32.2525   32.4302 H   0  0  0  0  0  0  0  0  0  0  0  0
   19.7387  -34.4939   33.0163 H   0  0  0  0  0  0  0  0  0  0  0  0
   19.3330  -35.9790   34.9810 H   0  0  0  0  0  0  0  0  0  0  0  0
   19.3230  -31.9230   40.4330 H   0  0  0  0  0  0  0  0  0  0  0  0
   18.1767  -28.8104   38.2243 H   0  0  0  0  0  0  0  0  0  0  0  0
   18.5131  -26.8070   39.6282 H   0  0  0  0  0  0  0  0  0  0  0  0
   22.1636  -25.6436   42.6829 H   0  0  0  0  0  0  0  0  0  0  0  0
   22.6826  -26.4274   41.1522 H   0  0  0  0  0  0  0  0  0  0  0  0
   22.1775  -24.7036   41.1522 H   0  0  0  0  0  0  0  0  0  0  0  0
   19.5231  -24.1921   41.3429 H   0  0  0  0  0  0  0  0  0  0  0  0
   20.6547  -24.4239   39.9672 H   0  0  0  0  0  0  0  0  0  0  0  0
   19.0598  -25.2503   39.9672 H   0  0  0  0  0  0  0  0  0  0  0  0
   20.6236  -26.0923   43.4906 H   0  0  0  0  0  0  0  0  0  0  0  0
   19.0161  -25.6606   42.8151 H   0  0  0  0  0  0  0  0  0  0  0  0
   19.5600  -27.3726   42.8151 H   0  0  0  0  0  0  0  0  0  0  0  0
  1  2  1  0
  2  3  1  0
  3  4  2  0
  4  5  1  0
  5  6  1  0
  6  7  1  0
  7  8  1  0
  8  9  2  0
  9 10  1  0
 10 11  2  0
 11 12  1  0
 12 13  1  0
 12 14  2  0
 14 15  1  0
 15 16  2  0
 15 17  1  0
 17 18  1  0
  5 19  2  0
 19 20  1  0
 20 21  2  0
 21 22  1  0
 22 23  1  0
 22 24  1  0
 22 25  1  0
 21  3  1  0
 17  6  2  0
 14  8  1  0
  1 26  1  0
  1 27  1  0
  1 28  1  0
  2 29  1  0
  2 30  1  0
  4 31  1  0
  9 32  1  0
 10 33  1  0
 11 34  1  0
 13 35  1  0
 18 36  1  0
 19 37  1  0
 20 38  1  0
 23 39  1  0
 23 40  1  0
 23 41  1  0
 24 42  1  0
 24 43  1  0
 24 44  1  0
 25 45  1  0
 25 46  1  0
 25 47  1  0
M  END
>  <meeko>  (3) 
{"is_sidechain": [false], "free_energy": -8.821, "intermolecular_energy": -11.152, "internal_energy": -0.265}

$$$$
cand_038_out
     RDKit          3D

 47 49  0  0  0  0  0  0  0  0999 V2000
   19.1620  -25.7740   39.4950 C   0  0  0  0  0  0  0  0  0  0  0  0
   19.1370  -26.8630   40.5620 C   0  0  0  0  0  0  0  0  0  0  0  0
   20.2040  -27.9150   40.3390 C   0  0  0  0  0  0  0  0  0  0  0  0
   19.8650  -28.8900   39.3620 C   0  0  0  0  0  0  0  0  0  0  0  0
   20.7200  -29.9330   39.0000 C   0  0  0  0  0  0  0  0  0  0  0  0
   20.3430  -30.9510   37.9970 C   0  0  0  0  0  0  0  0  0  0  0  0
   20.6960  -30.5900   36.7020 O   0  0  0  0  0  0  0  0  0  0  0  0
   20.4040  -31.4460   35.6720 C   0  0  0  0  0  0  0  0  0  0  0  0
   20.7890  -31.0500   34.3900 C   0  0  0  0  0  0  0  0  0  0  0  0
   20.5210  -31.8750   33.2960 C   0  0  0  0  0  0  0  0  0  0  0  0
   19.8670  -33.0950   33.4820 C   0  0  0  0  0  0  0  0  0  0  0  0
   19.4830  -33.4870   34.7620 C   0  0  0  0  0  0  0  0  0  0  0  0
   18.8450  -34.6930   34.8730 O   0  0  0  0  0  0  0  0  0  0  0  0
   19.7520  -32.6610   35.8560 C   0  0  0  0  0  0  0  0  0  0  0  0
   19.3670  -33.0360   37.2180 C   0  0  0  0  0  0  0  0  0  0  0  0
   18.7810  -34.0890   37.4620 O   0  0  0  0  0  0  0  0  0  0  0  0
   19.7060  -32.0950   38.3100 C   0  0  0  0  0  0  0  0  0  0  0  0
   19.3240  -32.4530   39.5900 O   0  0  0  0  0  0  0  0  0  0  0  0
   21.9440  -30.0130   39.6540 C   0  0  0  0  0  0  0  0  0  0  0  0
   22.3000  -29.0670   40.6240 C   0  0  0  0  0  0  0  0  0  0  0  0
   21.4610  -27.9890   40.9970 C   0  0  0  0  0  0  0  0  0  0  0  0
   21.9540  -27.0070   42.0970 C   0  0  0  0  0  0  0  0  0  0  0  0
   22.3210  -25.5940   41.5540 C   0  0  0  0  0  0  0  0  0  0  0  0
   20.8730  -26.7400   43.1700 C   0  0  0  0  0  0  0  0  0  0  0  0
   23.2470  -27.5490   42.7430 C   0  0  0  0  0  0  0  0  0  0  0  0
   19.1847  -24.7866   39.9793 H   0  0  0  0  0  0  0  0  0  0  0  0
   20.0576  -25.8955   38.8680 H   0  0  0  0  0  0  0  0  0  0  0  0
   18.2618  -25.8543   38.8680 H   0  0  0  0  0  0  0  0  0  0  0  0
   19.2998  -26.3978   41.5454 H   0  0  0  0  0  0  0  0  0  0  0  0
   18.1581  -27.3619   40.5090 H   0  0  0  0  0  0  0  0  0  0  0  0
   18.8844  -28.8198   38.8685 H   0  0  0  0  0  0  0  0  0  0  0  0
   21.3031  -30.0889   34.2418 H   0  0  0  0  0  0  0  0  0  0  0  0
   20.8254  -31.5636   32.2859 H   0  0  0  0  0  0  0  0  0  0  0  0
   19.6558  -33.7445   32.6197 H   0  0  0  0  0  0  0  0  0  0  0  0
   18.4580  -35.0890   34.1180 H   0  0  0  0  0  0  0  0  0  0  0  0
   19.0970  -33.3420   39.7800 H   0  0  0  0  0  0  0  0  0  0  0  0
   22.6405  -30.8278   39.4072 H   0  0  0  0  0  0  0  0  0  0  0  0
   23.2772  -29.1663   41.1192 H   0  0  0  0  0  0  0  0  0  0  0  0
   22.4983  -24.9114   42.3982 H   0  0  0  0  0  0  0  0  0  0  0  0
   23.2313  -25.6621   40.9402 H   0  0  0  0  0  0  0  0  0  0  0  0
   21.4926  -25.2106   40.9402 H   0  0  0  0  0  0  0  0  0  0  0  0
   21.3153  -26.8492   44.1712 H   0  0  0  0  0  0  0  0  0  0  0  0
   20.4827  -25.7185   43.0510 H   0  0  0  0  0  0  0  0  0  0  0  0
   20.0520  -27.4624   43.0510 H   0  0  0  0  0  0  0  0  0  0  0  0
   23.1539  -27.5100   43.8384 H   0  0  0  0  0  0  0  0  0  0  0  0
   23.4070  -28.5899   42.4255 H   0  0  0  0  0  0  0  0  0  0  0  0
   24.1015  -26.9333   42.4255 H   0  0  0  0  0  0  0  0  0  0  0  0
  1  2  1  0
  2  3  1  0
  3  4  2  0
  4  5  1  0
  5  6  1  0
  6  7  1  0
  7  8  1  0
  8  9  2  0
  9 10  1  0
 10 11  2  0
 11 12  1  0
 12 13  1  0
 12 14  2  0
 14 15  1  0
 15 16  2  0
 15 17  1  0
 17 18  1  0
  5 19  2  0
 19 20  1  0
 20 21  2  0
 21 22  1  0
 22 23  1  0
 22 24  1  0
 22 25  1  0
 21  3  1  0
 17  6  2  0
 14  8  1  0
  1 26  1  0
  1 27  1  0
  1 28  1  0
  2 29  1  0
  2 30  1  0
  4 31  1  0
  9 32  1  0
 10 33  1  0
 11 34  1  0
 13 35  1  0
 18 36  1  0
 19 37  1  0
 20 38  1  0
 23 39  1  0
 23 40  1  0
 23 41  1  0
 24 42  1  0
 24 43  1  0
 24 44  1  0
 25 45  1  0
 25 46  1  0
 25 47  1  0
M  END
>  <meeko>  (4) 
{"is_sidechain": [false], "free_energy": -8.754, "intermolecular_energy": -10.754, "internal_energy": -0.58}

$$$$
cand_038_out
     RDKit          3D

 47 49  0  0  0  0  0  0  0  0999 V2000
   24.2070  -26.9500   43.5910 C   0  0  0  0  0  0  0  0  0  0  0  0
   23.5300  -25.6970   43.0450 C   0  0  0  0  0  0  0  0  0  0  0  0
   22.0910  -25.9490   42.6420 C   0  0  0  0  0  0  0  0  0  0  0  0
   21.9430  -26.8180   41.5260 C   0  0  0  0  0  0  0  0  0  0  0  0
   20.6980  -27.1870   41.0110 C   0  0  0  0  0  0  0  0  0  0  0  0
   20.5620  -28.0740   39.8370 C   0  0  0  0  0  0  0  0  0  0  0  0
   20.2470  -29.3830   40.1830 O   0  0  0  0  0  0  0  0  0  0  0  0
   20.0900  -30.3120   39.1880 C   0  0  0  0  0  0  0  0  0  0  0  0
   19.7600  -31.6110   39.5800 C   0  0  0  0  0  0  0  0  0  0  0  0
   19.5880  -32.6070   38.6160 C   0  0  0  0  0  0  0  0  0  0  0  0
   19.7470  -32.3060   37.2620 C   0  0  0  0  0  0  0  0  0  0  0  0
   20.0780  -31.0100   36.8730 C   0  0  0  0  0  0  0  0  0  0  0  0
   20.2200  -30.7850   35.5320 O   0  0  0  0  0  0  0  0  0  0  0  0
   20.2490  -30.0140   37.8380 C   0  0  0  0  0  0  0  0  0  0  0  0
   20.5960  -28.6390   37.4740 C   0  0  0  0  0  0  0  0  0  0  0  0
   20.7610  -28.2980   36.3040 O   0  0  0  0  0  0  0  0  0  0  0  0
   20.7470  -27.6560   38.5710 C   0  0  0  0  0  0  0  0  0  0  0  0
   21.0890  -26.3640   38.2150 O   0  0  0  0  0  0  0  0  0  0  0  0
   19.5690  -26.6500   41.6190 C   0  0  0  0  0  0  0  0  0  0  0  0
   19.6890  -25.7890   42.7170 C   0  0  0  0  0  0  0  0  0  0  0  0
   20.9370  -25.4120   43.2720 C   0  0  0  0  0  0  0  0  0  0  0  0
   20.9500  -24.4380   44.4830 C   0  0  0  0  0  0  0  0  0  0  0  0
   19.5550  -24.2530   45.1510 C   0  0  0  0  0  0  0  0  0  0  0  0
   21.8640  -24.9360   45.6260 C   0  0  0  0  0  0  0  0  0  0  0  0
   21.3730  -23.0280   44.0170 C   0  0  0  0  0  0  0  0  0  0  0  0
   24.1933  -26.9246   44.6906 H   0  0  0  0  0  0  0  0  0  0  0  0
   23.6678  -27.8415   43.2381 H   0  0  0  0  0  0  0  0  0  0  0  0
   25.2482  -26.9876   43.2381 H   0  0  0  0  0  0  0  0  0  0  0  0
   23.5485  -24.9182   43.8216 H   0  0  0  0  0  0  0  0  0  0  0  0
   24.0805  -25.3820   42.1463 H   0  0  0  0  0  0  0  0  0  0  0  0
   22.8492  -27.2173   41.0470 H   0  0  0  0  0  0  0  0  0  0  0  0
   19.6357  -31.8496   40.6466 H   0  0  0  0  0  0  0  0  0  0  0  0
   19.3269  -33.6302   38.9241 H   0  0  0  0  0  0  0  0  0  0  0  0
   19.6111  -33.0910   36.5035 H   0  0  0  0  0  0  0  0  0  0  0  0
   19.5160  -30.9840   34.9460 H   0  0  0  0  0  0  0  0  0  0  0  0
   20.6300  -25.6380   38.5910 H   0  0  0  0  0  0  0  0  0  0  0  0
   18.5706  -26.9041   41.2335 H   0  0  0  0  0  0  0  0  0  0  0  0
   18.7710  -25.3864   43.1700 H   0  0  0  0  0  0  0  0  0  0  0  0
   19.6675  -24.2679   46.2451 H   0  0  0  0  0  0  0  0  0  0  0  0
   19.1243  -23.2899   44.8398 H   0  0  0  0  0  0  0  0  0  0  0  0
   18.8881  -25.0706   44.8398 H   0  0  0  0  0  0  0  0  0  0  0  0
   21.4075  -24.6872   46.5954 H   0  0  0  0  0  0  0  0  0  0  0  0
   21.9877  -26.0262   45.5480 H   0  0  0  0  0  0  0  0  0  0  0  0
   22.8472  -24.4489   45.5480 H   0  0  0  0  0  0  0  0  0  0  0  0
   21.5634  -22.3934   44.8951 H   0  0  0  0  0  0  0  0  0  0  0  0
   22.2887  -23.1011   43.4120 H   0  0  0  0  0  0  0  0  0  0  0  0
   20.5682  -22.5850   43.4120 H   0  0  0  0  0  0  0  0  0  0  0  0
  1  2  1  0
  2  3  1  0
  3  4  2  0
  4  5  1  0
  5  6  1  0
  6  7  1  0
  7  8  1  0
  8  9  2  0
  9 10  1  0
 10 11  2  0
 11 12  1  0
 12 13  1  0
 12 14  2  0
 14 15  1  0
 15 16  2  0
 15 17  1  0
 17 18  1  0
  5 19  2  0
 19 20  1  0
 20 21  2  0
 21 22  1  0
 22 23  1  0
 22 24  1  0
 22 25  1  0
 21  3  1  0
 17  6  2  0
 14  8  1  0
  1 26  1  0
  1 27  1  0
  1 28  1  0
  2 29  1  0
  2 30  1  0
  4 31  1  0
  9 32  1  0
 10 33  1  0
 11 34  1  0
 13 35  1  0
 18 36  1  0
 19 37  1  0
 20 38  1  0
 23 39  1  0
 23 40  1  0
 23 41  1  0
 24 42  1  0
 24 43  1  0
 24 44  1  0
 25 45  1  0
 25 46  1  0
 25 47  1  0
M  END
>  <meeko>  (5) 
{"is_sidechain": [false], "free_energy": -8.459, "intermolecular_energy": -10.433, "internal_energy": -0.537}

$$$$
cand_038_out
     RDKit          3D

 47 49  0  0  0  0  0  0  0  0999 V2000
   24.1740  -30.7050   42.6850 C   0  0  0  0  0  0  0  0  0  0  0  0
   24.2010  -29.3110   42.0660 C   0  0  0  0  0  0  0  0  0  0  0  0
   22.8570  -28.9080   41.4940 C   0  0  0  0  0  0  0  0  0  0  0  0
   22.4040  -29.7400   40.4330 C   0  0  0  0  0  0  0  0  0  0  0  0
   21.1830  -29.5450   39.7830 C   0  0  0  0  0  0  0  0  0  0  0  0
   20.7380  -30.4040   38.6670 C   0  0  0  0  0  0  0  0  0  0  0  0
   21.0700  -29.8860   37.4200 O   0  0  0  0  0  0  0  0  0  0  0  0
   20.7160  -30.5850   36.2960 C   0  0  0  0  0  0  0  0  0  0  0  0
   21.0820  -30.0360   35.0650 C   0  0  0  0  0  0  0  0  0  0  0  0
   20.7500  -30.6960   33.8810 C   0  0  0  0  0  0  0  0  0  0  0  0
   20.0520  -31.9050   33.9250 C   0  0  0  0  0  0  0  0  0  0  0  0
   19.6860  -32.4500   35.1530 C   0  0  0  0  0  0  0  0  0  0  0  0
   19.0030  -33.6350   35.1230 O   0  0  0  0  0  0  0  0  0  0  0  0
   20.0200  -31.7890   36.3380 C   0  0  0  0  0  0  0  0  0  0  0  0
   19.6550  -32.3280   37.6490 C   0  0  0  0  0  0  0  0  0  0  0  0
   19.0340  -33.3820   37.7700 O   0  0  0  0  0  0  0  0  0  0  0  0
   20.0620  -31.5550   38.8450 C   0  0  0  0  0  0  0  0  0  0  0  0
   19.7010  -32.0670   40.0780 O   0  0  0  0  0  0  0  0  0  0  0  0
   20.4030  -28.4710   40.1950 C   0  0  0  0  0  0  0  0  0  0  0  0
   20.8290  -27.6350   41.2360 C   0  0  0  0  0  0  0  0  0  0  0  0
   22.0530  -27.8200   41.9250 C   0  0  0  0  0  0  0  0  0  0  0  0
   22.4300  -26.8210   43.0550 C   0  0  0  0  0  0  0  0  0  0  0  0
   23.6980  -25.9740   42.7410 C   0  0  0  0  0  0  0  0  0  0  0  0
   21.3190  -25.7770   43.3080 C   0  0  0  0  0  0  0  0  0  0  0  0
   22.7620  -27.5950   44.3490 C   0  0  0  0  0  0  0  0  0  0  0  0
   24.1757  -30.6193   43.7817 H   0  0  0  0  0  0  0  0  0  0  0  0
   23.2655  -31.2330   42.3598 H   0  0  0  0  0  0  0  0  0  0  0  0
   25.0614  -31.2678   42.3598 H   0  0  0  0  0  0  0  0  0  0  0  0
   24.4870  -28.5853   42.8416 H   0  0  0  0  0  0  0  0  0  0  0  0
   24.9272  -29.3244   41.2399 H   0  0  0  0  0  0  0  0  0  0  0  0
   23.0438  -30.5744   40.1098 H   0  0  0  0  0  0  0  0  0  0  0  0
   21.6317  -29.0839   35.0287 H   0  0  0  0  0  0  0  0  0  0  0  0
   21.0385  -30.2634   32.9117 H   0  0  0  0  0  0  0  0  0  0  0  0
   19.7919  -32.4256   32.9915 H   0  0  0  0  0  0  0  0  0  0  0  0
   18.5880  -33.9560   35.8990 H   0  0  0  0  0  0  0  0  0  0  0  0
   19.6150  -31.4950   40.8150 H   0  0  0  0  0  0  0  0  0  0  0  0
   19.4411  -28.2751   39.6987 H   0  0  0  0  0  0  0  0  0  0  0  0
   20.1826  -26.7957   41.5321 H   0  0  0  0  0  0  0  0  0  0  0  0
   24.1706  -25.6583   43.6828 H   0  0  0  0  0  0  0  0  0  0  0  0
   24.4085  -26.5795   42.1592 H   0  0  0  0  0  0  0  0  0  0  0  0
   23.4108  -25.0858   42.1592 H   0  0  0  0  0  0  0  0  0  0  0  0
   21.1791  -25.6456   44.3911 H   0  0  0  0  0  0  0  0  0  0  0  0
   21.6086  -24.8167   42.8565 H   0  0  0  0  0  0  0  0  0  0  0  0
   20.3785  -26.1257   42.8565 H   0  0  0  0  0  0  0  0  0  0  0  0
   22.4982  -26.9800   45.2220 H   0  0  0  0  0  0  0  0  0  0  0  0
   22.1868  -28.5323   44.3734 H   0  0  0  0  0  0  0  0  0  0  0  0
   23.8376  -27.8242   44.3734 H   0  0  0  0  0  0  0  0  0  0  0  0
  1  2  1  0
  2  3  1  0
  3  4  2  0
  4  5  1  0
  5  6  1  0
  6  7  1  0
  7  8  1  0
  8  9  2  0
  9 10  1  0
 10 11  2  0
 11 12  1  0
 12 13  1  0
 12 14  2  0
 14 15  1  0
 15 16  2  0
 15 17  1  0
 17 18  1  0
  5 19  2  0
 19 20  1  0
 20 21  2  0
 21 22  1  0
 22 23  1  0
 22 24  1  0
 22 25  1  0
 21  3  1  0
 17  6  2  0
 14  8  1  0
  1 26  1  0
  1 27  1  0
  1 28  1  0
  2 29  1  0
  2 30  1  0
  4 31  1  0
  9 32  1  0
 10 33  1  0
 11 34  1  0
 13 35  1  0
 18 36  1  0
 19 37  1  0
 20 38  1  0
 23 39  1  0
 23 40  1  0
 23 41  1  0
 24 42  1  0
 24 43  1  0
 24 44  1  0
 25 45  1  0
 25 46  1  0
 25 47  1  0
M  END
>  <meeko>  (6) 
{"is_sidechain": [false], "free_energy": -8.423, "intermolecular_energy": -10.386, "internal_energy": -0.54}

$$$$
cand_038_out
     RDKit          3D

 47 49  0  0  0  0  0  0  0  0999 V2000
   19.8470  -26.1320   42.6690 C   0  0  0  0  0  0  0  0  0  0  0  0
   21.3650  -26.2060   42.7910 C   0  0  0  0  0  0  0  0  0  0  0  0
   21.9530  -27.3520   41.9920 C   0  0  0  0  0  0  0  0  0  0  0  0
   21.3520  -27.5410   40.7180 C   0  0  0  0  0  0  0  0  0  0  0  0
   21.7620  -28.5340   39.8250 C   0  0  0  0  0  0  0  0  0  0  0  0
   21.1120  -28.7310   38.5120 C   0  0  0  0  0  0  0  0  0  0  0  0
   20.5150  -27.5730   38.0250 O   0  0  0  0  0  0  0  0  0  0  0  0
   19.8770  -27.6150   36.8140 C   0  0  0  0  0  0  0  0  0  0  0  0
   19.3050  -26.4260   36.3570 C   0  0  0  0  0  0  0  0  0  0  0  0
   18.6370  -26.4000   35.1310 C   0  0  0  0  0  0  0  0  0  0  0  0
   18.5400  -27.5620   34.3620 C   0  0  0  0  0  0  0  0  0  0  0  0
   19.1100  -28.7470   34.8200 C   0  0  0  0  0  0  0  0  0  0  0  0
   18.9770  -29.8470   34.0180 O   0  0  0  0  0  0  0  0  0  0  0  0
   19.7790  -28.7720   36.0470 C   0  0  0  0  0  0  0  0  0  0  0  0
   20.3930  -29.9950   36.5650 C   0  0  0  0  0  0  0  0  0  0  0  0
   20.3440  -31.0590   35.9500 O   0  0  0  0  0  0  0  0  0  0  0  0
   21.0860  -29.9140   37.8710 C   0  0  0  0  0  0  0  0  0  0  0  0
   21.6510  -31.0800   38.3570 O   0  0  0  0  0  0  0  0  0  0  0  0
   22.7900  -29.3760   40.2310 C   0  0  0  0  0  0  0  0  0  0  0  0
   23.3950  -29.2130   41.4840 C   0  0  0  0  0  0  0  0  0  0  0  0
   23.0130  -28.2040   42.4020 C   0  0  0  0  0  0  0  0  0  0  0  0
   23.7450  -28.1260   43.7710 C   0  0  0  0  0  0  0  0  0  0  0  0
   22.8070  -28.3470   44.9940 C   0  0  0  0  0  0  0  0  0  0  0  0
   24.8330  -29.2140   43.9160 C   0  0  0  0  0  0  0  0  0  0  0  0
   24.3480  -26.7180   43.9640 C   0  0  0  0  0  0  0  0  0  0  0  0
   19.3991  -26.1102   43.6734 H   0  0  0  0  0  0  0  0  0  0  0  0
   19.5671  -25.2191   42.1228 H   0  0  0  0  0  0  0  0  0  0  0  0
   19.4797  -27.0133   42.1228 H   0  0  0  0  0  0  0  0  0  0  0  0
   21.7954  -25.2623   42.4246 H   0  0  0  0  0  0  0  0  0  0  0  0
   21.6088  -26.3754   43.8502 H   0  0  0  0  0  0  0  0  0  0  0  0
   20.5274  -26.8759   40.4220 H   0  0  0  0  0  0  0  0  0  0  0  0
   19.3805  -25.5106   36.9622 H   0  0  0  0  0  0  0  0  0  0  0  0
   18.1867  -25.4634   34.7705 H   0  0  0  0  0  0  0  0  0  0  0  0
   18.0141  -27.5410   33.3961 H   0  0  0  0  0  0  0  0  0  0  0  0
   18.9970  -29.7520   33.0860 H   0  0  0  0  0  0  0  0  0  0  0  0
   22.0290  -31.6990   37.7640 H   0  0  0  0  0  0  0  0  0  0  0  0
   23.1324  -30.1789   39.5616 H   0  0  0  0  0  0  0  0  0  0  0  0
   24.2048  -29.9009   41.7684 H   0  0  0  0  0  0  0  0  0  0  0  0
   23.3790  -28.2122   45.9239 H   0  0  0  0  0  0  0  0  0  0  0  0
   21.9837  -27.6182   44.9611 H   0  0  0  0  0  0  0  0  0  0  0  0
   22.3956  -29.3667   44.9611 H   0  0  0  0  0  0  0  0  0  0  0  0
   25.0223  -29.4033   44.9829 H   0  0  0  0  0  0  0  0  0  0  0  0
   24.4904  -30.1416   43.4341 H   0  0  0  0  0  0  0  0  0  0  0  0
   25.7606  -28.8714   43.4341 H   0  0  0  0  0  0  0  0  0  0  0  0
   24.4402  -26.5028   45.0388 H   0  0  0  0  0  0  0  0  0  0  0  0
   25.3424  -26.6776   43.4954 H   0  0  0  0  0  0  0  0  0  0  0  0
   23.6911  -25.9704   43.4954 H   0  0  0  0  0  0  0  0  0  0  0  0
  1  2  1  0
  2  3  1  0
  3  4  2  0
  4  5  1  0
  5  6  1  0
  6  7  1  0
  7  8  1  0
  8  9  2  0
  9 10  1  0
 10 11  2  0
 11 12  1  0
 12 13  1  0
 12 14  2  0
 14 15  1  0
 15 16  2  0
 15 17  1  0
 17 18  1  0
  5 19  2  0
 19 20  1  0
 20 21  2  0
 21 22  1  0
 22 23  1  0
 22 24  1  0
 22 25  1  0
 21  3  1  0
 17  6  2  0
 14  8  1  0
  1 26  1  0
  1 27  1  0
  1 28  1  0
  2 29  1  0
  2 30  1  0
  4 31  1  0
  9 32  1  0
 10 33  1  0
 11 34  1  0
 13 35  1  0
 18 36  1  0
 19 37  1  0
 20 38  1  0
 23 39  1  0
 23 40  1  0
 23 41  1  0
 24 42  1  0
 24 43  1  0
 24 44  1  0
 25 45  1  0
 25 46  1  0
 25 47  1  0
M  END
>  <meeko>  (7) 
{"is_sidechain": [false], "free_energy": -8.29, "intermolecular_energy": -10.819, "internal_energy": 0.058}

$$$$
cand_038_out
     RDKit          3D

 47 49  0  0  0  0  0  0  0  0999 V2000
   20.1870  -25.7270   42.8110 C   0  0  0  0  0  0  0  0  0  0  0  0
   21.7000  -25.8330   42.6510 C   0  0  0  0  0  0  0  0  0  0  0  0
   22.1120  -27.0490   41.8460 C   0  0  0  0  0  0  0  0  0  0  0  0
   21.5260  -27.1140   40.5520 C   0  0  0  0  0  0  0  0  0  0  0  0
   21.7910  -28.1470   39.6500 C   0  0  0  0  0  0  0  0  0  0  0  0
   21.1580  -28.2120   38.3170 C   0  0  0  0  0  0  0  0  0  0  0  0
   21.2420  -29.4750   37.7400 O   0  0  0  0  0  0  0  0  0  0  0  0
   20.6920  -29.6750   36.5010 C   0  0  0  0  0  0  0  0  0  0  0  0
   20.7860  -30.9610   35.9660 C   0  0  0  0  0  0  0  0  0  0  0  0
   20.2490  -31.2330   34.7060 C   0  0  0  0  0  0  0  0  0  0  0  0
   19.6190  -30.2200   33.9800 C   0  0  0  0  0  0  0  0  0  0  0  0
   19.5270  -28.9380   34.5150 C   0  0  0  0  0  0  0  0  0  0  0  0
   18.8980  -27.9930   33.7510 O   0  0  0  0  0  0  0  0  0  0  0  0
   20.0640  -28.6670   35.7760 C   0  0  0  0  0  0  0  0  0  0  0  0
   19.9890  -27.3330   36.3760 C   0  0  0  0  0  0  0  0  0  0  0  0
   19.4560  -26.3880   35.7960 O   0  0  0  0  0  0  0  0  0  0  0  0
   20.5810  -27.1520   37.7200 C   0  0  0  0  0  0  0  0  0  0  0  0
   20.5160  -25.8840   38.2710 O   0  0  0  0  0  0  0  0  0  0  0  0
   22.6520  -29.1560   40.0670 C   0  0  0  0  0  0  0  0  0  0  0  0
   23.2390  -29.1160   41.3390 C   0  0  0  0  0  0  0  0  0  0  0  0
   23.0030  -28.0720   42.2670 C   0  0  0  0  0  0  0  0  0  0  0  0
   23.6960  -28.1390   43.6560 C   0  0  0  0  0  0  0  0  0  0  0  0
   24.7050  -29.3170   43.7940 C   0  0  0  0  0  0  0  0  0  0  0  0
   24.5350  -26.8750   43.9520 C   0  0  0  0  0  0  0  0  0  0  0  0
   22.6410  -28.3680   44.7590 C   0  0  0  0  0  0  0  0  0  0  0  0
   19.9318  -25.7091   43.8808 H   0  0  0  0  0  0  0  0  0  0  0  0
   19.8317  -24.8018   42.3338 H   0  0  0  0  0  0  0  0  0  0  0  0
   19.7062  -26.5937   42.3338 H   0  0  0  0  0  0  0  0  0  0  0  0
   22.0652  -24.9303   42.1394 H   0  0  0  0  0  0  0  0  0  0  0  0
   22.1374  -25.9318   43.6555 H   0  0  0  0  0  0  0  0  0  0  0  0
   20.8333  -26.3154   40.2479 H   0  0  0  0  0  0  0  0  0  0  0  0
   21.2828  -31.7595   36.5366 H   0  0  0  0  0  0  0  0  0  0  0  0
   20.3223  -32.2465   34.2848 H   0  0  0  0  0  0  0  0  0  0  0  0
   19.1963  -30.4346   32.9874 H   0  0  0  0  0  0  0  0  0  0  0  0
   17.9960  -28.1000   33.5230 H   0  0  0  0  0  0  0  0  0  0  0  0
   21.0080  -25.6840   39.0430 H   0  0  0  0  0  0  0  0  0  0  0  0
   22.8749  -29.9948   39.3912 H   0  0  0  0  0  0  0  0  0  0  0  0
   23.9147  -29.9336   41.6305 H   0  0  0  0  0  0  0  0  0  0  0  0
   24.8828  -29.5246   44.8595 H   0  0  0  0  0  0  0  0  0  0  0  0
   24.2904  -30.2136   43.3100 H   0  0  0  0  0  0  0  0  0  0  0  0
   25.6546  -29.0450   43.3100 H   0  0  0  0  0  0  0  0  0  0  0  0
   24.6242  -26.7406   45.0401 H   0  0  0  0  0  0  0  0  0  0  0  0
   25.5372  -26.9891   43.5133 H   0  0  0  0  0  0  0  0  0  0  0  0
   24.0406  -25.9957   43.5133 H   0  0  0  0  0  0  0  0  0  0  0  0
   23.1147  -28.2652   45.7465 H   0  0  0  0  0  0  0  0  0  0  0  0
   21.8377  -27.6233   44.6583 H   0  0  0  0  0  0  0  0  0  0  0  0
   22.2187  -29.3787   44.6583 H   0  0  0  0  0  0  0  0  0  0  0  0
  1  2  1  0
  2  3  1  0
  3  4  2  0
  4  5  1  0
  5  6  1  0
  6  7  1  0
  7  8  1  0
  8  9  2  0
  9 10  1  0
 10 11  2  0
 11 12  1  0
 12 13  1  0
 12 14  2  0
 14 15  1  0
 15 16  2  0
 15 17  1  0
 17 18  1  0
  5 19  2  0
 19 20  1  0
 20 21  2  0
 21 22  1  0
 22 23  1  0
 22 24  1  0
 22 25  1  0
 21  3  1  0
 17  6  2  0
 14  8  1  0
  1 26  1  0
  1 27  1  0
  1 28  1  0
  2 29  1  0
  2 30  1  0
  4 31  1  0
  9 32  1  0
 10 33  1  0
 11 34  1  0
 13 35  1  0
 18 36  1  0
 19 37  1  0
 20 38  1  0
 23 39  1  0
 23 40  1  0
 23 41  1  0
 24 42  1  0
 24 43  1  0
 24 44  1  0
 25 45  1  0
 25 46  1  0
 25 47  1  0
M  END
>  <meeko>  (8) 
{"is_sidechain": [false], "free_energy": -8.263, "intermolecular_energy": -10.691, "internal_energy": -0.037}

$$$$
