cand_053_out
     RDKit          3D

 44 46  0  0  0  0  0  0  0  0999 V2000
   22.2890  -25.4350   45.1950 C   0  0  0  0  0  0  0  0  0  0  0  0
   23.0920  -26.6910   44.8900 C   0  0  0  0  0  0  0  0  0  0  0  0
   23.8210  -26.5740   43.5500 C   0  0  0  0  0  0  0  0  0  0  0  0
   23.2280  -27.4970   42.5070 C   0  0  0  0  0  0  0  0  0  0  0  0
   22.1880  -27.0010   41.7010 C   0  0  0  0  0  0  0  0  0  0  0  0
   21.6040  -27.7920   40.7090 C   0  0  0  0  0  0  0  0  0  0  0  0
   22.0470  -29.0990   40.4860 C   0  0  0  0  0  0  0  0  0  0  0  0
   21.3950  -29.9320   39.4530 C   0  0  0  0  0  0  0  0  0  0  0  0
   20.6090  -30.9440   39.9920 O   0  0  0  0  0  0  0  0  0  0  0  0
   19.9460  -31.7940   39.1430 C   0  0  0  0  0  0  0  0  0  0  0  0
   19.1820  -32.8040   39.7280 C   0  0  0  0  0  0  0  0  0  0  0  0
   18.4800  -33.7020   38.9210 C   0  0  0  0  0  0  0  0  0  0  0  0
   18.5410  -33.5880   37.5300 C   0  0  0  0  0  0  0  0  0  0  0  0
   19.3050  -32.5780   36.9500 C   0  0  0  0  0  0  0  0  0  0  0  0
   19.3200  -32.5240   35.5830 O   0  0  0  0  0  0  0  0  0  0  0  0
   20.0080  -31.6810   37.7580 C   0  0  0  0  0  0  0  0  0  0  0  0
   20.8210  -30.6060   37.1900 C   0  0  0  0  0  0  0  0  0  0  0  0
   20.9180  -30.4360   35.9750 O   0  0  0  0  0  0  0  0  0  0  0  0
   21.5340  -29.7140   38.1330 C   0  0  0  0  0  0  0  0  0  0  0  0
   22.2890  -28.6930   37.5830 O   0  0  0  0  0  0  0  0  0  0  0  0
   23.0810  -29.5960   41.2910 C   0  0  0  0  0  0  0  0  0  0  0  0
   23.6900  -28.8100   42.2920 C   0  0  0  0  0  0  0  0  0  0  0  0
   24.7950  -29.4390   43.1100 C   0  0  0  0  0  0  0  0  0  0  0  0
   24.7510  -30.9580   43.0540 C   0  0  0  0  0  0  0  0  0  0  0  0
   22.2075  -25.3075   46.2845 H   0  0  0  0  0  0  0  0  0  0  0  0
   22.7962  -24.5610   44.7605 H   0  0  0  0  0  0  0  0  0  0  0  0
   21.2828  -25.5286   44.7605 H   0  0  0  0  0  0  0  0  0  0  0  0
   23.8327  -26.8452   45.6885 H   0  0  0  0  0  0  0  0  0  0  0  0
   22.3970  -27.5418   44.8336 H   0  0  0  0  0  0  0  0  0  0  0  0
   23.7450  -25.5365   43.1923 H   0  0  0  0  0  0  0  0  0  0  0  0
   24.8713  -26.8619   43.7050 H   0  0  0  0  0  0  0  0  0  0  0  0
   21.8283  -25.9728   41.8543 H   0  0  0  0  0  0  0  0  0  0  0  0
   20.7870  -27.3823   40.0969 H   0  0  0  0  0  0  0  0  0  0  0  0
   19.1326  -32.8930   40.8233 H   0  0  0  0  0  0  0  0  0  0  0  0
   17.8785  -34.4998   39.3811 H   0  0  0  0  0  0  0  0  0  0  0  0
   17.9869  -34.2942   36.8942 H   0  0  0  0  0  0  0  0  0  0  0  0
   20.1330  -32.4220   35.1280 H   0  0  0  0  0  0  0  0  0  0  0  0
   22.2360  -28.5130   36.6660 H   0  0  0  0  0  0  0  0  0  0  0  0
   23.4278  -30.6286   41.1380 H   0  0  0  0  0  0  0  0  0  0  0  0
   25.7648  -29.0971   42.7193 H   0  0  0  0  0  0  0  0  0  0  0  0
   24.6582  -29.1335   44.1578 H   0  0  0  0  0  0  0  0  0  0  0  0
   24.7393  -31.3624   44.0769 H   0  0  0  0  0  0  0  0  0  0  0  0
   23.8432  -31.2792   42.5223 H   0  0  0  0  0  0  0  0  0  0  0  0
   25.6387  -31.3312   42.5223 H   0  0  0  0  0  0  0  0  0  0  0  0
  1  2  1  0
  2  3  1  0
  3  4  1  0
  4  5  2  0
  5  6  1  0
  6  7  2  0
  7  8  1  0
  8  9  1  0
  9 10  1  0
 10 11  2  0
 11 12  1  0
 12 13  2  0
 13 14  1  0
 14 15  1  0
 14 16  2  0
 16 17  1  0
 17 18  2  0
 17 19  1  0
 19 20  1  0
  7 21  1  0
 21 22  2  0
 22 23  1  0
 23 24  1  0
 22  4  1  0
 19  8  2  0
 16 10  1  0
  1 25  1  0
  1 26  1  0
  1 27  1  0
  2 28  1  0
  2 29  1  0
  3 30  1  0
  3 31  1  0
  5 32  1  0
  6 33  1  0
 11 34  1  0
 12 35  1  0
 13 36  1  0
 15 37  1  0
 20 38  1  0
 21 39  1  0
 23 40  1  0
 23 41  1  0
 24 42  1  0
 24 43  1  0
 24 44  1  0
M  END
>  <meeko>  (1) 
{"is_sidechain": [false], "free_energy": -9.382, "intermolecular_energy": -12.124, "internal_energy": -0.697}

$$$$
cand_053_out
     RDKit          3D

 44 46  0  0  0  0  0  0  0  0999 V2000
   23.1110  -28.3550   44.9750 C   0  0  0  0  0  0  0  0  0  0  0  0
   24.1840  -27.7420   44.0890 C   0  0  0  0  0  0  0  0  0  0  0  0
   23.5670  -26.9020   42.9690 C   0  0  0  0  0  0  0  0  0  0  0  0
   22.8470  -27.7640   41.9540 C   0  0  0  0  0  0  0  0  0  0  0  0
   23.4320  -28.9900   41.5930 C   0  0  0  0  0  0  0  0  0  0  0  0
   22.8170  -29.8410   40.6740 C   0  0  0  0  0  0  0  0  0  0  0  0
   21.5920  -29.4980   40.0930 C   0  0  0  0  0  0  0  0  0  0  0  0
   20.9710  -30.3980   39.0980 C   0  0  0  0  0  0  0  0  0  0  0  0
   20.2830  -31.4550   39.6820 O   0  0  0  0  0  0  0  0  0  0  0  0
   19.6580  -32.3690   38.8720 C   0  0  0  0  0  0  0  0  0  0  0  0
   18.9920  -33.4220   39.5010 C   0  0  0  0  0  0  0  0  0  0  0  0
   18.3330  -34.3860   38.7340 C   0  0  0  0  0  0  0  0  0  0  0  0
   18.3400  -34.2960   37.3400 C   0  0  0  0  0  0  0  0  0  0  0  0
   19.0050  -33.2440   36.7160 C   0  0  0  0  0  0  0  0  0  0  0  0
   18.9710  -33.2170   35.3490 O   0  0  0  0  0  0  0  0  0  0  0  0
   19.6650  -32.2800   37.4840 C   0  0  0  0  0  0  0  0  0  0  0  0
   20.3750  -31.1590   36.8680 C   0  0  0  0  0  0  0  0  0  0  0  0
   20.4190  -31.0080   35.6480 O   0  0  0  0  0  0  0  0  0  0  0  0
   21.0490  -30.1970   37.7690 C   0  0  0  0  0  0  0  0  0  0  0  0
   21.7060  -29.1330   37.1760 O   0  0  0  0  0  0  0  0  0  0  0  0
   21.0090  -28.2740   40.4480 C   0  0  0  0  0  0  0  0  0  0  0  0
   21.6110  -27.4040   41.3820 C   0  0  0  0  0  0  0  0  0  0  0  0
   20.9040  -26.1050   41.6950 C   0  0  0  0  0  0  0  0  0  0  0  0
   19.6560  -26.3250   42.5380 C   0  0  0  0  0  0  0  0  0  0  0  0
   23.3770  -28.2031   46.0315 H   0  0  0  0  0  0  0  0  0  0  0  0
   22.1444  -27.8728   44.7672 H   0  0  0  0  0  0  0  0  0  0  0  0
   23.0354  -29.4326   44.7672 H   0  0  0  0  0  0  0  0  0  0  0  0
   24.8320  -27.0996   44.7033 H   0  0  0  0  0  0  0  0  0  0  0  0
   24.7645  -28.5571   43.6322 H   0  0  0  0  0  0  0  0  0  0  0  0
   22.8490  -26.1940   43.4086 H   0  0  0  0  0  0  0  0  0  0  0  0
   24.3793  -26.3700   42.4522 H   0  0  0  0  0  0  0  0  0  0  0  0
   24.3918  -29.2838   42.0430 H   0  0  0  0  0  0  0  0  0  0  0  0
   23.3006  -30.7913   40.4038 H   0  0  0  0  0  0  0  0  0  0  0  0
   18.9860  -33.4928   40.5987 H   0  0  0  0  0  0  0  0  0  0  0  0
   17.8081  -35.2167   39.2283 H   0  0  0  0  0  0  0  0  0  0  0  0
   17.8210  -35.0551   36.7363 H   0  0  0  0  0  0  0  0  0  0  0  0
   18.2190  -32.8760   34.9060 H   0  0  0  0  0  0  0  0  0  0  0  0
   21.2200  -28.3930   36.8720 H   0  0  0  0  0  0  0  0  0  0  0  0
   20.0545  -27.9830   39.9852 H   0  0  0  0  0  0  0  0  0  0  0  0
   21.5938  -25.4488   42.2460 H   0  0  0  0  0  0  0  0  0  0  0  0
   20.5954  -25.6477   40.7433 H   0  0  0  0  0  0  0  0  0  0  0  0
   19.9210  -26.2783   43.6046 H   0  0  0  0  0  0  0  0  0  0  0  0
   18.9166  -25.5434   42.3093 H   0  0  0  0  0  0  0  0  0  0  0  0
   19.2284  -27.3124   42.3093 H   0  0  0  0  0  0  0  0  0  0  0  0
  1  2  1  0
  2  3  1  0
  3  4  1  0
  4  5  2  0
  5  6  1  0
  6  7  2  0
  7  8  1  0
  8  9  1  0
  9 10  1  0
 10 11  2  0
 11 12  1  0
 12 13  2  0
 13 14  1  0
 14 15  1  0
 14 16  2  0
 16 17  1  0
 17 18  2  0
 17 19  1  0
 19 20  1  0
  7 21  1  0
 21 22  2  0
 22 23  1  0
 23 24  1  0
 22  4  1  0
 19  8  2  0
 16 10  1  0
  1 25  1  0
  1 26  1  0
  1 27  1  0
  2 28  1  0
  2 29  1  0
  3 30  1  0
  3 31  1  0
  5 32  1  0
  6 33  1  0
 11 34  1  0
 12 35  1  0
 13 36  1  0
 15 37  1  0
 20 38  1  0
 21 39  1  0
 23 40  1  0
 23 41  1  0
 24 42  1  0
 24 43  1  0
 24 44  1  0
M  END
>  <meeko>  (2) 
{"is_sidechain": [false], "free_energy": -9.262, "intermolecular_energy": -11.886, "internal_energy": -0.78}

$$$$
cand_053_out
     RDKit          3D

 44 46  0  0  0  0  0  0  0  0999 V2000
   20.3540  -32.3840   33.4860 C   0  0  0  0  0  0  0  0  0  0  0  0
   20.4520  -31.3250   34.5730 C   0  0  0  0  0  0  0  0  0  0  0  0
   19.9780  -31.8680   35.9230 C   0  0  0  0  0  0  0  0  0  0  0  0
   20.3860  -30.9610   37.0650 C   0  0  0  0  0  0  0  0  0  0  0  0
   20.9650  -29.7200   36.7490 C   0  0  0  0  0  0  0  0  0  0  0  0
   21.3520  -28.8280   37.7510 C   0  0  0  0  0  0  0  0  0  0  0  0
   21.1640  -29.1460   39.1000 C   0  0  0  0  0  0  0  0  0  0  0  0
   21.6090  -28.2020   40.1470 C   0  0  0  0  0  0  0  0  0  0  0  0
   22.4980  -28.7760   41.0490 O   0  0  0  0  0  0  0  0  0  0  0  0
   22.9910  -28.0110   42.0750 C   0  0  0  0  0  0  0  0  0  0  0  0
   23.8680  -28.6330   42.9650 C   0  0  0  0  0  0  0  0  0  0  0  0
   24.4080  -27.9090   44.0310 C   0  0  0  0  0  0  0  0  0  0  0  0
   24.0710  -26.5650   44.2060 C   0  0  0  0  0  0  0  0  0  0  0  0
   23.1950  -25.9480   43.3160 C   0  0  0  0  0  0  0  0  0  0  0  0
   22.9090  -24.6300   43.5470 O   0  0  0  0  0  0  0  0  0  0  0  0
   22.6550  -26.6720   42.2510 C   0  0  0  0  0  0  0  0  0  0  0  0
   21.7320  -26.0620   41.2930 C   0  0  0  0  0  0  0  0  0  0  0  0
   21.3940  -24.8820   41.3770 O   0  0  0  0  0  0  0  0  0  0  0  0
   21.2090  -26.9180   40.2040 C   0  0  0  0  0  0  0  0  0  0  0  0
   20.3480  -26.3270   39.2970 O   0  0  0  0  0  0  0  0  0  0  0  0
   20.5900  -30.3840   39.4160 C   0  0  0  0  0  0  0  0  0  0  0  0
   20.1840  -31.2950   38.4180 C   0  0  0  0  0  0  0  0  0  0  0  0
   19.5790  -32.6070   38.8620 C   0  0  0  0  0  0  0  0  0  0  0  0
   18.1580  -32.4320   39.3790 C   0  0  0  0  0  0  0  0  0  0  0  0
   20.2621  -33.3775   33.9492 H   0  0  0  0  0  0  0  0  0  0  0  0
   19.4702  -32.1875   32.8613 H   0  0  0  0  0  0  0  0  0  0  0  0
   21.2588  -32.3530   32.8613 H   0  0  0  0  0  0  0  0  0  0  0  0
   21.4994  -31.0016   34.6647 H   0  0  0  0  0  0  0  0  0  0  0  0
   19.8065  -30.4794   34.2930 H   0  0  0  0  0  0  0  0  0  0  0  0
   18.8813  -31.9519   35.9085 H   0  0  0  0  0  0  0  0  0  0  0  0
   20.4460  -32.8508   36.0812 H   0  0  0  0  0  0  0  0  0  0  0  0
   21.1159  -29.4468   35.6942 H   0  0  0  0  0  0  0  0  0  0  0  0
   21.8092  -27.8658   37.4768 H   0  0  0  0  0  0  0  0  0  0  0  0
   24.1336  -29.6915   42.8274 H   0  0  0  0  0  0  0  0  0  0  0  0
   25.0993  -28.3980   44.7331 H   0  0  0  0  0  0  0  0  0  0  0  0
   24.4965  -25.9949   45.0450 H   0  0  0  0  0  0  0  0  0  0  0  0
   22.3520  -24.1620   42.9570 H   0  0  0  0  0  0  0  0  0  0  0  0
   19.6270  -25.8140   39.6030 H   0  0  0  0  0  0  0  0  0  0  0  0
   20.4517  -30.6539   40.4734 H   0  0  0  0  0  0  0  0  0  0  0  0
   19.5634  -33.2987   38.0068 H   0  0  0  0  0  0  0  0  0  0  0  0
   20.1935  -33.0046   39.6832 H   0  0  0  0  0  0  0  0  0  0  0  0
   18.1653  -32.4329   40.4790 H   0  0  0  0  0  0  0  0  0  0  0  0
   17.7507  -31.4769   39.0158 H   0  0  0  0  0  0  0  0  0  0  0  0
   17.5311  -33.2597   39.0158 H   0  0  0  0  0  0  0  0  0  0  0  0
  1  2  1  0
  2  3  1  0
  3  4  1  0
  4  5  2  0
  5  6  1  0
  6  7  2  0
  7  8  1  0
  8  9  1  0
  9 10  1  0
 10 11  2  0
 11 12  1  0
 12 13  2  0
 13 14  1  0
 14 15  1  0
 14 16  2  0
 16 17  1  0
 17 18  2  0
 17 19  1  0
 19 20  1  0
  7 21  1  0
 21 22  2  0
 22 23  1  0
 23 24  1  0
 22  4  1  0
 19  8  2  0
 16 10  1  0
  1 25  1  0
  1 26  1  0
  1 27  1  0
  2 28  1  0
  2 29  1  0
  3 30  1  0
  3 31  1  0
  5 32  1  0
  6 33  1  0
 11 34  1  0
 12 35  1  0
 13 36  1  0
 15 37  1  0
 20 38  1  0
 21 39  1  0
 23 40  1  0
 23 41  1  0
 24 42  1  0
 24 43  1  0
 24 44  1  0
M  END
>  <meeko>  (3) 
{"is_sidechain": [false], "free_energy": -8.699, "intermolecular_energy": -11.437, "internal_energy": -0.502}

$$$$
cand_053_out
     RDKit          3D

 44 46  0  0  0  0  0  0  0  0999 V2000
   24.1580  -26.4660   43.6310 C   0  0  0  0  0  0  0  0  0  0  0  0
   23.3420  -27.5430   42.9340 C   0  0  0  0  0  0  0  0  0  0  0  0
   22.2590  -26.9330   42.0430 C   0  0  0  0  0  0  0  0  0  0  0  0
   21.7180  -27.9380   41.0490 C   0  0  0  0  0  0  0  0  0  0  0  0
   22.5680  -28.9760   40.6290 C   0  0  0  0  0  0  0  0  0  0  0  0
   22.1310  -29.9470   39.7250 C   0  0  0  0  0  0  0  0  0  0  0  0
   20.8280  -29.9150   39.2200 C   0  0  0  0  0  0  0  0  0  0  0  0
   20.3940  -30.9330   38.2400 C   0  0  0  0  0  0  0  0  0  0  0  0
   20.7620  -30.6190   36.9360 O   0  0  0  0  0  0  0  0  0  0  0  0
   20.4200  -31.4800   35.9240 C   0  0  0  0  0  0  0  0  0  0  0  0
   20.7970  -31.1170   34.6300 C   0  0  0  0  0  0  0  0  0  0  0  0
   20.4820  -31.9500   33.5540 C   0  0  0  0  0  0  0  0  0  0  0  0
   19.7920  -33.1450   33.7720 C   0  0  0  0  0  0  0  0  0  0  0  0
   19.4180  -33.5030   35.0650 C   0  0  0  0  0  0  0  0  0  0  0  0
   18.7460  -34.6860   35.2070 O   0  0  0  0  0  0  0  0  0  0  0  0
   19.7330  -32.6690   36.1410 C   0  0  0  0  0  0  0  0  0  0  0  0
   19.3590  -33.0090   37.5140 C   0  0  0  0  0  0  0  0  0  0  0  0
   18.7570  -34.0470   37.7870 O   0  0  0  0  0  0  0  0  0  0  0  0
   19.7320  -32.0530   38.5820 C   0  0  0  0  0  0  0  0  0  0  0  0
   19.3850  -32.3920   39.8780 O   0  0  0  0  0  0  0  0  0  0  0  0
   19.9800  -28.8790   39.6340 C   0  0  0  0  0  0  0  0  0  0  0  0
   20.4000  -27.8940   40.5530 C   0  0  0  0  0  0  0  0  0  0  0  0
   19.4120  -26.8160   40.9340 C   0  0  0  0  0  0  0  0  0  0  0  0
   18.5440  -26.3970   39.7560 C   0  0  0  0  0  0  0  0  0  0  0  0
   24.0677  -26.5852   44.7208 H   0  0  0  0  0  0  0  0  0  0  0  0
   25.2142  -26.5592   43.3382 H   0  0  0  0  0  0  0  0  0  0  0  0
   23.7825  -25.4744   43.3382 H   0  0  0  0  0  0  0  0  0  0  0  0
   24.0130  -28.1553   42.3136 H   0  0  0  0  0  0  0  0  0  0  0  0
   22.8519  -28.1583   43.7029 H   0  0  0  0  0  0  0  0  0  0  0  0
   21.4330  -26.5796   42.6776 H   0  0  0  0  0  0  0  0  0  0  0  0
   22.7077  -26.1017   41.4794 H   0  0  0  0  0  0  0  0  0  0  0  0
   23.5953  -29.0244   41.0192 H   0  0  0  0  0  0  0  0  0  0  0  0
   22.8188  -30.7445   39.4074 H   0  0  0  0  0  0  0  0  0  0  0  0
   21.3412  -30.1766   34.4580 H   0  0  0  0  0  0  0  0  0  0  0  0
   20.7776  -31.6647   32.5336 H   0  0  0  0  0  0  0  0  0  0  0  0
   19.5447  -33.8015   32.9247 H   0  0  0  0  0  0  0  0  0  0  0  0
   18.9720  -35.4210   34.6700 H   0  0  0  0  0  0  0  0  0  0  0  0
   18.5810  -32.8430   40.0440 H   0  0  0  0  0  0  0  0  0  0  0  0
   18.9576  -28.8323   39.2310 H   0  0  0  0  0  0  0  0  0  0  0  0
   18.7626  -27.1966   41.7361 H   0  0  0  0  0  0  0  0  0  0  0  0
   19.9810  -25.9356   41.2673 H   0  0  0  0  0  0  0  0  0  0  0  0
   17.6121  -25.9471   40.1290 H   0  0  0  0  0  0  0  0  0  0  0  0
   19.0868  -25.6617   39.1438 H   0  0  0  0  0  0  0  0  0  0  0  0
   18.3059  -27.2794   39.1438 H   0  0  0  0  0  0  0  0  0  0  0  0
  1  2  1  0
  2  3  1  0
  3  4  1  0
  4  5  2  0
  5  6  1  0
  6  7  2  0
  7  8  1  0
  8  9  1  0
  9 10  1  0
 10 11  2  0
 11 12  1  0
 12 13  2  0
 13 14  1  0
 14 15  1  0
 14 16  2  0
 16 17  1  0
 17 18  2  0
 17 19  1  0
 19 20  1  0
  7 21  1  0
 21 22  2  0
 22 23  1  0
 23 24  1  0
 22  4  1  0
 19  8  2  0
 16 10  1  0
  1 25  1  0
  1 26  1  0
  1 27  1  0
  2 28  1  0
  2 29  1  0
  3 30  1  0
  3 31  1  0
  5 32  1  0
  6 33  1  0
 11 34  1  0
 12 35  1  0
 13 36  1  0
 15 37  1  0
 20 38  1  0
 21 39  1  0
 23 40  1  0
 23 41  1  0
 24 42  1  0
 24 43  1  0
 24 44  1  0
M  END
>  <meeko>  (4) 
{"is_sidechain": [false], "free_energy": -8.608, "intermolecular_energy": -11.102, "internal_energy": -0.72}

$$$$
cand_053_out
     RDKit          3D

 44 46  0  0  0  0  0  0  0  0999 V2000
   22.6430  -24.3740   42.4300 C   0  0  0  0  0  0  0  0  0  0  0  0
   23.4440  -25.6270   42.7500 C   0  0  0  0  0  0  0  0  0  0  0  0
   22.5330  -26.7680   43.2060 C   0  0  0  0  0  0  0  0  0  0  0  0
   22.0340  -27.5890   42.0360 C   0  0  0  0  0  0  0  0  0  0  0  0
   22.8820  -28.5830   41.5160 C   0  0  0  0  0  0  0  0  0  0  0  0
   22.4820  -29.3860   40.4470 C   0  0  0  0  0  0  0  0  0  0  0  0
   21.2180  -29.2280   39.8690 C   0  0  0  0  0  0  0  0  0  0  0  0
   20.8250  -30.0670   38.7180 C   0  0  0  0  0  0  0  0  0  0  0  0
   20.1540  -31.2240   39.0970 O   0  0  0  0  0  0  0  0  0  0  0  0
   19.7310  -32.0960   38.1260 C   0  0  0  0  0  0  0  0  0  0  0  0
   19.0760  -33.2510   38.5530 C   0  0  0  0  0  0  0  0  0  0  0  0
   18.6180  -34.1800   37.6150 C   0  0  0  0  0  0  0  0  0  0  0  0
   18.8140  -33.9510   36.2510 C   0  0  0  0  0  0  0  0  0  0  0  0
   19.4690  -32.7970   35.8290 C   0  0  0  0  0  0  0  0  0  0  0  0
   19.6270  -32.6370   34.4790 O   0  0  0  0  0  0  0  0  0  0  0  0
   19.9270  -31.8690   36.7670 C   0  0  0  0  0  0  0  0  0  0  0  0
   20.6190  -30.6440   36.3660 C   0  0  0  0  0  0  0  0  0  0  0  0
   20.8230  -30.3690   35.1840 O   0  0  0  0  0  0  0  0  0  0  0  0
   21.0730  -29.7300   37.4390 C   0  0  0  0  0  0  0  0  0  0  0  0
   21.7140  -28.5680   37.0460 O   0  0  0  0  0  0  0  0  0  0  0  0
   20.3730  -28.2350   40.3840 C   0  0  0  0  0  0  0  0  0  0  0  0
   20.7560  -27.4190   41.4690 C   0  0  0  0  0  0  0  0  0  0  0  0
   19.7740  -26.3740   41.9480 C   0  0  0  0  0  0  0  0  0  0  0  0
   18.8180  -25.9430   40.8460 C   0  0  0  0  0  0  0  0  0  0  0  0
   22.3324  -23.8882   43.3668 H   0  0  0  0  0  0  0  0  0  0  0  0
   23.2654  -23.6801   41.8459 H   0  0  0  0  0  0  0  0  0  0  0  0
   21.7519  -24.6476   41.8459 H   0  0  0  0  0  0  0  0  0  0  0  0
   23.9902  -25.9429   41.8490 H   0  0  0  0  0  0  0  0  0  0  0  0
   24.1427  -25.3931   43.5668 H   0  0  0  0  0  0  0  0  0  0  0  0
   23.0962  -27.4233   43.8867 H   0  0  0  0  0  0  0  0  0  0  0  0
   21.6611  -26.3286   43.7127 H   0  0  0  0  0  0  0  0  0  0  0  0
   23.8778  -28.7301   41.9595 H   0  0  0  0  0  0  0  0  0  0  0  0
   23.1679  -30.1513   40.0548 H   0  0  0  0  0  0  0  0  0  0  0  0
   18.9201  -33.4304   39.6270 H   0  0  0  0  0  0  0  0  0  0  0  0
   18.1029  -35.0921   37.9509 H   0  0  0  0  0  0  0  0  0  0  0  0
   18.4517  -34.6807   35.5119 H   0  0  0  0  0  0  0  0  0  0  0  0
   20.2750  -33.1360   34.0210 H   0  0  0  0  0  0  0  0  0  0  0  0
   21.7640  -28.3450   36.1380 H   0  0  0  0  0  0  0  0  0  0  0  0
   19.3825  -28.0879   39.9288 H   0  0  0  0  0  0  0  0  0  0  0  0
   19.1901  -26.7910   42.7817 H   0  0  0  0  0  0  0  0  0  0  0  0
   20.3465  -25.4902   42.2662 H   0  0  0  0  0  0  0  0  0  0  0  0
   17.9027  -25.5303   41.2953 H   0  0  0  0  0  0  0  0  0  0  0  0
   19.2992  -25.1747   40.2229 H   0  0  0  0  0  0  0  0  0  0  0  0
   18.5609  -26.8123   40.2229 H   0  0  0  0  0  0  0  0  0  0  0  0
  1  2  1  0
  2  3  1  0
  3  4  1  0
  4  5  2  0
  5  6  1  0
  6  7  2  0
  7  8  1  0
  8  9  1  0
  9 10  1  0
 10 11  2  0
 11 12  1  0
 12 13  2  0
 13 14  1  0
 14 15  1  0
 14 16  2  0
 16 17  1  0
 17 18  2  0
 17 19  1  0
 19 20  1  0
  7 21  1  0
 21 22  2  0
 22 23  1  0
 23 24  1  0
 22  4  1  0
 19  8  2  0
 16 10  1  0
  1 25  1  0
  1 26  1  0
  1 27  1  0
  2 28  1  0
  2 29  1  0
  3 30  1  0
  3 31  1  0
  5 32  1  0
  6 33  1  0
 11 34  1  0
 12 35  1  0
 13 36  1  0
 15 37  1  0
 20 38  1  0
 21 39  1  0
 23 40  1  0
 23 41  1  0
 24 42  1  0
 24 43  1  0
 24 44  1  0
M  END
>  <meeko>  (5) 
{"is_sidechain": [false], "free_energy": -8.563, "intermolecular_energy": -10.926, "internal_energy": -0.838}

$$$$
cand_053_out
     RDKit          3D

 44 46  0  0  0  0  0  0  0  0999 V2000
   20.0730  -30.7940   33.5990 C   0  0  0  0  0  0  0  0  0  0  0  0
   20.9090  -30.9750   34.8560 C   0  0  0  0  0  0  0  0  0  0  0  0
   20.0450  -31.4080   36.0420 C   0  0  0  0  0  0  0  0  0  0  0  0
   20.5020  -30.7650   37.3330 C   0  0  0  0  0  0  0  0  0  0  0  0
   21.1770  -29.5340   37.2560 C   0  0  0  0  0  0  0  0  0  0  0  0
   21.6150  -28.8770   38.4070 C   0  0  0  0  0  0  0  0  0  0  0  0
   21.3830  -29.4250   39.6730 C   0  0  0  0  0  0  0  0  0  0  0  0
   21.8820  -28.7300   40.8780 C   0  0  0  0  0  0  0  0  0  0  0  0
   21.0560  -27.6860   41.2800 O   0  0  0  0  0  0  0  0  0  0  0  0
   21.4020  -26.9540   42.3870 C   0  0  0  0  0  0  0  0  0  0  0  0
   20.5520  -25.9060   42.7440 C   0  0  0  0  0  0  0  0  0  0  0  0
   20.8450  -25.1220   43.8630 C   0  0  0  0  0  0  0  0  0  0  0  0
   21.9860  -25.3880   44.6250 C   0  0  0  0  0  0  0  0  0  0  0  0
   22.8310  -26.4340   44.2650 C   0  0  0  0  0  0  0  0  0  0  0  0
   23.9300  -26.6390   45.0540 O   0  0  0  0  0  0  0  0  0  0  0  0
   22.5380  -27.2170   43.1450 C   0  0  0  0  0  0  0  0  0  0  0  0
   23.4000  -28.3260   42.7330 C   0  0  0  0  0  0  0  0  0  0  0  0
   24.4160  -28.6260   43.3570 O   0  0  0  0  0  0  0  0  0  0  0  0
   23.0050  -29.0890   41.5270 C   0  0  0  0  0  0  0  0  0  0  0  0
   23.8200  -30.1430   41.1550 O   0  0  0  0  0  0  0  0  0  0  0  0
   20.7130  -30.6530   39.7520 C   0  0  0  0  0  0  0  0  0  0  0  0
   20.2560  -31.3280   38.6010 C   0  0  0  0  0  0  0  0  0  0  0  0
   19.5470  -32.6500   38.7910 C   0  0  0  0  0  0  0  0  0  0  0  0
   18.1560  -32.4700   39.3800 C   0  0  0  0  0  0  0  0  0  0  0  0
   19.0334  -30.5689   33.8793 H   0  0  0  0  0  0  0  0  0  0  0  0
   20.4804  -29.9633   33.0041 H   0  0  0  0  0  0  0  0  0  0  0  0
   20.1003  -31.7189   33.0041 H   0  0  0  0  0  0  0  0  0  0  0  0
   21.6733  -31.7439   34.6701 H   0  0  0  0  0  0  0  0  0  0  0  0
   21.3779  -30.0109   35.1023 H   0  0  0  0  0  0  0  0  0  0  0  0
   19.0022  -31.1163   35.8484 H   0  0  0  0  0  0  0  0  0  0  0  0
   20.1360  -32.4987   36.1518 H   0  0  0  0  0  0  0  0  0  0  0  0
   21.3632  -29.0807   36.2712 H   0  0  0  0  0  0  0  0  0  0  0  0
   22.1479  -27.9188   38.3177 H   0  0  0  0  0  0  0  0  0  0  0  0
   19.6529  -25.6976   42.1454 H   0  0  0  0  0  0  0  0  0  0  0  0
   20.1769  -24.2947   44.1444 H   0  0  0  0  0  0  0  0  0  0  0  0
   22.2158  -24.7723   45.5071 H   0  0  0  0  0  0  0  0  0  0  0  0
   23.9740  -26.2500   45.9050 H   0  0  0  0  0  0  0  0  0  0  0  0
   24.6330  -30.2850   41.5980 H   0  0  0  0  0  0  0  0  0  0  0  0
   20.5384  -31.1036   40.7402 H   0  0  0  0  0  0  0  0  0  0  0  0
   19.4576  -33.1488   37.8147 H   0  0  0  0  0  0  0  0  0  0  0  0
   20.1383  -33.2553   39.4938 H   0  0  0  0  0  0  0  0  0  0  0  0
   18.2190  -32.4781   40.4782 H   0  0  0  0  0  0  0  0  0  0  0  0
   17.7369  -31.5101   39.0439 H   0  0  0  0  0  0  0  0  0  0  0  0
   17.5064  -33.2916   39.0439 H   0  0  0  0  0  0  0  0  0  0  0  0
  1  2  1  0
  2  3  1  0
  3  4  1  0
  4  5  2  0
  5  6  1  0
  6  7  2  0
  7  8  1  0
  8  9  1  0
  9 10  1  0
 10 11  2  0
 11 12  1  0
 12 13  2  0
 13 14  1  0
 14 15  1  0
 14 16  2  0
 16 17  1  0
 17 18  2  0
 17 19  1  0
 19 20  1  0
  7 21  1  0
 21 22  2  0
 22 23  1  0
 23 24  1  0
 22  4  1  0
 19  8  2  0
 16 10  1  0
  1 25  1  0
  1 26  1  0
  1 27  1  0
  2 28  1  0
  2 29  1  0
  3 30  1  0
  3 31  1  0
  5 32  1  0
  6 33  1  0
 11 34  1  0
 12 35  1  0
 13 36  1  0
 15 37  1  0
 20 38  1  0
 21 39  1  0
 23 40  1  0
 23 41  1  0
 24 42  1  0
 24 43  1  0
 24 44  1  0
M  END
>  <meeko>  (6) 
{"is_sidechain": [false], "free_energy": -8.395, "intermolecular_energy": -10.829, "internal_energy": -0.718}

$$$$
cand_053_out
     RDKit          3D

 44 46  0  0  0  0  0  0  0  0999 V2000
   18.8940  -35.4230   36.8370 C   0  0  0  0  0  0  0  0  0  0  0  0
   18.7940  -34.0890   37.5600 C   0  0  0  0  0  0  0  0  0  0  0  0
   19.2890  -32.9400   36.6790 C   0  0  0  0  0  0  0  0  0  0  0  0
   19.8460  -31.8010   37.5060 C   0  0  0  0  0  0  0  0  0  0  0  0
   19.7290  -31.8800   38.9040 C   0  0  0  0  0  0  0  0  0  0  0  0
   20.2320  -30.8720   39.7290 C   0  0  0  0  0  0  0  0  0  0  0  0
   20.8770  -29.7580   39.1820 C   0  0  0  0  0  0  0  0  0  0  0  0
   21.3750  -28.6860   40.0700 C   0  0  0  0  0  0  0  0  0  0  0  0
   22.3160  -29.1400   40.9880 O   0  0  0  0  0  0  0  0  0  0  0  0
   22.8610  -28.2470   41.8760 C   0  0  0  0  0  0  0  0  0  0  0  0
   23.7890  -28.7490   42.7890 C   0  0  0  0  0  0  0  0  0  0  0  0
   24.3850  -27.8930   43.7190 C   0  0  0  0  0  0  0  0  0  0  0  0
   24.0530  -26.5370   43.7340 C   0  0  0  0  0  0  0  0  0  0  0  0
   23.1260  -26.0390   42.8210 C   0  0  0  0  0  0  0  0  0  0  0  0
   22.8480  -24.7020   42.8910 O   0  0  0  0  0  0  0  0  0  0  0  0
   22.5310  -26.8960   41.8910 C   0  0  0  0  0  0  0  0  0  0  0  0
   21.5530  -26.4140   40.9150 C   0  0  0  0  0  0  0  0  0  0  0  0
   21.2160  -25.2330   40.8610 O   0  0  0  0  0  0  0  0  0  0  0  0
   20.9740  -27.4050   39.9790 C   0  0  0  0  0  0  0  0  0  0  0  0
   20.0610  -26.9350   39.0510 O   0  0  0  0  0  0  0  0  0  0  0  0
   20.9920  -29.6760   37.7880 C   0  0  0  0  0  0  0  0  0  0  0  0
   20.4970  -30.6880   36.9380 C   0  0  0  0  0  0  0  0  0  0  0  0
   20.6670  -30.5050   35.4470 C   0  0  0  0  0  0  0  0  0  0  0  0
   20.0610  -29.1960   34.9620 C   0  0  0  0  0  0  0  0  0  0  0  0
   18.9550  -36.2364   37.5750 H   0  0  0  0  0  0  0  0  0  0  0  0
   18.0040  -35.5659   36.2065 H   0  0  0  0  0  0  0  0  0  0  0  0
   19.7953  -35.4317   36.2065 H   0  0  0  0  0  0  0  0  0  0  0  0
   17.7436  -33.9061   37.8306 H   0  0  0  0  0  0  0  0  0  0  0  0
   19.4258  -34.1336   38.4594 H   0  0  0  0  0  0  0  0  0  0  0  0
   20.0791  -33.3164   36.0126 H   0  0  0  0  0  0  0  0  0  0  0  0
   18.4346  -32.5584   36.1007 H   0  0  0  0  0  0  0  0  0  0  0  0
   19.2325  -32.7511   39.3564 H   0  0  0  0  0  0  0  0  0  0  0  0
   20.1199  -30.9549   40.8201 H   0  0  0  0  0  0  0  0  0  0  0  0
   24.0511  -29.8172   42.7768 H   0  0  0  0  0  0  0  0  0  0  0  0
   25.1162  -28.2878   44.4397 H   0  0  0  0  0  0  0  0  0  0  0  0
   24.5226  -25.8629   44.4655 H   0  0  0  0  0  0  0  0  0  0  0  0
   22.8560  -24.2640   43.7200 H   0  0  0  0  0  0  0  0  0  0  0  0
   20.2650  -26.9630   38.1380 H   0  0  0  0  0  0  0  0  0  0  0  0
   21.4823  -28.7974   37.3433 H   0  0  0  0  0  0  0  0  0  0  0  0
   21.7408  -30.5094   35.2085 H   0  0  0  0  0  0  0  0  0  0  0  0
   20.1444  -31.3301   34.9410 H   0  0  0  0  0  0  0  0  0  0  0  0
   19.7761  -28.5807   35.8282 H   0  0  0  0  0  0  0  0  0  0  0  0
   20.7995  -28.6533   34.3536 H   0  0  0  0  0  0  0  0  0  0  0  0
   19.1694  -29.4079   34.3536 H   0  0  0  0  0  0  0  0  0  0  0  0
  1  2  1  0
  2  3  1  0
  3  4  1  0
  4  5  2  0
  5  6  1  0
  6  7  2  0
  7  8  1  0
  8  9  1  0
  9 10  1  0
 10 11  2  0
 11 12  1  0
 12 13  2  0
 13 14  1  0
 14 15  1  0
 14 16  2  0
 16 17  1  0
 17 18  2  0
 17 19  1  0
 19 20  1  0
  7 21  1  0
 21 22  2  0
 22 23  1  0
 23 24  1  0
 22  4  1  0
 19  8  2  0
 16 10  1  0
  1 25  1  0
  1 26  1  0
  1 27  1  0
  2 28  1  0
  2 29  1  0
  3 30  1  0
  3 31  1  0
  5 32  1  0
  6 33  1  0
 11 34  1  0
 12 35  1  0
 13 36  1  0
 15 37  1  0
 20 38  1  0
 21 39  1  0
 23 40  1  0
 23 41  1  0
 24 42  1  0
 24 43  1  0
 24 44  1  0
M  END
>  <meeko>  (7) 
{"is_sidechain": [false], "free_energy": -8.234, "intermolecular_energy": -10.799, "internal_energy": -0.538}

$$$$
cand_053_out
     RDKit          3D

 44 46  0  0  0  0  0  0  0  0999 V2000
   21.1790  -22.3210   43.7580 C   0  0  0  0  0  0  0  0  0  0  0  0
   20.4660  -23.2280   44.7480 C   0  0  0  0  0  0  0  0  0  0  0  0
   21.2050  -24.5570   44.9170 C   0  0  0  0  0  0  0  0  0  0  0  0
   21.1360  -25.4000   43.6610 C   0  0  0  0  0  0  0  0  0  0  0  0
   19.8910  -25.5320   43.0210 C   0  0  0  0  0  0  0  0  0  0  0  0
   19.7570  -26.2830   41.8520 C   0  0  0  0  0  0  0  0  0  0  0  0
   20.8630  -26.9180   41.2800 C   0  0  0  0  0  0  0  0  0  0  0  0
   20.6950  -27.7340   40.0590 C   0  0  0  0  0  0  0  0  0  0  0  0
   20.4270  -29.0700   40.3360 O   0  0  0  0  0  0  0  0  0  0  0  0
   20.2490  -29.9420   39.2920 C   0  0  0  0  0  0  0  0  0  0  0  0
   19.9970  -31.2750   39.6160 C   0  0  0  0  0  0  0  0  0  0  0  0
   19.8050  -32.2150   38.6000 C   0  0  0  0  0  0  0  0  0  0  0  0
   19.8630  -31.8200   37.2610 C   0  0  0  0  0  0  0  0  0  0  0  0
   20.1140  -30.4880   36.9420 C   0  0  0  0  0  0  0  0  0  0  0  0
   20.1570  -30.1700   35.6120 O   0  0  0  0  0  0  0  0  0  0  0  0
   20.3080  -29.5490   37.9590 C   0  0  0  0  0  0  0  0  0  0  0  0
   20.5740  -28.1400   37.6660 C   0  0  0  0  0  0  0  0  0  0  0  0
   20.6320  -27.7150   36.5140 O   0  0  0  0  0  0  0  0  0  0  0  0
   20.7730  -27.2270   38.8150 C   0  0  0  0  0  0  0  0  0  0  0  0
   21.0110  -25.8950   38.5270 O   0  0  0  0  0  0  0  0  0  0  0  0
   22.1040  -26.7900   41.9190 C   0  0  0  0  0  0  0  0  0  0  0  0
   22.2630  -26.0290   43.0960 C   0  0  0  0  0  0  0  0  0  0  0  0
   23.6420  -25.9560   43.7110 C   0  0  0  0  0  0  0  0  0  0  0  0
   24.3330  -27.3110   43.7200 C   0  0  0  0  0  0  0  0  0  0  0  0
   21.7684  -21.5713   44.3063 H   0  0  0  0  0  0  0  0  0  0  0  0
   21.8484  -22.9228   43.1257 H   0  0  0  0  0  0  0  0  0  0  0  0
   20.4362  -21.8126   43.1257 H   0  0  0  0  0  0  0  0  0  0  0  0
   20.4119  -22.7217   45.7230 H   0  0  0  0  0  0  0  0  0  0  0  0
   19.4577  -23.4383   44.3620 H   0  0  0  0  0  0  0  0  0  0  0  0
   22.2600  -24.3510   45.1505 H   0  0  0  0  0  0  0  0  0  0  0  0
   20.7226  -25.1163   45.7322 H   0  0  0  0  0  0  0  0  0  0  0  0
   19.0077  -25.0351   43.4487 H   0  0  0  0  0  0  0  0  0  0  0  0
   18.7699  -26.3761   41.3756 H   0  0  0  0  0  0  0  0  0  0  0  0
   19.9494  -31.5860   40.6701 H   0  0  0  0  0  0  0  0  0  0  0  0
   19.6080  -33.2668   38.8546 H   0  0  0  0  0  0  0  0  0  0  0  0
   19.7108  -32.5594   36.4609 H   0  0  0  0  0  0  0  0  0  0  0  0
   20.4800  -29.3330   35.3410 H   0  0  0  0  0  0  0  0  0  0  0  0
   21.6090  -25.6640   37.8450 H   0  0  0  0  0  0  0  0  0  0  0  0
   22.9801  -27.2982   41.4898 H   0  0  0  0  0  0  0  0  0  0  0  0
   24.2531  -25.2493   43.1304 H   0  0  0  0  0  0  0  0  0  0  0  0
   23.5324  -25.6230   44.7536 H   0  0  0  0  0  0  0  0  0  0  0  0
   24.4968  -27.6322   44.7592 H   0  0  0  0  0  0  0  0  0  0  0  0
   23.7009  -28.0484   43.2036 H   0  0  0  0  0  0  0  0  0  0  0  0
   25.3011  -27.2323   43.2036 H   0  0  0  0  0  0  0  0  0  0  0  0
  1  2  1  0
  2  3  1  0
  3  4  1  0
  4  5  2  0
  5  6  1  0
  6  7  2  0
  7  8  1  0
  8  9  1  0
  9 10  1  0
 10 11  2  0
 11 12  1  0
 12 13  2  0
 13 14  1  0
 14 15  1  0
 14 16  2  0
 16 17  1  0
 17 18  2  0
 17 19  1  0
 19 20  1  0
  7 21  1  0
 21 22  2  0
 22 23  1  0
 23 24  1  0
 22  4  1  0
 19  8  2  0
 16 10  1  0
  1 25  1  0
  1 26  1  0
  1 27  1  0
  2 28  1  0
  2 29  1  0
  3 30  1  0
  3 31  1  0
  5 32  1  0
  6 33  1  0
 11 34  1  0
 12 35  1  0
 13 36  1  0
 15 37  1  0
 20 38  1  0
 21 39  1  0
 23 40  1  0
 23 41  1  0
 24 42  1  0
 24 43  1  0
 24 44  1  0
M  END
>  <meeko>  (8) 
{"is_sidechain": [false], "free_energy": -7.866, "intermolecular_energy": -10.038, "internal_energy": -0.824}

$$$$
cand_053_out
     RDKit          3D

 44 46  0  0  0  0  0  0  0  0999 V2000
   20.4200  -32.1160   33.7560 C   0  0  0  0  0  0  0  0  0  0  0  0
   20.0560  -31.7210   35.1790 C   0  0  0  0  0  0  0  0  0  0  0  0
   19.9300  -30.2030   35.3200 C   0  0  0  0  0  0  0  0  0  0  0  0
   20.5020  -29.7130   36.6330 C   0  0  0  0  0  0  0  0  0  0  0  0
   20.9870  -30.6710   37.5410 C   0  0  0  0  0  0  0  0  0  0  0  0
   21.5410  -30.2900   38.7650 C   0  0  0  0  0  0  0  0  0  0  0  0
   21.6370  -28.9400   39.1150 C   0  0  0  0  0  0  0  0  0  0  0  0
   22.1980  -28.5580   40.4280 C   0  0  0  0  0  0  0  0  0  0  0  0
   23.1160  -29.4830   40.9130 O   0  0  0  0  0  0  0  0  0  0  0  0
   23.7140  -29.2520   42.1260 C   0  0  0  0  0  0  0  0  0  0  0  0
   24.6170  -30.2140   42.5800 C   0  0  0  0  0  0  0  0  0  0  0  0
   25.2630  -30.0400   43.8060 C   0  0  0  0  0  0  0  0  0  0  0  0
   25.0060  -28.9030   44.5760 C   0  0  0  0  0  0  0  0  0  0  0  0
   24.1050  -27.9450   44.1200 C   0  0  0  0  0  0  0  0  0  0  0  0
   23.9010  -26.8570   44.9240 O   0  0  0  0  0  0  0  0  0  0  0  0
   23.4580  -28.1210   42.8930 C   0  0  0  0  0  0  0  0  0  0  0  0
   22.5050  -27.1380   42.3770 C   0  0  0  0  0  0  0  0  0  0  0  0
   22.2330  -26.1090   42.9930 O   0  0  0  0  0  0  0  0  0  0  0  0
   21.8670  -27.4230   41.0710 C   0  0  0  0  0  0  0  0  0  0  0  0
   20.9770  -26.4800   40.5870 O   0  0  0  0  0  0  0  0  0  0  0  0
   21.1510  -27.9840   38.2130 C   0  0  0  0  0  0  0  0  0  0  0  0
   20.5950  -28.3480   36.9680 C   0  0  0  0  0  0  0  0  0  0  0  0
   20.0950  -27.2430   36.0660 C   0  0  0  0  0  0  0  0  0  0  0  0
   18.8240  -26.6020   36.6020 C   0  0  0  0  0  0  0  0  0  0  0  0
   21.1653  -32.9247   33.7792 H   0  0  0  0  0  0  0  0  0  0  0  0
   19.5185  -32.4631   33.2298 H   0  0  0  0  0  0  0  0  0  0  0  0
   20.8395  -31.2458   33.2298 H   0  0  0  0  0  0  0  0  0  0  0  0
   19.0956  -32.1865   35.4454 H   0  0  0  0  0  0  0  0  0  0  0  0
   20.8558  -32.0666   35.8504 H   0  0  0  0  0  0  0  0  0  0  0  0
   20.4729  -29.7219   34.4931 H   0  0  0  0  0  0  0  0  0  0  0  0
   18.8613  -29.9438   35.2937 H   0  0  0  0  0  0  0  0  0  0  0  0
   20.9290  -31.7387   37.2828 H   0  0  0  0  0  0  0  0  0  0  0  0
   21.9056  -31.0600   39.4608 H   0  0  0  0  0  0  0  0  0  0  0  0
   24.8199  -31.1086   41.9729 H   0  0  0  0  0  0  0  0  0  0  0  0
   25.9742  -30.7983   44.1653 H   0  0  0  0  0  0  0  0  0  0  0  0
   25.5150  -28.7650   45.5413 H   0  0  0  0  0  0  0  0  0  0  0  0
   24.6280  -26.4460   45.3500 H   0  0  0  0  0  0  0  0  0  0  0  0
   21.2820  -25.6270   40.3500 H   0  0  0  0  0  0  0  0  0  0  0  0
   21.2044  -26.9190   38.4832 H   0  0  0  0  0  0  0  0  0  0  0  0
   20.8746  -26.4714   35.9838 H   0  0  0  0  0  0  0  0  0  0  0  0
   19.8660  -27.6830   35.0842 H   0  0  0  0  0  0  0  0  0  0  0  0
   18.8439  -26.6120   37.7018 H   0  0  0  0  0  0  0  0  0  0  0  0
   18.7589  -25.5633   36.2459 H   0  0  0  0  0  0  0  0  0  0  0  0
   17.9500  -27.1671   36.2459 H   0  0  0  0  0  0  0  0  0  0  0  0
  1  2  1  0
  2  3  1  0
  3  4  1  0
  4  5  2  0
  5  6  1  0
  6  7  2  0
  7  8  1  0
  8  9  1  0
  9 10  1  0
 10 11  2  0
 11 12  1  0
 12 13  2  0
 13 14  1  0
 14 15  1  0
 14 16  2  0
 16 17  1  0
 17 18  2  0
 17 19  1  0
 19 20  1  0
  7 21  1  0
 21 22  2  0
 22 23  1  0
 23 24  1  0
 22  4  1  0
 19  8  2  0
 16 10  1  0
  1 25  1  0
  1 26  1  0
  1 27  1  0
  2 28  1  0
  2 29  1  0
  3 30  1  0
  3 31  1  0
  5 32  1  0
  6 33  1  0
 11 34  1  0
 12 35  1  0
 13 36  1  0
 15 37  1  0
 20 38  1  0
 21 39  1  0
 23 40  1  0
 23 41  1  0
 24 42  1  0
 24 43  1  0
 24 44  1  0
M  END
>  <meeko>  (9) 
{"is_sidechain": [false], "free_energy": -7.845, "intermolecular_energy": -10.63, "internal_energy": -0.206}

$$$$
