cand_031_out
     RDKit          3D

 36 38  0  0  0  0  0  0  0  0999 V2000
   25.0670  -30.9730   43.1170 C   0  0  0  0  0  0  0  0  0  0  0  0
   24.8950  -29.6490   43.0250 C   0  0  0  0  0  0  0  0  0  0  0  0
   23.7710  -29.0260   42.3100 C   0  0  0  0  0  0  0  0  0  0  0  0
   23.1250  -29.7370   41.2820 C   0  0  0  0  0  0  0  0  0  0  0  0
   22.0710  -29.1730   40.5470 C   0  0  0  0  0  0  0  0  0  0  0  0
   21.4010  -29.9670   39.4950 C   0  0  0  0  0  0  0  0  0  0  0  0
   20.6160  -30.9920   40.0110 O   0  0  0  0  0  0  0  0  0  0  0  0
   19.9380  -31.8100   39.1440 C   0  0  0  0  0  0  0  0  0  0  0  0
   19.1510  -32.8170   39.7040 C   0  0  0  0  0  0  0  0  0  0  0  0
   18.4360  -33.6850   38.8770 C   0  0  0  0  0  0  0  0  0  0  0  0
   18.5080  -33.5460   37.4890 C   0  0  0  0  0  0  0  0  0  0  0  0
   19.2930  -32.5410   36.9320 C   0  0  0  0  0  0  0  0  0  0  0  0
   19.3180  -32.4630   35.5660 O   0  0  0  0  0  0  0  0  0  0  0  0
   20.0080  -31.6720   37.7610 C   0  0  0  0  0  0  0  0  0  0  0  0
   20.8450  -30.6020   37.2150 C   0  0  0  0  0  0  0  0  0  0  0  0
   20.9650  -30.4210   36.0050 O   0  0  0  0  0  0  0  0  0  0  0  0
   21.5570  -29.7320   38.1790 C   0  0  0  0  0  0  0  0  0  0  0  0
   22.3560  -28.7330   37.6530 O   0  0  0  0  0  0  0  0  0  0  0  0
   21.6610  -27.8740   40.8630 C   0  0  0  0  0  0  0  0  0  0  0  0
   22.2990  -27.1510   41.8730 C   0  0  0  0  0  0  0  0  0  0  0  0
   23.3550  -27.7130   42.6060 C   0  0  0  0  0  0  0  0  0  0  0  0
   24.0130  -26.8950   43.6840 C   0  0  0  0  0  0  0  0  0  0  0  0
   25.9292  -31.3787   43.6665 H   0  0  0  0  0  0  0  0  0  0  0  0
   24.3462  -31.6555   42.6431 H   0  0  0  0  0  0  0  0  0  0  0  0
   25.6328  -28.9925   43.5094 H   0  0  0  0  0  0  0  0  0  0  0  0
   23.4543  -30.7603   41.0487 H   0  0  0  0  0  0  0  0  0  0  0  0
   19.0940  -32.9268   40.7970 H   0  0  0  0  0  0  0  0  0  0  0  0
   17.8156  -34.4788   39.3186 H   0  0  0  0  0  0  0  0  0  0  0  0
   17.9449  -34.2301   36.8371 H   0  0  0  0  0  0  0  0  0  0  0  0
   18.7150  -32.9680   35.0560 H   0  0  0  0  0  0  0  0  0  0  0  0
   22.0180  -27.8650   37.5580 H   0  0  0  0  0  0  0  0  0  0  0  0
   20.8271  -27.4169   40.3101 H   0  0  0  0  0  0  0  0  0  0  0  0
   21.9688  -26.1259   42.0972 H   0  0  0  0  0  0  0  0  0  0  0  0
   23.7076  -27.2746   44.6702 H   0  0  0  0  0  0  0  0  0  0  0  0
   25.1060  -26.9691   43.5849 H   0  0  0  0  0  0  0  0  0  0  0  0
   23.7064  -25.8433   43.5849 H   0  0  0  0  0  0  0  0  0  0  0  0
  1  2  2  0
  2  3  1  0
  3  4  2  0
  4  5  1  0
  5  6  1  0
  6  7  1  0
  7  8  1  0
  8  9  2  0
  9 10  1  0
 10 11  2  0
 11 12  1  0
 12 13  1  0
 12 14  2  0
 14 15  1  0
 15 16  2  0
 15 17  1  0
 17 18  1  0
  5 19  2  0
 19 20  1  0
 20 21  2  0
 21 22  1  0
 21  3  1  0
 17  6  2  0
 14  8  1  0
  1 23  1  0
  1 24  1  0
  2 25  1  0
  4 26  1  0
  9 27  1  0
 10 28  1  0
 11 29  1  0
 13 30  1  0
 18 31  1  0
 19 32  1  0
 20 33  1  0
 22 34  1  0
 22 35  1  0
 22 36  1  0
M  END
>  <meeko>  (1) 
{"is_sidechain": [false], "free_energy": -9.431, "intermolecular_energy": -11.085, "internal_energy": -0.44}

$$$$
cand_031_out
     RDKit          3D

 36 38  0  0  0  0  0  0  0  0999 V2000
   24.1490  -29.6730   42.4340 C   0  0  0  0  0  0  0  0  0  0  0  0
   23.5560  -28.4770   42.3350 C   0  0  0  0  0  0  0  0  0  0  0  0
   22.4770  -28.1840   41.3790 C   0  0  0  0  0  0  0  0  0  0  0  0
   21.9930  -29.2090   40.5460 C   0  0  0  0  0  0  0  0  0  0  0  0
   20.9900  -28.9710   39.5940 C   0  0  0  0  0  0  0  0  0  0  0  0
   20.4900  -30.0850   38.7600 C   0  0  0  0  0  0  0  0  0  0  0  0
   19.9170  -31.1050   39.5100 O   0  0  0  0  0  0  0  0  0  0  0  0
   19.4120  -32.2040   38.8620 C   0  0  0  0  0  0  0  0  0  0  0  0
   18.8350  -33.1970   39.6530 C   0  0  0  0  0  0  0  0  0  0  0  0
   18.3030  -34.3420   39.0550 C   0  0  0  0  0  0  0  0  0  0  0  0
   18.3500  -34.4930   37.6680 C   0  0  0  0  0  0  0  0  0  0  0  0
   18.9270  -33.5000   36.8810 C   0  0  0  0  0  0  0  0  0  0  0  0
   18.9400  -33.7140   35.5300 O   0  0  0  0  0  0  0  0  0  0  0  0
   19.4580  -32.3550   37.4800 C   0  0  0  0  0  0  0  0  0  0  0  0
   20.0730  -31.2880   36.6890 C   0  0  0  0  0  0  0  0  0  0  0  0
   20.1590  -31.3510   35.4640 O   0  0  0  0  0  0  0  0  0  0  0  0
   20.6000  -30.1120   37.4190 C   0  0  0  0  0  0  0  0  0  0  0  0
   21.1920  -29.1160   36.6640 O   0  0  0  0  0  0  0  0  0  0  0  0
   20.4660  -27.6790   39.4890 C   0  0  0  0  0  0  0  0  0  0  0  0
   20.9430  -26.6480   40.3010 C   0  0  0  0  0  0  0  0  0  0  0  0
   21.9490  -26.8850   41.2510 C   0  0  0  0  0  0  0  0  0  0  0  0
   22.4330  -25.7420   42.1020 C   0  0  0  0  0  0  0  0  0  0  0  0
   24.9513  -29.8299   43.1700 H   0  0  0  0  0  0  0  0  0  0  0  0
   23.8340  -30.4990   41.7794 H   0  0  0  0  0  0  0  0  0  0  0  0
   23.8932  -27.6711   43.0035 H   0  0  0  0  0  0  0  0  0  0  0  0
   22.4110  -30.2218   40.6433 H   0  0  0  0  0  0  0  0  0  0  0  0
   18.7988  -33.0789   40.7460 H   0  0  0  0  0  0  0  0  0  0  0  0
   17.8466  -35.1255   39.6778 H   0  0  0  0  0  0  0  0  0  0  0  0
   17.9318  -35.3951   37.1976 H   0  0  0  0  0  0  0  0  0  0  0  0
   18.7460  -33.0110   34.9420 H   0  0  0  0  0  0  0  0  0  0  0  0
   21.0520  -28.2160   36.8830 H   0  0  0  0  0  0  0  0  0  0  0  0
   19.6695  -27.4725   38.7590 H   0  0  0  0  0  0  0  0  0  0  0  0
   20.5247  -25.6362   40.1948 H   0  0  0  0  0  0  0  0  0  0  0  0
   22.3223  -26.0035   43.1647 H   0  0  0  0  0  0  0  0  0  0  0  0
   23.4923  -25.5437   41.8817 H   0  0  0  0  0  0  0  0  0  0  0  0
   21.8382  -24.8433   41.8817 H   0  0  0  0  0  0  0  0  0  0  0  0
  1  2  2  0
  2  3  1  0
  3  4  2  0
  4  5  1  0
  5  6  1  0
  6  7  1  0
  7  8  1  0
  8  9  2  0
  9 10  1  0
 10 11  2  0
 11 12  1  0
 12 13  1  0
 12 14  2  0
 14 15  1  0
 15 16  2  0
 15 17  1  0
 17 18  1  0
  5 19  2  0
 19 20  1  0
 20 21  2  0
 21 22  1  0
 21  3  1  0
 17  6  2  0
 14  8  1  0
  1 23  1  0
  1 24  1  0
  2 25  1  0
  4 26  1  0
  9 27  1  0
 10 28  1  0
 11 29  1  0
 13 30  1  0
 18 31  1  0
 19 32  1  0
 20 33  1  0
 22 34  1  0
 22 35  1  0
 22 36  1  0
M  END
>  <meeko>  (2) 
{"is_sidechain": [false], "free_energy": -9.048, "intermolecular_energy": -10.706, "internal_energy": -0.369}

$$$$
cand_031_out
     RDKit          3D

 36 38  0  0  0  0  0  0  0  0999 V2000
   19.7070  -26.2620   42.6070 C   0  0  0  0  0  0  0  0  0  0  0  0
   20.7780  -26.2520   41.8040 C   0  0  0  0  0  0  0  0  0  0  0  0
   21.5070  -27.4680   41.4110 C   0  0  0  0  0  0  0  0  0  0  0  0
   20.9310  -28.3480   40.4760 C   0  0  0  0  0  0  0  0  0  0  0  0
   21.5710  -29.5370   40.0940 C   0  0  0  0  0  0  0  0  0  0  0  0
   20.9440  -30.4180   39.0860 C   0  0  0  0  0  0  0  0  0  0  0  0
   20.2800  -31.5000   39.6540 O   0  0  0  0  0  0  0  0  0  0  0  0
   19.6530  -32.4000   38.8310 C   0  0  0  0  0  0  0  0  0  0  0  0
   18.9890  -33.4640   39.4420 C   0  0  0  0  0  0  0  0  0  0  0  0
   18.3310  -34.4160   38.6620 C   0  0  0  0  0  0  0  0  0  0  0  0
   18.3380  -34.3060   37.2700 C   0  0  0  0  0  0  0  0  0  0  0  0
   19.0030  -33.2450   36.6610 C   0  0  0  0  0  0  0  0  0  0  0  0
   18.9700  -33.1990   35.2940 O   0  0  0  0  0  0  0  0  0  0  0  0
   19.6600  -32.2910   37.4430 C   0  0  0  0  0  0  0  0  0  0  0  0
   20.3690  -31.1600   36.8430 C   0  0  0  0  0  0  0  0  0  0  0  0
   20.4270  -30.9990   35.6260 O   0  0  0  0  0  0  0  0  0  0  0  0
   21.0280  -30.2020   37.7600 C   0  0  0  0  0  0  0  0  0  0  0  0
   21.7080  -29.1450   37.1830 O   0  0  0  0  0  0  0  0  0  0  0  0
   22.8140  -29.8350   40.6620 C   0  0  0  0  0  0  0  0  0  0  0  0
   23.3930  -28.9780   41.5990 C   0  0  0  0  0  0  0  0  0  0  0  0
   22.7530  -27.7900   41.9840 C   0  0  0  0  0  0  0  0  0  0  0  0
   23.4150  -26.8980   43.0000 C   0  0  0  0  0  0  0  0  0  0  0  0
   19.2041  -25.3183   42.8649 H   0  0  0  0  0  0  0  0  0  0  0  0
   19.3298  -27.2139   43.0089 H   0  0  0  0  0  0  0  0  0  0  0  0
   21.1313  -25.2845   41.4180 H   0  0  0  0  0  0  0  0  0  0  0  0
   19.9554  -28.0978   40.0338 H   0  0  0  0  0  0  0  0  0  0  0  0
   18.9841  -33.5526   40.5384 H   0  0  0  0  0  0  0  0  0  0  0  0
   17.8063  -35.2539   39.1443 H   0  0  0  0  0  0  0  0  0  0  0  0
   17.8190  -35.0563   36.6555 H   0  0  0  0  0  0  0  0  0  0  0  0
   19.0970  -33.9820   34.7950 H   0  0  0  0  0  0  0  0  0  0  0  0
   22.0170  -29.2130   36.3010 H   0  0  0  0  0  0  0  0  0  0  0  0
   23.3407  -30.7545   40.3670 H   0  0  0  0  0  0  0  0  0  0  0  0
   24.3656  -29.2377   42.0424 H   0  0  0  0  0  0  0  0  0  0  0  0
   23.1591  -27.2428   44.0127 H   0  0  0  0  0  0  0  0  0  0  0  0
   24.5060  -26.9350   42.8648 H   0  0  0  0  0  0  0  0  0  0  0  0
   23.0636  -25.8644   42.8648 H   0  0  0  0  0  0  0  0  0  0  0  0
  1  2  2  0
  2  3  1  0
  3  4  2  0
  4  5  1  0
  5  6  1  0
  6  7  1  0
  7  8  1  0
  8  9  2  0
  9 10  1  0
 10 11  2  0
 11 12  1  0
 12 13  1  0
 12 14  2  0
 14 15  1  0
 15 16  2  0
 15 17  1  0
 17 18  1  0
  5 19  2  0
 19 20  1  0
 20 21  2  0
 21 22  1  0
 21  3  1  0
 17  6  2  0
 14  8  1  0
  1 23  1  0
  1 24  1  0
  2 25  1  0
  4 26  1  0
  9 27  1  0
 10 28  1  0
 11 29  1  0
 13 30  1  0
 18 31  1  0
 19 32  1  0
 20 33  1  0
 22 34  1  0
 22 35  1  0
 22 36  1  0
M  END
>  <meeko>  (3) 
{"is_sidechain": [false], "free_energy": -9.044, "intermolecular_energy": -10.588, "internal_energy": -0.482}

$$$$
cand_031_out
     RDKit          3D

 36 38  0  0  0  0  0  0  0  0999 V2000
   18.8690  -33.2230   39.7510 C   0  0  0  0  0  0  0  0  0  0  0  0
   18.6150  -32.0950   39.0760 C   0  0  0  0  0  0  0  0  0  0  0  0
   19.6610  -31.1540   38.6480 C   0  0  0  0  0  0  0  0  0  0  0  0
   20.1370  -30.1890   39.5540 C   0  0  0  0  0  0  0  0  0  0  0  0
   21.1090  -29.2470   39.1830 C   0  0  0  0  0  0  0  0  0  0  0  0
   21.6030  -28.2700   40.1770 C   0  0  0  0  0  0  0  0  0  0  0  0
   22.4390  -28.8440   41.1270 O   0  0  0  0  0  0  0  0  0  0  0  0
   22.9680  -28.0490   42.1120 C   0  0  0  0  0  0  0  0  0  0  0  0
   23.8130  -28.6630   43.0380 C   0  0  0  0  0  0  0  0  0  0  0  0
   24.3840  -27.9110   44.0660 C   0  0  0  0  0  0  0  0  0  0  0  0
   24.1090  -26.5460   44.1700 C   0  0  0  0  0  0  0  0  0  0  0  0
   23.2660  -25.9360   43.2460 C   0  0  0  0  0  0  0  0  0  0  0  0
   23.0400  -24.5960   43.4080 O   0  0  0  0  0  0  0  0  0  0  0  0
   22.6950  -26.6890   42.2170 C   0  0  0  0  0  0  0  0  0  0  0  0
   21.8040  -26.0860   41.2240 C   0  0  0  0  0  0  0  0  0  0  0  0
   21.5090  -24.8930   41.2530 O   0  0  0  0  0  0  0  0  0  0  0  0
   21.2570  -26.9690   40.1690 C   0  0  0  0  0  0  0  0  0  0  0  0
   20.4040  -26.3930   39.2460 O   0  0  0  0  0  0  0  0  0  0  0  0
   21.6100  -29.2880   37.8780 C   0  0  0  0  0  0  0  0  0  0  0  0
   21.1400  -30.2330   36.9640 C   0  0  0  0  0  0  0  0  0  0  0  0
   20.1660  -31.1730   37.3330 C   0  0  0  0  0  0  0  0  0  0  0  0
   19.6880  -32.1700   36.3120 C   0  0  0  0  0  0  0  0  0  0  0  0
   18.0422  -33.8870   40.0435 H   0  0  0  0  0  0  0  0  0  0  0  0
   19.9045  -33.4858   40.0131 H   0  0  0  0  0  0  0  0  0  0  0  0
   17.5693  -31.8598   38.8286 H   0  0  0  0  0  0  0  0  0  0  0  0
   19.7375  -30.1722   40.5787 H   0  0  0  0  0  0  0  0  0  0  0  0
   24.0287  -29.7386   42.9576 H   0  0  0  0  0  0  0  0  0  0  0  0
   25.0513  -28.3942   44.7949 H   0  0  0  0  0  0  0  0  0  0  0  0
   24.5580  -25.9538   44.9810 H   0  0  0  0  0  0  0  0  0  0  0  0
   23.2210  -24.0010   42.7070 H   0  0  0  0  0  0  0  0  0  0  0  0
   19.6450  -25.9270   39.5370 H   0  0  0  0  0  0  0  0  0  0  0  0
   22.3822  -28.5684   37.5685 H   0  0  0  0  0  0  0  0  0  0  0  0
   21.5394  -30.2407   35.9391 H   0  0  0  0  0  0  0  0  0  0  0  0
   19.2674  -33.0473   36.8252 H   0  0  0  0  0  0  0  0  0  0  0  0
   18.9138  -31.7074   35.6823 H   0  0  0  0  0  0  0  0  0  0  0  0
   20.5335  -32.4840   35.6823 H   0  0  0  0  0  0  0  0  0  0  0  0
  1  2  2  0
  2  3  1  0
  3  4  2  0
  4  5  1  0
  5  6  1  0
  6  7  1  0
  7  8  1  0
  8  9  2  0
  9 10  1  0
 10 11  2  0
 11 12  1  0
 12 13  1  0
 12 14  2  0
 14 15  1  0
 15 16  2  0
 15 17  1  0
 17 18  1  0
  5 19  2  0
 19 20  1  0
 20 21  2  0
 21 22  1  0
 21  3  1  0
 17  6  2  0
 14  8  1  0
  1 23  1  0
  1 24  1  0
  2 25  1  0
  4 26  1  0
  9 27  1  0
 10 28  1  0
 11 29  1  0
 13 30  1  0
 18 31  1  0
 19 32  1  0
 20 33  1  0
 22 34  1  0
 22 35  1  0
 22 36  1  0
M  END
>  <meeko>  (4) 
{"is_sidechain": [false], "free_energy": -8.839, "intermolecular_energy": -10.382, "internal_energy": -0.447}

$$$$
cand_031_out
     RDKit          3D

 36 38  0  0  0  0  0  0  0  0999 V2000
   24.6810  -28.8940   44.2580 C   0  0  0  0  0  0  0  0  0  0  0  0
   24.3540  -27.6690   43.8290 C   0  0  0  0  0  0  0  0  0  0  0  0
   23.0600  -27.3460   43.2080 C   0  0  0  0  0  0  0  0  0  0  0  0
   22.6970  -27.9700   42.0000 C   0  0  0  0  0  0  0  0  0  0  0  0
   21.4900  -27.6690   41.3510 C   0  0  0  0  0  0  0  0  0  0  0  0
   21.1350  -28.3700   40.0980 C   0  0  0  0  0  0  0  0  0  0  0  0
   20.7540  -29.6900   40.3090 O   0  0  0  0  0  0  0  0  0  0  0  0
   20.4000  -30.4590   39.2290 C   0  0  0  0  0  0  0  0  0  0  0  0
   20.0110  -31.7740   39.4870 C   0  0  0  0  0  0  0  0  0  0  0  0
   19.6400  -32.6100   38.4320 C   0  0  0  0  0  0  0  0  0  0  0  0
   19.6570  -32.1320   37.1210 C   0  0  0  0  0  0  0  0  0  0  0  0
   20.0450  -30.8200   36.8660 C   0  0  0  0  0  0  0  0  0  0  0  0
   20.0400  -30.4180   35.5580 O   0  0  0  0  0  0  0  0  0  0  0  0
   20.4170  -29.9830   37.9220 C   0  0  0  0  0  0  0  0  0  0  0  0
   20.8310  -28.5970   37.6970 C   0  0  0  0  0  0  0  0  0  0  0  0
   20.8790  -28.1060   36.5710 O   0  0  0  0  0  0  0  0  0  0  0  0
   21.1980  -27.7920   38.8850 C   0  0  0  0  0  0  0  0  0  0  0  0
   21.6020  -26.4890   38.6600 O   0  0  0  0  0  0  0  0  0  0  0  0
   20.6350  -26.7310   41.9380 C   0  0  0  0  0  0  0  0  0  0  0  0
   20.9860  -26.0960   43.1310 C   0  0  0  0  0  0  0  0  0  0  0  0
   22.1940  -26.3930   43.7790 C   0  0  0  0  0  0  0  0  0  0  0  0
   22.5300  -25.6810   45.0620 C   0  0  0  0  0  0  0  0  0  0  0  0
   25.6658  -29.0722   44.7145 H   0  0  0  0  0  0  0  0  0  0  0  0
   23.9649  -29.7225   44.1540 H   0  0  0  0  0  0  0  0  0  0  0  0
   25.0915  -26.8614   43.9469 H   0  0  0  0  0  0  0  0  0  0  0  0
   23.3759  -28.7116   41.5538 H   0  0  0  0  0  0  0  0  0  0  0  0
   19.9966  -32.1515   40.5201 H   0  0  0  0  0  0  0  0  0  0  0  0
   19.3339  -33.6469   38.6345 H   0  0  0  0  0  0  0  0  0  0  0  0
   19.3642  -32.7912   36.2905 H   0  0  0  0  0  0  0  0  0  0  0  0
   19.6690  -30.9700   34.8990 H   0  0  0  0  0  0  0  0  0  0  0  0
   22.1110  -26.2800   37.9010 H   0  0  0  0  0  0  0  0  0  0  0  0
   19.6763  -26.4910   41.4551 H   0  0  0  0  0  0  0  0  0  0  0  0
   20.3049  -25.3516   43.5692 H   0  0  0  0  0  0  0  0  0  0  0  0
   22.2346  -26.3070   45.9169 H   0  0  0  0  0  0  0  0  0  0  0  0
   23.6127  -25.4912   45.1033 H   0  0  0  0  0  0  0  0  0  0  0  0
   21.9882  -24.7246   45.1033 H   0  0  0  0  0  0  0  0  0  0  0  0
  1  2  2  0
  2  3  1  0
  3  4  2  0
  4  5  1  0
  5  6  1  0
  6  7  1  0
  7  8  1  0
  8  9  2  0
  9 10  1  0
 10 11  2  0
 11 12  1  0
 12 13  1  0
 12 14  2  0
 14 15  1  0
 15 16  2  0
 15 17  1  0
 17 18  1  0
  5 19  2  0
 19 20  1  0
 20 21  2  0
 21 22  1  0
 21  3  1  0
 17  6  2  0
 14  8  1  0
  1 23  1  0
  1 24  1  0
  2 25  1  0
  4 26  1  0
  9 27  1  0
 10 28  1  0
 11 29  1  0
 13 30  1  0
 18 31  1  0
 19 32  1  0
 20 33  1  0
 22 34  1  0
 22 35  1  0
 22 36  1  0
M  END
>  <meeko>  (5) 
{"is_sidechain": [false], "free_energy": -8.67, "intermolecular_energy": -10.169, "internal_energy": -0.461}

$$$$
cand_031_out
     RDKit          3D

 36 38  0  0  0  0  0  0  0  0999 V2000
   23.6480  -29.8790   41.6390 C   0  0  0  0  0  0  0  0  0  0  0  0
   22.9960  -28.7580   41.3070 C   0  0  0  0  0  0  0  0  0  0  0  0
   21.7310  -28.7480   40.5560 C   0  0  0  0  0  0  0  0  0  0  0  0
   21.4440  -29.8040   39.6720 C   0  0  0  0  0  0  0  0  0  0  0  0
   20.2670  -29.8240   38.9070 C   0  0  0  0  0  0  0  0  0  0  0  0
   19.9920  -30.9680   38.0120 C   0  0  0  0  0  0  0  0  0  0  0  0
   20.3630  -30.7240   36.6950 O   0  0  0  0  0  0  0  0  0  0  0  0
   20.1610  -31.7030   35.7560 C   0  0  0  0  0  0  0  0  0  0  0  0
   20.5600  -31.4210   34.4490 C   0  0  0  0  0  0  0  0  0  0  0  0
   20.3820  -32.3750   33.4440 C   0  0  0  0  0  0  0  0  0  0  0  0
   19.8040  -33.6090   33.7460 C   0  0  0  0  0  0  0  0  0  0  0  0
   19.4060  -33.8880   35.0510 C   0  0  0  0  0  0  0  0  0  0  0  0
   18.8470  -35.1170   35.2760 O   0  0  0  0  0  0  0  0  0  0  0  0
   19.5850  -32.9340   36.0560 C   0  0  0  0  0  0  0  0  0  0  0  0
   19.1820  -33.1880   37.4400 C   0  0  0  0  0  0  0  0  0  0  0  0
   18.6600  -34.2470   37.7820 O   0  0  0  0  0  0  0  0  0  0  0  0
   19.4210  -32.1130   38.4300 C   0  0  0  0  0  0  0  0  0  0  0  0
   19.0230  -32.3570   39.7320 O   0  0  0  0  0  0  0  0  0  0  0  0
   19.3670  -28.7630   39.0450 C   0  0  0  0  0  0  0  0  0  0  0  0
   19.6430  -27.7030   39.9110 C   0  0  0  0  0  0  0  0  0  0  0  0
   20.8200  -27.6810   40.6730 C   0  0  0  0  0  0  0  0  0  0  0  0
   21.0760  -26.5150   41.5910 C   0  0  0  0  0  0  0  0  0  0  0  0
   24.5911  -29.8205   42.2022 H   0  0  0  0  0  0  0  0  0  0  0  0
   23.2407  -30.8587   41.3487 H   0  0  0  0  0  0  0  0  0  0  0  0
   23.4288  -27.7937   41.6117 H   0  0  0  0  0  0  0  0  0  0  0  0
   22.1593  -30.6344   39.5779 H   0  0  0  0  0  0  0  0  0  0  0  0
   21.0144  -30.4482   34.2101 H   0  0  0  0  0  0  0  0  0  0  0  0
   20.6977  -32.1534   32.4138 H   0  0  0  0  0  0  0  0  0  0  0  0
   19.6631  -34.3599   32.9546 H   0  0  0  0  0  0  0  0  0  0  0  0
   18.0970  -35.1960   35.8320 H   0  0  0  0  0  0  0  0  0  0  0  0
   19.4040  -31.8720   40.4370 H   0  0  0  0  0  0  0  0  0  0  0  0
   18.4320  -28.7633   38.4655 H   0  0  0  0  0  0  0  0  0  0  0  0
   18.9265  -26.8728   39.9968 H   0  0  0  0  0  0  0  0  0  0  0  0
   21.0028  -26.8486   42.6366 H   0  0  0  0  0  0  0  0  0  0  0  0
   22.0834  -26.1150   41.4035 H   0  0  0  0  0  0  0  0  0  0  0  0
   20.3289  -25.7297   41.4035 H   0  0  0  0  0  0  0  0  0  0  0  0
  1  2  2  0
  2  3  1  0
  3  4  2  0
  4  5  1  0
  5  6  1  0
  6  7  1  0
  7  8  1  0
  8  9  2  0
  9 10  1  0
 10 11  2  0
 11 12  1  0
 12 13  1  0
 12 14  2  0
 14 15  1  0
 15 16  2  0
 15 17  1  0
 17 18  1  0
  5 19  2  0
 19 20  1  0
 20 21  2  0
 21 22  1  0
 21  3  1  0
 17  6  2  0
 14  8  1  0
  1 23  1  0
  1 24  1  0
  2 25  1  0
  4 26  1  0
  9 27  1  0
 10 28  1  0
 11 29  1  0
 13 30  1  0
 18 31  1  0
 19 32  1  0
 20 33  1  0
 22 34  1  0
 22 35  1  0
 22 36  1  0
M  END
>  <meeko>  (6) 
{"is_sidechain": [false], "free_energy": -8.613, "intermolecular_energy": -10.087, "internal_energy": -0.477}

$$$$
cand_031_out
     RDKit          3D

 36 38  0  0  0  0  0  0  0  0999 V2000
   19.1630  -32.7430   39.7470 C   0  0  0  0  0  0  0  0  0  0  0  0
   19.5740  -32.2050   38.5930 C   0  0  0  0  0  0  0  0  0  0  0  0
   20.3880  -30.9820   38.5130 C   0  0  0  0  0  0  0  0  0  0  0  0
   20.8060  -30.3510   39.6990 C   0  0  0  0  0  0  0  0  0  0  0  0
   21.5540  -29.1640   39.6770 C   0  0  0  0  0  0  0  0  0  0  0  0
   21.9970  -28.5500   40.9470 C   0  0  0  0  0  0  0  0  0  0  0  0
   21.2090  -27.4700   41.3270 O   0  0  0  0  0  0  0  0  0  0  0  0
   21.5110  -26.8050   42.4880 C   0  0  0  0  0  0  0  0  0  0  0  0
   20.6870  -25.7350   42.8390 C   0  0  0  0  0  0  0  0  0  0  0  0
   20.9390  -25.0150   44.0090 C   0  0  0  0  0  0  0  0  0  0  0  0
   22.0150  -25.3640   44.8270 C   0  0  0  0  0  0  0  0  0  0  0  0
   22.8360  -26.4320   44.4750 C   0  0  0  0  0  0  0  0  0  0  0  0
   23.8720  -26.7190   45.3210 O   0  0  0  0  0  0  0  0  0  0  0  0
   22.5830  -27.1520   43.3040 C   0  0  0  0  0  0  0  0  0  0  0  0
   23.4210  -28.2820   42.8990 C   0  0  0  0  0  0  0  0  0  0  0  0
   24.3900  -28.6450   43.5620 O   0  0  0  0  0  0  0  0  0  0  0  0
   23.0630  -28.9830   41.6440 C   0  0  0  0  0  0  0  0  0  0  0  0
   23.8700  -30.0390   41.2620 O   0  0  0  0  0  0  0  0  0  0  0  0
   21.8890  -28.6130   38.4360 C   0  0  0  0  0  0  0  0  0  0  0  0
   21.4730  -29.2220   37.2500 C   0  0  0  0  0  0  0  0  0  0  0  0
   20.7220  -30.4070   37.2720 C   0  0  0  0  0  0  0  0  0  0  0  0
   20.2940  -31.0250   35.9680 C   0  0  0  0  0  0  0  0  0  0  0  0
   18.5557  -33.6601   39.7408 H   0  0  0  0  0  0  0  0  0  0  0  0
   19.4324  -32.2682   40.7020 H   0  0  0  0  0  0  0  0  0  0  0  0
   19.2883  -32.7032   37.6548 H   0  0  0  0  0  0  0  0  0  0  0  0
   20.5398  -30.7993   40.6676 H   0  0  0  0  0  0  0  0  0  0  0  0
   19.8394  -25.4587   42.1946 H   0  0  0  0  0  0  0  0  0  0  0  0
   20.2889  -24.1721   44.2862 H   0  0  0  0  0  0  0  0  0  0  0  0
   22.2139  -24.7963   45.7480 H   0  0  0  0  0  0  0  0  0  0  0  0
   24.3760  -26.0250   45.6990 H   0  0  0  0  0  0  0  0  0  0  0  0
   24.7590  -30.0790   41.5560 H   0  0  0  0  0  0  0  0  0  0  0  0
   22.4864  -27.6903   38.3936 H   0  0  0  0  0  0  0  0  0  0  0  0
   21.7380  -28.7660   36.2846 H   0  0  0  0  0  0  0  0  0  0  0  0
   19.6782  -31.9142   36.1683 H   0  0  0  0  0  0  0  0  0  0  0  0
   19.7071  -30.2949   35.3914 H   0  0  0  0  0  0  0  0  0  0  0  0
   21.1839  -31.3176   35.3914 H   0  0  0  0  0  0  0  0  0  0  0  0
  1  2  2  0
  2  3  1  0
  3  4  2  0
  4  5  1  0
  5  6  1  0
  6  7  1  0
  7  8  1  0
  8  9  2  0
  9 10  1  0
 10 11  2  0
 11 12  1  0
 12 13  1  0
 12 14  2  0
 14 15  1  0
 15 16  2  0
 15 17  1  0
 17 18  1  0
  5 19  2  0
 19 20  1  0
 20 21  2  0
 21 22  1  0
 21  3  1  0
 17  6  2  0
 14  8  1  0
  1 23  1  0
  1 24  1  0
  2 25  1  0
  4 26  1  0
  9 27  1  0
 10 28  1  0
 11 29  1  0
 13 30  1  0
 18 31  1  0
 19 32  1  0
 20 33  1  0
 22 34  1  0
 22 35  1  0
 22 36  1  0
M  END
>  <meeko>  (7) 
{"is_sidechain": [false], "free_energy": -8.565, "intermolecular_energy": -10.043, "internal_energy": -0.464}

$$$$
cand_031_out
     RDKit          3D

 36 38  0  0  0  0  0  0  0  0999 V2000
   18.0290  -26.2810   39.1610 C   0  0  0  0  0  0  0  0  0  0  0  0
   18.8330  -26.6970   40.1480 C   0  0  0  0  0  0  0  0  0  0  0  0
   19.8290  -27.7670   39.9840 C   0  0  0  0  0  0  0  0  0  0  0  0
   19.5480  -28.8480   39.1290 C   0  0  0  0  0  0  0  0  0  0  0  0
   20.4510  -29.9110   38.9670 C   0  0  0  0  0  0  0  0  0  0  0  0
   20.1280  -31.0130   38.0350 C   0  0  0  0  0  0  0  0  0  0  0  0
   20.4880  -30.7310   36.7220 O   0  0  0  0  0  0  0  0  0  0  0  0
   20.2430  -31.6680   35.7510 C   0  0  0  0  0  0  0  0  0  0  0  0
   20.6320  -31.3500   34.4490 C   0  0  0  0  0  0  0  0  0  0  0  0
   20.4100  -32.2600   33.4130 C   0  0  0  0  0  0  0  0  0  0  0  0
   19.8000  -33.4870   33.6790 C   0  0  0  0  0  0  0  0  0  0  0  0
   19.4120  -33.8020   34.9780 C   0  0  0  0  0  0  0  0  0  0  0  0
   18.8190  -35.0210   35.1660 O   0  0  0  0  0  0  0  0  0  0  0  0
   19.6350  -32.8920   36.0140 C   0  0  0  0  0  0  0  0  0  0  0  0
   19.2430  -33.1850   37.3940 C   0  0  0  0  0  0  0  0  0  0  0  0
   18.6950  -34.2400   37.7060 O   0  0  0  0  0  0  0  0  0  0  0  0
   19.5290  -32.1550   38.4200 C   0  0  0  0  0  0  0  0  0  0  0  0
   19.1420  -32.4350   39.7170 O   0  0  0  0  0  0  0  0  0  0  0  0
   21.6560  -29.8740   39.6740 C   0  0  0  0  0  0  0  0  0  0  0  0
   21.9450  -28.8130   40.5350 C   0  0  0  0  0  0  0  0  0  0  0  0
   21.0420  -27.7520   40.7010 C   0  0  0  0  0  0  0  0  0  0  0  0
   21.3950  -26.6310   41.6410 C   0  0  0  0  0  0  0  0  0  0  0  0
   17.3032  -25.4753   39.3455 H   0  0  0  0  0  0  0  0  0  0  0  0
   18.0944  -26.7450   38.1658 H   0  0  0  0  0  0  0  0  0  0  0  0
   18.7440  -26.2136   41.1321 H   0  0  0  0  0  0  0  0  0  0  0  0
   18.5983  -28.8609   38.5741 H   0  0  0  0  0  0  0  0  0  0  0  0
   21.1131  -30.3834   34.2389 H   0  0  0  0  0  0  0  0  0  0  0  0
   20.7161  -32.0096   32.3866 H   0  0  0  0  0  0  0  0  0  0  0  0
   19.6262  -34.2040   32.8631 H   0  0  0  0  0  0  0  0  0  0  0  0
   18.6810  -35.5930   34.4380 H   0  0  0  0  0  0  0  0  0  0  0  0
   19.1690  -33.3170   40.0340 H   0  0  0  0  0  0  0  0  0  0  0  0
   22.3844  -30.6890   39.5510 H   0  0  0  0  0  0  0  0  0  0  0  0
   22.8942  -28.8091   41.0910 H   0  0  0  0  0  0  0  0  0  0  0  0
   21.2864  -26.9757   42.6799 H   0  0  0  0  0  0  0  0  0  0  0  0
   22.4350  -26.3187   41.4651 H   0  0  0  0  0  0  0  0  0  0  0  0
   20.7216  -25.7792   41.4651 H   0  0  0  0  0  0  0  0  0  0  0  0
  1  2  2  0
  2  3  1  0
  3  4  2  0
  4  5  1  0
  5  6  1  0
  6  7  1  0
  7  8  1  0
  8  9  2  0
  9 10  1  0
 10 11  2  0
 11 12  1  0
 12 13  1  0
 12 14  2  0
 14 15  1  0
 15 16  2  0
 15 17  1  0
 17 18  1  0
  5 19  2  0
 19 20  1  0
 20 21  2  0
 21 22  1  0
 21  3  1  0
 17  6  2  0
 14  8  1  0
  1 23  1  0
  1 24  1  0
  2 25  1  0
  4 26  1  0
  9 27  1  0
 10 28  1  0
 11 29  1  0
 13 30  1  0
 18 31  1  0
 19 32  1  0
 20 33  1  0
 22 34  1  0
 22 35  1  0
 22 36  1  0
M  END
>  <meeko>  (8) 
{"is_sidechain": [false], "free_energy": -8.214, "intermolecular_energy": -9.608, "internal_energy": -0.487}

$$$$
cand_031_out
     RDKit          3D

 36 38  0  0  0  0  0  0  0  0999 V2000
   19.6730  -23.9260   42.9930 C   0  0  0  0  0  0  0  0  0  0  0  0
   19.9670  -25.0910   43.5830 C   0  0  0  0  0  0  0  0  0  0  0  0
   20.9260  -26.0600   43.0310 C   0  0  0  0  0  0  0  0  0  0  0  0
   20.6090  -26.7480   41.8450 C   0  0  0  0  0  0  0  0  0  0  0  0
   21.4760  -27.7070   41.2970 C   0  0  0  0  0  0  0  0  0  0  0  0
   21.1160  -28.3850   40.0330 C   0  0  0  0  0  0  0  0  0  0  0  0
   20.7440  -29.7110   40.2200 O   0  0  0  0  0  0  0  0  0  0  0  0
   20.3870  -30.4610   39.1290 C   0  0  0  0  0  0  0  0  0  0  0  0
   20.0080  -31.7830   39.3630 C   0  0  0  0  0  0  0  0  0  0  0  0
   19.6340  -32.6000   38.2950 C   0  0  0  0  0  0  0  0  0  0  0  0
   19.6390  -32.0960   36.9930 C   0  0  0  0  0  0  0  0  0  0  0  0
   20.0180  -30.7770   36.7610 C   0  0  0  0  0  0  0  0  0  0  0  0
   20.0000  -30.3490   35.4620 O   0  0  0  0  0  0  0  0  0  0  0  0
   20.3920  -29.9590   37.8310 C   0  0  0  0  0  0  0  0  0  0  0  0
   20.7960  -28.5670   37.6310 C   0  0  0  0  0  0  0  0  0  0  0  0
   20.8330  -28.0530   36.5140 O   0  0  0  0  0  0  0  0  0  0  0  0
   21.1670  -27.7830   38.8310 C   0  0  0  0  0  0  0  0  0  0  0  0
   21.5620  -26.4730   38.6300 O   0  0  0  0  0  0  0  0  0  0  0  0
   22.6820  -27.9660   41.9560 C   0  0  0  0  0  0  0  0  0  0  0  0
   23.0060  -27.2990   43.1390 C   0  0  0  0  0  0  0  0  0  0  0  0
   22.1390  -26.3430   43.6890 C   0  0  0  0  0  0  0  0  0  0  0  0
   22.5300  -25.6510   44.9670 C   0  0  0  0  0  0  0  0  0  0  0  0
   18.9460  -23.2428   43.4564 H   0  0  0  0  0  0  0  0  0  0  0  0
   20.1584  -23.6518   42.0447 H   0  0  0  0  0  0  0  0  0  0  0  0
   19.4650  -25.3366   44.5305 H   0  0  0  0  0  0  0  0  0  0  0  0
   19.6592  -26.5293   41.3350 H   0  0  0  0  0  0  0  0  0  0  0  0
   20.0039  -32.1812   40.3884 H   0  0  0  0  0  0  0  0  0  0  0  0
   19.3349  -33.6424   38.4793 H   0  0  0  0  0  0  0  0  0  0  0  0
   19.3438  -32.7404   36.1518 H   0  0  0  0  0  0  0  0  0  0  0  0
   20.4220  -30.8550   34.7950 H   0  0  0  0  0  0  0  0  0  0  0  0
   21.5760  -26.1160   37.7630 H   0  0  0  0  0  0  0  0  0  0  0  0
   23.3830  -28.7033   41.5377 H   0  0  0  0  0  0  0  0  0  0  0  0
   23.9548  -27.5264   43.6471 H   0  0  0  0  0  0  0  0  0  0  0  0
   22.1920  -26.2491   45.8261 H   0  0  0  0  0  0  0  0  0  0  0  0
   23.6238  -25.5409   45.0045 H   0  0  0  0  0  0  0  0  0  0  0  0
   22.0599  -24.6572   45.0045 H   0  0  0  0  0  0  0  0  0  0  0  0
  1  2  2  0
  2  3  1  0
  3  4  2  0
  4  5  1  0
  5  6  1  0
  6  7  1  0
  7  8  1  0
  8  9  2  0
  9 10  1  0
 10 11  2  0
 11 12  1  0
 12 13  1  0
 12 14  2  0
 14 15  1  0
 15 16  2  0
 15 17  1  0
 17 18  1  0
  5 19  2  0
 19 20  1  0
 20 21  2  0
 21 22  1  0
 21  3  1  0
 17  6  2  0
 14  8  1  0
  1 23  1  0
  1 24  1  0
  2 25  1  0
  4 26  1  0
  9 27  1  0
 10 28  1  0
 11 29  1  0
 13 30  1  0
 18 31  1  0
 19 32  1  0
 20 33  1  0
 22 34  1  0
 22 35  1  0
 22 36  1  0
M  END
>  <meeko>  (9) 
{"is_sidechain": [false], "free_energy": -7.989, "intermolecular_energy": -9.393, "internal_energy": -0.437}

$$$$
