cand_040_out
     RDKit          3D

 36 38  0  0  0  0  0  0  0  0999 V2000
   24.1510  -25.8240   43.4740 C   0  0  0  0  0  0  0  0  0  0  0  0
   23.9390  -27.1430   43.5610 C   0  0  0  0  0  0  0  0  0  0  0  0
   23.3090  -27.9350   42.4950 C   0  0  0  0  0  0  0  0  0  0  0  0
   22.2370  -27.3920   41.7710 C   0  0  0  0  0  0  0  0  0  0  0  0
   21.6390  -28.1050   40.7280 C   0  0  0  0  0  0  0  0  0  0  0  0
   22.1060  -29.3760   40.3710 C   0  0  0  0  0  0  0  0  0  0  0  0
   21.4450  -30.1230   39.2810 C   0  0  0  0  0  0  0  0  0  0  0  0
   20.6680  -31.1800   39.7450 O   0  0  0  0  0  0  0  0  0  0  0  0
   19.9970  -31.9580   38.8370 C   0  0  0  0  0  0  0  0  0  0  0  0
   19.2430  -33.0170   39.3460 C   0  0  0  0  0  0  0  0  0  0  0  0
   18.5340  -33.8470   38.4760 C   0  0  0  0  0  0  0  0  0  0  0  0
   18.5790  -33.6200   37.0980 C   0  0  0  0  0  0  0  0  0  0  0  0
   19.3320  -32.5630   36.5940 C   0  0  0  0  0  0  0  0  0  0  0  0
   19.3310  -32.3970   35.2360 O   0  0  0  0  0  0  0  0  0  0  0  0
   20.0420  -31.7320   37.4650 C   0  0  0  0  0  0  0  0  0  0  0  0
   20.8460  -30.6110   36.9770 C   0  0  0  0  0  0  0  0  0  0  0  0
   20.9290  -30.3420   35.7800 O   0  0  0  0  0  0  0  0  0  0  0  0
   21.5670  -29.7960   37.9810 C   0  0  0  0  0  0  0  0  0  0  0  0
   22.3130  -28.7320   37.5110 O   0  0  0  0  0  0  0  0  0  0  0  0
   23.1770  -29.9190   41.0960 C   0  0  0  0  0  0  0  0  0  0  0  0
   23.7880  -29.2130   42.1520 C   0  0  0  0  0  0  0  0  0  0  0  0
   24.9410  -29.8510   42.8790 C   0  0  0  0  0  0  0  0  0  0  0  0
   24.6278  -25.2874   44.3075 H   0  0  0  0  0  0  0  0  0  0  0  0
   23.8483  -25.2768   42.5690 H   0  0  0  0  0  0  0  0  0  0  0  0
   24.2529  -27.6616   44.4789 H   0  0  0  0  0  0  0  0  0  0  0  0
   21.8616  -26.3905   42.0279 H   0  0  0  0  0  0  0  0  0  0  0  0
   20.7926  -27.6630   40.1819 H   0  0  0  0  0  0  0  0  0  0  0  0
   19.2077  -33.1970   40.4306 H   0  0  0  0  0  0  0  0  0  0  0  0
   17.9388  -34.6812   38.8759 H   0  0  0  0  0  0  0  0  0  0  0  0
   18.0207  -34.2750   36.4129 H   0  0  0  0  0  0  0  0  0  0  0  0
   20.0460  -32.7190   34.7230 H   0  0  0  0  0  0  0  0  0  0  0  0
   22.4260  -28.6100   36.5880 H   0  0  0  0  0  0  0  0  0  0  0  0
   23.5492  -30.9204   40.8340 H   0  0  0  0  0  0  0  0  0  0  0  0
   24.7836  -29.7639   43.9642 H   0  0  0  0  0  0  0  0  0  0  0  0
   25.0062  -30.9136   42.6021 H   0  0  0  0  0  0  0  0  0  0  0  0
   25.8759  -29.3419   42.6021 H   0  0  0  0  0  0  0  0  0  0  0  0
  1  2  2  0
  2  3  1  0
  3  4  2  0
  4  5  1  0
  5  6  2  0
  6  7  1  0
  7  8  1  0
  8  9  1  0
  9 10  2  0
 10 11  1  0
 11 12  2  0
 12 13  1  0
 13 14  1  0
 13 15  2  0
 15 16  1  0
 16 17  2  0
 16 18  1  0
 18 19  1  0
  6 20  1  0
 20 21  2  0
 21 22  1  0
 21  3  1  0
 18  7  2  0
 15  9  1  0
  1 23  1  0
  1 24  1  0
  2 25  1  0
  4 26  1  0
  5 27  1  0
 10 28  1  0
 11 29  1  0
 12 30  1  0
 14 31  1  0
 19 32  1  0
 20 33  1  0
 22 34  1  0
 22 35  1  0
 22 36  1  0
M  END
>  <meeko>  (1) 
{"is_sidechain": [false], "free_energy": -9.403, "intermolecular_energy": -11.052, "internal_energy": -0.405}

$$$$
cand_040_out
     RDKit          3D

 36 38  0  0  0  0  0  0  0  0999 V2000
   23.4520  -27.1680   43.1100 C   0  0  0  0  0  0  0  0  0  0  0  0
   22.4320  -26.9050   42.2830 C   0  0  0  0  0  0  0  0  0  0  0  0
   21.9160  -27.8700   41.3010 C   0  0  0  0  0  0  0  0  0  0  0  0
   22.7430  -28.9090   40.8510 C   0  0  0  0  0  0  0  0  0  0  0  0
   22.2710  -29.8620   39.9440 C   0  0  0  0  0  0  0  0  0  0  0  0
   20.9540  -29.8110   39.4740 C   0  0  0  0  0  0  0  0  0  0  0  0
   20.4820  -30.8140   38.4970 C   0  0  0  0  0  0  0  0  0  0  0  0
   20.0180  -31.9780   39.1000 O   0  0  0  0  0  0  0  0  0  0  0  0
   19.5480  -32.9940   38.3080 C   0  0  0  0  0  0  0  0  0  0  0  0
   19.1070  -34.1500   38.9550 C   0  0  0  0  0  0  0  0  0  0  0  0
   18.6150  -35.2210   38.2070 C   0  0  0  0  0  0  0  0  0  0  0  0
   18.5650  -35.1380   36.8130 C   0  0  0  0  0  0  0  0  0  0  0  0
   19.0060  -33.9840   36.1710 C   0  0  0  0  0  0  0  0  0  0  0  0
   18.9270  -33.9700   34.8060 O   0  0  0  0  0  0  0  0  0  0  0  0
   19.4990  -32.9120   36.9200 C   0  0  0  0  0  0  0  0  0  0  0  0
   19.9720  -31.6820   36.2850 C   0  0  0  0  0  0  0  0  0  0  0  0
   19.9520  -31.5300   35.0640 O   0  0  0  0  0  0  0  0  0  0  0  0
   20.4820  -30.6070   37.1670 C   0  0  0  0  0  0  0  0  0  0  0  0
   20.9150  -29.4450   36.5570 O   0  0  0  0  0  0  0  0  0  0  0  0
   20.1270  -28.7710   39.9240 C   0  0  0  0  0  0  0  0  0  0  0  0
   20.5890  -27.8010   40.8350 C   0  0  0  0  0  0  0  0  0  0  0  0
   19.6440  -26.7200   41.2860 C   0  0  0  0  0  0  0  0  0  0  0  0
   23.7926  -26.4034   43.8237 H   0  0  0  0  0  0  0  0  0  0  0  0
   23.9492  -28.1486   43.0756 H   0  0  0  0  0  0  0  0  0  0  0  0
   21.9554  -25.9154   42.3415 H   0  0  0  0  0  0  0  0  0  0  0  0
   23.7782  -28.9751   41.2171 H   0  0  0  0  0  0  0  0  0  0  0  0
   22.9422  -30.6609   39.5958 H   0  0  0  0  0  0  0  0  0  0  0  0
   19.1472  -34.2167   40.0522 H   0  0  0  0  0  0  0  0  0  0  0  0
   18.2661  -36.1317   38.7157 H   0  0  0  0  0  0  0  0  0  0  0  0
   18.1780  -35.9827   36.2241 H   0  0  0  0  0  0  0  0  0  0  0  0
   19.6430  -33.6390   34.2980 H   0  0  0  0  0  0  0  0  0  0  0  0
   21.8170  -29.1970   36.6060 H   0  0  0  0  0  0  0  0  0  0  0  0
   19.0920  -28.7115   39.5563 H   0  0  0  0  0  0  0  0  0  0  0  0
   19.6183  -26.6906   42.3853 H   0  0  0  0  0  0  0  0  0  0  0  0
   19.9877  -25.7485   40.9012 H   0  0  0  0  0  0  0  0  0  0  0  0
   18.6353  -26.9308   40.9012 H   0  0  0  0  0  0  0  0  0  0  0  0
  1  2  2  0
  2  3  1  0
  3  4  2  0
  4  5  1  0
  5  6  2  0
  6  7  1  0
  7  8  1  0
  8  9  1  0
  9 10  2  0
 10 11  1  0
 11 12  2  0
 12 13  1  0
 13 14  1  0
 13 15  2  0
 15 16  1  0
 16 17  2  0
 16 18  1  0
 18 19  1  0
  6 20  1  0
 20 21  2  0
 21 22  1  0
 21  3  1  0
 18  7  2  0
 15  9  1  0
  1 23  1  0
  1 24  1  0
  2 25  1  0
  4 26  1  0
  5 27  1  0
 10 28  1  0
 11 29  1  0
 12 30  1  0
 14 31  1  0
 19 32  1  0
 20 33  1  0
 22 34  1  0
 22 35  1  0
 22 36  1  0
M  END
>  <meeko>  (2) 
{"is_sidechain": [false], "free_energy": -9.259, "intermolecular_energy": -10.825, "internal_energy": -0.464}

$$$$
cand_040_out
     RDKit          3D

 36 38  0  0  0  0  0  0  0  0999 V2000
   19.7910  -26.2480   42.3950 C   0  0  0  0  0  0  0  0  0  0  0  0
   20.6140  -26.5730   41.3900 C   0  0  0  0  0  0  0  0  0  0  0  0
   20.4310  -27.7610   40.5440 C   0  0  0  0  0  0  0  0  0  0  0  0
   19.2510  -27.9060   39.8010 C   0  0  0  0  0  0  0  0  0  0  0  0
   19.0610  -29.0070   38.9600 C   0  0  0  0  0  0  0  0  0  0  0  0
   20.0520  -29.9860   38.8290 C   0  0  0  0  0  0  0  0  0  0  0  0
   19.8220  -31.1540   37.9530 C   0  0  0  0  0  0  0  0  0  0  0  0
   20.1930  -30.9210   36.6340 O   0  0  0  0  0  0  0  0  0  0  0  0
   20.0340  -31.9240   35.7130 C   0  0  0  0  0  0  0  0  0  0  0  0
   20.4040  -31.6400   34.3970 C   0  0  0  0  0  0  0  0  0  0  0  0
   20.2690  -32.6190   33.4100 C   0  0  0  0  0  0  0  0  0  0  0  0
   19.7620  -33.8790   33.7370 C   0  0  0  0  0  0  0  0  0  0  0  0
   19.3930  -34.1580   35.0500 C   0  0  0  0  0  0  0  0  0  0  0  0
   18.9060  -35.4110   35.3010 O   0  0  0  0  0  0  0  0  0  0  0  0
   19.5290  -33.1790   36.0380 C   0  0  0  0  0  0  0  0  0  0  0  0
   19.1520  -33.4300   37.4300 C   0  0  0  0  0  0  0  0  0  0  0  0
   18.7070  -34.5160   37.7970 O   0  0  0  0  0  0  0  0  0  0  0  0
   19.3270  -32.3240   38.3990 C   0  0  0  0  0  0  0  0  0  0  0  0
   18.9820  -32.5770   39.7120 O   0  0  0  0  0  0  0  0  0  0  0  0
   21.2330  -29.8410   39.5730 C   0  0  0  0  0  0  0  0  0  0  0  0
   21.4370  -28.7390   40.4280 C   0  0  0  0  0  0  0  0  0  0  0  0
   22.7330  -28.6410   41.1870 C   0  0  0  0  0  0  0  0  0  0  0  0
   19.9824  -25.3443   42.9923 H   0  0  0  0  0  0  0  0  0  0  0  0
   18.9235  -26.8847   42.6233 H   0  0  0  0  0  0  0  0  0  0  0  0
   21.4726  -25.9161   41.1867 H   0  0  0  0  0  0  0  0  0  0  0  0
   18.4631  -27.1426   39.8807 H   0  0  0  0  0  0  0  0  0  0  0  0
   18.1221  -29.1045   38.3952 H   0  0  0  0  0  0  0  0  0  0  0  0
   20.8010  -30.6473   34.1381 H   0  0  0  0  0  0  0  0  0  0  0  0
   20.5624  -32.3975   32.3733 H   0  0  0  0  0  0  0  0  0  0  0  0
   19.6546  -34.6489   32.9588 H   0  0  0  0  0  0  0  0  0  0  0  0
   18.1220  -35.7030   34.8790 H   0  0  0  0  0  0  0  0  0  0  0  0
   19.3330  -33.3250   40.1540 H   0  0  0  0  0  0  0  0  0  0  0  0
   22.0187  -30.6060   39.4869 H   0  0  0  0  0  0  0  0  0  0  0  0
   22.5272  -28.6566   42.2675 H   0  0  0  0  0  0  0  0  0  0  0  0
   23.3772  -29.4930   40.9241 H   0  0  0  0  0  0  0  0  0  0  0  0
   23.2418  -27.7018   40.9241 H   0  0  0  0  0  0  0  0  0  0  0  0
  1  2  2  0
  2  3  1  0
  3  4  2  0
  4  5  1  0
  5  6  2  0
  6  7  1  0
  7  8  1  0
  8  9  1  0
  9 10  2  0
 10 11  1  0
 11 12  2  0
 12 13  1  0
 13 14  1  0
 13 15  2  0
 15 16  1  0
 16 17  2  0
 16 18  1  0
 18 19  1  0
  6 20  1  0
 20 21  2  0
 21 22  1  0
 21  3  1  0
 18  7  2  0
 15  9  1  0
  1 23  1  0
  1 24  1  0
  2 25  1  0
  4 26  1  0
  5 27  1  0
 10 28  1  0
 11 29  1  0
 12 30  1  0
 14 31  1  0
 19 32  1  0
 20 33  1  0
 22 34  1  0
 22 35  1  0
 22 36  1  0
M  END
>  <meeko>  (3) 
{"is_sidechain": [false], "free_energy": -8.604, "intermolecular_energy": -10.048, "internal_energy": -0.469}

$$$$
cand_040_out
     RDKit          3D

 36 38  0  0  0  0  0  0  0  0999 V2000
   20.0370  -32.2630   35.1250 C   0  0  0  0  0  0  0  0  0  0  0  0
   19.6640  -32.2780   36.4110 C   0  0  0  0  0  0  0  0  0  0  0  0
   20.1530  -31.3150   37.4080 C   0  0  0  0  0  0  0  0  0  0  0  0
   20.7840  -30.1380   36.9830 C   0  0  0  0  0  0  0  0  0  0  0  0
   21.2300  -29.1870   37.9050 C   0  0  0  0  0  0  0  0  0  0  0  0
   21.0430  -29.3800   39.2780 C   0  0  0  0  0  0  0  0  0  0  0  0
   21.5430  -28.3730   40.2380 C   0  0  0  0  0  0  0  0  0  0  0  0
   22.4480  -28.9010   41.1520 O   0  0  0  0  0  0  0  0  0  0  0  0
   22.9910  -28.0740   42.1010 C   0  0  0  0  0  0  0  0  0  0  0  0
   23.8830  -28.6500   43.0070 C   0  0  0  0  0  0  0  0  0  0  0  0
   24.4740  -27.8620   43.9980 C   0  0  0  0  0  0  0  0  0  0  0  0
   24.1720  -26.5010   44.0830 C   0  0  0  0  0  0  0  0  0  0  0  0
   23.2820  -25.9300   43.1780 C   0  0  0  0  0  0  0  0  0  0  0  0
   23.0330  -24.5920   43.3170 O   0  0  0  0  0  0  0  0  0  0  0  0
   22.6910  -26.7180   42.1860 C   0  0  0  0  0  0  0  0  0  0  0  0
   21.7500  -26.1580   41.2150 C   0  0  0  0  0  0  0  0  0  0  0  0
   21.4410  -24.9680   41.2210 O   0  0  0  0  0  0  0  0  0  0  0  0
   21.1730  -27.0790   40.2100 C   0  0  0  0  0  0  0  0  0  0  0  0
   20.2960  -26.5370   39.2890 O   0  0  0  0  0  0  0  0  0  0  0  0
   20.4120  -30.5580   39.7050 C   0  0  0  0  0  0  0  0  0  0  0  0
   19.9610  -31.5280   38.7870 C   0  0  0  0  0  0  0  0  0  0  0  0
   19.2810  -32.7640   39.3130 C   0  0  0  0  0  0  0  0  0  0  0  0
   19.6349  -33.0120   34.4269 H   0  0  0  0  0  0  0  0  0  0  0  0
   20.7455  -31.5017   34.7667 H   0  0  0  0  0  0  0  0  0  0  0  0
   18.9542  -33.0519   36.7386 H   0  0  0  0  0  0  0  0  0  0  0  0
   20.9305  -29.9600   35.9074 H   0  0  0  0  0  0  0  0  0  0  0  0
   21.7336  -28.2768   37.5472 H   0  0  0  0  0  0  0  0  0  0  0  0
   24.1202  -29.7221   42.9410 H   0  0  0  0  0  0  0  0  0  0  0  0
   25.1780  -28.3141   44.7121 H   0  0  0  0  0  0  0  0  0  0  0  0
   24.6368  -25.8813   44.8640 H   0  0  0  0  0  0  0  0  0  0  0  0
   23.3940  -24.1210   44.0420 H   0  0  0  0  0  0  0  0  0  0  0  0
   19.3920  -26.4290   39.5110 H   0  0  0  0  0  0  0  0  0  0  0  0
   20.2657  -30.7288   40.7818 H   0  0  0  0  0  0  0  0  0  0  0  0
   19.2900  -32.7476   40.4128 H   0  0  0  0  0  0  0  0  0  0  0  0
   18.2412  -32.7908   38.9552 H   0  0  0  0  0  0  0  0  0  0  0  0
   19.8150  -33.6567   38.9552 H   0  0  0  0  0  0  0  0  0  0  0  0
  1  2  2  0
  2  3  1  0
  3  4  2  0
  4  5  1  0
  5  6  2  0
  6  7  1  0
  7  8  1  0
  8  9  1  0
  9 10  2  0
 10 11  1  0
 11 12  2  0
 12 13  1  0
 13 14  1  0
 13 15  2  0
 15 16  1  0
 16 17  2  0
 16 18  1  0
 18 19  1  0
  6 20  1  0
 20 21  2  0
 21 22  1  0
 21  3  1  0
 18  7  2  0
 15  9  1  0
  1 23  1  0
  1 24  1  0
  2 25  1  0
  4 26  1  0
  5 27  1  0
 10 28  1  0
 11 29  1  0
 12 30  1  0
 14 31  1  0
 19 32  1  0
 20 33  1  0
 22 34  1  0
 22 35  1  0
 22 36  1  0
M  END
>  <meeko>  (4) 
{"is_sidechain": [false], "free_energy": -8.56, "intermolecular_energy": -10.208, "internal_energy": -0.259}

$$$$
cand_040_out
     RDKit          3D

 36 38  0  0  0  0  0  0  0  0999 V2000
   21.9650  -25.0030   45.5060 C   0  0  0  0  0  0  0  0  0  0  0  0
   22.7080  -25.9940   44.9970 C   0  0  0  0  0  0  0  0  0  0  0  0
   22.3720  -26.7030   43.7540 C   0  0  0  0  0  0  0  0  0  0  0  0
   21.1750  -26.4030   43.0880 C   0  0  0  0  0  0  0  0  0  0  0  0
   20.8430  -27.0340   41.8860 C   0  0  0  0  0  0  0  0  0  0  0  0
   21.7060  -27.9730   41.3100 C   0  0  0  0  0  0  0  0  0  0  0  0
   21.3250  -28.6470   40.0500 C   0  0  0  0  0  0  0  0  0  0  0  0
   20.8130  -29.9240   40.2550 O   0  0  0  0  0  0  0  0  0  0  0  0
   20.4190  -30.6620   39.1690 C   0  0  0  0  0  0  0  0  0  0  0  0
   19.9260  -31.9440   39.4190 C   0  0  0  0  0  0  0  0  0  0  0  0
   19.5060  -32.7480   38.3570 C   0  0  0  0  0  0  0  0  0  0  0  0
   19.5800  -32.2710   37.0460 C   0  0  0  0  0  0  0  0  0  0  0  0
   20.0720  -30.9920   36.8000 C   0  0  0  0  0  0  0  0  0  0  0  0
   20.1150  -30.5880   35.4940 O   0  0  0  0  0  0  0  0  0  0  0  0
   20.4930  -30.1880   37.8620 C   0  0  0  0  0  0  0  0  0  0  0  0
   21.0170  -28.8380   37.6480 C   0  0  0  0  0  0  0  0  0  0  0  0
   21.1040  -28.3460   36.5240 O   0  0  0  0  0  0  0  0  0  0  0  0
   21.4430  -28.0700   38.8400 C   0  0  0  0  0  0  0  0  0  0  0  0
   21.9240  -26.7920   38.6260 O   0  0  0  0  0  0  0  0  0  0  0  0
   22.9030  -28.2740   41.9760 C   0  0  0  0  0  0  0  0  0  0  0  0
   23.2500  -27.6490   43.1900 C   0  0  0  0  0  0  0  0  0  0  0  0
   24.5550  -28.0100   43.8460 C   0  0  0  0  0  0  0  0  0  0  0  0
   22.2704  -24.5113   46.4414 H   0  0  0  0  0  0  0  0  0  0  0  0
   21.0493  -24.6807   44.9887 H   0  0  0  0  0  0  0  0  0  0  0  0
   23.6180  -26.2933   45.5377 H   0  0  0  0  0  0  0  0  0  0  0  0
   20.4872  -25.6600   43.5180 H   0  0  0  0  0  0  0  0  0  0  0  0
   19.8933  -26.7900   41.3875 H   0  0  0  0  0  0  0  0  0  0  0  0
   19.8684  -32.3204   40.4510 H   0  0  0  0  0  0  0  0  0  0  0  0
   19.1165  -33.7579   38.5530 H   0  0  0  0  0  0  0  0  0  0  0  0
   19.2501  -32.9048   36.2096 H   0  0  0  0  0  0  0  0  0  0  0  0
   20.7140  -29.9180   35.2290 H   0  0  0  0  0  0  0  0  0  0  0  0
   21.3370  -26.0610   38.6480 H   0  0  0  0  0  0  0  0  0  0  0  0
   23.5877  -29.0163   41.5398 H   0  0  0  0  0  0  0  0  0  0  0  0
   24.4372  -27.9774   44.9392 H   0  0  0  0  0  0  0  0  0  0  0  0
   24.8515  -29.0239   43.5392 H   0  0  0  0  0  0  0  0  0  0  0  0
   25.3304  -27.2926   43.5392 H   0  0  0  0  0  0  0  0  0  0  0  0
  1  2  2  0
  2  3  1  0
  3  4  2  0
  4  5  1  0
  5  6  2  0
  6  7  1  0
  7  8  1  0
  8  9  1  0
  9 10  2  0
 10 11  1  0
 11 12  2  0
 12 13  1  0
 13 14  1  0
 13 15  2  0
 15 16  1  0
 16 17  2  0
 16 18  1  0
 18 19  1  0
  6 20  1  0
 20 21  2  0
 21 22  1  0
 21  3  1  0
 18  7  2  0
 15  9  1  0
  1 23  1  0
  1 24  1  0
  2 25  1  0
  4 26  1  0
  5 27  1  0
 10 28  1  0
 11 29  1  0
 12 30  1  0
 14 31  1  0
 19 32  1  0
 20 33  1  0
 22 34  1  0
 22 35  1  0
 22 36  1  0
M  END
>  <meeko>  (5) 
{"is_sidechain": [false], "free_energy": -8.474, "intermolecular_energy": -9.927, "internal_energy": -0.439}

$$$$
cand_040_out
     RDKit          3D

 36 38  0  0  0  0  0  0  0  0999 V2000
   20.7210  -31.2520   34.4720 C   0  0  0  0  0  0  0  0  0  0  0  0
   20.0060  -30.6150   35.4070 C   0  0  0  0  0  0  0  0  0  0  0  0
   20.5580  -30.1950   36.7030 C   0  0  0  0  0  0  0  0  0  0  0  0
   21.3450  -29.0370   36.7780 C   0  0  0  0  0  0  0  0  0  0  0  0
   21.8560  -28.5920   38.0000 C   0  0  0  0  0  0  0  0  0  0  0  0
   21.5820  -29.2850   39.1850 C   0  0  0  0  0  0  0  0  0  0  0  0
   22.1510  -28.8110   40.4640 C   0  0  0  0  0  0  0  0  0  0  0  0
   23.1170  -29.6700   40.9760 O   0  0  0  0  0  0  0  0  0  0  0  0
   23.7290  -29.3490   42.1600 C   0  0  0  0  0  0  0  0  0  0  0  0
   24.6810  -30.2480   42.6450 C   0  0  0  0  0  0  0  0  0  0  0  0
   25.3420  -29.9810   43.8460 C   0  0  0  0  0  0  0  0  0  0  0  0
   25.0510  -28.8170   44.5620 C   0  0  0  0  0  0  0  0  0  0  0  0
   24.1010  -27.9230   44.0750 C   0  0  0  0  0  0  0  0  0  0  0  0
   23.8660  -26.8030   44.8250 O   0  0  0  0  0  0  0  0  0  0  0  0
   23.4390  -28.1900   42.8740 C   0  0  0  0  0  0  0  0  0  0  0  0
   22.4330  -27.2780   42.3280 C   0  0  0  0  0  0  0  0  0  0  0  0
   22.1290  -26.2310   42.8960 O   0  0  0  0  0  0  0  0  0  0  0  0
   21.7840  -27.6570   41.0530 C   0  0  0  0  0  0  0  0  0  0  0  0
   20.8450  -26.7820   40.5390 O   0  0  0  0  0  0  0  0  0  0  0  0
   20.7950  -30.4440   39.1110 C   0  0  0  0  0  0  0  0  0  0  0  0
   20.2760  -30.9070   37.8850 C   0  0  0  0  0  0  0  0  0  0  0  0
   19.4290  -32.1510   37.8790 C   0  0  0  0  0  0  0  0  0  0  0  0
   20.2497  -31.5404   33.5208 H   0  0  0  0  0  0  0  0  0  0  0  0
   21.7799  -31.4871   34.6547 H   0  0  0  0  0  0  0  0  0  0  0  0
   18.9496  -30.3941   35.1944 H   0  0  0  0  0  0  0  0  0  0  0  0
   21.5635  -28.4702   35.8609 H   0  0  0  0  0  0  0  0  0  0  0  0
   22.4805  -27.6870   38.0312 H   0  0  0  0  0  0  0  0  0  0  0  0
   24.9100  -31.1649   42.0821 H   0  0  0  0  0  0  0  0  0  0  0  0
   26.0927  -30.6881   44.2287 H   0  0  0  0  0  0  0  0  0  0  0  0
   25.5712  -28.6073   45.5083 H   0  0  0  0  0  0  0  0  0  0  0  0
   23.1630  -26.2270   44.6000 H   0  0  0  0  0  0  0  0  0  0  0  0
   20.0910  -26.5540   41.0460 H   0  0  0  0  0  0  0  0  0  0  0  0
   20.5777  -31.0050   40.0319 H   0  0  0  0  0  0  0  0  0  0  0  0
   19.2203  -32.4575   38.9146 H   0  0  0  0  0  0  0  0  0  0  0  0
   18.4814  -31.9469   37.3590 H   0  0  0  0  0  0  0  0  0  0  0  0
   19.9662  -32.9579   37.3590 H   0  0  0  0  0  0  0  0  0  0  0  0
  1  2  2  0
  2  3  1  0
  3  4  2  0
  4  5  1  0
  5  6  2  0
  6  7  1  0
  7  8  1  0
  8  9  1  0
  9 10  2  0
 10 11  1  0
 11 12  2  0
 12 13  1  0
 13 14  1  0
 13 15  2  0
 15 16  1  0
 16 17  2  0
 16 18  1  0
 18 19  1  0
  6 20  1  0
 20 21  2  0
 21 22  1  0
 21  3  1  0
 18  7  2  0
 15  9  1  0
  1 23  1  0
  1 24  1  0
  2 25  1  0
  4 26  1  0
  5 27  1  0
 10 28  1  0
 11 29  1  0
 12 30  1  0
 14 31  1  0
 19 32  1  0
 20 33  1  0
 22 34  1  0
 22 35  1  0
 22 36  1  0
M  END
>  <meeko>  (6) 
{"is_sidechain": [false], "free_energy": -8.438, "intermolecular_energy": -9.955, "internal_energy": -0.369}

$$$$
cand_040_out
     RDKit          3D

 36 38  0  0  0  0  0  0  0  0999 V2000
   20.6740  -30.9740   34.8720 C   0  0  0  0  0  0  0  0  0  0  0  0
   20.1750  -31.2630   36.0800 C   0  0  0  0  0  0  0  0  0  0  0  0
   20.6260  -30.6150   37.3200 C   0  0  0  0  0  0  0  0  0  0  0  0
   21.3310  -29.4040   37.2510 C   0  0  0  0  0  0  0  0  0  0  0  0
   21.7430  -28.7450   38.4130 C   0  0  0  0  0  0  0  0  0  0  0  0
   21.4490  -29.2720   39.6760 C   0  0  0  0  0  0  0  0  0  0  0  0
   21.9150  -28.5710   40.8910 C   0  0  0  0  0  0  0  0  0  0  0  0
   21.0870  -27.5160   41.2580 O   0  0  0  0  0  0  0  0  0  0  0  0
   21.4020  -26.7810   42.3700 C   0  0  0  0  0  0  0  0  0  0  0  0
   20.5520  -25.7210   42.6910 C   0  0  0  0  0  0  0  0  0  0  0  0
   20.8150  -24.9320   43.8130 C   0  0  0  0  0  0  0  0  0  0  0  0
   21.9290  -25.2020   44.6130 C   0  0  0  0  0  0  0  0  0  0  0  0
   22.7750  -26.2590   44.2900 C   0  0  0  0  0  0  0  0  0  0  0  0
   23.8450  -26.4680   45.1160 O   0  0  0  0  0  0  0  0  0  0  0  0
   22.5110  -27.0480   43.1670 C   0  0  0  0  0  0  0  0  0  0  0  0
   23.3750  -28.1680   42.7920 C   0  0  0  0  0  0  0  0  0  0  0  0
   24.3680  -28.4730   43.4500 O   0  0  0  0  0  0  0  0  0  0  0  0
   23.0130  -28.9370   41.5790 C   0  0  0  0  0  0  0  0  0  0  0  0
   23.8280  -30.0010   41.2410 O   0  0  0  0  0  0  0  0  0  0  0  0
   20.7450  -30.4820   39.7450 C   0  0  0  0  0  0  0  0  0  0  0  0
   20.3250  -31.1610   38.5830 C   0  0  0  0  0  0  0  0  0  0  0  0
   19.5630  -32.4500   38.7300 C   0  0  0  0  0  0  0  0  0  0  0  0
   20.2937  -31.4948   33.9809 H   0  0  0  0  0  0  0  0  0  0  0  0
   21.4644  -30.2157   34.7704 H   0  0  0  0  0  0  0  0  0  0  0  0
   19.3855  -32.0259   36.1484 H   0  0  0  0  0  0  0  0  0  0  0  0
   21.5629  -28.9668   36.2686 H   0  0  0  0  0  0  0  0  0  0  0  0
   22.3042  -27.8022   38.3340 H   0  0  0  0  0  0  0  0  0  0  0  0
   19.6760  -25.5075   42.0609 H   0  0  0  0  0  0  0  0  0  0  0  0
   20.1450  -24.0975   44.0673 H   0  0  0  0  0  0  0  0  0  0  0  0
   22.1367  -24.5802   45.4963 H   0  0  0  0  0  0  0  0  0  0  0  0
   24.4950  -27.1040   44.8900 H   0  0  0  0  0  0  0  0  0  0  0  0
   23.4490  -30.8170   40.9790 H   0  0  0  0  0  0  0  0  0  0  0  0
   20.5144  -30.9127   40.7306 H   0  0  0  0  0  0  0  0  0  0  0  0
   19.4289  -32.6769   39.7980 H   0  0  0  0  0  0  0  0  0  0  0  0
   18.5784  -32.3507   38.2498 H   0  0  0  0  0  0  0  0  0  0  0  0
   20.1247  -33.2648   38.2498 H   0  0  0  0  0  0  0  0  0  0  0  0
  1  2  2  0
  2  3  1  0
  3  4  2  0
  4  5  1  0
  5  6  2  0
  6  7  1  0
  7  8  1  0
  8  9  1  0
  9 10  2  0
 10 11  1  0
 11 12  2  0
 12 13  1  0
 13 14  1  0
 13 15  2  0
 15 16  1  0
 16 17  2  0
 16 18  1  0
 18 19  1  0
  6 20  1  0
 20 21  2  0
 21 22  1  0
 21  3  1  0
 18  7  2  0
 15  9  1  0
  1 23  1  0
  1 24  1  0
  2 25  1  0
  4 26  1  0
  5 27  1  0
 10 28  1  0
 11 29  1  0
 12 30  1  0
 14 31  1  0
 19 32  1  0
 20 33  1  0
 22 34  1  0
 22 35  1  0
 22 36  1  0
M  END
>  <meeko>  (7) 
{"is_sidechain": [false], "free_energy": -8.347, "intermolecular_energy": -9.769, "internal_energy": -0.447}

$$$$
cand_040_out
     RDKit          3D

 36 38  0  0  0  0  0  0  0  0999 V2000
   22.7770  -27.5600   44.0180 C   0  0  0  0  0  0  0  0  0  0  0  0
   22.8040  -27.1990   42.7290 C   0  0  0  0  0  0  0  0  0  0  0  0
   22.2580  -28.0270   41.6440 C   0  0  0  0  0  0  0  0  0  0  0  0
   23.0260  -29.0770   41.1220 C   0  0  0  0  0  0  0  0  0  0  0  0
   22.5230  -29.9040   40.1130 C   0  0  0  0  0  0  0  0  0  0  0  0
   21.2310  -29.7120   39.6100 C   0  0  0  0  0  0  0  0  0  0  0  0
   20.7260  -30.5820   38.5270 C   0  0  0  0  0  0  0  0  0  0  0  0
   21.1120  -30.1510   37.2630 O   0  0  0  0  0  0  0  0  0  0  0  0
   20.7120  -30.8690   36.1660 C   0  0  0  0  0  0  0  0  0  0  0  0
   21.1080  -30.3900   34.9160 C   0  0  0  0  0  0  0  0  0  0  0  0
   20.7350  -31.0750   33.7580 C   0  0  0  0  0  0  0  0  0  0  0  0
   19.9660  -32.2380   33.8490 C   0  0  0  0  0  0  0  0  0  0  0  0
   19.5720  -32.7120   35.0970 C   0  0  0  0  0  0  0  0  0  0  0  0
   18.8210  -33.8560   35.1140 O   0  0  0  0  0  0  0  0  0  0  0  0
   19.9450  -32.0260   36.2560 C   0  0  0  0  0  0  0  0  0  0  0  0
   19.5510  -32.4900   37.5870 C   0  0  0  0  0  0  0  0  0  0  0  0
   18.8810  -33.5090   37.7490 O   0  0  0  0  0  0  0  0  0  0  0  0
   19.9910  -31.6880   38.7510 C   0  0  0  0  0  0  0  0  0  0  0  0
   19.6250  -32.1420   40.0040 O   0  0  0  0  0  0  0  0  0  0  0  0
   20.4630  -28.6610   40.1320 C   0  0  0  0  0  0  0  0  0  0  0  0
   20.9580  -27.8170   41.1460 C   0  0  0  0  0  0  0  0  0  0  0  0
   20.0750  -26.7160   41.6690 C   0  0  0  0  0  0  0  0  0  0  0  0
   23.2027  -26.8955   44.7843 H   0  0  0  0  0  0  0  0  0  0  0  0
   22.3291  -28.5211   44.3107 H   0  0  0  0  0  0  0  0  0  0  0  0
   23.2587  -26.2319   42.4681 H   0  0  0  0  0  0  0  0  0  0  0  0
   24.0394  -29.2530   41.5119 H   0  0  0  0  0  0  0  0  0  0  0  0
   23.1491  -30.7139   39.7104 H   0  0  0  0  0  0  0  0  0  0  0  0
   21.7130  -29.4742   34.8435 H   0  0  0  0  0  0  0  0  0  0  0  0
   21.0470  -30.6986   32.7726 H   0  0  0  0  0  0  0  0  0  0  0  0
   19.6726  -32.7777   32.9365 H   0  0  0  0  0  0  0  0  0  0  0  0
   19.1360  -34.6170   35.5610 H   0  0  0  0  0  0  0  0  0  0  0  0
   19.7180  -33.0500   40.2180 H   0  0  0  0  0  0  0  0  0  0  0  0
   19.4492  -28.4913   39.7402 H   0  0  0  0  0  0  0  0  0  0  0  0
   20.0854  -26.7289   42.7689 H   0  0  0  0  0  0  0  0  0  0  0  0
   20.4478  -25.7453   41.3102 H   0  0  0  0  0  0  0  0  0  0  0  0
   19.0465  -26.8691   41.3102 H   0  0  0  0  0  0  0  0  0  0  0  0
  1  2  2  0
  2  3  1  0
  3  4  2  0
  4  5  1  0
  5  6  2  0
  6  7  1  0
  7  8  1  0
  8  9  1  0
  9 10  2  0
 10 11  1  0
 11 12  2  0
 12 13  1  0
 13 14  1  0
 13 15  2  0
 15 16  1  0
 16 17  2  0
 16 18  1  0
 18 19  1  0
  6 20  1  0
 20 21  2  0
 21 22  1  0
 21  3  1  0
 18  7  2  0
 15  9  1  0
  1 23  1  0
  1 24  1  0
  2 25  1  0
  4 26  1  0
  5 27  1  0
 10 28  1  0
 11 29  1  0
 12 30  1  0
 14 31  1  0
 19 32  1  0
 20 33  1  0
 22 34  1  0
 22 35  1  0
 22 36  1  0
M  END
>  <meeko>  (8) 
{"is_sidechain": [false], "free_energy": -8.254, "intermolecular_energy": -9.64, "internal_energy": -0.467}

$$$$
cand_040_out
     RDKit          3D

 36 38  0  0  0  0  0  0  0  0999 V2000
   19.6480  -34.0930   35.3320 C   0  0  0  0  0  0  0  0  0  0  0  0
   18.9340  -33.5830   36.3430 C   0  0  0  0  0  0  0  0  0  0  0  0
   19.4660  -32.5940   37.2920 C   0  0  0  0  0  0  0  0  0  0  0  0
   20.0550  -31.4170   36.8080 C   0  0  0  0  0  0  0  0  0  0  0  0
   20.5390  -30.4420   37.6850 C   0  0  0  0  0  0  0  0  0  0  0  0
   20.4320  -30.6100   39.0700 C   0  0  0  0  0  0  0  0  0  0  0  0
   20.9710  -29.5780   39.9810 C   0  0  0  0  0  0  0  0  0  0  0  0
   20.0390  -28.5940   40.2930 O   0  0  0  0  0  0  0  0  0  0  0  0
   20.4070  -27.5740   41.1310 C   0  0  0  0  0  0  0  0  0  0  0  0
   19.4450  -26.6000   41.4040 C   0  0  0  0  0  0  0  0  0  0  0  0
   19.7550  -25.5340   42.2520 C   0  0  0  0  0  0  0  0  0  0  0  0
   21.0260  -25.4410   42.8250 C   0  0  0  0  0  0  0  0  0  0  0  0
   21.9830  -26.4140   42.5500 C   0  0  0  0  0  0  0  0  0  0  0  0
   23.2050  -26.2620   43.1450 O   0  0  0  0  0  0  0  0  0  0  0  0
   21.6730  -27.4800   41.7020 C   0  0  0  0  0  0  0  0  0  0  0  0
   22.6490  -28.5230   41.3860 C   0  0  0  0  0  0  0  0  0  0  0  0
   23.7850  -28.5150   41.8580 O   0  0  0  0  0  0  0  0  0  0  0  0
   22.2240  -29.6070   40.4700 C   0  0  0  0  0  0  0  0  0  0  0  0
   23.1500  -30.5930   40.1900 O   0  0  0  0  0  0  0  0  0  0  0  0
   19.8430  -31.7870   39.5550 C   0  0  0  0  0  0  0  0  0  0  0  0
   19.3540  -32.7810   38.6830 C   0  0  0  0  0  0  0  0  0  0  0  0
   18.7220  -34.0150   39.2700 C   0  0  0  0  0  0  0  0  0  0  0  0
   19.1931  -34.8308   34.6547 H   0  0  0  0  0  0  0  0  0  0  0  0
   20.6896  -33.7743   35.1786 H   0  0  0  0  0  0  0  0  0  0  0  0
   17.8952  -33.9215   36.4704 H   0  0  0  0  0  0  0  0  0  0  0  0
   20.1373  -31.2587   35.7226 H   0  0  0  0  0  0  0  0  0  0  0  0
   21.0091  -29.5328   37.2820 H   0  0  0  0  0  0  0  0  0  0  0  0
   18.4446  -26.6717   40.9522 H   0  0  0  0  0  0  0  0  0  0  0  0
   18.9973  -24.7666   42.4690 H   0  0  0  0  0  0  0  0  0  0  0  0
   21.2699  -24.6009   43.4919 H   0  0  0  0  0  0  0  0  0  0  0  0
   23.3890  -25.4950   43.6510 H   0  0  0  0  0  0  0  0  0  0  0  0
   23.3280  -31.2630   40.8220 H   0  0  0  0  0  0  0  0  0  0  0  0
   19.7607  -31.9380   40.6415 H   0  0  0  0  0  0  0  0  0  0  0  0
   18.7524  -33.9556   40.3680 H   0  0  0  0  0  0  0  0  0  0  0  0
   17.6765  -34.0861   38.9354 H   0  0  0  0  0  0  0  0  0  0  0  0
   19.2753  -34.9049   38.9354 H   0  0  0  0  0  0  0  0  0  0  0  0
  1  2  2  0
  2  3  1  0
  3  4  2  0
  4  5  1  0
  5  6  2  0
  6  7  1  0
  7  8  1  0
  8  9  1  0
  9 10  2  0
 10 11  1  0
 11 12  2  0
 12 13  1  0
 13 14  1  0
 13 15  2  0
 15 16  1  0
 16 17  2  0
 16 18  1  0
 18 19  1  0
  6 20  1  0
 20 21  2  0
 21 22  1  0
 21  3  1  0
 18  7  2  0
 15  9  1  0
  1 23  1  0
  1 24  1  0
  2 25  1  0
  4 26  1  0
  5 27  1  0
 10 28  1  0
 11 29  1  0
 12 30  1  0
 14 31  1  0
 19 32  1  0
 20 33  1  0
 22 34  1  0
 22 35  1  0
 22 36  1  0
M  END
>  <meeko>  (9) 
{"is_sidechain": [false], "free_energy": -7.922, "intermolecular_energy": -9.247, "internal_energy": -0.47}

$$$$
