cand_012_out
     RDKit          3D

 40 42  0  0  0  0  0  0  0  0999 V2000
   21.5400  -25.4120   43.9530 C   0  0  0  0  0  0  0  0  0  0  0  0
   22.5300  -25.7090   42.9140 N   0  0  0  0  0  0  0  0  0  0  0  0
   23.1010  -24.5200   42.2720 C   0  0  0  0  0  0  0  0  0  0  0  0
   22.0860  -26.6570   41.9730 C   0  0  0  0  0  0  0  0  0  0  0  0
   21.0980  -26.3510   41.0230 C   0  0  0  0  0  0  0  0  0  0  0  0
   20.6710  -27.2980   40.0870 C   0  0  0  0  0  0  0  0  0  0  0  0
   21.2270  -28.5800   40.0650 C   0  0  0  0  0  0  0  0  0  0  0  0
   20.7760  -29.6090   39.1040 C   0  0  0  0  0  0  0  0  0  0  0  0
   20.0400  -30.6240   39.7050 O   0  0  0  0  0  0  0  0  0  0  0  0
   19.5630  -31.6480   38.9280 C   0  0  0  0  0  0  0  0  0  0  0  0
   18.8190  -32.6380   39.5720 C   0  0  0  0  0  0  0  0  0  0  0  0
   18.3050  -33.7100   38.8380 C   0  0  0  0  0  0  0  0  0  0  0  0
   18.5340  -33.7910   37.4630 C   0  0  0  0  0  0  0  0  0  0  0  0
   19.2770  -32.8010   36.8240 C   0  0  0  0  0  0  0  0  0  0  0  0
   19.4640  -32.9430   35.4760 O   0  0  0  0  0  0  0  0  0  0  0  0
   19.7900  -31.7290   37.5580 C   0  0  0  0  0  0  0  0  0  0  0  0
   20.5770  -30.6690   36.9260 C   0  0  0  0  0  0  0  0  0  0  0  0
   20.8270  -30.6720   35.7220 O   0  0  0  0  0  0  0  0  0  0  0  0
   21.0720  -29.5740   37.7910 C   0  0  0  0  0  0  0  0  0  0  0  0
   21.8270  -28.5850   37.1880 O   0  0  0  0  0  0  0  0  0  0  0  0
   22.2080  -28.8920   41.0160 C   0  0  0  0  0  0  0  0  0  0  0  0
   22.6490  -27.9460   41.9670 C   0  0  0  0  0  0  0  0  0  0  0  0
   23.7110  -28.3320   42.9670 C   0  0  0  0  0  0  0  0  0  0  0  0
   24.6550  -27.3670   43.1660 F   0  0  0  0  0  0  0  0  0  0  0  0
   24.4220  -29.4380   42.5800 F   0  0  0  0  0  0  0  0  0  0  0  0
   23.2160  -28.6530   44.1970 F   0  0  0  0  0  0  0  0  0  0  0  0
   21.9966  -25.5490   44.9444 H   0  0  0  0  0  0  0  0  0  0  0  0
   21.1983  -24.3718   43.8472 H   0  0  0  0  0  0  0  0  0  0  0  0
   20.6821  -26.0923   43.8472 H   0  0  0  0  0  0  0  0  0  0  0  0
   23.4402  -23.8137   43.0440 H   0  0  0  0  0  0  0  0  0  0  0  0
   23.9551  -24.8162   41.6453 H   0  0  0  0  0  0  0  0  0  0  0  0
   22.3359  -24.0386   41.6453 H   0  0  0  0  0  0  0  0  0  0  0  0
   20.6510  -25.3460   41.0151 H   0  0  0  0  0  0  0  0  0  0  0  0
   19.8894  -27.0312   39.3605 H   0  0  0  0  0  0  0  0  0  0  0  0
   18.6377  -32.5743   40.6551 H   0  0  0  0  0  0  0  0  0  0  0  0
   17.7190  -34.4913   39.3441 H   0  0  0  0  0  0  0  0  0  0  0  0
   18.1285  -34.6349   36.8855 H   0  0  0  0  0  0  0  0  0  0  0  0
   19.0710  -32.3340   34.8820 H   0  0  0  0  0  0  0  0  0  0  0  0
   22.5770  -28.2350   37.6270 H   0  0  0  0  0  0  0  0  0  0  0  0
   22.6462  -29.9009   41.0217 H   0  0  0  0  0  0  0  0  0  0  0  0
  1  2  1  0
  2  3  1  0
  2  4  1  0
  4  5  2  0
  5  6  1  0
  6  7  2  0
  7  8  1  0
  8  9  1  0
  9 10  1  0
 10 11  2  0
 11 12  1  0
 12 13  2  0
 13 14  1  0
 14 15  1  0
 14 16  2  0
 16 17  1  0
 17 18  2  0
 17 19  1  0
 19 20  1  0
  7 21  1  0
 21 22  2  0
 22 23  1  0
 23 24  1  0
 23 25  1  0
 23 26  1  0
 22  4  1  0
 19  8  2  0
 16 10  1  0
  1 27  1  0
  1 28  1  0
  1 29  1  0
  3 30  1  0
  3 31  1  0
  3 32  1  0
  5 33  1  0
  6 34  1  0
 11 35  1  0
 12 36  1  0
 13 37  1  0
 15 38  1  0
 20 39  1  0
 21 40  1  0
M  END
>  <meeko>  (1) 
{"is_sidechain": [false], "free_energy": -9.52, "intermolecular_energy": -11.747, "internal_energy": -0.468}

$$$$
cand_012_out
     RDKit          3D

 40 42  0  0  0  0  0  0  0  0999 V2000
   23.4140  -25.3370   42.4760 C   0  0  0  0  0  0  0  0  0  0  0  0
   22.4900  -26.3470   42.9980 N   0  0  0  0  0  0  0  0  0  0  0  0
   22.9480  -26.9990   44.2300 C   0  0  0  0  0  0  0  0  0  0  0  0
   22.0720  -27.2780   42.0290 C   0  0  0  0  0  0  0  0  0  0  0  0
   22.8920  -28.3450   41.6270 C   0  0  0  0  0  0  0  0  0  0  0  0
   22.4640  -29.2700   40.6700 C   0  0  0  0  0  0  0  0  0  0  0  0
   21.1970  -29.1630   40.0910 C   0  0  0  0  0  0  0  0  0  0  0  0
   20.7280  -30.1100   39.0570 C   0  0  0  0  0  0  0  0  0  0  0  0
   20.0670  -31.2100   39.5920 O   0  0  0  0  0  0  0  0  0  0  0  0
   19.5820  -32.1710   38.7430 C   0  0  0  0  0  0  0  0  0  0  0  0
   18.9160  -33.2510   39.3230 C   0  0  0  0  0  0  0  0  0  0  0  0
   18.3970  -34.2650   38.5140 C   0  0  0  0  0  0  0  0  0  0  0  0
   18.5460  -34.1990   37.1270 C   0  0  0  0  0  0  0  0  0  0  0  0
   19.2120  -33.1200   36.5520 C   0  0  0  0  0  0  0  0  0  0  0  0
   19.3220  -33.1190   35.1880 O   0  0  0  0  0  0  0  0  0  0  0  0
   19.7290  -32.1050   37.3610 C   0  0  0  0  0  0  0  0  0  0  0  0
   20.4360  -30.9550   36.7970 C   0  0  0  0  0  0  0  0  0  0  0  0
   20.6130  -30.8270   35.5870 O   0  0  0  0  0  0  0  0  0  0  0  0
   20.9420  -29.9310   37.7400 C   0  0  0  0  0  0  0  0  0  0  0  0
   21.6220  -28.8560   37.1990 O   0  0  0  0  0  0  0  0  0  0  0  0
   20.3780  -28.0950   40.4840 C   0  0  0  0  0  0  0  0  0  0  0  0
   20.7970  -27.1530   41.4490 C   0  0  0  0  0  0  0  0  0  0  0  0
   19.8760  -26.0240   41.8390 C   0  0  0  0  0  0  0  0  0  0  0  0
   19.6470  -25.9410   43.1820 F   0  0  0  0  0  0  0  0  0  0  0  0
   18.6300  -26.1440   41.2810 F   0  0  0  0  0  0  0  0  0  0  0  0
   20.3150  -24.7950   41.4420 F   0  0  0  0  0  0  0  0  0  0  0  0
   23.8947  -24.8116   43.3144 H   0  0  0  0  0  0  0  0  0  0  0  0
   24.1832  -25.8268   41.8608 H   0  0  0  0  0  0  0  0  0  0  0  0
   22.8579  -24.6143   41.8608 H   0  0  0  0  0  0  0  0  0  0  0  0
   22.5619  -26.4493   45.1011 H   0  0  0  0  0  0  0  0  0  0  0  0
   22.5778  -28.0345   44.2563 H   0  0  0  0  0  0  0  0  0  0  0  0
   24.0477  -27.0020   44.2563 H   0  0  0  0  0  0  0  0  0  0  0  0
   23.8910  -28.4551   42.0741 H   0  0  0  0  0  0  0  0  0  0  0  0
   23.1319  -30.0908   40.3697 H   0  0  0  0  0  0  0  0  0  0  0  0
   18.7997  -33.3041   40.4155 H   0  0  0  0  0  0  0  0  0  0  0  0
   17.8704  -35.1163   38.9701 H   0  0  0  0  0  0  0  0  0  0  0  0
   18.1381  -34.9978   36.4902 H   0  0  0  0  0  0  0  0  0  0  0  0
   19.8480  -32.4710   34.7610 H   0  0  0  0  0  0  0  0  0  0  0  0
   21.1630  -28.0630   37.0010 H   0  0  0  0  0  0  0  0  0  0  0  0
   19.3825  -27.9880   40.0285 H   0  0  0  0  0  0  0  0  0  0  0  0
  1  2  1  0
  2  3  1  0
  2  4  1  0
  4  5  2  0
  5  6  1  0
  6  7  2  0
  7  8  1  0
  8  9  1  0
  9 10  1  0
 10 11  2  0
 11 12  1  0
 12 13  2  0
 13 14  1  0
 14 15  1  0
 14 16  2  0
 16 17  1  0
 17 18  2  0
 17 19  1  0
 19 20  1  0
  7 21  1  0
 21 22  2  0
 22 23  1  0
 23 24  1  0
 23 25  1  0
 23 26  1  0
 22  4  1  0
 19  8  2  0
 16 10  1  0
  1 27  1  0
  1 28  1  0
  1 29  1  0
  3 30  1  0
  3 31  1  0
  3 32  1  0
  5 33  1  0
  6 34  1  0
 11 35  1  0
 12 36  1  0
 13 37  1  0
 15 38  1  0
 20 39  1  0
 21 40  1  0
M  END
>  <meeko>  (2) 
{"is_sidechain": [false], "free_energy": -9.115, "intermolecular_energy": -11.12, "internal_energy": -0.593}

$$$$
cand_012_out
     RDKit          3D

 40 42  0  0  0  0  0  0  0  0999 V2000
   19.5260  -26.3380   42.5230 C   0  0  0  0  0  0  0  0  0  0  0  0
   20.2420  -26.2600   41.2460 N   0  0  0  0  0  0  0  0  0  0  0  0
   20.0040  -25.0190   40.5000 C   0  0  0  0  0  0  0  0  0  0  0  0
   20.0760  -27.4020   40.4400 C   0  0  0  0  0  0  0  0  0  0  0  0
   18.9230  -27.5980   39.6640 C   0  0  0  0  0  0  0  0  0  0  0  0
   18.7720  -28.7330   38.8600 C   0  0  0  0  0  0  0  0  0  0  0  0
   19.7750  -29.7030   38.8000 C   0  0  0  0  0  0  0  0  0  0  0  0
   19.6320  -30.9250   37.9800 C   0  0  0  0  0  0  0  0  0  0  0  0
   20.0540  -30.7470   36.6680 O   0  0  0  0  0  0  0  0  0  0  0  0
   19.9730  -31.8020   35.7960 C   0  0  0  0  0  0  0  0  0  0  0  0
   20.4200  -31.5820   34.4920 C   0  0  0  0  0  0  0  0  0  0  0  0
   20.3640  -32.6160   33.5540 C   0  0  0  0  0  0  0  0  0  0  0  0
   19.8620  -33.8660   33.9190 C   0  0  0  0  0  0  0  0  0  0  0  0
   19.4170  -34.0820   35.2200 C   0  0  0  0  0  0  0  0  0  0  0  0
   18.9380  -35.3310   35.5100 O   0  0  0  0  0  0  0  0  0  0  0  0
   19.4740  -33.0490   36.1590 C   0  0  0  0  0  0  0  0  0  0  0  0
   19.0160  -33.2340   37.5370 C   0  0  0  0  0  0  0  0  0  0  0  0
   18.5560  -34.3030   37.9330 O   0  0  0  0  0  0  0  0  0  0  0  0
   19.1240  -32.0770   38.4550 C   0  0  0  0  0  0  0  0  0  0  0  0
   18.6740  -32.2570   39.7510 O   0  0  0  0  0  0  0  0  0  0  0  0
   20.9250  -29.5150   39.5800 C   0  0  0  0  0  0  0  0  0  0  0  0
   21.0910  -28.3740   40.3960 C   0  0  0  0  0  0  0  0  0  0  0  0
   22.3490  -28.2180   41.2140 C   0  0  0  0  0  0  0  0  0  0  0  0
   23.2840  -29.1820   40.9720 F   0  0  0  0  0  0  0  0  0  0  0  0
   22.1140  -28.2940   42.5610 F   0  0  0  0  0  0  0  0  0  0  0  0
   22.9730  -27.0180   41.0390 F   0  0  0  0  0  0  0  0  0  0  0  0
   20.2449  -26.2597   43.3518 H   0  0  0  0  0  0  0  0  0  0  0  0
   18.8007  -25.5136   42.5876 H   0  0  0  0  0  0  0  0  0  0  0  0
   18.9952  -27.2993   42.5876 H   0  0  0  0  0  0  0  0  0  0  0  0
   19.8452  -24.1911   41.2067 H   0  0  0  0  0  0  0  0  0  0  0  0
   20.8763  -24.7986   39.8671 H   0  0  0  0  0  0  0  0  0  0  0  0
   19.1121  -25.1370   39.8671 H   0  0  0  0  0  0  0  0  0  0  0  0
   18.1222  -26.8443   39.6885 H   0  0  0  0  0  0  0  0  0  0  0  0
   17.8535  -28.8628   38.2688 H   0  0  0  0  0  0  0  0  0  0  0  0
   20.8154  -30.5969   34.2036 H   0  0  0  0  0  0  0  0  0  0  0  0
   20.7162  -32.4445   32.5261 H   0  0  0  0  0  0  0  0  0  0  0  0
   19.8181  -34.6793   33.1796 H   0  0  0  0  0  0  0  0  0  0  0  0
   19.5330  -36.0410   35.6460 H   0  0  0  0  0  0  0  0  0  0  0  0
   19.1470  -32.8150   40.3370 H   0  0  0  0  0  0  0  0  0  0  0  0
   21.7188  -30.2761   39.5558 H   0  0  0  0  0  0  0  0  0  0  0  0
  1  2  1  0
  2  3  1  0
  2  4  1  0
  4  5  2  0
  5  6  1  0
  6  7  2  0
  7  8  1  0
  8  9  1  0
  9 10  1  0
 10 11  2  0
 11 12  1  0
 12 13  2  0
 13 14  1  0
 14 15  1  0
 14 16  2  0
 16 17  1  0
 17 18  2  0
 17 19  1  0
 19 20  1  0
  7 21  1  0
 21 22  2  0
 22 23  1  0
 23 24  1  0
 23 25  1  0
 23 26  1  0
 22  4  1  0
 19  8  2  0
 16 10  1  0
  1 27  1  0
  1 28  1  0
  1 29  1  0
  3 30  1  0
  3 31  1  0
  3 32  1  0
  5 33  1  0
  6 34  1  0
 11 35  1  0
 12 36  1  0
 13 37  1  0
 15 38  1  0
 20 39  1  0
 21 40  1  0
M  END
>  <meeko>  (3) 
{"is_sidechain": [false], "free_energy": -8.533, "intermolecular_energy": -10.465, "internal_energy": -0.531}

$$$$
cand_012_out
     RDKit          3D

 40 42  0  0  0  0  0  0  0  0999 V2000
   23.0820  -25.6940   42.0630 C   0  0  0  0  0  0  0  0  0  0  0  0
   22.2350  -26.7830   42.5580 N   0  0  0  0  0  0  0  0  0  0  0  0
   22.7620  -27.4580   43.7490 C   0  0  0  0  0  0  0  0  0  0  0  0
   21.8560  -27.6960   41.5560 C   0  0  0  0  0  0  0  0  0  0  0  0
   22.7210  -28.7090   41.1120 C   0  0  0  0  0  0  0  0  0  0  0  0
   22.3300  -29.6160   40.1220 C   0  0  0  0  0  0  0  0  0  0  0  0
   21.0570  -29.5450   39.5520 C   0  0  0  0  0  0  0  0  0  0  0  0
   20.6250  -30.4740   38.4860 C   0  0  0  0  0  0  0  0  0  0  0  0
   20.9540  -30.0240   37.2120 O   0  0  0  0  0  0  0  0  0  0  0  0
   20.6090  -30.7900   36.1280 C   0  0  0  0  0  0  0  0  0  0  0  0
   20.9690  -30.3050   34.8700 C   0  0  0  0  0  0  0  0  0  0  0  0
   20.6460  -31.0360   33.7240 C   0  0  0  0  0  0  0  0  0  0  0  0
   19.9640  -32.2490   33.8370 C   0  0  0  0  0  0  0  0  0  0  0  0
   19.6060  -32.7290   35.0940 C   0  0  0  0  0  0  0  0  0  0  0  0
   18.9390  -33.9240   35.1310 O   0  0  0  0  0  0  0  0  0  0  0  0
   19.9300  -31.9990   36.2400 C   0  0  0  0  0  0  0  0  0  0  0  0
   19.5710  -32.4670   37.5790 C   0  0  0  0  0  0  0  0  0  0  0  0
   18.9650  -33.5210   37.7600 O   0  0  0  0  0  0  0  0  0  0  0  0
   19.9640  -31.6210   38.7290 C   0  0  0  0  0  0  0  0  0  0  0  0
   19.6070  -32.0650   39.9890 O   0  0  0  0  0  0  0  0  0  0  0  0
   20.1920  -28.5310   39.9880 C   0  0  0  0  0  0  0  0  0  0  0  0
   20.5730  -27.6080   40.9870 C   0  0  0  0  0  0  0  0  0  0  0  0
   19.6030  -26.5370   41.4220 C   0  0  0  0  0  0  0  0  0  0  0  0
   19.3560  -26.5340   42.7640 F   0  0  0  0  0  0  0  0  0  0  0  0
   18.3700  -26.6770   40.8420 F   0  0  0  0  0  0  0  0  0  0  0  0
   19.9970  -25.2730   41.0950 F   0  0  0  0  0  0  0  0  0  0  0  0
   23.5089  -25.1451   42.9153 H   0  0  0  0  0  0  0  0  0  0  0  0
   23.8953  -26.1112   41.4511 H   0  0  0  0  0  0  0  0  0  0  0  0
   22.4774  -25.0084   41.4511 H   0  0  0  0  0  0  0  0  0  0  0  0
   22.3755  -26.9630   44.6521 H   0  0  0  0  0  0  0  0  0  0  0  0
   22.4449  -28.5113   43.7440 H   0  0  0  0  0  0  0  0  0  0  0  0
   23.8608  -27.4059   43.7440 H   0  0  0  0  0  0  0  0  0  0  0  0
   23.7260  -28.7908   41.5516 H   0  0  0  0  0  0  0  0  0  0  0  0
   23.0327  -30.3938   39.7886 H   0  0  0  0  0  0  0  0  0  0  0  0
   21.5060  -29.3491   34.7808 H   0  0  0  0  0  0  0  0  0  0  0  0
   20.9293  -30.6554   32.7316 H   0  0  0  0  0  0  0  0  0  0  0  0
   19.7100  -32.8244   32.9346 H   0  0  0  0  0  0  0  0  0  0  0  0
   19.3270  -34.6890   34.7530 H   0  0  0  0  0  0  0  0  0  0  0  0
   20.2600  -32.1540   40.6560 H   0  0  0  0  0  0  0  0  0  0  0  0
   19.1904  -28.4523   39.5402 H   0  0  0  0  0  0  0  0  0  0  0  0
  1  2  1  0
  2  3  1  0
  2  4  1  0
  4  5  2  0
  5  6  1  0
  6  7  2  0
  7  8  1  0
  8  9  1  0
  9 10  1  0
 10 11  2  0
 11 12  1  0
 12 13  2  0
 13 14  1  0
 14 15  1  0
 14 16  2  0
 16 17  1  0
 17 18  2  0
 17 19  1  0
 19 20  1  0
  7 21  1  0
 21 22  2  0
 22 23  1  0
 23 24  1  0
 23 25  1  0
 23 26  1  0
 22  4  1  0
 19  8  2  0
 16 10  1  0
  1 27  1  0
  1 28  1  0
  1 29  1  0
  3 30  1  0
  3 31  1  0
  3 32  1  0
  5 33  1  0
  6 34  1  0
 11 35  1  0
 12 36  1  0
 13 37  1  0
 15 38  1  0
 20 39  1  0
 21 40  1  0
M  END
>  <meeko>  (4) 
{"is_sidechain": [false], "free_energy": -8.258, "intermolecular_energy": -10.081, "internal_energy": -0.577}

$$$$
cand_012_out
     RDKit          3D

 40 42  0  0  0  0  0  0  0  0999 V2000
   20.9380  -31.3050   34.6660 C   0  0  0  0  0  0  0  0  0  0  0  0
   19.9880  -30.6030   35.5340 N   0  0  0  0  0  0  0  0  0  0  0  0
   19.2230  -29.5500   34.8560 C   0  0  0  0  0  0  0  0  0  0  0  0
   20.5580  -30.1510   36.7390 C   0  0  0  0  0  0  0  0  0  0  0  0
   21.3130  -28.9690   36.8030 C   0  0  0  0  0  0  0  0  0  0  0  0
   21.8670  -28.5240   38.0070 C   0  0  0  0  0  0  0  0  0  0  0  0
   21.6770  -29.2440   39.1890 C   0  0  0  0  0  0  0  0  0  0  0  0
   22.2730  -28.8130   40.4710 C   0  0  0  0  0  0  0  0  0  0  0  0
   23.1670  -29.7430   40.9900 O   0  0  0  0  0  0  0  0  0  0  0  0
   23.7920  -29.4700   42.1800 C   0  0  0  0  0  0  0  0  0  0  0  0
   24.6900  -30.4250   42.6580 C   0  0  0  0  0  0  0  0  0  0  0  0
   25.3590  -30.2090   43.8650 C   0  0  0  0  0  0  0  0  0  0  0  0
   25.1300  -29.0400   44.5930 C   0  0  0  0  0  0  0  0  0  0  0  0
   24.2320  -28.0900   44.1140 C   0  0  0  0  0  0  0  0  0  0  0  0
   24.0550  -26.9680   44.8780 O   0  0  0  0  0  0  0  0  0  0  0  0
   23.5640  -28.3050   42.9060 C   0  0  0  0  0  0  0  0  0  0  0  0
   22.6130  -27.3320   42.3670 C   0  0  0  0  0  0  0  0  0  0  0  0
   22.3530  -26.2820   42.9520 O   0  0  0  0  0  0  0  0  0  0  0  0
   21.9610  -27.6530   41.0770 C   0  0  0  0  0  0  0  0  0  0  0  0
   21.0520  -26.7340   40.5840 O   0  0  0  0  0  0  0  0  0  0  0  0
   20.9300  -30.4300   39.1280 C   0  0  0  0  0  0  0  0  0  0  0  0
   20.3630  -30.8900   37.9190 C   0  0  0  0  0  0  0  0  0  0  0  0
   19.5650  -32.1700   37.9090 C   0  0  0  0  0  0  0  0  0  0  0  0
   18.2500  -32.0000   38.2310 F   0  0  0  0  0  0  0  0  0  0  0  0
   20.0290  -33.0860   38.8170 F   0  0  0  0  0  0  0  0  0  0  0  0
   19.5930  -32.8260   36.7130 F   0  0  0  0  0  0  0  0  0  0  0  0
   21.6695  -31.8456   35.2846 H   0  0  0  0  0  0  0  0  0  0  0  0
   20.3949  -32.0204   34.0310 H   0  0  0  0  0  0  0  0  0  0  0  0
   21.4624  -30.5758   34.0310 H   0  0  0  0  0  0  0  0  0  0  0  0
   18.7503  -28.8993   35.6064 H   0  0  0  0  0  0  0  0  0  0  0  0
   19.8993  -28.9528   34.2267 H   0  0  0  0  0  0  0  0  0  0  0  0
   18.4460  -30.0086   34.2267 H   0  0  0  0  0  0  0  0  0  0  0  0
   21.4719  -28.3810   35.8870 H   0  0  0  0  0  0  0  0  0  0  0  0
   22.4589  -27.5970   38.0238 H   0  0  0  0  0  0  0  0  0  0  0  0
   24.8708  -31.3465   42.0852 H   0  0  0  0  0  0  0  0  0  0  0  0
   26.0674  -30.9611   44.2425 H   0  0  0  0  0  0  0  0  0  0  0  0
   25.6579  -28.8699   45.5429 H   0  0  0  0  0  0  0  0  0  0  0  0
   23.2050  -26.5800   44.9510 H   0  0  0  0  0  0  0  0  0  0  0  0
   21.2650  -25.8210   40.5790 H   0  0  0  0  0  0  0  0  0  0  0  0
   20.7820  -31.0173   40.0463 H   0  0  0  0  0  0  0  0  0  0  0  0
  1  2  1  0
  2  3  1  0
  2  4  1  0
  4  5  2  0
  5  6  1  0
  6  7  2  0
  7  8  1  0
  8  9  1  0
  9 10  1  0
 10 11  2  0
 11 12  1  0
 12 13  2  0
 13 14  1  0
 14 15  1  0
 14 16  2  0
 16 17  1  0
 17 18  2  0
 17 19  1  0
 19 20  1  0
  7 21  1  0
 21 22  2  0
 22 23  1  0
 23 24  1  0
 23 25  1  0
 23 26  1  0
 22  4  1  0
 19  8  2  0
 16 10  1  0
  1 27  1  0
  1 28  1  0
  1 29  1  0
  3 30  1  0
  3 31  1  0
  3 32  1  0
  5 33  1  0
  6 34  1  0
 11 35  1  0
 12 36  1  0
 13 37  1  0
 15 38  1  0
 20 39  1  0
 21 40  1  0
M  END
>  <meeko>  (5) 
{"is_sidechain": [false], "free_energy": -8.189, "intermolecular_energy": -10.671, "internal_energy": 0.099}

$$$$
cand_012_out
     RDKit          3D

 40 42  0  0  0  0  0  0  0  0999 V2000
   21.9400  -26.0840   41.2910 C   0  0  0  0  0  0  0  0  0  0  0  0
   20.5390  -26.4900   41.1460 N   0  0  0  0  0  0  0  0  0  0  0  0
   19.8100  -26.5920   42.4150 C   0  0  0  0  0  0  0  0  0  0  0  0
   20.3680  -27.6350   40.3440 C   0  0  0  0  0  0  0  0  0  0  0  0
   21.0970  -28.8130   40.5720 C   0  0  0  0  0  0  0  0  0  0  0  0
   20.9120  -29.9480   39.7760 C   0  0  0  0  0  0  0  0  0  0  0  0
   19.9860  -29.9420   38.7300 C   0  0  0  0  0  0  0  0  0  0  0  0
   19.7890  -31.1170   37.8550 C   0  0  0  0  0  0  0  0  0  0  0  0
   20.2010  -30.8920   36.5470 O   0  0  0  0  0  0  0  0  0  0  0  0
   20.0720  -31.9000   35.6260 C   0  0  0  0  0  0  0  0  0  0  0  0
   20.5100  -31.6330   34.3280 C   0  0  0  0  0  0  0  0  0  0  0  0
   20.4050  -32.6180   33.3430 C   0  0  0  0  0  0  0  0  0  0  0  0
   19.8630  -33.8660   33.6550 C   0  0  0  0  0  0  0  0  0  0  0  0
   19.4260  -34.1280   34.9500 C   0  0  0  0  0  0  0  0  0  0  0  0
   18.9060  -35.3720   35.1860 O   0  0  0  0  0  0  0  0  0  0  0  0
   19.5320  -33.1450   35.9360 C   0  0  0  0  0  0  0  0  0  0  0  0
   19.0850  -33.3790   37.3100 C   0  0  0  0  0  0  0  0  0  0  0  0
   18.5910  -34.4490   37.6610 O   0  0  0  0  0  0  0  0  0  0  0  0
   19.2450  -32.2730   38.2810 C   0  0  0  0  0  0  0  0  0  0  0  0
   18.8050  -32.4990   39.5730 O   0  0  0  0  0  0  0  0  0  0  0  0
   19.2610  -28.7650   38.4940 C   0  0  0  0  0  0  0  0  0  0  0  0
   19.4370  -27.6130   39.2910 C   0  0  0  0  0  0  0  0  0  0  0  0
   18.6300  -26.3720   38.9970 C   0  0  0  0  0  0  0  0  0  0  0  0
   17.8050  -25.9990   40.0180 F   0  0  0  0  0  0  0  0  0  0  0  0
   17.7980  -26.5290   37.9190 F   0  0  0  0  0  0  0  0  0  0  0  0
   19.3900  -25.2810   38.6910 F   0  0  0  0  0  0  0  0  0  0  0  0
   22.1919  -26.0110   42.3593 H   0  0  0  0  0  0  0  0  0  0  0  0
   22.5897  -26.8308   40.8113 H   0  0  0  0  0  0  0  0  0  0  0  0
   22.0897  -25.1055   40.8113 H   0  0  0  0  0  0  0  0  0  0  0  0
   20.5162  -26.4932   43.2525 H   0  0  0  0  0  0  0  0  0  0  0  0
   19.0591  -25.7902   42.4720 H   0  0  0  0  0  0  0  0  0  0  0  0
   19.3080  -27.5691   42.4720 H   0  0  0  0  0  0  0  0  0  0  0  0
   21.8283  -28.8439   41.3931 H   0  0  0  0  0  0  0  0  0  0  0  0
   21.5018  -30.8548   39.9756 H   0  0  0  0  0  0  0  0  0  0  0  0
   20.9367  -30.6496   34.0813 H   0  0  0  0  0  0  0  0  0  0  0  0
   20.7501  -32.4098   32.3195 H   0  0  0  0  0  0  0  0  0  0  0  0
   19.7815  -34.6410   32.8786 H   0  0  0  0  0  0  0  0  0  0  0  0
   18.0610  -35.4580   35.5820 H   0  0  0  0  0  0  0  0  0  0  0  0
   17.8910  -32.6210   39.7410 H   0  0  0  0  0  0  0  0  0  0  0  0
   18.5366  -28.7387   37.6667 H   0  0  0  0  0  0  0  0  0  0  0  0
  1  2  1  0
  2  3  1  0
  2  4  1  0
  4  5  2  0
  5  6  1  0
  6  7  2  0
  7  8  1  0
  8  9  1  0
  9 10  1  0
 10 11  2  0
 11 12  1  0
 12 13  2  0
 13 14  1  0
 14 15  1  0
 14 16  2  0
 16 17  1  0
 17 18  2  0
 17 19  1  0
 19 20  1  0
  7 21  1  0
 21 22  2  0
 22 23  1  0
 23 24  1  0
 23 25  1  0
 23 26  1  0
 22  4  1  0
 19  8  2  0
 16 10  1  0
  1 27  1  0
  1 28  1  0
  1 29  1  0
  3 30  1  0
  3 31  1  0
  3 32  1  0
  5 33  1  0
  6 34  1  0
 11 35  1  0
 12 36  1  0
 13 37  1  0
 15 38  1  0
 20 39  1  0
 21 40  1  0
M  END
>  <meeko>  (6) 
{"is_sidechain": [false], "free_energy": -8.172, "intermolecular_energy": -10.079, "internal_energy": -0.472}

$$$$
cand_012_out
     RDKit          3D

 40 42  0  0  0  0  0  0  0  0999 V2000
   20.7820  -24.9770   45.6450 C   0  0  0  0  0  0  0  0  0  0  0  0
   21.5670  -24.5850   44.4710 N   0  0  0  0  0  0  0  0  0  0  0  0
   21.4790  -23.1590   44.1400 C   0  0  0  0  0  0  0  0  0  0  0  0
   21.3410  -25.4040   43.3480 C   0  0  0  0  0  0  0  0  0  0  0  0
   20.1510  -25.3330   42.6070 C   0  0  0  0  0  0  0  0  0  0  0  0
   19.9410  -26.1440   41.4880 C   0  0  0  0  0  0  0  0  0  0  0  0
   20.9210  -27.0480   41.0680 C   0  0  0  0  0  0  0  0  0  0  0  0
   20.7160  -27.9370   39.9050 C   0  0  0  0  0  0  0  0  0  0  0  0
   20.4280  -29.2470   40.2710 O   0  0  0  0  0  0  0  0  0  0  0  0
   20.2180  -30.1800   39.2880 C   0  0  0  0  0  0  0  0  0  0  0  0
   19.9200  -31.4800   39.7010 C   0  0  0  0  0  0  0  0  0  0  0  0
   19.6960  -32.4780   38.7500 C   0  0  0  0  0  0  0  0  0  0  0  0
   19.7700  -32.1770   37.3890 C   0  0  0  0  0  0  0  0  0  0  0  0
   20.0690  -30.8800   36.9800 C   0  0  0  0  0  0  0  0  0  0  0  0
   20.1270  -30.6560   35.6320 O   0  0  0  0  0  0  0  0  0  0  0  0
   20.2920  -29.8810   37.9310 C   0  0  0  0  0  0  0  0  0  0  0  0
   20.6090  -28.5060   37.5450 C   0  0  0  0  0  0  0  0  0  0  0  0
   20.6990  -28.1640   36.3670 O   0  0  0  0  0  0  0  0  0  0  0  0
   20.8220  -27.5210   38.6300 C   0  0  0  0  0  0  0  0  0  0  0  0
   21.1370  -26.2280   38.2540 O   0  0  0  0  0  0  0  0  0  0  0  0
   22.1080  -27.1280   41.8100 C   0  0  0  0  0  0  0  0  0  0  0  0
   22.3340  -26.3140   42.9410 C   0  0  0  0  0  0  0  0  0  0  0  0
   23.6310  -26.4370   43.7030 C   0  0  0  0  0  0  0  0  0  0  0  0
   24.4440  -25.3490   43.5810 F   0  0  0  0  0  0  0  0  0  0  0  0
   24.3940  -27.4910   43.2740 F   0  0  0  0  0  0  0  0  0  0  0  0
   23.4650  -26.6520   45.0400 F   0  0  0  0  0  0  0  0  0  0  0  0
   21.3288  -24.7039   46.5596 H   0  0  0  0  0  0  0  0  0  0  0  0
   19.8128  -24.4571   45.6283 H   0  0  0  0  0  0  0  0  0  0  0  0
   20.6153  -26.0642   45.6283 H   0  0  0  0  0  0  0  0  0  0  0  0
   21.4426  -22.5688   45.0676 H   0  0  0  0  0  0  0  0  0  0  0  0
   22.3606  -22.8640   43.5521 H   0  0  0  0  0  0  0  0  0  0  0  0
   20.5678  -22.9746   43.5521 H   0  0  0  0  0  0  0  0  0  0  0  0
   19.3674  -24.6244   42.9132 H   0  0  0  0  0  0  0  0  0  0  0  0
   18.9947  -26.0700   40.9321 H   0  0  0  0  0  0  0  0  0  0  0  0
   19.8618  -31.7177   40.7734 H   0  0  0  0  0  0  0  0  0  0  0  0
   19.4609  -33.5026   39.0740 H   0  0  0  0  0  0  0  0  0  0  0  0
   19.5924  -32.9633   36.6406 H   0  0  0  0  0  0  0  0  0  0  0  0
   19.6760  -31.2280   35.0420 H   0  0  0  0  0  0  0  0  0  0  0  0
   21.6210  -25.6760   38.8370 H   0  0  0  0  0  0  0  0  0  0  0  0
   22.8841  -27.8444   41.5025 H   0  0  0  0  0  0  0  0  0  0  0  0
  1  2  1  0
  2  3  1  0
  2  4  1  0
  4  5  2  0
  5  6  1  0
  6  7  2  0
  7  8  1  0
  8  9  1  0
  9 10  1  0
 10 11  2  0
 11 12  1  0
 12 13  2  0
 13 14  1  0
 14 15  1  0
 14 16  2  0
 16 17  1  0
 17 18  2  0
 17 19  1  0
 19 20  1  0
  7 21  1  0
 21 22  2  0
 22 23  1  0
 23 24  1  0
 23 25  1  0
 23 26  1  0
 22  4  1  0
 19  8  2  0
 16 10  1  0
  1 27  1  0
  1 28  1  0
  1 29  1  0
  3 30  1  0
  3 31  1  0
  3 32  1  0
  5 33  1  0
  6 34  1  0
 11 35  1  0
 12 36  1  0
 13 37  1  0
 15 38  1  0
 20 39  1  0
 21 40  1  0
M  END
>  <meeko>  (7) 
{"is_sidechain": [false], "free_energy": -8.115, "intermolecular_energy": -9.935, "internal_energy": -0.545}

$$$$
cand_012_out
     RDKit          3D

 40 42  0  0  0  0  0  0  0  0999 V2000
   18.7790  -20.9260   44.7150 C   0  0  0  0  0  0  0  0  0  0  0  0
   19.9940  -21.3550   45.4140 N   0  0  0  0  0  0  0  0  0  0  0  0
   20.9910  -20.2930   45.5880 C   0  0  0  0  0  0  0  0  0  0  0  0
   20.5590  -22.5300   44.8840 C   0  0  0  0  0  0  0  0  0  0  0  0
   21.1260  -22.5640   43.6000 C   0  0  0  0  0  0  0  0  0  0  0  0
   21.6930  -23.7350   43.0870 C   0  0  0  0  0  0  0  0  0  0  0  0
   21.7190  -24.9070   43.8460 C   0  0  0  0  0  0  0  0  0  0  0  0
   22.2870  -26.1660   43.3200 C   0  0  0  0  0  0  0  0  0  0  0  0
   21.7060  -26.5620   42.1200 O   0  0  0  0  0  0  0  0  0  0  0  0
   22.1380  -27.7180   41.5220 C   0  0  0  0  0  0  0  0  0  0  0  0
   21.5350  -28.0700   40.3140 C   0  0  0  0  0  0  0  0  0  0  0  0
   21.9300  -29.2360   39.6530 C   0  0  0  0  0  0  0  0  0  0  0  0
   22.9240  -30.0480   40.2000 C   0  0  0  0  0  0  0  0  0  0  0  0
   23.5230  -29.6940   41.4060 C   0  0  0  0  0  0  0  0  0  0  0  0
   24.4900  -30.5360   41.8860 O   0  0  0  0  0  0  0  0  0  0  0  0
   23.1300  -28.5280   42.0660 C   0  0  0  0  0  0  0  0  0  0  0  0
   23.7330  -28.1200   43.3360 C   0  0  0  0  0  0  0  0  0  0  0  0
   24.6100  -28.7850   43.8840 O   0  0  0  0  0  0  0  0  0  0  0  0
   23.2490  -26.8630   43.9520 C   0  0  0  0  0  0  0  0  0  0  0  0
   23.8150  -26.4950   45.1600 O   0  0  0  0  0  0  0  0  0  0  0  0
   21.1470  -24.8790   45.1260 C   0  0  0  0  0  0  0  0  0  0  0  0
   20.5720  -23.7040   45.6570 C   0  0  0  0  0  0  0  0  0  0  0  0
   19.9720  -23.7270   47.0420 C   0  0  0  0  0  0  0  0  0  0  0  0
   20.5290  -22.8200   47.8960 F   0  0  0  0  0  0  0  0  0  0  0  0
   20.1340  -24.9360   47.6650 F   0  0  0  0  0  0  0  0  0  0  0  0
   18.6260  -23.5060   47.0610 F   0  0  0  0  0  0  0  0  0  0  0  0
   18.0088  -20.6540   45.4518 H   0  0  0  0  0  0  0  0  0  0  0  0
   19.0073  -20.0541   44.0844 H   0  0  0  0  0  0  0  0  0  0  0  0
   18.4092  -21.7479   44.0844 H   0  0  0  0  0  0  0  0  0  0  0  0
   21.1560  -20.1172   46.6613 H   0  0  0  0  0  0  0  0  0  0  0  0
   21.9371  -20.5974   45.1166 H   0  0  0  0  0  0  0  0  0  0  0  0
   20.6275  -19.3680   45.1166 H   0  0  0  0  0  0  0  0  0  0  0  0
   21.1242  -21.6517   42.9855 H   0  0  0  0  0  0  0  0  0  0  0  0
   22.1232  -23.7329   42.0746 H   0  0  0  0  0  0  0  0  0  0  0  0
   20.7503  -27.4309   39.8829 H   0  0  0  0  0  0  0  0  0  0  0  0
   21.4565  -29.5141   38.6999 H   0  0  0  0  0  0  0  0  0  0  0  0
   23.2339  -30.9662   39.6794 H   0  0  0  0  0  0  0  0  0  0  0  0
   24.5200  -31.4270   41.5980 H   0  0  0  0  0  0  0  0  0  0  0  0
   24.2990  -25.6950   45.2250 H   0  0  0  0  0  0  0  0  0  0  0  0
   21.1463  -25.7968   45.7324 H   0  0  0  0  0  0  0  0  0  0  0  0
  1  2  1  0
  2  3  1  0
  2  4  1  0
  4  5  2  0
  5  6  1  0
  6  7  2  0
  7  8  1  0
  8  9  1  0
  9 10  1  0
 10 11  2  0
 11 12  1  0
 12 13  2  0
 13 14  1  0
 14 15  1  0
 14 16  2  0
 16 17  1  0
 17 18  2  0
 17 19  1  0
 19 20  1  0
  7 21  1  0
 21 22  2  0
 22 23  1  0
 23 24  1  0
 23 25  1  0
 23 26  1  0
 22  4  1  0
 19  8  2  0
 16 10  1  0
  1 27  1  0
  1 28  1  0
  1 29  1  0
  3 30  1  0
  3 31  1  0
  3 32  1  0
  5 33  1  0
  6 34  1  0
 11 35  1  0
 12 36  1  0
 13 37  1  0
 15 38  1  0
 20 39  1  0
 21 40  1  0
M  END
>  <meeko>  (8) 
{"is_sidechain": [false], "free_energy": -7.851, "intermolecular_energy": -9.741, "internal_energy": -0.414}

$$$$
cand_012_out
     RDKit          3D

 40 42  0  0  0  0  0  0  0  0999 V2000
   18.8490  -20.5100   44.1250 C   0  0  0  0  0  0  0  0  0  0  0  0
   19.9830  -21.0290   44.8930 N   0  0  0  0  0  0  0  0  0  0  0  0
   21.0470  -20.0470   45.1300 C   0  0  0  0  0  0  0  0  0  0  0  0
   20.4870  -22.2450   44.3940 C   0  0  0  0  0  0  0  0  0  0  0  0
   21.1700  -22.3170   43.1690 C   0  0  0  0  0  0  0  0  0  0  0  0
   21.6740  -23.5290   42.6870 C   0  0  0  0  0  0  0  0  0  0  0  0
   21.5200  -24.7070   43.4210 C   0  0  0  0  0  0  0  0  0  0  0  0
   22.0180  -26.0070   42.9240 C   0  0  0  0  0  0  0  0  0  0  0  0
   23.0090  -26.5510   43.7340 O   0  0  0  0  0  0  0  0  0  0  0  0
   23.5630  -27.7560   43.3870 C   0  0  0  0  0  0  0  0  0  0  0  0
   24.5450  -28.2700   44.2350 C   0  0  0  0  0  0  0  0  0  0  0  0
   25.1500  -29.4940   43.9390 C   0  0  0  0  0  0  0  0  0  0  0  0
   24.7740  -30.2020   42.7960 C   0  0  0  0  0  0  0  0  0  0  0  0
   23.7950  -29.6860   41.9510 C   0  0  0  0  0  0  0  0  0  0  0  0
   23.4760  -30.4310   40.8480 O   0  0  0  0  0  0  0  0  0  0  0  0
   23.1890  -28.4630   42.2480 C   0  0  0  0  0  0  0  0  0  0  0  0
   22.1560  -27.8850   41.3870 C   0  0  0  0  0  0  0  0  0  0  0  0
   21.7760  -28.4440   40.3600 O   0  0  0  0  0  0  0  0  0  0  0  0
   21.5730  -26.5860   41.7940 C   0  0  0  0  0  0  0  0  0  0  0  0
   20.6090  -26.0410   40.9650 O   0  0  0  0  0  0  0  0  0  0  0  0
   20.8320  -24.6420   44.6410 C   0  0  0  0  0  0  0  0  0  0  0  0
   20.3180  -23.4250   45.1400 C   0  0  0  0  0  0  0  0  0  0  0  0
   19.5880  -23.4090   46.4610 C   0  0  0  0  0  0  0  0  0  0  0  0
   20.0530  -22.4690   47.3330 F   0  0  0  0  0  0  0  0  0  0  0  0
   19.6990  -24.5950   47.1380 F   0  0  0  0  0  0  0  0  0  0  0  0
   18.2450  -23.2030   46.3440 F   0  0  0  0  0  0  0  0  0  0  0  0
   18.0706  -20.1538   44.8158 H   0  0  0  0  0  0  0  0  0  0  0  0
   19.1861  -19.6765   43.4912 H   0  0  0  0  0  0  0  0  0  0  0  0
   18.4386  -21.3099   43.4912 H   0  0  0  0  0  0  0  0  0  0  0  0
   21.1898  -19.9152   46.2127 H   0  0  0  0  0  0  0  0  0  0  0  0
   21.9836  -20.4048   44.6775 H   0  0  0  0  0  0  0  0  0  0  0  0
   20.7653  -19.0848   44.6775 H   0  0  0  0  0  0  0  0  0  0  0  0
   21.3114  -21.4011   42.5765 H   0  0  0  0  0  0  0  0  0  0  0  0
   22.1972  -23.5548   41.7197 H   0  0  0  0  0  0  0  0  0  0  0  0
   24.8423  -27.7122   45.1352 H   0  0  0  0  0  0  0  0  0  0  0  0
   25.9235  -29.9003   44.6073 H   0  0  0  0  0  0  0  0  0  0  0  0
   25.2504  -31.1658   42.5634 H   0  0  0  0  0  0  0  0  0  0  0  0
   22.6400  -30.3250   40.4370 H   0  0  0  0  0  0  0  0  0  0  0  0
   19.7520  -26.4200   40.9320 H   0  0  0  0  0  0  0  0  0  0  0  0
   20.6888  -25.5632   45.2248 H   0  0  0  0  0  0  0  0  0  0  0  0
  1  2  1  0
  2  3  1  0
  2  4  1  0
  4  5  2  0
  5  6  1  0
  6  7  2  0
  7  8  1  0
  8  9  1  0
  9 10  1  0
 10 11  2  0
 11 12  1  0
 12 13  2  0
 13 14  1  0
 14 15  1  0
 14 16  2  0
 16 17  1  0
 17 18  2  0
 17 19  1  0
 19 20  1  0
  7 21  1  0
 21 22  2  0
 22 23  1  0
 23 24  1  0
 23 25  1  0
 23 26  1  0
 22  4  1  0
 19  8  2  0
 16 10  1  0
  1 27  1  0
  1 28  1  0
  1 29  1  0
  3 30  1  0
  3 31  1  0
  3 32  1  0
  5 33  1  0
  6 34  1  0
 11 35  1  0
 12 36  1  0
 13 37  1  0
 15 38  1  0
 20 39  1  0
 21 40  1  0
M  END
>  <meeko>  (9) 
{"is_sidechain": [false], "free_energy": -7.841, "intermolecular_energy": -9.666, "internal_energy": -0.477}

$$$$
