cand_035_out
     RDKit          3D

 36 38  0  0  0  0  0  0  0  0999 V2000
   24.8470  -30.9980   43.1250 C   0  0  0  0  0  0  0  0  0  0  0  0
   24.8340  -29.7080   42.7690 C   0  0  0  0  0  0  0  0  0  0  0  0
   23.6730  -29.0990   42.1130 C   0  0  0  0  0  0  0  0  0  0  0  0
   23.0480  -29.8210   41.0820 C   0  0  0  0  0  0  0  0  0  0  0  0
   21.9330  -29.3070   40.4030 C   0  0  0  0  0  0  0  0  0  0  0  0
   21.3180  -30.0820   39.3060 C   0  0  0  0  0  0  0  0  0  0  0  0
   20.5160  -31.1220   39.7630 O   0  0  0  0  0  0  0  0  0  0  0  0
   19.8830  -31.9230   38.8480 C   0  0  0  0  0  0  0  0  0  0  0  0
   19.0990  -32.9630   39.3500 C   0  0  0  0  0  0  0  0  0  0  0  0
   18.4260  -33.8150   38.4710 C   0  0  0  0  0  0  0  0  0  0  0  0
   18.5360  -33.6260   37.0920 C   0  0  0  0  0  0  0  0  0  0  0  0
   19.3190  -32.5880   36.5930 C   0  0  0  0  0  0  0  0  0  0  0  0
   19.3820  -32.4600   35.2330 O   0  0  0  0  0  0  0  0  0  0  0  0
   19.9930  -31.7360   37.4730 C   0  0  0  0  0  0  0  0  0  0  0  0
   20.8250  -30.6330   36.9900 C   0  0  0  0  0  0  0  0  0  0  0  0
   20.9650  -30.3980   35.7930 O   0  0  0  0  0  0  0  0  0  0  0  0
   21.5020  -29.7930   38.0050 C   0  0  0  0  0  0  0  0  0  0  0  0
   22.2740  -28.7440   37.5410 O   0  0  0  0  0  0  0  0  0  0  0  0
   21.4600  -28.0410   40.7660 C   0  0  0  0  0  0  0  0  0  0  0  0
   22.0740  -27.3150   41.7900 C   0  0  0  0  0  0  0  0  0  0  0  0
   23.1830  -27.8320   42.4760 C   0  0  0  0  0  0  0  0  0  0  0  0
   23.8230  -27.0230   43.5750 C   0  0  0  0  0  0  0  0  0  0  0  0
   24.6140  -26.0100   43.1120 F   0  0  0  0  0  0  0  0  0  0  0  0
   25.7344  -31.4242   43.6157 H   0  0  0  0  0  0  0  0  0  0  0  0
   23.9703  -31.6321   42.9269 H   0  0  0  0  0  0  0  0  0  0  0  0
   25.7188  -29.0876   42.9743 H   0  0  0  0  0  0  0  0  0  0  0  0
   23.4410  -30.8094   40.8016 H   0  0  0  0  0  0  0  0  0  0  0  0
   19.0112  -33.1115   40.4364 H   0  0  0  0  0  0  0  0  0  0  0  0
   17.8088  -34.6356   38.8657 H   0  0  0  0  0  0  0  0  0  0  0  0
   18.0047  -34.2963   36.4004 H   0  0  0  0  0  0  0  0  0  0  0  0
   19.8900  -31.7730   34.8490 H   0  0  0  0  0  0  0  0  0  0  0  0
   21.9190  -27.8770   37.5110 H   0  0  0  0  0  0  0  0  0  0  0  0
   20.5948  -27.6123   40.2391 H   0  0  0  0  0  0  0  0  0  0  0  0
   21.6821  -26.3239   42.0621 H   0  0  0  0  0  0  0  0  0  0  0  0
   23.0267  -26.5875   44.1965 H   0  0  0  0  0  0  0  0  0  0  0  0
   24.4697  -27.7052   44.1463 H   0  0  0  0  0  0  0  0  0  0  0  0
  1  2  2  0
  2  3  1  0
  3  4  2  0
  4  5  1  0
  5  6  1  0
  6  7  1  0
  7  8  1  0
  8  9  2  0
  9 10  1  0
 10 11  2  0
 11 12  1  0
 12 13  1  0
 12 14  2  0
 14 15  1  0
 15 16  2  0
 15 17  1  0
 17 18  1  0
  5 19  2  0
 19 20  1  0
 20 21  2  0
 21 22  1  0
 22 23  1  0
 21  3  1  0
 17  6  2  0
 14  8  1  0
  1 24  1  0
  1 25  1  0
  2 26  1  0
  4 27  1  0
  9 28  1  0
 10 29  1  0
 11 30  1  0
 13 31  1  0
 18 32  1  0
 19 33  1  0
 20 34  1  0
 22 35  1  0
 22 36  1  0
M  END
>  <meeko>  (1) 
{"is_sidechain": [false], "free_energy": -9.227, "intermolecular_energy": -11.384, "internal_energy": -0.537}

$$$$
cand_035_out
     RDKit          3D

 36 38  0  0  0  0  0  0  0  0999 V2000
   20.1330  -26.1610   42.6380 C   0  0  0  0  0  0  0  0  0  0  0  0
   21.4170  -26.1960   42.2630 C   0  0  0  0  0  0  0  0  0  0  0  0
   22.0700  -27.4440   41.8560 C   0  0  0  0  0  0  0  0  0  0  0  0
   21.4930  -28.1740   40.8040 C   0  0  0  0  0  0  0  0  0  0  0  0
   22.0560  -29.3780   40.3560 C   0  0  0  0  0  0  0  0  0  0  0  0
   21.4060  -30.1330   39.2640 C   0  0  0  0  0  0  0  0  0  0  0  0
   20.6110  -31.1750   39.7280 O   0  0  0  0  0  0  0  0  0  0  0  0
   19.9480  -31.9590   38.8190 C   0  0  0  0  0  0  0  0  0  0  0  0
   19.1720  -33.0020   39.3270 C   0  0  0  0  0  0  0  0  0  0  0  0
   18.4700  -33.8370   38.4550 C   0  0  0  0  0  0  0  0  0  0  0  0
   18.5430  -33.6280   37.0760 C   0  0  0  0  0  0  0  0  0  0  0  0
   19.3180  -32.5870   36.5720 C   0  0  0  0  0  0  0  0  0  0  0  0
   19.3430  -32.4390   35.2120 O   0  0  0  0  0  0  0  0  0  0  0  0
   20.0210  -31.7520   37.4450 C   0  0  0  0  0  0  0  0  0  0  0  0
   20.8460  -30.6470   36.9550 C   0  0  0  0  0  0  0  0  0  0  0  0
   20.9540  -30.3950   35.7580 O   0  0  0  0  0  0  0  0  0  0  0  0
   21.5560  -29.8260   37.9630 C   0  0  0  0  0  0  0  0  0  0  0  0
   22.3210  -28.7750   37.4930 O   0  0  0  0  0  0  0  0  0  0  0  0
   23.2080  -29.8510   40.9940 C   0  0  0  0  0  0  0  0  0  0  0  0
   23.7910  -29.1330   42.0420 C   0  0  0  0  0  0  0  0  0  0  0  0
   23.2340  -27.9230   42.4840 C   0  0  0  0  0  0  0  0  0  0  0  0
   23.8860  -27.1730   43.6170 C   0  0  0  0  0  0  0  0  0  0  0  0
   24.6320  -26.1060   43.2050 F   0  0  0  0  0  0  0  0  0  0  0  0
   19.6733  -25.2076   42.9377 H   0  0  0  0  0  0  0  0  0  0  0  0
   19.5371  -27.0856   42.6466 H   0  0  0  0  0  0  0  0  0  0  0  0
   21.9988  -25.2625   42.2600 H   0  0  0  0  0  0  0  0  0  0  0  0
   20.5806  -27.7936   40.3214 H   0  0  0  0  0  0  0  0  0  0  0  0
   19.1134  -33.1662   40.4131 H   0  0  0  0  0  0  0  0  0  0  0  0
   17.8591  -34.6599   38.8546 H   0  0  0  0  0  0  0  0  0  0  0  0
   17.9890  -34.2848   36.3892 H   0  0  0  0  0  0  0  0  0  0  0  0
   20.1620  -32.3630   34.7630 H   0  0  0  0  0  0  0  0  0  0  0  0
   21.9840  -27.9010   37.5190 H   0  0  0  0  0  0  0  0  0  0  0  0
   23.6601  -30.7990   40.6670 H   0  0  0  0  0  0  0  0  0  0  0  0
   24.6987  -29.5216   42.5269 H   0  0  0  0  0  0  0  0  0  0  0  0
   23.0980  -26.8073   44.2917 H   0  0  0  0  0  0  0  0  0  0  0  0
   24.5711  -27.8733   44.1172 H   0  0  0  0  0  0  0  0  0  0  0  0
  1  2  2  0
  2  3  1  0
  3  4  2  0
  4  5  1  0
  5  6  1  0
  6  7  1  0
  7  8  1  0
  8  9  2  0
  9 10  1  0
 10 11  2  0
 11 12  1  0
 12 13  1  0
 12 14  2  0
 14 15  1  0
 15 16  2  0
 15 17  1  0
 17 18  1  0
  5 19  2  0
 19 20  1  0
 20 21  2  0
 21 22  1  0
 22 23  1  0
 21  3  1  0
 17  6  2  0
 14  8  1  0
  1 24  1  0
  1 25  1  0
  2 26  1  0
  4 27  1  0
  9 28  1  0
 10 29  1  0
 11 30  1  0
 13 31  1  0
 18 32  1  0
 19 33  1  0
 20 34  1  0
 22 35  1  0
 22 36  1  0
M  END
>  <meeko>  (2) 
{"is_sidechain": [false], "free_energy": -9.055, "intermolecular_energy": -11.125, "internal_energy": -0.584}

$$$$
cand_035_out
     RDKit          3D

 36 38  0  0  0  0  0  0  0  0999 V2000
   18.8940  -33.1900   39.8270 C   0  0  0  0  0  0  0  0  0  0  0  0
   18.6090  -32.1100   39.0910 C   0  0  0  0  0  0  0  0  0  0  0  0
   19.6510  -31.1840   38.6390 C   0  0  0  0  0  0  0  0  0  0  0  0
   20.1460  -30.2500   39.5660 C   0  0  0  0  0  0  0  0  0  0  0  0
   21.1440  -29.3290   39.2130 C   0  0  0  0  0  0  0  0  0  0  0  0
   21.6210  -28.3450   40.2050 C   0  0  0  0  0  0  0  0  0  0  0  0
   22.5050  -28.8940   41.1280 O   0  0  0  0  0  0  0  0  0  0  0  0
   23.0260  -28.0880   42.1080 C   0  0  0  0  0  0  0  0  0  0  0  0
   23.8980  -28.6820   43.0210 C   0  0  0  0  0  0  0  0  0  0  0  0
   24.4650  -27.9170   44.0420 C   0  0  0  0  0  0  0  0  0  0  0  0
   24.1610  -26.5590   44.1500 C   0  0  0  0  0  0  0  0  0  0  0  0
   23.2900  -25.9680   43.2380 C   0  0  0  0  0  0  0  0  0  0  0  0
   23.0370  -24.6330   43.4020 O   0  0  0  0  0  0  0  0  0  0  0  0
   22.7230  -26.7340   42.2160 C   0  0  0  0  0  0  0  0  0  0  0  0
   21.8040  -26.1510   41.2370 C   0  0  0  0  0  0  0  0  0  0  0  0
   21.4930  -24.9630   41.2610 O   0  0  0  0  0  0  0  0  0  0  0  0
   21.2520  -27.0510   40.1980 C   0  0  0  0  0  0  0  0  0  0  0  0
   20.3960  -26.4900   39.2690 O   0  0  0  0  0  0  0  0  0  0  0  0
   21.6300  -29.3480   37.9010 C   0  0  0  0  0  0  0  0  0  0  0  0
   21.1450  -30.2710   36.9710 C   0  0  0  0  0  0  0  0  0  0  0  0
   20.1540  -31.1990   37.3270 C   0  0  0  0  0  0  0  0  0  0  0  0
   19.6510  -32.1820   36.3000 C   0  0  0  0  0  0  0  0  0  0  0  0
   20.4170  -32.2260   35.1690 F   0  0  0  0  0  0  0  0  0  0  0  0
   18.0870  -33.8644   40.1495 H   0  0  0  0  0  0  0  0  0  0  0  0
   19.9353  -33.4037   40.1097 H   0  0  0  0  0  0  0  0  0  0  0  0
   17.5623  -31.9112   38.8172 H   0  0  0  0  0  0  0  0  0  0  0  0
   19.7425  -30.2411   40.5893 H   0  0  0  0  0  0  0  0  0  0  0  0
   24.1385  -29.7520   42.9364 H   0  0  0  0  0  0  0  0  0  0  0  0
   25.1522  -28.3851   44.7622 H   0  0  0  0  0  0  0  0  0  0  0  0
   24.6086  -25.9565   44.9541 H   0  0  0  0  0  0  0  0  0  0  0  0
   23.4800  -24.0030   42.8690 H   0  0  0  0  0  0  0  0  0  0  0  0
   19.4680  -26.5580   39.3840 H   0  0  0  0  0  0  0  0  0  0  0  0
   22.4037  -28.6272   37.5980 H   0  0  0  0  0  0  0  0  0  0  0  0
   21.5451  -30.2704   35.9463 H   0  0  0  0  0  0  0  0  0  0  0  0
   19.6403  -33.1844   36.7529 H   0  0  0  0  0  0  0  0  0  0  0  0
   18.6463  -31.8507   35.9986 H   0  0  0  0  0  0  0  0  0  0  0  0
  1  2  2  0
  2  3  1  0
  3  4  2  0
  4  5  1  0
  5  6  1  0
  6  7  1  0
  7  8  1  0
  8  9  2  0
  9 10  1  0
 10 11  2  0
 11 12  1  0
 12 13  1  0
 12 14  2  0
 14 15  1  0
 15 16  2  0
 15 17  1  0
 17 18  1  0
  5 19  2  0
 19 20  1  0
 20 21  2  0
 21 22  1  0
 22 23  1  0
 21  3  1  0
 17  6  2  0
 14  8  1  0
  1 24  1  0
  1 25  1  0
  2 26  1  0
  4 27  1  0
  9 28  1  0
 10 29  1  0
 11 30  1  0
 13 31  1  0
 18 32  1  0
 19 33  1  0
 20 34  1  0
 22 35  1  0
 22 36  1  0
M  END
>  <meeko>  (3) 
{"is_sidechain": [false], "free_energy": -8.767, "intermolecular_energy": -10.847, "internal_energy": -0.507}

$$$$
cand_035_out
     RDKit          3D

 36 38  0  0  0  0  0  0  0  0999 V2000
   23.6520  -28.9160   43.7970 C   0  0  0  0  0  0  0  0  0  0  0  0
   23.8530  -28.3190   42.6160 C   0  0  0  0  0  0  0  0  0  0  0  0
   22.7420  -27.9710   41.7250 C   0  0  0  0  0  0  0  0  0  0  0  0
   22.2510  -28.9710   40.8680 C   0  0  0  0  0  0  0  0  0  0  0  0
   21.1900  -28.7180   39.9850 C   0  0  0  0  0  0  0  0  0  0  0  0
   20.7180  -29.7850   39.0790 C   0  0  0  0  0  0  0  0  0  0  0  0
   20.0330  -30.7950   39.7450 O   0  0  0  0  0  0  0  0  0  0  0  0
   19.5380  -31.8500   39.0220 C   0  0  0  0  0  0  0  0  0  0  0  0
   18.8700  -32.8480   39.7320 C   0  0  0  0  0  0  0  0  0  0  0  0
   18.3400  -33.9490   39.0560 C   0  0  0  0  0  0  0  0  0  0  0  0
   18.4790  -34.0520   37.6700 C   0  0  0  0  0  0  0  0  0  0  0  0
   19.1470  -33.0550   36.9640 C   0  0  0  0  0  0  0  0  0  0  0  0
   19.2460  -33.2190   35.6090 O   0  0  0  0  0  0  0  0  0  0  0  0
   19.6770  -31.9530   37.6410 C   0  0  0  0  0  0  0  0  0  0  0  0
   20.3850  -30.8840   36.9360 C   0  0  0  0  0  0  0  0  0  0  0  0
   20.5410  -30.8990   35.7180 O   0  0  0  0  0  0  0  0  0  0  0  0
   20.9150  -29.7640   37.7480 C   0  0  0  0  0  0  0  0  0  0  0  0
   21.5690  -28.7510   37.0720 O   0  0  0  0  0  0  0  0  0  0  0  0
   20.6360  -27.4340   39.9620 C   0  0  0  0  0  0  0  0  0  0  0  0
   21.1170  -26.4320   40.8110 C   0  0  0  0  0  0  0  0  0  0  0  0
   22.1710  -26.6870   41.7010 C   0  0  0  0  0  0  0  0  0  0  0  0
   22.6670  -25.5850   42.6020 C   0  0  0  0  0  0  0  0  0  0  0  0
   23.5060  -24.7080   41.9760 F   0  0  0  0  0  0  0  0  0  0  0  0
   24.5087  -29.1633   44.4412 H   0  0  0  0  0  0  0  0  0  0  0  0
   22.6301  -29.1594   44.1234 H   0  0  0  0  0  0  0  0  0  0  0  0
   24.8813  -28.0827   42.3050 H   0  0  0  0  0  0  0  0  0  0  0  0
   22.7074  -29.9716   40.8899 H   0  0  0  0  0  0  0  0  0  0  0  0
   18.7609  -32.7677   40.8236 H   0  0  0  0  0  0  0  0  0  0  0  0
   17.8127  -34.7357   39.6154 H   0  0  0  0  0  0  0  0  0  0  0  0
   18.0615  -34.9191   37.1372 H   0  0  0  0  0  0  0  0  0  0  0  0
   19.9350  -32.7970   35.1340 H   0  0  0  0  0  0  0  0  0  0  0  0
   21.1960  -28.3910   36.2920 H   0  0  0  0  0  0  0  0  0  0  0  0
   19.8125  -27.2096   39.2682 H   0  0  0  0  0  0  0  0  0  0  0  0
   20.6628  -25.4306   40.7805 H   0  0  0  0  0  0  0  0  0  0  0  0
   21.7981  -25.0265   42.9803 H   0  0  0  0  0  0  0  0  0  0  0  0
   23.2403  -26.0609   43.4112 H   0  0  0  0  0  0  0  0  0  0  0  0
  1  2  2  0
  2  3  1  0
  3  4  2  0
  4  5  1  0
  5  6  1  0
  6  7  1  0
  7  8  1  0
  8  9  2  0
  9 10  1  0
 10 11  2  0
 11 12  1  0
 12 13  1  0
 12 14  2  0
 14 15  1  0
 15 16  2  0
 15 17  1  0
 17 18  1  0
  5 19  2  0
 19 20  1  0
 20 21  2  0
 21 22  1  0
 22 23  1  0
 21  3  1  0
 17  6  2  0
 14  8  1  0
  1 24  1  0
  1 25  1  0
  2 26  1  0
  4 27  1  0
  9 28  1  0
 10 29  1  0
 11 30  1  0
 13 31  1  0
 18 32  1  0
 19 33  1  0
 20 34  1  0
 22 35  1  0
 22 36  1  0
M  END
>  <meeko>  (4) 
{"is_sidechain": [false], "free_energy": -8.694, "intermolecular_energy": -10.77, "internal_energy": -0.494}

$$$$
cand_035_out
     RDKit          3D

 36 38  0  0  0  0  0  0  0  0999 V2000
   19.2180  -32.7530   39.7940 C   0  0  0  0  0  0  0  0  0  0  0  0
   19.3910  -32.1270   38.6250 C   0  0  0  0  0  0  0  0  0  0  0  0
   20.2930  -30.9790   38.4880 C   0  0  0  0  0  0  0  0  0  0  0  0
   20.7440  -30.3550   39.6640 C   0  0  0  0  0  0  0  0  0  0  0  0
   21.6080  -29.2510   39.6180 C   0  0  0  0  0  0  0  0  0  0  0  0
   22.0410  -28.6030   40.8740 C   0  0  0  0  0  0  0  0  0  0  0  0
   21.2290  -27.5350   41.2390 O   0  0  0  0  0  0  0  0  0  0  0  0
   21.5180  -26.8440   42.3870 C   0  0  0  0  0  0  0  0  0  0  0  0
   20.6850  -25.7710   42.7080 C   0  0  0  0  0  0  0  0  0  0  0  0
   20.9240  -25.0260   43.8650 C   0  0  0  0  0  0  0  0  0  0  0  0
   21.9940  -25.3540   44.7000 C   0  0  0  0  0  0  0  0  0  0  0  0
   22.8230  -26.4250   44.3770 C   0  0  0  0  0  0  0  0  0  0  0  0
   23.8510  -26.6910   45.2400 O   0  0  0  0  0  0  0  0  0  0  0  0
   22.5850  -27.1700   43.2200 C   0  0  0  0  0  0  0  0  0  0  0  0
   23.4320  -28.3030   42.8450 C   0  0  0  0  0  0  0  0  0  0  0  0
   24.3870  -28.6580   43.5320 O   0  0  0  0  0  0  0  0  0  0  0  0
   23.0980  -29.0220   41.5940 C   0  0  0  0  0  0  0  0  0  0  0  0
   23.8940  -30.1000   41.2550 O   0  0  0  0  0  0  0  0  0  0  0  0
   22.0030  -28.7670   38.3660 C   0  0  0  0  0  0  0  0  0  0  0  0
   21.5600  -29.3800   37.1910 C   0  0  0  0  0  0  0  0  0  0  0  0
   20.7040  -30.4900   37.2350 C   0  0  0  0  0  0  0  0  0  0  0  0
   20.2430  -31.1270   35.9490 C   0  0  0  0  0  0  0  0  0  0  0  0
   21.1790  -31.0820   34.9550 F   0  0  0  0  0  0  0  0  0  0  0  0
   18.5336  -33.6114   39.8622 H   0  0  0  0  0  0  0  0  0  0  0  0
   19.7601  -32.4095   40.6874 H   0  0  0  0  0  0  0  0  0  0  0  0
   18.8412  -32.4833   37.7414 H   0  0  0  0  0  0  0  0  0  0  0  0
   20.4128  -30.7401   40.6397 H   0  0  0  0  0  0  0  0  0  0  0  0
   19.8416  -25.5125   42.0508 H   0  0  0  0  0  0  0  0  0  0  0  0
   20.2685  -24.1799   44.1187 H   0  0  0  0  0  0  0  0  0  0  0  0
   22.1817  -24.7673   45.6114 H   0  0  0  0  0  0  0  0  0  0  0  0
   24.3600  -27.4710   45.1380 H   0  0  0  0  0  0  0  0  0  0  0  0
   24.3510  -30.1070   40.4370 H   0  0  0  0  0  0  0  0  0  0  0  0
   22.6697  -27.8942   38.3060 H   0  0  0  0  0  0  0  0  0  0  0  0
   21.8874  -28.9862   36.2175 H   0  0  0  0  0  0  0  0  0  0  0  0
   19.9982  -32.1804   36.1499 H   0  0  0  0  0  0  0  0  0  0  0  0
   19.3700  -30.5566   35.5989 H   0  0  0  0  0  0  0  0  0  0  0  0
  1  2  2  0
  2  3  1  0
  3  4  2  0
  4  5  1  0
  5  6  1  0
  6  7  1  0
  7  8  1  0
  8  9  2  0
  9 10  1  0
 10 11  2  0
 11 12  1  0
 12 13  1  0
 12 14  2  0
 14 15  1  0
 15 16  2  0
 15 17  1  0
 17 18  1  0
  5 19  2  0
 19 20  1  0
 20 21  2  0
 21 22  1  0
 22 23  1  0
 21  3  1  0
 17  6  2  0
 14  8  1  0
  1 24  1  0
  1 25  1  0
  2 26  1  0
  4 27  1  0
  9 28  1  0
 10 29  1  0
 11 30  1  0
 13 31  1  0
 18 32  1  0
 19 33  1  0
 20 34  1  0
 22 35  1  0
 22 36  1  0
M  END
>  <meeko>  (5) 
{"is_sidechain": [false], "free_energy": -8.484, "intermolecular_energy": -10.462, "internal_energy": -0.543}

$$$$
cand_035_out
     RDKit          3D

 36 38  0  0  0  0  0  0  0  0999 V2000
   23.4560  -29.7980   41.3120 C   0  0  0  0  0  0  0  0  0  0  0  0
   22.6990  -28.7070   41.1510 C   0  0  0  0  0  0  0  0  0  0  0  0
   21.4210  -28.7500   40.4330 C   0  0  0  0  0  0  0  0  0  0  0  0
   21.1790  -29.8480   39.5900 C   0  0  0  0  0  0  0  0  0  0  0  0
   19.9820  -29.9640   38.8680 C   0  0  0  0  0  0  0  0  0  0  0  0
   19.7730  -31.1180   37.9690 C   0  0  0  0  0  0  0  0  0  0  0  0
   20.1780  -30.8650   36.6630 O   0  0  0  0  0  0  0  0  0  0  0  0
   20.0400  -31.8540   35.7230 C   0  0  0  0  0  0  0  0  0  0  0  0
   20.4460  -31.5530   34.4220 C   0  0  0  0  0  0  0  0  0  0  0  0
   20.3340  -32.5160   33.4170 C   0  0  0  0  0  0  0  0  0  0  0  0
   19.8170  -33.7790   33.7130 C   0  0  0  0  0  0  0  0  0  0  0  0
   19.4130  -34.0770   35.0120 C   0  0  0  0  0  0  0  0  0  0  0  0
   18.9170  -35.3330   35.2310 O   0  0  0  0  0  0  0  0  0  0  0  0
   19.5250  -33.1130   36.0170 C   0  0  0  0  0  0  0  0  0  0  0  0
   19.1120  -33.3850   37.3940 C   0  0  0  0  0  0  0  0  0  0  0  0
   18.6550  -34.4740   37.7340 O   0  0  0  0  0  0  0  0  0  0  0  0
   19.2650  -32.2930   38.3830 C   0  0  0  0  0  0  0  0  0  0  0  0
   18.8860  -32.5640   39.6840 O   0  0  0  0  0  0  0  0  0  0  0  0
   19.0300  -28.9460   38.9930 C   0  0  0  0  0  0  0  0  0  0  0  0
   19.2600  -27.8500   39.8290 C   0  0  0  0  0  0  0  0  0  0  0  0
   20.4530  -27.7390   40.5590 C   0  0  0  0  0  0  0  0  0  0  0  0
   20.6710  -26.5440   41.4520 C   0  0  0  0  0  0  0  0  0  0  0  0
   20.2630  -26.7460   42.7400 F   0  0  0  0  0  0  0  0  0  0  0  0
   24.4096  -29.7304   41.8562 H   0  0  0  0  0  0  0  0  0  0  0  0
   23.1249  -30.7628   40.9002 H   0  0  0  0  0  0  0  0  0  0  0  0
   23.0450  -27.7502   41.5691 H   0  0  0  0  0  0  0  0  0  0  0  0
   21.9440  -30.6326   39.4944 H   0  0  0  0  0  0  0  0  0  0  0  0
   20.8537  -30.5584   34.1886 H   0  0  0  0  0  0  0  0  0  0  0  0
   20.6533  -32.2795   32.3913 H   0  0  0  0  0  0  0  0  0  0  0  0
   19.7290  -34.5375   32.9212 H   0  0  0  0  0  0  0  0  0  0  0  0
   18.6780  -35.5980   36.0970 H   0  0  0  0  0  0  0  0  0  0  0  0
   17.9790  -32.5660   39.9180 H   0  0  0  0  0  0  0  0  0  0  0  0
   18.0893  -29.0092   38.4264 H   0  0  0  0  0  0  0  0  0  0  0  0
   18.4955  -27.0639   39.9159 H   0  0  0  0  0  0  0  0  0  0  0  0
   21.7450  -26.3063   41.4599 H   0  0  0  0  0  0  0  0  0  0  0  0
   20.0652  -25.7208   41.0454 H   0  0  0  0  0  0  0  0  0  0  0  0
  1  2  2  0
  2  3  1  0
  3  4  2  0
  4  5  1  0
  5  6  1  0
  6  7  1  0
  7  8  1  0
  8  9  2  0
  9 10  1  0
 10 11  2  0
 11 12  1  0
 12 13  1  0
 12 14  2  0
 14 15  1  0
 15 16  2  0
 15 17  1  0
 17 18  1  0
  5 19  2  0
 19 20  1  0
 20 21  2  0
 21 22  1  0
 22 23  1  0
 21  3  1  0
 17  6  2  0
 14  8  1  0
  1 24  1  0
  1 25  1  0
  2 26  1  0
  4 27  1  0
  9 28  1  0
 10 29  1  0
 11 30  1  0
 13 31  1  0
 18 32  1  0
 19 33  1  0
 20 34  1  0
 22 35  1  0
 22 36  1  0
M  END
>  <meeko>  (6) 
{"is_sidechain": [false], "free_energy": -8.455, "intermolecular_energy": -10.382, "internal_energy": -0.588}

$$$$
cand_035_out
     RDKit          3D

 36 38  0  0  0  0  0  0  0  0999 V2000
   24.6840  -28.9010   44.0930 C   0  0  0  0  0  0  0  0  0  0  0  0
   24.3470  -27.6430   43.7860 C   0  0  0  0  0  0  0  0  0  0  0  0
   23.0510  -27.3130   43.1870 C   0  0  0  0  0  0  0  0  0  0  0  0
   22.6960  -27.9630   41.9930 C   0  0  0  0  0  0  0  0  0  0  0  0
   21.4730  -27.7030   41.3560 C   0  0  0  0  0  0  0  0  0  0  0  0
   21.1450  -28.3850   40.0860 C   0  0  0  0  0  0  0  0  0  0  0  0
   20.7110  -29.6920   40.2730 O   0  0  0  0  0  0  0  0  0  0  0  0
   20.3720  -30.4410   39.1750 C   0  0  0  0  0  0  0  0  0  0  0  0
   19.9550  -31.7530   39.4060 C   0  0  0  0  0  0  0  0  0  0  0  0
   19.5940  -32.5690   38.3320 C   0  0  0  0  0  0  0  0  0  0  0  0
   19.6500  -32.0740   37.0270 C   0  0  0  0  0  0  0  0  0  0  0  0
   20.0680  -30.7650   36.7990 C   0  0  0  0  0  0  0  0  0  0  0  0
   20.0980  -30.3440   35.4970 O   0  0  0  0  0  0  0  0  0  0  0  0
   20.4290  -29.9480   37.8750 C   0  0  0  0  0  0  0  0  0  0  0  0
   20.8720  -28.5670   37.6780 C   0  0  0  0  0  0  0  0  0  0  0  0
   20.9400  -28.0580   36.5620 O   0  0  0  0  0  0  0  0  0  0  0  0
   21.2390  -27.7890   38.8840 C   0  0  0  0  0  0  0  0  0  0  0  0
   21.6420  -26.4810   38.6900 O   0  0  0  0  0  0  0  0  0  0  0  0
   20.6120  -26.7620   41.9310 C   0  0  0  0  0  0  0  0  0  0  0  0
   20.9550  -26.1100   43.1180 C   0  0  0  0  0  0  0  0  0  0  0  0
   22.1730  -26.3770   43.7610 C   0  0  0  0  0  0  0  0  0  0  0  0
   22.5140  -25.6560   45.0400 C   0  0  0  0  0  0  0  0  0  0  0  0
   21.4440  -25.0260   45.6100 F   0  0  0  0  0  0  0  0  0  0  0  0
   25.6655  -29.1135   44.5418 H   0  0  0  0  0  0  0  0  0  0  0  0
   23.9795  -29.7227   43.8966 H   0  0  0  0  0  0  0  0  0  0  0  0
   25.0634  -26.8333   43.9891 H   0  0  0  0  0  0  0  0  0  0  0  0
   23.3910  -28.6906   41.5485 H   0  0  0  0  0  0  0  0  0  0  0  0
   19.9108  -32.1437   40.4333 H   0  0  0  0  0  0  0  0  0  0  0  0
   19.2651  -33.6028   38.5138 H   0  0  0  0  0  0  0  0  0  0  0  0
   19.3646  -32.7166   36.1811 H   0  0  0  0  0  0  0  0  0  0  0  0
   20.9160  -30.1400   35.0890 H   0  0  0  0  0  0  0  0  0  0  0  0
   22.0020  -26.2190   37.8650 H   0  0  0  0  0  0  0  0  0  0  0  0
   19.6534  -26.5328   41.4426 H   0  0  0  0  0  0  0  0  0  0  0  0
   20.2605  -25.3771   43.5545 H   0  0  0  0  0  0  0  0  0  0  0  0
   22.9103  -26.3888   45.7583 H   0  0  0  0  0  0  0  0  0  0  0  0
   23.2514  -24.8796   44.7882 H   0  0  0  0  0  0  0  0  0  0  0  0
  1  2  2  0
  2  3  1  0
  3  4  2  0
  4  5  1  0
  5  6  1  0
  6  7  1  0
  7  8  1  0
  8  9  2  0
  9 10  1  0
 10 11  2  0
 11 12  1  0
 12 13  1  0
 12 14  2  0
 14 15  1  0
 15 16  2  0
 15 17  1  0
 17 18  1  0
  5 19  2  0
 19 20  1  0
 20 21  2  0
 21 22  1  0
 22 23  1  0
 21  3  1  0
 17  6  2  0
 14  8  1  0
  1 24  1  0
  1 25  1  0
  2 26  1  0
  4 27  1  0
  9 28  1  0
 10 29  1  0
 11 30  1  0
 13 31  1  0
 18 32  1  0
 19 33  1  0
 20 34  1  0
 22 35  1  0
 22 36  1  0
M  END
>  <meeko>  (7) 
{"is_sidechain": [false], "free_energy": -8.448, "intermolecular_energy": -10.445, "internal_energy": -0.516}

$$$$
cand_035_out
     RDKit          3D

 36 38  0  0  0  0  0  0  0  0999 V2000
   18.7260  -25.9080   39.7360 C   0  0  0  0  0  0  0  0  0  0  0  0
   19.0720  -26.8750   40.5930 C   0  0  0  0  0  0  0  0  0  0  0  0
   20.0990  -27.8690   40.2670 C   0  0  0  0  0  0  0  0  0  0  0  0
   19.7540  -28.9030   39.3800 C   0  0  0  0  0  0  0  0  0  0  0  0
   20.6790  -29.8930   39.0180 C   0  0  0  0  0  0  0  0  0  0  0  0
   20.2730  -30.9810   38.1050 C   0  0  0  0  0  0  0  0  0  0  0  0
   20.6110  -30.7290   36.7800 O   0  0  0  0  0  0  0  0  0  0  0  0
   20.2910  -31.6590   35.8250 C   0  0  0  0  0  0  0  0  0  0  0  0
   20.6350  -31.3590   34.5060 C   0  0  0  0  0  0  0  0  0  0  0  0
   20.3390  -32.2650   33.4850 C   0  0  0  0  0  0  0  0  0  0  0  0
   19.7000  -33.4700   33.7830 C   0  0  0  0  0  0  0  0  0  0  0  0
   19.3560  -33.7670   35.0990 C   0  0  0  0  0  0  0  0  0  0  0  0
   18.7330  -34.9650   35.3200 O   0  0  0  0  0  0  0  0  0  0  0  0
   19.6520  -32.8600   36.1210 C   0  0  0  0  0  0  0  0  0  0  0  0
   19.3090  -33.1340   37.5170 C   0  0  0  0  0  0  0  0  0  0  0  0
   18.7530  -34.1750   37.8590 O   0  0  0  0  0  0  0  0  0  0  0  0
   19.6600  -32.1040   38.5220 C   0  0  0  0  0  0  0  0  0  0  0  0
   19.3460  -32.3780   39.8400 O   0  0  0  0  0  0  0  0  0  0  0  0
   21.9620  -29.8390   39.5740 C   0  0  0  0  0  0  0  0  0  0  0  0
   22.3160  -28.8140   40.4560 C   0  0  0  0  0  0  0  0  0  0  0  0
   21.3940  -27.8180   40.8110 C   0  0  0  0  0  0  0  0  0  0  0  0
   21.8080  -26.7280   41.7660 C   0  0  0  0  0  0  0  0  0  0  0  0
   22.9830  -26.9870   42.4110 F   0  0  0  0  0  0  0  0  0  0  0  0
   17.9509  -25.1785   40.0136 H   0  0  0  0  0  0  0  0  0  0  0  0
   19.2165  -25.8423   38.7536 H   0  0  0  0  0  0  0  0  0  0  0  0
   18.5712  -26.9258   41.5711 H   0  0  0  0  0  0  0  0  0  0  0  0
   18.7375  -28.9365   38.9610 H   0  0  0  0  0  0  0  0  0  0  0  0
   21.1388  -30.4099   34.2708 H   0  0  0  0  0  0  0  0  0  0  0  0
   20.6096  -32.0289   32.4453 H   0  0  0  0  0  0  0  0  0  0  0  0
   19.4686  -34.1840   32.9789 H   0  0  0  0  0  0  0  0  0  0  0  0
   17.8230  -35.0650   35.1180 H   0  0  0  0  0  0  0  0  0  0  0  0
   19.1420  -31.6770   40.4280 H   0  0  0  0  0  0  0  0  0  0  0  0
   22.7003  -30.6119   39.3140 H   0  0  0  0  0  0  0  0  0  0  0  0
   23.3317  -28.7880   40.8776 H   0  0  0  0  0  0  0  0  0  0  0  0
   21.9210  -25.7924   41.1987 H   0  0  0  0  0  0  0  0  0  0  0  0
   21.0251  -26.6571   42.5354 H   0  0  0  0  0  0  0  0  0  0  0  0
  1  2  2  0
  2  3  1  0
  3  4  2  0
  4  5  1  0
  5  6  1  0
  6  7  1  0
  7  8  1  0
  8  9  2  0
  9 10  1  0
 10 11  2  0
 11 12  1  0
 12 13  1  0
 12 14  2  0
 14 15  1  0
 15 16  2  0
 15 17  1  0
 17 18  1  0
  5 19  2  0
 19 20  1  0
 20 21  2  0
 21 22  1  0
 22 23  1  0
 21  3  1  0
 17  6  2  0
 14  8  1  0
  1 24  1  0
  1 25  1  0
  2 26  1  0
  4 27  1  0
  9 28  1  0
 10 29  1  0
 11 30  1  0
 13 31  1  0
 18 32  1  0
 19 33  1  0
 20 34  1  0
 22 35  1  0
 22 36  1  0
M  END
>  <meeko>  (8) 
{"is_sidechain": [false], "free_energy": -8.142, "intermolecular_energy": -10.041, "internal_energy": -0.543}

$$$$
cand_035_out
     RDKit          3D

 36 38  0  0  0  0  0  0  0  0999 V2000
   20.0350  -29.6660   34.7710 C   0  0  0  0  0  0  0  0  0  0  0  0
   20.6990  -30.5560   35.5190 C   0  0  0  0  0  0  0  0  0  0  0  0
   20.4540  -30.6930   36.9580 C   0  0  0  0  0  0  0  0  0  0  0  0
   20.9020  -29.6630   37.8010 C   0  0  0  0  0  0  0  0  0  0  0  0
   20.7070  -29.7190   39.1900 C   0  0  0  0  0  0  0  0  0  0  0  0
   21.2160  -28.6300   40.0490 C   0  0  0  0  0  0  0  0  0  0  0  0
   22.1920  -29.0580   40.9420 O   0  0  0  0  0  0  0  0  0  0  0  0
   22.7510  -28.1470   41.8000 C   0  0  0  0  0  0  0  0  0  0  0  0
   23.7170  -28.6220   42.6880 C   0  0  0  0  0  0  0  0  0  0  0  0
   24.3270  -27.7450   43.5880 C   0  0  0  0  0  0  0  0  0  0  0  0
   23.9720  -26.3940   43.6000 C   0  0  0  0  0  0  0  0  0  0  0  0
   23.0080  -25.9230   42.7120 C   0  0  0  0  0  0  0  0  0  0  0  0
   22.7090  -24.5890   42.7770 O   0  0  0  0  0  0  0  0  0  0  0  0
   22.3970  -26.8010   41.8120 C   0  0  0  0  0  0  0  0  0  0  0  0
   21.3800  -26.3450   40.8630 C   0  0  0  0  0  0  0  0  0  0  0  0
   21.0200  -25.1720   40.8070 O   0  0  0  0  0  0  0  0  0  0  0  0
   20.7890  -27.3570   39.9570 C   0  0  0  0  0  0  0  0  0  0  0  0
   19.8400  -26.9160   39.0540 O   0  0  0  0  0  0  0  0  0  0  0  0
   20.0650  -30.8410   39.7250 C   0  0  0  0  0  0  0  0  0  0  0  0
   19.6150  -31.8720   38.8950 C   0  0  0  0  0  0  0  0  0  0  0  0
   19.8010  -31.8110   37.5060 C   0  0  0  0  0  0  0  0  0  0  0  0
   19.3050  -32.9400   36.6390 C   0  0  0  0  0  0  0  0  0  0  0  0
   18.2220  -33.5890   37.1590 F   0  0  0  0  0  0  0  0  0  0  0  0
   20.2431  -29.5889   33.6936 H   0  0  0  0  0  0  0  0  0  0  0  0
   19.2814  -29.0119   35.2338 H   0  0  0  0  0  0  0  0  0  0  0  0
   21.4494  -31.2025   35.0405 H   0  0  0  0  0  0  0  0  0  0  0  0
   21.4163  -28.7945   37.3638 H   0  0  0  0  0  0  0  0  0  0  0  0
   23.9977  -29.6855   42.6793 H   0  0  0  0  0  0  0  0  0  0  0  0
   25.0882  -28.1189   44.2885 H   0  0  0  0  0  0  0  0  0  0  0  0
   24.4526  -25.7039   44.3090 H   0  0  0  0  0  0  0  0  0  0  0  0
   23.2440  -24.0130   43.2870 H   0  0  0  0  0  0  0  0  0  0  0  0
   18.9560  -27.2220   39.1160 H   0  0  0  0  0  0  0  0  0  0  0  0
   19.9124  -30.9128   40.8120 H   0  0  0  0  0  0  0  0  0  0  0  0
   19.1084  -32.7426   39.3370 H   0  0  0  0  0  0  0  0  0  0  0  0
   19.0267  -32.5291   35.6573 H   0  0  0  0  0  0  0  0  0  0  0  0
   20.1198  -33.6754   36.5668 H   0  0  0  0  0  0  0  0  0  0  0  0
  1  2  2  0
  2  3  1  0
  3  4  2  0
  4  5  1  0
  5  6  1  0
  6  7  1  0
  7  8  1  0
  8  9  2  0
  9 10  1  0
 10 11  2  0
 11 12  1  0
 12 13  1  0
 12 14  2  0
 14 15  1  0
 15 16  2  0
 15 17  1  0
 17 18  1  0
  5 19  2  0
 19 20  1  0
 20 21  2  0
 21 22  1  0
 22 23  1  0
 21  3  1  0
 17  6  2  0
 14  8  1  0
  1 24  1  0
  1 25  1  0
  2 26  1  0
  4 27  1  0
  9 28  1  0
 10 29  1  0
 11 30  1  0
 13 31  1  0
 18 32  1  0
 19 33  1  0
 20 34  1  0
 22 35  1  0
 22 36  1  0
M  END
>  <meeko>  (9) 
{"is_sidechain": [false], "free_energy": -7.956, "intermolecular_energy": -9.961, "internal_energy": -0.393}

$$$$
