cand_002_out
     RDKit          3D

 45 48  0  0  0  0  0  0  0  0999 V2000
   18.6330  -26.5430   40.2470 C   0  0  0  0  0  0  0  0  0  0  0  0
   19.7590  -27.4730   39.8890 C   0  0  0  0  0  0  0  0  0  0  0  0
   19.4640  -28.6300   39.1430 C   0  0  0  0  0  0  0  0  0  0  0  0
   20.4580  -29.5530   38.7840 C   0  0  0  0  0  0  0  0  0  0  0  0
   20.0960  -30.7650   38.0190 C   0  0  0  0  0  0  0  0  0  0  0  0
   19.6850  -31.8140   38.8320 O   0  0  0  0  0  0  0  0  0  0  0  0
   19.3190  -33.0010   38.2500 C   0  0  0  0  0  0  0  0  0  0  0  0
   18.9260  -34.0320   39.1050 C   0  0  0  0  0  0  0  0  0  0  0  0
   18.5400  -35.2660   38.5780 C   0  0  0  0  0  0  0  0  0  0  0  0
   18.5460  -35.4690   37.1960 C   0  0  0  0  0  0  0  0  0  0  0  0
   18.9380  -34.4390   36.3450 C   0  0  0  0  0  0  0  0  0  0  0  0
   18.9190  -34.7060   35.0030 O   0  0  0  0  0  0  0  0  0  0  0  0
   19.3250  -33.2050   36.8740 C   0  0  0  0  0  0  0  0  0  0  0  0
   19.7440  -32.0960   36.0150 C   0  0  0  0  0  0  0  0  0  0  0  0
   19.7690  -32.1950   34.7900 O   0  0  0  0  0  0  0  0  0  0  0  0
   20.1430  -30.8310   36.6740 C   0  0  0  0  0  0  0  0  0  0  0  0
   20.5240  -29.7860   35.8530 O   0  0  0  0  0  0  0  0  0  0  0  0
   21.7680  -29.3130   39.2050 C   0  0  0  0  0  0  0  0  0  0  0  0
   22.0780  -28.1770   39.9560 C   0  0  0  0  0  0  0  0  0  0  0  0
   21.0850  -27.2470   40.3110 C   0  0  0  0  0  0  0  0  0  0  0  0
   21.4870  -26.0380   41.1390 C   0  0  0  0  0  0  0  0  0  0  0  0
   22.2800  -26.3480   42.3910 C   0  0  0  0  0  0  0  0  0  0  0  0
   23.4220  -25.5950   42.7030 C   0  0  0  0  0  0  0  0  0  0  0  0
   24.1760  -25.8860   43.8410 C   0  0  0  0  0  0  0  0  0  0  0  0
   23.8040  -26.9380   44.6760 C   0  0  0  0  0  0  0  0  0  0  0  0
   22.6800  -27.7020   44.3700 C   0  0  0  0  0  0  0  0  0  0  0  0
   21.9240  -27.4120   43.2330 C   0  0  0  0  0  0  0  0  0  0  0  0
   18.5488  -26.4735   41.3416 H   0  0  0  0  0  0  0  0  0  0  0  0
   18.8352  -25.5451   39.8307 H   0  0  0  0  0  0  0  0  0  0  0  0
   17.6913  -26.9301   39.8307 H   0  0  0  0  0  0  0  0  0  0  0  0
   18.4251  -28.8156   38.8329 H   0  0  0  0  0  0  0  0  0  0  0  0
   18.9204  -33.8724   40.1933 H   0  0  0  0  0  0  0  0  0  0  0  0
   18.2310  -36.0789   39.2516 H   0  0  0  0  0  0  0  0  0  0  0  0
   18.2415  -36.4410   36.7807 H   0  0  0  0  0  0  0  0  0  0  0  0
   18.1040  -34.8540   34.5660 H   0  0  0  0  0  0  0  0  0  0  0  0
   21.4030  -29.7390   35.5330 H   0  0  0  0  0  0  0  0  0  0  0  0
   22.5635  -30.0259   38.9424 H   0  0  0  0  0  0  0  0  0  0  0  0
   23.1168  -28.0069   40.2752 H   0  0  0  0  0  0  0  0  0  0  0  0
   22.0973  -25.3787   40.5043 H   0  0  0  0  0  0  0  0  0  0  0  0
   20.5486  -25.5757   41.4791 H   0  0  0  0  0  0  0  0  0  0  0  0
   23.7259  -24.7677   42.0448 H   0  0  0  0  0  0  0  0  0  0  0  0
   25.0653  -25.2840   44.0792 H   0  0  0  0  0  0  0  0  0  0  0  0
   24.3966  -27.1646   45.5746 H   0  0  0  0  0  0  0  0  0  0  0  0
   22.3877  -28.5354   45.0257 H   0  0  0  0  0  0  0  0  0  0  0  0
   21.0410  -28.0234   42.9951 H   0  0  0  0  0  0  0  0  0  0  0  0
  1  2  1  0
  2  3  2  0
  3  4  1  0
  4  5  1  0
  5  6  1  0
  6  7  1  0
  7  8  2  0
  8  9  1  0
  9 10  2  0
 10 11  1  0
 11 12  1  0
 11 13  2  0
 13 14  1  0
 14 15  2  0
 14 16  1  0
 16 17  1  0
  4 18  2  0
 18 19  1  0
 19 20  2  0
 20 21  1  0
 21 22  1  0
 22 23  2  0
 23 24  1  0
 24 25  2  0
 25 26  1  0
 26 27  2  0
 20  2  1  0
 27 22  1  0
 16  5  2  0
 13  7  1  0
  1 28  1  0
  1 29  1  0
  1 30  1  0
  3 31  1  0
  8 32  1  0
  9 33  1  0
 10 34  1  0
 12 35  1  0
 17 36  1  0
 18 37  1  0
 19 38  1  0
 21 39  1  0
 21 40  1  0
 23 41  1  0
 24 42  1  0
 25 43  1  0
 26 44  1  0
 27 45  1  0
M  END
>  <meeko>  (1) 
{"is_sidechain": [false], "free_energy": -10.308, "intermolecular_energy": -12.719, "internal_energy": -0.842}

$$$$
cand_002_out
     RDKit          3D

 45 48  0  0  0  0  0  0  0  0999 V2000
   18.6100  -26.6820   40.2000 C   0  0  0  0  0  0  0  0  0  0  0  0
   19.7530  -27.5830   39.8200 C   0  0  0  0  0  0  0  0  0  0  0  0
   19.4830  -28.7160   39.0300 C   0  0  0  0  0  0  0  0  0  0  0  0
   20.4940  -29.6110   38.6480 C   0  0  0  0  0  0  0  0  0  0  0  0
   20.1570  -30.8000   37.8360 C   0  0  0  0  0  0  0  0  0  0  0  0
   20.4540  -30.6350   36.4880 O   0  0  0  0  0  0  0  0  0  0  0  0
   20.1920  -31.6630   35.6190 C   0  0  0  0  0  0  0  0  0  0  0  0
   20.4920  -31.4480   34.2740 C   0  0  0  0  0  0  0  0  0  0  0  0
   20.2510  -32.4550   33.3370 C   0  0  0  0  0  0  0  0  0  0  0  0
   19.7100  -33.6750   33.7450 C   0  0  0  0  0  0  0  0  0  0  0  0
   19.4110  -33.8870   35.0880 C   0  0  0  0  0  0  0  0  0  0  0  0
   18.8830  -35.1060   35.4190 O   0  0  0  0  0  0  0  0  0  0  0  0
   19.6510  -32.8790   36.0250 C   0  0  0  0  0  0  0  0  0  0  0  0
   19.3520  -33.0600   37.4460 C   0  0  0  0  0  0  0  0  0  0  0  0
   18.8810  -34.1090   37.8830 O   0  0  0  0  0  0  0  0  0  0  0  0
   19.6370  -31.9280   38.3570 C   0  0  0  0  0  0  0  0  0  0  0  0
   19.3630  -32.1150   39.6990 O   0  0  0  0  0  0  0  0  0  0  0  0
   21.7960  -29.3680   39.0910 C   0  0  0  0  0  0  0  0  0  0  0  0
   22.0810  -28.2550   39.8860 C   0  0  0  0  0  0  0  0  0  0  0  0
   21.0710  -27.3530   40.2640 C   0  0  0  0  0  0  0  0  0  0  0  0
   21.4480  -26.1690   41.1380 C   0  0  0  0  0  0  0  0  0  0  0  0
   22.2910  -26.5040   42.3490 C   0  0  0  0  0  0  0  0  0  0  0  0
   21.9210  -27.5620   43.1930 C   0  0  0  0  0  0  0  0  0  0  0  0
   22.6760  -27.8650   44.3270 C   0  0  0  0  0  0  0  0  0  0  0  0
   23.8050  -27.1100   44.6380 C   0  0  0  0  0  0  0  0  0  0  0  0
   24.1760  -26.0480   43.8160 C   0  0  0  0  0  0  0  0  0  0  0  0
   23.4220  -25.7430   42.6810 C   0  0  0  0  0  0  0  0  0  0  0  0
   18.5371  -26.6246   41.2961 H   0  0  0  0  0  0  0  0  0  0  0  0
   18.7845  -25.6759   39.7909 H   0  0  0  0  0  0  0  0  0  0  0  0
   17.6725  -27.0866   39.7909 H   0  0  0  0  0  0  0  0  0  0  0  0
   18.4500  -28.9053   38.7027 H   0  0  0  0  0  0  0  0  0  0  0  0
   20.9179  -30.4864   33.9517 H   0  0  0  0  0  0  0  0  0  0  0  0
   20.4879  -32.2864   32.2761 H   0  0  0  0  0  0  0  0  0  0  0  0
   19.5201  -34.4679   33.0066 H   0  0  0  0  0  0  0  0  0  0  0  0
   19.4080  -35.8780   35.3480 H   0  0  0  0  0  0  0  0  0  0  0  0
   18.8430  -32.8450   39.9740 H   0  0  0  0  0  0  0  0  0  0  0  0
   22.6046  -30.0593   38.8114 H   0  0  0  0  0  0  0  0  0  0  0  0
   23.1139  -28.0814   40.2221 H   0  0  0  0  0  0  0  0  0  0  0  0
   22.0106  -25.4547   40.5189 H   0  0  0  0  0  0  0  0  0  0  0  0
   20.5023  -25.7639   41.5273 H   0  0  0  0  0  0  0  0  0  0  0  0
   21.0270  -28.1585   42.9586 H   0  0  0  0  0  0  0  0  0  0  0  0
   22.3791  -28.7016   44.9766 H   0  0  0  0  0  0  0  0  0  0  0  0
   24.4017  -27.3517   45.5299 H   0  0  0  0  0  0  0  0  0  0  0  0
   25.0649  -25.4484   44.0617 H   0  0  0  0  0  0  0  0  0  0  0  0
   23.7175  -24.8983   42.0413 H   0  0  0  0  0  0  0  0  0  0  0  0
  1  2  1  0
  2  3  2  0
  3  4  1  0
  4  5  1  0
  5  6  1  0
  6  7  1  0
  7  8  2  0
  8  9  1  0
  9 10  2  0
 10 11  1  0
 11 12  1  0
 11 13  2  0
 13 14  1  0
 14 15  2  0
 14 16  1  0
 16 17  1  0
  4 18  2  0
 18 19  1  0
 19 20  2  0
 20 21  1  0
 21 22  1  0
 22 23  2  0
 23 24  1  0
 24 25  2  0
 25 26  1  0
 26 27  2  0
 20  2  1  0
 27 22  1  0
 16  5  2  0
 13  7  1  0
  1 28  1  0
  1 29  1  0
  1 30  1  0
  3 31  1  0
  8 32  1  0
  9 33  1  0
 10 34  1  0
 12 35  1  0
 17 36  1  0
 18 37  1  0
 19 38  1  0
 21 39  1  0
 21 40  1  0
 23 41  1  0
 24 42  1  0
 25 43  1  0
 26 44  1  0
 27 45  1  0
M  END
>  <meeko>  (2) 
{"is_sidechain": [false], "free_energy": -9.987, "intermolecular_energy": -12.335, "internal_energy": -0.83}

$$$$
cand_002_out
     RDKit          3D

 45 48  0  0  0  0  0  0  0  0999 V2000
   23.7910  -28.3660   42.9810 C   0  0  0  0  0  0  0  0  0  0  0  0
   22.7810  -27.9310   41.9540 C   0  0  0  0  0  0  0  0  0  0  0  0
   22.2880  -28.8900   41.0480 C   0  0  0  0  0  0  0  0  0  0  0  0
   21.3570  -28.5570   40.0520 C   0  0  0  0  0  0  0  0  0  0  0  0
   20.8850  -29.5930   39.1090 C   0  0  0  0  0  0  0  0  0  0  0  0
   20.1400  -30.5880   39.7300 O   0  0  0  0  0  0  0  0  0  0  0  0
   19.6380  -31.6150   38.9700 C   0  0  0  0  0  0  0  0  0  0  0  0
   18.9080  -32.5990   39.6370 C   0  0  0  0  0  0  0  0  0  0  0  0
   18.3690  -33.6710   38.9220 C   0  0  0  0  0  0  0  0  0  0  0  0
   18.5600  -33.7570   37.5420 C   0  0  0  0  0  0  0  0  0  0  0  0
   19.2890  -32.7730   36.8790 C   0  0  0  0  0  0  0  0  0  0  0  0
   19.4370  -32.9200   35.5260 O   0  0  0  0  0  0  0  0  0  0  0  0
   19.8290  -31.7020   37.5950 C   0  0  0  0  0  0  0  0  0  0  0  0
   20.6020  -30.6470   36.9370 C   0  0  0  0  0  0  0  0  0  0  0  0
   20.8070  -30.6500   35.7250 O   0  0  0  0  0  0  0  0  0  0  0  0
   21.1370  -29.5590   37.7870 C   0  0  0  0  0  0  0  0  0  0  0  0
   21.8540  -28.5610   37.1530 O   0  0  0  0  0  0  0  0  0  0  0  0
   20.9340  -27.2290   39.9580 C   0  0  0  0  0  0  0  0  0  0  0  0
   21.4210  -26.2620   40.8410 C   0  0  0  0  0  0  0  0  0  0  0  0
   22.3490  -26.5940   41.8440 C   0  0  0  0  0  0  0  0  0  0  0  0
   22.8470  -25.4930   42.7630 C   0  0  0  0  0  0  0  0  0  0  0  0
   21.8870  -25.0820   43.8580 C   0  0  0  0  0  0  0  0  0  0  0  0
   20.5920  -24.6510   43.5320 C   0  0  0  0  0  0  0  0  0  0  0  0
   19.7040  -24.2450   44.5300 C   0  0  0  0  0  0  0  0  0  0  0  0
   20.1020  -24.2570   45.8650 C   0  0  0  0  0  0  0  0  0  0  0  0
   21.3890  -24.6700   46.2020 C   0  0  0  0  0  0  0  0  0  0  0  0
   22.2780  -25.0760   45.2050 C   0  0  0  0  0  0  0  0  0  0  0  0
   23.3870  -28.1920   43.9892 H   0  0  0  0  0  0  0  0  0  0  0  0
   24.0069  -29.4369   42.8523 H   0  0  0  0  0  0  0  0  0  0  0  0
   24.7175  -27.7871   42.8523 H   0  0  0  0  0  0  0  0  0  0  0  0
   22.6424  -29.9286   41.1231 H   0  0  0  0  0  0  0  0  0  0  0  0
   18.7571  -32.5308   40.7245 H   0  0  0  0  0  0  0  0  0  0  0  0
   17.7937  -34.4479   39.4468 H   0  0  0  0  0  0  0  0  0  0  0  0
   18.1352  -34.6010   36.9788 H   0  0  0  0  0  0  0  0  0  0  0  0
   19.0630  -32.2900   34.9430 H   0  0  0  0  0  0  0  0  0  0  0  0
   21.5500  -27.6750   37.1830 H   0  0  0  0  0  0  0  0  0  0  0  0
   20.2103  -26.9418   39.1810 H   0  0  0  0  0  0  0  0  0  0  0  0
   21.0724  -25.2227   40.7500 H   0  0  0  0  0  0  0  0  0  0  0  0
   23.7759  -25.8411   43.2383 H   0  0  0  0  0  0  0  0  0  0  0  0
   22.9831  -24.6050   42.1283 H   0  0  0  0  0  0  0  0  0  0  0  0
   20.2732  -24.6328   42.4794 H   0  0  0  0  0  0  0  0  0  0  0  0
   18.6893  -23.9154   44.2620 H   0  0  0  0  0  0  0  0  0  0  0  0
   19.4011  -23.9409   46.6517 H   0  0  0  0  0  0  0  0  0  0  0  0
   21.7054  -24.6763   47.2555 H   0  0  0  0  0  0  0  0  0  0  0  0
   23.2948  -25.3942   45.4785 H   0  0  0  0  0  0  0  0  0  0  0  0
  1  2  1  0
  2  3  2  0
  3  4  1  0
  4  5  1  0
  5  6  1  0
  6  7  1  0
  7  8  2  0
  8  9  1  0
  9 10  2  0
 10 11  1  0
 11 12  1  0
 11 13  2  0
 13 14  1  0
 14 15  2  0
 14 16  1  0
 16 17  1  0
  4 18  2  0
 18 19  1  0
 19 20  2  0
 20 21  1  0
 21 22  1  0
 22 23  2  0
 23 24  1  0
 24 25  2  0
 25 26  1  0
 26 27  2  0
 20  2  1  0
 27 22  1  0
 16  5  2  0
 13  7  1  0
  1 28  1  0
  1 29  1  0
  1 30  1  0
  3 31  1  0
  8 32  1  0
  9 33  1  0
 10 34  1  0
 12 35  1  0
 17 36  1  0
 18 37  1  0
 19 38  1  0
 21 39  1  0
 21 40  1  0
 23 41  1  0
 24 42  1  0
 25 43  1  0
 26 44  1  0
 27 45  1  0
M  END
>  <meeko>  (3) 
{"is_sidechain": [false], "free_energy": -9.929, "intermolecular_energy": -12.507, "internal_energy": -0.586}

$$$$
cand_002_out
     RDKit          3D

 45 48  0  0  0  0  0  0  0  0999 V2000
   18.7100  -33.4150   39.5620 C   0  0  0  0  0  0  0  0  0  0  0  0
   19.3760  -32.3240   38.7700 C   0  0  0  0  0  0  0  0  0  0  0  0
   19.8220  -31.1750   39.4510 C   0  0  0  0  0  0  0  0  0  0  0  0
   20.4380  -30.1080   38.7790 C   0  0  0  0  0  0  0  0  0  0  0  0
   20.8700  -28.9130   39.5340 C   0  0  0  0  0  0  0  0  0  0  0  0
   21.8190  -29.2020   40.5070 O   0  0  0  0  0  0  0  0  0  0  0  0
   22.3080  -28.1820   41.2830 C   0  0  0  0  0  0  0  0  0  0  0  0
   23.2490  -28.5210   42.2560 C   0  0  0  0  0  0  0  0  0  0  0  0
   23.7880  -27.5300   43.0790 C   0  0  0  0  0  0  0  0  0  0  0  0
   23.3860  -26.2010   42.9280 C   0  0  0  0  0  0  0  0  0  0  0  0
   22.4470  -25.8660   41.9570 C   0  0  0  0  0  0  0  0  0  0  0  0
   22.0980  -24.5460   41.8640 O   0  0  0  0  0  0  0  0  0  0  0  0
   21.9070  -26.8590   41.1350 C   0  0  0  0  0  0  0  0  0  0  0  0
   20.9180  -26.5490   40.1010 C   0  0  0  0  0  0  0  0  0  0  0  0
   20.5190  -25.4030   39.9040 O   0  0  0  0  0  0  0  0  0  0  0  0
   20.4020  -27.6740   39.2870 C   0  0  0  0  0  0  0  0  0  0  0  0
   19.4780  -27.3690   38.3050 O   0  0  0  0  0  0  0  0  0  0  0  0
   20.5860  -30.1960   37.3930 C   0  0  0  0  0  0  0  0  0  0  0  0
   20.1390  -31.3220   36.6980 C   0  0  0  0  0  0  0  0  0  0  0  0
   19.5280  -32.3960   37.3700 C   0  0  0  0  0  0  0  0  0  0  0  0
   19.0550  -33.5860   36.5540 C   0  0  0  0  0  0  0  0  0  0  0  0
   19.6890  -33.7240   35.1870 C   0  0  0  0  0  0  0  0  0  0  0  0
   19.8510  -32.5950   34.3690 C   0  0  0  0  0  0  0  0  0  0  0  0
   20.4110  -32.7130   33.0960 C   0  0  0  0  0  0  0  0  0  0  0  0
   20.8090  -33.9600   32.6200 C   0  0  0  0  0  0  0  0  0  0  0  0
   20.6410  -35.0920   33.4160 C   0  0  0  0  0  0  0  0  0  0  0  0
   20.0810  -34.9760   34.6900 C   0  0  0  0  0  0  0  0  0  0  0  0
   18.8322  -33.2148   40.6367 H   0  0  0  0  0  0  0  0  0  0  0  0
   17.6387  -33.4462   39.3143 H   0  0  0  0  0  0  0  0  0  0  0  0
   19.1719  -34.3821   39.3143 H   0  0  0  0  0  0  0  0  0  0  0  0
   19.6837  -31.1120   40.5404 H   0  0  0  0  0  0  0  0  0  0  0  0
   23.5658  -29.5677   42.3746 H   0  0  0  0  0  0  0  0  0  0  0  0
   24.5296  -27.7962   43.8466 H   0  0  0  0  0  0  0  0  0  0  0  0
   23.8110  -25.4201   43.5757 H   0  0  0  0  0  0  0  0  0  0  0  0
   22.6650  -23.8860   42.2120 H   0  0  0  0  0  0  0  0  0  0  0  0
   18.9450  -28.0460   37.9370 H   0  0  0  0  0  0  0  0  0  0  0  0
   21.0597  -29.3696   36.8428 H   0  0  0  0  0  0  0  0  0  0  0  0
   20.2670  -31.3697   35.6065 H   0  0  0  0  0  0  0  0  0  0  0  0
   19.2762  -34.4996   37.1253 H   0  0  0  0  0  0  0  0  0  0  0  0
   17.9810  -33.4268   36.3772 H   0  0  0  0  0  0  0  0  0  0  0  0
   19.5335  -31.6074   34.7348 H   0  0  0  0  0  0  0  0  0  0  0  0
   20.5383  -31.8193   32.4674 H   0  0  0  0  0  0  0  0  0  0  0  0
   21.2548  -34.0513   31.6185 H   0  0  0  0  0  0  0  0  0  0  0  0
   20.9501  -36.0784   33.0399 H   0  0  0  0  0  0  0  0  0  0  0  0
   19.9460  -35.8748   35.3097 H   0  0  0  0  0  0  0  0  0  0  0  0
  1  2  1  0
  2  3  2  0
  3  4  1  0
  4  5  1  0
  5  6  1  0
  6  7  1  0
  7  8  2  0
  8  9  1  0
  9 10  2  0
 10 11  1  0
 11 12  1  0
 11 13  2  0
 13 14  1  0
 14 15  2  0
 14 16  1  0
 16 17  1  0
  4 18  2  0
 18 19  1  0
 19 20  2  0
 20 21  1  0
 21 22  1  0
 22 23  2  0
 23 24  1  0
 24 25  2  0
 25 26  1  0
 26 27  2  0
 20  2  1  0
 27 22  1  0
 16  5  2  0
 13  7  1  0
  1 28  1  0
  1 29  1  0
  1 30  1  0
  3 31  1  0
  8 32  1  0
  9 33  1  0
 10 34  1  0
 12 35  1  0
 17 36  1  0
 18 37  1  0
 19 38  1  0
 21 39  1  0
 21 40  1  0
 23 41  1  0
 24 42  1  0
 25 43  1  0
 26 44  1  0
 27 45  1  0
M  END
>  <meeko>  (4) 
{"is_sidechain": [false], "free_energy": -9.506, "intermolecular_energy": -12.829, "internal_energy": 0.258}

$$$$
cand_002_out
     RDKit          3D

 45 48  0  0  0  0  0  0  0  0999 V2000
   19.8590  -27.1430   36.2650 C   0  0  0  0  0  0  0  0  0  0  0  0
   20.4720  -28.2630   37.0600 C   0  0  0  0  0  0  0  0  0  0  0  0
   21.0020  -27.9730   38.3310 C   0  0  0  0  0  0  0  0  0  0  0  0
   21.6030  -28.9610   39.1250 C   0  0  0  0  0  0  0  0  0  0  0  0
   22.1660  -28.6040   40.4460 C   0  0  0  0  0  0  0  0  0  0  0  0
   23.0770  -29.5420   40.9160 O   0  0  0  0  0  0  0  0  0  0  0  0
   23.6760  -29.3350   42.1320 C   0  0  0  0  0  0  0  0  0  0  0  0
   24.5730  -30.3090   42.5710 C   0  0  0  0  0  0  0  0  0  0  0  0
   25.2190  -30.1580   43.8000 C   0  0  0  0  0  0  0  0  0  0  0  0
   24.9680  -29.0330   44.5880 C   0  0  0  0  0  0  0  0  0  0  0  0
   24.0730  -28.0630   44.1480 C   0  0  0  0  0  0  0  0  0  0  0  0
   23.8740  -26.9860   44.9700 O   0  0  0  0  0  0  0  0  0  0  0  0
   23.4260  -28.2150   42.9190 C   0  0  0  0  0  0  0  0  0  0  0  0
   22.4780  -27.2190   42.4190 C   0  0  0  0  0  0  0  0  0  0  0  0
   22.2100  -26.1990   43.0520 O   0  0  0  0  0  0  0  0  0  0  0  0
   21.8400  -27.4770   41.1070 C   0  0  0  0  0  0  0  0  0  0  0  0
   20.9560  -26.5230   40.6380 O   0  0  0  0  0  0  0  0  0  0  0  0
   21.6890  -30.2590   38.6160 C   0  0  0  0  0  0  0  0  0  0  0  0
   21.1790  -30.5630   37.3520 C   0  0  0  0  0  0  0  0  0  0  0  0
   20.5700  -29.5760   36.5570 C   0  0  0  0  0  0  0  0  0  0  0  0
   20.0470  -29.9710   35.1870 C   0  0  0  0  0  0  0  0  0  0  0  0
   20.0010  -31.4590   34.9170 C   0  0  0  0  0  0  0  0  0  0  0  0
   20.3570  -31.9560   33.6550 C   0  0  0  0  0  0  0  0  0  0  0  0
   20.2950  -33.3240   33.3850 C   0  0  0  0  0  0  0  0  0  0  0  0
   19.8690  -34.2120   34.3700 C   0  0  0  0  0  0  0  0  0  0  0  0
   19.5000  -33.7310   35.6250 C   0  0  0  0  0  0  0  0  0  0  0  0
   19.5610  -32.3630   35.8960 C   0  0  0  0  0  0  0  0  0  0  0  0
   19.4464  -26.3891   36.9516 H   0  0  0  0  0  0  0  0  0  0  0  0
   20.6290  -26.6792   35.6310 H   0  0  0  0  0  0  0  0  0  0  0  0
   19.0533  -27.5416   35.6310 H   0  0  0  0  0  0  0  0  0  0  0  0
   20.9434  -26.9429   38.7125 H   0  0  0  0  0  0  0  0  0  0  0  0
   24.7713  -31.1950   41.9499 H   0  0  0  0  0  0  0  0  0  0  0  0
   25.9260  -30.9258   44.1474 H   0  0  0  0  0  0  0  0  0  0  0  0
   25.4774  -28.9138   45.5557 H   0  0  0  0  0  0  0  0  0  0  0  0
   24.4690  -26.2630   44.9470 H   0  0  0  0  0  0  0  0  0  0  0  0
   20.4260  -26.7050   39.8870 H   0  0  0  0  0  0  0  0  0  0  0  0
   22.1630  -31.0493   39.2166 H   0  0  0  0  0  0  0  0  0  0  0  0
   21.2550  -31.5924   36.9717 H   0  0  0  0  0  0  0  0  0  0  0  0
   19.0255  -29.5756   35.0862 H   0  0  0  0  0  0  0  0  0  0  0  0
   20.7559  -29.5513   34.4581 H   0  0  0  0  0  0  0  0  0  0  0  0
   20.6885  -31.2606   32.8698 H   0  0  0  0  0  0  0  0  0  0  0  0
   20.5830  -33.7015   32.3927 H   0  0  0  0  0  0  0  0  0  0  0  0
   19.8239  -35.2904   34.1579 H   0  0  0  0  0  0  0  0  0  0  0  0
   19.1602  -34.4304   36.4031 H   0  0  0  0  0  0  0  0  0  0  0  0
   19.2613  -31.9900   36.8865 H   0  0  0  0  0  0  0  0  0  0  0  0
  1  2  1  0
  2  3  2  0
  3  4  1  0
  4  5  1  0
  5  6  1  0
  6  7  1  0
  7  8  2  0
  8  9  1  0
  9 10  2  0
 10 11  1  0
 11 12  1  0
 11 13  2  0
 13 14  1  0
 14 15  2  0
 14 16  1  0
 16 17  1  0
  4 18  2  0
 18 19  1  0
 19 20  2  0
 20 21  1  0
 21 22  1  0
 22 23  2  0
 23 24  1  0
 24 25  2  0
 25 26  1  0
 26 27  2  0
 20  2  1  0
 27 22  1  0
 16  5  2  0
 13  7  1  0
  1 28  1  0
  1 29  1  0
  1 30  1  0
  3 31  1  0
  8 32  1  0
  9 33  1  0
 10 34  1  0
 12 35  1  0
 17 36  1  0
 18 37  1  0
 19 38  1  0
 21 39  1  0
 21 40  1  0
 23 41  1  0
 24 42  1  0
 25 43  1  0
 26 44  1  0
 27 45  1  0
M  END
>  <meeko>  (5) 
{"is_sidechain": [false], "free_energy": -8.954, "intermolecular_energy": -12.358, "internal_energy": 0.468}

$$$$
cand_002_out
     RDKit          3D

 45 48  0  0  0  0  0  0  0  0999 V2000
   24.4090  -27.4870   43.8950 C   0  0  0  0  0  0  0  0  0  0  0  0
   23.0800  -27.1660   43.2680 C   0  0  0  0  0  0  0  0  0  0  0  0
   22.7050  -27.8530   42.0980 C   0  0  0  0  0  0  0  0  0  0  0  0
   21.4880  -27.5970   41.4470 C   0  0  0  0  0  0  0  0  0  0  0  0
   21.1470  -28.3280   40.2080 C   0  0  0  0  0  0  0  0  0  0  0  0
   20.7270  -29.6310   40.4490 O   0  0  0  0  0  0  0  0  0  0  0  0
   20.3780  -30.4240   39.3850 C   0  0  0  0  0  0  0  0  0  0  0  0
   19.9760  -31.7280   39.6720 C   0  0  0  0  0  0  0  0  0  0  0  0
   19.6070  -32.5870   38.6350 C   0  0  0  0  0  0  0  0  0  0  0  0
   19.6390  -32.1420   37.3120 C   0  0  0  0  0  0  0  0  0  0  0  0
   20.0410  -30.8390   37.0290 C   0  0  0  0  0  0  0  0  0  0  0  0
   20.0500  -30.4680   35.7110 O   0  0  0  0  0  0  0  0  0  0  0  0
   20.4120  -29.9800   38.0670 C   0  0  0  0  0  0  0  0  0  0  0  0
   20.8400  -28.6040   37.8130 C   0  0  0  0  0  0  0  0  0  0  0  0
   20.8890  -28.1370   36.6760 O   0  0  0  0  0  0  0  0  0  0  0  0
   21.2190  -27.7780   38.9820 C   0  0  0  0  0  0  0  0  0  0  0  0
   21.6100  -26.4750   38.7310 O   0  0  0  0  0  0  0  0  0  0  0  0
   20.6480  -26.6140   41.9770 C   0  0  0  0  0  0  0  0  0  0  0  0
   21.0090  -25.9140   43.1300 C   0  0  0  0  0  0  0  0  0  0  0  0
   22.2240  -26.1740   43.7880 C   0  0  0  0  0  0  0  0  0  0  0  0
   22.5610  -25.3680   45.0300 C   0  0  0  0  0  0  0  0  0  0  0  0
   21.3760  -24.7450   45.7370 C   0  0  0  0  0  0  0  0  0  0  0  0
   20.5710  -23.8110   45.0690 C   0  0  0  0  0  0  0  0  0  0  0  0
   19.4910  -23.2090   45.7160 C   0  0  0  0  0  0  0  0  0  0  0  0
   19.2060  -23.5280   47.0420 C   0  0  0  0  0  0  0  0  0  0  0  0
   20.0060  -24.4440   47.7230 C   0  0  0  0  0  0  0  0  0  0  0  0
   21.0870  -25.0460   47.0760 C   0  0  0  0  0  0  0  0  0  0  0  0
   24.3127  -27.4637   44.9905 H   0  0  0  0  0  0  0  0  0  0  0  0
   24.7322  -28.4890   43.5765 H   0  0  0  0  0  0  0  0  0  0  0  0
   25.1540  -26.7430   43.5765 H   0  0  0  0  0  0  0  0  0  0  0  0
   23.3845  -28.6116   41.6823 H   0  0  0  0  0  0  0  0  0  0  0  0
   19.9496  -32.0794   40.7140 H   0  0  0  0  0  0  0  0  0  0  0  0
   19.2906  -33.6160   38.8607 H   0  0  0  0  0  0  0  0  0  0  0  0
   19.3475  -32.8188   36.4953 H   0  0  0  0  0  0  0  0  0  0  0  0
   19.6790  -31.0340   35.0630 H   0  0  0  0  0  0  0  0  0  0  0  0
   22.4360  -26.3040   38.3230 H   0  0  0  0  0  0  0  0  0  0  0  0
   19.6924  -26.3893   41.4807 H   0  0  0  0  0  0  0  0  0  0  0  0
   20.3311  -25.1458   43.5304 H   0  0  0  0  0  0  0  0  0  0  0  0
   23.0687  -26.0359   45.7414 H   0  0  0  0  0  0  0  0  0  0  0  0
   23.1871  -24.5304   44.6890 H   0  0  0  0  0  0  0  0  0  0  0  0
   20.7933  -23.5501   44.0238 H   0  0  0  0  0  0  0  0  0  0  0  0
   18.8642  -22.4821   45.1787 H   0  0  0  0  0  0  0  0  0  0  0  0
   18.3513  -23.0579   47.5504 H   0  0  0  0  0  0  0  0  0  0  0  0
   19.7854  -24.6930   48.7715 H   0  0  0  0  0  0  0  0  0  0  0  0
   21.7179  -25.7631   47.6216 H   0  0  0  0  0  0  0  0  0  0  0  0
  1  2  1  0
  2  3  2  0
  3  4  1  0
  4  5  1  0
  5  6  1  0
  6  7  1  0
  7  8  2  0
  8  9  1  0
  9 10  2  0
 10 11  1  0
 11 12  1  0
 11 13  2  0
 13 14  1  0
 14 15  2  0
 14 16  1  0
 16 17  1  0
  4 18  2  0
 18 19  1  0
 19 20  2  0
 20 21  1  0
 21 22  1  0
 22 23  2  0
 23 24  1  0
 24 25  2  0
 25 26  1  0
 26 27  2  0
 20  2  1  0
 27 22  1  0
 16  5  2  0
 13  7  1  0
  1 28  1  0
  1 29  1  0
  1 30  1  0
  3 31  1  0
  8 32  1  0
  9 33  1  0
 10 34  1  0
 12 35  1  0
 17 36  1  0
 18 37  1  0
 19 38  1  0
 21 39  1  0
 21 40  1  0
 23 41  1  0
 24 42  1  0
 25 43  1  0
 26 44  1  0
 27 45  1  0
M  END
>  <meeko>  (6) 
{"is_sidechain": [false], "free_energy": -8.942, "intermolecular_energy": -11.664, "internal_energy": -0.211}

$$$$
cand_002_out
     RDKit          3D

 45 48  0  0  0  0  0  0  0  0999 V2000
   18.4660  -28.6060   38.5950 C   0  0  0  0  0  0  0  0  0  0  0  0
   19.7650  -28.7450   39.3380 C   0  0  0  0  0  0  0  0  0  0  0  0
   20.0180  -27.8760   40.4180 C   0  0  0  0  0  0  0  0  0  0  0  0
   21.2140  -27.9340   41.1500 C   0  0  0  0  0  0  0  0  0  0  0  0
   21.4430  -26.9870   42.2610 C   0  0  0  0  0  0  0  0  0  0  0  0
   20.3410  -26.1810   42.5200 O   0  0  0  0  0  0  0  0  0  0  0  0
   20.4170  -25.2540   43.5290 C   0  0  0  0  0  0  0  0  0  0  0  0
   19.2930  -24.4580   43.7440 C   0  0  0  0  0  0  0  0  0  0  0  0
   19.3040  -23.4960   44.7570 C   0  0  0  0  0  0  0  0  0  0  0  0
   20.4390  -23.3310   45.5530 C   0  0  0  0  0  0  0  0  0  0  0  0
   21.5600  -24.1280   45.3360 C   0  0  0  0  0  0  0  0  0  0  0  0
   22.6370  -23.9140   46.1520 O   0  0  0  0  0  0  0  0  0  0  0  0
   21.5490  -25.0890   44.3220 C   0  0  0  0  0  0  0  0  0  0  0  0
   22.7050  -25.9470   44.0600 C   0  0  0  0  0  0  0  0  0  0  0  0
   23.7380  -25.8670   44.7230 O   0  0  0  0  0  0  0  0  0  0  0  0
   22.5940  -26.9300   42.9580 C   0  0  0  0  0  0  0  0  0  0  0  0
   23.6880  -27.7440   42.7280 O   0  0  0  0  0  0  0  0  0  0  0  0
   22.1780  -28.8710   40.7710 C   0  0  0  0  0  0  0  0  0  0  0  0
   21.9500  -29.7320   39.6950 C   0  0  0  0  0  0  0  0  0  0  0  0
   20.7500  -29.6810   38.9640 C   0  0  0  0  0  0  0  0  0  0  0  0
   20.5700  -30.6390   37.7990 C   0  0  0  0  0  0  0  0  0  0  0  0
   19.7620  -31.8820   38.1030 C   0  0  0  0  0  0  0  0  0  0  0  0
   19.5320  -32.2630   39.4340 C   0  0  0  0  0  0  0  0  0  0  0  0
   18.8100  -33.4200   39.7280 C   0  0  0  0  0  0  0  0  0  0  0  0
   18.3150  -34.2160   38.6970 C   0  0  0  0  0  0  0  0  0  0  0  0
   18.5480  -33.8570   37.3710 C   0  0  0  0  0  0  0  0  0  0  0  0
   19.2700  -32.7000   37.0750 C   0  0  0  0  0  0  0  0  0  0  0  0
   17.6393  -28.5175   39.3152 H   0  0  0  0  0  0  0  0  0  0  0  0
   18.4995  -27.7063   37.9630 H   0  0  0  0  0  0  0  0  0  0  0  0
   18.3084  -29.4924   37.9630 H   0  0  0  0  0  0  0  0  0  0  0  0
   19.2570  -27.1316   40.6950 H   0  0  0  0  0  0  0  0  0  0  0  0
   18.3986  -24.5872   43.1169 H   0  0  0  0  0  0  0  0  0  0  0  0
   18.4173  -22.8678   44.9276 H   0  0  0  0  0  0  0  0  0  0  0  0
   20.4477  -22.5729   46.3500 H   0  0  0  0  0  0  0  0  0  0  0  0
   23.2150  -23.1950   45.9870 H   0  0  0  0  0  0  0  0  0  0  0  0
   24.5550  -27.3970   42.8050 H   0  0  0  0  0  0  0  0  0  0  0  0
   23.1262  -28.9315   41.3254 H   0  0  0  0  0  0  0  0  0  0  0  0
   22.7229  -30.4628   39.4146 H   0  0  0  0  0  0  0  0  0  0  0  0
   20.0649  -30.0955   36.9869 H   0  0  0  0  0  0  0  0  0  0  0  0
   21.5787  -30.9890   37.5342 H   0  0  0  0  0  0  0  0  0  0  0  0
   19.9249  -31.6433   40.2535 H   0  0  0  0  0  0  0  0  0  0  0  0
   18.6312  -33.7043   40.7755 H   0  0  0  0  0  0  0  0  0  0  0  0
   17.7417  -35.1256   38.9294 H   0  0  0  0  0  0  0  0  0  0  0  0
   18.1621  -34.4868   36.5559 H   0  0  0  0  0  0  0  0  0  0  0  0
   19.4551  -32.4268   36.0256 H   0  0  0  0  0  0  0  0  0  0  0  0
  1  2  1  0
  2  3  2  0
  3  4  1  0
  4  5  1  0
  5  6  1  0
  6  7  1  0
  7  8  2  0
  8  9  1  0
  9 10  2  0
 10 11  1  0
 11 12  1  0
 11 13  2  0
 13 14  1  0
 14 15  2  0
 14 16  1  0
 16 17  1  0
  4 18  2  0
 18 19  1  0
 19 20  2  0
 20 21  1  0
 21 22  1  0
 22 23  2  0
 23 24  1  0
 24 25  2  0
 25 26  1  0
 26 27  2  0
 20  2  1  0
 27 22  1  0
 16  5  2  0
 13  7  1  0
  1 28  1  0
  1 29  1  0
  1 30  1  0
  3 31  1  0
  8 32  1  0
  9 33  1  0
 10 34  1  0
 12 35  1  0
 17 36  1  0
 18 37  1  0
 19 38  1  0
 21 39  1  0
 21 40  1  0
 23 41  1  0
 24 42  1  0
 25 43  1  0
 26 44  1  0
 27 45  1  0
M  END
>  <meeko>  (7) 
{"is_sidechain": [false], "free_energy": -8.931, "intermolecular_energy": -11.633, "internal_energy": -0.228}

$$$$
cand_002_out
     RDKit          3D

 45 48  0  0  0  0  0  0  0  0999 V2000
   23.3160  -28.9610   41.6650 C   0  0  0  0  0  0  0  0  0  0  0  0
   22.2570  -28.6670   40.6380 C   0  0  0  0  0  0  0  0  0  0  0  0
   21.7870  -29.7240   39.8360 C   0  0  0  0  0  0  0  0  0  0  0  0
   20.8120  -29.5250   38.8460 C   0  0  0  0  0  0  0  0  0  0  0  0
   20.3650  -30.6620   38.0130 C   0  0  0  0  0  0  0  0  0  0  0  0
   20.7190  -30.5230   36.6760 O   0  0  0  0  0  0  0  0  0  0  0  0
   20.3660  -31.5090   35.7900 C   0  0  0  0  0  0  0  0  0  0  0  0
   20.7300  -31.3220   34.4560 C   0  0  0  0  0  0  0  0  0  0  0  0
   20.4020  -32.2880   33.5020 C   0  0  0  0  0  0  0  0  0  0  0  0
   19.7130  -33.4410   33.8830 C   0  0  0  0  0  0  0  0  0  0  0  0
   19.3520  -33.6250   35.2150 C   0  0  0  0  0  0  0  0  0  0  0  0
   18.6780  -34.7780   35.5180 O   0  0  0  0  0  0  0  0  0  0  0  0
   19.6780  -32.6580   36.1680 C   0  0  0  0  0  0  0  0  0  0  0  0
   19.3180  -32.8120   37.5780 C   0  0  0  0  0  0  0  0  0  0  0  0
   18.7160  -33.8020   37.9910 O   0  0  0  0  0  0  0  0  0  0  0  0
   19.7040  -31.7260   38.5070 C   0  0  0  0  0  0  0  0  0  0  0  0
   19.3700  -31.8890   39.8390 O   0  0  0  0  0  0  0  0  0  0  0  0
   20.3200  -28.2320   38.6510 C   0  0  0  0  0  0  0  0  0  0  0  0
   20.7830  -27.1700   39.4300 C   0  0  0  0  0  0  0  0  0  0  0  0
   21.7540  -27.3670   40.4270 C   0  0  0  0  0  0  0  0  0  0  0  0
   22.2220  -26.1660   41.2300 C   0  0  0  0  0  0  0  0  0  0  0  0
   21.1250  -25.3790   41.9140 C   0  0  0  0  0  0  0  0  0  0  0  0
   20.5760  -24.2500   41.2880 C   0  0  0  0  0  0  0  0  0  0  0  0
   19.5820  -23.5000   41.9180 C   0  0  0  0  0  0  0  0  0  0  0  0
   19.1290  -23.8640   43.1850 C   0  0  0  0  0  0  0  0  0  0  0  0
   19.6750  -24.9760   43.8240 C   0  0  0  0  0  0  0  0  0  0  0  0
   20.6700  -25.7270   43.1940 C   0  0  0  0  0  0  0  0  0  0  0  0
   22.8919  -28.8433   42.6731 H   0  0  0  0  0  0  0  0  0  0  0  0
   23.6750  -29.9928   41.5365 H   0  0  0  0  0  0  0  0  0  0  0  0
   24.1555  -28.2620   41.5365 H   0  0  0  0  0  0  0  0  0  0  0  0
   22.1951  -30.7339   39.9893 H   0  0  0  0  0  0  0  0  0  0  0  0
   21.2747  -30.4147   34.1560 H   0  0  0  0  0  0  0  0  0  0  0  0
   20.6867  -32.1403   32.4498 H   0  0  0  0  0  0  0  0  0  0  0  0
   19.4558  -34.2027   33.1322 H   0  0  0  0  0  0  0  0  0  0  0  0
   19.1060  -35.4580   35.9990 H   0  0  0  0  0  0  0  0  0  0  0  0
   19.4430  -32.7330   40.2410 H   0  0  0  0  0  0  0  0  0  0  0  0
   19.5607  -28.0490   37.8764 H   0  0  0  0  0  0  0  0  0  0  0  0
   20.3805  -26.1604   39.2604 H   0  0  0  0  0  0  0  0  0  0  0  0
   22.9166  -26.5243   42.0040 H   0  0  0  0  0  0  0  0  0  0  0  0
   22.6850  -25.4781   40.5072 H   0  0  0  0  0  0  0  0  0  0  0  0
   20.9325  -23.9530   40.2907 H   0  0  0  0  0  0  0  0  0  0  0  0
   19.1553  -22.6203   41.4140 H   0  0  0  0  0  0  0  0  0  0  0  0
   18.3424  -23.2751   43.6795 H   0  0  0  0  0  0  0  0  0  0  0  0
   19.3218  -25.2624   44.8256 H   0  0  0  0  0  0  0  0  0  0  0  0
   21.1008  -26.5997   43.7067 H   0  0  0  0  0  0  0  0  0  0  0  0
  1  2  1  0
  2  3  2  0
  3  4  1  0
  4  5  1  0
  5  6  1  0
  6  7  1  0
  7  8  2  0
  8  9  1  0
  9 10  2  0
 10 11  1  0
 11 12  1  0
 11 13  2  0
 13 14  1  0
 14 15  2  0
 14 16  1  0
 16 17  1  0
  4 18  2  0
 18 19  1  0
 19 20  2  0
 20 21  1  0
 21 22  1  0
 22 23  2  0
 23 24  1  0
 24 25  2  0
 25 26  1  0
 26 27  2  0
 20  2  1  0
 27 22  1  0
 16  5  2  0
 13  7  1  0
  1 28  1  0
  1 29  1  0
  1 30  1  0
  3 31  1  0
  8 32  1  0
  9 33  1  0
 10 34  1  0
 12 35  1  0
 17 36  1  0
 18 37  1  0
 19 38  1  0
 21 39  1  0
 21 40  1  0
 23 41  1  0
 24 42  1  0
 25 43  1  0
 26 44  1  0
 27 45  1  0
M  END
>  <meeko>  (8) 
{"is_sidechain": [false], "free_energy": -8.83, "intermolecular_energy": -11.009, "internal_energy": -0.727}

$$$$
cand_002_out
     RDKit          3D

 45 48  0  0  0  0  0  0  0  0999 V2000
   24.3870  -29.2820   43.0260 C   0  0  0  0  0  0  0  0  0  0  0  0
   23.3320  -28.3720   42.4600 C   0  0  0  0  0  0  0  0  0  0  0  0
   22.9840  -27.2150   43.1830 C   0  0  0  0  0  0  0  0  0  0  0  0
   21.9980  -26.3260   42.7270 C   0  0  0  0  0  0  0  0  0  0  0  0
   21.6510  -25.1360   43.5320 C   0  0  0  0  0  0  0  0  0  0  0  0
   21.7330  -25.3660   44.9000 O   0  0  0  0  0  0  0  0  0  0  0  0
   21.4360  -24.3440   45.7650 C   0  0  0  0  0  0  0  0  0  0  0  0
   21.5180  -24.6240   47.1290 C   0  0  0  0  0  0  0  0  0  0  0  0
   21.2300  -23.6270   48.0640 C   0  0  0  0  0  0  0  0  0  0  0  0
   20.8620  -22.3510   47.6340 C   0  0  0  0  0  0  0  0  0  0  0  0
   20.7810  -22.0740   46.2720 C   0  0  0  0  0  0  0  0  0  0  0  0
   20.4140  -20.8030   45.9210 O   0  0  0  0  0  0  0  0  0  0  0  0
   21.0680  -23.0720   45.3370 C   0  0  0  0  0  0  0  0  0  0  0  0
   20.9950  -22.8230   43.8970 C   0  0  0  0  0  0  0  0  0  0  0  0
   20.6840  -21.7250   43.4410 O   0  0  0  0  0  0  0  0  0  0  0  0
   21.3110  -23.9510   42.9900 C   0  0  0  0  0  0  0  0  0  0  0  0
   21.2530  -23.7000   41.6310 O   0  0  0  0  0  0  0  0  0  0  0  0
   21.3400  -26.6230   41.5310 C   0  0  0  0  0  0  0  0  0  0  0  0
   21.6640  -27.7720   40.8060 C   0  0  0  0  0  0  0  0  0  0  0  0
   22.6560  -28.6610   41.2570 C   0  0  0  0  0  0  0  0  0  0  0  0
   22.9510  -29.8980   40.4270 C   0  0  0  0  0  0  0  0  0  0  0  0
   21.9210  -30.2260   39.3680 C   0  0  0  0  0  0  0  0  0  0  0  0
   20.7940  -30.9930   39.6980 C   0  0  0  0  0  0  0  0  0  0  0  0
   19.8490  -31.3250   38.7260 C   0  0  0  0  0  0  0  0  0  0  0  0
   20.0230  -30.9020   37.4100 C   0  0  0  0  0  0  0  0  0  0  0  0
   21.1450  -30.1510   37.0650 C   0  0  0  0  0  0  0  0  0  0  0  0
   22.0910  -29.8190   38.0360 C   0  0  0  0  0  0  0  0  0  0  0  0
   24.3487  -29.2489   44.1248 H   0  0  0  0  0  0  0  0  0  0  0  0
   24.2054  -30.3115   42.6836 H   0  0  0  0  0  0  0  0  0  0  0  0
   25.3786  -28.9513   42.6836 H   0  0  0  0  0  0  0  0  0  0  0  0
   23.4990  -27.0019   44.1313 H   0  0  0  0  0  0  0  0  0  0  0  0
   21.8092  -25.6291   47.4681 H   0  0  0  0  0  0  0  0  0  0  0  0
   21.2932  -23.8475   49.1398 H   0  0  0  0  0  0  0  0  0  0  0  0
   20.6363  -21.5655   48.3702 H   0  0  0  0  0  0  0  0  0  0  0  0
   20.6540  -20.0790   46.4650 H   0  0  0  0  0  0  0  0  0  0  0  0
   21.4230  -22.8380   41.3060 H   0  0  0  0  0  0  0  0  0  0  0  0
   20.5588  -25.9451   41.1565 H   0  0  0  0  0  0  0  0  0  0  0  0
   21.1341  -27.9853   39.8660 H   0  0  0  0  0  0  0  0  0  0  0  0
   23.9185  -29.7481   39.9254 H   0  0  0  0  0  0  0  0  0  0  0  0
   22.9457  -30.7445   41.1295 H   0  0  0  0  0  0  0  0  0  0  0  0
   20.6535  -31.3364   40.7335 H   0  0  0  0  0  0  0  0  0  0  0  0
   18.9659  -31.9213   38.9993 H   0  0  0  0  0  0  0  0  0  0  0  0
   19.2762  -31.1603   36.6448 H   0  0  0  0  0  0  0  0  0  0  0  0
   21.2853  -29.8193   36.0256 H   0  0  0  0  0  0  0  0  0  0  0  0
   22.9782  -29.2328   37.7544 H   0  0  0  0  0  0  0  0  0  0  0  0
  1  2  1  0
  2  3  2  0
  3  4  1  0
  4  5  1  0
  5  6  1  0
  6  7  1  0
  7  8  2  0
  8  9  1  0
  9 10  2  0
 10 11  1  0
 11 12  1  0
 11 13  2  0
 13 14  1  0
 14 15  2  0
 14 16  1  0
 16 17  1  0
  4 18  2  0
 18 19  1  0
 19 20  2  0
 20 21  1  0
 21 22  1  0
 22 23  2  0
 23 24  1  0
 24 25  2  0
 25 26  1  0
 26 27  2  0
 20  2  1  0
 27 22  1  0
 16  5  2  0
 13  7  1  0
  1 28  1  0
  1 29  1  0
  1 30  1  0
  3 31  1  0
  8 32  1  0
  9 33  1  0
 10 34  1  0
 12 35  1  0
 17 36  1  0
 18 37  1  0
 19 38  1  0
 21 39  1  0
 21 40  1  0
 23 41  1  0
 24 42  1  0
 25 43  1  0
 26 44  1  0
 27 45  1  0
M  END
>  <meeko>  (9) 
{"is_sidechain": [false], "free_energy": -8.352, "intermolecular_energy": -10.763, "internal_energy": -0.384}

$$$$
