cand_039_out
     RDKit          3D

 41 43  0  0  0  0  0  0  0  0999 V2000
   23.0390  -26.6310   44.8770 C   0  0  0  0  0  0  0  0  0  0  0  0
   23.7790  -26.5570   43.5490 C   0  0  0  0  0  0  0  0  0  0  0  0
   23.1780  -27.4810   42.5150 C   0  0  0  0  0  0  0  0  0  0  0  0
   22.1120  -26.9980   41.7380 C   0  0  0  0  0  0  0  0  0  0  0  0
   21.5130  -27.7940   40.7580 C   0  0  0  0  0  0  0  0  0  0  0  0
   21.9590  -29.0990   40.5280 C   0  0  0  0  0  0  0  0  0  0  0  0
   21.3270  -29.9190   39.4720 C   0  0  0  0  0  0  0  0  0  0  0  0
   20.5290  -30.9350   39.9840 O   0  0  0  0  0  0  0  0  0  0  0  0
   19.8810  -31.7730   39.1120 C   0  0  0  0  0  0  0  0  0  0  0  0
   19.0780  -32.7680   39.6690 C   0  0  0  0  0  0  0  0  0  0  0  0
   18.3930  -33.6570   38.8370 C   0  0  0  0  0  0  0  0  0  0  0  0
   18.5120  -33.5500   37.4490 C   0  0  0  0  0  0  0  0  0  0  0  0
   19.3140  -32.5560   36.8970 C   0  0  0  0  0  0  0  0  0  0  0  0
   19.3860  -32.5070   35.5320 O   0  0  0  0  0  0  0  0  0  0  0  0
   19.9990  -31.6660   37.7300 C   0  0  0  0  0  0  0  0  0  0  0  0
   20.8530  -30.6070   37.1900 C   0  0  0  0  0  0  0  0  0  0  0  0
   21.0140  -30.4540   35.9810 O   0  0  0  0  0  0  0  0  0  0  0  0
   21.5290  -29.7120   38.1580 C   0  0  0  0  0  0  0  0  0  0  0  0
   22.3430  -28.7240   37.6370 O   0  0  0  0  0  0  0  0  0  0  0  0
   23.0350  -29.5760   41.2900 C   0  0  0  0  0  0  0  0  0  0  0  0
   23.6560  -28.7860   42.2800 C   0  0  0  0  0  0  0  0  0  0  0  0
   24.7930  -29.4010   43.0650 C   0  0  0  0  0  0  0  0  0  0  0  0
   24.7170  -30.9210   43.0760 C   0  0  0  0  0  0  0  0  0  0  0  0
   23.7611  -26.5588   45.7036 H   0  0  0  0  0  0  0  0  0  0  0  0
   22.3212  -25.8002   44.9436 H   0  0  0  0  0  0  0  0  0  0  0  0
   22.4999  -27.5875   44.9436 H   0  0  0  0  0  0  0  0  0  0  0  0
   23.7318  -25.5243   43.1730 H   0  0  0  0  0  0  0  0  0  0  0  0
   24.8194  -26.8700   43.7213 H   0  0  0  0  0  0  0  0  0  0  0  0
   21.7423  -25.9753   41.9039 H   0  0  0  0  0  0  0  0  0  0  0  0
   20.6820  -27.3897   40.1614 H   0  0  0  0  0  0  0  0  0  0  0  0
   18.9841  -32.8527   40.7617 H   0  0  0  0  0  0  0  0  0  0  0  0
   17.7593  -34.4421   39.2752 H   0  0  0  0  0  0  0  0  0  0  0  0
   17.9728  -34.2501   36.7940 H   0  0  0  0  0  0  0  0  0  0  0  0
   19.9300  -31.8690   35.1140 H   0  0  0  0  0  0  0  0  0  0  0  0
   22.4510  -27.9150   38.0970 H   0  0  0  0  0  0  0  0  0  0  0  0
   23.4057  -30.5960   41.1106 H   0  0  0  0  0  0  0  0  0  0  0  0
   25.7463  -29.0957   42.6089 H   0  0  0  0  0  0  0  0  0  0  0  0
   24.7202  -29.0481   44.1043 H   0  0  0  0  0  0  0  0  0  0  0  0
   24.6991  -31.2797   44.1157 H   0  0  0  0  0  0  0  0  0  0  0  0
   23.8015  -31.2461   42.5601 H   0  0  0  0  0  0  0  0  0  0  0  0
   25.5955  -31.3358   42.5601 H   0  0  0  0  0  0  0  0  0  0  0  0
  1  2  1  0
  2  3  1  0
  3  4  2  0
  4  5  1  0
  5  6  2  0
  6  7  1  0
  7  8  1  0
  8  9  1  0
  9 10  2  0
 10 11  1  0
 11 12  2  0
 12 13  1  0
 13 14  1  0
 13 15  2  0
 15 16  1  0
 16 17  2  0
 16 18  1  0
 18 19  1  0
  6 20  1  0
 20 21  2  0
 21 22  1  0
 22 23  1  0
 21  3  1  0
 18  7  2  0
 15  9  1  0
  1 24  1  0
  1 25  1  0
  1 26  1  0
  2 27  1  0
  2 28  1  0
  4 29  1  0
  5 30  1  0
 10 31  1  0
 11 32  1  0
 12 33  1  0
 14 34  1  0
 19 35  1  0
 20 36  1  0
 22 37  1  0
 22 38  1  0
 23 39  1  0
 23 40  1  0
 23 41  1  0
M  END
>  <meeko>  (1) 
{"is_sidechain": [false], "free_energy": -9.325, "intermolecular_energy": -11.506, "internal_energy": -0.589}

$$$$
cand_039_out
     RDKit          3D

 41 43  0  0  0  0  0  0  0  0999 V2000
   23.5100  -27.8110   44.8450 C   0  0  0  0  0  0  0  0  0  0  0  0
   23.8220  -27.1960   43.4870 C   0  0  0  0  0  0  0  0  0  0  0  0
   23.1150  -27.9190   42.3640 C   0  0  0  0  0  0  0  0  0  0  0  0
   23.6780  -29.1170   41.8930 C   0  0  0  0  0  0  0  0  0  0  0  0
   23.0750  -29.8430   40.8630 C   0  0  0  0  0  0  0  0  0  0  0  0
   21.8930  -29.3910   40.2690 C   0  0  0  0  0  0  0  0  0  0  0  0
   21.2570  -30.1840   39.1950 C   0  0  0  0  0  0  0  0  0  0  0  0
   20.5040  -31.2460   39.6810 O   0  0  0  0  0  0  0  0  0  0  0  0
   19.8580  -32.0650   38.7900 C   0  0  0  0  0  0  0  0  0  0  0  0
   19.1010  -33.1080   39.3220 C   0  0  0  0  0  0  0  0  0  0  0  0
   18.4200  -33.9800   38.4690 C   0  0  0  0  0  0  0  0  0  0  0  0
   18.4970  -33.8080   37.0860 C   0  0  0  0  0  0  0  0  0  0  0  0
   19.2540  -32.7660   36.5570 C   0  0  0  0  0  0  0  0  0  0  0  0
   19.2860  -32.6550   35.1950 O   0  0  0  0  0  0  0  0  0  0  0  0
   19.9340  -31.8930   37.4110 C   0  0  0  0  0  0  0  0  0  0  0  0
   20.7410  -30.7850   36.8970 C   0  0  0  0  0  0  0  0  0  0  0  0
   20.8630  -30.5740   35.6920 O   0  0  0  0  0  0  0  0  0  0  0  0
   21.4160  -29.9130   37.8860 C   0  0  0  0  0  0  0  0  0  0  0  0
   22.1850  -28.8780   37.3890 O   0  0  0  0  0  0  0  0  0  0  0  0
   21.3200  -28.2060   40.7510 C   0  0  0  0  0  0  0  0  0  0  0  0
   21.9100  -27.4630   41.7940 C   0  0  0  0  0  0  0  0  0  0  0  0
   21.2280  -26.1840   42.2250 C   0  0  0  0  0  0  0  0  0  0  0  0
   19.7330  -26.3810   42.4340 C   0  0  0  0  0  0  0  0  0  0  0  0
   23.8532  -27.1344   45.6415 H   0  0  0  0  0  0  0  0  0  0  0  0
   22.4247  -27.9650   44.9371 H   0  0  0  0  0  0  0  0  0  0  0  0
   24.0267  -28.7777   44.9371 H   0  0  0  0  0  0  0  0  0  0  0  0
   23.5001  -26.1442   43.4908 H   0  0  0  0  0  0  0  0  0  0  0  0
   24.9055  -27.2791   43.3165 H   0  0  0  0  0  0  0  0  0  0  0  0
   24.6099  -29.4898   42.3431 H   0  0  0  0  0  0  0  0  0  0  0  0
   23.5350  -30.7799   40.5158 H   0  0  0  0  0  0  0  0  0  0  0  0
   19.0400  -33.2441   40.4118 H   0  0  0  0  0  0  0  0  0  0  0  0
   17.8224  -34.8031   38.8878 H   0  0  0  0  0  0  0  0  0  0  0  0
   17.9603  -34.4947   36.4149 H   0  0  0  0  0  0  0  0  0  0  0  0
   19.7300  -33.3020   34.6820 H   0  0  0  0  0  0  0  0  0  0  0  0
   22.9560  -28.6050   37.8470 H   0  0  0  0  0  0  0  0  0  0  0  0
   20.3827  -27.8452   40.3024 H   0  0  0  0  0  0  0  0  0  0  0  0
   21.6771  -25.8421   43.1691 H   0  0  0  0  0  0  0  0  0  0  0  0
   21.3657  -25.4386   41.4278 H   0  0  0  0  0  0  0  0  0  0  0  0
   19.5141  -26.4098   43.5116 H   0  0  0  0  0  0  0  0  0  0  0  0
   19.1850  -25.5473   41.9707 H   0  0  0  0  0  0  0  0  0  0  0  0
   19.4197  -27.3282   41.9707 H   0  0  0  0  0  0  0  0  0  0  0  0
  1  2  1  0
  2  3  1  0
  3  4  2  0
  4  5  1  0
  5  6  2  0
  6  7  1  0
  7  8  1  0
  8  9  1  0
  9 10  2  0
 10 11  1  0
 11 12  2  0
 12 13  1  0
 13 14  1  0
 13 15  2  0
 15 16  1  0
 16 17  2  0
 16 18  1  0
 18 19  1  0
  6 20  1  0
 20 21  2  0
 21 22  1  0
 22 23  1  0
 21  3  1  0
 18  7  2  0
 15  9  1  0
  1 24  1  0
  1 25  1  0
  1 26  1  0
  2 27  1  0
  2 28  1  0
  4 29  1  0
  5 30  1  0
 10 31  1  0
 11 32  1  0
 12 33  1  0
 14 34  1  0
 19 35  1  0
 20 36  1  0
 22 37  1  0
 22 38  1  0
 23 39  1  0
 23 40  1  0
 23 41  1  0
M  END
>  <meeko>  (2) 
{"is_sidechain": [false], "free_energy": -9.267, "intermolecular_energy": -11.354, "internal_energy": -0.67}

$$$$
cand_039_out
     RDKit          3D

 41 43  0  0  0  0  0  0  0  0999 V2000
   20.3320  -31.5520   34.7500 C   0  0  0  0  0  0  0  0  0  0  0  0
   19.8700  -32.0190   36.1230 C   0  0  0  0  0  0  0  0  0  0  0  0
   20.2980  -31.0680   37.2160 C   0  0  0  0  0  0  0  0  0  0  0  0
   20.8740  -29.8430   36.8380 C   0  0  0  0  0  0  0  0  0  0  0  0
   21.2860  -28.9130   37.7950 C   0  0  0  0  0  0  0  0  0  0  0  0
   21.1390  -29.1790   39.1590 C   0  0  0  0  0  0  0  0  0  0  0  0
   21.5610  -28.1730   40.1580 C   0  0  0  0  0  0  0  0  0  0  0  0
   22.4200  -28.6940   41.1180 O   0  0  0  0  0  0  0  0  0  0  0  0
   22.8890  -27.8670   42.1070 C   0  0  0  0  0  0  0  0  0  0  0  0
   23.7610  -28.4280   43.0410 C   0  0  0  0  0  0  0  0  0  0  0  0
   24.2740  -27.6410   44.0750 C   0  0  0  0  0  0  0  0  0  0  0  0
   23.9150  -26.2950   44.1740 C   0  0  0  0  0  0  0  0  0  0  0  0
   23.0450  -25.7390   43.2410 C   0  0  0  0  0  0  0  0  0  0  0  0
   22.7350  -24.4160   43.3980 O   0  0  0  0  0  0  0  0  0  0  0  0
   22.5320  -26.5260   42.2060 C   0  0  0  0  0  0  0  0  0  0  0  0
   21.6150  -25.9810   41.2050 C   0  0  0  0  0  0  0  0  0  0  0  0
   21.2470  -24.8080   41.2300 O   0  0  0  0  0  0  0  0  0  0  0  0
   21.1350  -26.8970   40.1440 C   0  0  0  0  0  0  0  0  0  0  0  0
   20.2590  -26.3740   39.2120 O   0  0  0  0  0  0  0  0  0  0  0  0
   20.5470  -30.3930   39.5380 C   0  0  0  0  0  0  0  0  0  0  0  0
   20.1200  -31.3420   38.5870 C   0  0  0  0  0  0  0  0  0  0  0  0
   19.5160  -32.6320   39.0970 C   0  0  0  0  0  0  0  0  0  0  0  0
   18.0420  -32.4720   39.4410 C   0  0  0  0  0  0  0  0  0  0  0  0
   21.1012  -30.7744   34.8668 H   0  0  0  0  0  0  0  0  0  0  0  0
   20.7528  -32.4037   34.1954 H   0  0  0  0  0  0  0  0  0  0  0  0
   19.4758  -31.1404   34.1954 H   0  0  0  0  0  0  0  0  0  0  0  0
   18.7723  -32.0902   36.1235 H   0  0  0  0  0  0  0  0  0  0  0  0
   20.3314  -32.9973   36.3229 H   0  0  0  0  0  0  0  0  0  0  0  0
   21.0025  -29.6128   35.7701 H   0  0  0  0  0  0  0  0  0  0  0  0
   21.7312  -27.9605   37.4715 H   0  0  0  0  0  0  0  0  0  0  0  0
   24.0440  -29.4881   42.9632 H   0  0  0  0  0  0  0  0  0  0  0  0
   24.9614  -28.0819   44.8119 H   0  0  0  0  0  0  0  0  0  0  0  0
   24.3192  -25.6754   44.9881 H   0  0  0  0  0  0  0  0  0  0  0  0
   21.8640  -24.1150   43.2250 H   0  0  0  0  0  0  0  0  0  0  0  0
   19.6260  -25.7330   39.4710 H   0  0  0  0  0  0  0  0  0  0  0  0
   20.4121  -30.6107   40.6078 H   0  0  0  0  0  0  0  0  0  0  0  0
   19.6180  -33.4039   38.3200 H   0  0  0  0  0  0  0  0  0  0  0  0
   20.0507  -32.9193   40.0143 H   0  0  0  0  0  0  0  0  0  0  0  0
   17.9199  -32.4588   40.5341 H   0  0  0  0  0  0  0  0  0  0  0  0
   17.6673  -31.5279   39.0187 H   0  0  0  0  0  0  0  0  0  0  0  0
   17.4735  -33.3137   39.0187 H   0  0  0  0  0  0  0  0  0  0  0  0
  1  2  1  0
  2  3  1  0
  3  4  2  0
  4  5  1  0
  5  6  2  0
  6  7  1  0
  7  8  1  0
  8  9  1  0
  9 10  2  0
 10 11  1  0
 11 12  2  0
 12 13  1  0
 13 14  1  0
 13 15  2  0
 15 16  1  0
 16 17  2  0
 16 18  1  0
 18 19  1  0
  6 20  1  0
 20 21  2  0
 21 22  1  0
 22 23  1  0
 21  3  1  0
 18  7  2  0
 15  9  1  0
  1 24  1  0
  1 25  1  0
  1 26  1  0
  2 27  1  0
  2 28  1  0
  4 29  1  0
  5 30  1  0
 10 31  1  0
 11 32  1  0
 12 33  1  0
 14 34  1  0
 19 35  1  0
 20 36  1  0
 22 37  1  0
 22 38  1  0
 23 39  1  0
 23 40  1  0
 23 41  1  0
M  END
>  <meeko>  (3) 
{"is_sidechain": [false], "free_energy": -8.766, "intermolecular_energy": -11.011, "internal_energy": -0.394}

$$$$
cand_039_out
     RDKit          3D

 41 43  0  0  0  0  0  0  0  0999 V2000
   19.6730  -26.3910   42.5460 C   0  0  0  0  0  0  0  0  0  0  0  0
   20.5490  -26.3510   41.3020 C   0  0  0  0  0  0  0  0  0  0  0  0
   20.4080  -27.6050   40.4700 C   0  0  0  0  0  0  0  0  0  0  0  0
   19.2500  -27.7510   39.6870 C   0  0  0  0  0  0  0  0  0  0  0  0
   19.0570  -28.8800   38.8880 C   0  0  0  0  0  0  0  0  0  0  0  0
   20.0120  -29.9000   38.8500 C   0  0  0  0  0  0  0  0  0  0  0  0
   19.8000  -31.0780   37.9820 C   0  0  0  0  0  0  0  0  0  0  0  0
   20.1650  -30.8470   36.6610 O   0  0  0  0  0  0  0  0  0  0  0  0
   20.0200  -31.8590   35.7460 C   0  0  0  0  0  0  0  0  0  0  0  0
   20.4140  -31.5890   34.4350 C   0  0  0  0  0  0  0  0  0  0  0  0
   20.2910  -32.5750   33.4540 C   0  0  0  0  0  0  0  0  0  0  0  0
   19.7730  -33.8300   33.7830 C   0  0  0  0  0  0  0  0  0  0  0  0
   19.3800  -34.0960   35.0920 C   0  0  0  0  0  0  0  0  0  0  0  0
   18.8820  -35.3440   35.3450 O   0  0  0  0  0  0  0  0  0  0  0  0
   19.5050  -33.1090   36.0740 C   0  0  0  0  0  0  0  0  0  0  0  0
   19.1040  -33.3480   37.4610 C   0  0  0  0  0  0  0  0  0  0  0  0
   18.6330  -34.4230   37.8260 O   0  0  0  0  0  0  0  0  0  0  0  0
   19.2840  -32.2390   38.4270 C   0  0  0  0  0  0  0  0  0  0  0  0
   18.8900  -32.4710   39.7310 O   0  0  0  0  0  0  0  0  0  0  0  0
   21.1750  -29.7470   39.6170 C   0  0  0  0  0  0  0  0  0  0  0  0
   21.3920  -28.6120   40.4250 C   0  0  0  0  0  0  0  0  0  0  0  0
   22.6690  -28.5530   41.2340 C   0  0  0  0  0  0  0  0  0  0  0  0
   23.4400  -29.8640   41.1730 C   0  0  0  0  0  0  0  0  0  0  0  0
   20.3087  -26.3620   43.4432 H   0  0  0  0  0  0  0  0  0  0  0  0
   18.9976  -25.5228   42.5469 H   0  0  0  0  0  0  0  0  0  0  0  0
   19.0795  -27.3172   42.5469 H   0  0  0  0  0  0  0  0  0  0  0  0
   20.2579  -25.4843   40.6903 H   0  0  0  0  0  0  0  0  0  0  0  0
   21.5972  -26.2746   41.6267 H   0  0  0  0  0  0  0  0  0  0  0  0
   18.4829  -26.9628   39.7038 H   0  0  0  0  0  0  0  0  0  0  0  0
   18.1433  -28.9676   38.2818 H   0  0  0  0  0  0  0  0  0  0  0  0
   20.8209  -30.6008   34.1746 H   0  0  0  0  0  0  0  0  0  0  0  0
   20.6025  -32.3632   32.4205 H   0  0  0  0  0  0  0  0  0  0  0  0
   19.6758  -34.6063   33.0097 H   0  0  0  0  0  0  0  0  0  0  0  0
   18.5720  -35.5590   36.2030 H   0  0  0  0  0  0  0  0  0  0  0  0
   18.2620  -33.1410   39.9190 H   0  0  0  0  0  0  0  0  0  0  0  0
   21.9412  -30.5357   39.5878 H   0  0  0  0  0  0  0  0  0  0  0  0
   23.3046  -27.7477   40.8371 H   0  0  0  0  0  0  0  0  0  0  0  0
   22.3995  -28.3643   42.2836 H   0  0  0  0  0  0  0  0  0  0  0  0
   23.6468  -30.2156   42.1946 H   0  0  0  0  0  0  0  0  0  0  0  0
   22.8410  -30.6172   40.6402 H   0  0  0  0  0  0  0  0  0  0  0  0
   24.3894  -29.7066   40.6402 H   0  0  0  0  0  0  0  0  0  0  0  0
  1  2  1  0
  2  3  1  0
  3  4  2  0
  4  5  1  0
  5  6  2  0
  6  7  1  0
  7  8  1  0
  8  9  1  0
  9 10  2  0
 10 11  1  0
 11 12  2  0
 12 13  1  0
 13 14  1  0
 13 15  2  0
 15 16  1  0
 16 17  2  0
 16 18  1  0
 18 19  1  0
  6 20  1  0
 20 21  2  0
 21 22  1  0
 22 23  1  0
 21  3  1  0
 18  7  2  0
 15  9  1  0
  1 24  1  0
  1 25  1  0
  1 26  1  0
  2 27  1  0
  2 28  1  0
  4 29  1  0
  5 30  1  0
 10 31  1  0
 11 32  1  0
 12 33  1  0
 14 34  1  0
 19 35  1  0
 20 36  1  0
 22 37  1  0
 22 38  1  0
 23 39  1  0
 23 40  1  0
 23 41  1  0
M  END
>  <meeko>  (4) 
{"is_sidechain": [false], "free_energy": -8.598, "intermolecular_energy": -10.558, "internal_energy": -0.64}

$$$$
cand_039_out
     RDKit          3D

 41 43  0  0  0  0  0  0  0  0999 V2000
   21.6680  -24.7660   45.2970 C   0  0  0  0  0  0  0  0  0  0  0  0
   22.6560  -25.8970   45.0500 C   0  0  0  0  0  0  0  0  0  0  0  0
   22.3440  -26.6510   43.7780 C   0  0  0  0  0  0  0  0  0  0  0  0
   21.1310  -26.3730   43.1260 C   0  0  0  0  0  0  0  0  0  0  0  0
   20.7810  -27.0260   41.9410 C   0  0  0  0  0  0  0  0  0  0  0  0
   21.6300  -27.9800   41.3750 C   0  0  0  0  0  0  0  0  0  0  0  0
   21.2530  -28.6450   40.1090 C   0  0  0  0  0  0  0  0  0  0  0  0
   20.8100  -29.9490   40.2970 O   0  0  0  0  0  0  0  0  0  0  0  0
   20.4270  -30.6840   39.2030 C   0  0  0  0  0  0  0  0  0  0  0  0
   19.9740  -31.9820   39.4390 C   0  0  0  0  0  0  0  0  0  0  0  0
   19.5710  -32.7840   38.3680 C   0  0  0  0  0  0  0  0  0  0  0  0
   19.6210  -32.2880   37.0640 C   0  0  0  0  0  0  0  0  0  0  0  0
   20.0740  -30.9920   36.8320 C   0  0  0  0  0  0  0  0  0  0  0  0
   20.0970  -30.5700   35.5310 O   0  0  0  0  0  0  0  0  0  0  0  0
   20.4760  -30.1890   37.9030 C   0  0  0  0  0  0  0  0  0  0  0  0
   20.9580  -28.8220   37.7030 C   0  0  0  0  0  0  0  0  0  0  0  0
   21.0380  -28.3180   36.5850 O   0  0  0  0  0  0  0  0  0  0  0  0
   21.3530  -28.0520   38.9050 C   0  0  0  0  0  0  0  0  0  0  0  0
   21.8190  -26.7660   38.7030 O   0  0  0  0  0  0  0  0  0  0  0  0
   22.8490  -28.2450   42.0140 C   0  0  0  0  0  0  0  0  0  0  0  0
   23.2230  -27.5930   43.2070 C   0  0  0  0  0  0  0  0  0  0  0  0
   24.5480  -27.9680   43.8320 C   0  0  0  0  0  0  0  0  0  0  0  0
   24.8040  -29.4660   43.7650 C   0  0  0  0  0  0  0  0  0  0  0  0
   21.5407  -24.6203   46.3799 H   0  0  0  0  0  0  0  0  0  0  0  0
   22.0510  -23.8393   44.8448 H   0  0  0  0  0  0  0  0  0  0  0  0
   20.6982  -25.0210   44.8448 H   0  0  0  0  0  0  0  0  0  0  0  0
   23.6686  -25.4741   44.9733 H   0  0  0  0  0  0  0  0  0  0  0  0
   22.5832  -26.6026   45.8908 H   0  0  0  0  0  0  0  0  0  0  0  0
   20.4448  -25.6284   43.5557 H   0  0  0  0  0  0  0  0  0  0  0  0
   19.8269  -26.7862   41.4488 H   0  0  0  0  0  0  0  0  0  0  0  0
   19.9341  -32.3735   40.4662 H   0  0  0  0  0  0  0  0  0  0  0  0
   19.2138  -33.8079   38.5527 H   0  0  0  0  0  0  0  0  0  0  0  0
   19.3032  -32.9198   36.2215 H   0  0  0  0  0  0  0  0  0  0  0  0
   19.5150  -30.9520   34.9040 H   0  0  0  0  0  0  0  0  0  0  0  0
   21.2180  -26.0480   38.6790 H   0  0  0  0  0  0  0  0  0  0  0  0
   23.5341  -28.9833   41.5718 H   0  0  0  0  0  0  0  0  0  0  0  0
   25.3542  -27.4453   43.2965 H   0  0  0  0  0  0  0  0  0  0  0  0
   24.5199  -27.6744   44.8917 H   0  0  0  0  0  0  0  0  0  0  0  0
   24.8734  -29.8721   44.7849 H   0  0  0  0  0  0  0  0  0  0  0  0
   23.9765  -29.9559   43.2308 H   0  0  0  0  0  0  0  0  0  0  0  0
   25.7472  -29.6533   43.2308 H   0  0  0  0  0  0  0  0  0  0  0  0
  1  2  1  0
  2  3  1  0
  3  4  2  0
  4  5  1  0
  5  6  2  0
  6  7  1  0
  7  8  1  0
  8  9  1  0
  9 10  2  0
 10 11  1  0
 11 12  2  0
 12 13  1  0
 13 14  1  0
 13 15  2  0
 15 16  1  0
 16 17  2  0
 16 18  1  0
 18 19  1  0
  6 20  1  0
 20 21  2  0
 21 22  1  0
 22 23  1  0
 21  3  1  0
 18  7  2  0
 15  9  1  0
  1 24  1  0
  1 25  1  0
  1 26  1  0
  2 27  1  0
  2 28  1  0
  4 29  1  0
  5 30  1  0
 10 31  1  0
 11 32  1  0
 12 33  1  0
 14 34  1  0
 19 35  1  0
 20 36  1  0
 22 37  1  0
 22 38  1  0
 23 39  1  0
 23 40  1  0
 23 41  1  0
M  END
>  <meeko>  (5) 
{"is_sidechain": [false], "free_energy": -8.581, "intermolecular_energy": -10.588, "internal_energy": -0.589}

$$$$
cand_039_out
     RDKit          3D

 41 43  0  0  0  0  0  0  0  0999 V2000
   20.7510  -30.9190   34.8570 C   0  0  0  0  0  0  0  0  0  0  0  0
   20.0000  -31.4380   36.0740 C   0  0  0  0  0  0  0  0  0  0  0  0
   20.4770  -30.7890   37.3530 C   0  0  0  0  0  0  0  0  0  0  0  0
   21.1560  -29.5620   37.2570 C   0  0  0  0  0  0  0  0  0  0  0  0
   21.6180  -28.9020   38.3970 C   0  0  0  0  0  0  0  0  0  0  0  0
   21.4210  -29.4490   39.6680 C   0  0  0  0  0  0  0  0  0  0  0  0
   21.8990  -28.7240   40.8660 C   0  0  0  0  0  0  0  0  0  0  0  0
   21.0920  -27.6430   41.1990 O   0  0  0  0  0  0  0  0  0  0  0  0
   21.4210  -26.8810   42.2920 C   0  0  0  0  0  0  0  0  0  0  0  0
   20.5760  -25.8160   42.6000 C   0  0  0  0  0  0  0  0  0  0  0  0
   20.8550  -25.0000   43.6990 C   0  0  0  0  0  0  0  0  0  0  0  0
   21.9790  -25.2500   44.4890 C   0  0  0  0  0  0  0  0  0  0  0  0
   22.8210  -26.3140   44.1790 C   0  0  0  0  0  0  0  0  0  0  0  0
   23.9030  -26.5030   44.9940 O   0  0  0  0  0  0  0  0  0  0  0  0
   22.5410  -27.1320   43.0800 C   0  0  0  0  0  0  0  0  0  0  0  0
   23.4000  -28.2600   42.7200 C   0  0  0  0  0  0  0  0  0  0  0  0
   24.4100  -28.5390   43.3620 O   0  0  0  0  0  0  0  0  0  0  0  0
   23.0100  -29.0690   41.5410 C   0  0  0  0  0  0  0  0  0  0  0  0
   23.8360  -30.1240   41.2030 O   0  0  0  0  0  0  0  0  0  0  0  0
   20.7280  -30.6630   39.7670 C   0  0  0  0  0  0  0  0  0  0  0  0
   20.2480  -31.3430   38.6280 C   0  0  0  0  0  0  0  0  0  0  0  0
   19.5350  -32.6590   38.8390 C   0  0  0  0  0  0  0  0  0  0  0  0
   18.1210  -32.4610   39.3680 C   0  0  0  0  0  0  0  0  0  0  0  0
   21.6145  -30.3222   35.1860 H   0  0  0  0  0  0  0  0  0  0  0  0
   21.1014  -31.7686   34.2525 H   0  0  0  0  0  0  0  0  0  0  0  0
   20.0801  -30.2909   34.2525 H   0  0  0  0  0  0  0  0  0  0  0  0
   18.9281  -31.2264   35.9467 H   0  0  0  0  0  0  0  0  0  0  0  0
   20.1856  -32.5194   36.1520 H   0  0  0  0  0  0  0  0  0  0  0  0
   21.3262  -29.1143   36.2668 H   0  0  0  0  0  0  0  0  0  0  0  0
   22.1429  -27.9408   38.2939 H   0  0  0  0  0  0  0  0  0  0  0  0
   19.6904  -25.6183   41.9783 H   0  0  0  0  0  0  0  0  0  0  0  0
   20.1884  -24.1595   43.9424 H   0  0  0  0  0  0  0  0  0  0  0  0
   22.1985  -24.6074   45.3544 H   0  0  0  0  0  0  0  0  0  0  0  0
   24.7560  -26.2400   44.7080 H   0  0  0  0  0  0  0  0  0  0  0  0
   24.4820  -30.4270   41.8100 H   0  0  0  0  0  0  0  0  0  0  0  0
   20.5532  -31.0984   40.7619 H   0  0  0  0  0  0  0  0  0  0  0  0
   19.4838  -33.1935   37.8790 H   0  0  0  0  0  0  0  0  0  0  0  0
   20.1001  -33.2367   39.5853 H   0  0  0  0  0  0  0  0  0  0  0  0
   18.1373  -32.4633   40.4679 H   0  0  0  0  0  0  0  0  0  0  0  0
   17.7266  -31.4989   39.0091 H   0  0  0  0  0  0  0  0  0  0  0  0
   17.4775  -33.2778   39.0091 H   0  0  0  0  0  0  0  0  0  0  0  0
  1  2  1  0
  2  3  1  0
  3  4  2  0
  4  5  1  0
  5  6  2  0
  6  7  1  0
  7  8  1  0
  8  9  1  0
  9 10  2  0
 10 11  1  0
 11 12  2  0
 12 13  1  0
 13 14  1  0
 13 15  2  0
 15 16  1  0
 16 17  2  0
 16 18  1  0
 18 19  1  0
  6 20  1  0
 20 21  2  0
 21 22  1  0
 22 23  1  0
 21  3  1  0
 18  7  2  0
 15  9  1  0
  1 24  1  0
  1 25  1  0
  1 26  1  0
  2 27  1  0
  2 28  1  0
  4 29  1  0
  5 30  1  0
 10 31  1  0
 11 32  1  0
 12 33  1  0
 14 34  1  0
 19 35  1  0
 20 36  1  0
 22 37  1  0
 22 38  1  0
 23 39  1  0
 23 40  1  0
 23 41  1  0
M  END
>  <meeko>  (6) 
{"is_sidechain": [false], "free_energy": -8.468, "intermolecular_energy": -10.417, "internal_energy": -0.621}

$$$$
cand_039_out
     RDKit          3D

 41 43  0  0  0  0  0  0  0  0999 V2000
   22.9940  -27.5830   43.1430 C   0  0  0  0  0  0  0  0  0  0  0  0
   22.2060  -26.9190   42.0230 C   0  0  0  0  0  0  0  0  0  0  0  0
   21.6820  -27.9260   41.0260 C   0  0  0  0  0  0  0  0  0  0  0  0
   22.5340  -28.9740   40.6360 C   0  0  0  0  0  0  0  0  0  0  0  0
   22.1140  -29.9460   39.7240 C   0  0  0  0  0  0  0  0  0  0  0  0
   20.8310  -29.8980   39.1720 C   0  0  0  0  0  0  0  0  0  0  0  0
   20.3960  -30.9470   38.2250 C   0  0  0  0  0  0  0  0  0  0  0  0
   20.7240  -30.6540   36.9060 O   0  0  0  0  0  0  0  0  0  0  0  0
   20.3780  -31.5450   35.9220 C   0  0  0  0  0  0  0  0  0  0  0  0
   20.7410  -31.2180   34.6160 C   0  0  0  0  0  0  0  0  0  0  0  0
   20.4170  -32.0820   33.5660 C   0  0  0  0  0  0  0  0  0  0  0  0
   19.7310  -33.2700   33.8240 C   0  0  0  0  0  0  0  0  0  0  0  0
   19.3700  -33.5930   35.1290 C   0  0  0  0  0  0  0  0  0  0  0  0
   18.7000  -34.7720   35.3110 O   0  0  0  0  0  0  0  0  0  0  0  0
   19.6950  -32.7300   36.1790 C   0  0  0  0  0  0  0  0  0  0  0  0
   19.3350  -33.0320   37.5650 C   0  0  0  0  0  0  0  0  0  0  0  0
   18.7240  -34.0540   37.8700 O   0  0  0  0  0  0  0  0  0  0  0  0
   19.7330  -32.0550   38.6050 C   0  0  0  0  0  0  0  0  0  0  0  0
   19.3750  -32.3440   39.9090 O   0  0  0  0  0  0  0  0  0  0  0  0
   19.9740  -28.8640   39.5740 C   0  0  0  0  0  0  0  0  0  0  0  0
   20.3770  -27.8780   40.4970 C   0  0  0  0  0  0  0  0  0  0  0  0
   19.3870  -26.7900   40.8470 C   0  0  0  0  0  0  0  0  0  0  0  0
   19.4880  -25.6030   39.8990 C   0  0  0  0  0  0  0  0  0  0  0  0
   22.6002  -27.2512   44.1150 H   0  0  0  0  0  0  0  0  0  0  0  0
   22.8969  -28.6757   43.0617 H   0  0  0  0  0  0  0  0  0  0  0  0
   24.0544  -27.3020   43.0617 H   0  0  0  0  0  0  0  0  0  0  0  0
   21.3550  -26.3766   42.4607 H   0  0  0  0  0  0  0  0  0  0  0  0
   22.8828  -26.2343   41.4908 H   0  0  0  0  0  0  0  0  0  0  0  0
   23.5491  -29.0299   41.0561 H   0  0  0  0  0  0  0  0  0  0  0  0
   22.8000  -30.7569   39.4378 H   0  0  0  0  0  0  0  0  0  0  0  0
   21.2814  -30.2818   34.4124 H   0  0  0  0  0  0  0  0  0  0  0  0
   20.7029  -31.8254   32.5353 H   0  0  0  0  0  0  0  0  0  0  0  0
   19.4761  -33.9497   32.9975 H   0  0  0  0  0  0  0  0  0  0  0  0
   17.7660  -34.7950   35.2410 H   0  0  0  0  0  0  0  0  0  0  0  0
   19.4650  -31.6910   40.5750 H   0  0  0  0  0  0  0  0  0  0  0  0
   18.9571  -28.8209   39.1568 H   0  0  0  0  0  0  0  0  0  0  0  0
   18.3694  -27.2040   40.7911 H   0  0  0  0  0  0  0  0  0  0  0  0
   19.6160  -26.4351   41.8627 H   0  0  0  0  0  0  0  0  0  0  0  0
   19.5671  -24.6737   40.4822 H   0  0  0  0  0  0  0  0  0  0  0  0
   20.3799  -25.7150   39.2649 H   0  0  0  0  0  0  0  0  0  0  0  0
   18.5900  -25.5627   39.2649 H   0  0  0  0  0  0  0  0  0  0  0  0
  1  2  1  0
  2  3  1  0
  3  4  2  0
  4  5  1  0
  5  6  2  0
  6  7  1  0
  7  8  1  0
  8  9  1  0
  9 10  2  0
 10 11  1  0
 11 12  2  0
 12 13  1  0
 13 14  1  0
 13 15  2  0
 15 16  1  0
 16 17  2  0
 16 18  1  0
 18 19  1  0
  6 20  1  0
 20 21  2  0
 21 22  1  0
 22 23  1  0
 21  3  1  0
 18  7  2  0
 15  9  1  0
  1 24  1  0
  1 25  1  0
  1 26  1  0
  2 27  1  0
  2 28  1  0
  4 29  1  0
  5 30  1  0
 10 31  1  0
 11 32  1  0
 12 33  1  0
 14 34  1  0
 19 35  1  0
 20 36  1  0
 22 37  1  0
 22 38  1  0
 23 39  1  0
 23 40  1  0
 23 41  1  0
M  END
>  <meeko>  (7) 
{"is_sidechain": [false], "free_energy": -8.38, "intermolecular_energy": -10.296, "internal_energy": -0.633}

$$$$
cand_039_out
     RDKit          3D

 41 43  0  0  0  0  0  0  0  0999 V2000
   18.2640  -33.6960   37.3860 C   0  0  0  0  0  0  0  0  0  0  0  0
   19.3780  -32.9470   36.6690 C   0  0  0  0  0  0  0  0  0  0  0  0
   19.9000  -31.7910   37.4900 C   0  0  0  0  0  0  0  0  0  0  0  0
   19.8170  -31.8840   38.8900 C   0  0  0  0  0  0  0  0  0  0  0  0
   20.2870  -30.8570   39.7110 C   0  0  0  0  0  0  0  0  0  0  0  0
   20.8510  -29.7040   39.1600 C   0  0  0  0  0  0  0  0  0  0  0  0
   21.3640  -28.6360   40.0460 C   0  0  0  0  0  0  0  0  0  0  0  0
   22.2830  -29.1030   40.9780 O   0  0  0  0  0  0  0  0  0  0  0  0
   22.8390  -28.2160   41.8640 C   0  0  0  0  0  0  0  0  0  0  0  0
   23.7690  -28.7250   42.7710 C   0  0  0  0  0  0  0  0  0  0  0  0
   24.3700  -27.8750   43.7030 C   0  0  0  0  0  0  0  0  0  0  0  0
   24.0420  -26.5190   43.7270 C   0  0  0  0  0  0  0  0  0  0  0  0
   23.1130  -26.0130   42.8210 C   0  0  0  0  0  0  0  0  0  0  0  0
   22.8380  -24.6760   42.8990 O   0  0  0  0  0  0  0  0  0  0  0  0
   22.5120  -26.8640   41.8880 C   0  0  0  0  0  0  0  0  0  0  0  0
   21.5320  -26.3740   40.9180 C   0  0  0  0  0  0  0  0  0  0  0  0
   21.1860  -25.1950   40.8820 O   0  0  0  0  0  0  0  0  0  0  0  0
   20.9590  -27.3550   39.9680 C   0  0  0  0  0  0  0  0  0  0  0  0
   20.0240  -26.8840   39.0650 O   0  0  0  0  0  0  0  0  0  0  0  0
   20.9520  -29.6170   37.7640 C   0  0  0  0  0  0  0  0  0  0  0  0
   20.4890  -30.6450   36.9180 C   0  0  0  0  0  0  0  0  0  0  0  0
   20.6210  -30.4450   35.4250 C   0  0  0  0  0  0  0  0  0  0  0  0
   20.0290  -29.1170   34.9760 C   0  0  0  0  0  0  0  0  0  0  0  0
   18.4011  -33.6038   38.4735 H   0  0  0  0  0  0  0  0  0  0  0  0
   17.2917  -33.2674   37.1014 H   0  0  0  0  0  0  0  0  0  0  0  0
   18.2940  -34.7581   37.1014 H   0  0  0  0  0  0  0  0  0  0  0  0
   20.2052  -33.6445   36.4710 H   0  0  0  0  0  0  0  0  0  0  0  0
   18.9678  -32.5416   35.7323 H   0  0  0  0  0  0  0  0  0  0  0  0
   19.3741  -32.7813   39.3468 H   0  0  0  0  0  0  0  0  0  0  0  0
   20.2123  -30.9570   40.8039 H   0  0  0  0  0  0  0  0  0  0  0  0
   24.0287  -29.7938   42.7524 H   0  0  0  0  0  0  0  0  0  0  0  0
   25.1029  -28.2755   44.4189 H   0  0  0  0  0  0  0  0  0  0  0  0
   24.5165  -25.8505   44.4605 H   0  0  0  0  0  0  0  0  0  0  0  0
   21.9880  -24.3580   42.6650 H   0  0  0  0  0  0  0  0  0  0  0  0
   20.2270  -26.1490   38.5200 H   0  0  0  0  0  0  0  0  0  0  0  0
   21.4057  -28.7205   37.3162 H   0  0  0  0  0  0  0  0  0  0  0  0
   21.6873  -30.4681   35.1560 H   0  0  0  0  0  0  0  0  0  0  0  0
   20.0678  -31.2522   34.9226 H   0  0  0  0  0  0  0  0  0  0  0  0
   19.7618  -28.5175   35.8587 H   0  0  0  0  0  0  0  0  0  0  0  0
   20.7690  -28.5711   34.3724 H   0  0  0  0  0  0  0  0  0  0  0  0
   19.1283  -29.3024   34.3724 H   0  0  0  0  0  0  0  0  0  0  0  0
  1  2  1  0
  2  3  1  0
  3  4  2  0
  4  5  1  0
  5  6  2  0
  6  7  1  0
  7  8  1  0
  8  9  1  0
  9 10  2  0
 10 11  1  0
 11 12  2  0
 12 13  1  0
 13 14  1  0
 13 15  2  0
 15 16  1  0
 16 17  2  0
 16 18  1  0
 18 19  1  0
  6 20  1  0
 20 21  2  0
 21 22  1  0
 22 23  1  0
 21  3  1  0
 18  7  2  0
 15  9  1  0
  1 24  1  0
  1 25  1  0
  1 26  1  0
  2 27  1  0
  2 28  1  0
  4 29  1  0
  5 30  1  0
 10 31  1  0
 11 32  1  0
 12 33  1  0
 14 34  1  0
 19 35  1  0
 20 36  1  0
 22 37  1  0
 22 38  1  0
 23 39  1  0
 23 40  1  0
 23 41  1  0
M  END
>  <meeko>  (8) 
{"is_sidechain": [false], "free_energy": -8.129, "intermolecular_energy": -10.166, "internal_energy": -0.453}

$$$$
cand_039_out
     RDKit          3D

 41 43  0  0  0  0  0  0  0  0999 V2000
   19.9920  -33.6730   33.6410 C   0  0  0  0  0  0  0  0  0  0  0  0
   19.2800  -34.0210   34.9400 C   0  0  0  0  0  0  0  0  0  0  0  0
   19.5210  -32.9840   36.0120 C   0  0  0  0  0  0  0  0  0  0  0  0
   20.0920  -31.7580   35.6280 C   0  0  0  0  0  0  0  0  0  0  0  0
   20.3360  -30.7500   36.5640 C   0  0  0  0  0  0  0  0  0  0  0  0
   20.0200  -30.9370   37.9120 C   0  0  0  0  0  0  0  0  0  0  0  0
   20.2650  -29.8500   38.8850 C   0  0  0  0  0  0  0  0  0  0  0  0
   21.4540  -30.0130   39.5880 O   0  0  0  0  0  0  0  0  0  0  0  0
   21.8050  -29.0750   40.5250 C   0  0  0  0  0  0  0  0  0  0  0  0
   23.0130  -29.2690   41.1950 C   0  0  0  0  0  0  0  0  0  0  0  0
   23.4280  -28.3510   42.1630 C   0  0  0  0  0  0  0  0  0  0  0  0
   22.6360  -27.2410   42.4600 C   0  0  0  0  0  0  0  0  0  0  0  0
   21.4310  -27.0490   41.7890 C   0  0  0  0  0  0  0  0  0  0  0  0
   20.7040  -25.9410   42.1290 O   0  0  0  0  0  0  0  0  0  0  0  0
   21.0160  -27.9670   40.8200 C   0  0  0  0  0  0  0  0  0  0  0  0
   19.7570  -27.8030   40.0930 C   0  0  0  0  0  0  0  0  0  0  0  0
   19.0020  -26.8560   40.3030 O   0  0  0  0  0  0  0  0  0  0  0  0
   19.4120  -28.8280   39.0800 C   0  0  0  0  0  0  0  0  0  0  0  0
   18.2140  -28.6700   38.4080 O   0  0  0  0  0  0  0  0  0  0  0  0
   19.4340  -32.1520   38.2940 C   0  0  0  0  0  0  0  0  0  0  0  0
   19.1740  -33.1790   37.3640 C   0  0  0  0  0  0  0  0  0  0  0  0
   18.5620  -34.4620   37.8800 C   0  0  0  0  0  0  0  0  0  0  0  0
   18.4310  -34.4590   39.3960 C   0  0  0  0  0  0  0  0  0  0  0  0
   20.9590  -33.2004   33.8681 H   0  0  0  0  0  0  0  0  0  0  0  0
   20.1603  -34.5904   33.0579 H   0  0  0  0  0  0  0  0  0  0  0  0
   19.3715  -32.9766   33.0579 H   0  0  0  0  0  0  0  0  0  0  0  0
   18.1992  -34.0870   34.7461 H   0  0  0  0  0  0  0  0  0  0  0  0
   19.6787  -34.9810   35.2997 H   0  0  0  0  0  0  0  0  0  0  0  0
   20.3511  -31.5895   34.5723 H   0  0  0  0  0  0  0  0  0  0  0  0
   20.7816  -29.7992   36.2362 H   0  0  0  0  0  0  0  0  0  0  0  0
   23.6380  -30.1436   40.9615 H   0  0  0  0  0  0  0  0  0  0  0  0
   24.3804  -28.5034   42.6918 H   0  0  0  0  0  0  0  0  0  0  0  0
   22.9630  -26.5190   43.2228 H   0  0  0  0  0  0  0  0  0  0  0  0
   20.5530  -25.7380   43.0310 H   0  0  0  0  0  0  0  0  0  0  0  0
   17.8390  -27.8170   38.3130 H   0  0  0  0  0  0  0  0  0  0  0  0
   19.1694  -32.3085   39.3502 H   0  0  0  0  0  0  0  0  0  0  0  0
   17.5624  -34.5824   37.4370 H   0  0  0  0  0  0  0  0  0  0  0  0
   19.2242  -35.2934   37.5968 H   0  0  0  0  0  0  0  0  0  0  0  0
   19.4324  -34.4819   39.8506 H   0  0  0  0  0  0  0  0  0  0  0  0
   17.9035  -33.5485   39.7167 H   0  0  0  0  0  0  0  0  0  0  0  0
   17.8624  -35.3443   39.7167 H   0  0  0  0  0  0  0  0  0  0  0  0
  1  2  1  0
  2  3  1  0
  3  4  2  0
  4  5  1  0
  5  6  2  0
  6  7  1  0
  7  8  1  0
  8  9  1  0
  9 10  2  0
 10 11  1  0
 11 12  2  0
 12 13  1  0
 13 14  1  0
 13 15  2  0
 15 16  1  0
 16 17  2  0
 16 18  1  0
 18 19  1  0
  6 20  1  0
 20 21  2  0
 21 22  1  0
 22 23  1  0
 21  3  1  0
 18  7  2  0
 15  9  1  0
  1 24  1  0
  1 25  1  0
  1 26  1  0
  2 27  1  0
  2 28  1  0
  4 29  1  0
  5 30  1  0
 10 31  1  0
 11 32  1  0
 12 33  1  0
 14 34  1  0
 19 35  1  0
 20 36  1  0
 22 37  1  0
 22 38  1  0
 23 39  1  0
 23 40  1  0
 23 41  1  0
M  END
>  <meeko>  (9) 
{"is_sidechain": [false], "free_energy": -8.082, "intermolecular_energy": -9.955, "internal_energy": -0.606}

$$$$
