cand_025_out
     RDKit          3D

 53 56  0  0  0  0  0  0  0  0999 V2000
   23.3300  -29.5820   41.2160 C   0  0  0  0  0  0  0  0  0  0  0  0
   22.5120  -28.2990   41.2220 C   0  0  0  0  0  0  0  0  0  0  0  0
   21.2280  -28.4420   40.4360 C   0  0  0  0  0  0  0  0  0  0  0  0
   21.0520  -29.5870   39.6320 C   0  0  0  0  0  0  0  0  0  0  0  0
   19.8910  -29.7790   38.8730 C   0  0  0  0  0  0  0  0  0  0  0  0
   19.7110  -30.9640   38.0090 C   0  0  0  0  0  0  0  0  0  0  0  0
   20.1380  -30.7520   36.7040 O   0  0  0  0  0  0  0  0  0  0  0  0
   20.0280  -31.7720   35.7950 C   0  0  0  0  0  0  0  0  0  0  0  0
   20.4830  -31.5210   34.5010 C   0  0  0  0  0  0  0  0  0  0  0  0
   20.3990  -32.5170   33.5250 C   0  0  0  0  0  0  0  0  0  0  0  0
   19.8600  -33.7650   33.8460 C   0  0  0  0  0  0  0  0  0  0  0  0
   19.4070  -34.0140   35.1380 C   0  0  0  0  0  0  0  0  0  0  0  0
   18.8900  -35.2570   35.3830 O   0  0  0  0  0  0  0  0  0  0  0  0
   19.4910  -33.0170   36.1130 C   0  0  0  0  0  0  0  0  0  0  0  0
   19.0270  -33.2370   37.4840 C   0  0  0  0  0  0  0  0  0  0  0  0
   18.5340  -34.3060   37.8390 O   0  0  0  0  0  0  0  0  0  0  0  0
   19.1680  -32.1180   38.4430 C   0  0  0  0  0  0  0  0  0  0  0  0
   18.7150  -32.3330   39.7310 O   0  0  0  0  0  0  0  0  0  0  0  0
   18.9030  -28.7890   38.9130 C   0  0  0  0  0  0  0  0  0  0  0  0
   19.0690  -27.6450   39.7000 C   0  0  0  0  0  0  0  0  0  0  0  0
   20.2280  -27.4490   40.4650 C   0  0  0  0  0  0  0  0  0  0  0  0
   20.4120  -26.3060   41.2670 N   0  0  0  0  0  0  0  0  0  0  0  0
   20.0870  -25.0310   40.5930 C   0  0  0  0  0  0  0  0  0  0  0  0
   20.4540  -23.8440   41.5150 C   0  0  0  0  0  0  0  0  0  0  0  0
   19.7700  -23.9150   42.8280 N   0  0  0  0  0  0  0  0  0  0  0  0
   20.1860  -22.8080   43.6850 C   0  0  0  0  0  0  0  0  0  0  0  0
   20.0800  -25.2160   43.4680 C   0  0  0  0  0  0  0  0  0  0  0  0
   19.7210  -26.4240   42.5710 C   0  0  0  0  0  0  0  0  0  0  0  0
   23.5293  -29.8946   42.2516 H   0  0  0  0  0  0  0  0  0  0  0  0
   22.7687  -30.3723   40.6960 H   0  0  0  0  0  0  0  0  0  0  0  0
   24.2833  -29.4066   40.6960 H   0  0  0  0  0  0  0  0  0  0  0  0
   22.2647  -28.0404   42.2622 H   0  0  0  0  0  0  0  0  0  0  0  0
   23.1143  -27.5099   40.7482 H   0  0  0  0  0  0  0  0  0  0  0  0
   21.8459  -30.3477   39.6003 H   0  0  0  0  0  0  0  0  0  0  0  0
   20.9082  -30.5384   34.2486 H   0  0  0  0  0  0  0  0  0  0  0  0
   20.7572  -32.3185   32.5041 H   0  0  0  0  0  0  0  0  0  0  0  0
   19.7937  -34.5501   33.0784 H   0  0  0  0  0  0  0  0  0  0  0  0
   19.4380  -36.0140   35.3120 H   0  0  0  0  0  0  0  0  0  0  0  0
   19.2690  -32.7510   40.3600 H   0  0  0  0  0  0  0  0  0  0  0  0
   17.9855  -28.9119   38.3188 H   0  0  0  0  0  0  0  0  0  0  0  0
   18.2750  -26.8840   39.7194 H   0  0  0  0  0  0  0  0  0  0  0  0
   20.6590  -24.9566   39.6564 H   0  0  0  0  0  0  0  0  0  0  0  0
   19.0098  -25.0005   40.3721 H   0  0  0  0  0  0  0  0  0  0  0  0
   21.5412  -23.8499   41.6824 H   0  0  0  0  0  0  0  0  0  0  0  0
   20.1276  -22.9193   41.0167 H   0  0  0  0  0  0  0  0  0  0  0  0
   18.7620  -23.8390   42.6870 H   0  0  0  0  0  0  0  0  0  0  0  0
   20.0764  -23.0997   44.7399 H   0  0  0  0  0  0  0  0  0  0  0  0
   21.2382  -22.5612   43.4803 H   0  0  0  0  0  0  0  0  0  0  0  0
   19.5567  -21.9293   43.4803 H   0  0  0  0  0  0  0  0  0  0  0  0
   21.1567  -25.2508   43.6906 H   0  0  0  0  0  0  0  0  0  0  0  0
   19.4726  -25.2893   44.3822 H   0  0  0  0  0  0  0  0  0  0  0  0
   20.0358  -27.3536   43.0678 H   0  0  0  0  0  0  0  0  0  0  0  0
   18.6338  -26.4412   42.4046 H   0  0  0  0  0  0  0  0  0  0  0  0
  1  2  1  0
  2  3  1  0
  3  4  2  0
  4  5  1  0
  5  6  1  0
  6  7  1  0
  7  8  1  0
  8  9  2  0
  9 10  1  0
 10 11  2  0
 11 12  1  0
 12 13  1  0
 12 14  2  0
 14 15  1  0
 15 16  2  0
 15 17  1  0
 17 18  1  0
  5 19  2  0
 19 20  1  0
 20 21  2  0
 21 22  1  0
 22 23  1  0
 23 24  1  0
 24 25  1  0
 25 26  1  0
 25 27  1  0
 27 28  1  0
 21  3  1  0
 28 22  1  0
 17  6  2  0
 14  8  1  0
  1 29  1  0
  1 30  1  0
  1 31  1  0
  2 32  1  0
  2 33  1  0
  4 34  1  0
  9 35  1  0
 10 36  1  0
 11 37  1  0
 13 38  1  0
 18 39  1  0
 19 40  1  0
 20 41  1  0
 23 42  1  0
 23 43  1  0
 24 44  1  0
 24 45  1  0
 25 46  1  0
 26 47  1  0
 26 48  1  0
 26 49  1  0
 27 50  1  0
 27 51  1  0
 28 52  1  0
 28 53  1  0
M  CHG  1  25   1
M  END
>  <meeko>  (1) 
{"is_sidechain": [false], "free_energy": -9.312, "intermolecular_energy": -11.49, "internal_energy": -0.695}

$$$$
cand_025_out
     RDKit          3D

 53 56  0  0  0  0  0  0  0  0999 V2000
   17.1890  -26.8210   38.3260 C   0  0  0  0  0  0  0  0  0  0  0  0
   18.2590  -26.5470   39.3720 C   0  0  0  0  0  0  0  0  0  0  0  0
   19.2590  -27.6780   39.4690 C   0  0  0  0  0  0  0  0  0  0  0  0
   19.0860  -28.8060   38.6410 C   0  0  0  0  0  0  0  0  0  0  0  0
   19.9690  -29.8910   38.6860 C   0  0  0  0  0  0  0  0  0  0  0  0
   19.7790  -31.0870   37.8380 C   0  0  0  0  0  0  0  0  0  0  0  0
   20.1640  -30.8810   36.5190 O   0  0  0  0  0  0  0  0  0  0  0  0
   20.0410  -31.9120   35.6230 C   0  0  0  0  0  0  0  0  0  0  0  0
   20.4540  -31.6670   34.3130 C   0  0  0  0  0  0  0  0  0  0  0  0
   20.3540  -32.6740   33.3500 C   0  0  0  0  0  0  0  0  0  0  0  0
   19.8410  -33.9250   33.6980 C   0  0  0  0  0  0  0  0  0  0  0  0
   19.4300  -34.1680   35.0060 C   0  0  0  0  0  0  0  0  0  0  0  0
   18.9380  -35.4150   35.2770 O   0  0  0  0  0  0  0  0  0  0  0  0
   19.5310  -33.1610   35.9680 C   0  0  0  0  0  0  0  0  0  0  0  0
   19.1100  -33.3740   37.3550 C   0  0  0  0  0  0  0  0  0  0  0  0
   18.6430  -34.4450   37.7340 O   0  0  0  0  0  0  0  0  0  0  0  0
   19.2660  -32.2440   38.2990 C   0  0  0  0  0  0  0  0  0  0  0  0
   18.8540  -32.4520   39.6020 O   0  0  0  0  0  0  0  0  0  0  0  0
   21.0310  -29.8430   39.5950 C   0  0  0  0  0  0  0  0  0  0  0  0
   21.2100  -28.7330   40.4270 C   0  0  0  0  0  0  0  0  0  0  0  0
   20.3300  -27.6420   40.3850 C   0  0  0  0  0  0  0  0  0  0  0  0
   20.4950  -26.5140   41.2110 N   0  0  0  0  0  0  0  0  0  0  0  0
   19.7040  -26.5550   42.4600 C   0  0  0  0  0  0  0  0  0  0  0  0
   19.8560  -25.2140   43.2180 C   0  0  0  0  0  0  0  0  0  0  0  0
   21.2710  -24.8920   43.5210 N   0  0  0  0  0  0  0  0  0  0  0  0
   21.3730  -23.5960   44.1860 C   0  0  0  0  0  0  0  0  0  0  0  0
   22.0500  -24.8940   42.2590 C   0  0  0  0  0  0  0  0  0  0  0  0
   21.9210  -26.2240   41.4790 C   0  0  0  0  0  0  0  0  0  0  0  0
   16.2403  -27.0639   38.8269 H   0  0  0  0  0  0  0  0  0  0  0  0
   17.0537  -25.9285   37.6974 H   0  0  0  0  0  0  0  0  0  0  0  0
   17.4993  -27.6687   37.6974 H   0  0  0  0  0  0  0  0  0  0  0  0
   18.7922  -25.6237   39.1013 H   0  0  0  0  0  0  0  0  0  0  0  0
   17.7623  -26.4478   40.3484 H   0  0  0  0  0  0  0  0  0  0  0  0
   18.2365  -28.8340   37.9427 H   0  0  0  0  0  0  0  0  0  0  0  0
   20.8581  -30.6814   34.0387 H   0  0  0  0  0  0  0  0  0  0  0  0
   20.6796  -32.4812   32.3171 H   0  0  0  0  0  0  0  0  0  0  0  0
   19.7616  -34.7178   32.9397 H   0  0  0  0  0  0  0  0  0  0  0  0
   19.1680  -36.1400   34.7290 H   0  0  0  0  0  0  0  0  0  0  0  0
   18.8120  -33.3220   39.9470 H   0  0  0  0  0  0  0  0  0  0  0  0
   21.7332  -30.6875   39.6562 H   0  0  0  0  0  0  0  0  0  0  0  0
   22.0576  -28.7155   41.1279 H   0  0  0  0  0  0  0  0  0  0  0  0
   18.6440  -26.7191   42.2163 H   0  0  0  0  0  0  0  0  0  0  0  0
   20.0684  -27.3758   43.0952 H   0  0  0  0  0  0  0  0  0  0  0  0
   19.4356  -24.4084   42.5981 H   0  0  0  0  0  0  0  0  0  0  0  0
   19.3216  -25.3078   44.1749 H   0  0  0  0  0  0  0  0  0  0  0  0
   21.6500  -25.5990   44.1520 H   0  0  0  0  0  0  0  0  0  0  0  0
   21.3616  -23.7414   45.2763 H   0  0  0  0  0  0  0  0  0  0  0  0
   22.3125  -23.1056   43.8913 H   0  0  0  0  0  0  0  0  0  0  0  0
   20.5218  -22.9647   43.8913 H   0  0  0  0  0  0  0  0  0  0  0  0
   21.6873  -24.0751   41.6204 H   0  0  0  0  0  0  0  0  0  0  0  0
   23.1101  -24.7655   42.5230 H   0  0  0  0  0  0  0  0  0  0  0  0
   22.4620  -26.1413   40.5248 H   0  0  0  0  0  0  0  0  0  0  0  0
   22.3498  -27.0395   42.0799 H   0  0  0  0  0  0  0  0  0  0  0  0
  1  2  1  0
  2  3  1  0
  3  4  2  0
  4  5  1  0
  5  6  1  0
  6  7  1  0
  7  8  1  0
  8  9  2  0
  9 10  1  0
 10 11  2  0
 11 12  1  0
 12 13  1  0
 12 14  2  0
 14 15  1  0
 15 16  2  0
 15 17  1  0
 17 18  1  0
  5 19  2  0
 19 20  1  0
 20 21  2  0
 21 22  1  0
 22 23  1  0
 23 24  1  0
 24 25  1  0
 25 26  1  0
 25 27  1  0
 27 28  1  0
 21  3  1  0
 28 22  1  0
 17  6  2  0
 14  8  1  0
  1 29  1  0
  1 30  1  0
  1 31  1  0
  2 32  1  0
  2 33  1  0
  4 34  1  0
  9 35  1  0
 10 36  1  0
 11 37  1  0
 13 38  1  0
 18 39  1  0
 19 40  1  0
 20 41  1  0
 23 42  1  0
 23 43  1  0
 24 44  1  0
 24 45  1  0
 25 46  1  0
 26 47  1  0
 26 48  1  0
 26 49  1  0
 27 50  1  0
 27 51  1  0
 28 52  1  0
 28 53  1  0
M  CHG  1  25   1
M  END
>  <meeko>  (2) 
{"is_sidechain": [false], "free_energy": -8.949, "intermolecular_energy": -11.189, "internal_energy": -0.547}

$$$$
cand_025_out
     RDKit          3D

 53 56  0  0  0  0  0  0  0  0999 V2000
   23.7640  -28.6970   42.6850 C   0  0  0  0  0  0  0  0  0  0  0  0
   23.1770  -27.3050   42.5030 C   0  0  0  0  0  0  0  0  0  0  0  0
   21.9100  -27.3290   41.6770 C   0  0  0  0  0  0  0  0  0  0  0  0
   21.6790  -28.4280   40.8240 C   0  0  0  0  0  0  0  0  0  0  0  0
   20.5320  -28.5090   40.0260 C   0  0  0  0  0  0  0  0  0  0  0  0
   20.2970  -29.6460   39.1120 C   0  0  0  0  0  0  0  0  0  0  0  0
   19.6360  -30.7050   39.7240 O   0  0  0  0  0  0  0  0  0  0  0  0
   19.3530  -31.8260   38.9870 C   0  0  0  0  0  0  0  0  0  0  0  0
   18.6750  -32.8570   39.6370 C   0  0  0  0  0  0  0  0  0  0  0  0
   18.3570  -34.0280   38.9450 C   0  0  0  0  0  0  0  0  0  0  0  0
   18.7180  -34.1670   37.6030 C   0  0  0  0  0  0  0  0  0  0  0  0
   19.3950  -33.1360   36.9560 C   0  0  0  0  0  0  0  0  0  0  0  0
   19.7180  -33.3380   35.6420 O   0  0  0  0  0  0  0  0  0  0  0  0
   19.7120  -31.9650   37.6490 C   0  0  0  0  0  0  0  0  0  0  0  0
   20.4220  -30.8570   37.0080 C   0  0  0  0  0  0  0  0  0  0  0  0
   20.7790  -30.9080   35.8320 O   0  0  0  0  0  0  0  0  0  0  0  0
   20.7030  -29.6570   37.8280 C   0  0  0  0  0  0  0  0  0  0  0  0
   21.3850  -28.6230   37.2150 O   0  0  0  0  0  0  0  0  0  0  0  0
   19.6140  -27.4550   40.0770 C   0  0  0  0  0  0  0  0  0  0  0  0
   19.8340  -26.3550   40.9130 C   0  0  0  0  0  0  0  0  0  0  0  0
   20.9810  -26.2700   41.7170 C   0  0  0  0  0  0  0  0  0  0  0  0
   21.2190  -25.1740   42.5690 N   0  0  0  0  0  0  0  0  0  0  0  0
   20.8660  -23.8620   41.9830 C   0  0  0  0  0  0  0  0  0  0  0  0
   21.2940  -22.7290   42.9470 C   0  0  0  0  0  0  0  0  0  0  0  0
   20.6840  -22.8680   44.2900 N   0  0  0  0  0  0  0  0  0  0  0  0
   21.1560  -21.8110   45.1820 C   0  0  0  0  0  0  0  0  0  0  0  0
   21.0200  -24.2030   44.8400 C   0  0  0  0  0  0  0  0  0  0  0  0
   20.6010  -25.3590   43.9010 C   0  0  0  0  0  0  0  0  0  0  0  0
   23.8572  -28.9181   43.7585 H   0  0  0  0  0  0  0  0  0  0  0  0
   23.1020  -29.4386   42.2140 H   0  0  0  0  0  0  0  0  0  0  0  0
   24.7571  -28.7406   42.2140 H   0  0  0  0  0  0  0  0  0  0  0  0
   22.9478  -26.8838   43.4930 H   0  0  0  0  0  0  0  0  0  0  0  0
   23.9181  -26.6901   41.9714 H   0  0  0  0  0  0  0  0  0  0  0  0
   22.4184  -29.2415   40.7849 H   0  0  0  0  0  0  0  0  0  0  0  0
   18.3908  -32.7481   40.6941 H   0  0  0  0  0  0  0  0  0  0  0  0
   17.8219  -34.8412   39.4573 H   0  0  0  0  0  0  0  0  0  0  0  0
   18.4681  -35.0892   37.0579 H   0  0  0  0  0  0  0  0  0  0  0  0
   19.7610  -34.2090   35.2990 H   0  0  0  0  0  0  0  0  0  0  0  0
   20.9550  -27.8060   37.0560 H   0  0  0  0  0  0  0  0  0  0  0  0
   18.7090  -27.4913   39.4528 H   0  0  0  0  0  0  0  0  0  0  0  0
   19.0941  -25.5415   40.9406 H   0  0  0  0  0  0  0  0  0  0  0  0
   21.3852  -23.7394   41.0210 H   0  0  0  0  0  0  0  0  0  0  0  0
   19.7786  -23.8143   41.8241 H   0  0  0  0  0  0  0  0  0  0  0  0
   22.3887  -22.7501   43.0526 H   0  0  0  0  0  0  0  0  0  0  0  0
   20.9480  -21.7766   42.5190 H   0  0  0  0  0  0  0  0  0  0  0  0
   19.6700  -22.7800   44.2110 H   0  0  0  0  0  0  0  0  0  0  0  0
   21.0163  -22.1238   46.2273 H   0  0  0  0  0  0  0  0  0  0  0  0
   22.2236  -21.6230   44.9951 H   0  0  0  0  0  0  0  0  0  0  0  0
   20.5834  -20.8906   44.9951 H   0  0  0  0  0  0  0  0  0  0  0  0
   22.1073  -24.2548   44.9982 H   0  0  0  0  0  0  0  0  0  0  0  0
   20.4653  -24.3230   45.7823 H   0  0  0  0  0  0  0  0  0  0  0  0
   20.9352  -26.3158   44.3286 H   0  0  0  0  0  0  0  0  0  0  0  0
   19.5061  -25.3616   43.7955 H   0  0  0  0  0  0  0  0  0  0  0  0
  1  2  1  0
  2  3  1  0
  3  4  2  0
  4  5  1  0
  5  6  1  0
  6  7  1  0
  7  8  1  0
  8  9  2  0
  9 10  1  0
 10 11  2  0
 11 12  1  0
 12 13  1  0
 12 14  2  0
 14 15  1  0
 15 16  2  0
 15 17  1  0
 17 18  1  0
  5 19  2  0
 19 20  1  0
 20 21  2  0
 21 22  1  0
 22 23  1  0
 23 24  1  0
 24 25  1  0
 25 26  1  0
 25 27  1  0
 27 28  1  0
 21  3  1  0
 28 22  1  0
 17  6  2  0
 14  8  1  0
  1 29  1  0
  1 30  1  0
  1 31  1  0
  2 32  1  0
  2 33  1  0
  4 34  1  0
  9 35  1  0
 10 36  1  0
 11 37  1  0
 13 38  1  0
 18 39  1  0
 19 40  1  0
 20 41  1  0
 23 42  1  0
 23 43  1  0
 24 44  1  0
 24 45  1  0
 25 46  1  0
 26 47  1  0
 26 48  1  0
 26 49  1  0
 27 50  1  0
 27 51  1  0
 28 52  1  0
 28 53  1  0
M  CHG  1  25   1
M  END
>  <meeko>  (3) 
{"is_sidechain": [false], "free_energy": -8.914, "intermolecular_energy": -11.044, "internal_energy": -0.65}

$$$$
cand_025_out
     RDKit          3D

 53 56  0  0  0  0  0  0  0  0999 V2000
   19.4870  -25.0530   38.1030 C   0  0  0  0  0  0  0  0  0  0  0  0
   18.7140  -26.0220   38.9850 C   0  0  0  0  0  0  0  0  0  0  0  0
   19.5110  -27.2730   39.2850 C   0  0  0  0  0  0  0  0  0  0  0  0
   19.3720  -28.3830   38.4290 C   0  0  0  0  0  0  0  0  0  0  0  0
   20.0730  -29.5740   38.6530 C   0  0  0  0  0  0  0  0  0  0  0  0
   19.9130  -30.7510   37.7730 C   0  0  0  0  0  0  0  0  0  0  0  0
   19.4430  -31.8710   38.4490 O   0  0  0  0  0  0  0  0  0  0  0  0
   19.2470  -33.0350   37.7500 C   0  0  0  0  0  0  0  0  0  0  0  0
   18.7600  -34.1290   38.4640 C   0  0  0  0  0  0  0  0  0  0  0  0
   18.5400  -35.3460   37.8130 C   0  0  0  0  0  0  0  0  0  0  0  0
   18.8090  -35.4660   36.4480 C   0  0  0  0  0  0  0  0  0  0  0  0
   19.2950  -34.3720   35.7370 C   0  0  0  0  0  0  0  0  0  0  0  0
   19.5360  -34.5600   34.4030 O   0  0  0  0  0  0  0  0  0  0  0  0
   19.5140  -33.1560   36.3890 C   0  0  0  0  0  0  0  0  0  0  0  0
   20.0240  -31.9810   35.6790 C   0  0  0  0  0  0  0  0  0  0  0  0
   20.2900  -32.0120   34.4800 O   0  0  0  0  0  0  0  0  0  0  0  0
   20.2140  -30.7380   36.4610 C   0  0  0  0  0  0  0  0  0  0  0  0
   20.7080  -29.6390   35.7830 O   0  0  0  0  0  0  0  0  0  0  0  0
   20.9110  -29.6490   39.7700 C   0  0  0  0  0  0  0  0  0  0  0  0
   21.0520  -28.5570   40.6320 C   0  0  0  0  0  0  0  0  0  0  0  0
   20.3540  -27.3600   40.4110 C   0  0  0  0  0  0  0  0  0  0  0  0
   20.4860  -26.2470   41.2640 N   0  0  0  0  0  0  0  0  0  0  0  0
   19.7250  -26.3580   42.5280 C   0  0  0  0  0  0  0  0  0  0  0  0
   19.8320  -25.0320   43.3180 C   0  0  0  0  0  0  0  0  0  0  0  0
   21.2370  -24.6530   43.6010 N   0  0  0  0  0  0  0  0  0  0  0  0
   21.2940  -23.3710   44.3000 C   0  0  0  0  0  0  0  0  0  0  0  0
   21.9880  -24.5860   42.3250 C   0  0  0  0  0  0  0  0  0  0  0  0
   21.9030  -25.8990   41.5110 C   0  0  0  0  0  0  0  0  0  0  0  0
   20.0483  -24.3494   38.7354 H   0  0  0  0  0  0  0  0  0  0  0  0
   20.1879  -25.6146   37.4679 H   0  0  0  0  0  0  0  0  0  0  0  0
   18.7837  -24.4944   37.4679 H   0  0  0  0  0  0  0  0  0  0  0  0
   18.4686  -25.5211   39.9331 H   0  0  0  0  0  0  0  0  0  0  0  0
   17.8028  -26.3202   38.4457 H   0  0  0  0  0  0  0  0  0  0  0  0
   18.6965  -28.3123   37.5638 H   0  0  0  0  0  0  0  0  0  0  0  0
   18.5490  -34.0343   39.5394 H   0  0  0  0  0  0  0  0  0  0  0  0
   18.1550  -36.2092   38.3758 H   0  0  0  0  0  0  0  0  0  0  0  0
   18.6371  -36.4238   35.9350 H   0  0  0  0  0  0  0  0  0  0  0  0
   20.4180  -34.5680   34.0840 H   0  0  0  0  0  0  0  0  0  0  0  0
   21.3000  -29.0520   36.2100 H   0  0  0  0  0  0  0  0  0  0  0  0
   21.4654  -30.5772   39.9728 H   0  0  0  0  0  0  0  0  0  0  0  0
   21.7229  -28.6379   41.4999 H   0  0  0  0  0  0  0  0  0  0  0  0
   18.6685  -26.5650   42.3020 H   0  0  0  0  0  0  0  0  0  0  0  0
   20.1402  -27.1775   43.1330 H   0  0  0  0  0  0  0  0  0  0  0  0
   19.3622  -24.2309   42.7284 H   0  0  0  0  0  0  0  0  0  0  0  0
   19.3230  -25.1750   44.2826 H   0  0  0  0  0  0  0  0  0  0  0  0
   21.6610  -25.3580   44.2060 H   0  0  0  0  0  0  0  0  0  0  0  0
   21.2863  -23.5449   45.3861 H   0  0  0  0  0  0  0  0  0  0  0  0
   22.2166  -22.8414   44.0200 H   0  0  0  0  0  0  0  0  0  0  0  0
   20.4221  -22.7616   44.0200 H   0  0  0  0  0  0  0  0  0  0  0  0
   21.5753  -23.7677   41.7166 H   0  0  0  0  0  0  0  0  0  0  0  0
   23.0465  -24.4166   42.5716 H   0  0  0  0  0  0  0  0  0  0  0  0
   22.4190  -25.7658   40.5487 H   0  0  0  0  0  0  0  0  0  0  0  0
   22.3814  -26.7098   42.0800 H   0  0  0  0  0  0  0  0  0  0  0  0
  1  2  1  0
  2  3  1  0
  3  4  2  0
  4  5  1  0
  5  6  1  0
  6  7  1  0
  7  8  1  0
  8  9  2  0
  9 10  1  0
 10 11  2  0
 11 12  1  0
 12 13  1  0
 12 14  2  0
 14 15  1  0
 15 16  2  0
 15 17  1  0
 17 18  1  0
  5 19  2  0
 19 20  1  0
 20 21  2  0
 21 22  1  0
 22 23  1  0
 23 24  1  0
 24 25  1  0
 25 26  1  0
 25 27  1  0
 27 28  1  0
 21  3  1  0
 28 22  1  0
 17  6  2  0
 14  8  1  0
  1 29  1  0
  1 30  1  0
  1 31  1  0
  2 32  1  0
  2 33  1  0
  4 34  1  0
  9 35  1  0
 10 36  1  0
 11 37  1  0
 13 38  1  0
 18 39  1  0
 19 40  1  0
 20 41  1  0
 23 42  1  0
 23 43  1  0
 24 44  1  0
 24 45  1  0
 25 46  1  0
 26 47  1  0
 26 48  1  0
 26 49  1  0
 27 50  1  0
 27 51  1  0
 28 52  1  0
 28 53  1  0
M  CHG  1  25   1
M  END
>  <meeko>  (4) 
{"is_sidechain": [false], "free_energy": -8.719, "intermolecular_energy": -10.894, "internal_energy": -0.56}

$$$$
cand_025_out
     RDKit          3D

 53 56  0  0  0  0  0  0  0  0999 V2000
   19.6330  -32.6060   39.4320 C   0  0  0  0  0  0  0  0  0  0  0  0
   19.3690  -31.7000   38.2400 C   0  0  0  0  0  0  0  0  0  0  0  0
   20.2210  -30.4500   38.2780 C   0  0  0  0  0  0  0  0  0  0  0  0
   20.6690  -29.9760   39.5270 C   0  0  0  0  0  0  0  0  0  0  0  0
   21.4530  -28.8210   39.6350 C   0  0  0  0  0  0  0  0  0  0  0  0
   21.9050  -28.3040   40.9440 C   0  0  0  0  0  0  0  0  0  0  0  0
   21.1670  -27.2080   41.3760 O   0  0  0  0  0  0  0  0  0  0  0  0
   21.4800  -26.6290   42.5780 C   0  0  0  0  0  0  0  0  0  0  0  0
   20.7040  -25.5420   42.9800 C   0  0  0  0  0  0  0  0  0  0  0  0
   20.9710  -24.9040   44.1940 C   0  0  0  0  0  0  0  0  0  0  0  0
   22.0150  -25.3550   45.0050 C   0  0  0  0  0  0  0  0  0  0  0  0
   22.7880  -26.4400   44.6020 C   0  0  0  0  0  0  0  0  0  0  0  0
   23.7940  -26.8290   45.4440 O   0  0  0  0  0  0  0  0  0  0  0  0
   22.5200  -27.0770   43.3880 C   0  0  0  0  0  0  0  0  0  0  0  0
   23.3080  -28.2220   42.9270 C   0  0  0  0  0  0  0  0  0  0  0  0
   24.2460  -28.6710   43.5820 O   0  0  0  0  0  0  0  0  0  0  0  0
   22.9370  -28.8310   41.6290 C   0  0  0  0  0  0  0  0  0  0  0  0
   23.6960  -29.9020   41.1980 O   0  0  0  0  0  0  0  0  0  0  0  0
   21.7740  -28.1270   38.4630 C   0  0  0  0  0  0  0  0  0  0  0  0
   21.3300  -28.5830   37.2180 C   0  0  0  0  0  0  0  0  0  0  0  0
   20.5450  -29.7410   37.1040 C   0  0  0  0  0  0  0  0  0  0  0  0
   20.0920  -30.2190   35.8590 N   0  0  0  0  0  0  0  0  0  0  0  0
   19.9440  -29.1730   34.8240 C   0  0  0  0  0  0  0  0  0  0  0  0
   19.3150  -29.7860   33.5500 C   0  0  0  0  0  0  0  0  0  0  0  0
   20.1060  -30.9210   33.0180 N   0  0  0  0  0  0  0  0  0  0  0  0
   19.4490  -31.5030   31.8500 C   0  0  0  0  0  0  0  0  0  0  0  0
   20.2730  -31.9380   34.0830 C   0  0  0  0  0  0  0  0  0  0  0  0
   20.9030  -31.3570   35.3710 C   0  0  0  0  0  0  0  0  0  0  0  0
   19.4692  -32.0438   40.3632 H   0  0  0  0  0  0  0  0  0  0  0  0
   18.9481  -33.4661   39.3976 H   0  0  0  0  0  0  0  0  0  0  0  0
   20.6727  -32.9636   39.3976 H   0  0  0  0  0  0  0  0  0  0  0  0
   19.5925  -32.2541   37.3164 H   0  0  0  0  0  0  0  0  0  0  0  0
   18.3134  -31.3927   38.2742 H   0  0  0  0  0  0  0  0  0  0  0  0
   20.3962  -30.5267   40.4393 H   0  0  0  0  0  0  0  0  0  0  0  0
   19.8818  -25.1870   42.3413 H   0  0  0  0  0  0  0  0  0  0  0  0
   20.3591  -24.0466   44.5111 H   0  0  0  0  0  0  0  0  0  0  0  0
   22.2260  -24.8533   45.9609 H   0  0  0  0  0  0  0  0  0  0  0  0
   24.2760  -26.1850   45.9270 H   0  0  0  0  0  0  0  0  0  0  0  0
   23.4930  -30.7690   41.4890 H   0  0  0  0  0  0  0  0  0  0  0  0
   22.3824  -27.2125   38.5218 H   0  0  0  0  0  0  0  0  0  0  0  0
   21.6011  -28.0235   36.3105 H   0  0  0  0  0  0  0  0  0  0  0  0
   19.2931  -28.3718   35.2041 H   0  0  0  0  0  0  0  0  0  0  0  0
   20.9336  -28.7597   34.5793 H   0  0  0  0  0  0  0  0  0  0  0  0
   18.3035  -30.1436   33.7927 H   0  0  0  0  0  0  0  0  0  0  0  0
   19.2918  -29.0029   32.7779 H   0  0  0  0  0  0  0  0  0  0  0  0
   21.0240  -30.5840   32.7250 H   0  0  0  0  0  0  0  0  0  0  0  0
   18.6635  -32.1988   32.1799 H   0  0  0  0  0  0  0  0  0  0  0  0
   18.9989  -30.7019   31.2454 H   0  0  0  0  0  0  0  0  0  0  0  0
   20.1900  -32.0465   31.2454 H   0  0  0  0  0  0  0  0  0  0  0  0
   19.2850  -32.3531   34.3310 H   0  0  0  0  0  0  0  0  0  0  0  0
   20.9550  -32.7112   33.6996 H   0  0  0  0  0  0  0  0  0  0  0  0
   20.9379  -32.1383   36.1445 H   0  0  0  0  0  0  0  0  0  0  0  0
   21.9222  -31.0071   35.1499 H   0  0  0  0  0  0  0  0  0  0  0  0
  1  2  1  0
  2  3  1  0
  3  4  2  0
  4  5  1  0
  5  6  1  0
  6  7  1  0
  7  8  1  0
  8  9  2  0
  9 10  1  0
 10 11  2  0
 11 12  1  0
 12 13  1  0
 12 14  2  0
 14 15  1  0
 15 16  2  0
 15 17  1  0
 17 18  1  0
  5 19  2  0
 19 20  1  0
 20 21  2  0
 21 22  1  0
 22 23  1  0
 23 24  1  0
 24 25  1  0
 25 26  1  0
 25 27  1  0
 27 28  1  0
 21  3  1  0
 28 22  1  0
 17  6  2  0
 14  8  1  0
  1 29  1  0
  1 30  1  0
  1 31  1  0
  2 32  1  0
  2 33  1  0
  4 34  1  0
  9 35  1  0
 10 36  1  0
 11 37  1  0
 13 38  1  0
 18 39  1  0
 19 40  1  0
 20 41  1  0
 23 42  1  0
 23 43  1  0
 24 44  1  0
 24 45  1  0
 25 46  1  0
 26 47  1  0
 26 48  1  0
 26 49  1  0
 27 50  1  0
 27 51  1  0
 28 52  1  0
 28 53  1  0
M  CHG  1  25   1
M  END
>  <meeko>  (5) 
{"is_sidechain": [false], "free_energy": -8.662, "intermolecular_energy": -10.923, "internal_energy": -0.46}

$$$$
cand_025_out
     RDKit          3D

 53 56  0  0  0  0  0  0  0  0999 V2000
   19.8300  -32.1020   39.5730 C   0  0  0  0  0  0  0  0  0  0  0  0
   19.0920  -30.9630   38.8850 C   0  0  0  0  0  0  0  0  0  0  0  0
   19.8960  -29.6820   38.8930 C   0  0  0  0  0  0  0  0  0  0  0  0
   20.2040  -29.0850   40.1320 C   0  0  0  0  0  0  0  0  0  0  0  0
   20.9360  -27.8940   40.2110 C   0  0  0  0  0  0  0  0  0  0  0  0
   21.2400  -27.2500   41.5060 C   0  0  0  0  0  0  0  0  0  0  0  0
   20.3180  -26.2690   41.8520 O   0  0  0  0  0  0  0  0  0  0  0  0
   20.4810  -25.5910   43.0330 C   0  0  0  0  0  0  0  0  0  0  0  0
   19.5230  -24.6270   43.3480 C   0  0  0  0  0  0  0  0  0  0  0  0
   19.6310  -23.8990   44.5350 C   0  0  0  0  0  0  0  0  0  0  0  0
   20.6960  -24.1350   45.4060 C   0  0  0  0  0  0  0  0  0  0  0  0
   21.6510  -25.0980   45.0890 C   0  0  0  0  0  0  0  0  0  0  0  0
   22.6680  -25.2780   45.9870 O   0  0  0  0  0  0  0  0  0  0  0  0
   21.5420  -25.8270   43.9020 C   0  0  0  0  0  0  0  0  0  0  0  0
   22.5230  -26.8480   43.5320 C   0  0  0  0  0  0  0  0  0  0  0  0
   23.4910  -27.1070   44.2430 O   0  0  0  0  0  0  0  0  0  0  0  0
   22.3130  -27.5690   42.2550 C   0  0  0  0  0  0  0  0  0  0  0  0
   23.2520  -28.5220   41.9100 O   0  0  0  0  0  0  0  0  0  0  0  0
   21.3470  -27.2900   39.0190 C   0  0  0  0  0  0  0  0  0  0  0  0
   21.0420  -27.8670   37.7820 C   0  0  0  0  0  0  0  0  0  0  0  0
   20.3110  -29.0620   37.6970 C   0  0  0  0  0  0  0  0  0  0  0  0
   19.9970  -29.6620   36.4620 N   0  0  0  0  0  0  0  0  0  0  0  0
   19.7750  -28.7020   35.3590 C   0  0  0  0  0  0  0  0  0  0  0  0
   19.3070  -29.4600   34.0940 C   0  0  0  0  0  0  0  0  0  0  0  0
   20.2680  -30.5060   33.6730 N   0  0  0  0  0  0  0  0  0  0  0  0
   19.7620  -31.2320   32.5110 C   0  0  0  0  0  0  0  0  0  0  0  0
   20.5040  -31.4340   34.8050 C   0  0  0  0  0  0  0  0  0  0  0  0
   20.9770  -30.7060   36.0860 C   0  0  0  0  0  0  0  0  0  0  0  0
   19.7528  -31.9829   40.6638 H   0  0  0  0  0  0  0  0  0  0  0  0
   19.3816  -33.0616   39.2763 H   0  0  0  0  0  0  0  0  0  0  0  0
   20.8891  -32.0849   39.2763 H   0  0  0  0  0  0  0  0  0  0  0  0
   18.8898  -31.2491   37.8423 H   0  0  0  0  0  0  0  0  0  0  0  0
   18.1572  -30.7815   39.4356 H   0  0  0  0  0  0  0  0  0  0  0  0
   19.8609  -29.5665   41.0596 H   0  0  0  0  0  0  0  0  0  0  0  0
   18.6834  -24.4405   42.6622 H   0  0  0  0  0  0  0  0  0  0  0  0
   18.8759  -23.1388   44.7838 H   0  0  0  0  0  0  0  0  0  0  0  0
   20.7808  -23.5616   46.3409 H   0  0  0  0  0  0  0  0  0  0  0  0
   23.1200  -26.0990   46.0240 H   0  0  0  0  0  0  0  0  0  0  0  0
   23.9780  -28.6930   42.4770 H   0  0  0  0  0  0  0  0  0  0  0  0
   21.9170  -26.3499   39.0544 H   0  0  0  0  0  0  0  0  0  0  0  0
   21.3814  -27.3750   36.8585 H   0  0  0  0  0  0  0  0  0  0  0  0
   19.0042  -27.9756   35.6561 H   0  0  0  0  0  0  0  0  0  0  0  0
   20.7152  -28.1745   35.1405 H   0  0  0  0  0  0  0  0  0  0  0  0
   18.3379  -29.9355   34.3057 H   0  0  0  0  0  0  0  0  0  0  0  0
   19.2279  -28.7291   33.2758 H   0  0  0  0  0  0  0  0  0  0  0  0
   21.1500  -30.0670   33.4070 H   0  0  0  0  0  0  0  0  0  0  0  0
   19.1632  -32.0911   32.8476 H   0  0  0  0  0  0  0  0  0  0  0  0
   19.1340  -30.5623   31.9051 H   0  0  0  0  0  0  0  0  0  0  0  0
   20.6077  -31.5894   31.9051 H   0  0  0  0  0  0  0  0  0  0  0  0
   19.5658  -31.9635   35.0273 H   0  0  0  0  0  0  0  0  0  0  0  0
   21.3020  -32.1287   34.5040 H   0  0  0  0  0  0  0  0  0  0  0  0
   21.0684  -31.4331   36.9063 H   0  0  0  0  0  0  0  0  0  0  0  0
   21.9531  -30.2356   35.8963 H   0  0  0  0  0  0  0  0  0  0  0  0
  1  2  1  0
  2  3  1  0
  3  4  2  0
  4  5  1  0
  5  6  1  0
  6  7  1  0
  7  8  1  0
  8  9  2  0
  9 10  1  0
 10 11  2  0
 11 12  1  0
 12 13  1  0
 12 14  2  0
 14 15  1  0
 15 16  2  0
 15 17  1  0
 17 18  1  0
  5 19  2  0
 19 20  1  0
 20 21  2  0
 21 22  1  0
 22 23  1  0
 23 24  1  0
 24 25  1  0
 25 26  1  0
 25 27  1  0
 27 28  1  0
 21  3  1  0
 28 22  1  0
 17  6  2  0
 14  8  1  0
  1 29  1  0
  1 30  1  0
  1 31  1  0
  2 32  1  0
  2 33  1  0
  4 34  1  0
  9 35  1  0
 10 36  1  0
 11 37  1  0
 13 38  1  0
 18 39  1  0
 19 40  1  0
 20 41  1  0
 23 42  1  0
 23 43  1  0
 24 44  1  0
 24 45  1  0
 25 46  1  0
 26 47  1  0
 26 48  1  0
 26 49  1  0
 27 50  1  0
 27 51  1  0
 28 52  1  0
 28 53  1  0
M  CHG  1  25   1
M  END
>  <meeko>  (6) 
{"is_sidechain": [false], "free_energy": -8.424, "intermolecular_energy": -10.487, "internal_energy": -0.602}

$$$$
cand_025_out
     RDKit          3D

 53 56  0  0  0  0  0  0  0  0999 V2000
   24.1320  -27.0170   43.5070 C   0  0  0  0  0  0  0  0  0  0  0  0
   23.6280  -25.6230   43.1680 C   0  0  0  0  0  0  0  0  0  0  0  0
   22.2890  -25.6590   42.4670 C   0  0  0  0  0  0  0  0  0  0  0  0
   22.0830  -26.6150   41.4510 C   0  0  0  0  0  0  0  0  0  0  0  0
   20.8710  -26.6980   40.7570 C   0  0  0  0  0  0  0  0  0  0  0  0
   20.6580  -27.6810   39.6740 C   0  0  0  0  0  0  0  0  0  0  0  0
   20.4660  -28.9740   40.1470 O   0  0  0  0  0  0  0  0  0  0  0  0
   20.2560  -29.9870   39.2470 C   0  0  0  0  0  0  0  0  0  0  0  0
   20.0520  -31.2650   39.7660 C   0  0  0  0  0  0  0  0  0  0  0  0
   19.8340  -32.3420   38.9030 C   0  0  0  0  0  0  0  0  0  0  0  0
   19.8200  -32.1390   37.5220 C   0  0  0  0  0  0  0  0  0  0  0  0
   20.0230  -30.8620   37.0060 C   0  0  0  0  0  0  0  0  0  0  0  0
   19.9980  -30.7350   35.6440 O   0  0  0  0  0  0  0  0  0  0  0  0
   20.2410  -29.7860   37.8690 C   0  0  0  0  0  0  0  0  0  0  0  0
   20.4590  -28.4270   37.3690 C   0  0  0  0  0  0  0  0  0  0  0  0
   20.4680  -28.1720   36.1660 O   0  0  0  0  0  0  0  0  0  0  0  0
   20.6730  -27.3550   38.3670 C   0  0  0  0  0  0  0  0  0  0  0  0
   20.8900  -26.0790   37.8830 O   0  0  0  0  0  0  0  0  0  0  0  0
   19.8590  -25.7890   41.0810 C   0  0  0  0  0  0  0  0  0  0  0  0
   20.0510  -24.8310   42.0810 C   0  0  0  0  0  0  0  0  0  0  0  0
   21.2630  -24.7450   42.7830 C   0  0  0  0  0  0  0  0  0  0  0  0
   21.4760  -23.7910   43.7960 N   0  0  0  0  0  0  0  0  0  0  0  0
   20.9910  -22.4330   43.4640 C   0  0  0  0  0  0  0  0  0  0  0  0
   21.3980  -21.4460   44.5840 C   0  0  0  0  0  0  0  0  0  0  0  0
   20.8890  -21.8570   45.9140 N   0  0  0  0  0  0  0  0  0  0  0  0
   21.3410  -20.9290   46.9480 C   0  0  0  0  0  0  0  0  0  0  0  0
   21.3570  -23.2330   46.2080 C   0  0  0  0  0  0  0  0  0  0  0  0
   20.9620  -24.2470   45.1070 C   0  0  0  0  0  0  0  0  0  0  0  0
   24.1749  -27.1357   44.5997 H   0  0  0  0  0  0  0  0  0  0  0  0
   23.4482  -27.7672   43.0833 H   0  0  0  0  0  0  0  0  0  0  0  0
   25.1375  -27.1565   43.0833 H   0  0  0  0  0  0  0  0  0  0  0  0
   23.5259  -25.0463   44.0991 H   0  0  0  0  0  0  0  0  0  0  0  0
   24.3549  -25.1554   42.4876 H   0  0  0  0  0  0  0  0  0  0  0  0
   22.8951  -27.3125   41.1979 H   0  0  0  0  0  0  0  0  0  0  0  0
   20.0627  -31.4252   40.8542 H   0  0  0  0  0  0  0  0  0  0  0  0
   19.6733  -33.3504   39.3120 H   0  0  0  0  0  0  0  0  0  0  0  0
   19.6488  -32.9868   36.8424 H   0  0  0  0  0  0  0  0  0  0  0  0
   19.3160  -31.1450   35.1480 H   0  0  0  0  0  0  0  0  0  0  0  0
   21.6880  -25.6310   38.0830 H   0  0  0  0  0  0  0  0  0  0  0  0
   18.9005  -25.8282   40.5427 H   0  0  0  0  0  0  0  0  0  0  0  0
   19.2368  -24.1317   42.3220 H   0  0  0  0  0  0  0  0  0  0  0  0
   21.4354  -22.1087   42.5115 H   0  0  0  0  0  0  0  0  0  0  0  0
   19.8949  -22.4495   43.3734 H   0  0  0  0  0  0  0  0  0  0  0  0
   22.4959  -21.3941   44.6269 H   0  0  0  0  0  0  0  0  0  0  0  0
   20.9564  -20.4674   44.3444 H   0  0  0  0  0  0  0  0  0  0  0  0
   19.8690  -21.8420   45.9040 H   0  0  0  0  0  0  0  0  0  0  0  0
   21.1330  -21.3560   47.9402 H   0  0  0  0  0  0  0  0  0  0  0  0
   22.4226  -20.7595   46.8411 H   0  0  0  0  0  0  0  0  0  0  0  0
   20.8077  -19.9729   46.8411 H   0  0  0  0  0  0  0  0  0  0  0  0
   22.4533  -23.2201   46.2975 H   0  0  0  0  0  0  0  0  0  0  0  0
   20.8759  -23.5545   47.1435 H   0  0  0  0  0  0  0  0  0  0  0  0
   21.3923  -25.2308   45.3456 H   0  0  0  0  0  0  0  0  0  0  0  0
   19.8656  -24.3228   45.0602 H   0  0  0  0  0  0  0  0  0  0  0  0
  1  2  1  0
  2  3  1  0
  3  4  2  0
  4  5  1  0
  5  6  1  0
  6  7  1  0
  7  8  1  0
  8  9  2  0
  9 10  1  0
 10 11  2  0
 11 12  1  0
 12 13  1  0
 12 14  2  0
 14 15  1  0
 15 16  2  0
 15 17  1  0
 17 18  1  0
  5 19  2  0
 19 20  1  0
 20 21  2  0
 21 22  1  0
 22 23  1  0
 23 24  1  0
 24 25  1  0
 25 26  1  0
 25 27  1  0
 27 28  1  0
 21  3  1  0
 28 22  1  0
 17  6  2  0
 14  8  1  0
  1 29  1  0
  1 30  1  0
  1 31  1  0
  2 32  1  0
  2 33  1  0
  4 34  1  0
  9 35  1  0
 10 36  1  0
 11 37  1  0
 13 38  1  0
 18 39  1  0
 19 40  1  0
 20 41  1  0
 23 42  1  0
 23 43  1  0
 24 44  1  0
 24 45  1  0
 25 46  1  0
 26 47  1  0
 26 48  1  0
 26 49  1  0
 27 50  1  0
 27 51  1  0
 28 52  1  0
 28 53  1  0
M  CHG  1  25   1
M  END
>  <meeko>  (7) 
{"is_sidechain": [false], "free_energy": -8.225, "intermolecular_energy": -10.215, "internal_energy": -0.629}

$$$$
cand_025_out
     RDKit          3D

 53 56  0  0  0  0  0  0  0  0999 V2000
   23.6520  -29.6090   41.6170 C   0  0  0  0  0  0  0  0  0  0  0  0
   22.9600  -28.2550   41.5750 C   0  0  0  0  0  0  0  0  0  0  0  0
   21.6490  -28.3120   40.8220 C   0  0  0  0  0  0  0  0  0  0  0  0
   21.3680  -29.4520   40.0410 C   0  0  0  0  0  0  0  0  0  0  0  0
   20.1780  -29.5650   39.3120 C   0  0  0  0  0  0  0  0  0  0  0  0
   19.8880  -30.7460   38.4720 C   0  0  0  0  0  0  0  0  0  0  0  0
   19.5330  -31.8650   39.2160 O   0  0  0  0  0  0  0  0  0  0  0  0
   19.2360  -33.0320   38.5610 C   0  0  0  0  0  0  0  0  0  0  0  0
   18.8690  -34.1250   39.3450 C   0  0  0  0  0  0  0  0  0  0  0  0
   18.5560  -35.3450   38.7400 C   0  0  0  0  0  0  0  0  0  0  0  0
   18.6100  -35.4700   37.3510 C   0  0  0  0  0  0  0  0  0  0  0  0
   18.9750  -34.3770   36.5690 C   0  0  0  0  0  0  0  0  0  0  0  0
   19.0080  -34.5700   35.2150 O   0  0  0  0  0  0  0  0  0  0  0  0
   19.2880  -33.1580   37.1750 C   0  0  0  0  0  0  0  0  0  0  0  0
   19.6770  -31.9840   36.3910 C   0  0  0  0  0  0  0  0  0  0  0  0
   19.7540  -32.0190   35.1640 O   0  0  0  0  0  0  0  0  0  0  0  0
   19.9820  -30.7370   37.1290 C   0  0  0  0  0  0  0  0  0  0  0  0
   20.3600  -29.6400   36.3790 O   0  0  0  0  0  0  0  0  0  0  0  0
   19.2690  -28.5030   39.3590 C   0  0  0  0  0  0  0  0  0  0  0  0
   19.5390  -27.3640   40.1230 C   0  0  0  0  0  0  0  0  0  0  0  0
   20.7290  -27.2450   40.8580 C   0  0  0  0  0  0  0  0  0  0  0  0
   21.0180  -26.1090   41.6370 N   0  0  0  0  0  0  0  0  0  0  0  0
   20.3990  -24.8590   41.1430 C   0  0  0  0  0  0  0  0  0  0  0  0
   20.8920  -23.6620   41.9890 C   0  0  0  0  0  0  0  0  0  0  0  0
   20.6080  -23.8350   43.4340 N   0  0  0  0  0  0  0  0  0  0  0  0
   21.1370  -22.7100   44.2010 C   0  0  0  0  0  0  0  0  0  0  0  0
   21.2050  -25.1100   43.8970 C   0  0  0  0  0  0  0  0  0  0  0  0
   20.7280  -26.3290   43.0720 C   0  0  0  0  0  0  0  0  0  0  0  0
   23.8058  -29.9099   42.6638 H   0  0  0  0  0  0  0  0  0  0  0  0
   23.0256  -30.3569   41.1088 H   0  0  0  0  0  0  0  0  0  0  0  0
   24.6251  -29.5394   41.1088 H   0  0  0  0  0  0  0  0  0  0  0  0
   22.7636  -27.9244   42.6056 H   0  0  0  0  0  0  0  0  0  0  0  0
   23.6227  -27.5507   41.0508 H   0  0  0  0  0  0  0  0  0  0  0  0
   22.1008  -30.2715   40.0036 H   0  0  0  0  0  0  0  0  0  0  0  0
   18.8259  -34.0269   40.4398 H   0  0  0  0  0  0  0  0  0  0  0  0
   18.2669  -36.2073   39.3588 H   0  0  0  0  0  0  0  0  0  0  0  0
   18.3646  -36.4306   36.8746 H   0  0  0  0  0  0  0  0  0  0  0  0
   18.8150  -35.4140   34.8570 H   0  0  0  0  0  0  0  0  0  0  0  0
   21.2330  -29.5790   36.0430 H   0  0  0  0  0  0  0  0  0  0  0  0
   18.3308  -28.5648   38.7881 H   0  0  0  0  0  0  0  0  0  0  0  0
   18.8049  -26.5452   40.1488 H   0  0  0  0  0  0  0  0  0  0  0  0
   20.6798  -24.7032   40.0909 H   0  0  0  0  0  0  0  0  0  0  0  0
   19.3050  -24.9372   41.2263 H   0  0  0  0  0  0  0  0  0  0  0  0
   21.9785  -23.5570   41.8528 H   0  0  0  0  0  0  0  0  0  0  0  0
   20.3540  -22.7657   41.6468 H   0  0  0  0  0  0  0  0  0  0  0  0
   19.5980  -23.8630   43.5770 H   0  0  0  0  0  0  0  0  0  0  0  0
   21.0381  -22.9204   45.2761 H   0  0  0  0  0  0  0  0  0  0  0  0
   22.1984  -22.5634   43.9522 H   0  0  0  0  0  0  0  0  0  0  0  0
   20.5729  -21.7990   43.9522 H   0  0  0  0  0  0  0  0  0  0  0  0
   22.2994  -25.0362   43.8146 H   0  0  0  0  0  0  0  0  0  0  0  0
   20.8843  -25.2678   44.9373 H   0  0  0  0  0  0  0  0  0  0  0  0
   21.2542  -27.2314   43.4166 H   0  0  0  0  0  0  0  0  0  0  0  0
   19.6439  -26.4570   43.2076 H   0  0  0  0  0  0  0  0  0  0  0  0
  1  2  1  0
  2  3  1  0
  3  4  2  0
  4  5  1  0
  5  6  1  0
  6  7  1  0
  7  8  1  0
  8  9  2  0
  9 10  1  0
 10 11  2  0
 11 12  1  0
 12 13  1  0
 12 14  2  0
 14 15  1  0
 15 16  2  0
 15 17  1  0
 17 18  1  0
  5 19  2  0
 19 20  1  0
 20 21  2  0
 21 22  1  0
 22 23  1  0
 23 24  1  0
 24 25  1  0
 25 26  1  0
 25 27  1  0
 27 28  1  0
 21  3  1  0
 28 22  1  0
 17  6  2  0
 14  8  1  0
  1 29  1  0
  1 30  1  0
  1 31  1  0
  2 32  1  0
  2 33  1  0
  4 34  1  0
  9 35  1  0
 10 36  1  0
 11 37  1  0
 13 38  1  0
 18 39  1  0
 19 40  1  0
 20 41  1  0
 23 42  1  0
 23 43  1  0
 24 44  1  0
 24 45  1  0
 25 46  1  0
 26 47  1  0
 26 48  1  0
 26 49  1  0
 27 50  1  0
 27 51  1  0
 28 52  1  0
 28 53  1  0
M  CHG  1  25   1
M  END
>  <meeko>  (8) 
{"is_sidechain": [false], "free_energy": -8.207, "intermolecular_energy": -10.367, "internal_energy": -0.454}

$$$$
cand_025_out
     RDKit          3D

 53 56  0  0  0  0  0  0  0  0999 V2000
   18.8820  -27.2220   35.8500 C   0  0  0  0  0  0  0  0  0  0  0  0
   20.0790  -28.1600   35.8090 C   0  0  0  0  0  0  0  0  0  0  0  0
   20.2800  -28.8790   37.1250 C   0  0  0  0  0  0  0  0  0  0  0  0
   20.4900  -28.1120   38.2890 C   0  0  0  0  0  0  0  0  0  0  0  0
   20.6910  -28.7140   39.5370 C   0  0  0  0  0  0  0  0  0  0  0  0
   20.9360  -27.9160   40.7570 C   0  0  0  0  0  0  0  0  0  0  0  0
   22.1620  -28.1980   41.3500 O   0  0  0  0  0  0  0  0  0  0  0  0
   22.5170  -27.5260   42.4910 C   0  0  0  0  0  0  0  0  0  0  0  0
   23.7620  -27.8280   43.0430 C   0  0  0  0  0  0  0  0  0  0  0  0
   24.1850  -27.1810   44.2070 C   0  0  0  0  0  0  0  0  0  0  0  0
   23.3620  -26.2330   44.8170 C   0  0  0  0  0  0  0  0  0  0  0  0
   22.1200  -25.9330   44.2650 C   0  0  0  0  0  0  0  0  0  0  0  0
   21.3650  -24.9940   44.9140 O   0  0  0  0  0  0  0  0  0  0  0  0
   21.6980  -26.5800   43.1000 C   0  0  0  0  0  0  0  0  0  0  0  0
   20.4000  -26.2940   42.4860 C   0  0  0  0  0  0  0  0  0  0  0  0
   19.6180  -25.4770   42.9690 O   0  0  0  0  0  0  0  0  0  0  0  0
   20.0510  -27.0280   41.2490 C   0  0  0  0  0  0  0  0  0  0  0  0
   18.8180  -26.7600   40.6850 O   0  0  0  0  0  0  0  0  0  0  0  0
   20.6990  -30.1110   39.6050 C   0  0  0  0  0  0  0  0  0  0  0  0
   20.5000  -30.8830   38.4560 C   0  0  0  0  0  0  0  0  0  0  0  0
   20.2950  -30.2860   37.2030 C   0  0  0  0  0  0  0  0  0  0  0  0
   20.0880  -31.0460   36.0360 N   0  0  0  0  0  0  0  0  0  0  0  0
   21.1520  -30.8990   35.0190 C   0  0  0  0  0  0  0  0  0  0  0  0
   20.7550  -31.6650   33.7350 C   0  0  0  0  0  0  0  0  0  0  0  0
   20.4900  -33.1000   33.9900 N   0  0  0  0  0  0  0  0  0  0  0  0
   20.0660  -33.7720   32.7640 C   0  0  0  0  0  0  0  0  0  0  0  0
   19.4480  -33.2220   35.0380 C   0  0  0  0  0  0  0  0  0  0  0  0
   19.8170  -32.4690   36.3390 C   0  0  0  0  0  0  0  0  0  0  0  0
   18.6155  -27.0132   36.8966 H   0  0  0  0  0  0  0  0  0  0  0  0
   19.1365  -26.2804   35.3415 H   0  0  0  0  0  0  0  0  0  0  0  0
   18.0285  -27.6942   35.3415 H   0  0  0  0  0  0  0  0  0  0  0  0
   19.9184  -28.9065   35.0172 H   0  0  0  0  0  0  0  0  0  0  0  0
   20.9771  -27.5568   35.6104 H   0  0  0  0  0  0  0  0  0  0  0  0
   20.4961  -27.0145   38.2150 H   0  0  0  0  0  0  0  0  0  0  0  0
   24.4105  -28.5752   42.5621 H   0  0  0  0  0  0  0  0  0  0  0  0
   25.1667  -27.4188   44.6426 H   0  0  0  0  0  0  0  0  0  0  0  0
   23.6947  -25.7234   45.7333 H   0  0  0  0  0  0  0  0  0  0  0  0
   21.2780  -24.1330   44.5550 H   0  0  0  0  0  0  0  0  0  0  0  0
   18.1580  -27.4240   40.6620 H   0  0  0  0  0  0  0  0  0  0  0  0
   20.8636  -30.6078   40.5726 H   0  0  0  0  0  0  0  0  0  0  0  0
   20.5043  -31.9801   38.5362 H   0  0  0  0  0  0  0  0  0  0  0  0
   21.2868  -29.8333   34.7821 H   0  0  0  0  0  0  0  0  0  0  0  0
   22.0924  -31.3114   35.4133 H   0  0  0  0  0  0  0  0  0  0  0  0
   19.8460  -31.2071   33.3178 H   0  0  0  0  0  0  0  0  0  0  0  0
   21.5991  -31.6005   33.0326 H   0  0  0  0  0  0  0  0  0  0  0  0
   21.3470  -33.5490   34.3130 H   0  0  0  0  0  0  0  0  0  0  0  0
   19.4952  -34.6767   33.0204 H   0  0  0  0  0  0  0  0  0  0  0  0
   19.4322  -33.0934   32.1743 H   0  0  0  0  0  0  0  0  0  0  0  0
   20.9514  -34.0519   32.1743 H   0  0  0  0  0  0  0  0  0  0  0  0
   18.5063  -32.8089   34.6475 H   0  0  0  0  0  0  0  0  0  0  0  0
   19.3520  -34.2889   35.2879 H   0  0  0  0  0  0  0  0  0  0  0  0
   18.9808  -32.5379   37.0503 H   0  0  0  0  0  0  0  0  0  0  0  0
   20.7167  -32.9240   36.7788 H   0  0  0  0  0  0  0  0  0  0  0  0
  1  2  1  0
  2  3  1  0
  3  4  2  0
  4  5  1  0
  5  6  1  0
  6  7  1  0
  7  8  1  0
  8  9  2  0
  9 10  1  0
 10 11  2  0
 11 12  1  0
 12 13  1  0
 12 14  2  0
 14 15  1  0
 15 16  2  0
 15 17  1  0
 17 18  1  0
  5 19  2  0
 19 20  1  0
 20 21  2  0
 21 22  1  0
 22 23  1  0
 23 24  1  0
 24 25  1  0
 25 26  1  0
 25 27  1  0
 27 28  1  0
 21  3  1  0
 28 22  1  0
 17  6  2  0
 14  8  1  0
  1 29  1  0
  1 30  1  0
  1 31  1  0
  2 32  1  0
  2 33  1  0
  4 34  1  0
  9 35  1  0
 10 36  1  0
 11 37  1  0
 13 38  1  0
 18 39  1  0
 19 40  1  0
 20 41  1  0
 23 42  1  0
 23 43  1  0
 24 44  1  0
 24 45  1  0
 25 46  1  0
 26 47  1  0
 26 48  1  0
 26 49  1  0
 27 50  1  0
 27 51  1  0
 28 52  1  0
 28 53  1  0
M  CHG  1  25   1
M  END
>  <meeko>  (9) 
{"is_sidechain": [false], "free_energy": -8.201, "intermolecular_energy": -10.702, "internal_energy": -0.112}

$$$$
