cand_003_out
     RDKit          3D

 35 37  0  0  0  0  0  0  0  0999 V2000
   21.4180  -26.1810   42.3040 C   0  0  0  0  0  0  0  0  0  0  0  0
   22.0640  -27.4690   41.8680 C   0  0  0  0  0  0  0  0  0  0  0  0
   21.4870  -28.2000   40.8120 C   0  0  0  0  0  0  0  0  0  0  0  0
   22.0520  -29.4010   40.3550 C   0  0  0  0  0  0  0  0  0  0  0  0
   21.4000  -30.1510   39.2610 C   0  0  0  0  0  0  0  0  0  0  0  0
   20.6190  -31.2060   39.7180 O   0  0  0  0  0  0  0  0  0  0  0  0
   19.9560  -31.9850   38.8050 C   0  0  0  0  0  0  0  0  0  0  0  0
   19.1960  -33.0420   39.3060 C   0  0  0  0  0  0  0  0  0  0  0  0
   18.4940  -33.8730   38.4310 C   0  0  0  0  0  0  0  0  0  0  0  0
   18.5520  -33.6470   37.0540 C   0  0  0  0  0  0  0  0  0  0  0  0
   19.3110  -32.5910   36.5560 C   0  0  0  0  0  0  0  0  0  0  0  0
   19.3230  -32.4250   35.1980 O   0  0  0  0  0  0  0  0  0  0  0  0
   20.0140  -31.7610   37.4330 C   0  0  0  0  0  0  0  0  0  0  0  0
   20.8230  -30.6400   36.9510 C   0  0  0  0  0  0  0  0  0  0  0  0
   20.9180  -30.3720   35.7550 O   0  0  0  0  0  0  0  0  0  0  0  0
   21.5350  -29.8250   37.9620 C   0  0  0  0  0  0  0  0  0  0  0  0
   22.2860  -28.7600   37.4980 O   0  0  0  0  0  0  0  0  0  0  0  0
   23.2070  -29.8760   40.9860 C   0  0  0  0  0  0  0  0  0  0  0  0
   23.7920  -29.1610   42.0340 C   0  0  0  0  0  0  0  0  0  0  0  0
   23.2370  -27.9520   42.4870 C   0  0  0  0  0  0  0  0  0  0  0  0
   23.9010  -27.2050   43.6240 C   0  0  0  0  0  0  0  0  0  0  0  0
   24.9220  -27.9060   44.1920 F   0  0  0  0  0  0  0  0  0  0  0  0
   23.0510  -26.9020   44.6460 F   0  0  0  0  0  0  0  0  0  0  0  0
   24.4360  -26.0150   43.2290 F   0  0  0  0  0  0  0  0  0  0  0  0
   21.3953  -26.1358   43.4028 H   0  0  0  0  0  0  0  0  0  0  0  0
   21.9962  -25.3304   41.9139 H   0  0  0  0  0  0  0  0  0  0  0  0
   20.3905  -26.1357   41.9139 H   0  0  0  0  0  0  0  0  0  0  0  0
   20.5718  -27.8210   40.3338 H   0  0  0  0  0  0  0  0  0  0  0  0
   19.1498  -33.2207   40.3904 H   0  0  0  0  0  0  0  0  0  0  0  0
   17.8947  -34.7064   38.8264 H   0  0  0  0  0  0  0  0  0  0  0  0
   17.9993  -34.3018   36.3643 H   0  0  0  0  0  0  0  0  0  0  0  0
   19.9450  -31.8470   34.8020 H   0  0  0  0  0  0  0  0  0  0  0  0
   22.9200  -28.8940   36.8210 H   0  0  0  0  0  0  0  0  0  0  0  0
   23.6590  -30.8221   40.6535 H   0  0  0  0  0  0  0  0  0  0  0  0
   24.7024  -29.5509   42.5127 H   0  0  0  0  0  0  0  0  0  0  0  0
  1  2  1  0
  2  3  2  0
  3  4  1  0
  4  5  1  0
  5  6  1  0
  6  7  1  0
  7  8  2  0
  8  9  1  0
  9 10  2  0
 10 11  1  0
 11 12  1  0
 11 13  2  0
 13 14  1  0
 14 15  2  0
 14 16  1  0
 16 17  1  0
  4 18  2  0
 18 19  1  0
 19 20  2  0
 20 21  1  0
 21 22  1  0
 21 23  1  0
 21 24  1  0
 20  2  1  0
 16  5  2  0
 13  7  1  0
  1 25  1  0
  1 26  1  0
  1 27  1  0
  3 28  1  0
  8 29  1  0
  9 30  1  0
 10 31  1  0
 12 32  1  0
 17 33  1  0
 18 34  1  0
 19 35  1  0
M  END
>  <meeko>  (1) 
{"is_sidechain": [false], "free_energy": -9.867, "intermolecular_energy": -11.598, "internal_energy": -0.382}

$$$$
cand_003_out
     RDKit          3D

 35 37  0  0  0  0  0  0  0  0999 V2000
   19.7110  -26.7620   41.3320 C   0  0  0  0  0  0  0  0  0  0  0  0
   20.6630  -27.8370   40.8790 C   0  0  0  0  0  0  0  0  0  0  0  0
   20.2230  -28.7890   39.9390 C   0  0  0  0  0  0  0  0  0  0  0  0
   21.0700  -29.8050   39.4710 C   0  0  0  0  0  0  0  0  0  0  0  0
   20.5610  -30.8000   38.5050 C   0  0  0  0  0  0  0  0  0  0  0  0
   20.0970  -31.9600   39.1150 O   0  0  0  0  0  0  0  0  0  0  0  0
   19.5950  -32.9670   38.3310 C   0  0  0  0  0  0  0  0  0  0  0  0
   19.1540  -34.1180   38.9840 C   0  0  0  0  0  0  0  0  0  0  0  0
   18.6300  -35.1810   38.2450 C   0  0  0  0  0  0  0  0  0  0  0  0
   18.5460  -35.0920   36.8540 C   0  0  0  0  0  0  0  0  0  0  0  0
   18.9860  -33.9410   36.2050 C   0  0  0  0  0  0  0  0  0  0  0  0
   18.8740  -33.9200   34.8420 O   0  0  0  0  0  0  0  0  0  0  0  0
   19.5120  -32.8790   36.9450 C   0  0  0  0  0  0  0  0  0  0  0  0
   19.9850  -31.6530   36.3020 C   0  0  0  0  0  0  0  0  0  0  0  0
   19.9380  -31.4950   35.0840 O   0  0  0  0  0  0  0  0  0  0  0  0
   20.5320  -30.5880   37.1760 C   0  0  0  0  0  0  0  0  0  0  0  0
   20.9640  -29.4280   36.5600 O   0  0  0  0  0  0  0  0  0  0  0  0
   22.3750  -29.8680   39.9730 C   0  0  0  0  0  0  0  0  0  0  0  0
   22.8270  -28.9290   40.9040 C   0  0  0  0  0  0  0  0  0  0  0  0
   21.9860  -27.9030   41.3660 C   0  0  0  0  0  0  0  0  0  0  0  0
   22.5120  -26.9030   42.3740 C   0  0  0  0  0  0  0  0  0  0  0  0
   21.7700  -26.8620   43.5160 F   0  0  0  0  0  0  0  0  0  0  0  0
   22.5380  -25.6220   41.9080 F   0  0  0  0  0  0  0  0  0  0  0  0
   23.7900  -27.1750   42.7660 F   0  0  0  0  0  0  0  0  0  0  0  0
   19.6860  -26.7338   42.4314 H   0  0  0  0  0  0  0  0  0  0  0  0
   20.0481  -25.7880   40.9478 H   0  0  0  0  0  0  0  0  0  0  0  0
   18.7034  -26.9789   40.9478 H   0  0  0  0  0  0  0  0  0  0  0  0
   19.1908  -28.7347   39.5628 H   0  0  0  0  0  0  0  0  0  0  0  0
   19.2189  -34.1884   40.0798 H   0  0  0  0  0  0  0  0  0  0  0  0
   18.2831  -36.0894   38.7593 H   0  0  0  0  0  0  0  0  0  0  0  0
   18.1332  -35.9292   36.2721 H   0  0  0  0  0  0  0  0  0  0  0  0
   19.4640  -33.4000   34.3310 H   0  0  0  0  0  0  0  0  0  0  0  0
   21.8560  -29.1560   36.6470 H   0  0  0  0  0  0  0  0  0  0  0  0
   23.0518  -30.6649   39.6311 H   0  0  0  0  0  0  0  0  0  0  0  0
   23.8582  -28.9943   41.2813 H   0  0  0  0  0  0  0  0  0  0  0  0
  1  2  1  0
  2  3  2  0
  3  4  1  0
  4  5  1  0
  5  6  1  0
  6  7  1  0
  7  8  2  0
  8  9  1  0
  9 10  2  0
 10 11  1  0
 11 12  1  0
 11 13  2  0
 13 14  1  0
 14 15  2  0
 14 16  1  0
 16 17  1  0
  4 18  2  0
 18 19  1  0
 19 20  2  0
 20 21  1  0
 21 22  1  0
 21 23  1  0
 21 24  1  0
 20  2  1  0
 16  5  2  0
 13  7  1  0
  1 25  1  0
  1 26  1  0
  1 27  1  0
  3 28  1  0
  8 29  1  0
  9 30  1  0
 10 31  1  0
 12 32  1  0
 17 33  1  0
 18 34  1  0
 19 35  1  0
M  END
>  <meeko>  (2) 
{"is_sidechain": [false], "free_energy": -9.822, "intermolecular_energy": -11.512, "internal_energy": -0.414}

$$$$
cand_003_out
     RDKit          3D

 35 37  0  0  0  0  0  0  0  0999 V2000
   24.5530  -29.2790   43.0480 C   0  0  0  0  0  0  0  0  0  0  0  0
   23.4390  -28.7020   42.2170 C   0  0  0  0  0  0  0  0  0  0  0  0
   22.8440  -29.5000   41.2210 C   0  0  0  0  0  0  0  0  0  0  0  0
   21.7930  -29.0200   40.4250 C   0  0  0  0  0  0  0  0  0  0  0  0
   21.2140  -29.8820   39.3730 C   0  0  0  0  0  0  0  0  0  0  0  0
   20.4190  -30.9010   39.8850 O   0  0  0  0  0  0  0  0  0  0  0  0
   19.8190  -31.7750   39.0150 C   0  0  0  0  0  0  0  0  0  0  0  0
   19.0420  -32.7910   39.5720 C   0  0  0  0  0  0  0  0  0  0  0  0
   18.4010  -33.7130   38.7420 C   0  0  0  0  0  0  0  0  0  0  0  0
   18.5370  -33.6200   37.3560 C   0  0  0  0  0  0  0  0  0  0  0  0
   19.3120  -32.6040   36.8020 C   0  0  0  0  0  0  0  0  0  0  0  0
   19.4020  -32.5700   35.4370 O   0  0  0  0  0  0  0  0  0  0  0  0
   19.9540  -31.6820   37.6330 C   0  0  0  0  0  0  0  0  0  0  0  0
   20.7780  -30.6000   37.0920 C   0  0  0  0  0  0  0  0  0  0  0  0
   20.9400  -30.4470   35.8830 O   0  0  0  0  0  0  0  0  0  0  0  0
   21.4210  -29.6800   38.0580 C   0  0  0  0  0  0  0  0  0  0  0  0
   22.1870  -28.6530   37.5370 O   0  0  0  0  0  0  0  0  0  0  0  0
   21.3500  -27.7080   40.6270 C   0  0  0  0  0  0  0  0  0  0  0  0
   21.9290  -26.9050   41.6130 C   0  0  0  0  0  0  0  0  0  0  0  0
   22.9730  -27.3860   42.4210 C   0  0  0  0  0  0  0  0  0  0  0  0
   23.5730  -26.4850   43.4790 C   0  0  0  0  0  0  0  0  0  0  0  0
   24.8770  -26.1750   43.2330 F   0  0  0  0  0  0  0  0  0  0  0  0
   23.5570  -27.0280   44.7310 F   0  0  0  0  0  0  0  0  0  0  0  0
   22.9190  -25.2940   43.5900 F   0  0  0  0  0  0  0  0  0  0  0  0
   24.3159  -29.1562   44.1151 H   0  0  0  0  0  0  0  0  0  0  0  0
   24.6656  -30.3488   42.8182 H   0  0  0  0  0  0  0  0  0  0  0  0
   25.4918  -28.7538   42.8182 H   0  0  0  0  0  0  0  0  0  0  0  0
   23.2121  -30.5245   41.0632 H   0  0  0  0  0  0  0  0  0  0  0  0
   18.9344  -32.8657   40.6642 H   0  0  0  0  0  0  0  0  0  0  0  0
   17.7879  -34.5138   39.1811 H   0  0  0  0  0  0  0  0  0  0  0  0
   18.0332  -34.3475   36.7027 H   0  0  0  0  0  0  0  0  0  0  0  0
   20.2390  -32.4870   35.0250 H   0  0  0  0  0  0  0  0  0  0  0  0
   23.1120  -28.7590   37.4450 H   0  0  0  0  0  0  0  0  0  0  0  0
   20.5382  -27.3051   40.0036 H   0  0  0  0  0  0  0  0  0  0  0  0
   21.5612  -25.8787   41.7592 H   0  0  0  0  0  0  0  0  0  0  0  0
  1  2  1  0
  2  3  2  0
  3  4  1  0
  4  5  1  0
  5  6  1  0
  6  7  1  0
  7  8  2  0
  8  9  1  0
  9 10  2  0
 10 11  1  0
 11 12  1  0
 11 13  2  0
 13 14  1  0
 14 15  2  0
 14 16  1  0
 16 17  1  0
  4 18  2  0
 18 19  1  0
 19 20  2  0
 20 21  1  0
 21 22  1  0
 21 23  1  0
 21 24  1  0
 20  2  1  0
 16  5  2  0
 13  7  1  0
  1 25  1  0
  1 26  1  0
  1 27  1  0
  3 28  1  0
  8 29  1  0
  9 30  1  0
 10 31  1  0
 12 32  1  0
 17 33  1  0
 18 34  1  0
 19 35  1  0
M  END
>  <meeko>  (3) 
{"is_sidechain": [false], "free_energy": -9.652, "intermolecular_energy": -11.381, "internal_energy": -0.345}

$$$$
cand_003_out
     RDKit          3D

 35 37  0  0  0  0  0  0  0  0999 V2000
   18.7490  -33.2890   39.7360 C   0  0  0  0  0  0  0  0  0  0  0  0
   19.3990  -32.1850   38.9460 C   0  0  0  0  0  0  0  0  0  0  0  0
   19.8480  -31.0340   39.6210 C   0  0  0  0  0  0  0  0  0  0  0  0
   20.4720  -29.9780   38.9380 C   0  0  0  0  0  0  0  0  0  0  0  0
   20.9050  -28.7760   39.6810 C   0  0  0  0  0  0  0  0  0  0  0  0
   21.8560  -29.0550   40.6550 O   0  0  0  0  0  0  0  0  0  0  0  0
   22.3440  -28.0260   41.4190 C   0  0  0  0  0  0  0  0  0  0  0  0
   23.2870  -28.3520   42.3950 C   0  0  0  0  0  0  0  0  0  0  0  0
   23.8260  -27.3510   43.2060 C   0  0  0  0  0  0  0  0  0  0  0  0
   23.4230  -26.0240   43.0410 C   0  0  0  0  0  0  0  0  0  0  0  0
   22.4840  -25.7000   42.0650 C   0  0  0  0  0  0  0  0  0  0  0  0
   22.1360  -24.3820   41.9560 O   0  0  0  0  0  0  0  0  0  0  0  0
   21.9430  -26.7030   41.2550 C   0  0  0  0  0  0  0  0  0  0  0  0
   20.9540  -26.4060   40.2190 C   0  0  0  0  0  0  0  0  0  0  0  0
   20.5550  -25.2620   40.0070 O   0  0  0  0  0  0  0  0  0  0  0  0
   20.4380  -27.5410   39.4180 C   0  0  0  0  0  0  0  0  0  0  0  0
   19.5130  -27.2480   38.4330 O   0  0  0  0  0  0  0  0  0  0  0  0
   20.6300  -30.0830   37.5520 C   0  0  0  0  0  0  0  0  0  0  0  0
   20.1920  -31.2200   36.8680 C   0  0  0  0  0  0  0  0  0  0  0  0
   19.5770  -32.2840   37.5490 C   0  0  0  0  0  0  0  0  0  0  0  0
   19.1170  -33.5010   36.7740 C   0  0  0  0  0  0  0  0  0  0  0  0
   17.7660  -33.6710   36.8090 F   0  0  0  0  0  0  0  0  0  0  0  0
   19.6450  -34.6720   37.2340 F   0  0  0  0  0  0  0  0  0  0  0  0
   19.4550  -33.4420   35.4550 F   0  0  0  0  0  0  0  0  0  0  0  0
   18.8668  -33.0889   40.8112 H   0  0  0  0  0  0  0  0  0  0  0  0
   17.6786  -33.3368   39.4871 H   0  0  0  0  0  0  0  0  0  0  0  0
   19.2265  -34.2482   39.4871 H   0  0  0  0  0  0  0  0  0  0  0  0
   19.7065  -30.9603   40.7094 H   0  0  0  0  0  0  0  0  0  0  0  0
   23.6055  -29.3968   42.5253 H   0  0  0  0  0  0  0  0  0  0  0  0
   24.5688  -27.6080   43.9756 H   0  0  0  0  0  0  0  0  0  0  0  0
   23.8466  -25.2360   43.6810 H   0  0  0  0  0  0  0  0  0  0  0  0
   21.6040  -24.0960   41.2400 H   0  0  0  0  0  0  0  0  0  0  0  0
   19.3830  -27.8430   37.7220 H   0  0  0  0  0  0  0  0  0  0  0  0
   21.1041  -29.2617   36.9946 H   0  0  0  0  0  0  0  0  0  0  0  0
   20.3309  -31.2831   35.7786 H   0  0  0  0  0  0  0  0  0  0  0  0
  1  2  1  0
  2  3  2  0
  3  4  1  0
  4  5  1  0
  5  6  1  0
  6  7  1  0
  7  8  2  0
  8  9  1  0
  9 10  2  0
 10 11  1  0
 11 12  1  0
 11 13  2  0
 13 14  1  0
 14 15  2  0
 14 16  1  0
 16 17  1  0
  4 18  2  0
 18 19  1  0
 19 20  2  0
 20 21  1  0
 21 22  1  0
 21 23  1  0
 21 24  1  0
 20  2  1  0
 16  5  2  0
 13  7  1  0
  1 25  1  0
  1 26  1  0
  1 27  1  0
  3 28  1  0
  8 29  1  0
  9 30  1  0
 10 31  1  0
 12 32  1  0
 17 33  1  0
 18 34  1  0
 19 35  1  0
M  END
>  <meeko>  (4) 
{"is_sidechain": [false], "free_energy": -9.058, "intermolecular_energy": -10.783, "internal_energy": -0.246}

$$$$
cand_003_out
     RDKit          3D

 35 37  0  0  0  0  0  0  0  0999 V2000
   19.4760  -26.8160   41.0210 C   0  0  0  0  0  0  0  0  0  0  0  0
   20.4510  -27.8920   40.6230 C   0  0  0  0  0  0  0  0  0  0  0  0
   20.0450  -28.8760   39.7020 C   0  0  0  0  0  0  0  0  0  0  0  0
   20.9140  -29.8960   39.2850 C   0  0  0  0  0  0  0  0  0  0  0  0
   20.4400  -30.9250   38.3360 C   0  0  0  0  0  0  0  0  0  0  0  0
   20.7750  -30.6410   37.0170 O   0  0  0  0  0  0  0  0  0  0  0  0
   20.3950  -31.5170   36.0330 C   0  0  0  0  0  0  0  0  0  0  0  0
   20.7400  -31.1860   34.7220 C   0  0  0  0  0  0  0  0  0  0  0  0
   20.3840  -32.0350   33.6720 C   0  0  0  0  0  0  0  0  0  0  0  0
   19.6850  -33.2150   33.9320 C   0  0  0  0  0  0  0  0  0  0  0  0
   19.3430  -33.5440   35.2420 C   0  0  0  0  0  0  0  0  0  0  0  0
   18.6600  -34.7150   35.4260 O   0  0  0  0  0  0  0  0  0  0  0  0
   19.6970  -32.6930   36.2920 C   0  0  0  0  0  0  0  0  0  0  0  0
   19.3570  -33.0010   37.6810 C   0  0  0  0  0  0  0  0  0  0  0  0
   18.7500  -34.0240   37.9920 O   0  0  0  0  0  0  0  0  0  0  0  0
   19.7730  -32.0300   38.7200 C   0  0  0  0  0  0  0  0  0  0  0  0
   19.4580  -32.3360   40.0310 O   0  0  0  0  0  0  0  0  0  0  0  0
   22.2060  -29.9300   39.8210 C   0  0  0  0  0  0  0  0  0  0  0  0
   22.6250  -28.9590   40.7340 C   0  0  0  0  0  0  0  0  0  0  0  0
   21.7610  -27.9290   41.1450 C   0  0  0  0  0  0  0  0  0  0  0  0
   22.2520  -26.8950   42.1360 C   0  0  0  0  0  0  0  0  0  0  0  0
   21.4580  -26.8000   43.2390 F   0  0  0  0  0  0  0  0  0  0  0  0
   22.3140  -25.6330   41.6200 F   0  0  0  0  0  0  0  0  0  0  0  0
   23.5070  -27.1620   42.5970 F   0  0  0  0  0  0  0  0  0  0  0  0
   19.4226  -26.7571   42.1181 H   0  0  0  0  0  0  0  0  0  0  0  0
   19.8121  -25.8493   40.6178 H   0  0  0  0  0  0  0  0  0  0  0  0
   18.4810  -27.0555   40.6178 H   0  0  0  0  0  0  0  0  0  0  0  0
   19.0218  -28.8447   39.2994 H   0  0  0  0  0  0  0  0  0  0  0  0
   21.2919  -30.2571   34.5159 H   0  0  0  0  0  0  0  0  0  0  0  0
   20.6548  -31.7735   32.6384 H   0  0  0  0  0  0  0  0  0  0  0  0
   19.4048  -33.8835   33.1046 H   0  0  0  0  0  0  0  0  0  0  0  0
   18.9550  -35.3340   36.0640 H   0  0  0  0  0  0  0  0  0  0  0  0
   20.1300  -32.3430   40.6840 H   0  0  0  0  0  0  0  0  0  0  0  0
   22.8991  -30.7296   39.5204 H   0  0  0  0  0  0  0  0  0  0  0  0
   23.6474  -29.0011   41.1377 H   0  0  0  0  0  0  0  0  0  0  0  0
  1  2  1  0
  2  3  2  0
  3  4  1  0
  4  5  1  0
  5  6  1  0
  6  7  1  0
  7  8  2  0
  8  9  1  0
  9 10  2  0
 10 11  1  0
 11 12  1  0
 11 13  2  0
 13 14  1  0
 14 15  2  0
 14 16  1  0
 16 17  1  0
  4 18  2  0
 18 19  1  0
 19 20  2  0
 20 21  1  0
 21 22  1  0
 21 23  1  0
 21 24  1  0
 20  2  1  0
 16  5  2  0
 13  7  1  0
  1 25  1  0
  1 26  1  0
  1 27  1  0
  3 28  1  0
  8 29  1  0
  9 30  1  0
 10 31  1  0
 12 32  1  0
 17 33  1  0
 18 34  1  0
 19 35  1  0
M  END
>  <meeko>  (5) 
{"is_sidechain": [false], "free_energy": -9.024, "intermolecular_energy": -10.583, "internal_energy": -0.405}

$$$$
cand_003_out
     RDKit          3D

 35 37  0  0  0  0  0  0  0  0999 V2000
   22.5870  -28.6650   40.9190 C   0  0  0  0  0  0  0  0  0  0  0  0
   21.3530  -28.6450   40.0560 C   0  0  0  0  0  0  0  0  0  0  0  0
   21.3320  -29.4110   38.8760 C   0  0  0  0  0  0  0  0  0  0  0  0
   20.2050  -29.4410   38.0390 C   0  0  0  0  0  0  0  0  0  0  0  0
   20.2340  -30.2390   36.7950 C   0  0  0  0  0  0  0  0  0  0  0  0
   19.8410  -31.5580   36.9880 O   0  0  0  0  0  0  0  0  0  0  0  0
   19.8220  -32.4080   35.9130 C   0  0  0  0  0  0  0  0  0  0  0  0
   19.4340  -33.7270   36.1540 C   0  0  0  0  0  0  0  0  0  0  0  0
   19.3910  -34.6450   35.1030 C   0  0  0  0  0  0  0  0  0  0  0  0
   19.7350  -34.2440   33.8100 C   0  0  0  0  0  0  0  0  0  0  0  0
   20.1200  -32.9270   33.5710 C   0  0  0  0  0  0  0  0  0  0  0  0
   20.4410  -32.6020   32.2820 O   0  0  0  0  0  0  0  0  0  0  0  0
   20.1640  -32.0100   34.6240 C   0  0  0  0  0  0  0  0  0  0  0  0
   20.5630  -30.6180   34.4160 C   0  0  0  0  0  0  0  0  0  0  0  0
   20.8720  -30.1870   33.3070 O   0  0  0  0  0  0  0  0  0  0  0  0
   20.5840  -29.7260   35.6000 C   0  0  0  0  0  0  0  0  0  0  0  0
   20.9500  -28.4090   35.3910 O   0  0  0  0  0  0  0  0  0  0  0  0
   19.0920  -28.6720   38.3940 C   0  0  0  0  0  0  0  0  0  0  0  0
   19.0970  -27.9080   39.5640 C   0  0  0  0  0  0  0  0  0  0  0  0
   20.2180  -27.8850   40.4110 C   0  0  0  0  0  0  0  0  0  0  0  0
   20.1850  -27.0450   41.6700 C   0  0  0  0  0  0  0  0  0  0  0  0
   18.9690  -26.4720   41.8930 F   0  0  0  0  0  0  0  0  0  0  0  0
   21.0790  -26.0150   41.6630 F   0  0  0  0  0  0  0  0  0  0  0  0
   20.4710  -27.7680   42.7910 F   0  0  0  0  0  0  0  0  0  0  0  0
   22.2932  -28.6602   41.9790 H   0  0  0  0  0  0  0  0  0  0  0  0
   23.1700  -29.5727   40.7042 H   0  0  0  0  0  0  0  0  0  0  0  0
   23.1991  -27.7767   40.7042 H   0  0  0  0  0  0  0  0  0  0  0  0
   22.2196  -30.0004   38.6026 H   0  0  0  0  0  0  0  0  0  0  0  0
   19.1621  -34.0431   37.1719 H   0  0  0  0  0  0  0  0  0  0  0  0
   19.0861  -35.6846   35.2933 H   0  0  0  0  0  0  0  0  0  0  0  0
   19.7019  -34.9672   32.9818 H   0  0  0  0  0  0  0  0  0  0  0  0
   19.9260  -31.9740   31.8140 H   0  0  0  0  0  0  0  0  0  0  0  0
   20.4430  -27.7180   35.7690 H   0  0  0  0  0  0  0  0  0  0  0  0
   18.2035  -28.6686   37.7455 H   0  0  0  0  0  0  0  0  0  0  0  0
   18.2086  -27.3147   39.8263 H   0  0  0  0  0  0  0  0  0  0  0  0
  1  2  1  0
  2  3  2  0
  3  4  1  0
  4  5  1  0
  5  6  1  0
  6  7  1  0
  7  8  2  0
  8  9  1  0
  9 10  2  0
 10 11  1  0
 11 12  1  0
 11 13  2  0
 13 14  1  0
 14 15  2  0
 14 16  1  0
 16 17  1  0
  4 18  2  0
 18 19  1  0
 19 20  2  0
 20 21  1  0
 21 22  1  0
 21 23  1  0
 21 24  1  0
 20  2  1  0
 16  5  2  0
 13  7  1  0
  1 25  1  0
  1 26  1  0
  1 27  1  0
  3 28  1  0
  8 29  1  0
  9 30  1  0
 10 31  1  0
 12 32  1  0
 17 33  1  0
 18 34  1  0
 19 35  1  0
M  END
>  <meeko>  (6) 
{"is_sidechain": [false], "free_energy": -8.872, "intermolecular_energy": -10.405, "internal_energy": -0.405}

$$$$
cand_003_out
     RDKit          3D

 35 37  0  0  0  0  0  0  0  0999 V2000
   24.1720  -29.6610   42.3620 C   0  0  0  0  0  0  0  0  0  0  0  0
   23.1140  -28.6610   41.9760 C   0  0  0  0  0  0  0  0  0  0  0  0
   22.5740  -28.7040   40.6770 C   0  0  0  0  0  0  0  0  0  0  0  0
   21.5770  -27.8060   40.2660 C   0  0  0  0  0  0  0  0  0  0  0  0
   21.0550  -27.8680   38.8840 C   0  0  0  0  0  0  0  0  0  0  0  0
   21.1370  -29.1410   38.3310 O   0  0  0  0  0  0  0  0  0  0  0  0
   20.6870  -29.3380   37.0510 C   0  0  0  0  0  0  0  0  0  0  0  0
   20.8010  -30.6280   36.5300 C   0  0  0  0  0  0  0  0  0  0  0  0
   20.3590  -30.8980   35.2330 C   0  0  0  0  0  0  0  0  0  0  0  0
   19.8020  -29.8790   34.4570 C   0  0  0  0  0  0  0  0  0  0  0  0
   19.6880  -28.5930   34.9800 C   0  0  0  0  0  0  0  0  0  0  0  0
   19.1330  -27.6430   34.1670 O   0  0  0  0  0  0  0  0  0  0  0  0
   20.1320  -28.3230   36.2770 C   0  0  0  0  0  0  0  0  0  0  0  0
   20.0310  -26.9860   36.8630 C   0  0  0  0  0  0  0  0  0  0  0  0
   19.5470  -26.0390   36.2470 O   0  0  0  0  0  0  0  0  0  0  0  0
   20.5370  -26.8030   38.2440 C   0  0  0  0  0  0  0  0  0  0  0  0
   20.4250  -25.5390   38.7940 O   0  0  0  0  0  0  0  0  0  0  0  0
   21.1320  -26.8420   41.1760 C   0  0  0  0  0  0  0  0  0  0  0  0
   21.6560  -26.7890   42.4710 C   0  0  0  0  0  0  0  0  0  0  0  0
   22.6460  -27.6930   42.8900 C   0  0  0  0  0  0  0  0  0  0  0  0
   23.1890  -27.6040   44.3010 C   0  0  0  0  0  0  0  0  0  0  0  0
   24.5390  -27.4250   44.3390 F   0  0  0  0  0  0  0  0  0  0  0  0
   22.9470  -28.7190   45.0490 F   0  0  0  0  0  0  0  0  0  0  0  0
   22.6520  -26.5690   45.0070 F   0  0  0  0  0  0  0  0  0  0  0  0
   24.2364  -29.7219   43.4584 H   0  0  0  0  0  0  0  0  0  0  0  0
   23.9092  -30.6485   41.9547 H   0  0  0  0  0  0  0  0  0  0  0  0
   25.1431  -29.3430   41.9547 H   0  0  0  0  0  0  0  0  0  0  0  0
   22.9421  -29.4594   39.9671 H   0  0  0  0  0  0  0  0  0  0  0  0
   21.2387  -31.4314   37.1407 H   0  0  0  0  0  0  0  0  0  0  0  0
   20.4496  -31.9144   34.8221 H   0  0  0  0  0  0  0  0  0  0  0  0
   19.4542  -30.0915   33.4353 H   0  0  0  0  0  0  0  0  0  0  0  0
   19.6580  -27.2170   33.5170 H   0  0  0  0  0  0  0  0  0  0  0  0
   19.6010  -25.2480   39.1320 H   0  0  0  0  0  0  0  0  0  0  0  0
   20.3622  -26.1184   40.8699 H   0  0  0  0  0  0  0  0  0  0  0  0
   21.2870  -26.0270   43.1732 H   0  0  0  0  0  0  0  0  0  0  0  0
  1  2  1  0
  2  3  2  0
  3  4  1  0
  4  5  1  0
  5  6  1  0
  6  7  1  0
  7  8  2  0
  8  9  1  0
  9 10  2  0
 10 11  1  0
 11 12  1  0
 11 13  2  0
 13 14  1  0
 14 15  2  0
 14 16  1  0
 16 17  1  0
  4 18  2  0
 18 19  1  0
 19 20  2  0
 20 21  1  0
 21 22  1  0
 21 23  1  0
 21 24  1  0
 20  2  1  0
 16  5  2  0
 13  7  1  0
  1 25  1  0
  1 26  1  0
  1 27  1  0
  3 28  1  0
  8 29  1  0
  9 30  1  0
 10 31  1  0
 12 32  1  0
 17 33  1  0
 18 34  1  0
 19 35  1  0
M  END
>  <meeko>  (7) 
{"is_sidechain": [false], "free_energy": -8.536, "intermolecular_energy": -10.533, "internal_energy": 0.118}

$$$$
cand_003_out
     RDKit          3D

 35 37  0  0  0  0  0  0  0  0999 V2000
   24.6550  -30.4740   42.5130 C   0  0  0  0  0  0  0  0  0  0  0  0
   23.7140  -29.3830   42.0750 C   0  0  0  0  0  0  0  0  0  0  0  0
   23.0310  -29.5200   40.8510 C   0  0  0  0  0  0  0  0  0  0  0  0
   22.1340  -28.5410   40.3980 C   0  0  0  0  0  0  0  0  0  0  0  0
   21.4570  -28.7110   39.0950 C   0  0  0  0  0  0  0  0  0  0  0  0
   20.8350  -27.5490   38.6520 O   0  0  0  0  0  0  0  0  0  0  0  0
   20.1690  -27.5690   37.4540 C   0  0  0  0  0  0  0  0  0  0  0  0
   19.5470  -26.3850   37.0540 C   0  0  0  0  0  0  0  0  0  0  0  0
   18.8530  -26.3360   35.8430 C   0  0  0  0  0  0  0  0  0  0  0  0
   18.7830  -27.4700   35.0310 C   0  0  0  0  0  0  0  0  0  0  0  0
   19.4060  -28.6500   35.4300 C   0  0  0  0  0  0  0  0  0  0  0  0
   19.2990  -29.7210   34.5870 O   0  0  0  0  0  0  0  0  0  0  0  0
   20.0980  -28.6980   36.6440 C   0  0  0  0  0  0  0  0  0  0  0  0
   20.7660  -29.9170   37.1010 C   0  0  0  0  0  0  0  0  0  0  0  0
   20.7560  -30.9540   36.4390 O   0  0  0  0  0  0  0  0  0  0  0  0
   21.4670  -29.8670   38.4050 C   0  0  0  0  0  0  0  0  0  0  0  0
   22.1070  -31.0200   38.8220 O   0  0  0  0  0  0  0  0  0  0  0  0
   21.9370  -27.4020   41.1860 C   0  0  0  0  0  0  0  0  0  0  0  0
   22.6050  -27.2530   42.4040 C   0  0  0  0  0  0  0  0  0  0  0  0
   23.4960  -28.2360   42.8670 C   0  0  0  0  0  0  0  0  0  0  0  0
   24.2000  -28.0400   44.1930 C   0  0  0  0  0  0  0  0  0  0  0  0
   24.2180  -26.7380   44.5950 F   0  0  0  0  0  0  0  0  0  0  0  0
   25.5050  -28.4370   44.1800 F   0  0  0  0  0  0  0  0  0  0  0  0
   23.6160  -28.7380   45.2070 F   0  0  0  0  0  0  0  0  0  0  0  0
   24.6871  -30.5112   43.6119 H   0  0  0  0  0  0  0  0  0  0  0  0
   24.3025  -31.4405   42.1235 H   0  0  0  0  0  0  0  0  0  0  0  0
   25.6628  -30.2673   42.1235 H   0  0  0  0  0  0  0  0  0  0  0  0
   23.2049  -30.4153   40.2360 H   0  0  0  0  0  0  0  0  0  0  0  0
   19.6035  -25.4910   37.6924 H   0  0  0  0  0  0  0  0  0  0  0  0
   18.3612  -25.4036   35.5286 H   0  0  0  0  0  0  0  0  0  0  0  0
   18.2364  -27.4313   34.0772 H   0  0  0  0  0  0  0  0  0  0  0  0
   19.9500  -29.8670   33.9290 H   0  0  0  0  0  0  0  0  0  0  0  0
   22.0490  -31.8000   38.3060 H   0  0  0  0  0  0  0  0  0  0  0  0
   21.2489  -26.6154   40.8430 H   0  0  0  0  0  0  0  0  0  0  0  0
   22.4307  -26.3518   43.0102 H   0  0  0  0  0  0  0  0  0  0  0  0
  1  2  1  0
  2  3  2  0
  3  4  1  0
  4  5  1  0
  5  6  1  0
  6  7  1  0
  7  8  2  0
  8  9  1  0
  9 10  2  0
 10 11  1  0
 11 12  1  0
 11 13  2  0
 13 14  1  0
 14 15  2  0
 14 16  1  0
 16 17  1  0
  4 18  2  0
 18 19  1  0
 19 20  2  0
 20 21  1  0
 21 22  1  0
 21 23  1  0
 21 24  1  0
 20  2  1  0
 16  5  2  0
 13  7  1  0
  1 25  1  0
  1 26  1  0
  1 27  1  0
  3 28  1  0
  8 29  1  0
  9 30  1  0
 10 31  1  0
 12 32  1  0
 17 33  1  0
 18 34  1  0
 19 35  1  0
M  END
>  <meeko>  (8) 
{"is_sidechain": [false], "free_energy": -8.523, "intermolecular_energy": -10.811, "internal_energy": 0.412}

$$$$
cand_003_out
     RDKit          3D

 35 37  0  0  0  0  0  0  0  0999 V2000
   19.4370  -32.0630   38.5310 C   0  0  0  0  0  0  0  0  0  0  0  0
   20.3950  -30.9040   38.4480 C   0  0  0  0  0  0  0  0  0  0  0  0
   20.8390  -30.2970   39.6380 C   0  0  0  0  0  0  0  0  0  0  0  0
   21.7410  -29.2220   39.6220 C   0  0  0  0  0  0  0  0  0  0  0  0
   22.1620  -28.5970   40.8930 C   0  0  0  0  0  0  0  0  0  0  0  0
   21.3660  -27.5160   41.2550 O   0  0  0  0  0  0  0  0  0  0  0  0
   21.6480  -26.8440   42.4170 C   0  0  0  0  0  0  0  0  0  0  0  0
   20.8320  -25.7570   42.7340 C   0  0  0  0  0  0  0  0  0  0  0  0
   21.0640  -25.0300   43.9040 C   0  0  0  0  0  0  0  0  0  0  0  0
   22.1090  -25.3910   44.7560 C   0  0  0  0  0  0  0  0  0  0  0  0
   22.9210  -26.4770   44.4380 C   0  0  0  0  0  0  0  0  0  0  0  0
   23.9260  -26.7750   45.3170 O   0  0  0  0  0  0  0  0  0  0  0  0
   22.6900  -27.2020   43.2660 C   0  0  0  0  0  0  0  0  0  0  0  0
   23.5190  -28.3490   42.8950 C   0  0  0  0  0  0  0  0  0  0  0  0
   24.4530  -28.7330   43.5960 O   0  0  0  0  0  0  0  0  0  0  0  0
   23.1960  -29.0470   41.6290 C   0  0  0  0  0  0  0  0  0  0  0  0
   23.9770  -30.1380   41.2930 O   0  0  0  0  0  0  0  0  0  0  0  0
   22.1860  -28.7440   38.3850 C   0  0  0  0  0  0  0  0  0  0  0  0
   21.7550  -29.3380   37.1950 C   0  0  0  0  0  0  0  0  0  0  0  0
   20.8620  -30.4220   37.2070 C   0  0  0  0  0  0  0  0  0  0  0  0
   20.4200  -31.0390   35.8970 C   0  0  0  0  0  0  0  0  0  0  0  0
   19.3620  -30.3890   35.3360 F   0  0  0  0  0  0  0  0  0  0  0  0
   20.0300  -32.3410   36.0120 F   0  0  0  0  0  0  0  0  0  0  0  0
   21.4060  -31.0360   34.9550 F   0  0  0  0  0  0  0  0  0  0  0  0
   19.2402  -32.3011   39.5867 H   0  0  0  0  0  0  0  0  0  0  0  0
   18.4933  -31.7950   38.0334 H   0  0  0  0  0  0  0  0  0  0  0  0
   19.8778  -32.9394   38.0334 H   0  0  0  0  0  0  0  0  0  0  0  0
   20.4702  -30.6742   40.6032 H   0  0  0  0  0  0  0  0  0  0  0  0
   20.0074  -25.4732   42.0635 H   0  0  0  0  0  0  0  0  0  0  0  0
   20.4225  -24.1721   44.1541 H   0  0  0  0  0  0  0  0  0  0  0  0
   22.2910  -24.8185   45.6775 H   0  0  0  0  0  0  0  0  0  0  0  0
   24.4620  -27.5310   45.1760 H   0  0  0  0  0  0  0  0  0  0  0  0
   24.7050  -30.3750   41.8320 H   0  0  0  0  0  0  0  0  0  0  0  0
   22.8816  -27.8927   38.3482 H   0  0  0  0  0  0  0  0  0  0  0  0
   22.1214  -28.9499   36.2332 H   0  0  0  0  0  0  0  0  0  0  0  0
  1  2  1  0
  2  3  2  0
  3  4  1  0
  4  5  1  0
  5  6  1  0
  6  7  1  0
  7  8  2  0
  8  9  1  0
  9 10  2  0
 10 11  1  0
 11 12  1  0
 11 13  2  0
 13 14  1  0
 14 15  2  0
 14 16  1  0
 16 17  1  0
  4 18  2  0
 18 19  1  0
 19 20  2  0
 20 21  1  0
 21 22  1  0
 21 23  1  0
 21 24  1  0
 20  2  1  0
 16  5  2  0
 13  7  1  0
  1 25  1  0
  1 26  1  0
  1 27  1  0
  3 28  1  0
  8 29  1  0
  9 30  1  0
 10 31  1  0
 12 32  1  0
 17 33  1  0
 18 34  1  0
 19 35  1  0
M  END
>  <meeko>  (9) 
{"is_sidechain": [false], "free_energy": -8.504, "intermolecular_energy": -10.299, "internal_energy": -0.079}

$$$$
