cand_029_out
     RDKit          3D

 50 53  0  0  0  0  0  0  0  0999 V2000
   19.1420  -26.0050   40.2070 C   0  0  0  0  0  0  0  0  0  0  0  0
   19.4500  -27.0580   41.2610 C   0  0  0  0  0  0  0  0  0  0  0  0
   20.4560  -28.0760   40.7700 C   0  0  0  0  0  0  0  0  0  0  0  0
   20.0460  -29.0280   39.8160 C   0  0  0  0  0  0  0  0  0  0  0  0
   20.9220  -30.0130   39.3370 C   0  0  0  0  0  0  0  0  0  0  0  0
   20.4590  -30.9740   38.3140 C   0  0  0  0  0  0  0  0  0  0  0  0
   20.0600  -32.1910   38.8560 O   0  0  0  0  0  0  0  0  0  0  0  0
   19.6090  -33.1770   38.0170 C   0  0  0  0  0  0  0  0  0  0  0  0
   19.2080  -34.3760   38.6060 C   0  0  0  0  0  0  0  0  0  0  0  0
   18.7400  -35.4220   37.8080 C   0  0  0  0  0  0  0  0  0  0  0  0
   18.6740  -35.2690   36.4210 C   0  0  0  0  0  0  0  0  0  0  0  0
   19.0750  -34.0700   35.8360 C   0  0  0  0  0  0  0  0  0  0  0  0
   18.9840  -33.9880   34.4730 O   0  0  0  0  0  0  0  0  0  0  0  0
   19.5420  -33.0240   36.6360 C   0  0  0  0  0  0  0  0  0  0  0  0
   19.9740  -31.7490   36.0610 C   0  0  0  0  0  0  0  0  0  0  0  0
   19.9520  -31.5400   34.8500 O   0  0  0  0  0  0  0  0  0  0  0  0
   20.4470  -30.7020   36.9950 C   0  0  0  0  0  0  0  0  0  0  0  0
   20.8650  -29.5060   36.4400 O   0  0  0  0  0  0  0  0  0  0  0  0
   22.2330  -30.0220   39.8200 C   0  0  0  0  0  0  0  0  0  0  0  0
   22.6510  -29.0890   40.7730 C   0  0  0  0  0  0  0  0  0  0  0  0
   21.7740  -28.1120   41.2680 C   0  0  0  0  0  0  0  0  0  0  0  0
   22.1790  -27.1610   42.2290 N   0  0  0  0  0  0  0  0  0  0  0  0
   23.1170  -27.7000   43.2260 C   0  0  0  0  0  0  0  0  0  0  0  0
   23.2930  -26.6740   44.3470 C   0  0  0  0  0  0  0  0  0  0  0  0
   23.7500  -25.3260   43.7920 C   0  0  0  0  0  0  0  0  0  0  0  0
   22.8110  -24.8450   42.6860 C   0  0  0  0  0  0  0  0  0  0  0  0
   22.6360  -25.9100   41.6030 C   0  0  0  0  0  0  0  0  0  0  0  0
   18.8661  -25.0616   40.7009 H   0  0  0  0  0  0  0  0  0  0  0  0
   20.0306  -25.8439   39.5790 H   0  0  0  0  0  0  0  0  0  0  0  0
   18.3066  -26.3482   39.5790 H   0  0  0  0  0  0  0  0  0  0  0  0
   19.8566  -26.5590   42.1530 H   0  0  0  0  0  0  0  0  0  0  0  0
   18.5152  -27.5894   41.4929 H   0  0  0  0  0  0  0  0  0  0  0  0
   19.0136  -28.9981   39.4375 H   0  0  0  0  0  0  0  0  0  0  0  0
   19.2604  -34.4975   39.6980 H   0  0  0  0  0  0  0  0  0  0  0  0
   18.4229  -36.3676   38.2721 H   0  0  0  0  0  0  0  0  0  0  0  0
   18.3063  -36.0933   35.7923 H   0  0  0  0  0  0  0  0  0  0  0  0
   18.2910  -34.4300   34.0220 H   0  0  0  0  0  0  0  0  0  0  0  0
   20.3260  -28.7430   36.5110 H   0  0  0  0  0  0  0  0  0  0  0  0
   22.9448  -30.7725   39.4457 H   0  0  0  0  0  0  0  0  0  0  0  0
   23.6868  -29.1212   41.1418 H   0  0  0  0  0  0  0  0  0  0  0  0
   22.7160  -28.6361   43.6419 H   0  0  0  0  0  0  0  0  0  0  0  0
   24.0883  -27.9037   42.7517 H   0  0  0  0  0  0  0  0  0  0  0  0
   22.3327  -26.5416   44.8668 H   0  0  0  0  0  0  0  0  0  0  0  0
   24.0610  -27.0442   45.0420 H   0  0  0  0  0  0  0  0  0  0  0  0
   23.7576  -24.5855   44.6054 H   0  0  0  0  0  0  0  0  0  0  0  0
   24.7590  -25.4435   43.3700 H   0  0  0  0  0  0  0  0  0  0  0  0
   21.8287  -24.6154   43.1247 H   0  0  0  0  0  0  0  0  0  0  0  0
   23.2500  -23.9487   42.2235 H   0  0  0  0  0  0  0  0  0  0  0  0
   21.8896  -25.5707   40.8696 H   0  0  0  0  0  0  0  0  0  0  0  0
   23.5947  -26.0798   41.0911 H   0  0  0  0  0  0  0  0  0  0  0  0
  1  2  1  0
  2  3  1  0
  3  4  2  0
  4  5  1  0
  5  6  1  0
  6  7  1  0
  7  8  1  0
  8  9  2  0
  9 10  1  0
 10 11  2  0
 11 12  1  0
 12 13  1  0
 12 14  2  0
 14 15  1  0
 15 16  2  0
 15 17  1  0
 17 18  1  0
  5 19  2  0
 19 20  1  0
 20 21  2  0
 21 22  1  0
 22 23  1  0
 23 24  1  0
 24 25  1  0
 25 26  1  0
 26 27  1  0
 21  3  1  0
 27 22  1  0
 17  6  2  0
 14  8  1  0
  1 28  1  0
  1 29  1  0
  1 30  1  0
  2 31  1  0
  2 32  1  0
  4 33  1  0
  9 34  1  0
 10 35  1  0
 11 36  1  0
 13 37  1  0
 18 38  1  0
 19 39  1  0
 20 40  1  0
 23 41  1  0
 23 42  1  0
 24 43  1  0
 24 44  1  0
 25 45  1  0
 25 46  1  0
 26 47  1  0
 26 48  1  0
 27 49  1  0
 27 50  1  0
M  END
>  <meeko>  (1) 
{"is_sidechain": [false], "free_energy": -9.445, "intermolecular_energy": -11.653, "internal_energy": -0.783}

$$$$
cand_029_out
     RDKit          3D

 50 53  0  0  0  0  0  0  0  0999 V2000
   23.2370  -29.5500   41.1130 C   0  0  0  0  0  0  0  0  0  0  0  0
   22.4120  -28.2710   41.1210 C   0  0  0  0  0  0  0  0  0  0  0  0
   21.1240  -28.4220   40.3420 C   0  0  0  0  0  0  0  0  0  0  0  0
   20.9530  -29.5590   39.5280 C   0  0  0  0  0  0  0  0  0  0  0  0
   19.7930  -29.7480   38.7630 C   0  0  0  0  0  0  0  0  0  0  0  0
   19.6420  -30.9710   37.9460 C   0  0  0  0  0  0  0  0  0  0  0  0
   20.0880  -30.8060   36.6390 O   0  0  0  0  0  0  0  0  0  0  0  0
   20.0040  -31.8630   35.7700 C   0  0  0  0  0  0  0  0  0  0  0  0
   20.4750  -31.6570   34.4730 C   0  0  0  0  0  0  0  0  0  0  0  0
   20.4170  -32.6920   33.5380 C   0  0  0  0  0  0  0  0  0  0  0  0
   19.8870  -33.9320   33.8980 C   0  0  0  0  0  0  0  0  0  0  0  0
   19.4180  -34.1360   35.1940 C   0  0  0  0  0  0  0  0  0  0  0  0
   18.9120  -35.3750   35.4800 O   0  0  0  0  0  0  0  0  0  0  0  0
   19.4770  -33.1000   36.1290 C   0  0  0  0  0  0  0  0  0  0  0  0
   18.9940  -33.2710   37.5010 C   0  0  0  0  0  0  0  0  0  0  0  0
   18.5090  -34.3310   37.8920 O   0  0  0  0  0  0  0  0  0  0  0  0
   19.1080  -32.1130   38.4170 C   0  0  0  0  0  0  0  0  0  0  0  0
   18.6360  -32.2830   39.7060 O   0  0  0  0  0  0  0  0  0  0  0  0
   18.7880  -28.7790   38.8350 C   0  0  0  0  0  0  0  0  0  0  0  0
   18.9490  -27.6420   39.6320 C   0  0  0  0  0  0  0  0  0  0  0  0
   20.1140  -27.4400   40.3870 C   0  0  0  0  0  0  0  0  0  0  0  0
   20.2920  -26.2980   41.1980 N   0  0  0  0  0  0  0  0  0  0  0  0
   19.9250  -25.0420   40.5260 C   0  0  0  0  0  0  0  0  0  0  0  0
   20.3850  -23.8660   41.3900 C   0  0  0  0  0  0  0  0  0  0  0  0
   19.8060  -23.9580   42.8000 C   0  0  0  0  0  0  0  0  0  0  0  0
   20.1150  -25.3170   43.4290 C   0  0  0  0  0  0  0  0  0  0  0  0
   19.6700  -26.4640   42.5210 C   0  0  0  0  0  0  0  0  0  0  0  0
   23.4387  -29.8627   42.1481 H   0  0  0  0  0  0  0  0  0  0  0  0
   22.6795  -30.3427   40.5925 H   0  0  0  0  0  0  0  0  0  0  0  0
   24.1890  -29.3690   40.5925 H   0  0  0  0  0  0  0  0  0  0  0  0
   22.1690  -28.0117   42.1620 H   0  0  0  0  0  0  0  0  0  0  0  0
   23.0076  -27.4797   40.6423 H   0  0  0  0  0  0  0  0  0  0  0  0
   21.7490  -30.3173   39.4916 H   0  0  0  0  0  0  0  0  0  0  0  0
   20.8917  -30.6799   34.1874 H   0  0  0  0  0  0  0  0  0  0  0  0
   20.7896  -32.5300   32.5158 H   0  0  0  0  0  0  0  0  0  0  0  0
   19.8397  -34.7464   33.1601 H   0  0  0  0  0  0  0  0  0  0  0  0
   18.9720  -35.7160   36.3500 H   0  0  0  0  0  0  0  0  0  0  0  0
   17.7570  -32.5740   39.8480 H   0  0  0  0  0  0  0  0  0  0  0  0
   17.8608  -28.9127   38.2584 H   0  0  0  0  0  0  0  0  0  0  0  0
   18.1463  -26.8907   39.6679 H   0  0  0  0  0  0  0  0  0  0  0  0
   20.4156  -24.9921   39.5427 H   0  0  0  0  0  0  0  0  0  0  0  0
   18.8348  -24.9983   40.3863 H   0  0  0  0  0  0  0  0  0  0  0  0
   21.4832  -23.8739   41.4517 H   0  0  0  0  0  0  0  0  0  0  0  0
   20.0296  -22.9334   40.9273 H   0  0  0  0  0  0  0  0  0  0  0  0
   20.2457  -23.1647   43.4224 H   0  0  0  0  0  0  0  0  0  0  0  0
   18.7142  -23.8385   42.7401 H   0  0  0  0  0  0  0  0  0  0  0  0
   21.1989  -25.3948   43.5993 H   0  0  0  0  0  0  0  0  0  0  0  0
   19.5652  -25.3929   44.3787 H   0  0  0  0  0  0  0  0  0  0  0  0
   19.9840  -27.4233   42.9582 H   0  0  0  0  0  0  0  0  0  0  0  0
   18.5747  -26.4540   42.4201 H   0  0  0  0  0  0  0  0  0  0  0  0
  1  2  1  0
  2  3  1  0
  3  4  2  0
  4  5  1  0
  5  6  1  0
  6  7  1  0
  7  8  1  0
  8  9  2  0
  9 10  1  0
 10 11  2  0
 11 12  1  0
 12 13  1  0
 12 14  2  0
 14 15  1  0
 15 16  2  0
 15 17  1  0
 17 18  1  0
  5 19  2  0
 19 20  1  0
 20 21  2  0
 21 22  1  0
 22 23  1  0
 23 24  1  0
 24 25  1  0
 25 26  1  0
 26 27  1  0
 21  3  1  0
 27 22  1  0
 17  6  2  0
 14  8  1  0
  1 28  1  0
  1 29  1  0
  1 30  1  0
  2 31  1  0
  2 32  1  0
  4 33  1  0
  9 34  1  0
 10 35  1  0
 11 36  1  0
 13 37  1  0
 18 38  1  0
 19 39  1  0
 20 40  1  0
 23 41  1  0
 23 42  1  0
 24 43  1  0
 24 44  1  0
 25 45  1  0
 25 46  1  0
 26 47  1  0
 26 48  1  0
 27 49  1  0
 27 50  1  0
M  END
>  <meeko>  (2) 
{"is_sidechain": [false], "free_energy": -9.289, "intermolecular_energy": -11.43, "internal_energy": -0.815}

$$$$
cand_029_out
     RDKit          3D

 50 53  0  0  0  0  0  0  0  0999 V2000
   23.8130  -30.2020   41.9630 C   0  0  0  0  0  0  0  0  0  0  0  0
   23.4450  -28.7710   41.6030 C   0  0  0  0  0  0  0  0  0  0  0  0
   22.0970  -28.6850   40.9230 C   0  0  0  0  0  0  0  0  0  0  0  0
   21.7010  -29.7340   40.0690 C   0  0  0  0  0  0  0  0  0  0  0  0
   20.4750  -29.7050   39.3890 C   0  0  0  0  0  0  0  0  0  0  0  0
   20.0860  -30.8400   38.5250 C   0  0  0  0  0  0  0  0  0  0  0  0
   19.6970  -31.9620   39.2490 O   0  0  0  0  0  0  0  0  0  0  0  0
   19.3120  -33.0900   38.5720 C   0  0  0  0  0  0  0  0  0  0  0  0
   18.9180  -34.1870   39.3390 C   0  0  0  0  0  0  0  0  0  0  0  0
   18.5160  -35.3670   38.7110 C   0  0  0  0  0  0  0  0  0  0  0  0
   18.5080  -35.4510   37.3170 C   0  0  0  0  0  0  0  0  0  0  0  0
   18.9010  -34.3540   36.5540 C   0  0  0  0  0  0  0  0  0  0  0  0
   18.8700  -34.5060   35.1940 O   0  0  0  0  0  0  0  0  0  0  0  0
   19.3030  -33.1740   37.1830 C   0  0  0  0  0  0  0  0  0  0  0  0
   19.7240  -31.9980   36.4190 C   0  0  0  0  0  0  0  0  0  0  0  0
   19.7500  -31.9960   35.1890 O   0  0  0  0  0  0  0  0  0  0  0  0
   20.1260  -30.7930   37.1810 C   0  0  0  0  0  0  0  0  0  0  0  0
   20.5340  -29.6940   36.4480 O   0  0  0  0  0  0  0  0  0  0  0  0
   19.6330  -28.6080   39.5900 C   0  0  0  0  0  0  0  0  0  0  0  0
   20.0170  -27.5570   40.4270 C   0  0  0  0  0  0  0  0  0  0  0  0
   21.2500  -27.5720   41.0970 C   0  0  0  0  0  0  0  0  0  0  0  0
   21.6530  -26.5200   41.9480 N   0  0  0  0  0  0  0  0  0  0  0  0
   21.1190  -25.2090   41.5490 C   0  0  0  0  0  0  0  0  0  0  0  0
   21.8070  -24.1210   42.3750 C   0  0  0  0  0  0  0  0  0  0  0  0
   21.6460  -24.3810   43.8720 C   0  0  0  0  0  0  0  0  0  0  0  0
   22.1120  -25.7900   44.2340 C   0  0  0  0  0  0  0  0  0  0  0  0
   21.4260  -26.8450   43.3650 C   0  0  0  0  0  0  0  0  0  0  0  0
   23.8406  -30.3093   43.0574 H   0  0  0  0  0  0  0  0  0  0  0  0
   23.0625  -30.8896   41.5460 H   0  0  0  0  0  0  0  0  0  0  0  0
   24.8021  -30.4422   41.5460 H   0  0  0  0  0  0  0  0  0  0  0  0
   23.4171  -28.1695   42.5235 H   0  0  0  0  0  0  0  0  0  0  0  0
   24.2032  -28.3920   40.9019 H   0  0  0  0  0  0  0  0  0  0  0  0
   22.3700  -30.5965   39.9326 H   0  0  0  0  0  0  0  0  0  0  0  0
   18.9242  -34.1220   40.4371 H   0  0  0  0  0  0  0  0  0  0  0  0
   18.2050  -36.2321   39.3150 H   0  0  0  0  0  0  0  0  0  0  0  0
   18.1920  -36.3815   36.8227 H   0  0  0  0  0  0  0  0  0  0  0  0
   18.6240  -35.3280   34.8200 H   0  0  0  0  0  0  0  0  0  0  0  0
   21.0450  -29.8120   35.6710 H   0  0  0  0  0  0  0  0  0  0  0  0
   18.6571  -28.5714   39.0837 H   0  0  0  0  0  0  0  0  0  0  0  0
   19.3396  -26.7011   40.5634 H   0  0  0  0  0  0  0  0  0  0  0  0
   21.3152  -25.0403   40.4799 H   0  0  0  0  0  0  0  0  0  0  0  0
   20.0335  -25.1797   41.7249 H   0  0  0  0  0  0  0  0  0  0  0  0
   22.8784  -24.1051   42.1265 H   0  0  0  0  0  0  0  0  0  0  0  0
   21.3399  -23.1541   42.1366 H   0  0  0  0  0  0  0  0  0  0  0  0
   22.2463  -23.6484   44.4313 H   0  0  0  0  0  0  0  0  0  0  0  0
   20.5817  -24.2851   44.1328 H   0  0  0  0  0  0  0  0  0  0  0  0
   23.1999  -25.8563   44.0856 H   0  0  0  0  0  0  0  0  0  0  0  0
   21.8489  -25.9824   45.2846 H   0  0  0  0  0  0  0  0  0  0  0  0
   21.8466  -27.8367   43.5879 H   0  0  0  0  0  0  0  0  0  0  0  0
   20.3464  -26.8551   43.5756 H   0  0  0  0  0  0  0  0  0  0  0  0
  1  2  1  0
  2  3  1  0
  3  4  2  0
  4  5  1  0
  5  6  1  0
  6  7  1  0
  7  8  1  0
  8  9  2  0
  9 10  1  0
 10 11  2  0
 11 12  1  0
 12 13  1  0
 12 14  2  0
 14 15  1  0
 15 16  2  0
 15 17  1  0
 17 18  1  0
  5 19  2  0
 19 20  1  0
 20 21  2  0
 21 22  1  0
 22 23  1  0
 23 24  1  0
 24 25  1  0
 25 26  1  0
 26 27  1  0
 21  3  1  0
 27 22  1  0
 17  6  2  0
 14  8  1  0
  1 28  1  0
  1 29  1  0
  1 30  1  0
  2 31  1  0
  2 32  1  0
  4 33  1  0
  9 34  1  0
 10 35  1  0
 11 36  1  0
 13 37  1  0
 18 38  1  0
 19 39  1  0
 20 40  1  0
 23 41  1  0
 23 42  1  0
 24 43  1  0
 24 44  1  0
 25 45  1  0
 25 46  1  0
 26 47  1  0
 26 48  1  0
 27 49  1  0
 27 50  1  0
M  END
>  <meeko>  (3) 
{"is_sidechain": [false], "free_energy": -9.267, "intermolecular_energy": -11.588, "internal_energy": -0.629}

$$$$
cand_029_out
     RDKit          3D

 50 53  0  0  0  0  0  0  0  0999 V2000
   17.4680  -26.6530   38.5520 C   0  0  0  0  0  0  0  0  0  0  0  0
   18.5100  -26.4500   39.6420 C   0  0  0  0  0  0  0  0  0  0  0  0
   19.5130  -27.5820   39.6860 C   0  0  0  0  0  0  0  0  0  0  0  0
   19.3000  -28.7090   38.8680 C   0  0  0  0  0  0  0  0  0  0  0  0
   20.1790  -29.8020   38.8790 C   0  0  0  0  0  0  0  0  0  0  0  0
   19.9330  -30.9520   37.9830 C   0  0  0  0  0  0  0  0  0  0  0  0
   20.3200  -30.7070   36.6700 O   0  0  0  0  0  0  0  0  0  0  0  0
   20.1470  -31.6910   35.7310 C   0  0  0  0  0  0  0  0  0  0  0  0
   20.5610  -31.4050   34.4300 C   0  0  0  0  0  0  0  0  0  0  0  0
   20.4110  -32.3630   33.4250 C   0  0  0  0  0  0  0  0  0  0  0  0
   19.8470  -33.6060   33.7210 C   0  0  0  0  0  0  0  0  0  0  0  0
   19.4340  -33.8880   35.0220 C   0  0  0  0  0  0  0  0  0  0  0  0
   18.8900  -35.1240   35.2410 O   0  0  0  0  0  0  0  0  0  0  0  0
   19.5860  -32.9290   36.0260 C   0  0  0  0  0  0  0  0  0  0  0  0
   19.1650  -33.1840   37.4050 C   0  0  0  0  0  0  0  0  0  0  0  0
   18.6540  -34.2510   37.7420 O   0  0  0  0  0  0  0  0  0  0  0  0
   19.3740  -32.1050   38.3970 C   0  0  0  0  0  0  0  0  0  0  0  0
   18.9610  -32.3520   39.6930 O   0  0  0  0  0  0  0  0  0  0  0  0
   21.2950  -29.7440   39.7170 C   0  0  0  0  0  0  0  0  0  0  0  0
   21.5140  -28.6350   40.5400 C   0  0  0  0  0  0  0  0  0  0  0  0
   20.6290  -27.5470   40.5450 C   0  0  0  0  0  0  0  0  0  0  0  0
   20.8360  -26.4190   41.3690 N   0  0  0  0  0  0  0  0  0  0  0  0
   20.0530  -26.4520   42.6140 C   0  0  0  0  0  0  0  0  0  0  0  0
   20.1580  -25.0900   43.3020 C   0  0  0  0  0  0  0  0  0  0  0  0
   21.6170  -24.7060   43.5450 C   0  0  0  0  0  0  0  0  0  0  0  0
   22.4240  -24.7840   42.2510 C   0  0  0  0  0  0  0  0  0  0  0  0
   22.2670  -26.1480   41.5770 C   0  0  0  0  0  0  0  0  0  0  0  0
   16.4877  -26.8440   39.0129 H   0  0  0  0  0  0  0  0  0  0  0  0
   17.4098  -25.7493   37.9275 H   0  0  0  0  0  0  0  0  0  0  0  0
   17.7533  -27.5125   37.9275 H   0  0  0  0  0  0  0  0  0  0  0  0
   19.0455  -25.5084   39.4503 H   0  0  0  0  0  0  0  0  0  0  0  0
   17.9878  -26.4212   40.6097 H   0  0  0  0  0  0  0  0  0  0  0  0
   18.4230  -28.7324   38.2045 H   0  0  0  0  0  0  0  0  0  0  0  0
   21.0050  -30.4262   34.1960 H   0  0  0  0  0  0  0  0  0  0  0  0
   20.7375  -32.1383   32.3989 H   0  0  0  0  0  0  0  0  0  0  0  0
   19.7290  -34.3605   32.9293 H   0  0  0  0  0  0  0  0  0  0  0  0
   18.3670  -35.2770   36.0040 H   0  0  0  0  0  0  0  0  0  0  0  0
   18.0500  -32.4750   39.8780 H   0  0  0  0  0  0  0  0  0  0  0  0
   22.0096  -30.5802   39.7296 H   0  0  0  0  0  0  0  0  0  0  0  0
   22.3969  -28.6155   41.1958 H   0  0  0  0  0  0  0  0  0  0  0  0
   18.9997  -26.6682   42.3821 H   0  0  0  0  0  0  0  0  0  0  0  0
   20.4435  -27.2364   43.2790 H   0  0  0  0  0  0  0  0  0  0  0  0
   19.6878  -24.3279   42.6632 H   0  0  0  0  0  0  0  0  0  0  0  0
   19.6465  -25.1498   44.2740 H   0  0  0  0  0  0  0  0  0  0  0  0
   21.6588  -23.6779   43.9340 H   0  0  0  0  0  0  0  0  0  0  0  0
   22.0492  -25.4097   44.2716 H   0  0  0  0  0  0  0  0  0  0  0  0
   22.0724  -24.0018   41.5622 H   0  0  0  0  0  0  0  0  0  0  0  0
   23.4865  -24.6392   42.4962 H   0  0  0  0  0  0  0  0  0  0  0  0
   22.7857  -26.1417   40.6070 H   0  0  0  0  0  0  0  0  0  0  0  0
   22.7038  -26.9299   42.2156 H   0  0  0  0  0  0  0  0  0  0  0  0
  1  2  1  0
  2  3  1  0
  3  4  2  0
  4  5  1  0
  5  6  1  0
  6  7  1  0
  7  8  1  0
  8  9  2  0
  9 10  1  0
 10 11  2  0
 11 12  1  0
 12 13  1  0
 12 14  2  0
 14 15  1  0
 15 16  2  0
 15 17  1  0
 17 18  1  0
  5 19  2  0
 19 20  1  0
 20 21  2  0
 21 22  1  0
 22 23  1  0
 23 24  1  0
 24 25  1  0
 25 26  1  0
 26 27  1  0
 21  3  1  0
 27 22  1  0
 17  6  2  0
 14  8  1  0
  1 28  1  0
  1 29  1  0
  1 30  1  0
  2 31  1  0
  2 32  1  0
  4 33  1  0
  9 34  1  0
 10 35  1  0
 11 36  1  0
 13 37  1  0
 18 38  1  0
 19 39  1  0
 20 40  1  0
 23 41  1  0
 23 42  1  0
 24 43  1  0
 24 44  1  0
 25 45  1  0
 25 46  1  0
 26 47  1  0
 26 48  1  0
 27 49  1  0
 27 50  1  0
M  END
>  <meeko>  (4) 
{"is_sidechain": [false], "free_energy": -9.038, "intermolecular_energy": -11.257, "internal_energy": -0.678}

$$$$
cand_029_out
     RDKit          3D

 50 53  0  0  0  0  0  0  0  0999 V2000
   23.5040  -28.6930   42.3230 C   0  0  0  0  0  0  0  0  0  0  0  0
   22.7340  -27.3820   42.3810 C   0  0  0  0  0  0  0  0  0  0  0  0
   21.5130  -27.4010   41.4880 C   0  0  0  0  0  0  0  0  0  0  0  0
   21.3510  -28.4690   40.5840 C   0  0  0  0  0  0  0  0  0  0  0  0
   20.2540  -28.5340   39.7120 C   0  0  0  0  0  0  0  0  0  0  0  0
   20.1070  -29.6880   38.8000 C   0  0  0  0  0  0  0  0  0  0  0  0
   19.4340  -30.7550   39.3830 O   0  0  0  0  0  0  0  0  0  0  0  0
   19.2290  -31.8940   38.6460 C   0  0  0  0  0  0  0  0  0  0  0  0
   18.5370  -32.9350   39.2670 C   0  0  0  0  0  0  0  0  0  0  0  0
   18.2970  -34.1220   38.5740 C   0  0  0  0  0  0  0  0  0  0  0  0
   18.7480  -34.2700   37.2610 C   0  0  0  0  0  0  0  0  0  0  0  0
   19.4380  -33.2290   36.6430 C   0  0  0  0  0  0  0  0  0  0  0  0
   19.8520  -33.4410   35.3560 O   0  0  0  0  0  0  0  0  0  0  0  0
   19.6770  -32.0410   37.3380 C   0  0  0  0  0  0  0  0  0  0  0  0
   20.3990  -30.9230   36.7270 C   0  0  0  0  0  0  0  0  0  0  0  0
   20.8330  -30.9790   35.5770 O   0  0  0  0  0  0  0  0  0  0  0  0
   20.5950  -29.7050   37.5450 C   0  0  0  0  0  0  0  0  0  0  0  0
   21.2900  -28.6610   36.9620 O   0  0  0  0  0  0  0  0  0  0  0  0
   19.3030  -27.5120   39.7690 C   0  0  0  0  0  0  0  0  0  0  0  0
   19.4560  -26.4420   40.6550 C   0  0  0  0  0  0  0  0  0  0  0  0
   20.5600  -26.3630   41.5180 C   0  0  0  0  0  0  0  0  0  0  0  0
   20.7290  -25.2910   42.4200 N   0  0  0  0  0  0  0  0  0  0  0  0
   20.8270  -23.9800   41.7590 C   0  0  0  0  0  0  0  0  0  0  0  0
   21.2530  -22.9350   42.7910 C   0  0  0  0  0  0  0  0  0  0  0  0
   20.2950  -22.9130   43.9810 C   0  0  0  0  0  0  0  0  0  0  0  0
   20.1350  -24.3100   44.5780 C   0  0  0  0  0  0  0  0  0  0  0  0
   19.7410  -25.3310   43.5100 C   0  0  0  0  0  0  0  0  0  0  0  0
   23.7096  -29.0430   43.3454 H   0  0  0  0  0  0  0  0  0  0  0  0
   22.9051  -29.4468   41.7909 H   0  0  0  0  0  0  0  0  0  0  0  0
   24.4540  -28.5370   41.7909 H   0  0  0  0  0  0  0  0  0  0  0  0
   22.4127  -27.2046   43.4180 H   0  0  0  0  0  0  0  0  0  0  0  0
   23.4003  -26.5811   42.0280 H   0  0  0  0  0  0  0  0  0  0  0  0
   22.1029  -29.2716   40.5612 H   0  0  0  0  0  0  0  0  0  0  0  0
   18.1813  -32.8198   40.3015 H   0  0  0  0  0  0  0  0  0  0  0  0
   17.7515  -34.9426   39.0630 H   0  0  0  0  0  0  0  0  0  0  0  0
   18.5590  -35.2064   36.7155 H   0  0  0  0  0  0  0  0  0  0  0  0
   19.7890  -34.2960   34.9780 H   0  0  0  0  0  0  0  0  0  0  0  0
   20.9950  -28.2990   36.1490 H   0  0  0  0  0  0  0  0  0  0  0  0
   18.4238  -27.5500   39.1090 H   0  0  0  0  0  0  0  0  0  0  0  0
   18.6966  -25.6465   40.6764 H   0  0  0  0  0  0  0  0  0  0  0  0
   21.5735  -24.0281   40.9525 H   0  0  0  0  0  0  0  0  0  0  0  0
   19.8518  -23.7048   41.3310 H   0  0  0  0  0  0  0  0  0  0  0  0
   22.2649  -23.1757   43.1491 H   0  0  0  0  0  0  0  0  0  0  0  0
   21.2371  -21.9449   42.3120 H   0  0  0  0  0  0  0  0  0  0  0  0
   20.6928  -22.2357   44.7511 H   0  0  0  0  0  0  0  0  0  0  0  0
   19.3112  -22.5645   43.6337 H   0  0  0  0  0  0  0  0  0  0  0  0
   21.0889  -24.6167   45.0318 H   0  0  0  0  0  0  0  0  0  0  0  0
   19.3369  -24.2742   45.3341 H   0  0  0  0  0  0  0  0  0  0  0  0
   19.7207  -26.3379   43.9523 H   0  0  0  0  0  0  0  0  0  0  0  0
   18.7430  -25.0893   43.1155 H   0  0  0  0  0  0  0  0  0  0  0  0
  1  2  1  0
  2  3  1  0
  3  4  2  0
  4  5  1  0
  5  6  1  0
  6  7  1  0
  7  8  1  0
  8  9  2  0
  9 10  1  0
 10 11  2  0
 11 12  1  0
 12 13  1  0
 12 14  2  0
 14 15  1  0
 15 16  2  0
 15 17  1  0
 17 18  1  0
  5 19  2  0
 19 20  1  0
 20 21  2  0
 21 22  1  0
 22 23  1  0
 23 24  1  0
 24 25  1  0
 25 26  1  0
 26 27  1  0
 21  3  1  0
 27 22  1  0
 17  6  2  0
 14  8  1  0
  1 28  1  0
  1 29  1  0
  1 30  1  0
  2 31  1  0
  2 32  1  0
  4 33  1  0
  9 34  1  0
 10 35  1  0
 11 36  1  0
 13 37  1  0
 18 38  1  0
 19 39  1  0
 20 40  1  0
 23 41  1  0
 23 42  1  0
 24 43  1  0
 24 44  1  0
 25 45  1  0
 25 46  1  0
 26 47  1  0
 26 48  1  0
 27 49  1  0
 27 50  1  0
M  END
>  <meeko>  (5) 
{"is_sidechain": [false], "free_energy": -8.877, "intermolecular_energy": -10.871, "internal_energy": -0.866}

$$$$
cand_029_out
     RDKit          3D

 50 53  0  0  0  0  0  0  0  0999 V2000
   19.5350  -32.6410   39.1570 C   0  0  0  0  0  0  0  0  0  0  0  0
   19.5820  -31.9590   37.7980 C   0  0  0  0  0  0  0  0  0  0  0  0
   20.3940  -30.6830   37.8310 C   0  0  0  0  0  0  0  0  0  0  0  0
   20.9220  -30.2470   39.0630 C   0  0  0  0  0  0  0  0  0  0  0  0
   21.6630  -29.0600   39.1670 C   0  0  0  0  0  0  0  0  0  0  0  0
   22.2240  -28.6550   40.4730 C   0  0  0  0  0  0  0  0  0  0  0  0
   23.1440  -29.5690   40.9730 O   0  0  0  0  0  0  0  0  0  0  0  0
   23.7420  -29.3170   42.1810 C   0  0  0  0  0  0  0  0  0  0  0  0
   24.6680  -30.2550   42.6380 C   0  0  0  0  0  0  0  0  0  0  0  0
   25.3110  -30.0600   43.8620 C   0  0  0  0  0  0  0  0  0  0  0  0
   25.0270  -28.9280   44.6290 C   0  0  0  0  0  0  0  0  0  0  0  0
   24.1020  -27.9930   44.1700 C   0  0  0  0  0  0  0  0  0  0  0  0
   23.8720  -26.9080   44.9720 O   0  0  0  0  0  0  0  0  0  0  0  0
   23.4600  -28.1890   42.9450 C   0  0  0  0  0  0  0  0  0  0  0  0
   22.4810  -27.2320   42.4270 C   0  0  0  0  0  0  0  0  0  0  0  0
   22.1740  -26.2150   43.0460 O   0  0  0  0  0  0  0  0  0  0  0  0
   21.8610  -27.5290   41.1150 C   0  0  0  0  0  0  0  0  0  0  0  0
   20.9280  -26.6250   40.6420 O   0  0  0  0  0  0  0  0  0  0  0  0
   21.8850  -28.3160   38.0040 C   0  0  0  0  0  0  0  0  0  0  0  0
   21.3590  -28.7330   36.7780 C   0  0  0  0  0  0  0  0  0  0  0  0
   20.6030  -29.9100   36.6720 C   0  0  0  0  0  0  0  0  0  0  0  0
   20.0670  -30.3460   35.4410 N   0  0  0  0  0  0  0  0  0  0  0  0
   19.6400  -29.2430   34.5660 C   0  0  0  0  0  0  0  0  0  0  0  0
   18.8570  -29.8220   33.3850 C   0  0  0  0  0  0  0  0  0  0  0  0
   19.6820  -30.8670   32.6370 C   0  0  0  0  0  0  0  0  0  0  0  0
   20.1980  -31.9410   33.5940 C   0  0  0  0  0  0  0  0  0  0  0  0
   20.9460  -31.3210   34.7760 C   0  0  0  0  0  0  0  0  0  0  0  0
   19.5874  -31.8811   39.9506 H   0  0  0  0  0  0  0  0  0  0  0  0
   18.5958  -33.2058   39.2515 H   0  0  0  0  0  0  0  0  0  0  0  0
   20.3878  -33.3293   39.2515 H   0  0  0  0  0  0  0  0  0  0  0  0
   20.0342  -32.6488   37.0702 H   0  0  0  0  0  0  0  0  0  0  0  0
   18.5519  -31.6985   37.5132 H   0  0  0  0  0  0  0  0  0  0  0  0
   20.7489  -30.8522   39.9651 H   0  0  0  0  0  0  0  0  0  0  0  0
   24.8914  -31.1473   42.0347 H   0  0  0  0  0  0  0  0  0  0  0  0
   26.0420  -30.7987   44.2225 H   0  0  0  0  0  0  0  0  0  0  0  0
   25.5328  -28.7750   45.5938 H   0  0  0  0  0  0  0  0  0  0  0  0
   24.3030  -26.0950   44.7950 H   0  0  0  0  0  0  0  0  0  0  0  0
   20.4360  -26.8210   39.8690 H   0  0  0  0  0  0  0  0  0  0  0  0
   22.4802  -27.3923   38.0546 H   0  0  0  0  0  0  0  0  0  0  0  0
   21.5414  -28.1264   35.8787 H   0  0  0  0  0  0  0  0  0  0  0  0
   18.9982  -28.5508   35.1308 H   0  0  0  0  0  0  0  0  0  0  0  0
   20.5210  -28.6971   34.1975 H   0  0  0  0  0  0  0  0  0  0  0  0
   17.9365  -30.2927   33.7606 H   0  0  0  0  0  0  0  0  0  0  0  0
   18.6174  -29.0036   32.6901 H   0  0  0  0  0  0  0  0  0  0  0  0
   19.0526  -31.3409   31.8693 H   0  0  0  0  0  0  0  0  0  0  0  0
   20.5443  -30.3670   32.1717 H   0  0  0  0  0  0  0  0  0  0  0  0
   19.3446  -32.5213   33.9748 H   0  0  0  0  0  0  0  0  0  0  0  0
   20.8957  -32.5894   33.0438 H   0  0  0  0  0  0  0  0  0  0  0  0
   21.2277  -32.1099   35.4889 H   0  0  0  0  0  0  0  0  0  0  0  0
   21.8556  -30.8171   34.4172 H   0  0  0  0  0  0  0  0  0  0  0  0
  1  2  1  0
  2  3  1  0
  3  4  2  0
  4  5  1  0
  5  6  1  0
  6  7  1  0
  7  8  1  0
  8  9  2  0
  9 10  1  0
 10 11  2  0
 11 12  1  0
 12 13  1  0
 12 14  2  0
 14 15  1  0
 15 16  2  0
 15 17  1  0
 17 18  1  0
  5 19  2  0
 19 20  1  0
 20 21  2  0
 21 22  1  0
 22 23  1  0
 23 24  1  0
 24 25  1  0
 25 26  1  0
 26 27  1  0
 21  3  1  0
 27 22  1  0
 17  6  2  0
 14  8  1  0
  1 28  1  0
  1 29  1  0
  1 30  1  0
  2 31  1  0
  2 32  1  0
  4 33  1  0
  9 34  1  0
 10 35  1  0
 11 36  1  0
 13 37  1  0
 18 38  1  0
 19 39  1  0
 20 40  1  0
 23 41  1  0
 23 42  1  0
 24 43  1  0
 24 44  1  0
 25 45  1  0
 25 46  1  0
 26 47  1  0
 26 48  1  0
 27 49  1  0
 27 50  1  0
M  END
>  <meeko>  (6) 
{"is_sidechain": [false], "free_energy": -8.819, "intermolecular_energy": -11.056, "internal_energy": -0.609}

$$$$
cand_029_out
     RDKit          3D

 50 53  0  0  0  0  0  0  0  0999 V2000
   18.9620  -32.9310   40.1130 C   0  0  0  0  0  0  0  0  0  0  0  0
   18.5540  -32.1410   38.8790 C   0  0  0  0  0  0  0  0  0  0  0  0
   19.6220  -31.1580   38.4550 C   0  0  0  0  0  0  0  0  0  0  0  0
   20.0590  -30.1900   39.3810 C   0  0  0  0  0  0  0  0  0  0  0  0
   21.0290  -29.2350   39.0450 C   0  0  0  0  0  0  0  0  0  0  0  0
   21.4800  -28.2560   40.0560 C   0  0  0  0  0  0  0  0  0  0  0  0
   22.3780  -28.7970   40.9690 O   0  0  0  0  0  0  0  0  0  0  0  0
   22.8770  -27.9970   41.9660 C   0  0  0  0  0  0  0  0  0  0  0  0
   23.7840  -28.5790   42.8510 C   0  0  0  0  0  0  0  0  0  0  0  0
   24.3280  -27.8200   43.8890 C   0  0  0  0  0  0  0  0  0  0  0  0
   23.9640  -26.4810   44.0430 C   0  0  0  0  0  0  0  0  0  0  0  0
   23.0570  -25.9020   43.1570 C   0  0  0  0  0  0  0  0  0  0  0  0
   22.7450  -24.5870   43.3650 O   0  0  0  0  0  0  0  0  0  0  0  0
   22.5140  -26.6620   42.1180 C   0  0  0  0  0  0  0  0  0  0  0  0
   21.5580  -26.0940   41.1660 C   0  0  0  0  0  0  0  0  0  0  0  0
   21.1840  -24.9250   41.2390 O   0  0  0  0  0  0  0  0  0  0  0  0
   21.0460  -26.9820   40.0970 C   0  0  0  0  0  0  0  0  0  0  0  0
   20.1340  -26.4380   39.2120 O   0  0  0  0  0  0  0  0  0  0  0  0
   21.5740  -29.2710   37.7580 C   0  0  0  0  0  0  0  0  0  0  0  0
   21.1430  -30.2210   36.8270 C   0  0  0  0  0  0  0  0  0  0  0  0
   20.1610  -31.1680   37.1530 C   0  0  0  0  0  0  0  0  0  0  0  0
   19.7170  -32.1340   36.2250 N   0  0  0  0  0  0  0  0  0  0  0  0
   20.3830  -32.0390   34.9170 C   0  0  0  0  0  0  0  0  0  0  0  0
   19.6610  -32.9530   33.9250 C   0  0  0  0  0  0  0  0  0  0  0  0
   19.6020  -34.3890   34.4420 C   0  0  0  0  0  0  0  0  0  0  0  0
   19.0010  -34.4400   35.8460 C   0  0  0  0  0  0  0  0  0  0  0  0
   19.7290  -33.4900   36.7980 C   0  0  0  0  0  0  0  0  0  0  0  0
   18.6743  -32.3738   41.0168 H   0  0  0  0  0  0  0  0  0  0  0  0
   18.4554  -33.9074   40.1074 H   0  0  0  0  0  0  0  0  0  0  0  0
   20.0514  -33.0831   40.1074 H   0  0  0  0  0  0  0  0  0  0  0  0
   18.3701  -32.8435   38.0527 H   0  0  0  0  0  0  0  0  0  0  0  0
   17.6468  -31.5702   39.1264 H   0  0  0  0  0  0  0  0  0  0  0  0
   19.6282  -30.1834   40.3931 H   0  0  0  0  0  0  0  0  0  0  0  0
   24.0704  -29.6343   42.7315 H   0  0  0  0  0  0  0  0  0  0  0  0
   25.0447  -28.2779   44.5867 H   0  0  0  0  0  0  0  0  0  0  0  0
   24.3921  -25.8842   44.8618 H   0  0  0  0  0  0  0  0  0  0  0  0
   23.3670  -23.9180   43.1560 H   0  0  0  0  0  0  0  0  0  0  0  0
   20.1240  -25.5130   39.0590 H   0  0  0  0  0  0  0  0  0  0  0  0
   22.3499  -28.5444   37.4749 H   0  0  0  0  0  0  0  0  0  0  0  0
   21.5828  -30.2258   35.8188 H   0  0  0  0  0  0  0  0  0  0  0  0
   20.3440  -31.0001   34.5575 H   0  0  0  0  0  0  0  0  0  0  0  0
   21.4344  -32.3483   35.0111 H   0  0  0  0  0  0  0  0  0  0  0  0
   18.6360  -32.5826   33.7758 H   0  0  0  0  0  0  0  0  0  0  0  0
   20.2169  -32.9463   32.9758 H   0  0  0  0  0  0  0  0  0  0  0  0
   18.9808  -34.9910   33.7625 H   0  0  0  0  0  0  0  0  0  0  0  0
   20.6257  -34.7894   34.4837 H   0  0  0  0  0  0  0  0  0  0  0  0
   17.9411  -34.1507   35.7926 H   0  0  0  0  0  0  0  0  0  0  0  0
   19.1063  -35.4649   36.2312 H   0  0  0  0  0  0  0  0  0  0  0  0
   19.2194  -33.4828   37.7728 H   0  0  0  0  0  0  0  0  0  0  0  0
   20.7674  -33.8258   36.9356 H   0  0  0  0  0  0  0  0  0  0  0  0
  1  2  1  0
  2  3  1  0
  3  4  2  0
  4  5  1  0
  5  6  1  0
  6  7  1  0
  7  8  1  0
  8  9  2  0
  9 10  1  0
 10 11  2  0
 11 12  1  0
 12 13  1  0
 12 14  2  0
 14 15  1  0
 15 16  2  0
 15 17  1  0
 17 18  1  0
  5 19  2  0
 19 20  1  0
 20 21  2  0
 21 22  1  0
 22 23  1  0
 23 24  1  0
 24 25  1  0
 25 26  1  0
 26 27  1  0
 21  3  1  0
 27 22  1  0
 17  6  2  0
 14  8  1  0
  1 28  1  0
  1 29  1  0
  1 30  1  0
  2 31  1  0
  2 32  1  0
  4 33  1  0
  9 34  1  0
 10 35  1  0
 11 36  1  0
 13 37  1  0
 18 38  1  0
 19 39  1  0
 20 40  1  0
 23 41  1  0
 23 42  1  0
 24 43  1  0
 24 44  1  0
 25 45  1  0
 25 46  1  0
 26 47  1  0
 26 48  1  0
 27 49  1  0
 27 50  1  0
M  END
>  <meeko>  (7) 
{"is_sidechain": [false], "free_energy": -8.802, "intermolecular_energy": -11.774, "internal_energy": 0.131}

$$$$
cand_029_out
     RDKit          3D

 50 53  0  0  0  0  0  0  0  0999 V2000
   19.3730  -32.4880   39.4420 C   0  0  0  0  0  0  0  0  0  0  0  0
   19.5020  -31.8360   38.0740 C   0  0  0  0  0  0  0  0  0  0  0  0
   20.3480  -30.5830   38.1200 C   0  0  0  0  0  0  0  0  0  0  0  0
   20.8350  -30.1390   39.3650 C   0  0  0  0  0  0  0  0  0  0  0  0
   21.6050  -28.9730   39.4810 C   0  0  0  0  0  0  0  0  0  0  0  0
   22.1200  -28.5590   40.8030 C   0  0  0  0  0  0  0  0  0  0  0  0
   21.4940  -27.4190   41.2950 O   0  0  0  0  0  0  0  0  0  0  0  0
   21.8780  -26.9240   42.5150 C   0  0  0  0  0  0  0  0  0  0  0  0
   21.2130  -25.7860   42.9740 C   0  0  0  0  0  0  0  0  0  0  0  0
   21.5570  -25.2300   44.2080 C   0  0  0  0  0  0  0  0  0  0  0  0
   22.5650  -25.8100   44.9810 C   0  0  0  0  0  0  0  0  0  0  0  0
   23.2260  -26.9460   44.5200 C   0  0  0  0  0  0  0  0  0  0  0  0
   24.2030  -27.4620   45.3270 O   0  0  0  0  0  0  0  0  0  0  0  0
   22.8810  -27.5020   43.2860 C   0  0  0  0  0  0  0  0  0  0  0  0
   23.5510  -28.6950   42.7630 C   0  0  0  0  0  0  0  0  0  0  0  0
   24.4520  -29.2580   43.3820 O   0  0  0  0  0  0  0  0  0  0  0  0
   23.1070  -29.2090   41.4470 C   0  0  0  0  0  0  0  0  0  0  0  0
   23.7560  -30.3280   40.9580 O   0  0  0  0  0  0  0  0  0  0  0  0
   21.8970  -28.2560   38.3170 C   0  0  0  0  0  0  0  0  0  0  0  0
   21.4130  -28.6800   37.0760 C   0  0  0  0  0  0  0  0  0  0  0  0
   20.6290  -29.8380   36.9570 C   0  0  0  0  0  0  0  0  0  0  0  0
   20.1340  -30.2810   35.7120 N   0  0  0  0  0  0  0  0  0  0  0  0
   19.7330  -29.1840   34.8180 C   0  0  0  0  0  0  0  0  0  0  0  0
   18.9900  -29.7700   33.6160 C   0  0  0  0  0  0  0  0  0  0  0  0
   19.8400  -30.8180   32.9000 C   0  0  0  0  0  0  0  0  0  0  0  0
   20.3270  -31.8860   33.8790 C   0  0  0  0  0  0  0  0  0  0  0  0
   21.0350  -31.2580   35.0810 C   0  0  0  0  0  0  0  0  0  0  0  0
   19.5230  -31.7301   40.2250 H   0  0  0  0  0  0  0  0  0  0  0  0
   18.3703  -32.9284   39.5452 H   0  0  0  0  0  0  0  0  0  0  0  0
   20.1324  -33.2771   39.5452 H   0  0  0  0  0  0  0  0  0  0  0  0
   19.9670  -32.5530   37.3815 H   0  0  0  0  0  0  0  0  0  0  0  0
   18.4941  -31.5527   37.7367 H   0  0  0  0  0  0  0  0  0  0  0  0
   20.6054  -30.7219   40.2692 H   0  0  0  0  0  0  0  0  0  0  0  0
   20.4196  -25.3280   42.3651 H   0  0  0  0  0  0  0  0  0  0  0  0
   21.0331  -24.3337   44.5717 H   0  0  0  0  0  0  0  0  0  0  0  0
   22.8365  -25.3705   45.9522 H   0  0  0  0  0  0  0  0  0  0  0  0
   23.9860  -27.7740   46.1840 H   0  0  0  0  0  0  0  0  0  0  0  0
   24.3440  -30.8070   41.5100 H   0  0  0  0  0  0  0  0  0  0  0  0
   22.5146  -27.3478   38.3783 H   0  0  0  0  0  0  0  0  0  0  0  0
   21.6512  -28.0949   36.1755 H   0  0  0  0  0  0  0  0  0  0  0  0
   19.0719  -28.4904   35.3583 H   0  0  0  0  0  0  0  0  0  0  0  0
   20.6244  -28.6383   34.4750 H   0  0  0  0  0  0  0  0  0  0  0  0
   18.0584  -30.2401   33.9641 H   0  0  0  0  0  0  0  0  0  0  0  0
   18.7723  -28.9555   32.9095 H   0  0  0  0  0  0  0  0  0  0  0  0
   19.2359  -31.2971   32.1154 H   0  0  0  0  0  0  0  0  0  0  0  0
   20.7158  -30.3192   32.4593 H   0  0  0  0  0  0  0  0  0  0  0  0
   19.4629  -32.4661   34.2352 H   0  0  0  0  0  0  0  0  0  0  0  0
   21.0434  -32.5359   33.3552 H   0  0  0  0  0  0  0  0  0  0  0  0
   21.2948  -32.0425   35.8070 H   0  0  0  0  0  0  0  0  0  0  0  0
   21.9547  -30.7543   34.7486 H   0  0  0  0  0  0  0  0  0  0  0  0
  1  2  1  0
  2  3  1  0
  3  4  2  0
  4  5  1  0
  5  6  1  0
  6  7  1  0
  7  8  1  0
  8  9  2  0
  9 10  1  0
 10 11  2  0
 11 12  1  0
 12 13  1  0
 12 14  2  0
 14 15  1  0
 15 16  2  0
 15 17  1  0
 17 18  1  0
  5 19  2  0
 19 20  1  0
 20 21  2  0
 21 22  1  0
 22 23  1  0
 23 24  1  0
 24 25  1  0
 25 26  1  0
 26 27  1  0
 21  3  1  0
 27 22  1  0
 17  6  2  0
 14  8  1  0
  1 28  1  0
  1 29  1  0
  1 30  1  0
  2 31  1  0
  2 32  1  0
  4 33  1  0
  9 34  1  0
 10 35  1  0
 11 36  1  0
 13 37  1  0
 18 38  1  0
 19 39  1  0
 20 40  1  0
 23 41  1  0
 23 42  1  0
 24 43  1  0
 24 44  1  0
 25 45  1  0
 25 46  1  0
 26 47  1  0
 26 48  1  0
 27 49  1  0
 27 50  1  0
M  END
>  <meeko>  (8) 
{"is_sidechain": [false], "free_energy": -8.427, "intermolecular_energy": -10.518, "internal_energy": -0.663}

$$$$
cand_029_out
     RDKit          3D

 50 53  0  0  0  0  0  0  0  0999 V2000
   24.1680  -26.7490   44.0310 C   0  0  0  0  0  0  0  0  0  0  0  0
   23.6630  -25.5890   43.1860 C   0  0  0  0  0  0  0  0  0  0  0  0
   22.2520  -25.8200   42.6910 C   0  0  0  0  0  0  0  0  0  0  0  0
   22.0550  -26.6450   41.5660 C   0  0  0  0  0  0  0  0  0  0  0  0
   20.7760  -26.8810   41.0420 C   0  0  0  0  0  0  0  0  0  0  0  0
   20.6110  -27.7770   39.8780 C   0  0  0  0  0  0  0  0  0  0  0  0
   20.3680  -29.0960   40.2420 O   0  0  0  0  0  0  0  0  0  0  0  0
   20.1960  -30.0370   39.2580 C   0  0  0  0  0  0  0  0  0  0  0  0
   19.9420  -31.3450   39.6700 C   0  0  0  0  0  0  0  0  0  0  0  0
   19.7600  -32.3510   38.7190 C   0  0  0  0  0  0  0  0  0  0  0  0
   19.8330  -32.0490   37.3570 C   0  0  0  0  0  0  0  0  0  0  0  0
   20.0870  -30.7420   36.9500 C   0  0  0  0  0  0  0  0  0  0  0  0
   20.1450  -30.5160   35.6020 O   0  0  0  0  0  0  0  0  0  0  0  0
   20.2680  -29.7360   37.9020 C   0  0  0  0  0  0  0  0  0  0  0  0
   20.5380  -28.3490   37.5170 C   0  0  0  0  0  0  0  0  0  0  0  0
   20.6230  -28.0060   36.3390 O   0  0  0  0  0  0  0  0  0  0  0  0
   20.7090  -27.3570   38.6030 C   0  0  0  0  0  0  0  0  0  0  0  0
   20.9760  -26.0530   38.2270 O   0  0  0  0  0  0  0  0  0  0  0  0
   19.6820  -26.2850   41.6760 C   0  0  0  0  0  0  0  0  0  0  0  0
   19.8640  -25.4570   42.7880 C   0  0  0  0  0  0  0  0  0  0  0  0
   21.1440  -25.2050   43.3060 C   0  0  0  0  0  0  0  0  0  0  0  0
   21.3450  -24.3730   44.4280 N   0  0  0  0  0  0  0  0  0  0  0  0
   20.6960  -23.0580   44.3060 C   0  0  0  0  0  0  0  0  0  0  0  0
   21.1790  -22.1600   45.4460 C   0  0  0  0  0  0  0  0  0  0  0  0
   20.9220  -22.8080   46.8050 C   0  0  0  0  0  0  0  0  0  0  0  0
   21.5190  -24.2140   46.8610 C   0  0  0  0  0  0  0  0  0  0  0  0
   21.0380  -25.0690   45.6880 C   0  0  0  0  0  0  0  0  0  0  0  0
   24.0598  -26.5004   45.0971 H   0  0  0  0  0  0  0  0  0  0  0  0
   23.5812  -27.6511   43.8034 H   0  0  0  0  0  0  0  0  0  0  0  0
   25.2282  -26.9341   43.8034 H   0  0  0  0  0  0  0  0  0  0  0  0
   23.6803  -24.6727   43.7943 H   0  0  0  0  0  0  0  0  0  0  0  0
   24.3199  -25.4968   42.3085 H   0  0  0  0  0  0  0  0  0  0  0  0
   22.9262  -27.1156   41.0869 H   0  0  0  0  0  0  0  0  0  0  0  0
   19.8851  -31.5837   40.7423 H   0  0  0  0  0  0  0  0  0  0  0  0
   19.5588  -33.3829   39.0427 H   0  0  0  0  0  0  0  0  0  0  0  0
   19.6902  -32.8418   36.6080 H   0  0  0  0  0  0  0  0  0  0  0  0
   20.9060  -30.7700   35.1160 H   0  0  0  0  0  0  0  0  0  0  0  0
   21.8630  -25.7570   38.1620 H   0  0  0  0  0  0  0  0  0  0  0  0
   18.6664  -26.4695   41.2958 H   0  0  0  0  0  0  0  0  0  0  0  0
   18.9877  -24.9945   43.2657 H   0  0  0  0  0  0  0  0  0  0  0  0
   20.9612  -22.6034   43.3401 H   0  0  0  0  0  0  0  0  0  0  0  0
   19.6036  -23.1748   44.3606 H   0  0  0  0  0  0  0  0  0  0  0  0
   22.2586  -21.9832   45.3310 H   0  0  0  0  0  0  0  0  0  0  0  0
   20.6242  -21.2112   45.4015 H   0  0  0  0  0  0  0  0  0  0  0  0
   21.3810  -22.1903   47.5910 H   0  0  0  0  0  0  0  0  0  0  0  0
   19.8353  -22.8814   46.9593 H   0  0  0  0  0  0  0  0  0  0  0  0
   22.6158  -24.1393   46.8239 H   0  0  0  0  0  0  0  0  0  0  0  0
   21.1929  -24.6926   47.7962 H   0  0  0  0  0  0  0  0  0  0  0  0
   21.5513  -26.0417   45.7062 H   0  0  0  0  0  0  0  0  0  0  0  0
   19.9529  -25.2309   45.7674 H   0  0  0  0  0  0  0  0  0  0  0  0
  1  2  1  0
  2  3  1  0
  3  4  2  0
  4  5  1  0
  5  6  1  0
  6  7  1  0
  7  8  1  0
  8  9  2  0
  9 10  1  0
 10 11  2  0
 11 12  1  0
 12 13  1  0
 12 14  2  0
 14 15  1  0
 15 16  2  0
 15 17  1  0
 17 18  1  0
  5 19  2  0
 19 20  1  0
 20 21  2  0
 21 22  1  0
 22 23  1  0
 23 24  1  0
 24 25  1  0
 25 26  1  0
 26 27  1  0
 21  3  1  0
 27 22  1  0
 17  6  2  0
 14  8  1  0
  1 28  1  0
  1 29  1  0
  1 30  1  0
  2 31  1  0
  2 32  1  0
  4 33  1  0
  9 34  1  0
 10 35  1  0
 11 36  1  0
 13 37  1  0
 18 38  1  0
 19 39  1  0
 20 40  1  0
 23 41  1  0
 23 42  1  0
 24 43  1  0
 24 44  1  0
 25 45  1  0
 25 46  1  0
 26 47  1  0
 26 48  1  0
 27 49  1  0
 27 50  1  0
M  END
>  <meeko>  (9) 
{"is_sidechain": [false], "free_energy": -8.333, "intermolecular_energy": -10.157, "internal_energy": -0.909}

$$$$
