cand_015_out
     RDKit          3D

 36 38  0  0  0  0  0  0  0  0999 V2000
   23.3600  -27.1790   44.8640 C   0  0  0  0  0  0  0  0  0  0  0  0
   23.7970  -27.1270   43.6010 C   0  0  0  0  0  0  0  0  0  0  0  0
   24.8320  -26.3030   43.3240 F   0  0  0  0  0  0  0  0  0  0  0  0
   23.2070  -27.8800   42.4810 C   0  0  0  0  0  0  0  0  0  0  0  0
   22.1160  -27.3390   41.7780 C   0  0  0  0  0  0  0  0  0  0  0  0
   21.5130  -28.0370   40.7260 C   0  0  0  0  0  0  0  0  0  0  0  0
   21.9810  -29.2960   40.3440 C   0  0  0  0  0  0  0  0  0  0  0  0
   21.3430  -30.0680   39.2570 C   0  0  0  0  0  0  0  0  0  0  0  0
   20.5880  -31.1380   39.7240 O   0  0  0  0  0  0  0  0  0  0  0  0
   19.9410  -31.9380   38.8190 C   0  0  0  0  0  0  0  0  0  0  0  0
   19.1820  -32.9920   39.3330 C   0  0  0  0  0  0  0  0  0  0  0  0
   18.4990  -33.8470   38.4640 C   0  0  0  0  0  0  0  0  0  0  0  0
   18.5740  -33.6490   37.0840 C   0  0  0  0  0  0  0  0  0  0  0  0
   19.3310  -32.5970   36.5740 C   0  0  0  0  0  0  0  0  0  0  0  0
   19.3610  -32.4600   35.2140 O   0  0  0  0  0  0  0  0  0  0  0  0
   20.0140  -31.7410   37.4440 C   0  0  0  0  0  0  0  0  0  0  0  0
   20.8200  -30.6240   36.9490 C   0  0  0  0  0  0  0  0  0  0  0  0
   20.9410  -30.3890   35.7490 O   0  0  0  0  0  0  0  0  0  0  0  0
   21.4980  -29.7730   37.9540 C   0  0  0  0  0  0  0  0  0  0  0  0
   22.2680  -28.7280   37.4750 O   0  0  0  0  0  0  0  0  0  0  0  0
   23.0580  -29.8480   41.0550 C   0  0  0  0  0  0  0  0  0  0  0  0
   23.6840  -29.1550   42.1110 C   0  0  0  0  0  0  0  0  0  0  0  0
   24.8340  -29.8160   42.8230 C   0  0  0  0  0  0  0  0  0  0  0  0
   22.5197  -27.8377   45.1286 H   0  0  0  0  0  0  0  0  0  0  0  0
   23.8409  -26.5630   45.6382 H   0  0  0  0  0  0  0  0  0  0  0  0
   21.7294  -26.3486   42.0604 H   0  0  0  0  0  0  0  0  0  0  0  0
   20.6608  -27.5891   40.1939 H   0  0  0  0  0  0  0  0  0  0  0  0
   19.1220  -33.1487   40.4201 H   0  0  0  0  0  0  0  0  0  0  0  0
   17.9013  -34.6774   38.8679 H   0  0  0  0  0  0  0  0  0  0  0  0
   18.0362  -34.3227   36.4007 H   0  0  0  0  0  0  0  0  0  0  0  0
   19.8300  -33.0800   34.6910 H   0  0  0  0  0  0  0  0  0  0  0  0
   21.8590  -28.0010   37.0480 H   0  0  0  0  0  0  0  0  0  0  0  0
   23.4235  -30.8486   40.7807 H   0  0  0  0  0  0  0  0  0  0  0  0
   24.6888  -29.7326   43.9102 H   0  0  0  0  0  0  0  0  0  0  0  0
   24.8791  -30.8779   42.5395 H   0  0  0  0  0  0  0  0  0  0  0  0
   25.7743  -29.3205   42.5395 H   0  0  0  0  0  0  0  0  0  0  0  0
  1  2  2  0
  2  3  1  0
  2  4  1  0
  4  5  2  0
  5  6  1  0
  6  7  2  0
  7  8  1  0
  8  9  1  0
  9 10  1  0
 10 11  2  0
 11 12  1  0
 12 13  2  0
 13 14  1  0
 14 15  1  0
 14 16  2  0
 16 17  1  0
 17 18  2  0
 17 19  1  0
 19 20  1  0
  7 21  1  0
 21 22  2  0
 22 23  1  0
 22  4  1  0
 19  8  2  0
 16 10  1  0
  1 24  1  0
  1 25  1  0
  5 26  1  0
  6 27  1  0
 11 28  1  0
 12 29  1  0
 13 30  1  0
 15 31  1  0
 20 32  1  0
 21 33  1  0
 23 34  1  0
 23 35  1  0
 23 36  1  0
M  END
>  <meeko>  (1) 
{"is_sidechain": [false], "free_energy": -9.775, "intermolecular_energy": -11.49, "internal_energy": -0.531}

$$$$
cand_015_out
     RDKit          3D

 36 38  0  0  0  0  0  0  0  0999 V2000
   23.6000  -27.0600   44.7670 C   0  0  0  0  0  0  0  0  0  0  0  0
   23.7590  -26.8860   43.4510 C   0  0  0  0  0  0  0  0  0  0  0  0
   24.5600  -25.8780   43.0390 F   0  0  0  0  0  0  0  0  0  0  0  0
   23.0950  -27.6940   42.4140 C   0  0  0  0  0  0  0  0  0  0  0  0
   23.6450  -28.9330   42.0410 C   0  0  0  0  0  0  0  0  0  0  0  0
   23.0560  -29.7160   41.0410 C   0  0  0  0  0  0  0  0  0  0  0  0
   21.9020  -29.2840   40.3840 C   0  0  0  0  0  0  0  0  0  0  0  0
   21.2780  -30.0770   39.3030 C   0  0  0  0  0  0  0  0  0  0  0  0
   20.5050  -31.1290   39.7810 O   0  0  0  0  0  0  0  0  0  0  0  0
   19.8690  -31.9460   38.8820 C   0  0  0  0  0  0  0  0  0  0  0  0
   19.0920  -32.9810   39.4060 C   0  0  0  0  0  0  0  0  0  0  0  0
   18.4190  -33.8510   38.5450 C   0  0  0  0  0  0  0  0  0  0  0  0
   18.5230  -33.6870   37.1620 C   0  0  0  0  0  0  0  0  0  0  0  0
   19.2980  -32.6540   36.6430 C   0  0  0  0  0  0  0  0  0  0  0  0
   19.3570  -32.5510   35.2800 O   0  0  0  0  0  0  0  0  0  0  0  0
   19.9710  -31.7830   37.5040 C   0  0  0  0  0  0  0  0  0  0  0  0
   20.7960  -30.6850   36.9990 C   0  0  0  0  0  0  0  0  0  0  0  0
   20.9430  -30.4800   35.7960 O   0  0  0  0  0  0  0  0  0  0  0  0
   21.4620  -29.8150   37.9960 C   0  0  0  0  0  0  0  0  0  0  0  0
   22.2500  -28.7880   37.5080 O   0  0  0  0  0  0  0  0  0  0  0  0
   21.3600  -28.0400   40.7410 C   0  0  0  0  0  0  0  0  0  0  0  0
   21.9340  -27.2430   41.7520 C   0  0  0  0  0  0  0  0  0  0  0  0
   21.2920  -25.9200   42.0760 C   0  0  0  0  0  0  0  0  0  0  0  0
   22.9560  -27.8696   45.1409 H   0  0  0  0  0  0  0  0  0  0  0  0
   24.1132  -26.3936   45.4759 H   0  0  0  0  0  0  0  0  0  0  0  0
   24.5544  -29.2936   42.5439 H   0  0  0  0  0  0  0  0  0  0  0  0
   23.5071  -30.6819   40.7699 H   0  0  0  0  0  0  0  0  0  0  0  0
   19.0100  -33.1111   40.4952 H   0  0  0  0  0  0  0  0  0  0  0  0
   17.8063  -34.6664   38.9569 H   0  0  0  0  0  0  0  0  0  0  0  0
   17.9935  -34.3728   36.4843 H   0  0  0  0  0  0  0  0  0  0  0  0
   18.9300  -31.8390   34.8450 H   0  0  0  0  0  0  0  0  0  0  0  0
   23.1720  -28.9150   37.4010 H   0  0  0  0  0  0  0  0  0  0  0  0
   20.4631  -27.6770   40.2178 H   0  0  0  0  0  0  0  0  0  0  0  0
   21.2331  -25.7986   43.1677 H   0  0  0  0  0  0  0  0  0  0  0  0
   21.8950  -25.1054   41.6485 H   0  0  0  0  0  0  0  0  0  0  0  0
   20.2789  -25.8896   41.6485 H   0  0  0  0  0  0  0  0  0  0  0  0
  1  2  2  0
  2  3  1  0
  2  4  1  0
  4  5  2  0
  5  6  1  0
  6  7  2  0
  7  8  1  0
  8  9  1  0
  9 10  1  0
 10 11  2  0
 11 12  1  0
 12 13  2  0
 13 14  1  0
 14 15  1  0
 14 16  2  0
 16 17  1  0
 17 18  2  0
 17 19  1  0
 19 20  1  0
  7 21  1  0
 21 22  2  0
 22 23  1  0
 22  4  1  0
 19  8  2  0
 16 10  1  0
  1 24  1  0
  1 25  1  0
  5 26  1  0
  6 27  1  0
 11 28  1  0
 12 29  1  0
 13 30  1  0
 15 31  1  0
 20 32  1  0
 21 33  1  0
 23 34  1  0
 23 35  1  0
 23 36  1  0
M  END
>  <meeko>  (2) 
{"is_sidechain": [false], "free_energy": -9.498, "intermolecular_energy": -11.133, "internal_energy": -0.562}

$$$$
cand_015_out
     RDKit          3D

 36 38  0  0  0  0  0  0  0  0999 V2000
   20.9410  -26.1480   43.0370 C   0  0  0  0  0  0  0  0  0  0  0  0
   21.5490  -26.4080   41.8750 C   0  0  0  0  0  0  0  0  0  0  0  0
   22.5220  -25.5630   41.4680 F   0  0  0  0  0  0  0  0  0  0  0  0
   21.2090  -27.5340   40.9870 C   0  0  0  0  0  0  0  0  0  0  0  0
   20.0130  -27.5000   40.2500 C   0  0  0  0  0  0  0  0  0  0  0  0
   19.6440  -28.5620   39.4170 C   0  0  0  0  0  0  0  0  0  0  0  0
   20.4590  -29.6900   39.2970 C   0  0  0  0  0  0  0  0  0  0  0  0
   20.0780  -30.8400   38.4480 C   0  0  0  0  0  0  0  0  0  0  0  0
   19.6890  -31.9510   39.1870 O   0  0  0  0  0  0  0  0  0  0  0  0
   19.3090  -33.0890   38.5220 C   0  0  0  0  0  0  0  0  0  0  0  0
   18.9120  -34.1760   39.3030 C   0  0  0  0  0  0  0  0  0  0  0  0
   18.5150  -35.3660   38.6890 C   0  0  0  0  0  0  0  0  0  0  0  0
   18.5160  -35.4700   37.2970 C   0  0  0  0  0  0  0  0  0  0  0  0
   18.9120  -34.3840   36.5200 C   0  0  0  0  0  0  0  0  0  0  0  0
   18.8890  -34.5530   35.1630 O   0  0  0  0  0  0  0  0  0  0  0  0
   19.3080  -33.1930   37.1350 C   0  0  0  0  0  0  0  0  0  0  0  0
   19.7320  -32.0280   36.3560 C   0  0  0  0  0  0  0  0  0  0  0  0
   19.7670  -32.0430   35.1280 O   0  0  0  0  0  0  0  0  0  0  0  0
   20.1260  -30.8120   37.1040 C   0  0  0  0  0  0  0  0  0  0  0  0
   20.5370  -29.7210   36.3590 O   0  0  0  0  0  0  0  0  0  0  0  0
   21.6450  -29.7360   40.0450 C   0  0  0  0  0  0  0  0  0  0  0  0
   22.0370  -28.6710   40.8810 C   0  0  0  0  0  0  0  0  0  0  0  0
   23.3250  -28.7970   41.6510 C   0  0  0  0  0  0  0  0  0  0  0  0
   20.1441  -26.8129   43.4016 H   0  0  0  0  0  0  0  0  0  0  0  0
   21.2376  -25.2692   43.6284 H   0  0  0  0  0  0  0  0  0  0  0  0
   19.3547  -26.6223   40.3294 H   0  0  0  0  0  0  0  0  0  0  0  0
   18.7024  -28.5080   38.8508 H   0  0  0  0  0  0  0  0  0  0  0  0
   18.9119  -34.0954   40.4000 H   0  0  0  0  0  0  0  0  0  0  0  0
   18.2010  -36.2227   39.3034 H   0  0  0  0  0  0  0  0  0  0  0  0
   18.2045  -36.4082   36.8145 H   0  0  0  0  0  0  0  0  0  0  0  0
   19.6560  -34.3740   34.6560 H   0  0  0  0  0  0  0  0  0  0  0  0
   21.4310  -29.6510   36.0850 H   0  0  0  0  0  0  0  0  0  0  0  0
   22.2863  -30.6272   39.9772 H   0  0  0  0  0  0  0  0  0  0  0  0
   23.1108  -28.7761   42.7297 H   0  0  0  0  0  0  0  0  0  0  0  0
   23.8151  -29.7474   41.3929 H   0  0  0  0  0  0  0  0  0  0  0  0
   23.9899  -27.9596   41.3929 H   0  0  0  0  0  0  0  0  0  0  0  0
  1  2  2  0
  2  3  1  0
  2  4  1  0
  4  5  2  0
  5  6  1  0
  6  7  2  0
  7  8  1  0
  8  9  1  0
  9 10  1  0
 10 11  2  0
 11 12  1  0
 12 13  2  0
 13 14  1  0
 14 15  1  0
 14 16  2  0
 16 17  1  0
 17 18  2  0
 17 19  1  0
 19 20  1  0
  7 21  1  0
 21 22  2  0
 22 23  1  0
 22  4  1  0
 19  8  2  0
 16 10  1  0
  1 24  1  0
  1 25  1  0
  5 26  1  0
  6 27  1  0
 11 28  1  0
 12 29  1  0
 13 30  1  0
 15 31  1  0
 20 32  1  0
 21 33  1  0
 23 34  1  0
 23 35  1  0
 23 36  1  0
M  END
>  <meeko>  (3) 
{"is_sidechain": [false], "free_energy": -9.045, "intermolecular_energy": -10.615, "internal_energy": -0.547}

$$$$
cand_015_out
     RDKit          3D

 36 38  0  0  0  0  0  0  0  0999 V2000
   20.3900  -26.4500   42.7470 C   0  0  0  0  0  0  0  0  0  0  0  0
   21.0570  -26.6180   41.6000 C   0  0  0  0  0  0  0  0  0  0  0  0
   21.9850  -25.6930   41.2680 F   0  0  0  0  0  0  0  0  0  0  0  0
   20.8280  -27.7230   40.6540 C   0  0  0  0  0  0  0  0  0  0  0  0
   19.6550  -27.7420   39.8790 C   0  0  0  0  0  0  0  0  0  0  0  0
   19.3900  -28.7890   38.9890 C   0  0  0  0  0  0  0  0  0  0  0  0
   20.2890  -29.8490   38.8470 C   0  0  0  0  0  0  0  0  0  0  0  0
   20.0190  -30.9820   37.9370 C   0  0  0  0  0  0  0  0  0  0  0  0
   20.3850  -30.7190   36.6220 O   0  0  0  0  0  0  0  0  0  0  0  0
   20.1880  -31.6890   35.6730 C   0  0  0  0  0  0  0  0  0  0  0  0
   20.5840  -31.3870   34.3680 C   0  0  0  0  0  0  0  0  0  0  0  0
   20.4090  -32.3300   33.3520 C   0  0  0  0  0  0  0  0  0  0  0  0
   19.8390  -33.5720   33.6400 C   0  0  0  0  0  0  0  0  0  0  0  0
   19.4460  -33.8700   34.9420 C   0  0  0  0  0  0  0  0  0  0  0  0
   18.8950  -35.1040   35.1540 O   0  0  0  0  0  0  0  0  0  0  0  0
   19.6220  -32.9260   35.9580 C   0  0  0  0  0  0  0  0  0  0  0  0
   19.2220  -33.1990   37.3390 C   0  0  0  0  0  0  0  0  0  0  0  0
   18.7060  -34.2650   37.6700 O   0  0  0  0  0  0  0  0  0  0  0  0
   19.4570  -32.1350   38.3430 C   0  0  0  0  0  0  0  0  0  0  0  0
   19.0630  -32.3980   39.6430 O   0  0  0  0  0  0  0  0  0  0  0  0
   21.4520  -29.8420   39.6310 C   0  0  0  0  0  0  0  0  0  0  0  0
   21.7400  -28.7920   40.5250 C   0  0  0  0  0  0  0  0  0  0  0  0
   23.0100  -28.8600   41.3310 C   0  0  0  0  0  0  0  0  0  0  0  0
   19.6270  -27.1814   43.0517 H   0  0  0  0  0  0  0  0  0  0  0  0
   20.6044  -25.5804   43.3856 H   0  0  0  0  0  0  0  0  0  0  0  0
   18.9320  -26.9184   39.9740 H   0  0  0  0  0  0  0  0  0  0  0  0
   18.4642  -28.7773   38.3950 H   0  0  0  0  0  0  0  0  0  0  0  0
   21.0327  -30.4088   34.1407 H   0  0  0  0  0  0  0  0  0  0  0  0
   20.7206  -32.0938   32.3238 H   0  0  0  0  0  0  0  0  0  0  0  0
   19.7008  -34.3136   32.8395 H   0  0  0  0  0  0  0  0  0  0  0  0
   19.3550  -35.7410   35.6640 H   0  0  0  0  0  0  0  0  0  0  0  0
   19.6440  -32.8460   40.2260 H   0  0  0  0  0  0  0  0  0  0  0  0
   22.1593  -30.6801   39.5454 H   0  0  0  0  0  0  0  0  0  0  0  0
   22.7649  -28.8469   42.4033 H   0  0  0  0  0  0  0  0  0  0  0  0
   23.5484  -29.7883   41.0893 H   0  0  0  0  0  0  0  0  0  0  0  0
   23.6445  -27.9945   41.0893 H   0  0  0  0  0  0  0  0  0  0  0  0
  1  2  2  0
  2  3  1  0
  2  4  1  0
  4  5  2  0
  5  6  1  0
  6  7  2  0
  7  8  1  0
  8  9  1  0
  9 10  1  0
 10 11  2  0
 11 12  1  0
 12 13  2  0
 13 14  1  0
 14 15  1  0
 14 16  2  0
 16 17  1  0
 17 18  2  0
 17 19  1  0
 19 20  1  0
  7 21  1  0
 21 22  2  0
 22 23  1  0
 22  4  1  0
 19  8  2  0
 16 10  1  0
  1 24  1  0
  1 25  1  0
  5 26  1  0
  6 27  1  0
 11 28  1  0
 12 29  1  0
 13 30  1  0
 15 31  1  0
 20 32  1  0
 21 33  1  0
 23 34  1  0
 23 35  1  0
 23 36  1  0
M  END
>  <meeko>  (4) 
{"is_sidechain": [false], "free_energy": -8.792, "intermolecular_energy": -10.287, "internal_energy": -0.578}

$$$$
cand_015_out
     RDKit          3D

 36 38  0  0  0  0  0  0  0  0999 V2000
   19.7560  -33.2970   35.4940 C   0  0  0  0  0  0  0  0  0  0  0  0
   19.1910  -32.9300   36.6490 C   0  0  0  0  0  0  0  0  0  0  0  0
   18.0580  -33.5630   37.0280 F   0  0  0  0  0  0  0  0  0  0  0  0
   19.6970  -31.8580   37.5240 C   0  0  0  0  0  0  0  0  0  0  0  0
   20.3520  -30.7510   36.9570 C   0  0  0  0  0  0  0  0  0  0  0  0
   20.8690  -29.7270   37.7580 C   0  0  0  0  0  0  0  0  0  0  0  0
   20.7470  -29.7780   39.1490 C   0  0  0  0  0  0  0  0  0  0  0  0
   21.3120  -28.7250   40.0190 C   0  0  0  0  0  0  0  0  0  0  0  0
   22.2520  -29.2140   40.9190 O   0  0  0  0  0  0  0  0  0  0  0  0
   22.8550  -28.3400   41.7870 C   0  0  0  0  0  0  0  0  0  0  0  0
   23.8040  -28.8720   42.6640 C   0  0  0  0  0  0  0  0  0  0  0  0
   24.4540  -28.0380   43.5760 C   0  0  0  0  0  0  0  0  0  0  0  0
   24.1560  -26.6740   43.6130 C   0  0  0  0  0  0  0  0  0  0  0  0
   23.2100  -26.1470   42.7380 C   0  0  0  0  0  0  0  0  0  0  0  0
   22.9660  -24.8030   42.8270 O   0  0  0  0  0  0  0  0  0  0  0  0
   22.5600  -26.9820   41.8240 C   0  0  0  0  0  0  0  0  0  0  0  0
   21.5600  -26.4680   40.8870 C   0  0  0  0  0  0  0  0  0  0  0  0
   21.2380  -25.2820   40.8630 O   0  0  0  0  0  0  0  0  0  0  0  0
   20.9340  -27.4350   39.9560 C   0  0  0  0  0  0  0  0  0  0  0  0
   19.9800  -26.9420   39.0840 O   0  0  0  0  0  0  0  0  0  0  0  0
   20.1090  -30.8900   39.7190 C   0  0  0  0  0  0  0  0  0  0  0  0
   19.5740  -31.9250   38.9270 C   0  0  0  0  0  0  0  0  0  0  0  0
   18.9040  -33.0850   39.6160 C   0  0  0  0  0  0  0  0  0  0  0  0
   20.6786  -32.8050   35.1522 H   0  0  0  0  0  0  0  0  0  0  0  0
   19.2982  -34.0909   34.8856 H   0  0  0  0  0  0  0  0  0  0  0  0
   20.4600  -30.6887   35.8641 H   0  0  0  0  0  0  0  0  0  0  0  0
   21.3771  -28.8723   37.2875 H   0  0  0  0  0  0  0  0  0  0  0  0
   24.0387  -29.9463   42.6359 H   0  0  0  0  0  0  0  0  0  0  0  0
   25.2017  -28.4558   44.2662 H   0  0  0  0  0  0  0  0  0  0  0  0
   24.6677  -26.0174   44.3321 H   0  0  0  0  0  0  0  0  0  0  0  0
   22.6470  -24.4370   43.6280 H   0  0  0  0  0  0  0  0  0  0  0  0
   19.5710  -27.5140   38.4650 H   0  0  0  0  0  0  0  0  0  0  0  0
   20.0242  -30.9555   40.8138 H   0  0  0  0  0  0  0  0  0  0  0  0
   18.9782  -32.9566   40.7060 H   0  0  0  0  0  0  0  0  0  0  0  0
   17.8446  -33.1235   39.3226 H   0  0  0  0  0  0  0  0  0  0  0  0
   19.4000  -34.0219   39.3226 H   0  0  0  0  0  0  0  0  0  0  0  0
  1  2  2  0
  2  3  1  0
  2  4  1  0
  4  5  2  0
  5  6  1  0
  6  7  2  0
  7  8  1  0
  8  9  1  0
  9 10  1  0
 10 11  2  0
 11 12  1  0
 12 13  2  0
 13 14  1  0
 14 15  1  0
 14 16  2  0
 16 17  1  0
 17 18  2  0
 17 19  1  0
 19 20  1  0
  7 21  1  0
 21 22  2  0
 22 23  1  0
 22  4  1  0
 19  8  2  0
 16 10  1  0
  1 24  1  0
  1 25  1  0
  5 26  1  0
  6 27  1  0
 11 28  1  0
 12 29  1  0
 13 30  1  0
 15 31  1  0
 20 32  1  0
 21 33  1  0
 23 34  1  0
 23 35  1  0
 23 36  1  0
M  END
>  <meeko>  (5) 
{"is_sidechain": [false], "free_energy": -8.456, "intermolecular_energy": -10.396, "internal_energy": -0.074}

$$$$
cand_015_out
     RDKit          3D

 36 38  0  0  0  0  0  0  0  0999 V2000
   19.6820  -30.1350   34.5090 C   0  0  0  0  0  0  0  0  0  0  0  0
   20.2390  -30.8770   35.4720 C   0  0  0  0  0  0  0  0  0  0  0  0
   20.3440  -32.2090   35.2620 F   0  0  0  0  0  0  0  0  0  0  0  0
   20.7170  -30.3520   36.7630 C   0  0  0  0  0  0  0  0  0  0  0  0
   21.5940  -29.2540   36.7840 C   0  0  0  0  0  0  0  0  0  0  0  0
   22.0900  -28.7450   37.9890 C   0  0  0  0  0  0  0  0  0  0  0  0
   21.7240  -29.3170   39.2090 C   0  0  0  0  0  0  0  0  0  0  0  0
   22.2570  -28.8180   40.4950 C   0  0  0  0  0  0  0  0  0  0  0  0
   23.1910  -29.6770   41.0630 O   0  0  0  0  0  0  0  0  0  0  0  0
   23.7660  -29.3340   42.2590 C   0  0  0  0  0  0  0  0  0  0  0  0
   24.7090  -30.2190   42.7850 C   0  0  0  0  0  0  0  0  0  0  0  0
   25.3310  -29.9300   44.0030 C   0  0  0  0  0  0  0  0  0  0  0  0
   25.0100  -28.7600   44.6930 C   0  0  0  0  0  0  0  0  0  0  0  0
   24.0690  -27.8790   44.1650 C   0  0  0  0  0  0  0  0  0  0  0  0
   23.8020  -26.7520   44.8920 O   0  0  0  0  0  0  0  0  0  0  0  0
   23.4480  -28.1680   42.9470 C   0  0  0  0  0  0  0  0  0  0  0  0
   22.4540  -27.2690   42.3580 C   0  0  0  0  0  0  0  0  0  0  0  0
   22.1130  -26.2240   42.9080 O   0  0  0  0  0  0  0  0  0  0  0  0
   21.8590  -27.6640   41.0600 C   0  0  0  0  0  0  0  0  0  0  0  0
   20.9110  -26.8140   40.5180 O   0  0  0  0  0  0  0  0  0  0  0  0
   20.8620  -30.4240   39.1920 C   0  0  0  0  0  0  0  0  0  0  0  0
   20.3450  -30.9440   37.9880 C   0  0  0  0  0  0  0  0  0  0  0  0
   19.4260  -32.1350   38.0540 C   0  0  0  0  0  0  0  0  0  0  0  0
   19.5788  -29.0480   34.6425 H   0  0  0  0  0  0  0  0  0  0  0  0
   19.3270  -30.6116   33.5834 H   0  0  0  0  0  0  0  0  0  0  0  0
   21.8960  -28.7862   35.8354 H   0  0  0  0  0  0  0  0  0  0  0  0
   22.7757  -27.8850   37.9752 H   0  0  0  0  0  0  0  0  0  0  0  0
   24.9620  -31.1417   42.2421 H   0  0  0  0  0  0  0  0  0  0  0  0
   26.0748  -30.6259   44.4184 H   0  0  0  0  0  0  0  0  0  0  0  0
   25.4992  -28.5340   45.6520 H   0  0  0  0  0  0  0  0  0  0  0  0
   23.6040  -26.8190   45.8060 H   0  0  0  0  0  0  0  0  0  0  0  0
   20.6780  -26.0260   40.9670 H   0  0  0  0  0  0  0  0  0  0  0  0
   20.5821  -30.8989   40.1439 H   0  0  0  0  0  0  0  0  0  0  0  0
   19.2300  -32.3890   39.1062 H   0  0  0  0  0  0  0  0  0  0  0  0
   18.4773  -31.8943   37.5520 H   0  0  0  0  0  0  0  0  0  0  0  0
   19.8994  -32.9917   37.5520 H   0  0  0  0  0  0  0  0  0  0  0  0
  1  2  2  0
  2  3  1  0
  2  4  1  0
  4  5  2  0
  5  6  1  0
  6  7  2  0
  7  8  1  0
  8  9  1  0
  9 10  1  0
 10 11  2  0
 11 12  1  0
 12 13  2  0
 13 14  1  0
 14 15  1  0
 14 16  2  0
 16 17  1  0
 17 18  2  0
 17 19  1  0
 19 20  1  0
  7 21  1  0
 21 22  2  0
 22 23  1  0
 22  4  1  0
 19  8  2  0
 16 10  1  0
  1 24  1  0
  1 25  1  0
  5 26  1  0
  6 27  1  0
 11 28  1  0
 12 29  1  0
 13 30  1  0
 15 31  1  0
 20 32  1  0
 21 33  1  0
 23 34  1  0
 23 35  1  0
 23 36  1  0
M  END
>  <meeko>  (6) 
{"is_sidechain": [false], "free_energy": -8.445, "intermolecular_energy": -10.111, "internal_energy": -0.347}

$$$$
cand_015_out
     RDKit          3D

 36 38  0  0  0  0  0  0  0  0999 V2000
   23.3760  -26.5940   44.9780 C   0  0  0  0  0  0  0  0  0  0  0  0
   22.7810  -27.6390   44.3920 C   0  0  0  0  0  0  0  0  0  0  0  0
   22.5850  -28.7520   45.1340 F   0  0  0  0  0  0  0  0  0  0  0  0
   22.3550  -27.6760   42.9830 C   0  0  0  0  0  0  0  0  0  0  0  0
   21.2770  -26.8780   42.5620 C   0  0  0  0  0  0  0  0  0  0  0  0
   20.8260  -26.9070   41.2380 C   0  0  0  0  0  0  0  0  0  0  0  0
   21.4390  -27.7350   40.2940 C   0  0  0  0  0  0  0  0  0  0  0  0
   20.9630  -27.8080   38.8960 C   0  0  0  0  0  0  0  0  0  0  0  0
   21.0830  -29.0810   38.3500 O   0  0  0  0  0  0  0  0  0  0  0  0
   20.6770  -29.2880   37.0570 C   0  0  0  0  0  0  0  0  0  0  0  0
   20.8020  -30.5850   36.5540 C   0  0  0  0  0  0  0  0  0  0  0  0
   20.4090  -30.8640   35.2430 C   0  0  0  0  0  0  0  0  0  0  0  0
   19.8920  -29.8490   34.4360 C   0  0  0  0  0  0  0  0  0  0  0  0
   19.7690  -28.5570   34.9400 C   0  0  0  0  0  0  0  0  0  0  0  0
   19.2550  -27.6100   34.0960 O   0  0  0  0  0  0  0  0  0  0  0  0
   20.1610  -28.2780   36.2520 C   0  0  0  0  0  0  0  0  0  0  0  0
   20.0480  -26.9340   36.8210 C   0  0  0  0  0  0  0  0  0  0  0  0
   19.6110  -25.9860   36.1720 O   0  0  0  0  0  0  0  0  0  0  0  0
   20.4860  -26.7450   38.2230 C   0  0  0  0  0  0  0  0  0  0  0  0
   20.3870  -25.4690   38.7470 O   0  0  0  0  0  0  0  0  0  0  0  0
   22.5040  -28.5470   40.7140 C   0  0  0  0  0  0  0  0  0  0  0  0
   22.9770  -28.5230   42.0410 C   0  0  0  0  0  0  0  0  0  0  0  0
   24.1240  -29.4240   42.4130 C   0  0  0  0  0  0  0  0  0  0  0  0
   23.5530  -25.6706   44.4071 H   0  0  0  0  0  0  0  0  0  0  0  0
   23.6883  -26.6581   46.0308 H   0  0  0  0  0  0  0  0  0  0  0  0
   20.7786  -26.2182   43.2874 H   0  0  0  0  0  0  0  0  0  0  0  0
   19.9801  -26.2714   40.9370 H   0  0  0  0  0  0  0  0  0  0  0  0
   21.2093  -31.3854   37.1892 H   0  0  0  0  0  0  0  0  0  0  0  0
   20.5070  -31.8851   34.8458 H   0  0  0  0  0  0  0  0  0  0  0  0
   19.5824  -30.0696   33.4038 H   0  0  0  0  0  0  0  0  0  0  0  0
   19.8240  -26.9810   33.6970 H   0  0  0  0  0  0  0  0  0  0  0  0
   20.6700  -24.7320   38.2410 H   0  0  0  0  0  0  0  0  0  0  0  0
   22.9823  -29.2203   39.9875 H   0  0  0  0  0  0  0  0  0  0  0  0
   24.2018  -29.4851   43.5085 H   0  0  0  0  0  0  0  0  0  0  0  0
   23.9494  -30.4289   42.0012 H   0  0  0  0  0  0  0  0  0  0  0  0
   25.0590  -29.0163   42.0012 H   0  0  0  0  0  0  0  0  0  0  0  0
  1  2  2  0
  2  3  1  0
  2  4  1  0
  4  5  2  0
  5  6  1  0
  6  7  2  0
  7  8  1  0
  8  9  1  0
  9 10  1  0
 10 11  2  0
 11 12  1  0
 12 13  2  0
 13 14  1  0
 14 15  1  0
 14 16  2  0
 16 17  1  0
 17 18  2  0
 17 19  1  0
 19 20  1  0
  7 21  1  0
 21 22  2  0
 22 23  1  0
 22  4  1  0
 19  8  2  0
 16 10  1  0
  1 24  1  0
  1 25  1  0
  5 26  1  0
  6 27  1  0
 11 28  1  0
 12 29  1  0
 13 30  1  0
 15 31  1  0
 20 32  1  0
 21 33  1  0
 23 34  1  0
 23 35  1  0
 23 36  1  0
M  END
>  <meeko>  (7) 
{"is_sidechain": [false], "free_energy": -8.243, "intermolecular_energy": -10.079, "internal_energy": -0.141}

$$$$
cand_015_out
     RDKit          3D

 36 38  0  0  0  0  0  0  0  0999 V2000
   19.9420  -30.2220   34.8170 C   0  0  0  0  0  0  0  0  0  0  0  0
   20.3200  -30.9110   35.8980 C   0  0  0  0  0  0  0  0  0  0  0  0
   20.3050  -32.2610   35.8240 F   0  0  0  0  0  0  0  0  0  0  0  0
   20.7200  -30.3040   37.1800 C   0  0  0  0  0  0  0  0  0  0  0  0
   21.6000  -29.2080   37.1840 C   0  0  0  0  0  0  0  0  0  0  0  0
   22.0230  -28.6220   38.3820 C   0  0  0  0  0  0  0  0  0  0  0  0
   21.5800  -29.1140   39.6120 C   0  0  0  0  0  0  0  0  0  0  0  0
   22.0350  -28.5340   40.8930 C   0  0  0  0  0  0  0  0  0  0  0  0
   21.2900  -27.4260   41.2800 O   0  0  0  0  0  0  0  0  0  0  0  0
   21.6080  -26.7900   42.4530 C   0  0  0  0  0  0  0  0  0  0  0  0
   20.8240  -25.6910   42.8100 C   0  0  0  0  0  0  0  0  0  0  0  0
   21.0950  -24.9970   43.9910 C   0  0  0  0  0  0  0  0  0  0  0  0
   22.1490  -25.4000   44.8140 C   0  0  0  0  0  0  0  0  0  0  0  0
   22.9290  -26.4960   44.4550 C   0  0  0  0  0  0  0  0  0  0  0  0
   23.9450  -26.8370   45.3060 O   0  0  0  0  0  0  0  0  0  0  0  0
   22.6570  -27.1910   43.2730 C   0  0  0  0  0  0  0  0  0  0  0  0
   23.4520  -28.3490   42.8600 C   0  0  0  0  0  0  0  0  0  0  0  0
   24.4000  -28.7600   43.5250 O   0  0  0  0  0  0  0  0  0  0  0  0
   23.0760  -29.0190   41.5930 C   0  0  0  0  0  0  0  0  0  0  0  0
   23.8420  -30.1040   41.2050 O   0  0  0  0  0  0  0  0  0  0  0  0
   20.7160  -30.2200   39.6130 C   0  0  0  0  0  0  0  0  0  0  0  0
   20.2720  -30.8160   38.4150 C   0  0  0  0  0  0  0  0  0  0  0  0
   19.3450  -32.0000   38.5010 C   0  0  0  0  0  0  0  0  0  0  0  0
   19.9408  -29.1222   34.8384 H   0  0  0  0  0  0  0  0  0  0  0  0
   19.6321  -30.7547   33.9059 H   0  0  0  0  0  0  0  0  0  0  0  0
   21.9628  -28.8035   36.2276 H   0  0  0  0  0  0  0  0  0  0  0  0
   22.7117  -27.7647   38.3550 H   0  0  0  0  0  0  0  0  0  0  0  0
   19.9942  -25.3725   42.1619 H   0  0  0  0  0  0  0  0  0  0  0  0
   20.4775  -24.1317   44.2736 H   0  0  0  0  0  0  0  0  0  0  0  0
   22.3624  -24.8526   45.7439 H   0  0  0  0  0  0  0  0  0  0  0  0
   23.7540  -27.2760   46.1110 H   0  0  0  0  0  0  0  0  0  0  0  0
   23.4350  -30.8450   40.8020 H   0  0  0  0  0  0  0  0  0  0  0  0
   20.3761  -30.6329   40.5743 H   0  0  0  0  0  0  0  0  0  0  0  0
   19.1558  -32.2416   39.5573 H   0  0  0  0  0  0  0  0  0  0  0  0
   18.3939  -31.7579   38.0042 H   0  0  0  0  0  0  0  0  0  0  0  0
   19.8083  -32.8652   38.0042 H   0  0  0  0  0  0  0  0  0  0  0  0
  1  2  2  0
  2  3  1  0
  2  4  1  0
  4  5  2  0
  5  6  1  0
  6  7  2  0
  7  8  1  0
  8  9  1  0
  9 10  1  0
 10 11  2  0
 11 12  1  0
 12 13  2  0
 13 14  1  0
 14 15  1  0
 14 16  2  0
 16 17  1  0
 17 18  2  0
 17 19  1  0
 19 20  1  0
  7 21  1  0
 21 22  2  0
 22 23  1  0
 22  4  1  0
 19  8  2  0
 16 10  1  0
  1 24  1  0
  1 25  1  0
  5 26  1  0
  6 27  1  0
 11 28  1  0
 12 29  1  0
 13 30  1  0
 15 31  1  0
 20 32  1  0
 21 33  1  0
 23 34  1  0
 23 35  1  0
 23 36  1  0
M  END
>  <meeko>  (8) 
{"is_sidechain": [false], "free_energy": -8.229, "intermolecular_energy": -9.902, "internal_energy": -0.302}

$$$$
cand_015_out
     RDKit          3D

 36 38  0  0  0  0  0  0  0  0999 V2000
   21.6120  -24.2180   44.8870 C   0  0  0  0  0  0  0  0  0  0  0  0
   21.9520  -25.4950   44.6820 C   0  0  0  0  0  0  0  0  0  0  0  0
   22.5990  -26.1430   45.6770 F   0  0  0  0  0  0  0  0  0  0  0  0
   21.7030  -26.2370   43.4350 C   0  0  0  0  0  0  0  0  0  0  0  0
   20.4350  -26.1730   42.8300 C   0  0  0  0  0  0  0  0  0  0  0  0
   20.1530  -26.8860   41.6600 C   0  0  0  0  0  0  0  0  0  0  0  0
   21.1290  -27.6840   41.0580 C   0  0  0  0  0  0  0  0  0  0  0  0
   20.8480  -28.4720   39.8390 C   0  0  0  0  0  0  0  0  0  0  0  0
   20.4960  -29.7880   40.1140 O   0  0  0  0  0  0  0  0  0  0  0  0
   20.2090  -30.6300   39.0710 C   0  0  0  0  0  0  0  0  0  0  0  0
   19.8470  -31.9390   39.3940 C   0  0  0  0  0  0  0  0  0  0  0  0
   19.5450  -32.8490   38.3780 C   0  0  0  0  0  0  0  0  0  0  0  0
   19.6040  -32.4510   37.0410 C   0  0  0  0  0  0  0  0  0  0  0  0
   19.9650  -31.1440   36.7220 C   0  0  0  0  0  0  0  0  0  0  0  0
   20.0030  -30.8210   35.3930 O   0  0  0  0  0  0  0  0  0  0  0  0
   20.2670  -30.2340   37.7390 C   0  0  0  0  0  0  0  0  0  0  0  0
   20.6510  -28.8520   37.4460 C   0  0  0  0  0  0  0  0  0  0  0  0
   20.7330  -28.4280   36.2950 O   0  0  0  0  0  0  0  0  0  0  0  0
   20.9450  -27.9660   38.5960 C   0  0  0  0  0  0  0  0  0  0  0  0
   21.3190  -26.6650   38.3080 O   0  0  0  0  0  0  0  0  0  0  0  0
   22.3900  -27.7640   41.6680 C   0  0  0  0  0  0  0  0  0  0  0  0
   22.6940  -27.0460   42.8410 C   0  0  0  0  0  0  0  0  0  0  0  0
   24.0710  -27.1860   43.4340 C   0  0  0  0  0  0  0  0  0  0  0  0
   21.0846  -23.6564   44.1019 H   0  0  0  0  0  0  0  0  0  0  0  0
   21.8597  -23.7292   45.8408 H   0  0  0  0  0  0  0  0  0  0  0  0
   19.6505  -25.5507   43.2853 H   0  0  0  0  0  0  0  0  0  0  0  0
   19.1520  -26.8176   41.2091 H   0  0  0  0  0  0  0  0  0  0  0  0
   19.7996  -32.2534   40.4470 H   0  0  0  0  0  0  0  0  0  0  0  0
   19.2603  -33.8808   38.6317 H   0  0  0  0  0  0  0  0  0  0  0  0
   19.3660  -33.1679   36.2414 H   0  0  0  0  0  0  0  0  0  0  0  0
   20.3240  -29.9830   35.1240 H   0  0  0  0  0  0  0  0  0  0  0  0
   21.2270  -26.3340   37.4360 H   0  0  0  0  0  0  0  0  0  0  0  0
   23.1623  -28.4050   41.2178 H   0  0  0  0  0  0  0  0  0  0  0  0
   24.0000  -27.1788   44.5317 H   0  0  0  0  0  0  0  0  0  0  0  0
   24.5186  -28.1343   43.1018 H   0  0  0  0  0  0  0  0  0  0  0  0
   24.7003  -26.3472   43.1018 H   0  0  0  0  0  0  0  0  0  0  0  0
  1  2  2  0
  2  3  1  0
  2  4  1  0
  4  5  2  0
  5  6  1  0
  6  7  2  0
  7  8  1  0
  8  9  1  0
  9 10  1  0
 10 11  2  0
 11 12  1  0
 12 13  2  0
 13 14  1  0
 14 15  1  0
 14 16  2  0
 16 17  1  0
 17 18  2  0
 17 19  1  0
 19 20  1  0
  7 21  1  0
 21 22  2  0
 22 23  1  0
 22  4  1  0
 19  8  2  0
 16 10  1  0
  1 24  1  0
  1 25  1  0
  5 26  1  0
  6 27  1  0
 11 28  1  0
 12 29  1  0
 13 30  1  0
 15 31  1  0
 20 32  1  0
 21 33  1  0
 23 34  1  0
 23 35  1  0
 23 36  1  0
M  END
>  <meeko>  (9) 
{"is_sidechain": [false], "free_energy": -8.13, "intermolecular_energy": -9.749, "internal_energy": -0.337}

$$$$
