cand_045_out
     RDKit          3D

 35 37  0  0  0  0  0  0  0  0999 V2000
   22.4750  -26.9210   42.2970 C   0  0  0  0  0  0  0  0  0  0  0  0
   21.9530  -27.9190   41.2990 C   0  0  0  0  0  0  0  0  0  0  0  0
   22.7880  -28.9610   40.8720 C   0  0  0  0  0  0  0  0  0  0  0  0
   22.3390  -29.9070   39.9460 C   0  0  0  0  0  0  0  0  0  0  0  0
   21.0460  -29.8320   39.4170 C   0  0  0  0  0  0  0  0  0  0  0  0
   20.5370  -30.8330   38.4550 C   0  0  0  0  0  0  0  0  0  0  0  0
   20.0880  -31.9950   39.0730 O   0  0  0  0  0  0  0  0  0  0  0  0
   19.5830  -33.0060   38.2970 C   0  0  0  0  0  0  0  0  0  0  0  0
   19.1510  -34.1570   38.9580 C   0  0  0  0  0  0  0  0  0  0  0  0
   18.6260  -35.2250   38.2280 C   0  0  0  0  0  0  0  0  0  0  0  0
   18.5330  -35.1430   36.8370 C   0  0  0  0  0  0  0  0  0  0  0  0
   18.9650  -33.9930   36.1800 C   0  0  0  0  0  0  0  0  0  0  0  0
   18.8440  -33.9790   34.8170 O   0  0  0  0  0  0  0  0  0  0  0  0
   19.4900  -32.9250   36.9110 C   0  0  0  0  0  0  0  0  0  0  0  0
   19.9530  -31.6990   36.2600 C   0  0  0  0  0  0  0  0  0  0  0  0
   19.8990  -31.5490   35.0410 O   0  0  0  0  0  0  0  0  0  0  0  0
   20.4980  -30.6270   37.1260 C   0  0  0  0  0  0  0  0  0  0  0  0
   20.9180  -29.4670   36.5010 O   0  0  0  0  0  0  0  0  0  0  0  0
   20.2080  -28.7940   39.8540 C   0  0  0  0  0  0  0  0  0  0  0  0
   20.6430  -27.8350   40.7870 C   0  0  0  0  0  0  0  0  0  0  0  0
   19.6990  -26.7380   41.2130 C   0  0  0  0  0  0  0  0  0  0  0  0
   19.1300  -26.9480   42.4350 F   0  0  0  0  0  0  0  0  0  0  0  0
   22.2834  -27.2873   43.3164 H   0  0  0  0  0  0  0  0  0  0  0  0
   23.5574  -26.7894   42.1521 H   0  0  0  0  0  0  0  0  0  0  0  0
   21.9657  -25.9568   42.1521 H   0  0  0  0  0  0  0  0  0  0  0  0
   23.8104  -29.0352   41.2711 H   0  0  0  0  0  0  0  0  0  0  0  0
   23.0098  -30.7194   39.6297 H   0  0  0  0  0  0  0  0  0  0  0  0
   19.2242  -34.2226   40.0536 H   0  0  0  0  0  0  0  0  0  0  0  0
   18.2853  -36.1319   38.7490 H   0  0  0  0  0  0  0  0  0  0  0  0
   18.1197  -35.9844   36.2615 H   0  0  0  0  0  0  0  0  0  0  0  0
   18.6070  -33.1870   34.3760 H   0  0  0  0  0  0  0  0  0  0  0  0
   21.4900  -28.8750   36.9480 H   0  0  0  0  0  0  0  0  0  0  0  0
   19.1844  -28.7287   39.4565 H   0  0  0  0  0  0  0  0  0  0  0  0
   20.2594  -25.7921   41.2488 H   0  0  0  0  0  0  0  0  0  0  0  0
   18.8814  -26.7139   40.4775 H   0  0  0  0  0  0  0  0  0  0  0  0
  1  2  1  0
  2  3  2  0
  3  4  1  0
  4  5  2  0
  5  6  1  0
  6  7  1  0
  7  8  1  0
  8  9  2  0
  9 10  1  0
 10 11  2  0
 11 12  1  0
 12 13  1  0
 12 14  2  0
 14 15  1  0
 15 16  2  0
 15 17  1  0
 17 18  1  0
  5 19  1  0
 19 20  2  0
 20 21  1  0
 21 22  1  0
 20  2  1  0
 17  6  2  0
 14  8  1  0
  1 23  1  0
  1 24  1  0
  1 25  1  0
  3 26  1  0
  4 27  1  0
  9 28  1  0
 10 29  1  0
 11 30  1  0
 13 31  1  0
 18 32  1  0
 19 33  1  0
 21 34  1  0
 21 35  1  0
M  END
>  <meeko>  (1) 
{"is_sidechain": [false], "free_energy": -9.099, "intermolecular_energy": -10.695, "internal_energy": -0.442}

$$$$
cand_045_out
     RDKit          3D

 35 37  0  0  0  0  0  0  0  0999 V2000
   23.9360  -27.1090   43.5460 C   0  0  0  0  0  0  0  0  0  0  0  0
   23.2860  -27.9050   42.4480 C   0  0  0  0  0  0  0  0  0  0  0  0
   22.2280  -27.3370   41.7240 C   0  0  0  0  0  0  0  0  0  0  0  0
   21.5980  -28.0460   40.6970 C   0  0  0  0  0  0  0  0  0  0  0  0
   22.0040  -29.3440   40.3720 C   0  0  0  0  0  0  0  0  0  0  0  0
   21.3710  -30.1070   39.2730 C   0  0  0  0  0  0  0  0  0  0  0  0
   20.5870  -31.1600   39.7290 O   0  0  0  0  0  0  0  0  0  0  0  0
   19.9360  -31.9470   38.8140 C   0  0  0  0  0  0  0  0  0  0  0  0
   19.1670  -32.9980   39.3160 C   0  0  0  0  0  0  0  0  0  0  0  0
   18.4770  -33.8380   38.4390 C   0  0  0  0  0  0  0  0  0  0  0  0
   18.5580  -33.6280   37.0610 C   0  0  0  0  0  0  0  0  0  0  0  0
   19.3270  -32.5780   36.5630 C   0  0  0  0  0  0  0  0  0  0  0  0
   19.3610  -32.4280   35.2030 O   0  0  0  0  0  0  0  0  0  0  0  0
   20.0160  -31.7380   37.4410 C   0  0  0  0  0  0  0  0  0  0  0  0
   20.8330  -30.6240   36.9600 C   0  0  0  0  0  0  0  0  0  0  0  0
   20.9490  -30.3700   35.7620 O   0  0  0  0  0  0  0  0  0  0  0  0
   21.5270  -29.7950   37.9730 C   0  0  0  0  0  0  0  0  0  0  0  0
   22.2830  -28.7350   37.5080 O   0  0  0  0  0  0  0  0  0  0  0  0
   23.0690  -29.9080   41.0900 C   0  0  0  0  0  0  0  0  0  0  0  0
   23.7160  -29.2080   42.1250 C   0  0  0  0  0  0  0  0  0  0  0  0
   24.8510  -29.8690   42.8680 C   0  0  0  0  0  0  0  0  0  0  0  0
   24.8570  -31.2290   42.7590 F   0  0  0  0  0  0  0  0  0  0  0  0
   23.6156  -27.5014   44.5224 H   0  0  0  0  0  0  0  0  0  0  0  0
   25.0296  -27.1898   43.4594 H   0  0  0  0  0  0  0  0  0  0  0  0
   23.6383  -26.0536   43.4594 H   0  0  0  0  0  0  0  0  0  0  0  0
   21.8890  -26.3193   41.9675 H   0  0  0  0  0  0  0  0  0  0  0  0
   20.7740  -27.5778   40.1386 H   0  0  0  0  0  0  0  0  0  0  0  0
   19.1044  -33.1647   40.4015 H   0  0  0  0  0  0  0  0  0  0  0  0
   17.8694  -34.6655   38.8341 H   0  0  0  0  0  0  0  0  0  0  0  0
   18.0158  -34.2901   36.3699 H   0  0  0  0  0  0  0  0  0  0  0  0
   18.6990  -31.9250   34.7710 H   0  0  0  0  0  0  0  0  0  0  0  0
   22.0640  -27.8590   37.7550 H   0  0  0  0  0  0  0  0  0  0  0  0
   23.4071  -30.9238   40.8373 H   0  0  0  0  0  0  0  0  0  0  0  0
   25.8001  -29.4839   42.4669 H   0  0  0  0  0  0  0  0  0  0  0  0
   24.7200  -29.6316   43.9341 H   0  0  0  0  0  0  0  0  0  0  0  0
  1  2  1  0
  2  3  2  0
  3  4  1  0
  4  5  2  0
  5  6  1  0
  6  7  1  0
  7  8  1  0
  8  9  2  0
  9 10  1  0
 10 11  2  0
 11 12  1  0
 12 13  1  0
 12 14  2  0
 14 15  1  0
 15 16  2  0
 15 17  1  0
 17 18  1  0
  5 19  1  0
 19 20  2  0
 20 21  1  0
 21 22  1  0
 20  2  1  0
 17  6  2  0
 14  8  1  0
  1 23  1  0
  1 24  1  0
  1 25  1  0
  3 26  1  0
  4 27  1  0
  9 28  1  0
 10 29  1  0
 11 30  1  0
 13 31  1  0
 18 32  1  0
 19 33  1  0
 21 34  1  0
 21 35  1  0
M  END
>  <meeko>  (2) 
{"is_sidechain": [false], "free_energy": -8.988, "intermolecular_energy": -10.654, "internal_energy": -0.353}

$$$$
cand_045_out
     RDKit          3D

 35 37  0  0  0  0  0  0  0  0999 V2000
   23.9460  -27.1490   43.5990 C   0  0  0  0  0  0  0  0  0  0  0  0
   23.2800  -27.8980   42.4760 C   0  0  0  0  0  0  0  0  0  0  0  0
   23.7940  -29.1420   42.0830 C   0  0  0  0  0  0  0  0  0  0  0  0
   23.2030  -29.8670   41.0440 C   0  0  0  0  0  0  0  0  0  0  0  0
   22.0870  -29.3650   40.3660 C   0  0  0  0  0  0  0  0  0  0  0  0
   21.4270  -30.1220   39.2810 C   0  0  0  0  0  0  0  0  0  0  0  0
   20.6380  -31.1640   39.7530 O   0  0  0  0  0  0  0  0  0  0  0  0
   19.9620  -31.9460   38.8520 C   0  0  0  0  0  0  0  0  0  0  0  0
   19.1880  -32.9850   39.3700 C   0  0  0  0  0  0  0  0  0  0  0  0
   18.4740  -33.8190   38.5070 C   0  0  0  0  0  0  0  0  0  0  0  0
   18.5340  -33.6150   37.1270 C   0  0  0  0  0  0  0  0  0  0  0  0
   19.3070  -32.5760   36.6130 C   0  0  0  0  0  0  0  0  0  0  0  0
   19.3210  -32.4300   35.2520 O   0  0  0  0  0  0  0  0  0  0  0  0
   20.0210  -31.7410   37.4770 C   0  0  0  0  0  0  0  0  0  0  0  0
   20.8440  -30.6390   36.9790 C   0  0  0  0  0  0  0  0  0  0  0  0
   20.9430  -30.3910   35.7790 O   0  0  0  0  0  0  0  0  0  0  0  0
   21.5650  -29.8160   37.9780 C   0  0  0  0  0  0  0  0  0  0  0  0
   22.3270  -28.7670   37.4960 O   0  0  0  0  0  0  0  0  0  0  0  0
   21.5670  -28.1250   40.7680 C   0  0  0  0  0  0  0  0  0  0  0  0
   22.1480  -27.3830   41.8140 C   0  0  0  0  0  0  0  0  0  0  0  0
   21.5490  -26.0520   42.1960 C   0  0  0  0  0  0  0  0  0  0  0  0
   22.2050  -24.9820   41.6600 F   0  0  0  0  0  0  0  0  0  0  0  0
   23.5941  -27.5448   44.5631 H   0  0  0  0  0  0  0  0  0  0  0  0
   25.0365  -27.2742   43.5273 H   0  0  0  0  0  0  0  0  0  0  0  0
   23.6941  -26.0806   43.5273 H   0  0  0  0  0  0  0  0  0  0  0  0
   24.6741  -29.5530   42.5992 H   0  0  0  0  0  0  0  0  0  0  0  0
   23.6202  -30.8433   40.7563 H   0  0  0  0  0  0  0  0  0  0  0  0
   19.1403  -33.1470   40.4570 H   0  0  0  0  0  0  0  0  0  0  0  0
   17.8634  -34.6379   38.9150 H   0  0  0  0  0  0  0  0  0  0  0  0
   17.9724  -34.2729   36.4474 H   0  0  0  0  0  0  0  0  0  0  0  0
   19.6490  -33.1210   34.7110 H   0  0  0  0  0  0  0  0  0  0  0  0
   22.4950  -28.0230   38.0400 H   0  0  0  0  0  0  0  0  0  0  0  0
   20.6826  -27.7224   40.2525 H   0  0  0  0  0  0  0  0  0  0  0  0
   20.5051  -26.0286   41.8499 H   0  0  0  0  0  0  0  0  0  0  0  0
   21.6301  -25.9645   43.2895 H   0  0  0  0  0  0  0  0  0  0  0  0
  1  2  1  0
  2  3  2  0
  3  4  1  0
  4  5  2  0
  5  6  1  0
  6  7  1  0
  7  8  1  0
  8  9  2  0
  9 10  1  0
 10 11  2  0
 11 12  1  0
 12 13  1  0
 12 14  2  0
 14 15  1  0
 15 16  2  0
 15 17  1  0
 17 18  1  0
  5 19  1  0
 19 20  2  0
 20 21  1  0
 21 22  1  0
 20  2  1  0
 17  6  2  0
 14  8  1  0
  1 23  1  0
  1 24  1  0
  1 25  1  0
  3 26  1  0
  4 27  1  0
  9 28  1  0
 10 29  1  0
 11 30  1  0
 13 31  1  0
 18 32  1  0
 19 33  1  0
 21 34  1  0
 21 35  1  0
M  END
>  <meeko>  (3) 
{"is_sidechain": [false], "free_energy": -8.915, "intermolecular_energy": -10.498, "internal_energy": -0.422}

$$$$
cand_045_out
     RDKit          3D

 35 37  0  0  0  0  0  0  0  0999 V2000
   19.7280  -32.1400   36.2650 C   0  0  0  0  0  0  0  0  0  0  0  0
   20.2050  -31.1650   37.3060 C   0  0  0  0  0  0  0  0  0  0  0  0
   21.1420  -30.1850   36.9490 C   0  0  0  0  0  0  0  0  0  0  0  0
   21.6090  -29.2620   37.8890 C   0  0  0  0  0  0  0  0  0  0  0  0
   21.1570  -29.2980   39.2120 C   0  0  0  0  0  0  0  0  0  0  0  0
   21.6160  -28.3180   40.2200 C   0  0  0  0  0  0  0  0  0  0  0  0
   22.4770  -28.8720   41.1600 O   0  0  0  0  0  0  0  0  0  0  0  0
   22.9830  -28.0710   42.1500 C   0  0  0  0  0  0  0  0  0  0  0  0
   23.8370  -28.6710   43.0770 C   0  0  0  0  0  0  0  0  0  0  0  0
   24.3880  -27.9120   44.1110 C   0  0  0  0  0  0  0  0  0  0  0  0
   24.0850  -26.5530   44.2190 C   0  0  0  0  0  0  0  0  0  0  0  0
   23.2330  -25.9560   43.2930 C   0  0  0  0  0  0  0  0  0  0  0  0
   22.9800  -24.6210   43.4560 O   0  0  0  0  0  0  0  0  0  0  0  0
   22.6830  -26.7160   42.2580 C   0  0  0  0  0  0  0  0  0  0  0  0
   21.7840  -26.1290   41.2640 C   0  0  0  0  0  0  0  0  0  0  0  0
   21.4750  -24.9390   41.2880 O   0  0  0  0  0  0  0  0  0  0  0  0
   21.2510  -27.0220   40.2090 C   0  0  0  0  0  0  0  0  0  0  0  0
   20.4150  -26.4520   39.2660 O   0  0  0  0  0  0  0  0  0  0  0  0
   20.2110  -30.2720   39.5660 C   0  0  0  0  0  0  0  0  0  0  0  0
   19.7280  -31.2080   38.6320 C   0  0  0  0  0  0  0  0  0  0  0  0
   18.7180  -32.2380   39.0730 C   0  0  0  0  0  0  0  0  0  0  0  0
   19.1370  -33.0010   40.1230 F   0  0  0  0  0  0  0  0  0  0  0  0
   19.2962  -33.0225   36.7597 H   0  0  0  0  0  0  0  0  0  0  0  0
   18.9627  -31.6606   35.6370 H   0  0  0  0  0  0  0  0  0  0  0  0
   20.5762  -32.4500   35.6370 H   0  0  0  0  0  0  0  0  0  0  0  0
   21.5147  -30.1419   35.9150 H   0  0  0  0  0  0  0  0  0  0  0  0
   22.3403  -28.4987   37.5848 H   0  0  0  0  0  0  0  0  0  0  0  0
   24.0757  -29.7415   42.9928 H   0  0  0  0  0  0  0  0  0  0  0  0
   25.0613  -28.3847   44.8412 H   0  0  0  0  0  0  0  0  0  0  0  0
   24.5186  -25.9550   45.0341 H   0  0  0  0  0  0  0  0  0  0  0  0
   23.4800  -23.9880   42.9790 H   0  0  0  0  0  0  0  0  0  0  0  0
   19.8390  -26.9930   38.7630 H   0  0  0  0  0  0  0  0  0  0  0  0
   19.8372  -30.3050   40.6000 H   0  0  0  0  0  0  0  0  0  0  0  0
   17.7960  -31.7161   39.3688 H   0  0  0  0  0  0  0  0  0  0  0  0
   18.5603  -32.9185   38.2233 H   0  0  0  0  0  0  0  0  0  0  0  0
  1  2  1  0
  2  3  2  0
  3  4  1  0
  4  5  2  0
  5  6  1  0
  6  7  1  0
  7  8  1  0
  8  9  2  0
  9 10  1  0
 10 11  2  0
 11 12  1  0
 12 13  1  0
 12 14  2  0
 14 15  1  0
 15 16  2  0
 15 17  1  0
 17 18  1  0
  5 19  1  0
 19 20  2  0
 20 21  1  0
 21 22  1  0
 20  2  1  0
 17  6  2  0
 14  8  1  0
  1 23  1  0
  1 24  1  0
  1 25  1  0
  3 26  1  0
  4 27  1  0
  9 28  1  0
 10 29  1  0
 11 30  1  0
 13 31  1  0
 18 32  1  0
 19 33  1  0
 21 34  1  0
 21 35  1  0
M  END
>  <meeko>  (4) 
{"is_sidechain": [false], "free_energy": -8.656, "intermolecular_energy": -10.243, "internal_energy": -0.372}

$$$$
cand_045_out
     RDKit          3D

 35 37  0  0  0  0  0  0  0  0999 V2000
   21.1520  -26.5510   41.5710 C   0  0  0  0  0  0  0  0  0  0  0  0
   20.8660  -27.7100   40.6560 C   0  0  0  0  0  0  0  0  0  0  0  0
   19.6970  -27.7010   39.8820 C   0  0  0  0  0  0  0  0  0  0  0  0
   19.3970  -28.7610   39.0210 C   0  0  0  0  0  0  0  0  0  0  0  0
   20.2550  -29.8610   38.9170 C   0  0  0  0  0  0  0  0  0  0  0  0
   19.9750  -30.9830   37.9950 C   0  0  0  0  0  0  0  0  0  0  0  0
   20.3630  -30.7180   36.6870 O   0  0  0  0  0  0  0  0  0  0  0  0
   20.1670  -31.6780   35.7280 C   0  0  0  0  0  0  0  0  0  0  0  0
   20.5650  -31.3650   34.4280 C   0  0  0  0  0  0  0  0  0  0  0  0
   20.3930  -32.2980   33.4030 C   0  0  0  0  0  0  0  0  0  0  0  0
   19.8240  -33.5430   33.6780 C   0  0  0  0  0  0  0  0  0  0  0  0
   19.4280  -33.8530   34.9780 C   0  0  0  0  0  0  0  0  0  0  0  0
   18.8780  -35.0900   35.1780 O   0  0  0  0  0  0  0  0  0  0  0  0
   19.6000  -32.9190   36.0030 C   0  0  0  0  0  0  0  0  0  0  0  0
   19.1990  -33.2040   37.3800 C   0  0  0  0  0  0  0  0  0  0  0  0
   18.6970  -34.2790   37.7040 O   0  0  0  0  0  0  0  0  0  0  0  0
   19.4210  -32.1440   38.3920 C   0  0  0  0  0  0  0  0  0  0  0  0
   19.0530  -32.4310   39.6940 O   0  0  0  0  0  0  0  0  0  0  0  0
   21.4300  -29.8650   39.6830 C   0  0  0  0  0  0  0  0  0  0  0  0
   21.7480  -28.8050   40.5540 C   0  0  0  0  0  0  0  0  0  0  0  0
   23.0220  -28.8680   41.3590 C   0  0  0  0  0  0  0  0  0  0  0  0
   23.6310  -30.0890   41.3260 F   0  0  0  0  0  0  0  0  0  0  0  0
   21.0706  -26.8810   42.6172 H   0  0  0  0  0  0  0  0  0  0  0  0
   22.1693  -26.1774   41.3825 H   0  0  0  0  0  0  0  0  0  0  0  0
   20.4253  -25.7470   41.3825 H   0  0  0  0  0  0  0  0  0  0  0  0
   19.0061  -26.8480   39.9531 H   0  0  0  0  0  0  0  0  0  0  0  0
   18.4768  -28.7297   38.4192 H   0  0  0  0  0  0  0  0  0  0  0  0
   21.0138  -30.3845   34.2105 H   0  0  0  0  0  0  0  0  0  0  0  0
   20.7062  -32.0516   32.3777 H   0  0  0  0  0  0  0  0  0  0  0  0
   19.6885  -34.2776   32.8705 H   0  0  0  0  0  0  0  0  0  0  0  0
   18.2000  -35.3980   34.6100 H   0  0  0  0  0  0  0  0  0  0  0  0
   19.2780  -31.8400   40.3850 H   0  0  0  0  0  0  0  0  0  0  0  0
   22.1204  -30.7174   39.6014 H   0  0  0  0  0  0  0  0  0  0  0  0
   23.7224  -28.1195   40.9601 H   0  0  0  0  0  0  0  0  0  0  0  0
   22.7507  -28.6718   42.4068 H   0  0  0  0  0  0  0  0  0  0  0  0
  1  2  1  0
  2  3  2  0
  3  4  1  0
  4  5  2  0
  5  6  1  0
  6  7  1  0
  7  8  1  0
  8  9  2  0
  9 10  1  0
 10 11  2  0
 11 12  1  0
 12 13  1  0
 12 14  2  0
 14 15  1  0
 15 16  2  0
 15 17  1  0
 17 18  1  0
  5 19  1  0
 19 20  2  0
 20 21  1  0
 21 22  1  0
 20  2  1  0
 17  6  2  0
 14  8  1  0
  1 23  1  0
  1 24  1  0
  1 25  1  0
  3 26  1  0
  4 27  1  0
  9 28  1  0
 10 29  1  0
 11 30  1  0
 13 31  1  0
 18 32  1  0
 19 33  1  0
 21 34  1  0
 21 35  1  0
M  END
>  <meeko>  (5) 
{"is_sidechain": [false], "free_energy": -8.469, "intermolecular_energy": -9.982, "internal_energy": -0.414}

$$$$
cand_045_out
     RDKit          3D

 35 37  0  0  0  0  0  0  0  0999 V2000
   20.3350  -31.0960   35.9970 C   0  0  0  0  0  0  0  0  0  0  0  0
   20.7830  -30.4710   37.2900 C   0  0  0  0  0  0  0  0  0  0  0  0
   21.5580  -29.3030   37.2540 C   0  0  0  0  0  0  0  0  0  0  0  0
   21.9930  -28.6930   38.4340 C   0  0  0  0  0  0  0  0  0  0  0  0
   21.6710  -29.2390   39.6810 C   0  0  0  0  0  0  0  0  0  0  0  0
   22.0970  -28.6010   40.9450 C   0  0  0  0  0  0  0  0  0  0  0  0
   21.2880  -27.5310   41.3090 O   0  0  0  0  0  0  0  0  0  0  0  0
   21.5660  -26.8510   42.4670 C   0  0  0  0  0  0  0  0  0  0  0  0
   20.7330  -25.7790   42.7890 C   0  0  0  0  0  0  0  0  0  0  0  0
   20.9610  -25.0440   43.9540 C   0  0  0  0  0  0  0  0  0  0  0  0
   22.0220  -25.3800   44.7970 C   0  0  0  0  0  0  0  0  0  0  0  0
   22.8530  -26.4510   44.4730 C   0  0  0  0  0  0  0  0  0  0  0  0
   23.8720  -26.7270   45.3420 O   0  0  0  0  0  0  0  0  0  0  0  0
   22.6240  -27.1860   43.3070 C   0  0  0  0  0  0  0  0  0  0  0  0
   23.4710  -28.3180   42.9300 C   0  0  0  0  0  0  0  0  0  0  0  0
   24.4200  -28.6790   43.6230 O   0  0  0  0  0  0  0  0  0  0  0  0
   23.1460  -29.0290   41.6720 C   0  0  0  0  0  0  0  0  0  0  0  0
   23.9440  -30.1070   41.3350 O   0  0  0  0  0  0  0  0  0  0  0  0
   20.8860  -30.4020   39.7160 C   0  0  0  0  0  0  0  0  0  0  0  0
   20.4380  -31.0270   38.5370 C   0  0  0  0  0  0  0  0  0  0  0  0
   19.6040  -32.2800   38.6380 C   0  0  0  0  0  0  0  0  0  0  0  0
   19.4640  -32.7450   39.9130 F   0  0  0  0  0  0  0  0  0  0  0  0
   19.7065  -31.9728   36.2120 H   0  0  0  0  0  0  0  0  0  0  0  0
   19.7555  -30.3628   35.4168 H   0  0  0  0  0  0  0  0  0  0  0  0
   21.2154  -31.4094   35.4168 H   0  0  0  0  0  0  0  0  0  0  0  0
   21.8274  -28.8606   36.2836 H   0  0  0  0  0  0  0  0  0  0  0  0
   22.5949  -27.7738   38.3815 H   0  0  0  0  0  0  0  0  0  0  0  0
   19.8970  -25.5130   42.1253 H   0  0  0  0  0  0  0  0  0  0  0  0
   20.3039  -24.1992   44.2080 H   0  0  0  0  0  0  0  0  0  0  0  0
   22.2017  -24.8008   45.7147 H   0  0  0  0  0  0  0  0  0  0  0  0
   23.7640  -27.3890   45.9960 H   0  0  0  0  0  0  0  0  0  0  0  0
   23.6690  -30.9770   41.5470 H   0  0  0  0  0  0  0  0  0  0  0  0
   20.6140  -30.8360   40.6895 H   0  0  0  0  0  0  0  0  0  0  0  0
   18.6033  -32.0644   38.2353 H   0  0  0  0  0  0  0  0  0  0  0  0
   20.1273  -33.0610   38.0669 H   0  0  0  0  0  0  0  0  0  0  0  0
  1  2  1  0
  2  3  2  0
  3  4  1  0
  4  5  2  0
  5  6  1  0
  6  7  1  0
  7  8  1  0
  8  9  2  0
  9 10  1  0
 10 11  2  0
 11 12  1  0
 12 13  1  0
 12 14  2  0
 14 15  1  0
 15 16  2  0
 15 17  1  0
 17 18  1  0
  5 19  1  0
 19 20  2  0
 20 21  1  0
 21 22  1  0
 20  2  1  0
 17  6  2  0
 14  8  1  0
  1 23  1  0
  1 24  1  0
  1 25  1  0
  3 26  1  0
  4 27  1  0
  9 28  1  0
 10 29  1  0
 11 30  1  0
 13 31  1  0
 18 32  1  0
 19 33  1  0
 21 34  1  0
 21 35  1  0
M  END
>  <meeko>  (6) 
{"is_sidechain": [false], "free_energy": -8.461, "intermolecular_energy": -9.98, "internal_energy": -0.408}

$$$$
cand_045_out
     RDKit          3D

 35 37  0  0  0  0  0  0  0  0999 V2000
   22.2500  -26.8780   42.1290 C   0  0  0  0  0  0  0  0  0  0  0  0
   21.7640  -27.9000   41.1370 C   0  0  0  0  0  0  0  0  0  0  0  0
   22.6210  -28.9390   40.7490 C   0  0  0  0  0  0  0  0  0  0  0  0
   22.2050  -29.9070   39.8290 C   0  0  0  0  0  0  0  0  0  0  0  0
   20.9260  -29.8560   39.2670 C   0  0  0  0  0  0  0  0  0  0  0  0
   20.4520  -30.8800   38.3120 C   0  0  0  0  0  0  0  0  0  0  0  0
   20.7840  -30.5850   36.9950 O   0  0  0  0  0  0  0  0  0  0  0  0
   20.4110  -31.4560   36.0040 C   0  0  0  0  0  0  0  0  0  0  0  0
   20.7580  -31.1150   34.6960 C   0  0  0  0  0  0  0  0  0  0  0  0
   20.4080  -31.9590   33.6400 C   0  0  0  0  0  0  0  0  0  0  0  0
   19.7110  -33.1420   33.8910 C   0  0  0  0  0  0  0  0  0  0  0  0
   19.3660  -33.4800   35.1980 C   0  0  0  0  0  0  0  0  0  0  0  0
   18.6840  -34.6540   35.3730 O   0  0  0  0  0  0  0  0  0  0  0  0
   19.7170  -32.6360   36.2540 C   0  0  0  0  0  0  0  0  0  0  0  0
   19.3740  -32.9530   37.6410 C   0  0  0  0  0  0  0  0  0  0  0  0
   18.7670  -33.9790   37.9430 O   0  0  0  0  0  0  0  0  0  0  0  0
   19.7880  -31.9890   38.6870 C   0  0  0  0  0  0  0  0  0  0  0  0
   19.4740  -32.3080   39.9960 O   0  0  0  0  0  0  0  0  0  0  0  0
   20.0650  -28.8210   39.6650 C   0  0  0  0  0  0  0  0  0  0  0  0
   20.4660  -27.8400   40.5910 C   0  0  0  0  0  0  0  0  0  0  0  0
   19.5000  -26.7470   40.9740 C   0  0  0  0  0  0  0  0  0  0  0  0
   18.9440  -26.9140   42.2090 F   0  0  0  0  0  0  0  0  0  0  0  0
   22.0748  -27.2464   43.1506 H   0  0  0  0  0  0  0  0  0  0  0  0
   23.3263  -26.7060   41.9808 H   0  0  0  0  0  0  0  0  0  0  0  0
   21.7041  -25.9346   41.9808 H   0  0  0  0  0  0  0  0  0  0  0  0
   23.6342  -28.9939   41.1737 H   0  0  0  0  0  0  0  0  0  0  0  0
   22.8920  -30.7176   39.5445 H   0  0  0  0  0  0  0  0  0  0  0  0
   21.3065  -30.1825   34.4971 H   0  0  0  0  0  0  0  0  0  0  0  0
   20.6820  -31.6912   32.6089 H   0  0  0  0  0  0  0  0  0  0  0  0
   19.4347  -33.8061   33.0587 H   0  0  0  0  0  0  0  0  0  0  0  0
   18.9740  -35.2720   36.0150 H   0  0  0  0  0  0  0  0  0  0  0  0
   19.7230  -33.1390   40.3480 H   0  0  0  0  0  0  0  0  0  0  0  0
   19.0506  -28.7756   39.2421 H   0  0  0  0  0  0  0  0  0  0  0  0
   20.0385  -25.7879   40.9624 H   0  0  0  0  0  0  0  0  0  0  0  0
   18.6771  -26.7752   40.2446 H   0  0  0  0  0  0  0  0  0  0  0  0
  1  2  1  0
  2  3  2  0
  3  4  1  0
  4  5  2  0
  5  6  1  0
  6  7  1  0
  7  8  1  0
  8  9  2  0
  9 10  1  0
 10 11  2  0
 11 12  1  0
 12 13  1  0
 12 14  2  0
 14 15  1  0
 15 16  2  0
 15 17  1  0
 17 18  1  0
  5 19  1  0
 19 20  2  0
 20 21  1  0
 21 22  1  0
 20  2  1  0
 17  6  2  0
 14  8  1  0
  1 23  1  0
  1 24  1  0
  1 25  1  0
  3 26  1  0
  4 27  1  0
  9 28  1  0
 10 29  1  0
 11 30  1  0
 13 31  1  0
 18 32  1  0
 19 33  1  0
 21 34  1  0
 21 35  1  0
M  END
>  <meeko>  (7) 
{"is_sidechain": [false], "free_energy": -8.313, "intermolecular_energy": -9.771, "internal_energy": -0.442}

$$$$
cand_045_out
     RDKit          3D

 35 37  0  0  0  0  0  0  0  0999 V2000
   22.5350  -25.6070   45.0890 C   0  0  0  0  0  0  0  0  0  0  0  0
   22.2060  -26.3530   43.8240 C   0  0  0  0  0  0  0  0  0  0  0  0
   21.0160  -26.0580   43.1450 C   0  0  0  0  0  0  0  0  0  0  0  0
   20.6770  -26.7300   41.9660 C   0  0  0  0  0  0  0  0  0  0  0  0
   21.5140  -27.7190   41.4410 C   0  0  0  0  0  0  0  0  0  0  0  0
   21.1920  -28.4270   40.1830 C   0  0  0  0  0  0  0  0  0  0  0  0
   20.7330  -29.7220   40.3950 O   0  0  0  0  0  0  0  0  0  0  0  0
   20.3900  -30.4900   39.3120 C   0  0  0  0  0  0  0  0  0  0  0  0
   19.9430  -31.7860   39.5710 C   0  0  0  0  0  0  0  0  0  0  0  0
   19.5770  -32.6220   38.5140 C   0  0  0  0  0  0  0  0  0  0  0  0
   19.6610  -32.1620   37.1980 C   0  0  0  0  0  0  0  0  0  0  0  0
   20.1080  -30.8680   36.9420 C   0  0  0  0  0  0  0  0  0  0  0  0
   20.1640  -30.4810   35.6310 O   0  0  0  0  0  0  0  0  0  0  0  0
   20.4730  -30.0320   38.0010 C   0  0  0  0  0  0  0  0  0  0  0  0
   20.9460  -28.6660   37.7770 C   0  0  0  0  0  0  0  0  0  0  0  0
   21.0410  -28.1870   36.6490 O   0  0  0  0  0  0  0  0  0  0  0  0
   21.3120  -27.8630   38.9670 C   0  0  0  0  0  0  0  0  0  0  0  0
   21.7440  -26.5680   38.7440 O   0  0  0  0  0  0  0  0  0  0  0  0
   22.7110  -28.0060   42.1160 C   0  0  0  0  0  0  0  0  0  0  0  0
   23.0690  -27.3370   43.3020 C   0  0  0  0  0  0  0  0  0  0  0  0
   24.3640  -27.6940   43.9880 C   0  0  0  0  0  0  0  0  0  0  0  0
   24.2100  -28.5590   45.0330 F   0  0  0  0  0  0  0  0  0  0  0  0
   22.2634  -26.2228   45.9590 H   0  0  0  0  0  0  0  0  0  0  0  0
   23.6128  -25.3889   45.1163 H   0  0  0  0  0  0  0  0  0  0  0  0
   21.9693  -24.6640   45.1163 H   0  0  0  0  0  0  0  0  0  0  0  0
   20.3397  -25.2879   43.5445 H   0  0  0  0  0  0  0  0  0  0  0  0
   19.7412  -26.4774   41.4460 H   0  0  0  0  0  0  0  0  0  0  0  0
   19.8789  -32.1491   40.6074 H   0  0  0  0  0  0  0  0  0  0  0  0
   19.2224  -33.6431   38.7180 H   0  0  0  0  0  0  0  0  0  0  0  0
   19.3745  -32.8207   36.3649 H   0  0  0  0  0  0  0  0  0  0  0  0
   20.9540  -30.6010   35.1410 H   0  0  0  0  0  0  0  0  0  0  0  0
   21.7740  -26.2290   37.8710 H   0  0  0  0  0  0  0  0  0  0  0  0
   23.3861  -28.7727   41.7081 H   0  0  0  0  0  0  0  0  0  0  0  0
   25.0326  -28.1583   43.2482 H   0  0  0  0  0  0  0  0  0  0  0  0
   24.7778  -26.7618   44.4000 H   0  0  0  0  0  0  0  0  0  0  0  0
  1  2  1  0
  2  3  2  0
  3  4  1  0
  4  5  2  0
  5  6  1  0
  6  7  1  0
  7  8  1  0
  8  9  2  0
  9 10  1  0
 10 11  2  0
 11 12  1  0
 12 13  1  0
 12 14  2  0
 14 15  1  0
 15 16  2  0
 15 17  1  0
 17 18  1  0
  5 19  1  0
 19 20  2  0
 20 21  1  0
 21 22  1  0
 20  2  1  0
 17  6  2  0
 14  8  1  0
  1 23  1  0
  1 24  1  0
  1 25  1  0
  3 26  1  0
  4 27  1  0
  9 28  1  0
 10 29  1  0
 11 30  1  0
 13 31  1  0
 18 32  1  0
 19 33  1  0
 21 34  1  0
 21 35  1  0
M  END
>  <meeko>  (8) 
{"is_sidechain": [false], "free_energy": -8.305, "intermolecular_energy": -9.787, "internal_energy": -0.417}

$$$$
cand_045_out
     RDKit          3D

 35 37  0  0  0  0  0  0  0  0999 V2000
   19.2970  -33.0050   36.6610 C   0  0  0  0  0  0  0  0  0  0  0  0
   19.8160  -31.8870   37.5240 C   0  0  0  0  0  0  0  0  0  0  0  0
   19.8160  -32.0410   38.9170 C   0  0  0  0  0  0  0  0  0  0  0  0
   20.2900  -31.0240   39.7520 C   0  0  0  0  0  0  0  0  0  0  0  0
   20.7680  -29.8240   39.2150 C   0  0  0  0  0  0  0  0  0  0  0  0
   21.2980  -28.7430   40.0730 C   0  0  0  0  0  0  0  0  0  0  0  0
   22.2740  -29.1850   40.9590 O   0  0  0  0  0  0  0  0  0  0  0  0
   22.8560  -28.2820   41.8110 C   0  0  0  0  0  0  0  0  0  0  0  0
   23.8240  -28.7720   42.6880 C   0  0  0  0  0  0  0  0  0  0  0  0
   24.4570  -27.9060   43.5820 C   0  0  0  0  0  0  0  0  0  0  0  0
   24.1210  -26.5510   43.6000 C   0  0  0  0  0  0  0  0  0  0  0  0
   23.1540  -26.0650   42.7230 C   0  0  0  0  0  0  0  0  0  0  0  0
   22.8740  -24.7270   42.7920 O   0  0  0  0  0  0  0  0  0  0  0  0
   22.5220  -26.9320   41.8280 C   0  0  0  0  0  0  0  0  0  0  0  0
   21.5020  -26.4620   40.8900 C   0  0  0  0  0  0  0  0  0  0  0  0
   21.1570  -25.2830   40.8400 O   0  0  0  0  0  0  0  0  0  0  0  0
   20.8890  -27.4630   39.9860 C   0  0  0  0  0  0  0  0  0  0  0  0
   19.9380  -27.0050   39.0930 O   0  0  0  0  0  0  0  0  0  0  0  0
   20.7780  -29.6760   37.8200 C   0  0  0  0  0  0  0  0  0  0  0  0
   20.3070  -30.6910   36.9650 C   0  0  0  0  0  0  0  0  0  0  0  0
   20.3340  -30.4700   35.4730 C   0  0  0  0  0  0  0  0  0  0  0  0
   21.4340  -30.9970   34.8610 F   0  0  0  0  0  0  0  0  0  0  0  0
   18.9201  -33.8170   37.3003 H   0  0  0  0  0  0  0  0  0  0  0  0
   18.4811  -32.6295   36.0259 H   0  0  0  0  0  0  0  0  0  0  0  0
   20.1104  -33.3859   36.0259 H   0  0  0  0  0  0  0  0  0  0  0  0
   19.4381  -32.9744   39.3596 H   0  0  0  0  0  0  0  0  0  0  0  0
   20.2869  -31.1693   40.8424 H   0  0  0  0  0  0  0  0  0  0  0  0
   24.0884  -29.8397   42.6753 H   0  0  0  0  0  0  0  0  0  0  0  0
   25.2212  -28.2918   44.2728 H   0  0  0  0  0  0  0  0  0  0  0  0
   24.6187  -25.8689   44.3050 H   0  0  0  0  0  0  0  0  0  0  0  0
   23.5720  -24.1020   42.7970 H   0  0  0  0  0  0  0  0  0  0  0  0
   20.1130  -27.0240   38.1720 H   0  0  0  0  0  0  0  0  0  0  0  0
   21.1636  -28.7432   37.3828 H   0  0  0  0  0  0  0  0  0  0  0  0
   19.4375  -30.9347   35.0366 H   0  0  0  0  0  0  0  0  0  0  0  0
   20.3645  -29.3827   35.3092 H   0  0  0  0  0  0  0  0  0  0  0  0
  1  2  1  0
  2  3  2  0
  3  4  1  0
  4  5  2  0
  5  6  1  0
  6  7  1  0
  7  8  1  0
  8  9  2  0
  9 10  1  0
 10 11  2  0
 11 12  1  0
 12 13  1  0
 12 14  2  0
 14 15  1  0
 15 16  2  0
 15 17  1  0
 17 18  1  0
  5 19  1  0
 19 20  2  0
 20 21  1  0
 21 22  1  0
 20  2  1  0
 17  6  2  0
 14  8  1  0
  1 23  1  0
  1 24  1  0
  1 25  1  0
  3 26  1  0
  4 27  1  0
  9 28  1  0
 10 29  1  0
 11 30  1  0
 13 31  1  0
 18 32  1  0
 19 33  1  0
 21 34  1  0
 21 35  1  0
M  END
>  <meeko>  (9) 
{"is_sidechain": [false], "free_energy": -7.986, "intermolecular_energy": -9.627, "internal_energy": -0.201}

$$$$
