cand_036_out
     RDKit          3D

 35 37  0  0  0  0  0  0  0  0999 V2000
   23.9720  -27.0030   43.5660 C   0  0  0  0  0  0  0  0  0  0  0  0
   23.3090  -27.8180   42.4900 C   0  0  0  0  0  0  0  0  0  0  0  0
   22.2450  -27.2650   41.7650 C   0  0  0  0  0  0  0  0  0  0  0  0
   21.6060  -27.9930   40.7590 C   0  0  0  0  0  0  0  0  0  0  0  0
   22.0100  -29.2970   40.4540 C   0  0  0  0  0  0  0  0  0  0  0  0
   21.3680  -30.0790   39.3760 C   0  0  0  0  0  0  0  0  0  0  0  0
   20.5630  -31.1040   39.8590 O   0  0  0  0  0  0  0  0  0  0  0  0
   19.9060  -31.9100   38.9640 C   0  0  0  0  0  0  0  0  0  0  0  0
   19.1210  -32.9360   39.4920 C   0  0  0  0  0  0  0  0  0  0  0  0
   18.4240  -33.7910   38.6360 C   0  0  0  0  0  0  0  0  0  0  0  0
   18.5120  -33.6200   37.2530 C   0  0  0  0  0  0  0  0  0  0  0  0
   19.2960  -32.5950   36.7280 C   0  0  0  0  0  0  0  0  0  0  0  0
   19.3370  -32.4850   35.3650 O   0  0  0  0  0  0  0  0  0  0  0  0
   19.9940  -31.7410   37.5860 C   0  0  0  0  0  0  0  0  0  0  0  0
   20.8290  -30.6520   37.0760 C   0  0  0  0  0  0  0  0  0  0  0  0
   20.9510  -30.4340   35.8730 O   0  0  0  0  0  0  0  0  0  0  0  0
   21.5340  -29.8070   38.0690 C   0  0  0  0  0  0  0  0  0  0  0  0
   22.3090  -28.7740   37.5760 O   0  0  0  0  0  0  0  0  0  0  0  0
   23.0830  -29.8460   41.1740 C   0  0  0  0  0  0  0  0  0  0  0  0
   23.7370  -29.1260   42.1890 C   0  0  0  0  0  0  0  0  0  0  0  0
   24.8750  -29.7690   42.9320 C   0  0  0  0  0  0  0  0  0  0  0  0
   23.6654  -27.3799   44.5529 H   0  0  0  0  0  0  0  0  0  0  0  0
   25.0645  -27.0833   43.4661 H   0  0  0  0  0  0  0  0  0  0  0  0
   23.6711  -25.9497   43.4661 H   0  0  0  0  0  0  0  0  0  0  0  0
   21.9082  -26.2426   41.9915 H   0  0  0  0  0  0  0  0  0  0  0  0
   20.7759  -27.5360   40.2004 H   0  0  0  0  0  0  0  0  0  0  0  0
   19.0514  -33.0710   40.5815 H   0  0  0  0  0  0  0  0  0  0  0  0
   17.8051  -34.5999   39.0515 H   0  0  0  0  0  0  0  0  0  0  0  0
   17.9629  -34.2938   36.5788 H   0  0  0  0  0  0  0  0  0  0  0  0
   19.9390  -33.0060   34.8710 H   0  0  0  0  0  0  0  0  0  0  0  0
   22.8420  -28.2690   38.1590 H   0  0  0  0  0  0  0  0  0  0  0  0
   23.4207  -30.8659   40.9378 H   0  0  0  0  0  0  0  0  0  0  0  0
   24.7063  -29.6737   44.0148 H   0  0  0  0  0  0  0  0  0  0  0  0
   24.9338  -30.8338   42.6624 H   0  0  0  0  0  0  0  0  0  0  0  0
   25.8175  -29.2699   42.6624 H   0  0  0  0  0  0  0  0  0  0  0  0
  1  2  1  0
  2  3  2  0
  3  4  1  0
  4  5  2  0
  5  6  1  0
  6  7  1  0
  7  8  1  0
  8  9  2  0
  9 10  1  0
 10 11  2  0
 11 12  1  0
 12 13  1  0
 12 14  2  0
 14 15  1  0
 15 16  2  0
 15 17  1  0
 17 18  1  0
  5 19  1  0
 19 20  2  0
 20 21  1  0
 20  2  1  0
 17  6  2  0
 14  8  1  0
  1 22  1  0
  1 23  1  0
  1 24  1  0
  3 25  1  0
  4 26  1  0
  9 27  1  0
 10 28  1  0
 11 29  1  0
 13 30  1  0
 18 31  1  0
 19 32  1  0
 21 33  1  0
 21 34  1  0
 21 35  1  0
M  END
>  <meeko>  (1) 
{"is_sidechain": [false], "free_energy": -9.232, "intermolecular_energy": -10.311, "internal_energy": -0.261}

$$$$
cand_036_out
     RDKit          3D

 35 37  0  0  0  0  0  0  0  0999 V2000
   22.3920  -26.7770   42.2500 C   0  0  0  0  0  0  0  0  0  0  0  0
   21.8800  -27.7970   41.2700 C   0  0  0  0  0  0  0  0  0  0  0  0
   22.7330  -28.8180   40.8300 C   0  0  0  0  0  0  0  0  0  0  0  0
   22.2910  -29.7810   39.9200 C   0  0  0  0  0  0  0  0  0  0  0  0
   20.9860  -29.7460   39.4200 C   0  0  0  0  0  0  0  0  0  0  0  0
   20.4850  -30.7690   38.4780 C   0  0  0  0  0  0  0  0  0  0  0  0
   20.0190  -31.9110   39.1180 O   0  0  0  0  0  0  0  0  0  0  0  0
   19.5250  -32.9430   38.3610 C   0  0  0  0  0  0  0  0  0  0  0  0
   19.0830  -34.0760   39.0450 C   0  0  0  0  0  0  0  0  0  0  0  0
   18.5660  -35.1610   38.3330 C   0  0  0  0  0  0  0  0  0  0  0  0
   18.4910  -35.1130   36.9400 C   0  0  0  0  0  0  0  0  0  0  0  0
   18.9330  -33.9800   36.2600 C   0  0  0  0  0  0  0  0  0  0  0  0
   18.8320  -34.0000   34.8960 O   0  0  0  0  0  0  0  0  0  0  0  0
   19.4510  -32.8950   36.9720 C   0  0  0  0  0  0  0  0  0  0  0  0
   19.9270  -31.6870   36.2970 C   0  0  0  0  0  0  0  0  0  0  0  0
   19.8880  -31.5670   35.0740 O   0  0  0  0  0  0  0  0  0  0  0  0
   20.4650  -30.5960   37.1430 C   0  0  0  0  0  0  0  0  0  0  0  0
   20.8990  -29.4550   36.4960 O   0  0  0  0  0  0  0  0  0  0  0  0
   20.1280  -28.7290   39.8700 C   0  0  0  0  0  0  0  0  0  0  0  0
   20.5580  -27.7530   40.7860 C   0  0  0  0  0  0  0  0  0  0  0  0
   19.5970  -26.6820   41.2250 C   0  0  0  0  0  0  0  0  0  0  0  0
   22.2137  -27.1322   43.2757 H   0  0  0  0  0  0  0  0  0  0  0  0
   23.4710  -26.6294   42.0955 H   0  0  0  0  0  0  0  0  0  0  0  0
   21.8657  -25.8235   42.0955 H   0  0  0  0  0  0  0  0  0  0  0  0
   23.7656  -28.8617   41.2067 H   0  0  0  0  0  0  0  0  0  0  0  0
   22.9775  -30.5759   39.5931 H   0  0  0  0  0  0  0  0  0  0  0  0
   19.1415  -34.1148   40.1428 H   0  0  0  0  0  0  0  0  0  0  0  0
   18.2174  -36.0548   38.8711 H   0  0  0  0  0  0  0  0  0  0  0  0
   18.0838  -35.9679   36.3802 H   0  0  0  0  0  0  0  0  0  0  0  0
   18.3440  -34.6780   34.4720 H   0  0  0  0  0  0  0  0  0  0  0  0
   21.7210  -29.4550   36.0460 H   0  0  0  0  0  0  0  0  0  0  0  0
   19.0939  -28.6954   39.4964 H   0  0  0  0  0  0  0  0  0  0  0  0
   19.5649  -26.6462   42.3239 H   0  0  0  0  0  0  0  0  0  0  0  0
   19.9302  -25.7085   40.8360 H   0  0  0  0  0  0  0  0  0  0  0  0
   18.5932  -26.9082   40.8360 H   0  0  0  0  0  0  0  0  0  0  0  0
  1  2  1  0
  2  3  2  0
  3  4  1  0
  4  5  2  0
  5  6  1  0
  6  7  1  0
  7  8  1  0
  8  9  2  0
  9 10  1  0
 10 11  2  0
 11 12  1  0
 12 13  1  0
 12 14  2  0
 14 15  1  0
 15 16  2  0
 15 17  1  0
 17 18  1  0
  5 19  1  0
 19 20  2  0
 20 21  1  0
 20  2  1  0
 17  6  2  0
 14  8  1  0
  1 22  1  0
  1 23  1  0
  1 24  1  0
  3 25  1  0
  4 26  1  0
  9 27  1  0
 10 28  1  0
 11 29  1  0
 13 30  1  0
 18 31  1  0
 19 32  1  0
 21 33  1  0
 21 34  1  0
 21 35  1  0
M  END
>  <meeko>  (2) 
{"is_sidechain": [false], "free_energy": -9.199, "intermolecular_energy": -10.215, "internal_energy": -0.321}

$$$$
cand_036_out
     RDKit          3D

 35 37  0  0  0  0  0  0  0  0999 V2000
   19.7090  -32.2740   36.3710 C   0  0  0  0  0  0  0  0  0  0  0  0
   20.1980  -31.2820   37.3900 C   0  0  0  0  0  0  0  0  0  0  0  0
   20.9270  -30.1630   36.9660 C   0  0  0  0  0  0  0  0  0  0  0  0
   21.3970  -29.2210   37.8840 C   0  0  0  0  0  0  0  0  0  0  0  0
   21.1570  -29.3770   39.2530 C   0  0  0  0  0  0  0  0  0  0  0  0
   21.6200  -28.3810   40.2430 C   0  0  0  0  0  0  0  0  0  0  0  0
   22.5010  -28.9170   41.1760 O   0  0  0  0  0  0  0  0  0  0  0  0
   23.0090  -28.1010   42.1540 C   0  0  0  0  0  0  0  0  0  0  0  0
   23.8770  -28.6840   43.0780 C   0  0  0  0  0  0  0  0  0  0  0  0
   24.4320  -27.9090   44.0990 C   0  0  0  0  0  0  0  0  0  0  0  0
   24.1190  -26.5510   44.1950 C   0  0  0  0  0  0  0  0  0  0  0  0
   23.2530  -25.9720   43.2710 C   0  0  0  0  0  0  0  0  0  0  0  0
   22.9890  -24.6380   43.4230 O   0  0  0  0  0  0  0  0  0  0  0  0
   22.6970  -26.7490   42.2510 C   0  0  0  0  0  0  0  0  0  0  0  0
   21.7820  -26.1800   41.2600 C   0  0  0  0  0  0  0  0  0  0  0  0
   21.4640  -24.9920   41.2750 O   0  0  0  0  0  0  0  0  0  0  0  0
   21.2420  -27.0900   40.2240 C   0  0  0  0  0  0  0  0  0  0  0  0
   20.3890  -26.5390   39.2860 O   0  0  0  0  0  0  0  0  0  0  0  0
   20.4180  -30.4930   39.6760 C   0  0  0  0  0  0  0  0  0  0  0  0
   19.9370  -31.4490   38.7640 C   0  0  0  0  0  0  0  0  0  0  0  0
   19.1580  -32.6290   39.2760 C   0  0  0  0  0  0  0  0  0  0  0  0
   19.2791  -33.1462   36.8853 H   0  0  0  0  0  0  0  0  0  0  0  0
   18.9395  -31.8036   35.7412 H   0  0  0  0  0  0  0  0  0  0  0  0
   20.5507  -32.5978   35.7412 H   0  0  0  0  0  0  0  0  0  0  0  0
   21.1322  -30.0243   35.8942 H   0  0  0  0  0  0  0  0  0  0  0  0
   21.9618  -28.3474   37.5265 H   0  0  0  0  0  0  0  0  0  0  0  0
   24.1240  -29.7532   43.0024 H   0  0  0  0  0  0  0  0  0  0  0  0
   25.1159  -28.3683   44.8279 H   0  0  0  0  0  0  0  0  0  0  0  0
   24.5558  -25.9403   44.9989 H   0  0  0  0  0  0  0  0  0  0  0  0
   22.7850  -24.2950   44.2710 H   0  0  0  0  0  0  0  0  0  0  0  0
   20.7390  -26.1000   38.5350 H   0  0  0  0  0  0  0  0  0  0  0  0
   20.2099  -30.6229   40.7483 H   0  0  0  0  0  0  0  0  0  0  0  0
   19.1626  -32.6220   40.3760 H   0  0  0  0  0  0  0  0  0  0  0  0
   18.1212  -32.5692   38.9133 H   0  0  0  0  0  0  0  0  0  0  0  0
   19.6203  -33.5589   38.9133 H   0  0  0  0  0  0  0  0  0  0  0  0
  1  2  1  0
  2  3  2  0
  3  4  1  0
  4  5  2  0
  5  6  1  0
  6  7  1  0
  7  8  1  0
  8  9  2  0
  9 10  1  0
 10 11  2  0
 11 12  1  0
 12 13  1  0
 12 14  2  0
 14 15  1  0
 15 16  2  0
 15 17  1  0
 17 18  1  0
  5 19  1  0
 19 20  2  0
 20 21  1  0
 20  2  1  0
 17  6  2  0
 14  8  1  0
  1 22  1  0
  1 23  1  0
  1 24  1  0
  3 25  1  0
  4 26  1  0
  9 27  1  0
 10 28  1  0
 11 29  1  0
 13 30  1  0
 18 31  1  0
 19 32  1  0
 21 33  1  0
 21 34  1  0
 21 35  1  0
M  END
>  <meeko>  (3) 
{"is_sidechain": [false], "free_energy": -8.646, "intermolecular_energy": -9.752, "internal_energy": -0.166}

$$$$
cand_036_out
     RDKit          3D

 35 37  0  0  0  0  0  0  0  0999 V2000
   21.1640  -26.5640   41.5820 C   0  0  0  0  0  0  0  0  0  0  0  0
   20.8780  -27.7190   40.6630 C   0  0  0  0  0  0  0  0  0  0  0  0
   19.7050  -27.7130   39.8950 C   0  0  0  0  0  0  0  0  0  0  0  0
   19.4070  -28.7700   39.0310 C   0  0  0  0  0  0  0  0  0  0  0  0
   20.2700  -29.8640   38.9170 C   0  0  0  0  0  0  0  0  0  0  0  0
   19.9910  -30.9820   37.9900 C   0  0  0  0  0  0  0  0  0  0  0  0
   20.3840  -30.7110   36.6850 O   0  0  0  0  0  0  0  0  0  0  0  0
   20.1830  -31.6650   35.7200 C   0  0  0  0  0  0  0  0  0  0  0  0
   20.5780  -31.3450   34.4200 C   0  0  0  0  0  0  0  0  0  0  0  0
   20.4040  -32.2730   33.3910 C   0  0  0  0  0  0  0  0  0  0  0  0
   19.8360  -33.5190   33.6610 C   0  0  0  0  0  0  0  0  0  0  0  0
   19.4420  -33.8360   34.9590 C   0  0  0  0  0  0  0  0  0  0  0  0
   18.8930  -35.0740   35.1530 O   0  0  0  0  0  0  0  0  0  0  0  0
   19.6160  -32.9070   35.9880 C   0  0  0  0  0  0  0  0  0  0  0  0
   19.2170  -33.2000   37.3660 C   0  0  0  0  0  0  0  0  0  0  0  0
   18.7150  -34.2760   37.6830 O   0  0  0  0  0  0  0  0  0  0  0  0
   19.4370  -32.1440   38.3820 C   0  0  0  0  0  0  0  0  0  0  0  0
   19.0680  -32.4360   39.6810 O   0  0  0  0  0  0  0  0  0  0  0  0
   21.4490  -29.8640   39.6790 C   0  0  0  0  0  0  0  0  0  0  0  0
   21.7640  -28.8080   40.5520 C   0  0  0  0  0  0  0  0  0  0  0  0
   23.0380  -28.8670   41.3500 C   0  0  0  0  0  0  0  0  0  0  0  0
   21.0814  -26.8977   42.6269 H   0  0  0  0  0  0  0  0  0  0  0  0
   22.1818  -26.1905   41.3957 H   0  0  0  0  0  0  0  0  0  0  0  0
   20.4381  -25.7588   41.3957 H   0  0  0  0  0  0  0  0  0  0  0  0
   19.0096  -26.8644   39.9737 H   0  0  0  0  0  0  0  0  0  0  0  0
   18.4835  -28.7410   38.4341 H   0  0  0  0  0  0  0  0  0  0  0  0
   21.0257  -30.3632   34.2063 H   0  0  0  0  0  0  0  0  0  0  0  0
   20.7150  -32.0216   32.3663 H   0  0  0  0  0  0  0  0  0  0  0  0
   19.6997  -34.2496   32.8500 H   0  0  0  0  0  0  0  0  0  0  0  0
   17.9880  -35.1540   35.3810 H   0  0  0  0  0  0  0  0  0  0  0  0
   18.1830  -32.2990   39.9590 H   0  0  0  0  0  0  0  0  0  0  0  0
   22.1441  -30.7119   39.5908 H   0  0  0  0  0  0  0  0  0  0  0  0
   22.7990  -28.8559   42.4237 H   0  0  0  0  0  0  0  0  0  0  0  0
   23.5817  -29.7913   41.1049 H   0  0  0  0  0  0  0  0  0  0  0  0
   23.6648  -27.9969   41.1049 H   0  0  0  0  0  0  0  0  0  0  0  0
  1  2  1  0
  2  3  2  0
  3  4  1  0
  4  5  2  0
  5  6  1  0
  6  7  1  0
  7  8  1  0
  8  9  2  0
  9 10  1  0
 10 11  2  0
 11 12  1  0
 12 13  1  0
 12 14  2  0
 14 15  1  0
 15 16  2  0
 15 17  1  0
 17 18  1  0
  5 19  1  0
 19 20  2  0
 20 21  1  0
 20  2  1  0
 17  6  2  0
 14  8  1  0
  1 22  1  0
  1 23  1  0
  1 24  1  0
  3 25  1  0
  4 26  1  0
  9 27  1  0
 10 28  1  0
 11 29  1  0
 13 30  1  0
 18 31  1  0
 19 32  1  0
 21 33  1  0
 21 34  1  0
 21 35  1  0
M  END
>  <meeko>  (4) 
{"is_sidechain": [false], "free_energy": -8.577, "intermolecular_energy": -9.525, "internal_energy": -0.316}

$$$$
cand_036_out
     RDKit          3D

 35 37  0  0  0  0  0  0  0  0999 V2000
   20.0010  -30.8730   35.4770 C   0  0  0  0  0  0  0  0  0  0  0  0
   20.5700  -30.3740   36.7770 C   0  0  0  0  0  0  0  0  0  0  0  0
   21.3960  -29.2420   36.7760 C   0  0  0  0  0  0  0  0  0  0  0  0
   21.9420  -28.7510   37.9640 C   0  0  0  0  0  0  0  0  0  0  0  0
   21.6830  -29.3830   39.1850 C   0  0  0  0  0  0  0  0  0  0  0  0
   22.2270  -28.8680   40.4590 C   0  0  0  0  0  0  0  0  0  0  0  0
   23.1850  -29.7070   41.0150 O   0  0  0  0  0  0  0  0  0  0  0  0
   23.7730  -29.3490   42.2010 C   0  0  0  0  0  0  0  0  0  0  0  0
   24.7180  -30.2280   42.7310 C   0  0  0  0  0  0  0  0  0  0  0  0
   25.3560  -29.9220   43.9360 C   0  0  0  0  0  0  0  0  0  0  0  0
   25.0500  -28.7380   44.6090 C   0  0  0  0  0  0  0  0  0  0  0  0
   24.1060  -27.8620   44.0780 C   0  0  0  0  0  0  0  0  0  0  0  0
   23.8530  -26.7210   44.7890 O   0  0  0  0  0  0  0  0  0  0  0  0
   23.4670  -28.1690   42.8730 C   0  0  0  0  0  0  0  0  0  0  0  0
   22.4690  -27.2770   42.2810 C   0  0  0  0  0  0  0  0  0  0  0  0
   22.1510  -26.2150   42.8110 O   0  0  0  0  0  0  0  0  0  0  0  0
   21.8450  -27.6990   41.0050 C   0  0  0  0  0  0  0  0  0  0  0  0
   20.9140  -26.8420   40.4490 O   0  0  0  0  0  0  0  0  0  0  0  0
   20.8470  -30.5110   39.1850 C   0  0  0  0  0  0  0  0  0  0  0  0
   20.2880  -31.0160   37.9980 C   0  0  0  0  0  0  0  0  0  0  0  0
   19.4060  -32.2330   38.0590 C   0  0  0  0  0  0  0  0  0  0  0  0
   19.1884  -31.5856   35.6819 H   0  0  0  0  0  0  0  0  0  0  0  0
   19.6070  -30.0239   34.8992 H   0  0  0  0  0  0  0  0  0  0  0  0
   20.7914  -31.3744   34.8992 H   0  0  0  0  0  0  0  0  0  0  0  0
   21.6174  -28.7330   35.8263 H   0  0  0  0  0  0  0  0  0  0  0  0
   22.5829  -27.8573   37.9394 H   0  0  0  0  0  0  0  0  0  0  0  0
   24.9606  -31.1608   42.2009 H   0  0  0  0  0  0  0  0  0  0  0  0
   26.1004  -30.6152   44.3548 H   0  0  0  0  0  0  0  0  0  0  0  0
   25.5534  -28.4971   45.5569 H   0  0  0  0  0  0  0  0  0  0  0  0
   23.0020  -26.3320   44.7620 H   0  0  0  0  0  0  0  0  0  0  0  0
   21.1930  -26.0350   40.0610 H   0  0  0  0  0  0  0  0  0  0  0  0
   20.6237  -31.0125   40.1382 H   0  0  0  0  0  0  0  0  0  0  0  0
   19.2157  -32.4956   39.1101 H   0  0  0  0  0  0  0  0  0  0  0  0
   18.4514  -32.0196   37.5557 H   0  0  0  0  0  0  0  0  0  0  0  0
   19.9059  -33.0737   37.5557 H   0  0  0  0  0  0  0  0  0  0  0  0
  1  2  1  0
  2  3  2  0
  3  4  1  0
  4  5  2  0
  5  6  1  0
  6  7  1  0
  7  8  1  0
  8  9  2  0
  9 10  1  0
 10 11  2  0
 11 12  1  0
 12 13  1  0
 12 14  2  0
 14 15  1  0
 15 16  2  0
 15 17  1  0
 17 18  1  0
  5 19  1  0
 19 20  2  0
 20 21  1  0
 20  2  1  0
 17  6  2  0
 14  8  1  0
  1 22  1  0
  1 23  1  0
  1 24  1  0
  3 25  1  0
  4 26  1  0
  9 27  1  0
 10 28  1  0
 11 29  1  0
 13 30  1  0
 18 31  1  0
 19 32  1  0
 21 33  1  0
 21 34  1  0
 21 35  1  0
M  END
>  <meeko>  (5) 
{"is_sidechain": [false], "free_energy": -8.485, "intermolecular_energy": -9.503, "internal_energy": -0.236}

$$$$
cand_036_out
     RDKit          3D

 35 37  0  0  0  0  0  0  0  0999 V2000
   20.3150  -31.0560   36.0110 C   0  0  0  0  0  0  0  0  0  0  0  0
   20.7710  -30.4370   37.3030 C   0  0  0  0  0  0  0  0  0  0  0  0
   21.5450  -29.2690   37.2710 C   0  0  0  0  0  0  0  0  0  0  0  0
   21.9860  -28.6680   38.4520 C   0  0  0  0  0  0  0  0  0  0  0  0
   21.6720  -29.2220   39.6970 C   0  0  0  0  0  0  0  0  0  0  0  0
   22.1030  -28.5900   40.9620 C   0  0  0  0  0  0  0  0  0  0  0  0
   21.2940  -27.5230   41.3360 O   0  0  0  0  0  0  0  0  0  0  0  0
   21.5820  -26.8450   42.4930 C   0  0  0  0  0  0  0  0  0  0  0  0
   20.7530  -25.7720   42.8220 C   0  0  0  0  0  0  0  0  0  0  0  0
   20.9910  -25.0410   43.9890 C   0  0  0  0  0  0  0  0  0  0  0  0
   22.0550  -25.3830   44.8250 C   0  0  0  0  0  0  0  0  0  0  0  0
   22.8810  -26.4540   44.4940 C   0  0  0  0  0  0  0  0  0  0  0  0
   23.9050  -26.7350   45.3570 O   0  0  0  0  0  0  0  0  0  0  0  0
   22.6440  -27.1850   43.3260 C   0  0  0  0  0  0  0  0  0  0  0  0
   23.4870  -28.3180   42.9410 C   0  0  0  0  0  0  0  0  0  0  0  0
   24.4390  -28.6830   43.6290 O   0  0  0  0  0  0  0  0  0  0  0  0
   23.1560  -29.0220   41.6810 C   0  0  0  0  0  0  0  0  0  0  0  0
   23.9510  -30.0980   41.3340 O   0  0  0  0  0  0  0  0  0  0  0  0
   20.8880  -30.3860   39.7280 C   0  0  0  0  0  0  0  0  0  0  0  0
   20.4340  -31.0020   38.5490 C   0  0  0  0  0  0  0  0  0  0  0  0
   19.6050  -32.2530   38.6430 C   0  0  0  0  0  0  0  0  0  0  0  0
   19.6752  -31.9245   36.2263 H   0  0  0  0  0  0  0  0  0  0  0  0
   19.7450  -30.3155   35.4307 H   0  0  0  0  0  0  0  0  0  0  0  0
   21.1912  -31.3809   35.4307 H   0  0  0  0  0  0  0  0  0  0  0  0
   21.8088  -28.8195   36.3023 H   0  0  0  0  0  0  0  0  0  0  0  0
   22.5873  -27.7482   38.4023 H   0  0  0  0  0  0  0  0  0  0  0  0
   19.9138  -25.5020   42.1641 H   0  0  0  0  0  0  0  0  0  0  0  0
   20.3385  -24.1945   44.2492 H   0  0  0  0  0  0  0  0  0  0  0  0
   22.2407  -24.8074   45.7438 H   0  0  0  0  0  0  0  0  0  0  0  0
   24.2820  -27.5920   45.3730 H   0  0  0  0  0  0  0  0  0  0  0  0
   23.9370  -30.8770   41.8550 H   0  0  0  0  0  0  0  0  0  0  0  0
   20.6221  -30.8273   40.6999 H   0  0  0  0  0  0  0  0  0  0  0  0
   19.4387  -32.5040   39.7010 H   0  0  0  0  0  0  0  0  0  0  0  0
   18.6363  -32.0889   38.1484 H   0  0  0  0  0  0  0  0  0  0  0  0
   20.1336  -33.0812   38.1484 H   0  0  0  0  0  0  0  0  0  0  0  0
  1  2  1  0
  2  3  2  0
  3  4  1  0
  4  5  2  0
  5  6  1  0
  6  7  1  0
  7  8  1  0
  8  9  2  0
  9 10  1  0
 10 11  2  0
 11 12  1  0
 12 13  1  0
 12 14  2  0
 14 15  1  0
 15 16  2  0
 15 17  1  0
 17 18  1  0
  5 19  1  0
 19 20  2  0
 20 21  1  0
 20  2  1  0
 17  6  2  0
 14  8  1  0
  1 22  1  0
  1 23  1  0
  1 24  1  0
  3 25  1  0
  4 26  1  0
  9 27  1  0
 10 28  1  0
 11 29  1  0
 13 30  1  0
 18 31  1  0
 19 32  1  0
 21 33  1  0
 21 34  1  0
 21 35  1  0
M  END
>  <meeko>  (6) 
{"is_sidechain": [false], "free_energy": -8.473, "intermolecular_energy": -9.418, "internal_energy": -0.307}

$$$$
cand_036_out
     RDKit          3D

 35 37  0  0  0  0  0  0  0  0999 V2000
   22.5090  -25.6610   45.0500 C   0  0  0  0  0  0  0  0  0  0  0  0
   22.1760  -26.3770   43.7700 C   0  0  0  0  0  0  0  0  0  0  0  0
   20.9580  -26.1110   43.1300 C   0  0  0  0  0  0  0  0  0  0  0  0
   20.6160  -26.7570   41.9400 C   0  0  0  0  0  0  0  0  0  0  0  0
   21.4780  -27.6930   41.3610 C   0  0  0  0  0  0  0  0  0  0  0  0
   21.1520  -28.3720   40.0890 C   0  0  0  0  0  0  0  0  0  0  0  0
   20.7420  -29.6870   40.2690 O   0  0  0  0  0  0  0  0  0  0  0  0
   20.4070  -30.4350   39.1680 C   0  0  0  0  0  0  0  0  0  0  0  0
   20.0150  -31.7550   39.3940 C   0  0  0  0  0  0  0  0  0  0  0  0
   19.6600  -32.5700   38.3170 C   0  0  0  0  0  0  0  0  0  0  0  0
   19.6950  -32.0640   37.0150 C   0  0  0  0  0  0  0  0  0  0  0  0
   20.0860  -30.7460   36.7930 C   0  0  0  0  0  0  0  0  0  0  0  0
   20.0980  -30.3160   35.4950 O   0  0  0  0  0  0  0  0  0  0  0  0
   20.4430  -29.9320   37.8710 C   0  0  0  0  0  0  0  0  0  0  0  0
   20.8600  -28.5410   37.6820 C   0  0  0  0  0  0  0  0  0  0  0  0
   20.9100  -28.0230   36.5680 O   0  0  0  0  0  0  0  0  0  0  0  0
   21.2250  -27.7650   38.8900 C   0  0  0  0  0  0  0  0  0  0  0  0
   21.6050  -26.4500   38.7000 O   0  0  0  0  0  0  0  0  0  0  0  0
   22.7030  -27.9520   41.9980 C   0  0  0  0  0  0  0  0  0  0  0  0
   23.0630  -27.3080   43.1950 C   0  0  0  0  0  0  0  0  0  0  0  0
   24.3840  -27.6320   43.8370 C   0  0  0  0  0  0  0  0  0  0  0  0
   22.2180  -26.2868   45.9066 H   0  0  0  0  0  0  0  0  0  0  0  0
   23.5907  -25.4650   45.0898 H   0  0  0  0  0  0  0  0  0  0  0  0
   21.9619  -24.7075   45.0898 H   0  0  0  0  0  0  0  0  0  0  0  0
   20.2614  -25.3830   43.5712 H   0  0  0  0  0  0  0  0  0  0  0  0
   19.6572  -26.5266   41.4526 H   0  0  0  0  0  0  0  0  0  0  0  0
   19.9857  -32.1530   40.4190 H   0  0  0  0  0  0  0  0  0  0  0  0
   19.3525  -33.6113   38.4938 H   0  0  0  0  0  0  0  0  0  0  0  0
   19.4142  -32.7057   36.1668 H   0  0  0  0  0  0  0  0  0  0  0  0
   20.6840  -29.6330   35.2330 H   0  0  0  0  0  0  0  0  0  0  0  0
   22.2380  -26.2350   38.0440 H   0  0  0  0  0  0  0  0  0  0  0  0
   23.3981  -28.6768   41.5491 H   0  0  0  0  0  0  0  0  0  0  0  0
   24.2761  -27.6055   44.9314 H   0  0  0  0  0  0  0  0  0  0  0  0
   24.7071  -28.6360   43.5246 H   0  0  0  0  0  0  0  0  0  0  0  0
   25.1350  -26.8914   43.5246 H   0  0  0  0  0  0  0  0  0  0  0  0
  1  2  1  0
  2  3  2  0
  3  4  1  0
  4  5  2  0
  5  6  1  0
  6  7  1  0
  7  8  1  0
  8  9  2  0
  9 10  1  0
 10 11  2  0
 11 12  1  0
 12 13  1  0
 12 14  2  0
 14 15  1  0
 15 16  2  0
 15 17  1  0
 17 18  1  0
  5 19  1  0
 19 20  2  0
 20 21  1  0
 20  2  1  0
 17  6  2  0
 14  8  1  0
  1 22  1  0
  1 23  1  0
  1 24  1  0
  3 25  1  0
  4 26  1  0
  9 27  1  0
 10 28  1  0
 11 29  1  0
 13 30  1  0
 18 31  1  0
 19 32  1  0
 21 33  1  0
 21 34  1  0
 21 35  1  0
M  END
>  <meeko>  (7) 
{"is_sidechain": [false], "free_energy": -8.455, "intermolecular_energy": -9.421, "internal_energy": -0.284}

$$$$
cand_036_out
     RDKit          3D

 35 37  0  0  0  0  0  0  0  0999 V2000
   24.1420  -28.5680   44.9540 C   0  0  0  0  0  0  0  0  0  0  0  0
   23.4850  -28.4120   43.6100 C   0  0  0  0  0  0  0  0  0  0  0  0
   22.5160  -27.4160   43.4310 C   0  0  0  0  0  0  0  0  0  0  0  0
   21.8850  -27.2430   42.1970 C   0  0  0  0  0  0  0  0  0  0  0  0
   22.2000  -28.0660   41.1110 C   0  0  0  0  0  0  0  0  0  0  0  0
   21.5660  -27.8860   39.7870 C   0  0  0  0  0  0  0  0  0  0  0  0
   21.5560  -29.0520   39.0310 O   0  0  0  0  0  0  0  0  0  0  0  0
   20.9960  -29.0270   37.7790 C   0  0  0  0  0  0  0  0  0  0  0  0
   21.0220  -30.2160   37.0490 C   0  0  0  0  0  0  0  0  0  0  0  0
   20.4670  -30.2590   35.7680 C   0  0  0  0  0  0  0  0  0  0  0  0
   19.8870  -29.1140   35.2180 C   0  0  0  0  0  0  0  0  0  0  0  0
   19.8620  -27.9290   35.9490 C   0  0  0  0  0  0  0  0  0  0  0  0
   19.2790  -26.8450   35.3510 O   0  0  0  0  0  0  0  0  0  0  0  0
   20.4190  -27.8860   37.2300 C   0  0  0  0  0  0  0  0  0  0  0  0
   20.4140  -26.6610   38.0320 C   0  0  0  0  0  0  0  0  0  0  0  0
   19.9170  -25.6160   37.6200 O   0  0  0  0  0  0  0  0  0  0  0  0
   21.0360  -26.7200   39.3750 C   0  0  0  0  0  0  0  0  0  0  0  0
   21.0150  -25.5610   40.1280 O   0  0  0  0  0  0  0  0  0  0  0  0
   23.1770  -29.0570   41.2900 C   0  0  0  0  0  0  0  0  0  0  0  0
   23.8230  -29.2430   42.5250 C   0  0  0  0  0  0  0  0  0  0  0  0
   24.8560  -30.3280   42.6600 C   0  0  0  0  0  0  0  0  0  0  0  0
   23.4005  -28.3919   45.7472 H   0  0  0  0  0  0  0  0  0  0  0  0
   24.5455  -29.5869   45.0488 H   0  0  0  0  0  0  0  0  0  0  0  0
   24.9605  -27.8392   45.0488 H   0  0  0  0  0  0  0  0  0  0  0  0
   22.2486  -26.7615   44.2737 H   0  0  0  0  0  0  0  0  0  0  0  0
   21.1317  -26.4503   42.0780 H   0  0  0  0  0  0  0  0  0  0  0  0
   21.4790  -31.1181   37.4818 H   0  0  0  0  0  0  0  0  0  0  0  0
   20.4868  -31.1958   35.1918 H   0  0  0  0  0  0  0  0  0  0  0  0
   19.4505  -29.1480   34.2089 H   0  0  0  0  0  0  0  0  0  0  0  0
   19.1040  -26.8560   34.4300 H   0  0  0  0  0  0  0  0  0  0  0  0
   20.3120  -24.9490   40.0270 H   0  0  0  0  0  0  0  0  0  0  0  0
   23.4445  -29.7051   40.4424 H   0  0  0  0  0  0  0  0  0  0  0  0
   25.0436  -30.5251   43.7258 H   0  0  0  0  0  0  0  0  0  0  0  0
   24.4894  -31.2455   42.1765 H   0  0  0  0  0  0  0  0  0  0  0  0
   25.7904  -30.0069   42.1765 H   0  0  0  0  0  0  0  0  0  0  0  0
  1  2  1  0
  2  3  2  0
  3  4  1  0
  4  5  2  0
  5  6  1  0
  6  7  1  0
  7  8  1  0
  8  9  2  0
  9 10  1  0
 10 11  2  0
 11 12  1  0
 12 13  1  0
 12 14  2  0
 14 15  1  0
 15 16  2  0
 15 17  1  0
 17 18  1  0
  5 19  1  0
 19 20  2  0
 20 21  1  0
 20  2  1  0
 17  6  2  0
 14  8  1  0
  1 22  1  0
  1 23  1  0
  1 24  1  0
  3 25  1  0
  4 26  1  0
  9 27  1  0
 10 28  1  0
 11 29  1  0
 13 30  1  0
 18 31  1  0
 19 32  1  0
 21 33  1  0
 21 34  1  0
 21 35  1  0
M  END
>  <meeko>  (8) 
{"is_sidechain": [false], "free_energy": -7.938, "intermolecular_energy": -9.341, "internal_energy": 0.215}

$$$$
cand_036_out
     RDKit          3D

 35 37  0  0  0  0  0  0  0  0999 V2000
   18.8910  -34.6610   36.4620 C   0  0  0  0  0  0  0  0  0  0  0  0
   19.2080  -33.4030   37.2240 C   0  0  0  0  0  0  0  0  0  0  0  0
   19.6880  -32.2830   36.5330 C   0  0  0  0  0  0  0  0  0  0  0  0
   19.9920  -31.0990   37.2090 C   0  0  0  0  0  0  0  0  0  0  0  0
   19.8320  -31.0050   38.5950 C   0  0  0  0  0  0  0  0  0  0  0  0
   20.1220  -29.7560   39.3300 C   0  0  0  0  0  0  0  0  0  0  0  0
   21.3120  -29.8140   40.0450 O   0  0  0  0  0  0  0  0  0  0  0  0
   21.7040  -28.7200   40.7740 C   0  0  0  0  0  0  0  0  0  0  0  0
   22.8970  -28.8270   41.4880 C   0  0  0  0  0  0  0  0  0  0  0  0
   23.3540  -27.7480   42.2490 C   0  0  0  0  0  0  0  0  0  0  0  0
   22.6170  -26.5630   42.2950 C   0  0  0  0  0  0  0  0  0  0  0  0
   21.4250  -26.4590   41.5810 C   0  0  0  0  0  0  0  0  0  0  0  0
   20.7530  -25.2700   41.6710 O   0  0  0  0  0  0  0  0  0  0  0  0
   20.9690  -27.5390   40.8210 C   0  0  0  0  0  0  0  0  0  0  0  0
   19.7220  -27.4710   40.0560 C   0  0  0  0  0  0  0  0  0  0  0  0
   19.0220  -26.4610   40.0420 O   0  0  0  0  0  0  0  0  0  0  0  0
   19.3230  -28.6740   39.2890 C   0  0  0  0  0  0  0  0  0  0  0  0
   18.1510  -28.5930   38.5600 O   0  0  0  0  0  0  0  0  0  0  0  0
   19.3420  -32.1260   39.2850 C   0  0  0  0  0  0  0  0  0  0  0  0
   19.0290  -33.3240   38.6190 C   0  0  0  0  0  0  0  0  0  0  0  0
   18.5160  -34.4940   39.4120 C   0  0  0  0  0  0  0  0  0  0  0  0
   18.6854  -35.4769   37.1705 H   0  0  0  0  0  0  0  0  0  0  0  0
   18.0070  -34.4935   35.8292 H   0  0  0  0  0  0  0  0  0  0  0  0
   19.7488  -34.9324   35.8292 H   0  0  0  0  0  0  0  0  0  0  0  0
   19.8274  -32.3366   35.4432 H   0  0  0  0  0  0  0  0  0  0  0  0
   20.3616  -30.2303   36.6444 H   0  0  0  0  0  0  0  0  0  0  0  0
   23.4780  -29.7604   41.4521 H   0  0  0  0  0  0  0  0  0  0  0  0
   24.2951  -27.8322   42.8123 H   0  0  0  0  0  0  0  0  0  0  0  0
   22.9767  -25.7132   42.8937 H   0  0  0  0  0  0  0  0  0  0  0  0
   19.9070  -25.2400   42.0710 H   0  0  0  0  0  0  0  0  0  0  0  0
   17.6360  -29.3630   38.4150 H   0  0  0  0  0  0  0  0  0  0  0  0
   19.1995  -32.0651   40.3740 H   0  0  0  0  0  0  0  0  0  0  0  0
   18.6105  -34.2784   40.4865 H   0  0  0  0  0  0  0  0  0  0  0  0
   17.4585  -34.6691   39.1648 H   0  0  0  0  0  0  0  0  0  0  0  0
   19.1036  -35.3904   39.1648 H   0  0  0  0  0  0  0  0  0  0  0  0
  1  2  1  0
  2  3  2  0
  3  4  1  0
  4  5  2  0
  5  6  1  0
  6  7  1  0
  7  8  1  0
  8  9  2  0
  9 10  1  0
 10 11  2  0
 11 12  1  0
 12 13  1  0
 12 14  2  0
 14 15  1  0
 15 16  2  0
 15 17  1  0
 17 18  1  0
  5 19  1  0
 19 20  2  0
 20 21  1  0
 20  2  1  0
 17  6  2  0
 14  8  1  0
  1 22  1  0
  1 23  1  0
  1 24  1  0
  3 25  1  0
  4 26  1  0
  9 27  1  0
 10 28  1  0
 11 29  1  0
 13 30  1  0
 18 31  1  0
 19 32  1  0
 21 33  1  0
 21 34  1  0
 21 35  1  0
M  END
>  <meeko>  (9) 
{"is_sidechain": [false], "free_energy": -7.792, "intermolecular_energy": -8.686, "internal_energy": -0.278}

$$$$
