cand_054_out
     RDKit          3D

 46 48  0  0  0  0  0  0  0  0999 V2000
   20.0270  -24.9500   43.8070 C   0  0  0  0  0  0  0  0  0  0  0  0
   19.7890  -26.0110   42.7420 C   0  0  0  0  0  0  0  0  0  0  0  0
   20.7820  -25.9160   41.6520 N   0  0  0  0  0  0  0  0  0  0  0  0
   20.2860  -25.2730   40.4190 C   0  0  0  0  0  0  0  0  0  0  0  0
   18.7710  -25.1320   40.4730 C   0  0  0  0  0  0  0  0  0  0  0  0
   21.3970  -27.1580   41.3400 C   0  0  0  0  0  0  0  0  0  0  0  0
   20.8330  -28.0590   40.4170 C   0  0  0  0  0  0  0  0  0  0  0  0
   21.4560  -29.2740   40.0990 C   0  0  0  0  0  0  0  0  0  0  0  0
   20.8500  -30.2320   39.1490 C   0  0  0  0  0  0  0  0  0  0  0  0
   20.1950  -31.2800   39.7860 O   0  0  0  0  0  0  0  0  0  0  0  0
   19.5860  -32.2430   39.0230 C   0  0  0  0  0  0  0  0  0  0  0  0
   18.9280  -33.2680   39.7030 C   0  0  0  0  0  0  0  0  0  0  0  0
   18.2870  -34.2810   38.9850 C   0  0  0  0  0  0  0  0  0  0  0  0
   18.3080  -34.2700   37.5880 C   0  0  0  0  0  0  0  0  0  0  0  0
   18.9670  -33.2460   36.9130 C   0  0  0  0  0  0  0  0  0  0  0  0
   18.9480  -33.2960   35.5460 O   0  0  0  0  0  0  0  0  0  0  0  0
   19.6050  -32.2310   37.6320 C   0  0  0  0  0  0  0  0  0  0  0  0
   20.3080  -31.1370   36.9610 C   0  0  0  0  0  0  0  0  0  0  0  0
   20.3760  -31.0610   35.7350 O   0  0  0  0  0  0  0  0  0  0  0  0
   20.9450  -30.1080   37.8130 C   0  0  0  0  0  0  0  0  0  0  0  0
   21.6180  -29.0860   37.1670 O   0  0  0  0  0  0  0  0  0  0  0  0
   22.6640  -29.5910   40.7310 C   0  0  0  0  0  0  0  0  0  0  0  0
   23.2460  -28.7050   41.6410 C   0  0  0  0  0  0  0  0  0  0  0  0
   22.6270  -27.4870   41.9470 C   0  0  0  0  0  0  0  0  0  0  0  0
   23.2790  -26.5480   42.9260 C   0  0  0  0  0  0  0  0  0  0  0  0
   19.9255  -25.4025   44.8045 H   0  0  0  0  0  0  0  0  0  0  0  0
   21.0401  -24.5369   43.6931 H   0  0  0  0  0  0  0  0  0  0  0  0
   19.2874  -24.1438   43.6931 H   0  0  0  0  0  0  0  0  0  0  0  0
   19.8615  -27.0058   43.2059 H   0  0  0  0  0  0  0  0  0  0  0  0
   18.7889  -25.8512   42.3128 H   0  0  0  0  0  0  0  0  0  0  0  0
   20.7405  -24.2761   40.3208 H   0  0  0  0  0  0  0  0  0  0  0  0
   20.5581  -25.8963   39.5545 H   0  0  0  0  0  0  0  0  0  0  0  0
   18.4428  -25.1015   41.5224 H   0  0  0  0  0  0  0  0  0  0  0  0
   18.4711  -24.2021   39.9678 H   0  0  0  0  0  0  0  0  0  0  0  0
   18.3046  -25.9906   39.9678 H   0  0  0  0  0  0  0  0  0  0  0  0
   19.8790  -27.8031   39.9329 H   0  0  0  0  0  0  0  0  0  0  0  0
   18.9138  -33.2788   40.8029 H   0  0  0  0  0  0  0  0  0  0  0  0
   17.7653  -35.0880   39.5202 H   0  0  0  0  0  0  0  0  0  0  0  0
   17.8051  -35.0685   37.0228 H   0  0  0  0  0  0  0  0  0  0  0  0
   18.7980  -34.1120   35.1080 H   0  0  0  0  0  0  0  0  0  0  0  0
   21.1370  -28.4100   36.7330 H   0  0  0  0  0  0  0  0  0  0  0  0
   23.1601  -30.5473   40.5089 H   0  0  0  0  0  0  0  0  0  0  0  0
   24.2000  -28.9669   42.1219 H   0  0  0  0  0  0  0  0  0  0  0  0
   23.0531  -26.8734   43.9522 H   0  0  0  0  0  0  0  0  0  0  0  0
   24.3680  -26.5544   42.7706 H   0  0  0  0  0  0  0  0  0  0  0  0
   22.8925  -25.5299   42.7706 H   0  0  0  0  0  0  0  0  0  0  0  0
  1  2  1  0
  2  3  1  0
  3  4  1  0
  4  5  1  0
  3  6  1  0
  6  7  2  0
  7  8  1  0
  8  9  1  0
  9 10  1  0
 10 11  1  0
 11 12  2  0
 12 13  1  0
 13 14  2  0
 14 15  1  0
 15 16  1  0
 15 17  2  0
 17 18  1  0
 18 19  2  0
 18 20  1  0
 20 21  1  0
  8 22  2  0
 22 23  1  0
 23 24  2  0
 24 25  1  0
 24  6  1  0
 20  9  2  0
 17 11  1  0
  1 26  1  0
  1 27  1  0
  1 28  1  0
  2 29  1  0
  2 30  1  0
  4 31  1  0
  4 32  1  0
  5 33  1  0
  5 34  1  0
  5 35  1  0
  7 36  1  0
 12 37  1  0
 13 38  1  0
 14 39  1  0
 16 40  1  0
 21 41  1  0
 22 42  1  0
 23 43  1  0
 25 44  1  0
 25 45  1  0
 25 46  1  0
M  END
>  <meeko>  (1) 
{"is_sidechain": [false], "free_energy": -8.621, "intermolecular_energy": -11.14, "internal_energy": -0.723}

$$$$
cand_054_out
     RDKit          3D

 46 48  0  0  0  0  0  0  0  0999 V2000
   24.4870  -30.4930   43.5710 C   0  0  0  0  0  0  0  0  0  0  0  0
   24.5240  -29.4860   42.4290 C   0  0  0  0  0  0  0  0  0  0  0  0
   23.6670  -28.3170   42.7120 N   0  0  0  0  0  0  0  0  0  0  0  0
   22.9970  -28.3450   44.0280 C   0  0  0  0  0  0  0  0  0  0  0  0
   23.6750  -27.3720   44.9820 C   0  0  0  0  0  0  0  0  0  0  0  0
   22.7190  -28.0510   41.6880 C   0  0  0  0  0  0  0  0  0  0  0  0
   22.2050  -29.0720   40.8650 C   0  0  0  0  0  0  0  0  0  0  0  0
   21.2530  -28.8060   39.8690 C   0  0  0  0  0  0  0  0  0  0  0  0
   20.7330  -29.8740   38.9890 C   0  0  0  0  0  0  0  0  0  0  0  0
   20.0820  -30.8830   39.6910 O   0  0  0  0  0  0  0  0  0  0  0  0
   19.5500  -31.9370   38.9950 C   0  0  0  0  0  0  0  0  0  0  0  0
   18.8930  -32.9190   39.7380 C   0  0  0  0  0  0  0  0  0  0  0  0
   18.3280  -34.0210   39.0910 C   0  0  0  0  0  0  0  0  0  0  0  0
   18.4240  -34.1420   37.7030 C   0  0  0  0  0  0  0  0  0  0  0  0
   19.0810  -33.1610   36.9650 C   0  0  0  0  0  0  0  0  0  0  0  0
   19.1370  -33.3420   35.6100 O   0  0  0  0  0  0  0  0  0  0  0  0
   19.6430  -32.0580   37.6120 C   0  0  0  0  0  0  0  0  0  0  0  0
   20.3420  -31.0050   36.8740 C   0  0  0  0  0  0  0  0  0  0  0  0
   20.4720  -31.0430   35.6520 O   0  0  0  0  0  0  0  0  0  0  0  0
   20.8960  -29.8740   37.6530 C   0  0  0  0  0  0  0  0  0  0  0  0
   21.5650  -28.8910   36.9460 O   0  0  0  0  0  0  0  0  0  0  0  0
   20.8220  -27.4860   39.6920 C   0  0  0  0  0  0  0  0  0  0  0  0
   21.3130  -26.4620   40.5050 C   0  0  0  0  0  0  0  0  0  0  0  0
   22.2530  -26.7330   41.5080 C   0  0  0  0  0  0  0  0  0  0  0  0
   22.7590  -25.6110   42.3740 C   0  0  0  0  0  0  0  0  0  0  0  0
   24.5066  -29.9583   44.5321 H   0  0  0  0  0  0  0  0  0  0  0  0
   23.5663  -31.0910   43.5028 H   0  0  0  0  0  0  0  0  0  0  0  0
   25.3614  -31.1570   43.5028 H   0  0  0  0  0  0  0  0  0  0  0  0
   25.5598  -29.1441   42.2870 H   0  0  0  0  0  0  0  0  0  0  0  0
   24.1472  -29.9792   41.5208 H   0  0  0  0  0  0  0  0  0  0  0  0
   21.9421  -28.0584   43.9052 H   0  0  0  0  0  0  0  0  0  0  0  0
   23.0632  -29.3613   44.4437 H   0  0  0  0  0  0  0  0  0  0  0  0
   23.4667  -27.6709   46.0199 H   0  0  0  0  0  0  0  0  0  0  0  0
   24.7610  -27.3844   44.8078 H   0  0  0  0  0  0  0  0  0  0  0  0
   23.2873  -26.3574   44.8078 H   0  0  0  0  0  0  0  0  0  0  0  0
   22.5588  -30.1039   41.0066 H   0  0  0  0  0  0  0  0  0  0  0  0
   18.8201  -32.8255   40.8316 H   0  0  0  0  0  0  0  0  0  0  0  0
   17.8072  -34.7939   39.6753 H   0  0  0  0  0  0  0  0  0  0  0  0
   17.9814  -35.0107   37.1937 H   0  0  0  0  0  0  0  0  0  0  0  0
   19.7030  -32.8060   35.0880 H   0  0  0  0  0  0  0  0  0  0  0  0
   22.2230  -28.3760   37.3680 H   0  0  0  0  0  0  0  0  0  0  0  0
   20.0896  -27.2530   38.9051 H   0  0  0  0  0  0  0  0  0  0  0  0
   20.9579  -25.4316   40.3563 H   0  0  0  0  0  0  0  0  0  0  0  0
   22.6369  -25.8817   43.4332 H   0  0  0  0  0  0  0  0  0  0  0  0
   23.8237  -25.4349   42.1609 H   0  0  0  0  0  0  0  0  0  0  0  0
   22.1862  -24.6964   42.1609 H   0  0  0  0  0  0  0  0  0  0  0  0
  1  2  1  0
  2  3  1  0
  3  4  1  0
  4  5  1  0
  3  6  1  0
  6  7  2  0
  7  8  1  0
  8  9  1  0
  9 10  1  0
 10 11  1  0
 11 12  2  0
 12 13  1  0
 13 14  2  0
 14 15  1  0
 15 16  1  0
 15 17  2  0
 17 18  1  0
 18 19  2  0
 18 20  1  0
 20 21  1  0
  8 22  2  0
 22 23  1  0
 23 24  2  0
 24 25  1  0
 24  6  1  0
 20  9  2  0
 17 11  1  0
  1 26  1  0
  1 27  1  0
  1 28  1  0
  2 29  1  0
  2 30  1  0
  4 31  1  0
  4 32  1  0
  5 33  1  0
  5 34  1  0
  5 35  1  0
  7 36  1  0
 12 37  1  0
 13 38  1  0
 14 39  1  0
 16 40  1  0
 21 41  1  0
 22 42  1  0
 23 43  1  0
 25 44  1  0
 25 45  1  0
 25 46  1  0
M  END
>  <meeko>  (2) 
{"is_sidechain": [false], "free_energy": -8.216, "intermolecular_energy": -11.274, "internal_energy": -0.067}

$$$$
cand_054_out
     RDKit          3D

 46 48  0  0  0  0  0  0  0  0999 V2000
   18.5640  -33.5960   40.0870 C   0  0  0  0  0  0  0  0  0  0  0  0
   18.2810  -32.3370   39.2800 C   0  0  0  0  0  0  0  0  0  0  0  0
   19.0550  -32.3150   38.0220 N   0  0  0  0  0  0  0  0  0  0  0  0
   19.6550  -33.6110   37.6440 C   0  0  0  0  0  0  0  0  0  0  0  0
   18.7140  -34.3780   36.7270 C   0  0  0  0  0  0  0  0  0  0  0  0
   20.0380  -31.2920   37.9810 C   0  0  0  0  0  0  0  0  0  0  0  0
   20.6240  -30.7730   39.1520 C   0  0  0  0  0  0  0  0  0  0  0  0
   21.6090  -29.7760   39.1040 C   0  0  0  0  0  0  0  0  0  0  0  0
   22.2050  -29.2140   40.3350 C   0  0  0  0  0  0  0  0  0  0  0  0
   23.1450  -30.0600   40.9140 O   0  0  0  0  0  0  0  0  0  0  0  0
   23.7770  -29.6620   42.0630 C   0  0  0  0  0  0  0  0  0  0  0  0
   24.7220  -30.5350   42.6010 C   0  0  0  0  0  0  0  0  0  0  0  0
   25.4020  -30.1900   43.7720 C   0  0  0  0  0  0  0  0  0  0  0  0
   25.1340  -28.9740   44.4050 C   0  0  0  0  0  0  0  0  0  0  0  0
   24.1890  -28.1060   43.8660 C   0  0  0  0  0  0  0  0  0  0  0  0
   23.9750  -26.9320   44.5360 O   0  0  0  0  0  0  0  0  0  0  0  0
   23.5110  -28.4500   42.6930 C   0  0  0  0  0  0  0  0  0  0  0  0
   22.5110  -27.5660   42.0940 C   0  0  0  0  0  0  0  0  0  0  0  0
   22.2150  -26.4820   42.5940 O   0  0  0  0  0  0  0  0  0  0  0  0
   21.8540  -28.0200   40.8470 C   0  0  0  0  0  0  0  0  0  0  0  0
   20.9010  -27.1820   40.2960 O   0  0  0  0  0  0  0  0  0  0  0  0
   22.0020  -29.2850   37.8540 C   0  0  0  0  0  0  0  0  0  0  0  0
   21.4400  -29.7930   36.6800 C   0  0  0  0  0  0  0  0  0  0  0  0
   20.4660  -30.7990   36.7310 C   0  0  0  0  0  0  0  0  0  0  0  0
   19.8830  -31.3340   35.4510 C   0  0  0  0  0  0  0  0  0  0  0  0
   18.5116  -33.3628   41.1607 H   0  0  0  0  0  0  0  0  0  0  0  0
   17.8162  -34.3645   39.8418 H   0  0  0  0  0  0  0  0  0  0  0  0
   19.5688  -33.9706   39.8418 H   0  0  0  0  0  0  0  0  0  0  0  0
   17.2081  -32.2997   39.0403 H   0  0  0  0  0  0  0  0  0  0  0  0
   18.5779  -31.4664   39.8832 H   0  0  0  0  0  0  0  0  0  0  0  0
   20.6062  -33.4324   37.1213 H   0  0  0  0  0  0  0  0  0  0  0  0
   19.8319  -34.2036   38.5537 H   0  0  0  0  0  0  0  0  0  0  0  0
   18.0027  -34.9578   37.3335 H   0  0  0  0  0  0  0  0  0  0  0  0
   18.1620  -33.6692   36.0922 H   0  0  0  0  0  0  0  0  0  0  0  0
   19.2969  -35.0616   36.0922 H   0  0  0  0  0  0  0  0  0  0  0  0
   20.3006  -31.1598   40.1296 H   0  0  0  0  0  0  0  0  0  0  0  0
   24.9318  -31.4938   42.1043 H   0  0  0  0  0  0  0  0  0  0  0  0
   26.1493  -30.8769   44.1959 H   0  0  0  0  0  0  0  0  0  0  0  0
   25.6686  -28.7031   45.3274 H   0  0  0  0  0  0  0  0  0  0  0  0
   23.5380  -26.9380   45.3650 H   0  0  0  0  0  0  0  0  0  0  0  0
   19.9940  -27.4090   40.3420 H   0  0  0  0  0  0  0  0  0  0  0  0
   22.7611  -28.4911   37.7950 H   0  0  0  0  0  0  0  0  0  0  0  0
   21.7655  -29.3992   35.7058 H   0  0  0  0  0  0  0  0  0  0  0  0
   19.0910  -32.0608   35.6844 H   0  0  0  0  0  0  0  0  0  0  0  0
   19.4587  -30.5044   34.8665 H   0  0  0  0  0  0  0  0  0  0  0  0
   20.6732  -31.8279   34.8665 H   0  0  0  0  0  0  0  0  0  0  0  0
  1  2  1  0
  2  3  1  0
  3  4  1  0
  4  5  1  0
  3  6  1  0
  6  7  2  0
  7  8  1  0
  8  9  1  0
  9 10  1  0
 10 11  1  0
 11 12  2  0
 12 13  1  0
 13 14  2  0
 14 15  1  0
 15 16  1  0
 15 17  2  0
 17 18  1  0
 18 19  2  0
 18 20  1  0
 20 21  1  0
  8 22  2  0
 22 23  1  0
 23 24  2  0
 24 25  1  0
 24  6  1  0
 20  9  2  0
 17 11  1  0
  1 26  1  0
  1 27  1  0
  1 28  1  0
  2 29  1  0
  2 30  1  0
  4 31  1  0
  4 32  1  0
  5 33  1  0
  5 34  1  0
  5 35  1  0
  7 36  1  0
 12 37  1  0
 13 38  1  0
 14 39  1  0
 16 40  1  0
 21 41  1  0
 22 42  1  0
 23 43  1  0
 25 44  1  0
 25 45  1  0
 25 46  1  0
M  END
>  <meeko>  (3) 
{"is_sidechain": [false], "free_energy": -8.125, "intermolecular_energy": -10.962, "internal_energy": -0.26}

$$$$
cand_054_out
     RDKit          3D

 46 48  0  0  0  0  0  0  0  0999 V2000
   18.5450  -24.7170   40.8490 C   0  0  0  0  0  0  0  0  0  0  0  0
   18.5910  -25.8540   39.8380 C   0  0  0  0  0  0  0  0  0  0  0  0
   19.9290  -25.9790   39.2240 N   0  0  0  0  0  0  0  0  0  0  0  0
   19.9990  -25.5670   37.8070 C   0  0  0  0  0  0  0  0  0  0  0  0
   18.5990  -25.3200   37.2630 C   0  0  0  0  0  0  0  0  0  0  0  0
   20.5080  -27.2650   39.3870 C   0  0  0  0  0  0  0  0  0  0  0  0
   20.1370  -28.3570   38.5790 C   0  0  0  0  0  0  0  0  0  0  0  0
   20.7270  -29.6210   38.7320 C   0  0  0  0  0  0  0  0  0  0  0  0
   20.3190  -30.7730   37.9010 C   0  0  0  0  0  0  0  0  0  0  0  0
   20.6570  -30.6190   36.5610 O   0  0  0  0  0  0  0  0  0  0  0  0
   20.3370  -31.6160   35.6760 C   0  0  0  0  0  0  0  0  0  0  0  0
   20.7080  -31.4250   34.3450 C   0  0  0  0  0  0  0  0  0  0  0  0
   20.4100  -32.4030   33.3920 C   0  0  0  0  0  0  0  0  0  0  0  0
   19.7400  -33.5680   33.7710 C   0  0  0  0  0  0  0  0  0  0  0  0
   19.3700  -33.7550   35.1000 C   0  0  0  0  0  0  0  0  0  0  0  0
   18.7170  -34.9180   35.4020 O   0  0  0  0  0  0  0  0  0  0  0  0
   19.6700  -32.7770   36.0530 C   0  0  0  0  0  0  0  0  0  0  0  0
   19.3000  -32.9350   37.4600 C   0  0  0  0  0  0  0  0  0  0  0  0
   18.7030  -33.9290   37.8700 O   0  0  0  0  0  0  0  0  0  0  0  0
   19.6700  -31.8450   38.3920 C   0  0  0  0  0  0  0  0  0  0  0  0
   19.3030  -31.9990   39.7170 O   0  0  0  0  0  0  0  0  0  0  0  0
   21.6990  -29.7880   39.7250 C   0  0  0  0  0  0  0  0  0  0  0  0
   22.0880  -28.7150   40.5290 C   0  0  0  0  0  0  0  0  0  0  0  0
   21.5060  -27.4510   40.3650 C   0  0  0  0  0  0  0  0  0  0  0  0
   21.9490  -26.3100   41.2410 C   0  0  0  0  0  0  0  0  0  0  0  0
   18.5618  -25.1314   41.8678 H   0  0  0  0  0  0  0  0  0  0  0  0
   19.4174  -24.0627   40.7049 H   0  0  0  0  0  0  0  0  0  0  0  0
   17.6226  -24.1353   40.7049 H   0  0  0  0  0  0  0  0  0  0  0  0
   18.3425  -26.7963   40.3483 H   0  0  0  0  0  0  0  0  0  0  0  0
   17.8646  -25.6367   39.0411 H   0  0  0  0  0  0  0  0  0  0  0  0
   20.5890  -24.6421   37.7260 H   0  0  0  0  0  0  0  0  0  0  0  0
   20.4755  -26.3680   37.2228 H   0  0  0  0  0  0  0  0  0  0  0  0
   17.8968  -25.1961   38.1006 H   0  0  0  0  0  0  0  0  0  0  0  0
   18.6003  -24.4082   36.6477 H   0  0  0  0  0  0  0  0  0  0  0  0
   18.2882  -26.1772   36.6477 H   0  0  0  0  0  0  0  0  0  0  0  0
   19.3650  -28.2156   37.8082 H   0  0  0  0  0  0  0  0  0  0  0  0
   21.2341  -30.5064   34.0460 H   0  0  0  0  0  0  0  0  0  0  0  0
   20.7036  -32.2548   32.3423 H   0  0  0  0  0  0  0  0  0  0  0  0
   19.5048  -34.3370   33.0204 H   0  0  0  0  0  0  0  0  0  0  0  0
   19.1240  -35.7450   35.2230 H   0  0  0  0  0  0  0  0  0  0  0  0
   19.9590  -32.0220   40.3850 H   0  0  0  0  0  0  0  0  0  0  0  0
   22.1613  -30.7750   39.8735 H   0  0  0  0  0  0  0  0  0  0  0  0
   22.8593  -28.8634   41.2991 H   0  0  0  0  0  0  0  0  0  0  0  0
   21.8385  -26.5947   42.2978 H   0  0  0  0  0  0  0  0  0  0  0  0
   23.0034  -26.0758   41.0327 H   0  0  0  0  0  0  0  0  0  0  0  0
   21.3289  -25.4256   41.0327 H   0  0  0  0  0  0  0  0  0  0  0  0
  1  2  1  0
  2  3  1  0
  3  4  1  0
  4  5  1  0
  3  6  1  0
  6  7  2  0
  7  8  1  0
  8  9  1  0
  9 10  1  0
 10 11  1  0
 11 12  2  0
 12 13  1  0
 13 14  2  0
 14 15  1  0
 15 16  1  0
 15 17  2  0
 17 18  1  0
 18 19  2  0
 18 20  1  0
 20 21  1  0
  8 22  2  0
 22 23  1  0
 23 24  2  0
 24 25  1  0
 24  6  1  0
 20  9  2  0
 17 11  1  0
  1 26  1  0
  1 27  1  0
  1 28  1  0
  2 29  1  0
  2 30  1  0
  4 31  1  0
  4 32  1  0
  5 33  1  0
  5 34  1  0
  5 35  1  0
  7 36  1  0
 12 37  1  0
 13 38  1  0
 14 39  1  0
 16 40  1  0
 21 41  1  0
 22 42  1  0
 23 43  1  0
 25 44  1  0
 25 45  1  0
 25 46  1  0
M  END
>  <meeko>  (4) 
{"is_sidechain": [false], "free_energy": -7.761, "intermolecular_energy": -10.015, "internal_energy": -0.738}

$$$$
cand_054_out
     RDKit          3D

 46 48  0  0  0  0  0  0  0  0999 V2000
   20.4420  -31.5120   33.4790 C   0  0  0  0  0  0  0  0  0  0  0  0
   21.0610  -30.9530   34.7530 C   0  0  0  0  0  0  0  0  0  0  0  0
   20.0700  -30.2060   35.5540 N   0  0  0  0  0  0  0  0  0  0  0  0
   19.9990  -28.7610   35.2550 C   0  0  0  0  0  0  0  0  0  0  0  0
   18.7210  -28.4460   34.4890 C   0  0  0  0  0  0  0  0  0  0  0  0
   20.2070  -30.4080   36.9530 C   0  0  0  0  0  0  0  0  0  0  0  0
   20.6800  -29.3960   37.8100 C   0  0  0  0  0  0  0  0  0  0  0  0
   20.7940  -29.5960   39.1940 C   0  0  0  0  0  0  0  0  0  0  0  0
   21.3150  -28.5420   40.0900 C   0  0  0  0  0  0  0  0  0  0  0  0
   22.2460  -29.0230   41.0040 O   0  0  0  0  0  0  0  0  0  0  0  0
   22.8120  -28.1500   41.8970 C   0  0  0  0  0  0  0  0  0  0  0  0
   23.7510  -28.6730   42.7860 C   0  0  0  0  0  0  0  0  0  0  0  0
   24.3650  -27.8380   43.7220 C   0  0  0  0  0  0  0  0  0  0  0  0
   24.0360  -26.4810   43.7710 C   0  0  0  0  0  0  0  0  0  0  0  0
   23.0970  -25.9630   42.8830 C   0  0  0  0  0  0  0  0  0  0  0  0
   22.8220  -24.6260   42.9860 O   0  0  0  0  0  0  0  0  0  0  0  0
   22.4850  -26.7990   41.9450 C   0  0  0  0  0  0  0  0  0  0  0  0
   21.4940  -26.2940   40.9940 C   0  0  0  0  0  0  0  0  0  0  0  0
   21.1470  -25.1140   40.9790 O   0  0  0  0  0  0  0  0  0  0  0  0
   20.9100  -27.2600   40.0360 C   0  0  0  0  0  0  0  0  0  0  0  0
   19.9650  -26.7740   39.1500 O   0  0  0  0  0  0  0  0  0  0  0  0
   20.4350  -30.8430   39.7200 C   0  0  0  0  0  0  0  0  0  0  0  0
   19.9530  -31.8560   38.8880 C   0  0  0  0  0  0  0  0  0  0  0  0
   19.8290  -31.6480   37.5080 C   0  0  0  0  0  0  0  0  0  0  0  0
   19.3000  -32.7550   36.6350 C   0  0  0  0  0  0  0  0  0  0  0  0
   19.6490  -32.2281   33.7403 H   0  0  0  0  0  0  0  0  0  0  0  0
   20.0130  -30.6893   32.8882 H   0  0  0  0  0  0  0  0  0  0  0  0
   21.2169  -32.0224   32.8882 H   0  0  0  0  0  0  0  0  0  0  0  0
   21.4527  -31.7859   35.3553 H   0  0  0  0  0  0  0  0  0  0  0  0
   21.8679  -30.2611   34.4698 H   0  0  0  0  0  0  0  0  0  0  0  0
   20.0072  -28.1938   36.1975 H   0  0  0  0  0  0  0  0  0  0  0  0
   20.8659  -28.4782   34.6398 H   0  0  0  0  0  0  0  0  0  0  0  0
   17.9068  -28.2453   35.2009 H   0  0  0  0  0  0  0  0  0  0  0  0
   18.8815  -27.5605   33.8564 H   0  0  0  0  0  0  0  0  0  0  0  0
   18.4516  -29.3046   33.8564 H   0  0  0  0  0  0  0  0  0  0  0  0
   20.9675  -28.4236   37.3835 H   0  0  0  0  0  0  0  0  0  0  0  0
   24.0076  -29.7420   42.7499 H   0  0  0  0  0  0  0  0  0  0  0  0
   25.1082  -28.2490   44.4212 H   0  0  0  0  0  0  0  0  0  0  0  0
   24.5178  -25.8233   44.5095 H   0  0  0  0  0  0  0  0  0  0  0  0
   23.2190  -24.1160   43.6650 H   0  0  0  0  0  0  0  0  0  0  0  0
   19.3770  -27.3640   38.7230 H   0  0  0  0  0  0  0  0  0  0  0  0
   20.5336  -31.0268   40.8000 H   0  0  0  0  0  0  0  0  0  0  0  0
   19.6680  -32.8265   39.3203 H   0  0  0  0  0  0  0  0  0  0  0  0
   18.9119  -33.5671   37.2674 H   0  0  0  0  0  0  0  0  0  0  0  0
   18.4904  -32.3661   35.9999 H   0  0  0  0  0  0  0  0  0  0  0  0
   20.1112  -33.1406   35.9999 H   0  0  0  0  0  0  0  0  0  0  0  0
  1  2  1  0
  2  3  1  0
  3  4  1  0
  4  5  1  0
  3  6  1  0
  6  7  2  0
  7  8  1  0
  8  9  1  0
  9 10  1  0
 10 11  1  0
 11 12  2  0
 12 13  1  0
 13 14  2  0
 14 15  1  0
 15 16  1  0
 15 17  2  0
 17 18  1  0
 18 19  2  0
 18 20  1  0
 20 21  1  0
  8 22  2  0
 22 23  1  0
 23 24  2  0
 24 25  1  0
 24  6  1  0
 20  9  2  0
 17 11  1  0
  1 26  1  0
  1 27  1  0
  1 28  1  0
  2 29  1  0
  2 30  1  0
  4 31  1  0
  4 32  1  0
  5 33  1  0
  5 34  1  0
  5 35  1  0
  7 36  1  0
 12 37  1  0
 13 38  1  0
 14 39  1  0
 16 40  1  0
 21 41  1  0
 22 42  1  0
 23 43  1  0
 25 44  1  0
 25 45  1  0
 25 46  1  0
M  END
>  <meeko>  (5) 
{"is_sidechain": [false], "free_energy": -7.682, "intermolecular_energy": -10.512, "internal_energy": -0.138}

$$$$
cand_054_out
     RDKit          3D

 46 48  0  0  0  0  0  0  0  0999 V2000
   23.8160  -24.9850   42.4730 C   0  0  0  0  0  0  0  0  0  0  0  0
   24.1290  -26.1200   43.4380 C   0  0  0  0  0  0  0  0  0  0  0  0
   22.8960  -26.7050   44.0040 N   0  0  0  0  0  0  0  0  0  0  0  0
   23.0480  -28.0760   44.5310 C   0  0  0  0  0  0  0  0  0  0  0  0
   24.4510  -28.5940   44.2480 C   0  0  0  0  0  0  0  0  0  0  0  0
   21.7850  -26.6410   43.1220 C   0  0  0  0  0  0  0  0  0  0  0  0
   21.6870  -27.4670   41.9860 C   0  0  0  0  0  0  0  0  0  0  0  0
   20.5770  -27.4140   41.1300 C   0  0  0  0  0  0  0  0  0  0  0  0
   20.4870  -28.2620   39.9220 C   0  0  0  0  0  0  0  0  0  0  0  0
   20.0640  -29.5570   40.2030 O   0  0  0  0  0  0  0  0  0  0  0  0
   19.9360  -30.4510   39.1720 C   0  0  0  0  0  0  0  0  0  0  0  0
   19.4950  -31.7340   39.4970 C   0  0  0  0  0  0  0  0  0  0  0  0
   19.3440  -32.6940   38.4940 C   0  0  0  0  0  0  0  0  0  0  0  0
   19.6370  -32.3710   37.1670 C   0  0  0  0  0  0  0  0  0  0  0  0
   20.0780  -31.0900   36.8460 C   0  0  0  0  0  0  0  0  0  0  0  0
   20.3460  -30.8420   35.5270 O   0  0  0  0  0  0  0  0  0  0  0  0
   20.2270  -30.1300   37.8500 C   0  0  0  0  0  0  0  0  0  0  0  0
   20.6870  -28.7720   37.5550 C   0  0  0  0  0  0  0  0  0  0  0  0
   20.9700  -28.4140   36.4130 O   0  0  0  0  0  0  0  0  0  0  0  0
   20.8040  -27.8270   38.6880 C   0  0  0  0  0  0  0  0  0  0  0  0
   21.2520  -26.5510   38.3990 O   0  0  0  0  0  0  0  0  0  0  0  0
   19.5540  -26.5030   41.4180 C   0  0  0  0  0  0  0  0  0  0  0  0
   19.6270  -25.6840   42.5470 C   0  0  0  0  0  0  0  0  0  0  0  0
   20.7310  -25.7490   43.4070 C   0  0  0  0  0  0  0  0  0  0  0  0
   20.7810  -24.8590   44.6200 C   0  0  0  0  0  0  0  0  0  0  0  0
   23.5658  -24.0779   43.0427 H   0  0  0  0  0  0  0  0  0  0  0  0
   24.6938  -24.7897   41.8395 H   0  0  0  0  0  0  0  0  0  0  0  0
   22.9622  -25.2673   41.8395 H   0  0  0  0  0  0  0  0  0  0  0  0
   24.6824  -26.9040   42.9003 H   0  0  0  0  0  0  0  0  0  0  0  0
   24.7296  -25.7139   44.2652 H   0  0  0  0  0  0  0  0  0  0  0  0
   22.8752  -28.0692   45.6173 H   0  0  0  0  0  0  0  0  0  0  0  0
   22.3160  -28.7334   44.0390 H   0  0  0  0  0  0  0  0  0  0  0  0
   24.9699  -28.7856   45.1988 H   0  0  0  0  0  0  0  0  0  0  0  0
   24.3875  -29.5279   43.6703 H   0  0  0  0  0  0  0  0  0  0  0  0
   25.0096  -27.8428   43.6703 H   0  0  0  0  0  0  0  0  0  0  0  0
   22.5017  -28.1719   41.7641 H   0  0  0  0  0  0  0  0  0  0  0  0
   19.2664  -31.9893   40.5423 H   0  0  0  0  0  0  0  0  0  0  0  0
   18.9941  -33.7052   38.7492 H   0  0  0  0  0  0  0  0  0  0  0  0
   19.5195  -33.1274   36.3770 H   0  0  0  0  0  0  0  0  0  0  0  0
   20.1190  -30.0140   35.1500 H   0  0  0  0  0  0  0  0  0  0  0  0
   21.4500  -26.3120   37.5160 H   0  0  0  0  0  0  0  0  0  0  0  0
   18.6841  -26.4314   40.7486 H   0  0  0  0  0  0  0  0  0  0  0  0
   18.8093  -24.9807   42.7631 H   0  0  0  0  0  0  0  0  0  0  0  0
   20.7463  -25.4766   45.5296 H   0  0  0  0  0  0  0  0  0  0  0  0
   21.7133  -24.2754   44.6084 H   0  0  0  0  0  0  0  0  0  0  0  0
   19.9199  -24.1746   44.6084 H   0  0  0  0  0  0  0  0  0  0  0  0
  1  2  1  0
  2  3  1  0
  3  4  1  0
  4  5  1  0
  3  6  1  0
  6  7  2  0
  7  8  1  0
  8  9  1  0
  9 10  1  0
 10 11  1  0
 11 12  2  0
 12 13  1  0
 13 14  2  0
 14 15  1  0
 15 16  1  0
 15 17  2  0
 17 18  1  0
 18 19  2  0
 18 20  1  0
 20 21  1  0
  8 22  2  0
 22 23  1  0
 23 24  2  0
 24 25  1  0
 24  6  1  0
 20  9  2  0
 17 11  1  0
  1 26  1  0
  1 27  1  0
  1 28  1  0
  2 29  1  0
  2 30  1  0
  4 31  1  0
  4 32  1  0
  5 33  1  0
  5 34  1  0
  5 35  1  0
  7 36  1  0
 12 37  1  0
 13 38  1  0
 14 39  1  0
 16 40  1  0
 21 41  1  0
 22 42  1  0
 23 43  1  0
 25 44  1  0
 25 45  1  0
 25 46  1  0
M  END
>  <meeko>  (6) 
{"is_sidechain": [false], "free_energy": -7.613, "intermolecular_energy": -9.957, "internal_energy": -0.605}

$$$$
cand_054_out
     RDKit          3D

 46 48  0  0  0  0  0  0  0  0999 V2000
   22.6110  -22.0500   48.2000 C   0  0  0  0  0  0  0  0  0  0  0  0
   21.9330  -23.4100   48.1090 C   0  0  0  0  0  0  0  0  0  0  0  0
   20.7190  -23.3550   47.2700 N   0  0  0  0  0  0  0  0  0  0  0  0
   19.6350  -24.2660   47.6910 C   0  0  0  0  0  0  0  0  0  0  0  0
   20.1090  -25.1510   48.8350 C   0  0  0  0  0  0  0  0  0  0  0  0
   20.9820  -23.5170   45.8840 C   0  0  0  0  0  0  0  0  0  0  0  0
   21.4970  -24.7180   45.3590 C   0  0  0  0  0  0  0  0  0  0  0  0
   21.7360  -24.8790   43.9860 C   0  0  0  0  0  0  0  0  0  0  0  0
   22.3010  -26.1310   43.4380 C   0  0  0  0  0  0  0  0  0  0  0  0
   21.7240  -26.4990   42.2280 O   0  0  0  0  0  0  0  0  0  0  0  0
   22.1560  -27.6430   41.6070 C   0  0  0  0  0  0  0  0  0  0  0  0
   21.5600  -27.9650   40.3880 C   0  0  0  0  0  0  0  0  0  0  0  0
   21.9540  -29.1180   39.7040 C   0  0  0  0  0  0  0  0  0  0  0  0
   22.9410  -29.9480   40.2420 C   0  0  0  0  0  0  0  0  0  0  0  0
   23.5320  -29.6230   41.4590 C   0  0  0  0  0  0  0  0  0  0  0  0
   24.4920  -30.4790   41.9270 O   0  0  0  0  0  0  0  0  0  0  0  0
   23.1400  -28.4690   42.1420 C   0  0  0  0  0  0  0  0  0  0  0  0
   23.7370  -28.0910   43.4230 C   0  0  0  0  0  0  0  0  0  0  0  0
   24.6060  -28.7730   43.9630 O   0  0  0  0  0  0  0  0  0  0  0  0
   23.2560  -26.8450   44.0620 C   0  0  0  0  0  0  0  0  0  0  0  0
   23.8190  -26.5050   45.2790 O   0  0  0  0  0  0  0  0  0  0  0  0
   21.4620  -23.8070   43.1300 C   0  0  0  0  0  0  0  0  0  0  0  0
   20.9410  -22.6110   43.6300 C   0  0  0  0  0  0  0  0  0  0  0  0
   20.6910  -22.4580   45.0000 C   0  0  0  0  0  0  0  0  0  0  0  0
   20.1220  -21.1620   45.5110 C   0  0  0  0  0  0  0  0  0  0  0  0
   22.7466  -21.7779   49.2572 H   0  0  0  0  0  0  0  0  0  0  0  0
   23.5919  -22.0954   47.7043 H   0  0  0  0  0  0  0  0  0  0  0  0
   21.9843  -21.2940   47.7043 H   0  0  0  0  0  0  0  0  0  0  0  0
   22.6378  -24.1320   47.6709 H   0  0  0  0  0  0  0  0  0  0  0  0
   21.6377  -23.7167   49.1233 H   0  0  0  0  0  0  0  0  0  0  0  0
   18.7705  -23.6730   48.0241 H   0  0  0  0  0  0  0  0  0  0  0  0
   19.3482  -24.9012   46.8400 H   0  0  0  0  0  0  0  0  0  0  0  0
   19.8552  -24.6771   49.7947 H   0  0  0  0  0  0  0  0  0  0  0  0
   19.6155  -26.1318   48.7686 H   0  0  0  0  0  0  0  0  0  0  0  0
   21.1989  -25.2837   48.7686 H   0  0  0  0  0  0  0  0  0  0  0  0
   21.7175  -25.5510   46.0428 H   0  0  0  0  0  0  0  0  0  0  0  0
   20.7814  -27.3127   39.9658 H   0  0  0  0  0  0  0  0  0  0  0  0
   21.4868  -29.3725   38.7412 H   0  0  0  0  0  0  0  0  0  0  0  0
   23.2502  -30.8566   39.7045 H   0  0  0  0  0  0  0  0  0  0  0  0
   24.4750  -30.7590   42.8220 H   0  0  0  0  0  0  0  0  0  0  0  0
   23.7730  -27.1020   45.9990 H   0  0  0  0  0  0  0  0  0  0  0  0
   21.6587  -23.9067   42.0523 H   0  0  0  0  0  0  0  0  0  0  0  0
   20.7249  -21.7811   42.9411 H   0  0  0  0  0  0  0  0  0  0  0  0
   20.1249  -21.1687   46.6110 H   0  0  0  0  0  0  0  0  0  0  0  0
   20.7349  -20.3239   45.1478 H   0  0  0  0  0  0  0  0  0  0  0  0
   19.0902  -21.0460   45.1478 H   0  0  0  0  0  0  0  0  0  0  0  0
  1  2  1  0
  2  3  1  0
  3  4  1  0
  4  5  1  0
  3  6  1  0
  6  7  2  0
  7  8  1  0
  8  9  1  0
  9 10  1  0
 10 11  1  0
 11 12  2  0
 12 13  1  0
 13 14  2  0
 14 15  1  0
 15 16  1  0
 15 17  2  0
 17 18  1  0
 18 19  2  0
 18 20  1  0
 20 21  1  0
  8 22  2  0
 22 23  1  0
 23 24  2  0
 24 25  1  0
 24  6  1  0
 20  9  2  0
 17 11  1  0
  1 26  1  0
  1 27  1  0
  1 28  1  0
  2 29  1  0
  2 30  1  0
  4 31  1  0
  4 32  1  0
  5 33  1  0
  5 34  1  0
  5 35  1  0
  7 36  1  0
 12 37  1  0
 13 38  1  0
 14 39  1  0
 16 40  1  0
 21 41  1  0
 22 42  1  0
 23 43  1  0
 25 44  1  0
 25 45  1  0
 25 46  1  0
M  END
>  <meeko>  (7) 
{"is_sidechain": [false], "free_energy": -7.565, "intermolecular_energy": -9.933, "internal_energy": -0.566}

$$$$
cand_054_out
     RDKit          3D

 46 48  0  0  0  0  0  0  0  0999 V2000
   22.5990  -22.0080   48.2800 C   0  0  0  0  0  0  0  0  0  0  0  0
   21.9550  -23.3560   47.9880 C   0  0  0  0  0  0  0  0  0  0  0  0
   20.7660  -23.2120   47.1240 N   0  0  0  0  0  0  0  0  0  0  0  0
   19.6290  -24.0820   47.4890 C   0  0  0  0  0  0  0  0  0  0  0  0
   20.0040  -24.9690   48.6670 C   0  0  0  0  0  0  0  0  0  0  0  0
   21.0540  -23.3420   45.7400 C   0  0  0  0  0  0  0  0  0  0  0  0
   21.4690  -24.5640   45.1760 C   0  0  0  0  0  0  0  0  0  0  0  0
   21.7330  -24.6900   43.8040 C   0  0  0  0  0  0  0  0  0  0  0  0
   22.1940  -25.9670   43.2170 C   0  0  0  0  0  0  0  0  0  0  0  0
   23.1640  -26.5960   43.9890 O   0  0  0  0  0  0  0  0  0  0  0  0
   23.6800  -27.7920   43.5600 C   0  0  0  0  0  0  0  0  0  0  0  0
   24.6400  -28.3950   44.3730 C   0  0  0  0  0  0  0  0  0  0  0  0
   25.2070  -29.6140   43.9930 C   0  0  0  0  0  0  0  0  0  0  0  0
   24.8150  -30.2280   42.8010 C   0  0  0  0  0  0  0  0  0  0  0  0
   23.8570  -29.6230   41.9930 C   0  0  0  0  0  0  0  0  0  0  0  0
   23.5190  -30.2780   40.8400 O   0  0  0  0  0  0  0  0  0  0  0  0
   23.2890  -28.4040   42.3730 C   0  0  0  0  0  0  0  0  0  0  0  0
   22.2790  -27.7350   41.5530 C   0  0  0  0  0  0  0  0  0  0  0  0
   21.8870  -28.2080   40.4870 O   0  0  0  0  0  0  0  0  0  0  0  0
   21.7340  -26.4510   42.0490 C   0  0  0  0  0  0  0  0  0  0  0  0
   20.7890  -25.8210   41.2580 O   0  0  0  0  0  0  0  0  0  0  0  0
   21.5880  -23.5620   42.9890 C   0  0  0  0  0  0  0  0  0  0  0  0
   21.1680  -22.3430   43.5280 C   0  0  0  0  0  0  0  0  0  0  0  0
   20.8920  -22.2240   44.8960 C   0  0  0  0  0  0  0  0  0  0  0  0
   20.4330  -20.9010   45.4480 C   0  0  0  0  0  0  0  0  0  0  0  0
   22.6684  -21.8628   49.3682 H   0  0  0  0  0  0  0  0  0  0  0  0
   23.6074  -21.9807   47.8414 H   0  0  0  0  0  0  0  0  0  0  0  0
   21.9866  -21.2064   47.8414 H   0  0  0  0  0  0  0  0  0  0  0  0
   22.6887  -24.0005   47.4818 H   0  0  0  0  0  0  0  0  0  0  0  0
   21.6363  -23.8002   48.9425 H   0  0  0  0  0  0  0  0  0  0  0  0
   18.7669  -23.4569   47.7646 H   0  0  0  0  0  0  0  0  0  0  0  0
   19.3720  -24.7172   46.6285 H   0  0  0  0  0  0  0  0  0  0  0  0
   19.7817  -24.4432   49.6073 H   0  0  0  0  0  0  0  0  0  0  0  0
   19.4234  -25.9023   48.6227 H   0  0  0  0  0  0  0  0  0  0  0  0
   21.0780  -25.2028   48.6227 H   0  0  0  0  0  0  0  0  0  0  0  0
   21.5892  -25.4419   45.8278 H   0  0  0  0  0  0  0  0  0  0  0  0
   24.9499  -27.9117   45.3113 H   0  0  0  0  0  0  0  0  0  0  0  0
   25.9634  -30.0911   44.6335 H   0  0  0  0  0  0  0  0  0  0  0  0
   25.2625  -31.1873   42.5018 H   0  0  0  0  0  0  0  0  0  0  0  0
   23.2070  -29.7940   40.0990 H   0  0  0  0  0  0  0  0  0  0  0  0
   21.0490  -25.3990   40.4640 H   0  0  0  0  0  0  0  0  0  0  0  0
   21.8067  -23.6354   41.9135 H   0  0  0  0  0  0  0  0  0  0  0  0
   21.0530  -21.4681   42.8713 H   0  0  0  0  0  0  0  0  0  0  0  0
   20.4459  -20.9380   46.5473 H   0  0  0  0  0  0  0  0  0  0  0  0
   21.1074  -20.1047   45.1000 H   0  0  0  0  0  0  0  0  0  0  0  0
   19.4103  -20.6935   45.1000 H   0  0  0  0  0  0  0  0  0  0  0  0
  1  2  1  0
  2  3  1  0
  3  4  1  0
  4  5  1  0
  3  6  1  0
  6  7  2  0
  7  8  1  0
  8  9  1  0
  9 10  1  0
 10 11  1  0
 11 12  2  0
 12 13  1  0
 13 14  2  0
 14 15  1  0
 15 16  1  0
 15 17  2  0
 17 18  1  0
 18 19  2  0
 18 20  1  0
 20 21  1  0
  8 22  2  0
 22 23  1  0
 23 24  2  0
 24 25  1  0
 24  6  1  0
 20  9  2  0
 17 11  1  0
  1 26  1  0
  1 27  1  0
  1 28  1  0
  2 29  1  0
  2 30  1  0
  4 31  1  0
  4 32  1  0
  5 33  1  0
  5 34  1  0
  5 35  1  0
  7 36  1  0
 12 37  1  0
 13 38  1  0
 14 39  1  0
 16 40  1  0
 21 41  1  0
 22 42  1  0
 23 43  1  0
 25 44  1  0
 25 45  1  0
 25 46  1  0
M  END
>  <meeko>  (8) 
{"is_sidechain": [false], "free_energy": -7.515, "intermolecular_energy": -9.841, "internal_energy": -0.594}

$$$$
cand_054_out
     RDKit          3D

 46 48  0  0  0  0  0  0  0  0999 V2000
   19.3710  -23.9340   45.2860 C   0  0  0  0  0  0  0  0  0  0  0  0
   19.3670  -24.5420   43.8900 C   0  0  0  0  0  0  0  0  0  0  0  0
   20.6780  -24.3840   43.2270 N   0  0  0  0  0  0  0  0  0  0  0  0
   20.6760  -23.4720   42.0650 C   0  0  0  0  0  0  0  0  0  0  0  0
   19.2630  -22.9760   41.7900 C   0  0  0  0  0  0  0  0  0  0  0  0
   21.2860  -25.6180   42.8770 C   0  0  0  0  0  0  0  0  0  0  0  0
   20.9440  -26.3100   41.6990 C   0  0  0  0  0  0  0  0  0  0  0  0
   21.5640  -27.5190   41.3490 C   0  0  0  0  0  0  0  0  0  0  0  0
   21.1860  -28.2590   40.1250 C   0  0  0  0  0  0  0  0  0  0  0  0
   20.7990  -29.5690   40.3850 O   0  0  0  0  0  0  0  0  0  0  0  0
   20.4220  -30.3690   39.3380 C   0  0  0  0  0  0  0  0  0  0  0  0
   20.0270  -31.6710   39.6450 C   0  0  0  0  0  0  0  0  0  0  0  0
   19.6320  -32.5390   38.6240 C   0  0  0  0  0  0  0  0  0  0  0  0
   19.6350  -32.1040   37.2970 C   0  0  0  0  0  0  0  0  0  0  0  0
   20.0310  -30.8050   36.9930 C   0  0  0  0  0  0  0  0  0  0  0  0
   20.0100  -30.4460   35.6730 O   0  0  0  0  0  0  0  0  0  0  0  0
   20.4240  -29.9370   38.0150 C   0  0  0  0  0  0  0  0  0  0  0  0
   20.8460  -28.5630   37.7390 C   0  0  0  0  0  0  0  0  0  0  0  0
   20.8820  -28.1100   36.5960 O   0  0  0  0  0  0  0  0  0  0  0  0
   21.2360  -27.7210   38.8930 C   0  0  0  0  0  0  0  0  0  0  0  0
   21.6460  -26.4290   38.6180 O   0  0  0  0  0  0  0  0  0  0  0  0
   22.5350  -28.0460   42.2080 C   0  0  0  0  0  0  0  0  0  0  0  0
   22.8950  -27.3690   43.3760 C   0  0  0  0  0  0  0  0  0  0  0  0
   22.2850  -26.1550   43.7160 C   0  0  0  0  0  0  0  0  0  0  0  0
   22.6970  -25.4430   44.9760 C   0  0  0  0  0  0  0  0  0  0  0  0
   19.3657  -24.7384   46.0363 H   0  0  0  0  0  0  0  0  0  0  0  0
   20.2732  -23.3181   45.4151 H   0  0  0  0  0  0  0  0  0  0  0  0
   18.4770  -23.3063   45.4151 H   0  0  0  0  0  0  0  0  0  0  0  0
   19.1325  -25.6139   43.9676 H   0  0  0  0  0  0  0  0  0  0  0  0
   18.6101  -24.0183   43.2876 H   0  0  0  0  0  0  0  0  0  0  0  0
   21.3285  -22.6121   42.2766 H   0  0  0  0  0  0  0  0  0  0  0  0
   21.0449  -24.0142   41.1819 H   0  0  0  0  0  0  0  0  0  0  0  0
   18.7460  -22.7945   42.7438 H   0  0  0  0  0  0  0  0  0  0  0  0
   19.3086  -22.0401   41.2138 H   0  0  0  0  0  0  0  0  0  0  0  0
   18.7136  -23.7350   41.2138 H   0  0  0  0  0  0  0  0  0  0  0  0
   20.1715  -25.8922   41.0367 H   0  0  0  0  0  0  0  0  0  0  0  0
   20.0265  -32.0141   40.6901 H   0  0  0  0  0  0  0  0  0  0  0  0
   19.3185  -33.5654   38.8655 H   0  0  0  0  0  0  0  0  0  0  0  0
   19.3247  -32.7874   36.4929 H   0  0  0  0  0  0  0  0  0  0  0  0
   20.5780  -29.7670   35.3620 H   0  0  0  0  0  0  0  0  0  0  0  0
   22.5490  -26.2510   38.4430 H   0  0  0  0  0  0  0  0  0  0  0  0
   23.0194  -29.0023   41.9613 H   0  0  0  0  0  0  0  0  0  0  0  0
   23.6658  -27.7941   44.0356 H   0  0  0  0  0  0  0  0  0  0  0  0
   22.3625  -26.0211   45.8500 H   0  0  0  0  0  0  0  0  0  0  0  0
   23.7922  -25.3435   44.9996 H   0  0  0  0  0  0  0  0  0  0  0  0
   22.2375  -24.4439   44.9996 H   0  0  0  0  0  0  0  0  0  0  0  0
  1  2  1  0
  2  3  1  0
  3  4  1  0
  4  5  1  0
  3  6  1  0
  6  7  2  0
  7  8  1  0
  8  9  1  0
  9 10  1  0
 10 11  1  0
 11 12  2  0
 12 13  1  0
 13 14  2  0
 14 15  1  0
 15 16  1  0
 15 17  2  0
 17 18  1  0
 18 19  2  0
 18 20  1  0
 20 21  1  0
  8 22  2  0
 22 23  1  0
 23 24  2  0
 24 25  1  0
 24  6  1  0
 20  9  2  0
 17 11  1  0
  1 26  1  0
  1 27  1  0
  1 28  1  0
  2 29  1  0
  2 30  1  0
  4 31  1  0
  4 32  1  0
  5 33  1  0
  5 34  1  0
  5 35  1  0
  7 36  1  0
 12 37  1  0
 13 38  1  0
 14 39  1  0
 16 40  1  0
 21 41  1  0
 22 42  1  0
 23 43  1  0
 25 44  1  0
 25 45  1  0
 25 46  1  0
M  END
>  <meeko>  (9) 
{"is_sidechain": [false], "free_energy": -7.487, "intermolecular_energy": -9.766, "internal_energy": -0.632}

$$$$
