cand_023_out
     RDKit          3D

 47 50  0  0  0  0  0  0  0  0999 V2000
   23.8240  -29.4700   41.6480 C   0  0  0  0  0  0  0  0  0  0  0  0
   22.5410  -29.2060   40.9070 C   0  0  0  0  0  0  0  0  0  0  0  0
   22.0600  -30.1610   39.9930 C   0  0  0  0  0  0  0  0  0  0  0  0
   20.8650  -29.9590   39.2850 C   0  0  0  0  0  0  0  0  0  0  0  0
   20.4060  -30.9720   38.3120 C   0  0  0  0  0  0  0  0  0  0  0  0
   19.9740  -32.1470   38.9170 O   0  0  0  0  0  0  0  0  0  0  0  0
   19.5190  -33.1720   38.1300 C   0  0  0  0  0  0  0  0  0  0  0  0
   19.1090  -34.3370   38.7800 C   0  0  0  0  0  0  0  0  0  0  0  0
   18.6330  -35.4180   38.0370 C   0  0  0  0  0  0  0  0  0  0  0  0
   18.5660  -35.3360   36.6440 C   0  0  0  0  0  0  0  0  0  0  0  0
   18.9770  -34.1730   35.9980 C   0  0  0  0  0  0  0  0  0  0  0  0
   18.8850  -34.1590   34.6330 O   0  0  0  0  0  0  0  0  0  0  0  0
   19.4540  -33.0900   36.7420 C   0  0  0  0  0  0  0  0  0  0  0  0
   19.8940  -31.8500   36.1030 C   0  0  0  0  0  0  0  0  0  0  0  0
   19.8600  -31.6990   34.8830 O   0  0  0  0  0  0  0  0  0  0  0  0
   20.3890  -30.7650   36.9810 C   0  0  0  0  0  0  0  0  0  0  0  0
   20.7900  -29.5920   36.3670 O   0  0  0  0  0  0  0  0  0  0  0  0
   20.1610  -28.7690   39.4980 C   0  0  0  0  0  0  0  0  0  0  0  0
   20.6290  -27.8150   40.4060 C   0  0  0  0  0  0  0  0  0  0  0  0
   21.8210  -28.0140   41.1200 C   0  0  0  0  0  0  0  0  0  0  0  0
   22.3070  -27.0730   42.0530 N   0  0  0  0  0  0  0  0  0  0  0  0
   21.9730  -25.6820   41.7100 C   0  0  0  0  0  0  0  0  0  0  0  0
   22.7400  -24.7420   42.6420 C   0  0  0  0  0  0  0  0  0  0  0  0
   22.4500  -25.0640   44.1070 C   0  0  0  0  0  0  0  0  0  0  0  0
   22.7080  -26.5400   44.4050 C   0  0  0  0  0  0  0  0  0  0  0  0
   21.9500  -27.4440   43.4320 C   0  0  0  0  0  0  0  0  0  0  0  0
   23.6364  -29.4314   42.7312 H   0  0  0  0  0  0  0  0  0  0  0  0
   24.2057  -30.4655   41.3772 H   0  0  0  0  0  0  0  0  0  0  0  0
   24.5677  -28.7061   41.3772 H   0  0  0  0  0  0  0  0  0  0  0  0
   22.6326  -31.0859   39.8296 H   0  0  0  0  0  0  0  0  0  0  0  0
   19.1610  -34.4030   39.8768 H   0  0  0  0  0  0  0  0  0  0  0  0
   18.3099  -36.3364   38.5491 H   0  0  0  0  0  0  0  0  0  0  0  0
   18.1895  -36.1881   36.0590 H   0  0  0  0  0  0  0  0  0  0  0  0
   18.0450  -34.1700   34.2200 H   0  0  0  0  0  0  0  0  0  0  0  0
   21.6950  -29.4540   36.1690 H   0  0  0  0  0  0  0  0  0  0  0  0
   19.2288  -28.5820   38.9448 H   0  0  0  0  0  0  0  0  0  0  0  0
   20.0527  -26.8915   40.5639 H   0  0  0  0  0  0  0  0  0  0  0  0
   22.2580  -25.4806   40.6668 H   0  0  0  0  0  0  0  0  0  0  0  0
   20.8912  -25.5198   41.8261 H   0  0  0  0  0  0  0  0  0  0  0  0
   23.8185  -24.8530   42.4563 H   0  0  0  0  0  0  0  0  0  0  0  0
   22.4176  -23.7098   42.4404 H   0  0  0  0  0  0  0  0  0  0  0  0
   23.1007  -24.4490   44.7460 H   0  0  0  0  0  0  0  0  0  0  0  0
   21.3914  -24.8453   44.3108 H   0  0  0  0  0  0  0  0  0  0  0  0
   23.7858  -26.7407   44.3150 H   0  0  0  0  0  0  0  0  0  0  0  0
   22.3560  -26.7550   45.4247 H   0  0  0  0  0  0  0  0  0  0  0  0
   22.2247  -28.4935   43.6140 H   0  0  0  0  0  0  0  0  0  0  0  0
   20.8668  -27.3224   43.5801 H   0  0  0  0  0  0  0  0  0  0  0  0
  1  2  1  0
  2  3  2  0
  3  4  1  0
  4  5  1  0
  5  6  1  0
  6  7  1  0
  7  8  2  0
  8  9  1  0
  9 10  2  0
 10 11  1  0
 11 12  1  0
 11 13  2  0
 13 14  1  0
 14 15  2  0
 14 16  1  0
 16 17  1  0
  4 18  2  0
 18 19  1  0
 19 20  2  0
 20 21  1  0
 21 22  1  0
 22 23  1  0
 23 24  1  0
 24 25  1  0
 25 26  1  0
 20  2  1  0
 26 21  1  0
 16  5  2  0
 13  7  1  0
  1 27  1  0
  1 28  1  0
  1 29  1  0
  3 30  1  0
  8 31  1  0
  9 32  1  0
 10 33  1  0
 12 34  1  0
 17 35  1  0
 18 36  1  0
 19 37  1  0
 22 38  1  0
 22 39  1  0
 23 40  1  0
 23 41  1  0
 24 42  1  0
 24 43  1  0
 25 44  1  0
 25 45  1  0
 26 46  1  0
 26 47  1  0
M  END
>  <meeko>  (1) 
{"is_sidechain": [false], "free_energy": -9.856, "intermolecular_energy": -11.584, "internal_energy": -0.4}

$$$$
cand_023_out
     RDKit          3D

 47 50  0  0  0  0  0  0  0  0999 V2000
   19.4930  -26.9900   41.2580 C   0  0  0  0  0  0  0  0  0  0  0  0
   20.4750  -28.0230   40.7750 C   0  0  0  0  0  0  0  0  0  0  0  0
   20.0750  -28.9580   39.8030 C   0  0  0  0  0  0  0  0  0  0  0  0
   20.9590  -29.9350   39.3200 C   0  0  0  0  0  0  0  0  0  0  0  0
   20.4940  -30.9180   38.3190 C   0  0  0  0  0  0  0  0  0  0  0  0
   20.0540  -32.1060   38.8900 O   0  0  0  0  0  0  0  0  0  0  0  0
   19.5930  -33.1060   38.0740 C   0  0  0  0  0  0  0  0  0  0  0  0
   19.1750  -34.2860   38.6900 C   0  0  0  0  0  0  0  0  0  0  0  0
   18.6930  -35.3430   37.9150 C   0  0  0  0  0  0  0  0  0  0  0  0
   18.6280  -35.2210   36.5260 C   0  0  0  0  0  0  0  0  0  0  0  0
   19.0470  -34.0420   35.9130 C   0  0  0  0  0  0  0  0  0  0  0  0
   18.9580  -33.9890   34.5490 O   0  0  0  0  0  0  0  0  0  0  0  0
   19.5300  -32.9840   36.6890 C   0  0  0  0  0  0  0  0  0  0  0  0
   19.9800  -31.7290   36.0860 C   0  0  0  0  0  0  0  0  0  0  0  0
   19.9480  -31.5430   34.8700 O   0  0  0  0  0  0  0  0  0  0  0  0
   20.4800  -30.6730   36.9940 C   0  0  0  0  0  0  0  0  0  0  0  0
   20.8900  -29.4860   36.4140 O   0  0  0  0  0  0  0  0  0  0  0  0
   22.2560  -29.9720   39.8420 C   0  0  0  0  0  0  0  0  0  0  0  0
   22.6650  -29.0460   40.8080 C   0  0  0  0  0  0  0  0  0  0  0  0
   21.7850  -28.0640   41.2900 C   0  0  0  0  0  0  0  0  0  0  0  0
   22.1770  -27.1100   42.2530 N   0  0  0  0  0  0  0  0  0  0  0  0
   23.0800  -27.6510   43.2810 C   0  0  0  0  0  0  0  0  0  0  0  0
   23.2490  -26.6130   44.3910 C   0  0  0  0  0  0  0  0  0  0  0  0
   23.7430  -25.2810   43.8290 C   0  0  0  0  0  0  0  0  0  0  0  0
   22.8410  -24.7980   42.6940 C   0  0  0  0  0  0  0  0  0  0  0  0
   22.6730  -25.8750   41.6220 C   0  0  0  0  0  0  0  0  0  0  0  0
   19.4831  -26.9796   42.3579 H   0  0  0  0  0  0  0  0  0  0  0  0
   19.7900  -25.9989   40.8846 H   0  0  0  0  0  0  0  0  0  0  0  0
   18.4881  -27.2365   40.8846 H   0  0  0  0  0  0  0  0  0  0  0  0
   19.0470  -28.9225   39.4131 H   0  0  0  0  0  0  0  0  0  0  0  0
   19.2250  -34.3836   39.7845 H   0  0  0  0  0  0  0  0  0  0  0  0
   18.3639  -36.2737   38.4002 H   0  0  0  0  0  0  0  0  0  0  0  0
   18.2468  -36.0538   35.9167 H   0  0  0  0  0  0  0  0  0  0  0  0
   19.6740  -34.2820   34.0210 H   0  0  0  0  0  0  0  0  0  0  0  0
   21.7340  -29.1330   36.6160 H   0  0  0  0  0  0  0  0  0  0  0  0
   22.9625  -30.7377   39.4892 H   0  0  0  0  0  0  0  0  0  0  0  0
   23.6933  -29.0882   41.1963 H   0  0  0  0  0  0  0  0  0  0  0  0
   22.6511  -28.5730   43.7004 H   0  0  0  0  0  0  0  0  0  0  0  0
   24.0585  -27.8792   42.8334 H   0  0  0  0  0  0  0  0  0  0  0  0
   22.2796  -26.4562   44.8867 H   0  0  0  0  0  0  0  0  0  0  0  0
   23.9944  -26.9872   45.1082 H   0  0  0  0  0  0  0  0  0  0  0  0
   23.7440  -24.5297   44.6324 H   0  0  0  0  0  0  0  0  0  0  0  0
   24.7595  -25.4227   43.4331 H   0  0  0  0  0  0  0  0  0  0  0  0
   21.8527  -24.5441   43.1049 H   0  0  0  0  0  0  0  0  0  0  0  0
   23.3077  -23.9163   42.2305 H   0  0  0  0  0  0  0  0  0  0  0  0
   21.9515  -25.5324   40.8656 H   0  0  0  0  0  0  0  0  0  0  0  0
   23.6411  -26.0695   41.1373 H   0  0  0  0  0  0  0  0  0  0  0  0
  1  2  1  0
  2  3  2  0
  3  4  1  0
  4  5  1  0
  5  6  1  0
  6  7  1  0
  7  8  2  0
  8  9  1  0
  9 10  2  0
 10 11  1  0
 11 12  1  0
 11 13  2  0
 13 14  1  0
 14 15  2  0
 14 16  1  0
 16 17  1  0
  4 18  2  0
 18 19  1  0
 19 20  2  0
 20 21  1  0
 21 22  1  0
 22 23  1  0
 23 24  1  0
 24 25  1  0
 25 26  1  0
 20  2  1  0
 26 21  1  0
 16  5  2  0
 13  7  1  0
  1 27  1  0
  1 28  1  0
  1 29  1  0
  3 30  1  0
  8 31  1  0
  9 32  1  0
 10 33  1  0
 12 34  1  0
 17 35  1  0
 18 36  1  0
 19 37  1  0
 22 38  1  0
 22 39  1  0
 23 40  1  0
 23 41  1  0
 24 42  1  0
 24 43  1  0
 25 44  1  0
 25 45  1  0
 26 46  1  0
 26 47  1  0
M  END
>  <meeko>  (2) 
{"is_sidechain": [false], "free_energy": -9.835, "intermolecular_energy": -11.392, "internal_energy": -0.567}

$$$$
cand_023_out
     RDKit          3D

 47 50  0  0  0  0  0  0  0  0999 V2000
   18.4920  -26.2390   39.7770 C   0  0  0  0  0  0  0  0  0  0  0  0
   19.4760  -27.3770   39.8310 C   0  0  0  0  0  0  0  0  0  0  0  0
   19.2820  -28.5000   39.0070 C   0  0  0  0  0  0  0  0  0  0  0  0
   20.1760  -29.5810   39.0200 C   0  0  0  0  0  0  0  0  0  0  0  0
   19.9240  -30.7570   38.1610 C   0  0  0  0  0  0  0  0  0  0  0  0
   19.5290  -31.8780   38.8810 O   0  0  0  0  0  0  0  0  0  0  0  0
   19.2590  -33.0410   38.2070 C   0  0  0  0  0  0  0  0  0  0  0  0
   18.8790  -34.1440   38.9720 C   0  0  0  0  0  0  0  0  0  0  0  0
   18.5890  -35.3580   38.3470 C   0  0  0  0  0  0  0  0  0  0  0  0
   18.6780  -35.4700   36.9570 C   0  0  0  0  0  0  0  0  0  0  0  0
   19.0580  -34.3670   36.1960 C   0  0  0  0  0  0  0  0  0  0  0  0
   19.1260  -34.5450   34.8410 O   0  0  0  0  0  0  0  0  0  0  0  0
   19.3490  -33.1520   36.8230 C   0  0  0  0  0  0  0  0  0  0  0  0
   19.7510  -31.9690   36.0610 C   0  0  0  0  0  0  0  0  0  0  0  0
   19.8460  -31.9860   34.8350 O   0  0  0  0  0  0  0  0  0  0  0  0
   20.0440  -30.7320   36.8200 C   0  0  0  0  0  0  0  0  0  0  0  0
   20.4100  -29.6170   36.0880 O   0  0  0  0  0  0  0  0  0  0  0  0
   21.2710  -29.5250   39.8890 C   0  0  0  0  0  0  0  0  0  0  0  0
   21.4750  -28.4110   40.7100 C   0  0  0  0  0  0  0  0  0  0  0  0
   20.5850  -27.3270   40.6970 C   0  0  0  0  0  0  0  0  0  0  0  0
   20.7770  -26.1850   41.5050 N   0  0  0  0  0  0  0  0  0  0  0  0
   19.9920  -26.2090   42.7490 C   0  0  0  0  0  0  0  0  0  0  0  0
   20.0870  -24.8400   43.4240 C   0  0  0  0  0  0  0  0  0  0  0  0
   21.5430  -24.4460   43.6660 C   0  0  0  0  0  0  0  0  0  0  0  0
   22.3540  -24.5320   42.3740 C   0  0  0  0  0  0  0  0  0  0  0  0
   22.2060  -25.9030   41.7150 C   0  0  0  0  0  0  0  0  0  0  0  0
   18.2280  -25.9337   40.8003 H   0  0  0  0  0  0  0  0  0  0  0  0
   18.9439  -25.3884   39.2456 H   0  0  0  0  0  0  0  0  0  0  0  0
   17.5851  -26.5633   39.2456 H   0  0  0  0  0  0  0  0  0  0  0  0
   18.4099  -28.5315   38.3374 H   0  0  0  0  0  0  0  0  0  0  0  0
   18.8080  -34.0572   40.0663 H   0  0  0  0  0  0  0  0  0  0  0  0
   18.2899  -36.2281   38.9498 H   0  0  0  0  0  0  0  0  0  0  0  0
   18.4486  -36.4267   36.4650 H   0  0  0  0  0  0  0  0  0  0  0  0
   19.7400  -34.0520   34.3350 H   0  0  0  0  0  0  0  0  0  0  0  0
   19.9560  -29.4080   35.2960 H   0  0  0  0  0  0  0  0  0  0  0  0
   21.9791  -30.3660   39.9270 H   0  0  0  0  0  0  0  0  0  0  0  0
   22.3488  -28.3846   41.3776 H   0  0  0  0  0  0  0  0  0  0  0  0
   18.9404  -26.4338   42.5173 H   0  0  0  0  0  0  0  0  0  0  0  0
   20.3867  -26.9838   43.4227 H   0  0  0  0  0  0  0  0  0  0  0  0
   19.6138  -24.0868   42.7769 H   0  0  0  0  0  0  0  0  0  0  0  0
   19.5733  -24.8929   44.3953 H   0  0  0  0  0  0  0  0  0  0  0  0
   21.5784  -23.4140   44.0452 H   0  0  0  0  0  0  0  0  0  0  0  0
   21.9773  -25.1407   44.4000 H   0  0  0  0  0  0  0  0  0  0  0  0
   21.9994  -23.7590   41.6763 H   0  0  0  0  0  0  0  0  0  0  0  0
   23.4151  -24.3778   42.6195 H   0  0  0  0  0  0  0  0  0  0  0  0
   22.7278  -25.9044   40.7467 H   0  0  0  0  0  0  0  0  0  0  0  0
   22.6445  -26.6753   42.3641 H   0  0  0  0  0  0  0  0  0  0  0  0
  1  2  1  0
  2  3  2  0
  3  4  1  0
  4  5  1  0
  5  6  1  0
  6  7  1  0
  7  8  2  0
  8  9  1  0
  9 10  2  0
 10 11  1  0
 11 12  1  0
 11 13  2  0
 13 14  1  0
 14 15  2  0
 14 16  1  0
 16 17  1  0
  4 18  2  0
 18 19  1  0
 19 20  2  0
 20 21  1  0
 21 22  1  0
 22 23  1  0
 23 24  1  0
 24 25  1  0
 25 26  1  0
 20  2  1  0
 26 21  1  0
 16  5  2  0
 13  7  1  0
  1 27  1  0
  1 28  1  0
  1 29  1  0
  3 30  1  0
  8 31  1  0
  9 32  1  0
 10 33  1  0
 12 34  1  0
 17 35  1  0
 18 36  1  0
 19 37  1  0
 22 38  1  0
 22 39  1  0
 23 40  1  0
 23 41  1  0
 24 42  1  0
 24 43  1  0
 25 44  1  0
 25 45  1  0
 26 46  1  0
 26 47  1  0
M  END
>  <meeko>  (3) 
{"is_sidechain": [false], "free_energy": -9.472, "intermolecular_energy": -11.086, "internal_energy": -0.448}

$$$$
cand_023_out
     RDKit          3D

 47 50  0  0  0  0  0  0  0  0999 V2000
   18.4180  -26.4180   39.6000 C   0  0  0  0  0  0  0  0  0  0  0  0
   19.4050  -27.5530   39.6540 C   0  0  0  0  0  0  0  0  0  0  0  0
   19.2190  -28.6720   38.8210 C   0  0  0  0  0  0  0  0  0  0  0  0
   20.1170  -29.7500   38.8330 C   0  0  0  0  0  0  0  0  0  0  0  0
   19.8740  -30.9200   37.9640 C   0  0  0  0  0  0  0  0  0  0  0  0
   20.2770  -30.7110   36.6500 O   0  0  0  0  0  0  0  0  0  0  0  0
   20.1120  -31.7170   35.7350 C   0  0  0  0  0  0  0  0  0  0  0  0
   20.5180  -31.4580   34.4250 C   0  0  0  0  0  0  0  0  0  0  0  0
   20.3790  -32.4410   33.4450 C   0  0  0  0  0  0  0  0  0  0  0  0
   19.8330  -33.6850   33.7720 C   0  0  0  0  0  0  0  0  0  0  0  0
   19.4270  -33.9410   35.0790 C   0  0  0  0  0  0  0  0  0  0  0  0
   18.9010  -35.1790   35.3310 O   0  0  0  0  0  0  0  0  0  0  0  0
   19.5670  -32.9560   36.0610 C   0  0  0  0  0  0  0  0  0  0  0  0
   19.1540  -33.1840   37.4460 C   0  0  0  0  0  0  0  0  0  0  0  0
   18.6710  -34.2540   37.8140 O   0  0  0  0  0  0  0  0  0  0  0  0
   19.3380  -32.0730   38.4080 C   0  0  0  0  0  0  0  0  0  0  0  0
   18.9570  -32.3050   39.7170 O   0  0  0  0  0  0  0  0  0  0  0  0
   21.2040  -29.6980   39.7110 C   0  0  0  0  0  0  0  0  0  0  0  0
   21.3990  -28.5900   40.5420 C   0  0  0  0  0  0  0  0  0  0  0  0
   20.5060  -27.5070   40.5290 C   0  0  0  0  0  0  0  0  0  0  0  0
   20.6890  -26.3710   41.3470 N   0  0  0  0  0  0  0  0  0  0  0  0
   19.8950  -26.4060   42.5850 C   0  0  0  0  0  0  0  0  0  0  0  0
   19.9810  -25.0420   43.2710 C   0  0  0  0  0  0  0  0  0  0  0  0
   21.4340  -24.6450   43.5260 C   0  0  0  0  0  0  0  0  0  0  0  0
   22.2550  -24.7190   42.2390 C   0  0  0  0  0  0  0  0  0  0  0  0
   22.1160  -26.0860   41.5690 C   0  0  0  0  0  0  0  0  0  0  0  0
   18.1531  -26.1134   40.6233 H   0  0  0  0  0  0  0  0  0  0  0  0
   18.8675  -25.5662   39.0686 H   0  0  0  0  0  0  0  0  0  0  0  0
   17.5120  -26.7449   39.0686 H   0  0  0  0  0  0  0  0  0  0  0  0
   18.3510  -28.7021   38.1460 H   0  0  0  0  0  0  0  0  0  0  0  0
   20.9474  -30.4791   34.1654 H   0  0  0  0  0  0  0  0  0  0  0  0
   20.6998  -32.2365   32.4129 H   0  0  0  0  0  0  0  0  0  0  0  0
   19.7242  -34.4599   32.9989 H   0  0  0  0  0  0  0  0  0  0  0  0
   19.4700  -35.9100   35.4690 H   0  0  0  0  0  0  0  0  0  0  0  0
   18.7920  -33.1810   40.0080 H   0  0  0  0  0  0  0  0  0  0  0  0
   21.9136  -30.5377   39.7486 H   0  0  0  0  0  0  0  0  0  0  0  0
   22.2670  -28.5669   41.2173 H   0  0  0  0  0  0  0  0  0  0  0  0
   18.8458  -26.6319   42.3438 H   0  0  0  0  0  0  0  0  0  0  0  0
   20.2872  -27.1845   43.2559 H   0  0  0  0  0  0  0  0  0  0  0  0
   19.5097  -24.2854   42.6265 H   0  0  0  0  0  0  0  0  0  0  0  0
   19.4610  -25.1041   44.2383 H   0  0  0  0  0  0  0  0  0  0  0  0
   21.4633  -23.6157   43.9129 H   0  0  0  0  0  0  0  0  0  0  0  0
   21.8653  -25.3437   44.2580 H   0  0  0  0  0  0  0  0  0  0  0  0
   21.9030  -23.9421   41.5443 H   0  0  0  0  0  0  0  0  0  0  0  0
   23.3138  -24.5632   42.4933 H   0  0  0  0  0  0  0  0  0  0  0  0
   22.6446  -26.0788   40.6043 H   0  0  0  0  0  0  0  0  0  0  0  0
   22.5525  -26.8616   42.2155 H   0  0  0  0  0  0  0  0  0  0  0  0
  1  2  1  0
  2  3  2  0
  3  4  1  0
  4  5  1  0
  5  6  1  0
  6  7  1  0
  7  8  2  0
  8  9  1  0
  9 10  2  0
 10 11  1  0
 11 12  1  0
 11 13  2  0
 13 14  1  0
 14 15  2  0
 14 16  1  0
 16 17  1  0
  4 18  2  0
 18 19  1  0
 19 20  2  0
 20 21  1  0
 21 22  1  0
 22 23  1  0
 23 24  1  0
 24 25  1  0
 25 26  1  0
 20  2  1  0
 26 21  1  0
 16  5  2  0
 13  7  1  0
  1 27  1  0
  1 28  1  0
  1 29  1  0
  3 30  1  0
  8 31  1  0
  9 32  1  0
 10 33  1  0
 12 34  1  0
 17 35  1  0
 18 36  1  0
 19 37  1  0
 22 38  1  0
 22 39  1  0
 23 40  1  0
 23 41  1  0
 24 42  1  0
 24 43  1  0
 25 44  1  0
 25 45  1  0
 26 46  1  0
 26 47  1  0
M  END
>  <meeko>  (4) 
{"is_sidechain": [false], "free_energy": -9.441, "intermolecular_energy": -10.995, "internal_energy": -0.502}

$$$$
cand_023_out
     RDKit          3D

 47 50  0  0  0  0  0  0  0  0999 V2000
   18.3140  -32.2390   39.3190 C   0  0  0  0  0  0  0  0  0  0  0  0
   19.4070  -31.3270   38.8280 C   0  0  0  0  0  0  0  0  0  0  0  0
   19.8800  -30.3000   39.6660 C   0  0  0  0  0  0  0  0  0  0  0  0
   20.9000  -29.4290   39.2520 C   0  0  0  0  0  0  0  0  0  0  0  0
   21.3510  -28.3450   40.1490 C   0  0  0  0  0  0  0  0  0  0  0  0
   22.2720  -28.7760   41.0970 O   0  0  0  0  0  0  0  0  0  0  0  0
   22.7760  -27.8700   41.9940 C   0  0  0  0  0  0  0  0  0  0  0  0
   23.6870  -28.3490   42.9360 C   0  0  0  0  0  0  0  0  0  0  0  0
   24.2400  -27.4780   43.8760 C   0  0  0  0  0  0  0  0  0  0  0  0
   23.8820  -26.1280   43.8760 C   0  0  0  0  0  0  0  0  0  0  0  0
   22.9720  -25.6520   42.9350 C   0  0  0  0  0  0  0  0  0  0  0  0
   22.6660  -24.3200   42.9900 O   0  0  0  0  0  0  0  0  0  0  0  0
   22.4190  -26.5250   41.9930 C   0  0  0  0  0  0  0  0  0  0  0  0
   21.4610  -26.0660   40.9870 C   0  0  0  0  0  0  0  0  0  0  0  0
   21.1020  -24.8910   40.9180 O   0  0  0  0  0  0  0  0  0  0  0  0
   20.9290  -27.0710   40.0390 C   0  0  0  0  0  0  0  0  0  0  0  0
   20.0340  -26.6230   39.0840 O   0  0  0  0  0  0  0  0  0  0  0  0
   21.4340  -29.5960   37.9700 C   0  0  0  0  0  0  0  0  0  0  0  0
   20.9730  -30.6160   37.1310 C   0  0  0  0  0  0  0  0  0  0  0  0
   19.9560  -31.4900   37.5420 C   0  0  0  0  0  0  0  0  0  0  0  0
   19.4840  -32.5360   36.7200 N   0  0  0  0  0  0  0  0  0  0  0  0
   20.0460  -32.5120   35.3600 C   0  0  0  0  0  0  0  0  0  0  0  0
   19.2980  -33.5270   34.4940 C   0  0  0  0  0  0  0  0  0  0  0  0
   19.3450  -34.9210   35.1170 C   0  0  0  0  0  0  0  0  0  0  0  0
   18.8500  -34.8920   36.5620 C   0  0  0  0  0  0  0  0  0  0  0  0
   19.6000  -33.8440   37.3850 C   0  0  0  0  0  0  0  0  0  0  0  0
   18.3075  -32.2444   40.4190 H   0  0  0  0  0  0  0  0  0  0  0  0
   17.3426  -31.8798   38.9484 H   0  0  0  0  0  0  0  0  0  0  0  0
   18.4934  -33.2590   38.9484 H   0  0  0  0  0  0  0  0  0  0  0  0
   19.4409  -30.1772   40.6671 H   0  0  0  0  0  0  0  0  0  0  0  0
   23.9692  -29.4122   42.9378 H   0  0  0  0  0  0  0  0  0  0  0  0
   24.9590  -27.8554   44.6181 H   0  0  0  0  0  0  0  0  0  0  0  0
   24.3177  -25.4422   44.6175 H   0  0  0  0  0  0  0  0  0  0  0  0
   21.7940  -24.0320   42.8080 H   0  0  0  0  0  0  0  0  0  0  0  0
   19.4070  -25.9620   39.3040 H   0  0  0  0  0  0  0  0  0  0  0  0
   22.2252  -28.9178   37.6177 H   0  0  0  0  0  0  0  0  0  0  0  0
   21.4160  -30.7347   36.1312 H   0  0  0  0  0  0  0  0  0  0  0  0
   19.9310  -31.5056   34.9311 H   0  0  0  0  0  0  0  0  0  0  0  0
   21.1149  -32.7696   35.3950 H   0  0  0  0  0  0  0  0  0  0  0  0
   18.2485  -33.2121   34.3966 H   0  0  0  0  0  0  0  0  0  0  0  0
   19.7820  -33.5686   33.5071 H   0  0  0  0  0  0  0  0  0  0  0  0
   18.7061  -35.5984   34.5314 H   0  0  0  0  0  0  0  0  0  0  0  0
   20.3872  -35.2727   35.1106 H   0  0  0  0  0  0  0  0  0  0  0  0
   17.7766  -34.6517   36.5683 H   0  0  0  0  0  0  0  0  0  0  0  0
   19.0301  -35.8800   37.0107 H   0  0  0  0  0  0  0  0  0  0  0  0
   19.1628  -33.7850   38.3926 H   0  0  0  0  0  0  0  0  0  0  0  0
   20.6602  -34.1258   37.4661 H   0  0  0  0  0  0  0  0  0  0  0  0
  1  2  1  0
  2  3  2  0
  3  4  1  0
  4  5  1  0
  5  6  1  0
  6  7  1  0
  7  8  2  0
  8  9  1  0
  9 10  2  0
 10 11  1  0
 11 12  1  0
 11 13  2  0
 13 14  1  0
 14 15  2  0
 14 16  1  0
 16 17  1  0
  4 18  2  0
 18 19  1  0
 19 20  2  0
 20 21  1  0
 21 22  1  0
 22 23  1  0
 23 24  1  0
 24 25  1  0
 25 26  1  0
 20  2  1  0
 26 21  1  0
 16  5  2  0
 13  7  1  0
  1 27  1  0
  1 28  1  0
  1 29  1  0
  3 30  1  0
  8 31  1  0
  9 32  1  0
 10 33  1  0
 12 34  1  0
 17 35  1  0
 18 36  1  0
 19 37  1  0
 22 38  1  0
 22 39  1  0
 23 40  1  0
 23 41  1  0
 24 42  1  0
 24 43  1  0
 25 44  1  0
 25 45  1  0
 26 46  1  0
 26 47  1  0
M  END
>  <meeko>  (5) 
{"is_sidechain": [false], "free_energy": -9.134, "intermolecular_energy": -11.223, "internal_energy": 0.087}

$$$$
cand_023_out
     RDKit          3D

 47 50  0  0  0  0  0  0  0  0999 V2000
   19.6250  -32.0680   37.7080 C   0  0  0  0  0  0  0  0  0  0  0  0
   20.4040  -30.7830   37.7890 C   0  0  0  0  0  0  0  0  0  0  0  0
   20.9460  -30.3780   39.0220 C   0  0  0  0  0  0  0  0  0  0  0  0
   21.6830  -29.1900   39.1430 C   0  0  0  0  0  0  0  0  0  0  0  0
   22.2130  -28.7830   40.4610 C   0  0  0  0  0  0  0  0  0  0  0  0
   23.1640  -29.6680   40.9580 O   0  0  0  0  0  0  0  0  0  0  0  0
   23.7400  -29.4100   42.1740 C   0  0  0  0  0  0  0  0  0  0  0  0
   24.6790  -30.3320   42.6400 C   0  0  0  0  0  0  0  0  0  0  0  0
   25.3050  -30.1270   43.8710 C   0  0  0  0  0  0  0  0  0  0  0  0
   24.9940  -29.0020   44.6370 C   0  0  0  0  0  0  0  0  0  0  0  0
   24.0560  -28.0840   44.1710 C   0  0  0  0  0  0  0  0  0  0  0  0
   23.7970  -27.0040   44.9710 O   0  0  0  0  0  0  0  0  0  0  0  0
   23.4290  -28.2890   42.9380 C   0  0  0  0  0  0  0  0  0  0  0  0
   22.4390  -27.3490   42.4110 C   0  0  0  0  0  0  0  0  0  0  0  0
   22.1170  -26.3320   43.0230 O   0  0  0  0  0  0  0  0  0  0  0  0
   21.8280  -27.6610   41.0990 C   0  0  0  0  0  0  0  0  0  0  0  0
   20.9040  -26.7590   40.6050 O   0  0  0  0  0  0  0  0  0  0  0  0
   21.8590  -28.4000   38.0020 C   0  0  0  0  0  0  0  0  0  0  0  0
   21.3270  -28.7950   36.7710 C   0  0  0  0  0  0  0  0  0  0  0  0
   20.5920  -29.9840   36.6450 C   0  0  0  0  0  0  0  0  0  0  0  0
   20.0570  -30.4110   35.4100 N   0  0  0  0  0  0  0  0  0  0  0  0
   19.6930  -29.3030   34.5140 C   0  0  0  0  0  0  0  0  0  0  0  0
   18.9140  -29.8620   33.3230 C   0  0  0  0  0  0  0  0  0  0  0  0
   19.7120  -30.9490   32.6050 C   0  0  0  0  0  0  0  0  0  0  0  0
   20.1630  -32.0330   33.5840 C   0  0  0  0  0  0  0  0  0  0  0  0
   20.9080  -31.4300   34.7750 C   0  0  0  0  0  0  0  0  0  0  0  0
   19.4063  -32.4288   38.7239 H   0  0  0  0  0  0  0  0  0  0  0  0
   18.6816  -31.8916   37.1705 H   0  0  0  0  0  0  0  0  0  0  0  0
   20.2177  -32.8228   37.1705 H   0  0  0  0  0  0  0  0  0  0  0  0
   20.7887  -31.0063   39.9111 H   0  0  0  0  0  0  0  0  0  0  0  0
   24.9254  -31.2190   42.0380 H   0  0  0  0  0  0  0  0  0  0  0  0
   26.0449  -30.8535   44.2381 H   0  0  0  0  0  0  0  0  0  0  0  0
   25.4886  -28.8410   45.6063 H   0  0  0  0  0  0  0  0  0  0  0  0
   23.3630  -26.2540   44.6180 H   0  0  0  0  0  0  0  0  0  0  0  0
   20.0350  -27.0440   40.4010 H   0  0  0  0  0  0  0  0  0  0  0  0
   22.4221  -27.4578   38.0742 H   0  0  0  0  0  0  0  0  0  0  0  0
   21.4873  -28.1626   35.8853 H   0  0  0  0  0  0  0  0  0  0  0  0
   19.0673  -28.5796   35.0573 H   0  0  0  0  0  0  0  0  0  0  0  0
   20.6032  -28.7976   34.1588 H   0  0  0  0  0  0  0  0  0  0  0  0
   17.9666  -30.2901   33.6824 H   0  0  0  0  0  0  0  0  0  0  0  0
   18.7239  -29.0425   32.6143 H   0  0  0  0  0  0  0  0  0  0  0  0
   19.0806  -31.4054   31.8285 H   0  0  0  0  0  0  0  0  0  0  0  0
   20.6043  -30.4896   32.1546 H   0  0  0  0  0  0  0  0  0  0  0  0
   19.2788  -32.5746   33.9512 H   0  0  0  0  0  0  0  0  0  0  0  0
   20.8457  -32.7153   33.0565 H   0  0  0  0  0  0  0  0  0  0  0  0
   21.1405  -32.2213   35.5029 H   0  0  0  0  0  0  0  0  0  0  0  0
   21.8449  -30.9679   34.4305 H   0  0  0  0  0  0  0  0  0  0  0  0
  1  2  1  0
  2  3  2  0
  3  4  1  0
  4  5  1  0
  5  6  1  0
  6  7  1  0
  7  8  2  0
  8  9  1  0
  9 10  2  0
 10 11  1  0
 11 12  1  0
 11 13  2  0
 13 14  1  0
 14 15  2  0
 14 16  1  0
 16 17  1  0
  4 18  2  0
 18 19  1  0
 19 20  2  0
 20 21  1  0
 21 22  1  0
 22 23  1  0
 23 24  1  0
 24 25  1  0
 25 26  1  0
 20  2  1  0
 26 21  1  0
 16  5  2  0
 13  7  1  0
  1 27  1  0
  1 28  1  0
  1 29  1  0
  3 30  1  0
  8 31  1  0
  9 32  1  0
 10 33  1  0
 12 34  1  0
 17 35  1  0
 18 36  1  0
 19 37  1  0
 22 38  1  0
 22 39  1  0
 23 40  1  0
 23 41  1  0
 24 42  1  0
 24 43  1  0
 25 44  1  0
 25 45  1  0
 26 46  1  0
 26 47  1  0
M  END
>  <meeko>  (6) 
{"is_sidechain": [false], "free_energy": -8.796, "intermolecular_energy": -10.399, "internal_energy": -0.34}

$$$$
cand_023_out
     RDKit          3D

 47 50  0  0  0  0  0  0  0  0999 V2000
   23.0100  -26.5200   42.6170 C   0  0  0  0  0  0  0  0  0  0  0  0
   21.7250  -26.5920   41.8370 C   0  0  0  0  0  0  0  0  0  0  0  0
   21.5350  -27.6320   40.9100 C   0  0  0  0  0  0  0  0  0  0  0  0
   20.3500  -27.7410   40.1650 C   0  0  0  0  0  0  0  0  0  0  0  0
   20.1980  -28.8320   39.1800 C   0  0  0  0  0  0  0  0  0  0  0  0
   19.8170  -30.0360   39.7610 O   0  0  0  0  0  0  0  0  0  0  0  0
   19.6370  -31.1340   38.9610 C   0  0  0  0  0  0  0  0  0  0  0  0
   19.2690  -32.3240   39.5890 C   0  0  0  0  0  0  0  0  0  0  0  0
   19.0680  -33.4790   38.8300 C   0  0  0  0  0  0  0  0  0  0  0  0
   19.2350  -33.4440   37.4440 C   0  0  0  0  0  0  0  0  0  0  0  0
   19.6040  -32.2550   36.8190 C   0  0  0  0  0  0  0  0  0  0  0  0
   19.7510  -32.2910   35.4590 O   0  0  0  0  0  0  0  0  0  0  0  0
   19.8050  -31.0990   37.5790 C   0  0  0  0  0  0  0  0  0  0  0  0
   20.1920  -29.8290   36.9630 C   0  0  0  0  0  0  0  0  0  0  0  0
   20.3520  -29.7180   35.7490 O   0  0  0  0  0  0  0  0  0  0  0  0
   20.3870  -28.6660   37.8570 C   0  0  0  0  0  0  0  0  0  0  0  0
   20.7390  -27.4680   37.2620 O   0  0  0  0  0  0  0  0  0  0  0  0
   19.3570  -26.7750   40.3540 C   0  0  0  0  0  0  0  0  0  0  0  0
   19.5350  -25.7380   41.2760 C   0  0  0  0  0  0  0  0  0  0  0  0
   20.7160  -25.6280   42.0260 C   0  0  0  0  0  0  0  0  0  0  0  0
   20.9140  -24.5990   42.9720 N   0  0  0  0  0  0  0  0  0  0  0  0
   20.8000  -23.2480   42.4020 C   0  0  0  0  0  0  0  0  0  0  0  0
   21.2620  -22.2270   43.4430 C   0  0  0  0  0  0  0  0  0  0  0  0
   20.4760  -22.3750   44.7440 C   0  0  0  0  0  0  0  0  0  0  0  0
   20.5300  -23.8140   45.2550 C   0  0  0  0  0  0  0  0  0  0  0  0
   20.0920  -24.8040   44.1750 C   0  0  0  0  0  0  0  0  0  0  0  0
   22.7864  -26.5325   43.6940 H   0  0  0  0  0  0  0  0  0  0  0  0
   23.6417  -27.3842   42.3636 H   0  0  0  0  0  0  0  0  0  0  0  0
   23.5412  -25.5907   42.3636 H   0  0  0  0  0  0  0  0  0  0  0  0
   22.3320  -28.3763   40.7654 H   0  0  0  0  0  0  0  0  0  0  0  0
   19.1373  -32.3526   40.6807 H   0  0  0  0  0  0  0  0  0  0  0  0
   18.7777  -34.4176   39.3247 H   0  0  0  0  0  0  0  0  0  0  0  0
   19.0754  -34.3538   36.8467 H   0  0  0  0  0  0  0  0  0  0  0  0
   20.5970  -32.4340   35.0840 H   0  0  0  0  0  0  0  0  0  0  0  0
   20.7150  -27.3840   36.3290 H   0  0  0  0  0  0  0  0  0  0  0  0
   18.4257  -26.8310   39.7714 H   0  0  0  0  0  0  0  0  0  0  0  0
   18.7352  -24.9958   41.4155 H   0  0  0  0  0  0  0  0  0  0  0  0
   21.4321  -23.1718   41.5050 H   0  0  0  0  0  0  0  0  0  0  0  0
   19.7542  -23.0488   42.1251 H   0  0  0  0  0  0  0  0  0  0  0  0
   22.3312  -22.3829   43.6494 H   0  0  0  0  0  0  0  0  0  0  0  0
   21.0890  -21.2170   43.0429 H   0  0  0  0  0  0  0  0  0  0  0  0
   20.9083  -21.7070   45.5035 H   0  0  0  0  0  0  0  0  0  0  0  0
   19.4258  -22.1104   44.5513 H   0  0  0  0  0  0  0  0  0  0  0  0
   21.5611  -24.0480   45.5586 H   0  0  0  0  0  0  0  0  0  0  0  0
   19.8426  -23.9052   46.1089 H   0  0  0  0  0  0  0  0  0  0  0  0
   20.2259  -25.8324   44.5418 H   0  0  0  0  0  0  0  0  0  0  0  0
   19.0317  -24.6416   43.9314 H   0  0  0  0  0  0  0  0  0  0  0  0
  1  2  1  0
  2  3  2  0
  3  4  1  0
  4  5  1  0
  5  6  1  0
  6  7  1  0
  7  8  2  0
  8  9  1  0
  9 10  2  0
 10 11  1  0
 11 12  1  0
 11 13  2  0
 13 14  1  0
 14 15  2  0
 14 16  1  0
 16 17  1  0
  4 18  2  0
 18 19  1  0
 19 20  2  0
 20 21  1  0
 21 22  1  0
 22 23  1  0
 23 24  1  0
 24 25  1  0
 25 26  1  0
 20  2  1  0
 26 21  1  0
 16  5  2  0
 13  7  1  0
  1 27  1  0
  1 28  1  0
  1 29  1  0
  3 30  1  0
  8 31  1  0
  9 32  1  0
 10 33  1  0
 12 34  1  0
 17 35  1  0
 18 36  1  0
 19 37  1  0
 22 38  1  0
 22 39  1  0
 23 40  1  0
 23 41  1  0
 24 42  1  0
 24 43  1  0
 25 44  1  0
 25 45  1  0
 26 46  1  0
 26 47  1  0
M  END
>  <meeko>  (7) 
{"is_sidechain": [false], "free_energy": -8.427, "intermolecular_energy": -9.608, "internal_energy": -0.698}

$$$$
cand_023_out
     RDKit          3D

 47 50  0  0  0  0  0  0  0  0999 V2000
   18.7750  -23.6180   45.1750 C   0  0  0  0  0  0  0  0  0  0  0  0
   20.0060  -24.3900   44.7810 C   0  0  0  0  0  0  0  0  0  0  0  0
   20.0910  -24.9480   43.4920 C   0  0  0  0  0  0  0  0  0  0  0  0
   21.2220  -25.6710   43.0810 C   0  0  0  0  0  0  0  0  0  0  0  0
   21.2630  -26.2650   41.7280 C   0  0  0  0  0  0  0  0  0  0  0  0
   21.8410  -27.5300   41.7110 O   0  0  0  0  0  0  0  0  0  0  0  0
   21.9410  -28.1990   40.5200 C   0  0  0  0  0  0  0  0  0  0  0  0
   22.5400  -29.4590   40.5470 C   0  0  0  0  0  0  0  0  0  0  0  0
   22.6720  -30.1940   39.3680 C   0  0  0  0  0  0  0  0  0  0  0  0
   22.2060  -29.6700   38.1600 C   0  0  0  0  0  0  0  0  0  0  0  0
   21.6090  -28.4120   38.1340 C   0  0  0  0  0  0  0  0  0  0  0  0
   21.1740  -27.9590   36.9190 O   0  0  0  0  0  0  0  0  0  0  0  0
   21.4770  -27.6760   39.3160 C   0  0  0  0  0  0  0  0  0  0  0  0
   20.8550  -26.3510   39.3340 C   0  0  0  0  0  0  0  0  0  0  0  0
   20.4150  -25.8260   38.3120 O   0  0  0  0  0  0  0  0  0  0  0  0
   20.7710  -25.6520   40.6360 C   0  0  0  0  0  0  0  0  0  0  0  0
   20.1690  -24.4060   40.6420 O   0  0  0  0  0  0  0  0  0  0  0  0
   22.2690  -25.8400   43.9930 C   0  0  0  0  0  0  0  0  0  0  0  0
   22.1960  -25.2870   45.2750 C   0  0  0  0  0  0  0  0  0  0  0  0
   21.0690  -24.5600   45.6900 C   0  0  0  0  0  0  0  0  0  0  0  0
   20.9770  -23.9810   46.9730 N   0  0  0  0  0  0  0  0  0  0  0  0
   20.9110  -24.9700   48.0600 C   0  0  0  0  0  0  0  0  0  0  0  0
   20.5760  -24.2510   49.3680 C   0  0  0  0  0  0  0  0  0  0  0  0
   21.5820  -23.1390   49.6570 C   0  0  0  0  0  0  0  0  0  0  0  0
   21.7030  -22.1880   48.4680 C   0  0  0  0  0  0  0  0  0  0  0  0
   22.0060  -22.9480   47.1770 C   0  0  0  0  0  0  0  0  0  0  0  0
   18.7051  -23.5742   46.2719 H   0  0  0  0  0  0  0  0  0  0  0  0
   18.8374  -22.5970   44.7705 H   0  0  0  0  0  0  0  0  0  0  0  0
   17.8830  -24.1188   44.7705 H   0  0  0  0  0  0  0  0  0  0  0  0
   19.2534  -24.8149   42.7915 H   0  0  0  0  0  0  0  0  0  0  0  0
   22.9081  -29.8729   41.4974 H   0  0  0  0  0  0  0  0  0  0  0  0
   23.1437  -31.1875   39.3901 H   0  0  0  0  0  0  0  0  0  0  0  0
   22.3103  -30.2498   37.2310 H   0  0  0  0  0  0  0  0  0  0  0  0
   20.3470  -27.5250   36.8500 H   0  0  0  0  0  0  0  0  0  0  0  0
   20.6810  -23.6410   40.8160 H   0  0  0  0  0  0  0  0  0  0  0  0
   23.1597  -26.4143   43.6983 H   0  0  0  0  0  0  0  0  0  0  0  0
   23.0367  -25.4240   45.9710 H   0  0  0  0  0  0  0  0  0  0  0  0
   20.1302  -25.7120   47.8366 H   0  0  0  0  0  0  0  0  0  0  0  0
   21.8796  -25.4826   48.1553 H   0  0  0  0  0  0  0  0  0  0  0  0
   19.5696  -23.8138   49.2901 H   0  0  0  0  0  0  0  0  0  0  0  0
   20.6174  -24.9818   50.1891 H   0  0  0  0  0  0  0  0  0  0  0  0
   21.2482  -22.5721   50.5386 H   0  0  0  0  0  0  0  0  0  0  0  0
   22.5655  -23.5955   49.8422 H   0  0  0  0  0  0  0  0  0  0  0  0
   20.7557  -21.6418   48.3483 H   0  0  0  0  0  0  0  0  0  0  0  0
   22.5319  -21.4918   48.6635 H   0  0  0  0  0  0  0  0  0  0  0  0
   21.9994  -22.2488   46.3278 H   0  0  0  0  0  0  0  0  0  0  0  0
   22.9965  -23.4209   47.2493 H   0  0  0  0  0  0  0  0  0  0  0  0
  1  2  1  0
  2  3  2  0
  3  4  1  0
  4  5  1  0
  5  6  1  0
  6  7  1  0
  7  8  2  0
  8  9  1  0
  9 10  2  0
 10 11  1  0
 11 12  1  0
 11 13  2  0
 13 14  1  0
 14 15  2  0
 14 16  1  0
 16 17  1  0
  4 18  2  0
 18 19  1  0
 19 20  2  0
 20 21  1  0
 21 22  1  0
 22 23  1  0
 23 24  1  0
 24 25  1  0
 25 26  1  0
 20  2  1  0
 26 21  1  0
 16  5  2  0
 13  7  1  0
  1 27  1  0
  1 28  1  0
  1 29  1  0
  3 30  1  0
  8 31  1  0
  9 32  1  0
 10 33  1  0
 12 34  1  0
 17 35  1  0
 18 36  1  0
 19 37  1  0
 22 38  1  0
 22 39  1  0
 23 40  1  0
 23 41  1  0
 24 42  1  0
 24 43  1  0
 25 44  1  0
 25 45  1  0
 26 46  1  0
 26 47  1  0
M  END
>  <meeko>  (8) 
{"is_sidechain": [false], "free_energy": -8.333, "intermolecular_energy": -9.9, "internal_energy": -0.295}

$$$$
