cand_050_out
     RDKit          3D

 38 40  0  0  0  0  0  0  0  0999 V2000
   23.1750  -26.9050   44.9330 C   0  0  0  0  0  0  0  0  0  0  0  0
   24.0220  -26.9200   43.6690 C   0  0  0  0  0  0  0  0  0  0  0  0
   23.4060  -27.7760   42.5830 C   0  0  0  0  0  0  0  0  0  0  0  0
   22.3840  -27.2160   41.7970 C   0  0  0  0  0  0  0  0  0  0  0  0
   21.7680  -27.9550   40.7850 C   0  0  0  0  0  0  0  0  0  0  0  0
   22.1560  -29.2730   40.5250 C   0  0  0  0  0  0  0  0  0  0  0  0
   21.4780  -30.0440   39.4620 C   0  0  0  0  0  0  0  0  0  0  0  0
   20.6560  -31.0480   39.9600 O   0  0  0  0  0  0  0  0  0  0  0  0
   19.9680  -31.8400   39.0770 C   0  0  0  0  0  0  0  0  0  0  0  0
   19.1670  -32.8460   39.6200 C   0  0  0  0  0  0  0  0  0  0  0  0
   18.4360  -33.6860   38.7760 C   0  0  0  0  0  0  0  0  0  0  0  0
   18.5070  -33.5200   37.3920 C   0  0  0  0  0  0  0  0  0  0  0  0
   19.3060  -32.5160   36.8530 C   0  0  0  0  0  0  0  0  0  0  0  0
   19.3290  -32.4090   35.4890 O   0  0  0  0  0  0  0  0  0  0  0  0
   20.0380  -31.6750   37.6970 C   0  0  0  0  0  0  0  0  0  0  0  0
   20.8900  -30.6090   37.1720 C   0  0  0  0  0  0  0  0  0  0  0  0
   20.9990  -30.3940   35.9660 O   0  0  0  0  0  0  0  0  0  0  0  0
   21.6290  -29.7790   38.1510 C   0  0  0  0  0  0  0  0  0  0  0  0
   22.4220  -28.7640   37.6470 O   0  0  0  0  0  0  0  0  0  0  0  0
   23.1640  -29.8390   41.3190 C   0  0  0  0  0  0  0  0  0  0  0  0
   23.7990  -29.1110   42.3490 C   0  0  0  0  0  0  0  0  0  0  0  0
   24.8920  -29.7840   43.1510 C   0  0  0  0  0  0  0  0  0  0  0  0
   25.6720  -28.9120   43.8530 F   0  0  0  0  0  0  0  0  0  0  0  0
   25.7570  -30.4980   42.3760 F   0  0  0  0  0  0  0  0  0  0  0  0
   24.4020  -30.6600   44.0720 F   0  0  0  0  0  0  0  0  0  0  0  0
   23.8323  -26.9166   45.8150 H   0  0  0  0  0  0  0  0  0  0  0  0
   22.5561  -25.9958   44.9489 H   0  0  0  0  0  0  0  0  0  0  0  0
   22.5243  -27.7918   44.9489 H   0  0  0  0  0  0  0  0  0  0  0  0
   24.1211  -25.8900   43.2958 H   0  0  0  0  0  0  0  0  0  0  0  0
   25.0031  -27.3477   43.9228 H   0  0  0  0  0  0  0  0  0  0  0  0
   22.0646  -26.1798   41.9820 H   0  0  0  0  0  0  0  0  0  0  0  0
   20.9685  -27.4952   40.1855 H   0  0  0  0  0  0  0  0  0  0  0  0
   19.1114  -32.9773   40.7107 H   0  0  0  0  0  0  0  0  0  0  0  0
   17.8040  -34.4788   39.2027 H   0  0  0  0  0  0  0  0  0  0  0  0
   17.9320  -34.1821   36.7279 H   0  0  0  0  0  0  0  0  0  0  0  0
   19.3270  -31.5650   35.0850 H   0  0  0  0  0  0  0  0  0  0  0  0
   22.1900  -27.8690   37.8000 H   0  0  0  0  0  0  0  0  0  0  0  0
   23.4687  -30.8797   41.1342 H   0  0  0  0  0  0  0  0  0  0  0  0
  1  2  1  0
  2  3  1  0
  3  4  2  0
  4  5  1  0
  5  6  2  0
  6  7  1  0
  7  8  1  0
  8  9  1  0
  9 10  2  0
 10 11  1  0
 11 12  2  0
 12 13  1  0
 13 14  1  0
 13 15  2  0
 15 16  1  0
 16 17  2  0
 16 18  1  0
 18 19  1  0
  6 20  1  0
 20 21  2  0
 21 22  1  0
 22 23  1  0
 22 24  1  0
 22 25  1  0
 21  3  1  0
 18  7  2  0
 15  9  1  0
  1 26  1  0
  1 27  1  0
  1 28  1  0
  2 29  1  0
  2 30  1  0
  4 31  1  0
  5 32  1  0
 10 33  1  0
 11 34  1  0
 12 35  1  0
 14 36  1  0
 19 37  1  0
 20 38  1  0
M  END
>  <meeko>  (1) 
{"is_sidechain": [false], "free_energy": -10.053, "intermolecular_energy": -12.404, "internal_energy": -0.255}

$$$$
cand_050_out
     RDKit          3D

 38 40  0  0  0  0  0  0  0  0999 V2000
   23.7800  -27.6590   43.2630 C   0  0  0  0  0  0  0  0  0  0  0  0
   22.7630  -26.9830   42.3540 C   0  0  0  0  0  0  0  0  0  0  0  0
   22.1390  -27.9570   41.3780 C   0  0  0  0  0  0  0  0  0  0  0  0
   22.9330  -29.0090   40.8910 C   0  0  0  0  0  0  0  0  0  0  0  0
   22.4210  -29.9370   39.9810 C   0  0  0  0  0  0  0  0  0  0  0  0
   21.0990  -29.8450   39.5350 C   0  0  0  0  0  0  0  0  0  0  0  0
   20.5820  -30.8260   38.5580 C   0  0  0  0  0  0  0  0  0  0  0  0
   20.1150  -31.9910   39.1560 O   0  0  0  0  0  0  0  0  0  0  0  0
   19.6080  -32.9860   38.3600 C   0  0  0  0  0  0  0  0  0  0  0  0
   19.1640  -34.1440   39.0000 C   0  0  0  0  0  0  0  0  0  0  0  0
   18.6340  -35.1960   38.2480 C   0  0  0  0  0  0  0  0  0  0  0  0
   18.5460  -35.0880   36.8590 C   0  0  0  0  0  0  0  0  0  0  0  0
   18.9900  -33.9320   36.2230 C   0  0  0  0  0  0  0  0  0  0  0  0
   18.8750  -33.8940   34.8600 O   0  0  0  0  0  0  0  0  0  0  0  0
   19.5210  -32.8800   36.9750 C   0  0  0  0  0  0  0  0  0  0  0  0
   19.9980  -31.6480   36.3460 C   0  0  0  0  0  0  0  0  0  0  0  0
   19.9490  -31.4750   35.1300 O   0  0  0  0  0  0  0  0  0  0  0  0
   20.5510  -30.5980   37.2310 C   0  0  0  0  0  0  0  0  0  0  0  0
   20.9880  -29.4310   36.6310 O   0  0  0  0  0  0  0  0  0  0  0  0
   20.3100  -28.7870   40.0070 C   0  0  0  0  0  0  0  0  0  0  0  0
   20.8070  -27.8360   40.9250 C   0  0  0  0  0  0  0  0  0  0  0  0
   19.8880  -26.7330   41.4040 C   0  0  0  0  0  0  0  0  0  0  0  0
   19.6580  -26.7570   42.7480 F   0  0  0  0  0  0  0  0  0  0  0  0
   18.6540  -26.7810   40.8260 F   0  0  0  0  0  0  0  0  0  0  0  0
   20.3790  -25.4900   41.1390 F   0  0  0  0  0  0  0  0  0  0  0  0
   23.5092  -27.4790   44.3139 H   0  0  0  0  0  0  0  0  0  0  0  0
   23.7856  -28.7412   43.0660 H   0  0  0  0  0  0  0  0  0  0  0  0
   24.7800  -27.2452   43.0660 H   0  0  0  0  0  0  0  0  0  0  0  0
   21.9681  -26.5442   42.9750 H   0  0  0  0  0  0  0  0  0  0  0  0
   23.2874  -26.2095   41.7736 H   0  0  0  0  0  0  0  0  0  0  0  0
   23.9746  -29.1034   41.2318 H   0  0  0  0  0  0  0  0  0  0  0  0
   23.0647  -30.7488   39.6114 H   0  0  0  0  0  0  0  0  0  0  0  0
   19.2311  -34.2286   40.0947 H   0  0  0  0  0  0  0  0  0  0  0  0
   18.2858  -36.1101   38.7512 H   0  0  0  0  0  0  0  0  0  0  0  0
   18.1264  -35.9153   36.2678 H   0  0  0  0  0  0  0  0  0  0  0  0
   18.2990  -34.4870   34.4220 H   0  0  0  0  0  0  0  0  0  0  0  0
   20.4390  -28.9880   36.0150 H   0  0  0  0  0  0  0  0  0  0  0  0
   19.2730  -28.6948   39.6518 H   0  0  0  0  0  0  0  0  0  0  0  0
  1  2  1  0
  2  3  1  0
  3  4  2  0
  4  5  1  0
  5  6  2  0
  6  7  1  0
  7  8  1  0
  8  9  1  0
  9 10  2  0
 10 11  1  0
 11 12  2  0
 12 13  1  0
 13 14  1  0
 13 15  2  0
 15 16  1  0
 16 17  2  0
 16 18  1  0
 18 19  1  0
  6 20  1  0
 20 21  2  0
 21 22  1  0
 22 23  1  0
 22 24  1  0
 22 25  1  0
 21  3  1  0
 18  7  2  0
 15  9  1  0
  1 26  1  0
  1 27  1  0
  1 28  1  0
  2 29  1  0
  2 30  1  0
  4 31  1  0
  5 32  1  0
 10 33  1  0
 11 34  1  0
 12 35  1  0
 14 36  1  0
 19 37  1  0
 20 38  1  0
M  END
>  <meeko>  (2) 
{"is_sidechain": [false], "free_energy": -9.929, "intermolecular_energy": -11.852, "internal_energy": -0.654}

$$$$
cand_050_out
     RDKit          3D

 38 40  0  0  0  0  0  0  0  0999 V2000
   21.6980  -25.3430   44.0140 C   0  0  0  0  0  0  0  0  0  0  0  0
   22.6630  -25.4800   42.8450 C   0  0  0  0  0  0  0  0  0  0  0  0
   22.2550  -26.5890   41.8990 C   0  0  0  0  0  0  0  0  0  0  0  0
   21.3240  -26.2900   40.8900 C   0  0  0  0  0  0  0  0  0  0  0  0
   20.8980  -27.2710   39.9900 C   0  0  0  0  0  0  0  0  0  0  0  0
   21.3920  -28.5760   40.0700 C   0  0  0  0  0  0  0  0  0  0  0  0
   20.9150  -29.6030   39.1200 C   0  0  0  0  0  0  0  0  0  0  0  0
   20.1680  -30.6040   39.7330 O   0  0  0  0  0  0  0  0  0  0  0  0
   19.6650  -31.6210   38.9620 C   0  0  0  0  0  0  0  0  0  0  0  0
   18.9350  -32.6110   39.6200 C   0  0  0  0  0  0  0  0  0  0  0  0
   18.3920  -33.6740   38.8940 C   0  0  0  0  0  0  0  0  0  0  0  0
   18.5790  -33.7460   37.5130 C   0  0  0  0  0  0  0  0  0  0  0  0
   19.3080  -32.7560   36.8590 C   0  0  0  0  0  0  0  0  0  0  0  0
   19.4530  -32.8880   35.5040 O   0  0  0  0  0  0  0  0  0  0  0  0
   19.8520  -31.6930   37.5850 C   0  0  0  0  0  0  0  0  0  0  0  0
   20.6250  -30.6330   36.9370 C   0  0  0  0  0  0  0  0  0  0  0  0
   20.8270  -30.6210   35.7240 O   0  0  0  0  0  0  0  0  0  0  0  0
   21.1640  -29.5550   37.7980 C   0  0  0  0  0  0  0  0  0  0  0  0
   21.8820  -28.5500   37.1760 O   0  0  0  0  0  0  0  0  0  0  0  0
   22.3090  -28.8800   41.0870 C   0  0  0  0  0  0  0  0  0  0  0  0
   22.7510  -27.9060   42.0080 C   0  0  0  0  0  0  0  0  0  0  0  0
   23.7560  -28.3060   43.0670 C   0  0  0  0  0  0  0  0  0  0  0  0
   24.6950  -27.3490   43.3190 F   0  0  0  0  0  0  0  0  0  0  0  0
   24.4610  -29.4240   42.7350 F   0  0  0  0  0  0  0  0  0  0  0  0
   23.1730  -28.5720   44.2690 F   0  0  0  0  0  0  0  0  0  0  0  0
   22.2542  -25.4220   44.9598 H   0  0  0  0  0  0  0  0  0  0  0  0
   21.1974  -24.3648   43.9636 H   0  0  0  0  0  0  0  0  0  0  0  0
   20.9450  -26.1432   43.9636 H   0  0  0  0  0  0  0  0  0  0  0  0
   22.6856  -24.5305   42.2902 H   0  0  0  0  0  0  0  0  0  0  0  0
   23.6549  -25.7278   43.2509 H   0  0  0  0  0  0  0  0  0  0  0  0
   20.9244  -25.2685   40.8071 H   0  0  0  0  0  0  0  0  0  0  0  0
   20.1661  -27.0132   39.2104 H   0  0  0  0  0  0  0  0  0  0  0  0
   18.7871  -32.5548   40.7086 H   0  0  0  0  0  0  0  0  0  0  0  0
   17.8162  -34.4553   39.4117 H   0  0  0  0  0  0  0  0  0  0  0  0
   18.1513  -34.5833   36.9420 H   0  0  0  0  0  0  0  0  0  0  0  0
   20.1560  -32.4550   35.0640 H   0  0  0  0  0  0  0  0  0  0  0  0
   22.2230  -28.6830   36.3140 H   0  0  0  0  0  0  0  0  0  0  0  0
   22.6947  -29.9069   41.1691 H   0  0  0  0  0  0  0  0  0  0  0  0
  1  2  1  0
  2  3  1  0
  3  4  2  0
  4  5  1  0
  5  6  2  0
  6  7  1  0
  7  8  1  0
  8  9  1  0
  9 10  2  0
 10 11  1  0
 11 12  2  0
 12 13  1  0
 13 14  1  0
 13 15  2  0
 15 16  1  0
 16 17  2  0
 16 18  1  0
 18 19  1  0
  6 20  1  0
 20 21  2  0
 21 22  1  0
 22 23  1  0
 22 24  1  0
 22 25  1  0
 21  3  1  0
 18  7  2  0
 15  9  1  0
  1 26  1  0
  1 27  1  0
  1 28  1  0
  2 29  1  0
  2 30  1  0
  4 31  1  0
  5 32  1  0
 10 33  1  0
 11 34  1  0
 12 35  1  0
 14 36  1  0
 19 37  1  0
 20 38  1  0
M  END
>  <meeko>  (3) 
{"is_sidechain": [false], "free_energy": -9.779, "intermolecular_energy": -11.832, "internal_energy": -0.488}

$$$$
cand_050_out
     RDKit          3D

 38 40  0  0  0  0  0  0  0  0999 V2000
   20.1500  -31.9520   34.8040 C   0  0  0  0  0  0  0  0  0  0  0  0
   19.7370  -32.4050   36.1970 C   0  0  0  0  0  0  0  0  0  0  0  0
   20.1600  -31.4190   37.2630 C   0  0  0  0  0  0  0  0  0  0  0  0
   20.8700  -30.2730   36.8630 C   0  0  0  0  0  0  0  0  0  0  0  0
   21.2970  -29.3280   37.7990 C   0  0  0  0  0  0  0  0  0  0  0  0
   21.0250  -29.4960   39.1600 C   0  0  0  0  0  0  0  0  0  0  0  0
   21.5020  -28.4930   40.1350 C   0  0  0  0  0  0  0  0  0  0  0  0
   22.4260  -29.0100   41.0360 O   0  0  0  0  0  0  0  0  0  0  0  0
   22.9490  -28.1820   41.9970 C   0  0  0  0  0  0  0  0  0  0  0  0
   23.8610  -28.7460   42.8900 C   0  0  0  0  0  0  0  0  0  0  0  0
   24.4340  -27.9580   43.8910 C   0  0  0  0  0  0  0  0  0  0  0  0
   24.0940  -26.6080   43.9980 C   0  0  0  0  0  0  0  0  0  0  0  0
   23.1840  -26.0480   43.1060 C   0  0  0  0  0  0  0  0  0  0  0  0
   22.8960  -24.7200   43.2690 O   0  0  0  0  0  0  0  0  0  0  0  0
   22.6100  -26.8370   42.1050 C   0  0  0  0  0  0  0  0  0  0  0  0
   21.6500  -26.2880   41.1470 C   0  0  0  0  0  0  0  0  0  0  0  0
   21.3060  -25.1080   41.1720 O   0  0  0  0  0  0  0  0  0  0  0  0
   21.0950  -27.2100   40.1300 C   0  0  0  0  0  0  0  0  0  0  0  0
   20.1980  -26.6810   39.2200 O   0  0  0  0  0  0  0  0  0  0  0  0
   20.3310  -30.6460   39.5630 C   0  0  0  0  0  0  0  0  0  0  0  0
   19.8920  -31.6150   38.6350 C   0  0  0  0  0  0  0  0  0  0  0  0
   19.1320  -32.8210   39.1450 C   0  0  0  0  0  0  0  0  0  0  0  0
   19.6970  -34.0130   38.7940 F   0  0  0  0  0  0  0  0  0  0  0  0
   17.8530  -32.8790   38.6790 F   0  0  0  0  0  0  0  0  0  0  0  0
   19.0390  -32.8470   40.5030 F   0  0  0  0  0  0  0  0  0  0  0  0
   20.8890  -31.1414   34.8861 H   0  0  0  0  0  0  0  0  0  0  0  0
   20.5934  -32.7987   34.2595 H   0  0  0  0  0  0  0  0  0  0  0  0
   19.2660  -31.5885   34.2595 H   0  0  0  0  0  0  0  0  0  0  0  0
   18.6425  -32.5111   36.2258 H   0  0  0  0  0  0  0  0  0  0  0  0
   20.2357  -33.3634   36.4040 H   0  0  0  0  0  0  0  0  0  0  0  0
   21.0925  -30.1183   35.7969 H   0  0  0  0  0  0  0  0  0  0  0  0
   21.8537  -28.4414   37.4613 H   0  0  0  0  0  0  0  0  0  0  0  0
   24.1283  -29.8097   42.8058 H   0  0  0  0  0  0  0  0  0  0  0  0
   25.1534  -28.4012   44.5953 H   0  0  0  0  0  0  0  0  0  0  0  0
   24.5449  -25.9876   44.7865 H   0  0  0  0  0  0  0  0  0  0  0  0
   23.1580  -24.2770   44.0510 H   0  0  0  0  0  0  0  0  0  0  0  0
   20.1490  -27.0320   38.3530 H   0  0  0  0  0  0  0  0  0  0  0  0
   20.1228  -30.7973   40.6325 H   0  0  0  0  0  0  0  0  0  0  0  0
  1  2  1  0
  2  3  1  0
  3  4  2  0
  4  5  1  0
  5  6  2  0
  6  7  1  0
  7  8  1  0
  8  9  1  0
  9 10  2  0
 10 11  1  0
 11 12  2  0
 12 13  1  0
 13 14  1  0
 13 15  2  0
 15 16  1  0
 16 17  2  0
 16 18  1  0
 18 19  1  0
  6 20  1  0
 20 21  2  0
 21 22  1  0
 22 23  1  0
 22 24  1  0
 22 25  1  0
 21  3  1  0
 18  7  2  0
 15  9  1  0
  1 26  1  0
  1 27  1  0
  1 28  1  0
  2 29  1  0
  2 30  1  0
  4 31  1  0
  5 32  1  0
 10 33  1  0
 11 34  1  0
 12 35  1  0
 14 36  1  0
 19 37  1  0
 20 38  1  0
M  END
>  <meeko>  (4) 
{"is_sidechain": [false], "free_energy": -9.636, "intermolecular_energy": -11.646, "internal_energy": -0.498}

$$$$
cand_050_out
     RDKit          3D

 38 40  0  0  0  0  0  0  0  0999 V2000
   23.4360  -27.6190   43.0970 C   0  0  0  0  0  0  0  0  0  0  0  0
   22.4150  -26.9860   42.1630 C   0  0  0  0  0  0  0  0  0  0  0  0
   21.8390  -27.9900   41.1880 C   0  0  0  0  0  0  0  0  0  0  0  0
   22.6630  -29.0440   40.7570 C   0  0  0  0  0  0  0  0  0  0  0  0
   22.1960  -29.9990   39.8510 C   0  0  0  0  0  0  0  0  0  0  0  0
   20.8920  -29.9320   39.3510 C   0  0  0  0  0  0  0  0  0  0  0  0
   20.4240  -30.9430   38.3790 C   0  0  0  0  0  0  0  0  0  0  0  0
   20.7720  -30.6360   37.0680 O   0  0  0  0  0  0  0  0  0  0  0  0
   20.3960  -31.4930   36.0660 C   0  0  0  0  0  0  0  0  0  0  0  0
   20.7530  -31.1390   34.7640 C   0  0  0  0  0  0  0  0  0  0  0  0
   20.4040  -31.9690   33.6960 C   0  0  0  0  0  0  0  0  0  0  0  0
   19.7000  -33.1510   33.9300 C   0  0  0  0  0  0  0  0  0  0  0  0
   19.3460  -33.5030   35.2300 C   0  0  0  0  0  0  0  0  0  0  0  0
   18.6570  -34.6750   35.3880 O   0  0  0  0  0  0  0  0  0  0  0  0
   19.6940  -32.6710   36.2990 C   0  0  0  0  0  0  0  0  0  0  0  0
   19.3410  -33.0030   37.6790 C   0  0  0  0  0  0  0  0  0  0  0  0
   18.7290  -34.0290   37.9680 O   0  0  0  0  0  0  0  0  0  0  0  0
   19.7510  -32.0520   38.7380 C   0  0  0  0  0  0  0  0  0  0  0  0
   19.4250  -32.3780   40.0410 O   0  0  0  0  0  0  0  0  0  0  0  0
   20.0740  -28.8720   39.7670 C   0  0  0  0  0  0  0  0  0  0  0  0
   20.5250  -27.8950   40.6800 C   0  0  0  0  0  0  0  0  0  0  0  0
   19.5770  -26.7910   41.0960 C   0  0  0  0  0  0  0  0  0  0  0  0
   20.0780  -25.5360   40.9020 F   0  0  0  0  0  0  0  0  0  0  0  0
   19.2440  -26.8460   42.4160 F   0  0  0  0  0  0  0  0  0  0  0  0
   18.4010  -26.8250   40.4100 F   0  0  0  0  0  0  0  0  0  0  0  0
   23.1410  -27.4361   44.1408 H   0  0  0  0  0  0  0  0  0  0  0  0
   23.4793  -28.7026   42.9127 H   0  0  0  0  0  0  0  0  0  0  0  0
   24.4258  -27.1759   42.9127 H   0  0  0  0  0  0  0  0  0  0  0  0
   21.5960  -26.5654   42.7649 H   0  0  0  0  0  0  0  0  0  0  0  0
   22.9251  -26.2031   41.5826 H   0  0  0  0  0  0  0  0  0  0  0  0
   23.6918  -29.1179   41.1392 H   0  0  0  0  0  0  0  0  0  0  0  0
   22.8615  -30.8128   39.5273 H   0  0  0  0  0  0  0  0  0  0  0  0
   21.3084  -30.2077   34.5791 H   0  0  0  0  0  0  0  0  0  0  0  0
   20.6844  -31.6906   32.6694 H   0  0  0  0  0  0  0  0  0  0  0  0
   19.4250  -33.8039   33.0885 H   0  0  0  0  0  0  0  0  0  0  0  0
   17.7440  -34.7120   35.1860 H   0  0  0  0  0  0  0  0  0  0  0  0
   20.0940  -32.4120   40.6960 H   0  0  0  0  0  0  0  0  0  0  0  0
   19.0507  -28.7998   39.3701 H   0  0  0  0  0  0  0  0  0  0  0  0
  1  2  1  0
  2  3  1  0
  3  4  2  0
  4  5  1  0
  5  6  2  0
  6  7  1  0
  7  8  1  0
  8  9  1  0
  9 10  2  0
 10 11  1  0
 11 12  2  0
 12 13  1  0
 13 14  1  0
 13 15  2  0
 15 16  1  0
 16 17  2  0
 16 18  1  0
 18 19  1  0
  6 20  1  0
 20 21  2  0
 21 22  1  0
 22 23  1  0
 22 24  1  0
 22 25  1  0
 21  3  1  0
 18  7  2  0
 15  9  1  0
  1 26  1  0
  1 27  1  0
  1 28  1  0
  2 29  1  0
  2 30  1  0
  4 31  1  0
  5 32  1  0
 10 33  1  0
 11 34  1  0
 12 35  1  0
 14 36  1  0
 19 37  1  0
 20 38  1  0
M  END
>  <meeko>  (5) 
{"is_sidechain": [false], "free_energy": -9.219, "intermolecular_energy": -10.97, "internal_energy": -0.659}

$$$$
cand_050_out
     RDKit          3D

 38 40  0  0  0  0  0  0  0  0999 V2000
   20.3570  -30.9100   34.9330 C   0  0  0  0  0  0  0  0  0  0  0  0
   19.9950  -31.6820   36.1930 C   0  0  0  0  0  0  0  0  0  0  0  0
   20.4380  -30.9610   37.4470 C   0  0  0  0  0  0  0  0  0  0  0  0
   21.2000  -29.7880   37.3030 C   0  0  0  0  0  0  0  0  0  0  0  0
   21.6490  -29.0800   38.4210 C   0  0  0  0  0  0  0  0  0  0  0  0
   21.3480  -29.5190   39.7130 C   0  0  0  0  0  0  0  0  0  0  0  0
   21.8480  -28.7640   40.8820 C   0  0  0  0  0  0  0  0  0  0  0  0
   21.0030  -27.7270   41.2590 O   0  0  0  0  0  0  0  0  0  0  0  0
   21.3510  -26.9460   42.3320 C   0  0  0  0  0  0  0  0  0  0  0  0
   20.4820  -25.9060   42.6670 C   0  0  0  0  0  0  0  0  0  0  0  0
   20.7760  -25.0750   43.7500 C   0  0  0  0  0  0  0  0  0  0  0  0
   21.9360  -25.2840   44.4980 C   0  0  0  0  0  0  0  0  0  0  0  0
   22.8010  -26.3210   44.1620 C   0  0  0  0  0  0  0  0  0  0  0  0
   23.9200  -26.4690   44.9360 O   0  0  0  0  0  0  0  0  0  0  0  0
   22.5080  -27.1530   43.0770 C   0  0  0  0  0  0  0  0  0  0  0  0
   23.3900  -28.2540   42.6900 C   0  0  0  0  0  0  0  0  0  0  0  0
   24.4260  -28.5070   43.3030 O   0  0  0  0  0  0  0  0  0  0  0  0
   22.9920  -29.0710   41.5210 C   0  0  0  0  0  0  0  0  0  0  0  0
   23.8240  -30.1190   41.1700 O   0  0  0  0  0  0  0  0  0  0  0  0
   20.6020  -30.6970   39.8590 C   0  0  0  0  0  0  0  0  0  0  0  0
   20.1400  -31.4300   38.7450 C   0  0  0  0  0  0  0  0  0  0  0  0
   19.3240  -32.6830   38.9820 C   0  0  0  0  0  0  0  0  0  0  0  0
   18.1150  -32.6780   38.3490 F   0  0  0  0  0  0  0  0  0  0  0  0
   19.0400  -32.8900   40.2990 F   0  0  0  0  0  0  0  0  0  0  0  0
   19.9570  -33.8100   38.5530 F   0  0  0  0  0  0  0  0  0  0  0  0
   20.8089  -29.9463   35.2106 H   0  0  0  0  0  0  0  0  0  0  0  0
   21.0751  -31.4941   34.3387 H   0  0  0  0  0  0  0  0  0  0  0  0
   19.4487  -30.7315   34.3387 H   0  0  0  0  0  0  0  0  0  0  0  0
   18.9036  -31.8149   36.2267 H   0  0  0  0  0  0  0  0  0  0  0  0
   20.5133  -32.6516   36.1578 H   0  0  0  0  0  0  0  0  0  0  0  0
   21.4463  -29.4222   36.2953 H   0  0  0  0  0  0  0  0  0  0  0  0
   22.2462  -28.1667   38.2824 H   0  0  0  0  0  0  0  0  0  0  0  0
   19.5672  -25.7414   42.0788 H   0  0  0  0  0  0  0  0  0  0  0  0
   20.0926  -24.2545   44.0141 H   0  0  0  0  0  0  0  0  0  0  0  0
   22.1660  -24.6298   45.3519 H   0  0  0  0  0  0  0  0  0  0  0  0
   24.7550  -26.5930   44.5330 H   0  0  0  0  0  0  0  0  0  0  0  0
   23.4630  -30.9680   41.0070 H   0  0  0  0  0  0  0  0  0  0  0  0
   20.3701  -31.0604   40.8710 H   0  0  0  0  0  0  0  0  0  0  0  0
  1  2  1  0
  2  3  1  0
  3  4  2  0
  4  5  1  0
  5  6  2  0
  6  7  1  0
  7  8  1  0
  8  9  1  0
  9 10  2  0
 10 11  1  0
 11 12  2  0
 12 13  1  0
 13 14  1  0
 13 15  2  0
 15 16  1  0
 16 17  2  0
 16 18  1  0
 18 19  1  0
  6 20  1  0
 20 21  2  0
 21 22  1  0
 22 23  1  0
 22 24  1  0
 22 25  1  0
 21  3  1  0
 18  7  2  0
 15  9  1  0
  1 26  1  0
  1 27  1  0
  1 28  1  0
  2 29  1  0
  2 30  1  0
  4 31  1  0
  5 32  1  0
 10 33  1  0
 11 34  1  0
 12 35  1  0
 14 36  1  0
 19 37  1  0
 20 38  1  0
M  END
>  <meeko>  (6) 
{"is_sidechain": [false], "free_energy": -9.194, "intermolecular_energy": -10.958, "internal_energy": -0.642}

$$$$
cand_050_out
     RDKit          3D

 38 40  0  0  0  0  0  0  0  0999 V2000
   20.1850  -24.2460   45.3520 C   0  0  0  0  0  0  0  0  0  0  0  0
   21.5240  -24.8330   44.9320 C   0  0  0  0  0  0  0  0  0  0  0  0
   21.4080  -25.6720   43.6770 C   0  0  0  0  0  0  0  0  0  0  0  0
   20.1970  -25.6340   42.9640 C   0  0  0  0  0  0  0  0  0  0  0  0
   20.0210  -26.3910   41.8040 C   0  0  0  0  0  0  0  0  0  0  0  0
   21.0490  -27.2050   41.3190 C   0  0  0  0  0  0  0  0  0  0  0  0
   20.8360  -28.0120   40.0990 C   0  0  0  0  0  0  0  0  0  0  0  0
   20.5120  -29.3360   40.3750 O   0  0  0  0  0  0  0  0  0  0  0  0
   20.2880  -30.1950   39.3300 C   0  0  0  0  0  0  0  0  0  0  0  0
   19.9810  -31.5180   39.6510 C   0  0  0  0  0  0  0  0  0  0  0  0
   19.7400  -32.4440   38.6340 C   0  0  0  0  0  0  0  0  0  0  0  0
   19.8040  -32.0470   37.2970 C   0  0  0  0  0  0  0  0  0  0  0  0
   20.1110  -30.7270   36.9790 C   0  0  0  0  0  0  0  0  0  0  0  0
   20.1580  -30.4070   35.6490 O   0  0  0  0  0  0  0  0  0  0  0  0
   20.3540  -29.8000   37.9970 C   0  0  0  0  0  0  0  0  0  0  0  0
   20.6790  -28.4040   37.7050 C   0  0  0  0  0  0  0  0  0  0  0  0
   20.7480  -27.9760   36.5550 O   0  0  0  0  0  0  0  0  0  0  0  0
   20.9260  -27.5050   38.8560 C   0  0  0  0  0  0  0  0  0  0  0  0
   21.2200  -26.1840   38.5730 O   0  0  0  0  0  0  0  0  0  0  0  0
   22.2520  -27.2570   42.0380 C   0  0  0  0  0  0  0  0  0  0  0  0
   22.4510  -26.5020   43.2140 C   0  0  0  0  0  0  0  0  0  0  0  0
   23.7840  -26.5970   43.9250 C   0  0  0  0  0  0  0  0  0  0  0  0
   23.6740  -26.8240   45.2670 F   0  0  0  0  0  0  0  0  0  0  0  0
   24.5280  -25.4610   43.8120 F   0  0  0  0  0  0  0  0  0  0  0  0
   24.5630  -27.6060   43.4460 F   0  0  0  0  0  0  0  0  0  0  0  0
   20.1245  -24.2195   46.4500 H   0  0  0  0  0  0  0  0  0  0  0  0
   20.0917  -23.2244   44.9549 H   0  0  0  0  0  0  0  0  0  0  0  0
   19.3705  -24.8696   44.9549 H   0  0  0  0  0  0  0  0  0  0  0  0
   22.2293  -24.0099   44.7448 H   0  0  0  0  0  0  0  0  0  0  0  0
   21.8786  -25.4846   45.7442 H   0  0  0  0  0  0  0  0  0  0  0  0
   19.3754  -24.9981   43.3255 H   0  0  0  0  0  0  0  0  0  0  0  0
   19.0627  -26.3464   41.2657 H   0  0  0  0  0  0  0  0  0  0  0  0
   19.9289  -31.8311   40.7042 H   0  0  0  0  0  0  0  0  0  0  0  0
   19.4995  -33.4873   38.8865 H   0  0  0  0  0  0  0  0  0  0  0  0
   19.6121  -32.7762   36.4961 H   0  0  0  0  0  0  0  0  0  0  0  0
   20.6990  -30.9020   35.0670 H   0  0  0  0  0  0  0  0  0  0  0  0
   20.6060  -25.5110   38.7900 H   0  0  0  0  0  0  0  0  0  0  0  0
   23.0637  -27.9047   41.6751 H   0  0  0  0  0  0  0  0  0  0  0  0
  1  2  1  0
  2  3  1  0
  3  4  2  0
  4  5  1  0
  5  6  2  0
  6  7  1  0
  7  8  1  0
  8  9  1  0
  9 10  2  0
 10 11  1  0
 11 12  2  0
 12 13  1  0
 13 14  1  0
 13 15  2  0
 15 16  1  0
 16 17  2  0
 16 18  1  0
 18 19  1  0
  6 20  1  0
 20 21  2  0
 21 22  1  0
 22 23  1  0
 22 24  1  0
 22 25  1  0
 21  3  1  0
 18  7  2  0
 15  9  1  0
  1 26  1  0
  1 27  1  0
  1 28  1  0
  2 29  1  0
  2 30  1  0
  4 31  1  0
  5 32  1  0
 10 33  1  0
 11 34  1  0
 12 35  1  0
 14 36  1  0
 19 37  1  0
 20 38  1  0
M  END
>  <meeko>  (7) 
{"is_sidechain": [false], "free_energy": -9.19, "intermolecular_energy": -10.997, "internal_energy": -0.597}

$$$$
cand_050_out
     RDKit          3D

 38 40  0  0  0  0  0  0  0  0999 V2000
   19.6920  -33.8720   34.3900 C   0  0  0  0  0  0  0  0  0  0  0  0
   19.3070  -34.0900   35.8460 C   0  0  0  0  0  0  0  0  0  0  0  0
   19.5730  -32.8640   36.6920 C   0  0  0  0  0  0  0  0  0  0  0  0
   20.0240  -31.6990   36.0480 C   0  0  0  0  0  0  0  0  0  0  0  0
   20.2980  -30.5360   36.7730 C   0  0  0  0  0  0  0  0  0  0  0  0
   20.1260  -30.5010   38.1600 C   0  0  0  0  0  0  0  0  0  0  0  0
   20.4380  -29.2660   38.9100 C   0  0  0  0  0  0  0  0  0  0  0  0
   21.4120  -29.4560   39.8840 O   0  0  0  0  0  0  0  0  0  0  0  0
   21.7950  -28.3870   40.6530 C   0  0  0  0  0  0  0  0  0  0  0  0
   22.7640  -28.6250   41.6290 C   0  0  0  0  0  0  0  0  0  0  0  0
   23.2020  -27.5800   42.4460 C   0  0  0  0  0  0  0  0  0  0  0  0
   22.6710  -26.2980   42.2860 C   0  0  0  0  0  0  0  0  0  0  0  0
   21.7040  -26.0640   41.3120 C   0  0  0  0  0  0  0  0  0  0  0  0
   21.2270  -24.7850   41.2110 O   0  0  0  0  0  0  0  0  0  0  0  0
   21.2660  -27.1100   40.4950 C   0  0  0  0  0  0  0  0  0  0  0  0
   20.2520  -26.9060   39.4600 C   0  0  0  0  0  0  0  0  0  0  0  0
   19.7430  -25.8070   39.2540 O   0  0  0  0  0  0  0  0  0  0  0  0
   19.8520  -28.0820   38.6540 C   0  0  0  0  0  0  0  0  0  0  0  0
   18.9030  -27.8790   37.6690 O   0  0  0  0  0  0  0  0  0  0  0  0
   19.6920  -31.6680   38.8060 C   0  0  0  0  0  0  0  0  0  0  0  0
   19.4120  -32.8550   38.0950 C   0  0  0  0  0  0  0  0  0  0  0  0
   18.9290  -34.0680   38.8600 C   0  0  0  0  0  0  0  0  0  0  0  0
   19.8400  -35.0830   38.9070 F   0  0  0  0  0  0  0  0  0  0  0  0
   17.8030  -34.6190   38.3270 F   0  0  0  0  0  0  0  0  0  0  0  0
   18.6310  -33.7840   40.1590 F   0  0  0  0  0  0  0  0  0  0  0  0
   20.6482  -33.3305   34.3407 H   0  0  0  0  0  0  0  0  0  0  0  0
   19.7956  -34.8455   33.8884 H   0  0  0  0  0  0  0  0  0  0  0  0
   18.9105  -33.2824   33.8884 H   0  0  0  0  0  0  0  0  0  0  0  0
   18.2351  -34.3314   35.8976 H   0  0  0  0  0  0  0  0  0  0  0  0
   19.9198  -34.9142   36.2399 H   0  0  0  0  0  0  0  0  0  0  0  0
   20.1634  -31.7026   34.9569 H   0  0  0  0  0  0  0  0  0  0  0  0
   20.6530  -29.6379   36.2463 H   0  0  0  0  0  0  0  0  0  0  0  0
   23.1824  -29.6345   41.7547 H   0  0  0  0  0  0  0  0  0  0  0  0
   23.9654  -27.7668   43.2157 H   0  0  0  0  0  0  0  0  0  0  0  0
   23.0163  -25.4746   42.9285 H   0  0  0  0  0  0  0  0  0  0  0  0
   20.6270  -24.5620   40.5280 H   0  0  0  0  0  0  0  0  0  0  0  0
   18.4920  -27.0420   37.5800 H   0  0  0  0  0  0  0  0  0  0  0  0
   19.5661  -31.6580   39.8987 H   0  0  0  0  0  0  0  0  0  0  0  0
  1  2  1  0
  2  3  1  0
  3  4  2  0
  4  5  1  0
  5  6  2  0
  6  7  1  0
  7  8  1  0
  8  9  1  0
  9 10  2  0
 10 11  1  0
 11 12  2  0
 12 13  1  0
 13 14  1  0
 13 15  2  0
 15 16  1  0
 16 17  2  0
 16 18  1  0
 18 19  1  0
  6 20  1  0
 20 21  2  0
 21 22  1  0
 22 23  1  0
 22 24  1  0
 22 25  1  0
 21  3  1  0
 18  7  2  0
 15  9  1  0
  1 26  1  0
  1 27  1  0
  1 28  1  0
  2 29  1  0
  2 30  1  0
  4 31  1  0
  5 32  1  0
 10 33  1  0
 11 34  1  0
 12 35  1  0
 14 36  1  0
 19 37  1  0
 20 38  1  0
M  END
>  <meeko>  (8) 
{"is_sidechain": [false], "free_energy": -8.868, "intermolecular_energy": -10.786, "internal_energy": -0.411}

$$$$
