cand_028_out
     RDKit          3D

 38 40  0  0  0  0  0  0  0  0999 V2000
   24.8750  -30.9300   43.0410 C   0  0  0  0  0  0  0  0  0  0  0  0
   24.8700  -29.4090   43.0960 C   0  0  0  0  0  0  0  0  0  0  0  0
   23.7130  -28.8200   42.3210 C   0  0  0  0  0  0  0  0  0  0  0  0
   23.1230  -29.6010   41.3060 C   0  0  0  0  0  0  0  0  0  0  0  0
   22.0610  -29.1210   40.5280 C   0  0  0  0  0  0  0  0  0  0  0  0
   21.4250  -29.9480   39.4820 C   0  0  0  0  0  0  0  0  0  0  0  0
   20.5860  -30.9280   40.0040 O   0  0  0  0  0  0  0  0  0  0  0  0
   19.9310  -31.7690   39.1400 C   0  0  0  0  0  0  0  0  0  0  0  0
   19.1130  -32.7460   39.7080 C   0  0  0  0  0  0  0  0  0  0  0  0
   18.4150  -33.6340   38.8860 C   0  0  0  0  0  0  0  0  0  0  0  0
   18.5360  -33.5440   37.4970 C   0  0  0  0  0  0  0  0  0  0  0  0
   19.3530  -32.5680   36.9340 C   0  0  0  0  0  0  0  0  0  0  0  0
   19.4260  -32.5350   35.5680 O   0  0  0  0  0  0  0  0  0  0  0  0
   20.0520  -31.6800   37.7580 C   0  0  0  0  0  0  0  0  0  0  0  0
   20.9220  -30.6390   37.2060 C   0  0  0  0  0  0  0  0  0  0  0  0
   21.0730  -30.4920   35.9960 O   0  0  0  0  0  0  0  0  0  0  0  0
   21.6230  -29.7550   38.1650 C   0  0  0  0  0  0  0  0  0  0  0  0
   22.4310  -28.7670   37.6320 O   0  0  0  0  0  0  0  0  0  0  0  0
   21.5760  -27.8350   40.7900 C   0  0  0  0  0  0  0  0  0  0  0  0
   22.1520  -27.0450   41.7890 C   0  0  0  0  0  0  0  0  0  0  0  0
   23.2270  -27.5200   42.5550 C   0  0  0  0  0  0  0  0  0  0  0  0
   23.8070  -26.6310   43.6210 C   0  0  0  0  0  0  0  0  0  0  0  0
   24.8763  -31.3339   44.0642 H   0  0  0  0  0  0  0  0  0  0  0  0
   23.9780  -31.2806   42.5095 H   0  0  0  0  0  0  0  0  0  0  0  0
   25.7743  -31.2747   42.5095 H   0  0  0  0  0  0  0  0  0  0  0  0
   24.7927  -29.0915   44.1463 H   0  0  0  0  0  0  0  0  0  0  0  0
   25.8040  -29.0486   42.6402 H   0  0  0  0  0  0  0  0  0  0  0  0
   23.5069  -30.6149   41.1198 H   0  0  0  0  0  0  0  0  0  0  0  0
   19.0178  -32.8170   40.8016 H   0  0  0  0  0  0  0  0  0  0  0  0
   17.7696  -34.4047   39.3326 H   0  0  0  0  0  0  0  0  0  0  0  0
   17.9865  -34.2432   36.8496 H   0  0  0  0  0  0  0  0  0  0  0  0
   19.9700  -31.9010   35.1430 H   0  0  0  0  0  0  0  0  0  0  0  0
   23.1550  -28.9980   37.0840 H   0  0  0  0  0  0  0  0  0  0  0  0
   20.7326  -27.4415   40.2037 H   0  0  0  0  0  0  0  0  0  0  0  0
   21.7565  -26.0360   41.9773 H   0  0  0  0  0  0  0  0  0  0  0  0
   23.5468  -27.0298   44.6126 H   0  0  0  0  0  0  0  0  0  0  0  0
   24.9014  -26.5973   43.5149 H   0  0  0  0  0  0  0  0  0  0  0  0
   23.3969  -25.6158   43.5149 H   0  0  0  0  0  0  0  0  0  0  0  0
  1  2  1  0
  2  3  1  0
  3  4  2  0
  4  5  1  0
  5  6  1  0
  6  7  1  0
  7  8  1  0
  8  9  2  0
  9 10  1  0
 10 11  2  0
 11 12  1  0
 12 13  1  0
 12 14  2  0
 14 15  1  0
 15 16  2  0
 15 17  1  0
 17 18  1  0
  5 19  2  0
 19 20  1  0
 20 21  2  0
 21 22  1  0
 21  3  1  0
 17  6  2  0
 14  8  1  0
  1 23  1  0
  1 24  1  0
  1 25  1  0
  2 26  1  0
  2 27  1  0
  4 28  1  0
  9 29  1  0
 10 30  1  0
 11 31  1  0
 13 32  1  0
 18 33  1  0
 19 34  1  0
 20 35  1  0
 22 36  1  0
 22 37  1  0
 22 38  1  0
M  END
>  <meeko>  (1) 
{"is_sidechain": [false], "free_energy": -9.331, "intermolecular_energy": -10.968, "internal_energy": -0.437}

$$$$
cand_028_out
     RDKit          3D

 38 40  0  0  0  0  0  0  0  0999 V2000
   20.0890  -26.1070   42.7160 C   0  0  0  0  0  0  0  0  0  0  0  0
   21.4700  -25.9510   42.0950 C   0  0  0  0  0  0  0  0  0  0  0  0
   22.0810  -27.2870   41.7350 C   0  0  0  0  0  0  0  0  0  0  0  0
   21.4680  -28.0490   40.7200 C   0  0  0  0  0  0  0  0  0  0  0  0
   21.9600  -29.3050   40.3420 C   0  0  0  0  0  0  0  0  0  0  0  0
   21.3350  -30.0940   39.2590 C   0  0  0  0  0  0  0  0  0  0  0  0
   20.5590  -31.1450   39.7360 O   0  0  0  0  0  0  0  0  0  0  0  0
   19.9210  -31.9600   38.8370 C   0  0  0  0  0  0  0  0  0  0  0  0
   19.1670  -33.0110   39.3590 C   0  0  0  0  0  0  0  0  0  0  0  0
   18.4890  -33.8770   38.4980 C   0  0  0  0  0  0  0  0  0  0  0  0
   18.5660  -33.6930   37.1150 C   0  0  0  0  0  0  0  0  0  0  0  0
   19.3190  -32.6430   36.5980 C   0  0  0  0  0  0  0  0  0  0  0  0
   19.3510  -32.5180   35.2350 O   0  0  0  0  0  0  0  0  0  0  0  0
   19.9980  -31.7770   37.4600 C   0  0  0  0  0  0  0  0  0  0  0  0
   20.8010  -30.6600   36.9560 C   0  0  0  0  0  0  0  0  0  0  0  0
   20.9110  -30.4290   35.7550 O   0  0  0  0  0  0  0  0  0  0  0  0
   21.4860  -29.8070   37.9540 C   0  0  0  0  0  0  0  0  0  0  0  0
   22.2310  -28.7480   37.4670 O   0  0  0  0  0  0  0  0  0  0  0  0
   23.1000  -29.7940   40.9910 C   0  0  0  0  0  0  0  0  0  0  0  0
   23.7160  -29.0540   42.0030 C   0  0  0  0  0  0  0  0  0  0  0  0
   23.2130  -27.8040   42.3930 C   0  0  0  0  0  0  0  0  0  0  0  0
   23.9170  -27.0460   43.4850 C   0  0  0  0  0  0  0  0  0  0  0  0
   20.1768  -26.0971   43.8124 H   0  0  0  0  0  0  0  0  0  0  0  0
   19.4453  -25.2759   42.3922 H   0  0  0  0  0  0  0  0  0  0  0  0
   19.6470  -27.0608   42.3922 H   0  0  0  0  0  0  0  0  0  0  0  0
   21.3830  -25.3424   41.1828 H   0  0  0  0  0  0  0  0  0  0  0  0
   22.1235  -25.4657   42.8348 H   0  0  0  0  0  0  0  0  0  0  0  0
   20.5796  -27.6467   40.2111 H   0  0  0  0  0  0  0  0  0  0  0  0
   19.1064  -33.1577   40.4475 H   0  0  0  0  0  0  0  0  0  0  0  0
   17.8934  -34.7053   38.9094 H   0  0  0  0  0  0  0  0  0  0  0  0
   18.0331  -34.3759   36.4370 H   0  0  0  0  0  0  0  0  0  0  0  0
   18.7440  -32.9990   34.7070 H   0  0  0  0  0  0  0  0  0  0  0  0
   23.1620  -28.8250   37.3920 H   0  0  0  0  0  0  0  0  0  0  0  0
   23.5148  -30.7707   40.7011 H   0  0  0  0  0  0  0  0  0  0  0  0
   24.6094  -29.4578   42.5018 H   0  0  0  0  0  0  0  0  0  0  0  0
   23.5762  -27.4129   44.4644 H   0  0  0  0  0  0  0  0  0  0  0  0
   25.0029  -27.1966   43.3946 H   0  0  0  0  0  0  0  0  0  0  0  0
   23.6867  -25.9742   43.3946 H   0  0  0  0  0  0  0  0  0  0  0  0
  1  2  1  0
  2  3  1  0
  3  4  2  0
  4  5  1  0
  5  6  1  0
  6  7  1  0
  7  8  1  0
  8  9  2  0
  9 10  1  0
 10 11  2  0
 11 12  1  0
 12 13  1  0
 12 14  2  0
 14 15  1  0
 15 16  2  0
 15 17  1  0
 17 18  1  0
  5 19  2  0
 19 20  1  0
 20 21  2  0
 21 22  1  0
 21  3  1  0
 17  6  2  0
 14  8  1  0
  1 23  1  0
  1 24  1  0
  1 25  1  0
  2 26  1  0
  2 27  1  0
  4 28  1  0
  9 29  1  0
 10 30  1  0
 11 31  1  0
 13 32  1  0
 18 33  1  0
 19 34  1  0
 20 35  1  0
 22 36  1  0
 22 37  1  0
 22 38  1  0
M  END
>  <meeko>  (2) 
{"is_sidechain": [false], "free_energy": -9.062, "intermolecular_energy": -10.623, "internal_energy": -0.465}

$$$$
cand_028_out
     RDKit          3D

 38 40  0  0  0  0  0  0  0  0999 V2000
   18.1010  -32.4010   39.4060 C   0  0  0  0  0  0  0  0  0  0  0  0
   19.5170  -32.6080   38.8890 C   0  0  0  0  0  0  0  0  0  0  0  0
   20.1560  -31.3070   38.4560 C   0  0  0  0  0  0  0  0  0  0  0  0
   20.5690  -30.4020   39.4550 C   0  0  0  0  0  0  0  0  0  0  0  0
   21.1510  -29.1680   39.1360 C   0  0  0  0  0  0  0  0  0  0  0  0
   21.6090  -28.2290   40.1820 C   0  0  0  0  0  0  0  0  0  0  0  0
   22.4820  -28.8180   41.0910 O   0  0  0  0  0  0  0  0  0  0  0  0
   22.9840  -28.0580   42.1170 C   0  0  0  0  0  0  0  0  0  0  0  0
   23.8420  -28.6940   43.0140 C   0  0  0  0  0  0  0  0  0  0  0  0
   24.3910  -27.9770   44.0800 C   0  0  0  0  0  0  0  0  0  0  0  0
   24.0800  -26.6260   44.2490 C   0  0  0  0  0  0  0  0  0  0  0  0
   23.2230  -25.9950   43.3520 C   0  0  0  0  0  0  0  0  0  0  0  0
   22.9620  -24.6700   43.5740 O   0  0  0  0  0  0  0  0  0  0  0  0
   22.6740  -26.7130   42.2860 C   0  0  0  0  0  0  0  0  0  0  0  0
   21.7680  -26.0870   41.3200 C   0  0  0  0  0  0  0  0  0  0  0  0
   21.4540  -24.9020   41.3970 O   0  0  0  0  0  0  0  0  0  0  0  0
   21.2350  -26.9380   40.2320 C   0  0  0  0  0  0  0  0  0  0  0  0
   20.3910  -26.3330   39.3180 O   0  0  0  0  0  0  0  0  0  0  0  0
   21.3310  -28.8480   37.7860 C   0  0  0  0  0  0  0  0  0  0  0  0
   20.9220  -29.7310   36.7830 C   0  0  0  0  0  0  0  0  0  0  0  0
   20.3240  -30.9590   37.1020 C   0  0  0  0  0  0  0  0  0  0  0  0
   19.9060  -31.8760   35.9850 C   0  0  0  0  0  0  0  0  0  0  0  0
   18.1085  -32.4021   40.5060 H   0  0  0  0  0  0  0  0  0  0  0  0
   17.7154  -31.4369   39.0429 H   0  0  0  0  0  0  0  0  0  0  0  0
   17.4555  -33.2143   39.0429 H   0  0  0  0  0  0  0  0  0  0  0  0
   20.1259  -33.0541   39.6891 H   0  0  0  0  0  0  0  0  0  0  0  0
   19.4661  -33.2707   38.0125 H   0  0  0  0  0  0  0  0  0  0  0  0
   20.4307  -30.6717   40.5124 H   0  0  0  0  0  0  0  0  0  0  0  0
   24.0861  -29.7585   42.8823 H   0  0  0  0  0  0  0  0  0  0  0  0
   25.0691  -28.4772   44.7871 H   0  0  0  0  0  0  0  0  0  0  0  0
   24.5114  -26.0619   45.0891 H   0  0  0  0  0  0  0  0  0  0  0  0
   22.0850  -24.3470   43.5010 H   0  0  0  0  0  0  0  0  0  0  0  0
   19.6880  -25.7900   39.6170 H   0  0  0  0  0  0  0  0  0  0  0  0
   21.7993  -27.8914   37.5112 H   0  0  0  0  0  0  0  0  0  0  0  0
   21.0713  -29.4589   35.7277 H   0  0  0  0  0  0  0  0  0  0  0  0
   19.4847  -32.8001   36.4075 H   0  0  0  0  0  0  0  0  0  0  0  0
   19.1466  -31.3766   35.3654 H   0  0  0  0  0  0  0  0  0  0  0  0
   20.7811  -32.1217   35.3654 H   0  0  0  0  0  0  0  0  0  0  0  0
  1  2  1  0
  2  3  1  0
  3  4  2  0
  4  5  1  0
  5  6  1  0
  6  7  1  0
  7  8  1  0
  8  9  2  0
  9 10  1  0
 10 11  2  0
 11 12  1  0
 12 13  1  0
 12 14  2  0
 14 15  1  0
 15 16  2  0
 15 17  1  0
 17 18  1  0
  5 19  2  0
 19 20  1  0
 20 21  2  0
 21 22  1  0
 21  3  1  0
 17  6  2  0
 14  8  1  0
  1 23  1  0
  1 24  1  0
  1 25  1  0
  2 26  1  0
  2 27  1  0
  4 28  1  0
  9 29  1  0
 10 30  1  0
 11 31  1  0
 13 32  1  0
 18 33  1  0
 19 34  1  0
 20 35  1  0
 22 36  1  0
 22 37  1  0
 22 38  1  0
M  END
>  <meeko>  (3) 
{"is_sidechain": [false], "free_energy": -8.789, "intermolecular_energy": -10.504, "internal_energy": -0.263}

$$$$
cand_028_out
     RDKit          3D

 38 40  0  0  0  0  0  0  0  0999 V2000
   24.6150  -28.8120   44.1840 C   0  0  0  0  0  0  0  0  0  0  0  0
   24.3790  -27.3460   43.8500 C   0  0  0  0  0  0  0  0  0  0  0  0
   23.0190  -27.1210   43.2290 C   0  0  0  0  0  0  0  0  0  0  0  0
   22.7110  -27.8010   42.0330 C   0  0  0  0  0  0  0  0  0  0  0  0
   21.4810  -27.6310   41.3830 C   0  0  0  0  0  0  0  0  0  0  0  0
   21.1460  -28.3630   40.1430 C   0  0  0  0  0  0  0  0  0  0  0  0
   20.7240  -29.6660   40.3830 O   0  0  0  0  0  0  0  0  0  0  0  0
   20.3830  -30.4590   39.3170 C   0  0  0  0  0  0  0  0  0  0  0  0
   19.9800  -31.7640   39.6030 C   0  0  0  0  0  0  0  0  0  0  0  0
   19.6160  -32.6240   38.5640 C   0  0  0  0  0  0  0  0  0  0  0  0
   19.6560  -32.1800   37.2400 C   0  0  0  0  0  0  0  0  0  0  0  0
   20.0580  -30.8770   36.9590 C   0  0  0  0  0  0  0  0  0  0  0  0
   20.0730  -30.5060   35.6420 O   0  0  0  0  0  0  0  0  0  0  0  0
   20.4230  -30.0170   37.9990 C   0  0  0  0  0  0  0  0  0  0  0  0
   20.8520  -28.6400   37.7460 C   0  0  0  0  0  0  0  0  0  0  0  0
   20.9050  -28.1740   36.6110 O   0  0  0  0  0  0  0  0  0  0  0  0
   21.2240  -27.8140   38.9170 C   0  0  0  0  0  0  0  0  0  0  0  0
   21.6150  -26.5110   38.6680 O   0  0  0  0  0  0  0  0  0  0  0  0
   20.5390  -26.7720   41.9600 C   0  0  0  0  0  0  0  0  0  0  0  0
   20.8300  -26.0860   43.1430 C   0  0  0  0  0  0  0  0  0  0  0  0
   22.0680  -26.2430   43.7830 C   0  0  0  0  0  0  0  0  0  0  0  0
   22.3280  -25.4860   45.0570 C   0  0  0  0  0  0  0  0  0  0  0  0
   24.6357  -28.9405   45.2763 H   0  0  0  0  0  0  0  0  0  0  0  0
   23.8032  -29.4203   43.7586 H   0  0  0  0  0  0  0  0  0  0  0  0
   25.5767  -29.1348   43.7586 H   0  0  0  0  0  0  0  0  0  0  0  0
   24.4498  -26.7547   44.7749 H   0  0  0  0  0  0  0  0  0  0  0  0
   25.1421  -27.0353   43.1212 H   0  0  0  0  0  0  0  0  0  0  0  0
   23.4562  -28.4834   41.5983 H   0  0  0  0  0  0  0  0  0  0  0  0
   19.9490  -32.1150   40.6450 H   0  0  0  0  0  0  0  0  0  0  0  0
   19.2973  -33.6526   38.7888 H   0  0  0  0  0  0  0  0  0  0  0  0
   19.3707  -32.8578   36.4220 H   0  0  0  0  0  0  0  0  0  0  0  0
   19.8050  -29.6420   35.3960 H   0  0  0  0  0  0  0  0  0  0  0  0
   21.7440  -26.2200   37.7860 H   0  0  0  0  0  0  0  0  0  0  0  0
   19.5598  -26.6351   41.4780 H   0  0  0  0  0  0  0  0  0  0  0  0
   20.0766  -25.4130   43.5783 H   0  0  0  0  0  0  0  0  0  0  0  0
   22.1061  -26.1321   45.9192 H   0  0  0  0  0  0  0  0  0  0  0  0
   23.3834  -25.1780   45.0916 H   0  0  0  0  0  0  0  0  0  0  0  0
   21.6846  -24.5945   45.0916 H   0  0  0  0  0  0  0  0  0  0  0  0
  1  2  1  0
  2  3  1  0
  3  4  2  0
  4  5  1  0
  5  6  1  0
  6  7  1  0
  7  8  1  0
  8  9  2  0
  9 10  1  0
 10 11  2  0
 11 12  1  0
 12 13  1  0
 12 14  2  0
 14 15  1  0
 15 16  2  0
 15 17  1  0
 17 18  1  0
  5 19  2  0
 19 20  1  0
 20 21  2  0
 21 22  1  0
 21  3  1  0
 17  6  2  0
 14  8  1  0
  1 23  1  0
  1 24  1  0
  1 25  1  0
  2 26  1  0
  2 27  1  0
  4 28  1  0
  9 29  1  0
 10 30  1  0
 11 31  1  0
 13 32  1  0
 18 33  1  0
 19 34  1  0
 20 35  1  0
 22 36  1  0
 22 37  1  0
 22 38  1  0
M  END
>  <meeko>  (4) 
{"is_sidechain": [false], "free_energy": -8.661, "intermolecular_energy": -10.141, "internal_energy": -0.476}

$$$$
cand_028_out
     RDKit          3D

 38 40  0  0  0  0  0  0  0  0999 V2000
   18.1410  -32.3550   39.3480 C   0  0  0  0  0  0  0  0  0  0  0  0
   19.5280  -32.5840   38.7650 C   0  0  0  0  0  0  0  0  0  0  0  0
   20.2860  -31.2880   38.5850 C   0  0  0  0  0  0  0  0  0  0  0  0
   20.7340  -30.6120   39.7390 C   0  0  0  0  0  0  0  0  0  0  0  0
   21.4250  -29.3950   39.6590 C   0  0  0  0  0  0  0  0  0  0  0  0
   21.9180  -28.6990   40.8660 C   0  0  0  0  0  0  0  0  0  0  0  0
   21.1070  -27.6340   41.2440 O   0  0  0  0  0  0  0  0  0  0  0  0
   21.4510  -26.8980   42.3500 C   0  0  0  0  0  0  0  0  0  0  0  0
   20.6180  -25.8290   42.6820 C   0  0  0  0  0  0  0  0  0  0  0  0
   20.9080  -25.0410   43.7980 C   0  0  0  0  0  0  0  0  0  0  0  0
   22.0320  -25.3210   44.5800 C   0  0  0  0  0  0  0  0  0  0  0  0
   22.8600  -26.3890   44.2450 C   0  0  0  0  0  0  0  0  0  0  0  0
   23.9420  -26.6080   45.0540 O   0  0  0  0  0  0  0  0  0  0  0  0
   22.5690  -27.1770   43.1280 C   0  0  0  0  0  0  0  0  0  0  0  0
   23.4150  -28.3080   42.7410 C   0  0  0  0  0  0  0  0  0  0  0  0
   24.4140  -28.6220   43.3830 O   0  0  0  0  0  0  0  0  0  0  0  0
   23.0230  -29.0740   41.5360 C   0  0  0  0  0  0  0  0  0  0  0  0
   23.8220  -30.1480   41.1880 O   0  0  0  0  0  0  0  0  0  0  0  0
   21.6810  -28.8590   38.3920 C   0  0  0  0  0  0  0  0  0  0  0  0
   21.2390  -29.5130   37.2390 C   0  0  0  0  0  0  0  0  0  0  0  0
   20.5330  -30.7220   37.3200 C   0  0  0  0  0  0  0  0  0  0  0  0
   20.0840  -31.3880   36.0470 C   0  0  0  0  0  0  0  0  0  0  0  0
   18.1988  -32.3645   40.4464 H   0  0  0  0  0  0  0  0  0  0  0  0
   17.7571  -31.3813   39.0095 H   0  0  0  0  0  0  0  0  0  0  0  0
   17.4645  -33.1536   39.0095 H   0  0  0  0  0  0  0  0  0  0  0  0
   20.0959  -33.2365   39.4445 H   0  0  0  0  0  0  0  0  0  0  0  0
   19.4088  -33.0491   37.7753 H   0  0  0  0  0  0  0  0  0  0  0  0
   20.5359  -31.0514   40.7278 H   0  0  0  0  0  0  0  0  0  0  0  0
   19.7343  -25.6072   42.0657 H   0  0  0  0  0  0  0  0  0  0  0  0
   20.2511  -24.1991   44.0618 H   0  0  0  0  0  0  0  0  0  0  0  0
   22.2619  -24.6992   45.4578 H   0  0  0  0  0  0  0  0  0  0  0  0
   23.8150  -26.8690   45.9450 H   0  0  0  0  0  0  0  0  0  0  0  0
   23.9150  -30.8730   41.7750 H   0  0  0  0  0  0  0  0  0  0  0  0
   22.2358  -27.9133   38.3028 H   0  0  0  0  0  0  0  0  0  0  0  0
   21.4480  -29.0728   36.2528 H   0  0  0  0  0  0  0  0  0  0  0  0
   19.4843  -32.2775   36.2903 H   0  0  0  0  0  0  0  0  0  0  0  0
   19.4751  -30.6845   35.4602 H   0  0  0  0  0  0  0  0  0  0  0  0
   20.9645  -31.6887   35.4602 H   0  0  0  0  0  0  0  0  0  0  0  0
  1  2  1  0
  2  3  1  0
  3  4  2  0
  4  5  1  0
  5  6  1  0
  6  7  1  0
  7  8  1  0
  8  9  2  0
  9 10  1  0
 10 11  2  0
 11 12  1  0
 12 13  1  0
 12 14  2  0
 14 15  1  0
 15 16  2  0
 15 17  1  0
 17 18  1  0
  5 19  2  0
 19 20  1  0
 20 21  2  0
 21 22  1  0
 21  3  1  0
 17  6  2  0
 14  8  1  0
  1 23  1  0
  1 24  1  0
  1 25  1  0
  2 26  1  0
  2 27  1  0
  4 28  1  0
  9 29  1  0
 10 30  1  0
 11 31  1  0
 13 32  1  0
 18 33  1  0
 19 34  1  0
 20 35  1  0
 22 36  1  0
 22 37  1  0
 22 38  1  0
M  END
>  <meeko>  (5) 
{"is_sidechain": [false], "free_energy": -8.562, "intermolecular_energy": -10.023, "internal_energy": -0.478}

$$$$
cand_028_out
     RDKit          3D

 38 40  0  0  0  0  0  0  0  0999 V2000
   23.4180  -29.8110   41.2330 C   0  0  0  0  0  0  0  0  0  0  0  0
   22.6550  -28.4950   41.2500 C   0  0  0  0  0  0  0  0  0  0  0  0
   21.3640  -28.5800   40.4680 C   0  0  0  0  0  0  0  0  0  0  0  0
   21.1760  -29.6820   39.6090 C   0  0  0  0  0  0  0  0  0  0  0  0
   20.0170  -29.8250   38.8350 C   0  0  0  0  0  0  0  0  0  0  0  0
   19.8070  -30.9930   37.9540 C   0  0  0  0  0  0  0  0  0  0  0  0
   20.1970  -30.7560   36.6400 O   0  0  0  0  0  0  0  0  0  0  0  0
   20.0550  -31.7590   35.7150 C   0  0  0  0  0  0  0  0  0  0  0  0
   20.4450  -31.4720   34.4060 C   0  0  0  0  0  0  0  0  0  0  0  0
   20.3290  -32.4490   33.4150 C   0  0  0  0  0  0  0  0  0  0  0  0
   19.8230  -33.7120   33.7320 C   0  0  0  0  0  0  0  0  0  0  0  0
   19.4360  -33.9950   35.0390 C   0  0  0  0  0  0  0  0  0  0  0  0
   18.9510  -35.2510   35.2820 O   0  0  0  0  0  0  0  0  0  0  0  0
   19.5510  -33.0160   36.0310 C   0  0  0  0  0  0  0  0  0  0  0  0
   19.1550  -33.2730   37.4170 C   0  0  0  0  0  0  0  0  0  0  0  0
   18.7100  -34.3600   37.7750 O   0  0  0  0  0  0  0  0  0  0  0  0
   19.3110  -32.1660   38.3880 C   0  0  0  0  0  0  0  0  0  0  0  0
   18.9450  -32.4240   39.6970 O   0  0  0  0  0  0  0  0  0  0  0  0
   19.0240  -28.8440   38.9400 C   0  0  0  0  0  0  0  0  0  0  0  0
   19.1970  -27.7420   39.7820 C   0  0  0  0  0  0  0  0  0  0  0  0
   20.3650  -27.5910   40.5440 C   0  0  0  0  0  0  0  0  0  0  0  0
   20.4980  -26.3890   41.4390 C   0  0  0  0  0  0  0  0  0  0  0  0
   23.6077  -30.1382   42.2659 H   0  0  0  0  0  0  0  0  0  0  0  0
   22.8220  -30.5737   40.7104 H   0  0  0  0  0  0  0  0  0  0  0  0
   24.3760  -29.6727   40.7104 H   0  0  0  0  0  0  0  0  0  0  0  0
   22.4223  -28.2326   42.2926 H   0  0  0  0  0  0  0  0  0  0  0  0
   23.2881  -27.7285   40.7792 H   0  0  0  0  0  0  0  0  0  0  0  0
   21.9606  -30.4503   39.5448 H   0  0  0  0  0  0  0  0  0  0  0  0
   20.8432  -30.4777   34.1553 H   0  0  0  0  0  0  0  0  0  0  0  0
   20.6365  -32.2238   32.3832 H   0  0  0  0  0  0  0  0  0  0  0  0
   19.7306  -34.4809   32.9508 H   0  0  0  0  0  0  0  0  0  0  0  0
   18.2910  -35.6140   34.7230 H   0  0  0  0  0  0  0  0  0  0  0  0
   19.4060  -32.0130   40.4020 H   0  0  0  0  0  0  0  0  0  0  0  0
   18.0982  -28.9414   38.3539 H   0  0  0  0  0  0  0  0  0  0  0  0
   18.4051  -26.9814   39.8482 H   0  0  0  0  0  0  0  0  0  0  0  0
   20.4626  -26.7093   42.4907 H   0  0  0  0  0  0  0  0  0  0  0  0
   21.4570  -25.8882   41.2403 H   0  0  0  0  0  0  0  0  0  0  0  0
   19.6716  -25.6907   41.2403 H   0  0  0  0  0  0  0  0  0  0  0  0
  1  2  1  0
  2  3  1  0
  3  4  2  0
  4  5  1  0
  5  6  1  0
  6  7  1  0
  7  8  1  0
  8  9  2  0
  9 10  1  0
 10 11  2  0
 11 12  1  0
 12 13  1  0
 12 14  2  0
 14 15  1  0
 15 16  2  0
 15 17  1  0
 17 18  1  0
  5 19  2  0
 19 20  1  0
 20 21  2  0
 21 22  1  0
 21  3  1  0
 17  6  2  0
 14  8  1  0
  1 23  1  0
  1 24  1  0
  1 25  1  0
  2 26  1  0
  2 27  1  0
  4 28  1  0
  9 29  1  0
 10 30  1  0
 11 31  1  0
 13 32  1  0
 18 33  1  0
 19 34  1  0
 20 35  1  0
 22 36  1  0
 22 37  1  0
 22 38  1  0
M  END
>  <meeko>  (6) 
{"is_sidechain": [false], "free_energy": -8.548, "intermolecular_energy": -10.008, "internal_energy": -0.475}

$$$$
cand_028_out
     RDKit          3D

 38 40  0  0  0  0  0  0  0  0999 V2000
   18.2540  -26.2840   39.1850 C   0  0  0  0  0  0  0  0  0  0  0  0
   18.9510  -26.7480   40.4560 C   0  0  0  0  0  0  0  0  0  0  0  0
   19.9820  -27.8170   40.1760 C   0  0  0  0  0  0  0  0  0  0  0  0
   19.6350  -28.8660   39.3010 C   0  0  0  0  0  0  0  0  0  0  0  0
   20.5270  -29.9060   39.0050 C   0  0  0  0  0  0  0  0  0  0  0  0
   20.1740  -30.9930   38.0670 C   0  0  0  0  0  0  0  0  0  0  0  0
   20.5390  -30.7130   36.7550 O   0  0  0  0  0  0  0  0  0  0  0  0
   20.2680  -31.6380   35.7790 C   0  0  0  0  0  0  0  0  0  0  0  0
   20.6370  -31.3080   34.4750 C   0  0  0  0  0  0  0  0  0  0  0  0
   20.3920  -32.2070   33.4340 C   0  0  0  0  0  0  0  0  0  0  0  0
   19.7790  -33.4340   33.6970 C   0  0  0  0  0  0  0  0  0  0  0  0
   19.4120  -33.7590   35.0000 C   0  0  0  0  0  0  0  0  0  0  0  0
   18.8160  -34.9770   35.1890 O   0  0  0  0  0  0  0  0  0  0  0  0
   19.6560  -32.8590   36.0410 C   0  0  0  0  0  0  0  0  0  0  0  0
   19.2860  -33.1630   37.4260 C   0  0  0  0  0  0  0  0  0  0  0  0
   18.7510  -34.2240   37.7380 O   0  0  0  0  0  0  0  0  0  0  0  0
   19.5820  -32.1380   38.4530 C   0  0  0  0  0  0  0  0  0  0  0  0
   19.2400  -32.4410   39.7580 O   0  0  0  0  0  0  0  0  0  0  0  0
   21.7970  -29.8780   39.5930 C   0  0  0  0  0  0  0  0  0  0  0  0
   22.1550  -28.8480   40.4670 C   0  0  0  0  0  0  0  0  0  0  0  0
   21.2560  -27.8170   40.7760 C   0  0  0  0  0  0  0  0  0  0  0  0
   21.6940  -26.7300   41.7190 C   0  0  0  0  0  0  0  0  0  0  0  0
   17.3652  -25.6923   39.4494 H   0  0  0  0  0  0  0  0  0  0  0  0
   18.9442  -25.6645   38.5935 H   0  0  0  0  0  0  0  0  0  0  0  0
   17.9488  -27.1598   38.5935 H   0  0  0  0  0  0  0  0  0  0  0  0
   19.4503  -25.8860   40.9226 H   0  0  0  0  0  0  0  0  0  0  0  0
   18.1899  -27.1758   41.1251 H   0  0  0  0  0  0  0  0  0  0  0  0
   18.6373  -28.8687   38.8379 H   0  0  0  0  0  0  0  0  0  0  0  0
   21.1199  -30.3419   34.2667 H   0  0  0  0  0  0  0  0  0  0  0  0
   20.6825  -31.9479   32.4052 H   0  0  0  0  0  0  0  0  0  0  0  0
   19.5867  -34.1416   32.8770 H   0  0  0  0  0  0  0  0  0  0  0  0
   19.2170  -35.7520   34.8460 H   0  0  0  0  0  0  0  0  0  0  0  0
   19.7080  -32.0490   40.4690 H   0  0  0  0  0  0  0  0  0  0  0  0
   22.5204  -30.6747   39.3648 H   0  0  0  0  0  0  0  0  0  0  0  0
   23.1576  -28.8459   40.9196 H   0  0  0  0  0  0  0  0  0  0  0  0
   21.5578  -27.0681   42.7569 H   0  0  0  0  0  0  0  0  0  0  0  0
   22.7553  -26.4992   41.5449 H   0  0  0  0  0  0  0  0  0  0  0  0
   21.0892  -25.8278   41.5449 H   0  0  0  0  0  0  0  0  0  0  0  0
  1  2  1  0
  2  3  1  0
  3  4  2  0
  4  5  1  0
  5  6  1  0
  6  7  1  0
  7  8  1  0
  8  9  2  0
  9 10  1  0
 10 11  2  0
 11 12  1  0
 12 13  1  0
 12 14  2  0
 14 15  1  0
 15 16  2  0
 15 17  1  0
 17 18  1  0
  5 19  2  0
 19 20  1  0
 20 21  2  0
 21 22  1  0
 21  3  1  0
 17  6  2  0
 14  8  1  0
  1 23  1  0
  1 24  1  0
  1 25  1  0
  2 26  1  0
  2 27  1  0
  4 28  1  0
  9 29  1  0
 10 30  1  0
 11 31  1  0
 13 32  1  0
 18 33  1  0
 19 34  1  0
 20 35  1  0
 22 36  1  0
 22 37  1  0
 22 38  1  0
M  END
>  <meeko>  (7) 
{"is_sidechain": [false], "free_energy": -8.295, "intermolecular_energy": -9.695, "internal_energy": -0.491}

$$$$
cand_028_out
     RDKit          3D

 38 40  0  0  0  0  0  0  0  0999 V2000
   19.4490  -24.1790   42.5230 C   0  0  0  0  0  0  0  0  0  0  0  0
   20.0740  -25.0060   43.6360 C   0  0  0  0  0  0  0  0  0  0  0  0
   21.0310  -26.0460   43.0980 C   0  0  0  0  0  0  0  0  0  0  0  0
   20.6900  -26.7120   41.9040 C   0  0  0  0  0  0  0  0  0  0  0  0
   21.5130  -27.7020   41.3500 C   0  0  0  0  0  0  0  0  0  0  0  0
   21.1690  -28.3830   40.0840 C   0  0  0  0  0  0  0  0  0  0  0  0
   20.7460  -29.6940   40.2730 O   0  0  0  0  0  0  0  0  0  0  0  0
   20.3960  -30.4430   39.1790 C   0  0  0  0  0  0  0  0  0  0  0  0
   19.9920  -31.7580   39.4140 C   0  0  0  0  0  0  0  0  0  0  0  0
   19.6200  -32.5750   38.3440 C   0  0  0  0  0  0  0  0  0  0  0  0
   19.6520  -32.0770   37.0390 C   0  0  0  0  0  0  0  0  0  0  0  0
   20.0550  -30.7650   36.8080 C   0  0  0  0  0  0  0  0  0  0  0  0
   20.0620  -30.3410   35.5070 O   0  0  0  0  0  0  0  0  0  0  0  0
   20.4280  -29.9480   37.8790 C   0  0  0  0  0  0  0  0  0  0  0  0
   20.8580  -28.5620   37.6790 C   0  0  0  0  0  0  0  0  0  0  0  0
   20.9040  -28.0510   36.5630 O   0  0  0  0  0  0  0  0  0  0  0  0
   21.2390  -27.7850   38.8800 C   0  0  0  0  0  0  0  0  0  0  0  0
   21.6310  -26.4740   38.6810 O   0  0  0  0  0  0  0  0  0  0  0  0
   22.7080  -28.0150   42.0070 C   0  0  0  0  0  0  0  0  0  0  0  0
   23.0590  -27.3680   43.1950 C   0  0  0  0  0  0  0  0  0  0  0  0
   22.2270  -26.3890   43.7570 C   0  0  0  0  0  0  0  0  0  0  0  0
   22.6540  -25.7190   45.0350 C   0  0  0  0  0  0  0  0  0  0  0  0
   18.8408  -23.3742   42.9615 H   0  0  0  0  0  0  0  0  0  0  0  0
   20.2436  -23.7408   41.9013 H   0  0  0  0  0  0  0  0  0  0  0  0
   18.8106  -24.8239   41.9013 H   0  0  0  0  0  0  0  0  0  0  0  0
   20.6227  -24.3343   44.3126 H   0  0  0  0  0  0  0  0  0  0  0  0
   19.2650  -25.5298   44.1663 H   0  0  0  0  0  0  0  0  0  0  0  0
   19.7525  -26.4478   41.3929 H   0  0  0  0  0  0  0  0  0  0  0  0
   19.9666  -32.1507   40.4412 H   0  0  0  0  0  0  0  0  0  0  0  0
   19.3015  -33.6115   38.5289 H   0  0  0  0  0  0  0  0  0  0  0  0
   19.3594  -32.7203   36.1961 H   0  0  0  0  0  0  0  0  0  0  0  0
   19.5750  -30.8110   34.8590 H   0  0  0  0  0  0  0  0  0  0  0  0
   21.9400  -25.9610   39.4020 H   0  0  0  0  0  0  0  0  0  0  0  0
   23.3780  -28.7781   41.5842 H   0  0  0  0  0  0  0  0  0  0  0  0
   24.0020  -27.6306   43.6967 H   0  0  0  0  0  0  0  0  0  0  0  0
   22.2847  -26.2985   45.8939 H   0  0  0  0  0  0  0  0  0  0  0  0
   23.7521  -25.6671   45.0726 H   0  0  0  0  0  0  0  0  0  0  0  0
   22.2373  -24.7017   45.0726 H   0  0  0  0  0  0  0  0  0  0  0  0
  1  2  1  0
  2  3  1  0
  3  4  2  0
  4  5  1  0
  5  6  1  0
  6  7  1  0
  7  8  1  0
  8  9  2  0
  9 10  1  0
 10 11  2  0
 11 12  1  0
 12 13  1  0
 12 14  2  0
 14 15  1  0
 15 16  2  0
 15 17  1  0
 17 18  1  0
  5 19  2  0
 19 20  1  0
 20 21  2  0
 21 22  1  0
 21  3  1  0
 17  6  2  0
 14  8  1  0
  1 23  1  0
  1 24  1  0
  1 25  1  0
  2 26  1  0
  2 27  1  0
  4 28  1  0
  9 29  1  0
 10 30  1  0
 11 31  1  0
 13 32  1  0
 18 33  1  0
 19 34  1  0
 20 35  1  0
 22 36  1  0
 22 37  1  0
 22 38  1  0
M  END
>  <meeko>  (8) 
{"is_sidechain": [false], "free_energy": -8.001, "intermolecular_energy": -9.414, "internal_energy": -0.428}

$$$$
cand_028_out
     RDKit          3D

 38 40  0  0  0  0  0  0  0  0999 V2000
   19.5540  -35.4230   38.2670 C   0  0  0  0  0  0  0  0  0  0  0  0
   18.5450  -34.4430   37.6880 C   0  0  0  0  0  0  0  0  0  0  0  0
   19.2020  -33.1600   37.2300 C   0  0  0  0  0  0  0  0  0  0  0  0
   19.4180  -32.1440   38.1830 C   0  0  0  0  0  0  0  0  0  0  0  0
   20.0030  -30.9190   37.8360 C   0  0  0  0  0  0  0  0  0  0  0  0
   20.2550  -29.8630   38.8390 C   0  0  0  0  0  0  0  0  0  0  0  0
   21.4670  -30.0250   39.5000 O   0  0  0  0  0  0  0  0  0  0  0  0
   21.8270  -29.1140   40.4610 C   0  0  0  0  0  0  0  0  0  0  0  0
   23.0440  -29.3240   41.1090 C   0  0  0  0  0  0  0  0  0  0  0  0
   23.4710  -28.4320   42.0950 C   0  0  0  0  0  0  0  0  0  0  0  0
   22.6800  -27.3310   42.4340 C   0  0  0  0  0  0  0  0  0  0  0  0
   21.4660  -27.1240   41.7840 C   0  0  0  0  0  0  0  0  0  0  0  0
   20.7420  -26.0260   42.1630 O   0  0  0  0  0  0  0  0  0  0  0  0
   21.0390  -28.0180   40.7980 C   0  0  0  0  0  0  0  0  0  0  0  0
   19.7690  -27.8370   40.0910 C   0  0  0  0  0  0  0  0  0  0  0  0
   19.0240  -26.8890   40.3270 O   0  0  0  0  0  0  0  0  0  0  0  0
   19.4060  -28.8440   39.0690 C   0  0  0  0  0  0  0  0  0  0  0  0
   18.2110  -28.6560   38.3990 O   0  0  0  0  0  0  0  0  0  0  0  0
   20.3880  -30.7210   36.5050 C   0  0  0  0  0  0  0  0  0  0  0  0
   20.1760  -31.7160   35.5460 C   0  0  0  0  0  0  0  0  0  0  0  0
   19.5750  -32.9350   35.8910 C   0  0  0  0  0  0  0  0  0  0  0  0
   19.3740  -33.9740   34.8220 C   0  0  0  0  0  0  0  0  0  0  0  0
   19.5140  -35.3842   39.3656 H   0  0  0  0  0  0  0  0  0  0  0  0
   19.3131  -36.4410   37.9271 H   0  0  0  0  0  0  0  0  0  0  0  0
   20.5646  -35.1525   37.9271 H   0  0  0  0  0  0  0  0  0  0  0  0
   18.0459  -34.9134   36.8280 H   0  0  0  0  0  0  0  0  0  0  0  0
   17.8221  -34.1920   38.4782 H   0  0  0  0  0  0  0  0  0  0  0  0
   19.1192  -32.3176   39.2273 H   0  0  0  0  0  0  0  0  0  0  0  0
   23.6667  -30.1911   40.8438 H   0  0  0  0  0  0  0  0  0  0  0  0
   24.4314  -28.5963   42.6056 H   0  0  0  0  0  0  0  0  0  0  0  0
   23.0154  -26.6297   43.2122 H   0  0  0  0  0  0  0  0  0  0  0  0
   21.0850  -25.4400   42.8090 H   0  0  0  0  0  0  0  0  0  0  0  0
   17.5700  -28.0650   38.7410 H   0  0  0  0  0  0  0  0  0  0  0  0
   20.8621  -29.7731   36.2105 H   0  0  0  0  0  0  0  0  0  0  0  0
   20.4853  -31.5399   34.5052 H   0  0  0  0  0  0  0  0  0  0  0  0
   19.1850  -34.9509   35.2910 H   0  0  0  0  0  0  0  0  0  0  0  0
   18.5132  -33.6949   34.1966 H   0  0  0  0  0  0  0  0  0  0  0  0
   20.2768  -34.0360   34.1966 H   0  0  0  0  0  0  0  0  0  0  0  0
  1  2  1  0
  2  3  1  0
  3  4  2  0
  4  5  1  0
  5  6  1  0
  6  7  1  0
  7  8  1  0
  8  9  2  0
  9 10  1  0
 10 11  2  0
 11 12  1  0
 12 13  1  0
 12 14  2  0
 14 15  1  0
 15 16  2  0
 15 17  1  0
 17 18  1  0
  5 19  2  0
 19 20  1  0
 20 21  2  0
 21 22  1  0
 21  3  1  0
 17  6  2  0
 14  8  1  0
  1 23  1  0
  1 24  1  0
  1 25  1  0
  2 26  1  0
  2 27  1  0
  4 28  1  0
  9 29  1  0
 10 30  1  0
 11 31  1  0
 13 32  1  0
 18 33  1  0
 19 34  1  0
 20 35  1  0
 22 36  1  0
 22 37  1  0
 22 38  1  0
M  END
>  <meeko>  (9) 
{"is_sidechain": [false], "free_energy": -7.968, "intermolecular_energy": -9.314, "internal_energy": -0.488}

$$$$
