cand_042_out
     RDKit          3D

 38 40  0  0  0  0  0  0  0  0999 V2000
   23.1150  -26.8270   44.8240 C   0  0  0  0  0  0  0  0  0  0  0  0
   24.0500  -27.0300   43.6410 C   0  0  0  0  0  0  0  0  0  0  0  0
   23.4020  -27.8380   42.5380 C   0  0  0  0  0  0  0  0  0  0  0  0
   22.3470  -27.2570   41.8170 C   0  0  0  0  0  0  0  0  0  0  0  0
   21.7020  -27.9570   40.7940 C   0  0  0  0  0  0  0  0  0  0  0  0
   22.0960  -29.2550   40.4600 C   0  0  0  0  0  0  0  0  0  0  0  0
   21.4160  -30.0280   39.3990 C   0  0  0  0  0  0  0  0  0  0  0  0
   20.6220  -31.0520   39.9010 O   0  0  0  0  0  0  0  0  0  0  0  0
   19.9330  -31.8490   39.0240 C   0  0  0  0  0  0  0  0  0  0  0  0
   19.1380  -32.8560   39.5720 C   0  0  0  0  0  0  0  0  0  0  0  0
   18.4100  -33.7030   38.7330 C   0  0  0  0  0  0  0  0  0  0  0  0
   18.4790  -33.5450   37.3470 C   0  0  0  0  0  0  0  0  0  0  0  0
   19.2740  -32.5390   36.8030 C   0  0  0  0  0  0  0  0  0  0  0  0
   19.2960  -32.4410   35.4390 O   0  0  0  0  0  0  0  0  0  0  0  0
   20.0010  -31.6900   37.6420 C   0  0  0  0  0  0  0  0  0  0  0  0
   20.8480  -30.6220   37.1120 C   0  0  0  0  0  0  0  0  0  0  0  0
   20.9650  -30.4250   35.9040 O   0  0  0  0  0  0  0  0  0  0  0  0
   21.5700  -29.7730   38.0860 C   0  0  0  0  0  0  0  0  0  0  0  0
   22.3770  -28.7750   37.5720 O   0  0  0  0  0  0  0  0  0  0  0  0
   23.1410  -29.8420   41.1920 C   0  0  0  0  0  0  0  0  0  0  0  0
   23.7960  -29.1540   42.2300 C   0  0  0  0  0  0  0  0  0  0  0  0
   24.9190  -29.8400   42.9580 C   0  0  0  0  0  0  0  0  0  0  0  0
   23.6777  -26.9492   45.7613 H   0  0  0  0  0  0  0  0  0  0  0  0
   22.6862  -25.8148   44.7830 H   0  0  0  0  0  0  0  0  0  0  0  0
   22.3051  -27.5702   44.7830 H   0  0  0  0  0  0  0  0  0  0  0  0
   24.3343  -26.0459   43.2401 H   0  0  0  0  0  0  0  0  0  0  0  0
   24.9310  -27.5849   43.9958 H   0  0  0  0  0  0  0  0  0  0  0  0
   22.0229  -26.2346   42.0612 H   0  0  0  0  0  0  0  0  0  0  0  0
   20.8755  -27.4811   40.2460 H   0  0  0  0  0  0  0  0  0  0  0  0
   19.0845  -32.9828   40.6634 H   0  0  0  0  0  0  0  0  0  0  0  0
   17.7813  -34.4958   39.1646 H   0  0  0  0  0  0  0  0  0  0  0  0
   17.9069  -34.2134   36.6867 H   0  0  0  0  0  0  0  0  0  0  0  0
   19.2250  -31.6020   35.0280 H   0  0  0  0  0  0  0  0  0  0  0  0
   23.2500  -28.9720   37.2980 H   0  0  0  0  0  0  0  0  0  0  0  0
   23.4559  -30.8672   40.9473 H   0  0  0  0  0  0  0  0  0  0  0  0
   24.7644  -29.7455   44.0430 H   0  0  0  0  0  0  0  0  0  0  0  0
   24.9388  -30.9046   42.6818 H   0  0  0  0  0  0  0  0  0  0  0  0
   25.8752  -29.3717   42.6818 H   0  0  0  0  0  0  0  0  0  0  0  0
  1  2  1  0
  2  3  1  0
  3  4  2  0
  4  5  1  0
  5  6  2  0
  6  7  1  0
  7  8  1  0
  8  9  1  0
  9 10  2  0
 10 11  1  0
 11 12  2  0
 12 13  1  0
 13 14  1  0
 13 15  2  0
 15 16  1  0
 16 17  2  0
 16 18  1  0
 18 19  1  0
  6 20  1  0
 20 21  2  0
 21 22  1  0
 21  3  1  0
 18  7  2  0
 15  9  1  0
  1 23  1  0
  1 24  1  0
  1 25  1  0
  2 26  1  0
  2 27  1  0
  4 28  1  0
  5 29  1  0
 10 30  1  0
 11 31  1  0
 12 32  1  0
 14 33  1  0
 19 34  1  0
 20 35  1  0
 22 36  1  0
 22 37  1  0
 22 38  1  0
M  END
>  <meeko>  (1) 
{"is_sidechain": [false], "free_energy": -9.365, "intermolecular_energy": -11.007, "internal_energy": -0.439}

$$$$
cand_042_out
     RDKit          3D

 38 40  0  0  0  0  0  0  0  0999 V2000
   23.6560  -27.4430   43.1240 C   0  0  0  0  0  0  0  0  0  0  0  0
   22.5190  -26.8650   42.2960 C   0  0  0  0  0  0  0  0  0  0  0  0
   21.9530  -27.8790   41.3260 C   0  0  0  0  0  0  0  0  0  0  0  0
   22.7980  -28.8970   40.8560 C   0  0  0  0  0  0  0  0  0  0  0  0
   22.3360  -29.8550   39.9510 C   0  0  0  0  0  0  0  0  0  0  0  0
   21.0150  -29.8280   39.4950 C   0  0  0  0  0  0  0  0  0  0  0  0
   20.5070  -30.8160   38.5200 C   0  0  0  0  0  0  0  0  0  0  0  0
   20.0730  -31.9930   39.1180 O   0  0  0  0  0  0  0  0  0  0  0  0
   19.5760  -32.9960   38.3270 C   0  0  0  0  0  0  0  0  0  0  0  0
   19.1390  -34.1540   38.9710 C   0  0  0  0  0  0  0  0  0  0  0  0
   18.6220  -35.2140   38.2230 C   0  0  0  0  0  0  0  0  0  0  0  0
   18.5430  -35.1180   36.8320 C   0  0  0  0  0  0  0  0  0  0  0  0
   18.9800  -33.9600   36.1920 C   0  0  0  0  0  0  0  0  0  0  0  0
   18.8760  -33.9320   34.8280 O   0  0  0  0  0  0  0  0  0  0  0  0
   19.4960  -32.8990   36.9400 C   0  0  0  0  0  0  0  0  0  0  0  0
   19.9660  -31.6660   36.3080 C   0  0  0  0  0  0  0  0  0  0  0  0
   19.9360  -31.5080   35.0880 O   0  0  0  0  0  0  0  0  0  0  0  0
   20.4880  -30.5990   37.1910 C   0  0  0  0  0  0  0  0  0  0  0  0
   20.9400  -29.4430   36.5810 O   0  0  0  0  0  0  0  0  0  0  0  0
   20.1750  -28.8010   39.9530 C   0  0  0  0  0  0  0  0  0  0  0  0
   20.6260  -27.8220   40.8580 C   0  0  0  0  0  0  0  0  0  0  0  0
   19.6630  -26.7630   41.3200 C   0  0  0  0  0  0  0  0  0  0  0  0
   23.4268  -27.3265   44.1935 H   0  0  0  0  0  0  0  0  0  0  0  0
   23.7748  -28.5110   42.8887 H   0  0  0  0  0  0  0  0  0  0  0  0
   24.5889  -26.9097   42.8887 H   0  0  0  0  0  0  0  0  0  0  0  0
   21.7176  -26.5358   42.9738 H   0  0  0  0  0  0  0  0  0  0  0  0
   22.9175  -26.0218   41.7127 H   0  0  0  0  0  0  0  0  0  0  0  0
   23.8399  -28.9406   41.2060 H   0  0  0  0  0  0  0  0  0  0  0  0
   23.0191  -30.6394   39.5931 H   0  0  0  0  0  0  0  0  0  0  0  0
   19.2016  -34.2320   40.0664 H   0  0  0  0  0  0  0  0  0  0  0  0
   18.2762  -36.1266   38.7306 H   0  0  0  0  0  0  0  0  0  0  0  0
   18.1371  -35.9540   36.2434 H   0  0  0  0  0  0  0  0  0  0  0  0
   18.5860  -34.6940   34.3650 H   0  0  0  0  0  0  0  0  0  0  0  0
   21.0010  -29.3990   35.6480 H   0  0  0  0  0  0  0  0  0  0  0  0
   19.1358  -28.7602   39.5948 H   0  0  0  0  0  0  0  0  0  0  0  0
   19.6426  -26.7405   42.4196 H   0  0  0  0  0  0  0  0  0  0  0  0
   19.9856  -25.7827   40.9391 H   0  0  0  0  0  0  0  0  0  0  0  0
   18.6566  -26.9912   40.9391 H   0  0  0  0  0  0  0  0  0  0  0  0
  1  2  1  0
  2  3  1  0
  3  4  2  0
  4  5  1  0
  5  6  2  0
  6  7  1  0
  7  8  1  0
  8  9  1  0
  9 10  2  0
 10 11  1  0
 11 12  2  0
 12 13  1  0
 13 14  1  0
 13 15  2  0
 15 16  1  0
 16 17  2  0
 16 18  1  0
 18 19  1  0
  6 20  1  0
 20 21  2  0
 21 22  1  0
 21  3  1  0
 18  7  2  0
 15  9  1  0
  1 23  1  0
  1 24  1  0
  1 25  1  0
  2 26  1  0
  2 27  1  0
  4 28  1  0
  5 29  1  0
 10 30  1  0
 11 31  1  0
 12 32  1  0
 14 33  1  0
 19 34  1  0
 20 35  1  0
 22 36  1  0
 22 37  1  0
 22 38  1  0
M  END
>  <meeko>  (2) 
{"is_sidechain": [false], "free_energy": -9.247, "intermolecular_energy": -10.855, "internal_energy": -0.453}

$$$$
cand_042_out
     RDKit          3D

 38 40  0  0  0  0  0  0  0  0999 V2000
   20.1370  -31.9630   34.9630 C   0  0  0  0  0  0  0  0  0  0  0  0
   19.7240  -32.3500   36.3750 C   0  0  0  0  0  0  0  0  0  0  0  0
   20.1740  -31.3300   37.3970 C   0  0  0  0  0  0  0  0  0  0  0  0
   20.8590  -30.1900   36.9460 C   0  0  0  0  0  0  0  0  0  0  0  0
   21.3090  -29.2180   37.8420 C   0  0  0  0  0  0  0  0  0  0  0  0
   21.0820  -29.3530   39.2140 C   0  0  0  0  0  0  0  0  0  0  0  0
   21.5670  -28.3520   40.1880 C   0  0  0  0  0  0  0  0  0  0  0  0
   22.4490  -28.8870   41.1200 O   0  0  0  0  0  0  0  0  0  0  0  0
   22.9750  -28.0660   42.0820 C   0  0  0  0  0  0  0  0  0  0  0  0
   23.8670  -28.6420   42.9890 C   0  0  0  0  0  0  0  0  0  0  0  0
   24.4390  -27.8610   43.9950 C   0  0  0  0  0  0  0  0  0  0  0  0
   24.1210  -26.5050   44.0960 C   0  0  0  0  0  0  0  0  0  0  0  0
   23.2310  -25.9330   43.1900 C   0  0  0  0  0  0  0  0  0  0  0  0
   22.9620  -24.6010   43.3470 O   0  0  0  0  0  0  0  0  0  0  0  0
   22.6590  -26.7140   42.1820 C   0  0  0  0  0  0  0  0  0  0  0  0
   21.7200  -26.1530   41.2110 C   0  0  0  0  0  0  0  0  0  0  0  0
   21.3850  -24.9700   41.2390 O   0  0  0  0  0  0  0  0  0  0  0  0
   21.1770  -27.0640   40.1780 C   0  0  0  0  0  0  0  0  0  0  0  0
   20.2810  -26.5240   39.2730 O   0  0  0  0  0  0  0  0  0  0  0  0
   20.4110  -30.5010   39.6670 C   0  0  0  0  0  0  0  0  0  0  0  0
   19.9580  -31.4940   38.7790 C   0  0  0  0  0  0  0  0  0  0  0  0
   19.2300  -32.6870   39.3350 C   0  0  0  0  0  0  0  0  0  0  0  0
   20.9390  -31.2115   35.0085 H   0  0  0  0  0  0  0  0  0  0  0  0
   20.4994  -32.8542   34.4297 H   0  0  0  0  0  0  0  0  0  0  0  0
   19.2712  -31.5434   34.4297 H   0  0  0  0  0  0  0  0  0  0  0  0
   18.6278  -32.4323   36.4143 H   0  0  0  0  0  0  0  0  0  0  0  0
   20.2042  -33.3093   36.6184 H   0  0  0  0  0  0  0  0  0  0  0  0
   21.0441  -30.0606   35.8694 H   0  0  0  0  0  0  0  0  0  0  0  0
   21.8478  -28.3368   37.4636 H   0  0  0  0  0  0  0  0  0  0  0  0
   24.1187  -29.7100   42.9109 H   0  0  0  0  0  0  0  0  0  0  0  0
   25.1416  -28.3147   44.7095 H   0  0  0  0  0  0  0  0  0  0  0  0
   24.5721  -25.8903   44.8889 H   0  0  0  0  0  0  0  0  0  0  0  0
   23.4370  -23.9650   42.8490 H   0  0  0  0  0  0  0  0  0  0  0  0
   20.4500  -26.5840   38.3540 H   0  0  0  0  0  0  0  0  0  0  0  0
   20.2349  -30.6271   40.7455 H   0  0  0  0  0  0  0  0  0  0  0  0
   19.2522  -32.6506   40.4342 H   0  0  0  0  0  0  0  0  0  0  0  0
   18.1860  -32.6736   38.9887 H   0  0  0  0  0  0  0  0  0  0  0  0
   19.7194  -33.6093   38.9887 H   0  0  0  0  0  0  0  0  0  0  0  0
  1  2  1  0
  2  3  1  0
  3  4  2  0
  4  5  1  0
  5  6  2  0
  6  7  1  0
  7  8  1  0
  8  9  1  0
  9 10  2  0
 10 11  1  0
 11 12  2  0
 12 13  1  0
 13 14  1  0
 13 15  2  0
 15 16  1  0
 16 17  2  0
 16 18  1  0
 18 19  1  0
  6 20  1  0
 20 21  2  0
 21 22  1  0
 21  3  1  0
 18  7  2  0
 15  9  1  0
  1 23  1  0
  1 24  1  0
  1 25  1  0
  2 26  1  0
  2 27  1  0
  4 28  1  0
  5 29  1  0
 10 30  1  0
 11 31  1  0
 12 32  1  0
 14 33  1  0
 19 34  1  0
 20 35  1  0
 22 36  1  0
 22 37  1  0
 22 38  1  0
M  END
>  <meeko>  (3) 
{"is_sidechain": [false], "free_energy": -8.608, "intermolecular_energy": -10.233, "internal_energy": -0.324}

$$$$
cand_042_out
     RDKit          3D

 38 40  0  0  0  0  0  0  0  0999 V2000
   19.7370  -26.4620   42.4480 C   0  0  0  0  0  0  0  0  0  0  0  0
   20.8490  -26.5920   41.4190 C   0  0  0  0  0  0  0  0  0  0  0  0
   20.6460  -27.7870   40.5140 C   0  0  0  0  0  0  0  0  0  0  0  0
   19.4590  -27.8670   39.7690 C   0  0  0  0  0  0  0  0  0  0  0  0
   19.2090  -28.9500   38.9240 C   0  0  0  0  0  0  0  0  0  0  0  0
   20.1420  -29.9830   38.7940 C   0  0  0  0  0  0  0  0  0  0  0  0
   19.8940  -31.1530   37.9260 C   0  0  0  0  0  0  0  0  0  0  0  0
   20.2290  -30.9210   36.5970 O   0  0  0  0  0  0  0  0  0  0  0  0
   20.0480  -31.9260   35.6820 C   0  0  0  0  0  0  0  0  0  0  0  0
   20.4120  -31.6540   34.3620 C   0  0  0  0  0  0  0  0  0  0  0  0
   20.2520  -32.6340   33.3800 C   0  0  0  0  0  0  0  0  0  0  0  0
   19.7290  -33.8840   33.7160 C   0  0  0  0  0  0  0  0  0  0  0  0
   19.3680  -34.1520   35.0340 C   0  0  0  0  0  0  0  0  0  0  0  0
   18.8610  -35.3970   35.2940 O   0  0  0  0  0  0  0  0  0  0  0  0
   19.5280  -33.1720   36.0170 C   0  0  0  0  0  0  0  0  0  0  0  0
   19.1610  -33.4130   37.4120 C   0  0  0  0  0  0  0  0  0  0  0  0
   18.6880  -34.4850   37.7850 O   0  0  0  0  0  0  0  0  0  0  0  0
   19.3780  -32.3110   38.3780 C   0  0  0  0  0  0  0  0  0  0  0  0
   19.0150  -32.5460   39.6920 O   0  0  0  0  0  0  0  0  0  0  0  0
   21.3230  -29.9110   39.5500 C   0  0  0  0  0  0  0  0  0  0  0  0
   21.5870  -28.8310   40.4130 C   0  0  0  0  0  0  0  0  0  0  0  0
   22.8820  -28.8130   41.1770 C   0  0  0  0  0  0  0  0  0  0  0  0
   20.1659  -26.5121   43.4597 H   0  0  0  0  0  0  0  0  0  0  0  0
   19.2246  -25.4978   42.3143 H   0  0  0  0  0  0  0  0  0  0  0  0
   19.0160  -27.2820   42.3143 H   0  0  0  0  0  0  0  0  0  0  0  0
   20.8721  -25.6804   40.8038 H   0  0  0  0  0  0  0  0  0  0  0  0
   21.7972  -26.7315   41.9589 H   0  0  0  0  0  0  0  0  0  0  0  0
   18.7131  -27.0628   39.8523 H   0  0  0  0  0  0  0  0  0  0  0  0
   18.2686  -28.9909   38.3549 H   0  0  0  0  0  0  0  0  0  0  0  0
   20.8241  -30.6695   34.0958 H   0  0  0  0  0  0  0  0  0  0  0  0
   20.5386  -32.4205   32.3397 H   0  0  0  0  0  0  0  0  0  0  0  0
   19.6024  -34.6551   32.9418 H   0  0  0  0  0  0  0  0  0  0  0  0
   18.2110  -35.7650   34.7290 H   0  0  0  0  0  0  0  0  0  0  0  0
   19.6160  -32.9620   40.2760 H   0  0  0  0  0  0  0  0  0  0  0  0
   22.0623  -30.7211   39.4654 H   0  0  0  0  0  0  0  0  0  0  0  0
   22.6709  -28.8159   42.2565 H   0  0  0  0  0  0  0  0  0  0  0  0
   23.4737  -29.7030   40.9167 H   0  0  0  0  0  0  0  0  0  0  0  0
   23.4487  -27.9069   40.9167 H   0  0  0  0  0  0  0  0  0  0  0  0
  1  2  1  0
  2  3  1  0
  3  4  2  0
  4  5  1  0
  5  6  2  0
  6  7  1  0
  7  8  1  0
  8  9  1  0
  9 10  2  0
 10 11  1  0
 11 12  2  0
 12 13  1  0
 13 14  1  0
 13 15  2  0
 15 16  1  0
 16 17  2  0
 16 18  1  0
 18 19  1  0
  6 20  1  0
 20 21  2  0
 21 22  1  0
 21  3  1  0
 18  7  2  0
 15  9  1  0
  1 23  1  0
  1 24  1  0
  1 25  1  0
  2 26  1  0
  2 27  1  0
  4 28  1  0
  5 29  1  0
 10 30  1  0
 11 31  1  0
 12 32  1  0
 14 33  1  0
 19 34  1  0
 20 35  1  0
 22 36  1  0
 22 37  1  0
 22 38  1  0
M  END
>  <meeko>  (4) 
{"is_sidechain": [false], "free_energy": -8.583, "intermolecular_energy": -10.06, "internal_energy": -0.468}

$$$$
cand_042_out
     RDKit          3D

 38 40  0  0  0  0  0  0  0  0999 V2000
   19.7550  -29.7960   34.4860 C   0  0  0  0  0  0  0  0  0  0  0  0
   20.0690  -30.9260   35.4560 C   0  0  0  0  0  0  0  0  0  0  0  0
   20.5930  -30.4080   36.7770 C   0  0  0  0  0  0  0  0  0  0  0  0
   21.4330  -29.2840   36.7680 C   0  0  0  0  0  0  0  0  0  0  0  0
   21.9580  -28.7650   37.9540 C   0  0  0  0  0  0  0  0  0  0  0  0
   21.6520  -29.3530   39.1850 C   0  0  0  0  0  0  0  0  0  0  0  0
   22.2120  -28.8400   40.4540 C   0  0  0  0  0  0  0  0  0  0  0  0
   23.1490  -29.6980   41.0170 O   0  0  0  0  0  0  0  0  0  0  0  0
   23.7470  -29.3440   42.1980 C   0  0  0  0  0  0  0  0  0  0  0  0
   24.6920  -30.2290   42.7200 C   0  0  0  0  0  0  0  0  0  0  0  0
   25.3390  -29.9280   43.9220 C   0  0  0  0  0  0  0  0  0  0  0  0
   25.0400  -28.7450   44.6010 C   0  0  0  0  0  0  0  0  0  0  0  0
   24.0980  -27.8640   44.0770 C   0  0  0  0  0  0  0  0  0  0  0  0
   23.8520  -26.7250   44.7940 O   0  0  0  0  0  0  0  0  0  0  0  0
   23.4510  -28.1640   42.8750 C   0  0  0  0  0  0  0  0  0  0  0  0
   22.4550  -27.2670   42.2910 C   0  0  0  0  0  0  0  0  0  0  0  0
   22.1330  -26.2110   42.8320 O   0  0  0  0  0  0  0  0  0  0  0  0
   21.8340  -27.6740   41.0090 C   0  0  0  0  0  0  0  0  0  0  0  0
   20.8840  -26.8230   40.4730 O   0  0  0  0  0  0  0  0  0  0  0  0
   20.8250  -30.4870   39.1940 C   0  0  0  0  0  0  0  0  0  0  0  0
   20.2950  -31.0270   38.0070 C   0  0  0  0  0  0  0  0  0  0  0  0
   19.4000  -32.2330   38.0950 C   0  0  0  0  0  0  0  0  0  0  0  0
   19.5024  -28.8869   35.0515 H   0  0  0  0  0  0  0  0  0  0  0  0
   20.6332  -29.6017   33.8527 H   0  0  0  0  0  0  0  0  0  0  0  0
   18.9025  -30.0826   33.8527 H   0  0  0  0  0  0  0  0  0  0  0  0
   19.1502  -31.5024   35.6396 H   0  0  0  0  0  0  0  0  0  0  0  0
   20.8493  -31.5557   35.0037 H   0  0  0  0  0  0  0  0  0  0  0  0
   21.6824  -28.8033   35.8106 H   0  0  0  0  0  0  0  0  0  0  0  0
   22.6181  -27.8858   37.9190 H   0  0  0  0  0  0  0  0  0  0  0  0
   24.9271  -31.1617   42.1863 H   0  0  0  0  0  0  0  0  0  0  0  0
   26.0847  -30.6240   44.3336 H   0  0  0  0  0  0  0  0  0  0  0  0
   25.5478  -28.5097   45.5480 H   0  0  0  0  0  0  0  0  0  0  0  0
   23.9200  -26.7360   45.7280 H   0  0  0  0  0  0  0  0  0  0  0  0
   21.0820  -25.9160   40.3530 H   0  0  0  0  0  0  0  0  0  0  0  0
   20.5846  -30.9666   40.1543 H   0  0  0  0  0  0  0  0  0  0  0  0
   19.2180  -32.4782   39.1518 H   0  0  0  0  0  0  0  0  0  0  0  0
   18.4425  -32.0161   37.5988 H   0  0  0  0  0  0  0  0  0  0  0  0
   19.8850  -33.0865   37.5988 H   0  0  0  0  0  0  0  0  0  0  0  0
  1  2  1  0
  2  3  1  0
  3  4  2  0
  4  5  1  0
  5  6  2  0
  6  7  1  0
  7  8  1  0
  8  9  1  0
  9 10  2  0
 10 11  1  0
 11 12  2  0
 12 13  1  0
 13 14  1  0
 13 15  2  0
 15 16  1  0
 16 17  2  0
 16 18  1  0
 18 19  1  0
  6 20  1  0
 20 21  2  0
 21 22  1  0
 21  3  1  0
 18  7  2  0
 15  9  1  0
  1 23  1  0
  1 24  1  0
  1 25  1  0
  2 26  1  0
  2 27  1  0
  4 28  1  0
  5 29  1  0
 10 30  1  0
 11 31  1  0
 12 32  1  0
 14 33  1  0
 19 34  1  0
 20 35  1  0
 22 36  1  0
 22 37  1  0
 22 38  1  0
M  END
>  <meeko>  (5) 
{"is_sidechain": [false], "free_energy": -8.396, "intermolecular_energy": -9.899, "internal_energy": -0.408}

$$$$
cand_042_out
     RDKit          3D

 38 40  0  0  0  0  0  0  0  0999 V2000
   21.5690  -24.6550   45.3880 C   0  0  0  0  0  0  0  0  0  0  0  0
   22.5590  -25.7650   45.0700 C   0  0  0  0  0  0  0  0  0  0  0  0
   22.2330  -26.4580   43.7660 C   0  0  0  0  0  0  0  0  0  0  0  0
   21.0250  -26.1400   43.1240 C   0  0  0  0  0  0  0  0  0  0  0  0
   20.6630  -26.7540   41.9230 C   0  0  0  0  0  0  0  0  0  0  0  0
   21.5000  -27.6990   41.3250 C   0  0  0  0  0  0  0  0  0  0  0  0
   21.1320  -28.3820   40.0670 C   0  0  0  0  0  0  0  0  0  0  0  0
   20.7480  -29.7040   40.2610 O   0  0  0  0  0  0  0  0  0  0  0  0
   20.3800  -30.4540   39.1750 C   0  0  0  0  0  0  0  0  0  0  0  0
   19.9880  -31.7710   39.4180 C   0  0  0  0  0  0  0  0  0  0  0  0
   19.6020  -32.5910   38.3550 C   0  0  0  0  0  0  0  0  0  0  0  0
   19.6090  -32.0950   37.0500 C   0  0  0  0  0  0  0  0  0  0  0  0
   20.0000  -30.7800   36.8100 C   0  0  0  0  0  0  0  0  0  0  0  0
   19.9850  -30.3600   35.5090 O   0  0  0  0  0  0  0  0  0  0  0  0
   20.3850  -29.9600   37.8740 C   0  0  0  0  0  0  0  0  0  0  0  0
   20.8040  -28.5740   37.6660 C   0  0  0  0  0  0  0  0  0  0  0  0
   20.8430  -28.0670   36.5460 O   0  0  0  0  0  0  0  0  0  0  0  0
   21.1850  -27.7860   38.8610 C   0  0  0  0  0  0  0  0  0  0  0  0
   21.5910  -26.4810   38.6500 O   0  0  0  0  0  0  0  0  0  0  0  0
   22.7010  -28.0290   41.9740 C   0  0  0  0  0  0  0  0  0  0  0  0
   23.0770  -27.4260   43.1880 C   0  0  0  0  0  0  0  0  0  0  0  0
   24.3870  -27.8150   43.8160 C   0  0  0  0  0  0  0  0  0  0  0  0
   21.4747  -24.5492   46.4788 H   0  0  0  0  0  0  0  0  0  0  0  0
   21.9285  -23.7087   44.9576 H   0  0  0  0  0  0  0  0  0  0  0  0
   20.5879  -24.9043   44.9576 H   0  0  0  0  0  0  0  0  0  0  0  0
   23.5677  -25.3319   44.9996 H   0  0  0  0  0  0  0  0  0  0  0  0
   22.5023  -26.5121   45.8754 H   0  0  0  0  0  0  0  0  0  0  0  0
   20.3528  -25.3949   43.5746 H   0  0  0  0  0  0  0  0  0  0  0  0
   19.7089  -26.4907   41.4430 H   0  0  0  0  0  0  0  0  0  0  0  0
   19.9830  -32.1631   40.4457 H   0  0  0  0  0  0  0  0  0  0  0  0
   19.2921  -33.6289   38.5464 H   0  0  0  0  0  0  0  0  0  0  0  0
   19.3063  -32.7415   36.2131 H   0  0  0  0  0  0  0  0  0  0  0  0
   20.4920  -30.8120   34.8640 H   0  0  0  0  0  0  0  0  0  0  0  0
   21.2120  -25.9790   37.9560 H   0  0  0  0  0  0  0  0  0  0  0  0
   23.3656  -28.7793   41.5207 H   0  0  0  0  0  0  0  0  0  0  0  0
   24.2912  -27.7866   44.9115 H   0  0  0  0  0  0  0  0  0  0  0  0
   24.6583  -28.8325   43.4979 H   0  0  0  0  0  0  0  0  0  0  0  0
   25.1696  -27.1105   43.4979 H   0  0  0  0  0  0  0  0  0  0  0  0
  1  2  1  0
  2  3  1  0
  3  4  2  0
  4  5  1  0
  5  6  2  0
  6  7  1  0
  7  8  1  0
  8  9  1  0
  9 10  2  0
 10 11  1  0
 11 12  2  0
 12 13  1  0
 13 14  1  0
 13 15  2  0
 15 16  1  0
 16 17  2  0
 16 18  1  0
 18 19  1  0
  6 20  1  0
 20 21  2  0
 21 22  1  0
 21  3  1  0
 18  7  2  0
 15  9  1  0
  1 23  1  0
  1 24  1  0
  1 25  1  0
  2 26  1  0
  2 27  1  0
  4 28  1  0
  5 29  1  0
 10 30  1  0
 11 31  1  0
 12 32  1  0
 14 33  1  0
 19 34  1  0
 20 35  1  0
 22 36  1  0
 22 37  1  0
 22 38  1  0
M  END
>  <meeko>  (6) 
{"is_sidechain": [false], "free_energy": -8.391, "intermolecular_energy": -9.878, "internal_energy": -0.424}

$$$$
cand_042_out
     RDKit          3D

 38 40  0  0  0  0  0  0  0  0999 V2000
   19.9360  -30.0410   34.9310 C   0  0  0  0  0  0  0  0  0  0  0  0
   20.3440  -31.0840   35.9610 C   0  0  0  0  0  0  0  0  0  0  0  0
   20.7480  -30.4550   37.2760 C   0  0  0  0  0  0  0  0  0  0  0  0
   21.5350  -29.2920   37.2450 C   0  0  0  0  0  0  0  0  0  0  0  0
   21.9480  -28.6700   38.4260 C   0  0  0  0  0  0  0  0  0  0  0  0
   21.5830  -29.1890   39.6710 C   0  0  0  0  0  0  0  0  0  0  0  0
   22.0260  -28.5660   40.9360 C   0  0  0  0  0  0  0  0  0  0  0  0
   21.2480  -27.4750   41.3030 O   0  0  0  0  0  0  0  0  0  0  0  0
   21.5500  -26.8030   42.4590 C   0  0  0  0  0  0  0  0  0  0  0  0
   20.7340  -25.7230   42.7960 C   0  0  0  0  0  0  0  0  0  0  0  0
   20.9870  -24.9940   43.9610 C   0  0  0  0  0  0  0  0  0  0  0  0
   22.0570  -25.3450   44.7870 C   0  0  0  0  0  0  0  0  0  0  0  0
   22.8700  -26.4240   44.4480 C   0  0  0  0  0  0  0  0  0  0  0  0
   23.9010  -26.7120   45.3000 O   0  0  0  0  0  0  0  0  0  0  0  0
   22.6150  -27.1540   43.2830 C   0  0  0  0  0  0  0  0  0  0  0  0
   23.4450  -28.2930   42.8900 C   0  0  0  0  0  0  0  0  0  0  0  0
   24.4090  -28.6580   43.5610 O   0  0  0  0  0  0  0  0  0  0  0  0
   23.0860  -29.0030   41.6420 C   0  0  0  0  0  0  0  0  0  0  0  0
   23.8850  -30.0710   41.2750 O   0  0  0  0  0  0  0  0  0  0  0  0
   20.8090  -30.3610   39.7020 C   0  0  0  0  0  0  0  0  0  0  0  0
   20.3910  -31.0050   38.5220 C   0  0  0  0  0  0  0  0  0  0  0  0
   19.5490  -32.2460   38.6330 C   0  0  0  0  0  0  0  0  0  0  0  0
   19.5819  -29.1359   35.4461 H   0  0  0  0  0  0  0  0  0  0  0  0
   20.8020  -29.7894   34.3011 H   0  0  0  0  0  0  0  0  0  0  0  0
   19.1291  -30.4437   34.3011 H   0  0  0  0  0  0  0  0  0  0  0  0
   19.4945  -31.7603   36.1371 H   0  0  0  0  0  0  0  0  0  0  0  0
   21.2127  -31.6305   35.5650 H   0  0  0  0  0  0  0  0  0  0  0  0
   21.8308  -28.8642   36.2757 H   0  0  0  0  0  0  0  0  0  0  0  0
   22.5670  -27.7621   38.3752 H   0  0  0  0  0  0  0  0  0  0  0  0
   19.8919  -25.4454   42.1451 H   0  0  0  0  0  0  0  0  0  0  0  0
   20.3429  -24.1431   44.2277 H   0  0  0  0  0  0  0  0  0  0  0  0
   22.2573  -24.7705   45.7034 H   0  0  0  0  0  0  0  0  0  0  0  0
   23.7550  -27.2670   46.0410 H   0  0  0  0  0  0  0  0  0  0  0  0
   23.7330  -30.9180   41.6420 H   0  0  0  0  0  0  0  0  0  0  0  0
   20.5218  -30.7870   40.6746 H   0  0  0  0  0  0  0  0  0  0  0  0
   19.3867  -32.4852   39.6943 H   0  0  0  0  0  0  0  0  0  0  0  0
   18.5790  -32.0760   38.1429 H   0  0  0  0  0  0  0  0  0  0  0  0
   20.0654  -33.0845   38.1429 H   0  0  0  0  0  0  0  0  0  0  0  0
  1  2  1  0
  2  3  1  0
  3  4  2  0
  4  5  1  0
  5  6  2  0
  6  7  1  0
  7  8  1  0
  8  9  1  0
  9 10  2  0
 10 11  1  0
 11 12  2  0
 12 13  1  0
 13 14  1  0
 13 15  2  0
 15 16  1  0
 16 17  2  0
 16 18  1  0
 18 19  1  0
  6 20  1  0
 20 21  2  0
 21 22  1  0
 21  3  1  0
 18  7  2  0
 15  9  1  0
  1 23  1  0
  1 24  1  0
  1 25  1  0
  2 26  1  0
  2 27  1  0
  4 28  1  0
  5 29  1  0
 10 30  1  0
 11 31  1  0
 12 32  1  0
 14 33  1  0
 19 34  1  0
 20 35  1  0
 22 36  1  0
 22 37  1  0
 22 38  1  0
M  END
>  <meeko>  (7) 
{"is_sidechain": [false], "free_energy": -8.236, "intermolecular_energy": -9.667, "internal_energy": -0.452}

$$$$
cand_042_out
     RDKit          3D

 38 40  0  0  0  0  0  0  0  0999 V2000
   20.6840  -24.7340   42.0870 C   0  0  0  0  0  0  0  0  0  0  0  0
   20.3610  -26.1650   42.4930 C   0  0  0  0  0  0  0  0  0  0  0  0
   20.3670  -27.1050   41.3080 C   0  0  0  0  0  0  0  0  0  0  0  0
   19.2470  -27.1200   40.4610 C   0  0  0  0  0  0  0  0  0  0  0  0
   19.1900  -27.9730   39.3570 C   0  0  0  0  0  0  0  0  0  0  0  0
   20.2520  -28.8320   39.0640 C   0  0  0  0  0  0  0  0  0  0  0  0
   20.2080  -29.7630   37.9160 C   0  0  0  0  0  0  0  0  0  0  0  0
   19.6990  -31.0120   38.2520 O   0  0  0  0  0  0  0  0  0  0  0  0
   19.6030  -31.9730   37.2790 C   0  0  0  0  0  0  0  0  0  0  0  0
   19.0730  -33.2070   37.6570 C   0  0  0  0  0  0  0  0  0  0  0  0
   18.9480  -34.2300   36.7150 C   0  0  0  0  0  0  0  0  0  0  0  0
   19.3540  -34.0200   35.3950 C   0  0  0  0  0  0  0  0  0  0  0  0
   19.8830  -32.7870   35.0210 C   0  0  0  0  0  0  0  0  0  0  0  0
   20.2620  -32.6500   33.7130 O   0  0  0  0  0  0  0  0  0  0  0  0
   20.0070  -31.7630   35.9640 C   0  0  0  0  0  0  0  0  0  0  0  0
   20.5570  -30.4540   35.6120 C   0  0  0  0  0  0  0  0  0  0  0  0
   20.9430  -30.1950   34.4730 O   0  0  0  0  0  0  0  0  0  0  0  0
   20.6380  -29.4350   36.6830 C   0  0  0  0  0  0  0  0  0  0  0  0
   21.1710  -28.2050   36.3410 O   0  0  0  0  0  0  0  0  0  0  0  0
   21.3660  -28.8290   39.9190 C   0  0  0  0  0  0  0  0  0  0  0  0
   21.4370  -27.9810   41.0400 C   0  0  0  0  0  0  0  0  0  0  0  0
   22.6700  -28.0190   41.9010 C   0  0  0  0  0  0  0  0  0  0  0  0
   20.8227  -24.1195   42.9887 H   0  0  0  0  0  0  0  0  0  0  0  0
   21.6075  -24.7220   41.4894 H   0  0  0  0  0  0  0  0  0  0  0  0
   19.8552  -24.3265   41.4894 H   0  0  0  0  0  0  0  0  0  0  0  0
   21.1122  -26.5059   43.2206 H   0  0  0  0  0  0  0  0  0  0  0  0
   19.3514  -26.1748   42.9295 H   0  0  0  0  0  0  0  0  0  0  0  0
   18.4010  -26.4490   40.6706 H   0  0  0  0  0  0  0  0  0  0  0  0
   18.2995  -27.9686   38.7112 H   0  0  0  0  0  0  0  0  0  0  0  0
   18.7539  -33.3739   38.6964 H   0  0  0  0  0  0  0  0  0  0  0  0
   18.5292  -35.2026   37.0127 H   0  0  0  0  0  0  0  0  0  0  0  0
   19.2562  -34.8261   34.6530 H   0  0  0  0  0  0  0  0  0  0  0  0
   21.0370  -33.0750   33.4030 H   0  0  0  0  0  0  0  0  0  0  0  0
   20.9710  -27.4490   36.8550 H   0  0  0  0  0  0  0  0  0  0  0  0
   22.2055  -29.5075   39.7069 H   0  0  0  0  0  0  0  0  0  0  0  0
   22.3772  -28.0100   42.9613 H   0  0  0  0  0  0  0  0  0  0  0  0
   23.2395  -28.9351   41.6856 H   0  0  0  0  0  0  0  0  0  0  0  0
   23.2948  -27.1397   41.6856 H   0  0  0  0  0  0  0  0  0  0  0  0
  1  2  1  0
  2  3  1  0
  3  4  2  0
  4  5  1  0
  5  6  2  0
  6  7  1  0
  7  8  1  0
  8  9  1  0
  9 10  2  0
 10 11  1  0
 11 12  2  0
 12 13  1  0
 13 14  1  0
 13 15  2  0
 15 16  1  0
 16 17  2  0
 16 18  1  0
 18 19  1  0
  6 20  1  0
 20 21  2  0
 21 22  1  0
 21  3  1  0
 18  7  2  0
 15  9  1  0
  1 23  1  0
  1 24  1  0
  1 25  1  0
  2 26  1  0
  2 27  1  0
  4 28  1  0
  5 29  1  0
 10 30  1  0
 11 31  1  0
 12 32  1  0
 14 33  1  0
 19 34  1  0
 20 35  1  0
 22 36  1  0
 22 37  1  0
 22 38  1  0
M  END
>  <meeko>  (8) 
{"is_sidechain": [false], "free_energy": -7.944, "intermolecular_energy": -9.29, "internal_energy": -0.486}

$$$$
cand_042_out
     RDKit          3D

 38 40  0  0  0  0  0  0  0  0999 V2000
   23.2320  -26.4910   44.9130 C   0  0  0  0  0  0  0  0  0  0  0  0
   22.9520  -27.9040   44.4240 C   0  0  0  0  0  0  0  0  0  0  0  0
   22.4860  -27.9230   42.9850 C   0  0  0  0  0  0  0  0  0  0  0  0
   21.4120  -27.0950   42.6200 C   0  0  0  0  0  0  0  0  0  0  0  0
   20.9290  -27.0760   41.3100 C   0  0  0  0  0  0  0  0  0  0  0  0
   21.5090  -27.8790   40.3250 C   0  0  0  0  0  0  0  0  0  0  0  0
   21.0040  -27.8980   38.9350 C   0  0  0  0  0  0  0  0  0  0  0  0
   21.1080  -29.1480   38.3380 O   0  0  0  0  0  0  0  0  0  0  0  0
   20.6750  -29.3050   37.0480 C   0  0  0  0  0  0  0  0  0  0  0  0
   20.7860  -30.5810   36.4930 C   0  0  0  0  0  0  0  0  0  0  0  0
   20.3630  -30.8100   35.1810 C   0  0  0  0  0  0  0  0  0  0  0  0
   19.8310  -29.7630   34.4240 C   0  0  0  0  0  0  0  0  0  0  0  0
   19.7220  -28.4920   34.9810 C   0  0  0  0  0  0  0  0  0  0  0  0
   19.1940  -27.5130   34.1840 O   0  0  0  0  0  0  0  0  0  0  0  0
   20.1440  -28.2630   36.2940 C   0  0  0  0  0  0  0  0  0  0  0  0
   20.0470  -26.9430   36.9160 C   0  0  0  0  0  0  0  0  0  0  0  0
   19.5960  -25.9700   36.3120 O   0  0  0  0  0  0  0  0  0  0  0  0
   20.5140  -26.8080   38.3140 C   0  0  0  0  0  0  0  0  0  0  0  0
   20.4290  -25.5530   38.8870 O   0  0  0  0  0  0  0  0  0  0  0  0
   22.5730  -28.7190   40.6920 C   0  0  0  0  0  0  0  0  0  0  0  0
   23.0660  -28.7570   42.0100 C   0  0  0  0  0  0  0  0  0  0  0  0
   24.2210  -29.6670   42.3260 C   0  0  0  0  0  0  0  0  0  0  0  0
   23.2347  -26.4774   46.0129 H   0  0  0  0  0  0  0  0  0  0  0  0
   24.2129  -26.1615   44.5398 H   0  0  0  0  0  0  0  0  0  0  0  0
   22.4509  -25.8123   44.5398 H   0  0  0  0  0  0  0  0  0  0  0  0
   23.8743  -28.4978   44.5066 H   0  0  0  0  0  0  0  0  0  0  0  0
   22.1499  -28.3267   45.0468 H   0  0  0  0  0  0  0  0  0  0  0  0
   20.9435  -26.4508   43.3786 H   0  0  0  0  0  0  0  0  0  0  0  0
   20.0832  -26.4221   41.0510 H   0  0  0  0  0  0  0  0  0  0  0  0
   21.2060  -31.4055   37.0878 H   0  0  0  0  0  0  0  0  0  0  0  0
   20.4489  -31.8157   34.7437 H   0  0  0  0  0  0  0  0  0  0  0  0
   19.4992  -29.9426   33.3907 H   0  0  0  0  0  0  0  0  0  0  0  0
   19.3270  -26.6110   34.3990 H   0  0  0  0  0  0  0  0  0  0  0  0
   20.3290  -25.4660   39.8140 H   0  0  0  0  0  0  0  0  0  0  0  0
   23.0333  -29.3643   39.9293 H   0  0  0  0  0  0  0  0  0  0  0  0
   24.3314  -29.7540   43.4170 H   0  0  0  0  0  0  0  0  0  0  0  0
   24.0323  -30.6618   41.8961 H   0  0  0  0  0  0  0  0  0  0  0  0
   25.1440  -29.2508   41.8961 H   0  0  0  0  0  0  0  0  0  0  0  0
  1  2  1  0
  2  3  1  0
  3  4  2  0
  4  5  1  0
  5  6  2  0
  6  7  1  0
  7  8  1  0
  8  9  1  0
  9 10  2  0
 10 11  1  0
 11 12  2  0
 12 13  1  0
 13 14  1  0
 13 15  2  0
 15 16  1  0
 16 17  2  0
 16 18  1  0
 18 19  1  0
  6 20  1  0
 20 21  2  0
 21 22  1  0
 21  3  1  0
 18  7  2  0
 15  9  1  0
  1 23  1  0
  1 24  1  0
  1 25  1  0
  2 26  1  0
  2 27  1  0
  4 28  1  0
  5 29  1  0
 10 30  1  0
 11 31  1  0
 12 32  1  0
 14 33  1  0
 19 34  1  0
 20 35  1  0
 22 36  1  0
 22 37  1  0
 22 38  1  0
M  END
>  <meeko>  (9) 
{"is_sidechain": [false], "free_energy": -7.843, "intermolecular_energy": -9.596, "internal_energy": -0.061}

$$$$
