cand_007_out
     RDKit          3D

 35 37  0  0  0  0  0  0  0  0999 V2000
   19.9720  -31.5130   35.1060 O   0  0  0  0  0  0  0  0  0  0  0  0
   19.9930  -31.6660   36.3250 C   0  0  0  0  0  0  0  0  0  0  0  0
   20.5280  -30.6010   37.2050 C   0  0  0  0  0  0  0  0  0  0  0  0
   21.0060  -29.4580   36.5920 O   0  0  0  0  0  0  0  0  0  0  0  0
   20.5350  -30.8100   38.5350 C   0  0  0  0  0  0  0  0  0  0  0  0
   21.0560  -29.8250   39.5070 C   0  0  0  0  0  0  0  0  0  0  0  0
   22.3540  -29.9120   40.0200 C   0  0  0  0  0  0  0  0  0  0  0  0
   22.8310  -28.9580   40.9220 C   0  0  0  0  0  0  0  0  0  0  0  0
   22.0240  -27.8840   41.3330 C   0  0  0  0  0  0  0  0  0  0  0  0
   22.5710  -26.8680   42.3110 C   0  0  0  0  0  0  0  0  0  0  0  0
   23.8300  -27.1780   42.7270 F   0  0  0  0  0  0  0  0  0  0  0  0
   22.6550  -25.6200   41.7720 F   0  0  0  0  0  0  0  0  0  0  0  0
   21.8260  -26.7340   43.4430 F   0  0  0  0  0  0  0  0  0  0  0  0
   20.7160  -27.7740   40.8130 C   0  0  0  0  0  0  0  0  0  0  0  0
   19.7970  -26.6440   41.2160 C   0  0  0  0  0  0  0  0  0  0  0  0
   19.1340  -26.8790   42.3850 F   0  0  0  0  0  0  0  0  0  0  0  0
   20.2510  -28.7480   39.9070 C   0  0  0  0  0  0  0  0  0  0  0  0
   20.0760  -31.9750   39.1390 O   0  0  0  0  0  0  0  0  0  0  0  0
   19.5700  -32.9760   38.3500 C   0  0  0  0  0  0  0  0  0  0  0  0
   19.1140  -34.1240   38.9990 C   0  0  0  0  0  0  0  0  0  0  0  0
   18.5860  -35.1820   38.2540 C   0  0  0  0  0  0  0  0  0  0  0  0
   18.5170  -35.0920   36.8630 C   0  0  0  0  0  0  0  0  0  0  0  0
   18.9740  -33.9450   36.2180 C   0  0  0  0  0  0  0  0  0  0  0  0
   18.8770  -33.9250   34.8530 O   0  0  0  0  0  0  0  0  0  0  0  0
   19.5010  -32.8870   36.9630 C   0  0  0  0  0  0  0  0  0  0  0  0
   21.9290  -29.3300   36.4920 H   0  0  0  0  0  0  0  0  0  0  0  0
   23.0068  -30.7412   39.7097 H   0  0  0  0  0  0  0  0  0  0  0  0
   23.8538  -29.0490   41.3164 H   0  0  0  0  0  0  0  0  0  0  0  0
   20.3978  -25.7300   41.3329 H   0  0  0  0  0  0  0  0  0  0  0  0
   19.0386  -26.5429   40.4257 H   0  0  0  0  0  0  0  0  0  0  0  0
   19.2314  -28.6617   39.5034 H   0  0  0  0  0  0  0  0  0  0  0  0
   19.1700  -34.1961   40.0952 H   0  0  0  0  0  0  0  0  0  0  0  0
   18.2244  -36.0867   38.7646 H   0  0  0  0  0  0  0  0  0  0  0  0
   18.1024  -35.9254   36.2769 H   0  0  0  0  0  0  0  0  0  0  0  0
   19.4780  -33.4150   34.3490 H   0  0  0  0  0  0  0  0  0  0  0  0
  1  2  2  0
  2  3  1  0
  3  4  1  0
  3  5  2  0
  5  6  1  0
  6  7  2  0
  7  8  1  0
  8  9  2  0
  9 10  1  0
 10 11  1  0
 10 12  1  0
 10 13  1  0
  9 14  1  0
 14 15  1  0
 15 16  1  0
 14 17  2  0
  5 18  1  0
 18 19  1  0
 19 20  2  0
 20 21  1  0
 21 22  2  0
 22 23  1  0
 23 24  1  0
 23 25  2  0
 25  2  1  0
 17  6  1  0
 25 19  1  0
  4 26  1  0
  7 27  1  0
  8 28  1  0
 15 29  1  0
 15 30  1  0
 17 31  1  0
 20 32  1  0
 21 33  1  0
 22 34  1  0
 24 35  1  0
M  END
>  <meeko>  (1) 
{"is_sidechain": [false], "free_energy": -9.627, "intermolecular_energy": -11.878, "internal_energy": -0.506}

$$$$
cand_007_out
     RDKit          3D

 35 37  0  0  0  0  0  0  0  0999 V2000
   20.9700  -30.4110   35.7680 O   0  0  0  0  0  0  0  0  0  0  0  0
   20.8470  -30.6700   36.9630 C   0  0  0  0  0  0  0  0  0  0  0  0
   21.5400  -29.8500   37.9840 C   0  0  0  0  0  0  0  0  0  0  0  0
   22.3290  -28.8100   37.5260 O   0  0  0  0  0  0  0  0  0  0  0  0
   21.3800  -30.1690   39.2820 C   0  0  0  0  0  0  0  0  0  0  0  0
   22.0330  -29.4310   40.3840 C   0  0  0  0  0  0  0  0  0  0  0  0
   23.1800  -29.9180   41.0190 C   0  0  0  0  0  0  0  0  0  0  0  0
   23.7910  -29.1930   42.0450 C   0  0  0  0  0  0  0  0  0  0  0  0
   23.2750  -27.9540   42.4610 C   0  0  0  0  0  0  0  0  0  0  0  0
   23.9610  -27.1930   43.5740 C   0  0  0  0  0  0  0  0  0  0  0  0
   24.9530  -27.9200   44.1600 F   0  0  0  0  0  0  0  0  0  0  0  0
   24.5520  -26.0480   43.1340 F   0  0  0  0  0  0  0  0  0  0  0  0
   23.1270  -26.8180   44.5830 F   0  0  0  0  0  0  0  0  0  0  0  0
   22.1270  -27.4410   41.8190 C   0  0  0  0  0  0  0  0  0  0  0  0
   21.5230  -26.1150   42.2200 C   0  0  0  0  0  0  0  0  0  0  0  0
   22.2030  -25.0400   41.7280 F   0  0  0  0  0  0  0  0  0  0  0  0
   21.5230  -28.1880   40.7890 C   0  0  0  0  0  0  0  0  0  0  0  0
   20.6050  -31.2330   39.7280 O   0  0  0  0  0  0  0  0  0  0  0  0
   19.9470  -32.0060   38.8060 C   0  0  0  0  0  0  0  0  0  0  0  0
   19.1740  -33.0590   39.3000 C   0  0  0  0  0  0  0  0  0  0  0  0
   18.4780  -33.8850   38.4160 C   0  0  0  0  0  0  0  0  0  0  0  0
   18.5550  -33.6610   37.0400 C   0  0  0  0  0  0  0  0  0  0  0  0
   19.3270  -32.6100   36.5500 C   0  0  0  0  0  0  0  0  0  0  0  0
   19.3580  -32.4480   35.1920 O   0  0  0  0  0  0  0  0  0  0  0  0
   20.0230  -31.7830   37.4360 C   0  0  0  0  0  0  0  0  0  0  0  0
   23.2040  -28.9790   37.2340 H   0  0  0  0  0  0  0  0  0  0  0  0
   23.6059  -30.8830   40.7070 H   0  0  0  0  0  0  0  0  0  0  0  0
   24.6891  -29.5980   42.5343 H   0  0  0  0  0  0  0  0  0  0  0  0
   20.4894  -26.0751   41.8457 H   0  0  0  0  0  0  0  0  0  0  0  0
   21.5700  -26.0549   43.3174 H   0  0  0  0  0  0  0  0  0  0  0  0
   20.6289  -27.7869   40.2894 H   0  0  0  0  0  0  0  0  0  0  0  0
   19.1138  -33.2371   40.3838 H   0  0  0  0  0  0  0  0  0  0  0  0
   17.8678  -34.7139   38.8040 H   0  0  0  0  0  0  0  0  0  0  0  0
   18.0070  -34.3133   36.3441 H   0  0  0  0  0  0  0  0  0  0  0  0
   18.7110  -31.9210   34.7690 H   0  0  0  0  0  0  0  0  0  0  0  0
  1  2  2  0
  2  3  1  0
  3  4  1  0
  3  5  2  0
  5  6  1  0
  6  7  2  0
  7  8  1  0
  8  9  2  0
  9 10  1  0
 10 11  1  0
 10 12  1  0
 10 13  1  0
  9 14  1  0
 14 15  1  0
 15 16  1  0
 14 17  2  0
  5 18  1  0
 18 19  1  0
 19 20  2  0
 20 21  1  0
 21 22  2  0
 22 23  1  0
 23 24  1  0
 23 25  2  0
 25  2  1  0
 17  6  1  0
 25 19  1  0
  4 26  1  0
  7 27  1  0
  8 28  1  0
 15 29  1  0
 15 30  1  0
 17 31  1  0
 20 32  1  0
 21 33  1  0
 22 34  1  0
 24 35  1  0
M  END
>  <meeko>  (2) 
{"is_sidechain": [false], "free_energy": -9.616, "intermolecular_energy": -11.881, "internal_energy": -0.489}

$$$$
cand_007_out
     RDKit          3D

 35 37  0  0  0  0  0  0  0  0999 V2000
   20.8980  -30.4500   35.8580 O   0  0  0  0  0  0  0  0  0  0  0  0
   20.7520  -30.5880   37.0710 C   0  0  0  0  0  0  0  0  0  0  0  0
   21.4020  -29.6500   38.0160 C   0  0  0  0  0  0  0  0  0  0  0  0
   22.1770  -28.6430   37.4710 O   0  0  0  0  0  0  0  0  0  0  0  0
   21.2180  -29.8370   39.3360 C   0  0  0  0  0  0  0  0  0  0  0  0
   21.8270  -28.9740   40.3700 C   0  0  0  0  0  0  0  0  0  0  0  0
   21.3820  -27.6670   40.5930 C   0  0  0  0  0  0  0  0  0  0  0  0
   21.9600  -26.8760   41.5900 C   0  0  0  0  0  0  0  0  0  0  0  0
   22.9960  -27.3740   42.3970 C   0  0  0  0  0  0  0  0  0  0  0  0
   23.6000  -26.4920   43.4680 C   0  0  0  0  0  0  0  0  0  0  0  0
   22.9710  -25.2880   43.5590 F   0  0  0  0  0  0  0  0  0  0  0  0
   23.5160  -27.0490   44.7080 F   0  0  0  0  0  0  0  0  0  0  0  0
   24.9190  -26.2120   43.2740 F   0  0  0  0  0  0  0  0  0  0  0  0
   23.4460  -28.6970   42.1940 C   0  0  0  0  0  0  0  0  0  0  0  0
   24.5580  -29.2910   43.0280 C   0  0  0  0  0  0  0  0  0  0  0  0
   25.3010  -30.2160   42.3560 F   0  0  0  0  0  0  0  0  0  0  0  0
   22.8540  -29.4780   41.1820 C   0  0  0  0  0  0  0  0  0  0  0  0
   20.4570  -30.8700   39.8730 O   0  0  0  0  0  0  0  0  0  0  0  0
   19.8390  -31.7500   39.0220 C   0  0  0  0  0  0  0  0  0  0  0  0
   19.0790  -32.7660   39.6050 C   0  0  0  0  0  0  0  0  0  0  0  0
   18.4230  -33.6960   38.7960 C   0  0  0  0  0  0  0  0  0  0  0  0
   18.5280  -33.6120   37.4070 C   0  0  0  0  0  0  0  0  0  0  0  0
   19.2870  -32.5980   36.8280 C   0  0  0  0  0  0  0  0  0  0  0  0
   19.3480  -32.5750   35.4610 O   0  0  0  0  0  0  0  0  0  0  0  0
   19.9430  -31.6670   37.6380 C   0  0  0  0  0  0  0  0  0  0  0  0
   21.7870  -28.0030   36.9080 H   0  0  0  0  0  0  0  0  0  0  0  0
   20.5681  -27.2570   39.9770 H   0  0  0  0  0  0  0  0  0  0  0  0
   21.5983  -25.8488   41.7448 H   0  0  0  0  0  0  0  0  0  0  0  0
   25.2236  -28.4776   43.3527 H   0  0  0  0  0  0  0  0  0  0  0  0
   24.0878  -29.8063   43.8785 H   0  0  0  0  0  0  0  0  0  0  0  0
   23.2057  -30.5083   41.0246 H   0  0  0  0  0  0  0  0  0  0  0  0
   18.9972  -32.8336   40.6999 H   0  0  0  0  0  0  0  0  0  0  0  0
   17.8227  -34.4958   39.2541 H   0  0  0  0  0  0  0  0  0  0  0  0
   18.0120  -34.3457   36.7703 H   0  0  0  0  0  0  0  0  0  0  0  0
   18.5680  -32.6900   34.9560 H   0  0  0  0  0  0  0  0  0  0  0  0
  1  2  2  0
  2  3  1  0
  3  4  1  0
  3  5  2  0
  5  6  1  0
  6  7  2  0
  7  8  1  0
  8  9  2  0
  9 10  1  0
 10 11  1  0
 10 12  1  0
 10 13  1  0
  9 14  1  0
 14 15  1  0
 15 16  1  0
 14 17  2  0
  5 18  1  0
 18 19  1  0
 19 20  2  0
 20 21  1  0
 21 22  2  0
 22 23  1  0
 23 24  1  0
 23 25  2  0
 25  2  1  0
 17  6  1  0
 25 19  1  0
  4 26  1  0
  7 27  1  0
  8 28  1  0
 15 29  1  0
 15 30  1  0
 17 31  1  0
 20 32  1  0
 21 33  1  0
 22 34  1  0
 24 35  1  0
M  END
>  <meeko>  (3) 
{"is_sidechain": [false], "free_energy": -9.53, "intermolecular_energy": -11.886, "internal_energy": -0.379}

$$$$
cand_007_out
     RDKit          3D

 35 37  0  0  0  0  0  0  0  0999 V2000
   18.6720  -33.9520   38.0030 O   0  0  0  0  0  0  0  0  0  0  0  0
   19.3130  -32.9450   37.7100 C   0  0  0  0  0  0  0  0  0  0  0  0
   19.7370  -31.9940   38.7630 C   0  0  0  0  0  0  0  0  0  0  0  0
   19.3660  -32.2860   40.0620 O   0  0  0  0  0  0  0  0  0  0  0  0
   20.4370  -30.9020   38.3990 C   0  0  0  0  0  0  0  0  0  0  0  0
   20.9000  -29.8790   39.3600 C   0  0  0  0  0  0  0  0  0  0  0  0
   22.1840  -29.9170   39.9150 C   0  0  0  0  0  0  0  0  0  0  0  0
   22.6060  -28.9280   40.8060 C   0  0  0  0  0  0  0  0  0  0  0  0
   21.7580  -27.8670   41.1630 C   0  0  0  0  0  0  0  0  0  0  0  0
   22.2460  -26.8100   42.1310 C   0  0  0  0  0  0  0  0  0  0  0  0
   23.5200  -27.0470   42.5520 F   0  0  0  0  0  0  0  0  0  0  0  0
   22.2630  -25.5660   41.5770 F   0  0  0  0  0  0  0  0  0  0  0  0
   21.4920  -26.7050   43.2600 F   0  0  0  0  0  0  0  0  0  0  0  0
   20.4640  -27.8050   40.6000 C   0  0  0  0  0  0  0  0  0  0  0  0
   19.5040  -26.6910   40.9440 C   0  0  0  0  0  0  0  0  0  0  0  0
   18.8490  -26.8880   42.1250 F   0  0  0  0  0  0  0  0  0  0  0  0
   20.0550  -28.8140   39.7060 C   0  0  0  0  0  0  0  0  0  0  0  0
   20.7820  -30.6060   37.0850 O   0  0  0  0  0  0  0  0  0  0  0  0
   20.4070  -31.4720   36.0900 C   0  0  0  0  0  0  0  0  0  0  0  0
   20.7820  -31.1380   34.7870 C   0  0  0  0  0  0  0  0  0  0  0  0
   20.4330  -31.9760   33.7260 C   0  0  0  0  0  0  0  0  0  0  0  0
   19.7090  -33.1450   33.9670 C   0  0  0  0  0  0  0  0  0  0  0  0
   19.3360  -33.4760   35.2670 C   0  0  0  0  0  0  0  0  0  0  0  0
   18.6290  -34.6350   35.4310 O   0  0  0  0  0  0  0  0  0  0  0  0
   19.6870  -32.6370   36.3290 C   0  0  0  0  0  0  0  0  0  0  0  0
   18.4590  -32.3740   40.2820 H   0  0  0  0  0  0  0  0  0  0  0  0
   22.8686  -30.7351   39.6464 H   0  0  0  0  0  0  0  0  0  0  0  0
   23.6177  -28.9808   41.2346 H   0  0  0  0  0  0  0  0  0  0  0  0
   20.0704  -25.7505   41.0116 H   0  0  0  0  0  0  0  0  0  0  0  0
   18.7428  -26.6604   40.1505 H   0  0  0  0  0  0  0  0  0  0  0  0
   19.0471  -28.7655   39.2680 H   0  0  0  0  0  0  0  0  0  0  0  0
   21.3514  -30.2163   34.5967 H   0  0  0  0  0  0  0  0  0  0  0  0
   20.7289  -31.7148   32.6992 H   0  0  0  0  0  0  0  0  0  0  0  0
   19.4334  -33.8041   33.1306 H   0  0  0  0  0  0  0  0  0  0  0  0
   18.0020  -34.7070   36.1230 H   0  0  0  0  0  0  0  0  0  0  0  0
  1  2  2  0
  2  3  1  0
  3  4  1  0
  3  5  2  0
  5  6  1  0
  6  7  2  0
  7  8  1  0
  8  9  2  0
  9 10  1  0
 10 11  1  0
 10 12  1  0
 10 13  1  0
  9 14  1  0
 14 15  1  0
 15 16  1  0
 14 17  2  0
  5 18  1  0
 18 19  1  0
 19 20  2  0
 20 21  1  0
 21 22  2  0
 22 23  1  0
 23 24  1  0
 23 25  2  0
 25  2  1  0
 17  6  1  0
 25 19  1  0
  4 26  1  0
  7 27  1  0
  8 28  1  0
 15 29  1  0
 15 30  1  0
 17 31  1  0
 20 32  1  0
 21 33  1  0
 22 34  1  0
 24 35  1  0
M  END
>  <meeko>  (4) 
{"is_sidechain": [false], "free_energy": -8.822, "intermolecular_energy": -10.871, "internal_energy": -0.521}

$$$$
cand_007_out
     RDKit          3D

 35 37  0  0  0  0  0  0  0  0999 V2000
   18.7470  -34.2620   37.7520 O   0  0  0  0  0  0  0  0  0  0  0  0
   19.2440  -33.1890   37.4150 C   0  0  0  0  0  0  0  0  0  0  0  0
   19.4800  -32.1240   38.4170 C   0  0  0  0  0  0  0  0  0  0  0  0
   19.1050  -32.3920   39.7210 O   0  0  0  0  0  0  0  0  0  0  0  0
   20.0240  -30.9640   38.0060 C   0  0  0  0  0  0  0  0  0  0  0  0
   20.2920  -29.8280   38.9130 C   0  0  0  0  0  0  0  0  0  0  0  0
   19.3970  -28.7610   39.0440 C   0  0  0  0  0  0  0  0  0  0  0  0
   19.6630  -27.7090   39.9230 C   0  0  0  0  0  0  0  0  0  0  0  0
   20.8310  -27.6960   40.7040 C   0  0  0  0  0  0  0  0  0  0  0  0
   21.0880  -26.5420   41.6470 C   0  0  0  0  0  0  0  0  0  0  0  0
   20.1010  -25.6050   41.5970 F   0  0  0  0  0  0  0  0  0  0  0  0
   21.1570  -26.9390   42.9480 F   0  0  0  0  0  0  0  0  0  0  0  0
   22.2490  -25.8750   41.3990 F   0  0  0  0  0  0  0  0  0  0  0  0
   21.7370  -28.7740   40.5950 C   0  0  0  0  0  0  0  0  0  0  0  0
   23.0120  -28.8190   41.4060 C   0  0  0  0  0  0  0  0  0  0  0  0
   23.7300  -29.9640   41.2190 F   0  0  0  0  0  0  0  0  0  0  0  0
   21.4540  -29.8240   39.7010 C   0  0  0  0  0  0  0  0  0  0  0  0
   20.3720  -30.6960   36.6870 O   0  0  0  0  0  0  0  0  0  0  0  0
   20.1700  -31.6650   35.7380 C   0  0  0  0  0  0  0  0  0  0  0  0
   20.5420  -31.3560   34.4290 C   0  0  0  0  0  0  0  0  0  0  0  0
   20.3630  -32.2980   33.4130 C   0  0  0  0  0  0  0  0  0  0  0  0
   19.8120  -33.5470   33.7060 C   0  0  0  0  0  0  0  0  0  0  0  0
   19.4410  -33.8520   35.0140 C   0  0  0  0  0  0  0  0  0  0  0  0
   18.9070  -35.0930   35.2300 O   0  0  0  0  0  0  0  0  0  0  0  0
   19.6210  -32.9100   36.0290 C   0  0  0  0  0  0  0  0  0  0  0  0
   18.3660  -31.9540   40.0960 H   0  0  0  0  0  0  0  0  0  0  0  0
   18.4728  -28.7505   38.4476 H   0  0  0  0  0  0  0  0  0  0  0  0
   18.9472  -26.8778   40.0052 H   0  0  0  0  0  0  0  0  0  0  0  0
   23.6393  -27.9625   41.1182 H   0  0  0  0  0  0  0  0  0  0  0  0
   22.7247  -28.7841   42.4672 H   0  0  0  0  0  0  0  0  0  0  0  0
   22.1611  -30.6625   39.6177 H   0  0  0  0  0  0  0  0  0  0  0  0
   20.9756  -30.3720   34.1974 H   0  0  0  0  0  0  0  0  0  0  0  0
   20.6565  -32.0554   32.3810 H   0  0  0  0  0  0  0  0  0  0  0  0
   19.6711  -34.2887   32.9059 H   0  0  0  0  0  0  0  0  0  0  0  0
   17.9780  -35.2090   35.2370 H   0  0  0  0  0  0  0  0  0  0  0  0
  1  2  2  0
  2  3  1  0
  3  4  1  0
  3  5  2  0
  5  6  1  0
  6  7  2  0
  7  8  1  0
  8  9  2  0
  9 10  1  0
 10 11  1  0
 10 12  1  0
 10 13  1  0
  9 14  1  0
 14 15  1  0
 15 16  1  0
 14 17  2  0
  5 18  1  0
 18 19  1  0
 19 20  2  0
 20 21  1  0
 21 22  2  0
 22 23  1  0
 23 24  1  0
 23 25  2  0
 25  2  1  0
 17  6  1  0
 25 19  1  0
  4 26  1  0
  7 27  1  0
  8 28  1  0
 15 29  1  0
 15 30  1  0
 17 31  1  0
 20 32  1  0
 21 33  1  0
 22 34  1  0
 24 35  1  0
M  END
>  <meeko>  (5) 
{"is_sidechain": [false], "free_energy": -8.756, "intermolecular_energy": -10.891, "internal_energy": -0.419}

$$$$
cand_007_out
     RDKit          3D

 35 37  0  0  0  0  0  0  0  0999 V2000
   20.4220  -25.1930   40.0380 O   0  0  0  0  0  0  0  0  0  0  0  0
   20.8360  -26.3380   40.2060 C   0  0  0  0  0  0  0  0  0  0  0  0
   20.3240  -27.4510   39.3730 C   0  0  0  0  0  0  0  0  0  0  0  0
   19.3640  -27.1400   38.4270 O   0  0  0  0  0  0  0  0  0  0  0  0
   20.8030  -28.6900   39.5910 C   0  0  0  0  0  0  0  0  0  0  0  0
   20.3560  -29.8770   38.8310 C   0  0  0  0  0  0  0  0  0  0  0  0
   20.7870  -30.1190   37.5220 C   0  0  0  0  0  0  0  0  0  0  0  0
   20.3670  -31.2580   36.8310 C   0  0  0  0  0  0  0  0  0  0  0  0
   19.5070  -32.1920   37.4330 C   0  0  0  0  0  0  0  0  0  0  0  0
   19.0710  -33.4160   36.6570 C   0  0  0  0  0  0  0  0  0  0  0  0
   19.4050  -33.3370   35.3390 F   0  0  0  0  0  0  0  0  0  0  0  0
   19.6510  -34.5580   37.1190 F   0  0  0  0  0  0  0  0  0  0  0  0
   17.7280  -33.6410   36.6900 F   0  0  0  0  0  0  0  0  0  0  0  0
   19.0750  -31.9700   38.7590 C   0  0  0  0  0  0  0  0  0  0  0  0
   18.1490  -32.9360   39.4610 C   0  0  0  0  0  0  0  0  0  0  0  0
   18.8080  -33.8890   40.1800 F   0  0  0  0  0  0  0  0  0  0  0  0
   19.5070  -30.8140   39.4380 C   0  0  0  0  0  0  0  0  0  0  0  0
   21.7490  -28.9950   40.5630 O   0  0  0  0  0  0  0  0  0  0  0  0
   22.2460  -27.9840   41.3450 C   0  0  0  0  0  0  0  0  0  0  0  0
   23.2000  -28.3350   42.3020 C   0  0  0  0  0  0  0  0  0  0  0  0
   23.7460  -27.3540   43.1320 C   0  0  0  0  0  0  0  0  0  0  0  0
   23.3390  -26.0250   43.0070 C   0  0  0  0  0  0  0  0  0  0  0  0
   22.3870  -25.6770   42.0520 C   0  0  0  0  0  0  0  0  0  0  0  0
   22.0330  -24.3580   41.9830 O   0  0  0  0  0  0  0  0  0  0  0  0
   21.8400  -26.6590   41.2210 C   0  0  0  0  0  0  0  0  0  0  0  0
   18.6900  -26.5200   38.6300 H   0  0  0  0  0  0  0  0  0  0  0  0
   21.4642  -29.4043   37.0316 H   0  0  0  0  0  0  0  0  0  0  0  0
   20.7144  -31.4261   35.8009 H   0  0  0  0  0  0  0  0  0  0  0  0
   17.5038  -32.3660   40.1457 H   0  0  0  0  0  0  0  0  0  0  0  0
   17.5707  -33.4564   38.6833 H   0  0  0  0  0  0  0  0  0  0  0  0
   19.1699  -30.6417   40.4708 H   0  0  0  0  0  0  0  0  0  0  0  0
   23.5209  -29.3824   42.4019 H   0  0  0  0  0  0  0  0  0  0  0  0
   24.4983  -27.6292   43.8858 H   0  0  0  0  0  0  0  0  0  0  0  0
   23.7696  -25.2533   43.6620 H   0  0  0  0  0  0  0  0  0  0  0  0
   22.4400  -23.7340   42.5500 H   0  0  0  0  0  0  0  0  0  0  0  0
  1  2  2  0
  2  3  1  0
  3  4  1  0
  3  5  2  0
  5  6  1  0
  6  7  2  0
  7  8  1  0
  8  9  2  0
  9 10  1  0
 10 11  1  0
 10 12  1  0
 10 13  1  0
  9 14  1  0
 14 15  1  0
 15 16  1  0
 14 17  2  0
  5 18  1  0
 18 19  1  0
 19 20  2  0
 20 21  1  0
 21 22  2  0
 22 23  1  0
 23 24  1  0
 23 25  2  0
 25  2  1  0
 17  6  1  0
 25 19  1  0
  4 26  1  0
  7 27  1  0
  8 28  1  0
 15 29  1  0
 15 30  1  0
 17 31  1  0
 20 32  1  0
 21 33  1  0
 22 34  1  0
 24 35  1  0
M  END
>  <meeko>  (6) 
{"is_sidechain": [false], "free_energy": -8.723, "intermolecular_energy": -10.803, "internal_energy": -0.466}

$$$$
cand_007_out
     RDKit          3D

 35 37  0  0  0  0  0  0  0  0999 V2000
   22.1480  -26.1840   42.8960 O   0  0  0  0  0  0  0  0  0  0  0  0
   22.4930  -27.2460   42.3820 C   0  0  0  0  0  0  0  0  0  0  0  0
   21.9110  -27.6780   41.0890 C   0  0  0  0  0  0  0  0  0  0  0  0
   20.9680  -26.8460   40.5140 O   0  0  0  0  0  0  0  0  0  0  0  0
   22.3150  -28.8490   40.5620 C   0  0  0  0  0  0  0  0  0  0  0  0
   21.7940  -29.3850   39.2870 C   0  0  0  0  0  0  0  0  0  0  0  0
   22.1790  -28.8540   38.0510 C   0  0  0  0  0  0  0  0  0  0  0  0
   21.6890  -29.3910   36.8580 C   0  0  0  0  0  0  0  0  0  0  0  0
   20.8030  -30.4810   36.8670 C   0  0  0  0  0  0  0  0  0  0  0  0
   20.2900  -31.0390   35.5570 C   0  0  0  0  0  0  0  0  0  0  0  0
   19.3770  -30.2180   34.9690 F   0  0  0  0  0  0  0  0  0  0  0  0
   21.2830  -31.2080   34.6400 F   0  0  0  0  0  0  0  0  0  0  0  0
   19.6820  -32.2520   35.6740 F   0  0  0  0  0  0  0  0  0  0  0  0
   20.4160  -31.0380   38.1050 C   0  0  0  0  0  0  0  0  0  0  0  0
   19.4640  -32.2100   38.1820 C   0  0  0  0  0  0  0  0  0  0  0  0
   19.4920  -32.8500   39.3860 F   0  0  0  0  0  0  0  0  0  0  0  0
   20.9180  -30.4810   39.2980 C   0  0  0  0  0  0  0  0  0  0  0  0
   23.2450  -29.6900   41.1630 O   0  0  0  0  0  0  0  0  0  0  0  0
   23.8040  -29.3130   42.3570 C   0  0  0  0  0  0  0  0  0  0  0  0
   24.7390  -30.1840   42.9200 C   0  0  0  0  0  0  0  0  0  0  0  0
   25.3470  -29.8620   44.1350 C   0  0  0  0  0  0  0  0  0  0  0  0
   25.0200  -28.6720   44.7870 C   0  0  0  0  0  0  0  0  0  0  0  0
   24.0870  -27.8050   44.2240 C   0  0  0  0  0  0  0  0  0  0  0  0
   23.8140  -26.6570   44.9160 O   0  0  0  0  0  0  0  0  0  0  0  0
   23.4790  -28.1270   43.0070 C   0  0  0  0  0  0  0  0  0  0  0  0
   21.2160  -25.9940   40.2120 H   0  0  0  0  0  0  0  0  0  0  0  0
   22.8759  -28.0035   38.0183 H   0  0  0  0  0  0  0  0  0  0  0  0
   22.0014  -28.9541   35.8981 H   0  0  0  0  0  0  0  0  0  0  0  0
   18.4424  -31.8421   38.0059 H   0  0  0  0  0  0  0  0  0  0  0  0
   19.7801  -32.9370   37.4194 H   0  0  0  0  0  0  0  0  0  0  0  0
   20.6156  -30.9162   40.2619 H   0  0  0  0  0  0  0  0  0  0  0  0
   24.9962  -31.1225   42.4070 H   0  0  0  0  0  0  0  0  0  0  0  0
   26.0845  -30.5469   44.5788 H   0  0  0  0  0  0  0  0  0  0  0  0
   25.4988  -28.4193   45.7446 H   0  0  0  0  0  0  0  0  0  0  0  0
   23.6820  -26.6890   45.8420 H   0  0  0  0  0  0  0  0  0  0  0  0
  1  2  2  0
  2  3  1  0
  3  4  1  0
  3  5  2  0
  5  6  1  0
  6  7  2  0
  7  8  1  0
  8  9  2  0
  9 10  1  0
 10 11  1  0
 10 12  1  0
 10 13  1  0
  9 14  1  0
 14 15  1  0
 15 16  1  0
 14 17  2  0
  5 18  1  0
 18 19  1  0
 19 20  2  0
 20 21  1  0
 21 22  2  0
 22 23  1  0
 23 24  1  0
 23 25  2  0
 25  2  1  0
 17  6  1  0
 25 19  1  0
  4 26  1  0
  7 27  1  0
  8 28  1  0
 15 29  1  0
 15 30  1  0
 17 31  1  0
 20 32  1  0
 21 33  1  0
 22 34  1  0
 24 35  1  0
M  END
>  <meeko>  (7) 
{"is_sidechain": [false], "free_energy": -8.481, "intermolecular_energy": -11.029, "internal_energy": 0.058}

$$$$
cand_007_out
     RDKit          3D

 35 37  0  0  0  0  0  0  0  0999 V2000
   20.4670  -25.4020   39.9240 O   0  0  0  0  0  0  0  0  0  0  0  0
   20.8980  -26.5280   40.1640 C   0  0  0  0  0  0  0  0  0  0  0  0
   20.4100  -27.6970   39.3960 C   0  0  0  0  0  0  0  0  0  0  0  0
   19.4520  -27.4590   38.4270 O   0  0  0  0  0  0  0  0  0  0  0  0
   20.9060  -28.9130   39.6920 C   0  0  0  0  0  0  0  0  0  0  0  0
   20.4830  -30.1500   39.0020 C   0  0  0  0  0  0  0  0  0  0  0  0
   20.0340  -31.2710   39.7080 C   0  0  0  0  0  0  0  0  0  0  0  0
   19.6210  -32.4220   39.0340 C   0  0  0  0  0  0  0  0  0  0  0  0
   19.6390  -32.4830   37.6310 C   0  0  0  0  0  0  0  0  0  0  0  0
   19.1840  -33.7450   36.9300 C   0  0  0  0  0  0  0  0  0  0  0  0
   19.3350  -34.8510   37.7110 F   0  0  0  0  0  0  0  0  0  0  0  0
   17.8650  -33.7060   36.5940 F   0  0  0  0  0  0  0  0  0  0  0  0
   19.8550  -34.0080   35.7750 F   0  0  0  0  0  0  0  0  0  0  0  0
   20.0750  -31.3550   36.9020 C   0  0  0  0  0  0  0  0  0  0  0  0
   20.1190  -31.3570   35.3920 C   0  0  0  0  0  0  0  0  0  0  0  0
   21.3420  -31.0270   34.8870 F   0  0  0  0  0  0  0  0  0  0  0  0
   20.4910  -30.2040   37.6000 C   0  0  0  0  0  0  0  0  0  0  0  0
   21.8490  -29.1430   40.6870 O   0  0  0  0  0  0  0  0  0  0  0  0
   22.3240  -28.0790   41.4100 C   0  0  0  0  0  0  0  0  0  0  0  0
   23.2760  -28.3560   42.3930 C   0  0  0  0  0  0  0  0  0  0  0  0
   23.8010  -27.3180   43.1660 C   0  0  0  0  0  0  0  0  0  0  0  0
   23.3730  -26.0060   42.9570 C   0  0  0  0  0  0  0  0  0  0  0  0
   22.4230  -25.7320   41.9770 C   0  0  0  0  0  0  0  0  0  0  0  0
   22.0500  -24.4250   41.8260 O   0  0  0  0  0  0  0  0  0  0  0  0
   21.8990  -26.7710   41.2030 C   0  0  0  0  0  0  0  0  0  0  0  0
   18.6300  -27.0760   38.6650 H   0  0  0  0  0  0  0  0  0  0  0  0
   20.0059  -31.2455   40.8073 H   0  0  0  0  0  0  0  0  0  0  0  0
   19.2766  -33.2935   39.6102 H   0  0  0  0  0  0  0  0  0  0  0  0
   19.8547  -32.3638   35.0365 H   0  0  0  0  0  0  0  0  0  0  0  0
   19.4067  -30.5941   35.0446 H   0  0  0  0  0  0  0  0  0  0  0  0
   20.8306  -29.3256   37.0315 H   0  0  0  0  0  0  0  0  0  0  0  0
   23.6121  -29.3903   42.5584 H   0  0  0  0  0  0  0  0  0  0  0  0
   24.5521  -27.5345   43.9399 H   0  0  0  0  0  0  0  0  0  0  0  0
   23.7862  -25.1888   43.5665 H   0  0  0  0  0  0  0  0  0  0  0  0
   22.6880  -23.7440   41.9010 H   0  0  0  0  0  0  0  0  0  0  0  0
  1  2  2  0
  2  3  1  0
  3  4  1  0
  3  5  2  0
  5  6  1  0
  6  7  2  0
  7  8  1  0
  8  9  2  0
  9 10  1  0
 10 11  1  0
 10 12  1  0
 10 13  1  0
  9 14  1  0
 14 15  1  0
 15 16  1  0
 14 17  2  0
  5 18  1  0
 18 19  1  0
 19 20  2  0
 20 21  1  0
 21 22  2  0
 22 23  1  0
 23 24  1  0
 23 25  2  0
 25  2  1  0
 17  6  1  0
 25 19  1  0
  4 26  1  0
  7 27  1  0
  8 28  1  0
 15 29  1  0
 15 30  1  0
 17 31  1  0
 20 32  1  0
 21 33  1  0
 22 34  1  0
 24 35  1  0
M  END
>  <meeko>  (8) 
{"is_sidechain": [false], "free_energy": -8.412, "intermolecular_energy": -10.915, "internal_energy": 0.03}

$$$$
cand_007_out
     RDKit          3D

 35 37  0  0  0  0  0  0  0  0999 V2000
   19.6130  -25.9240   36.3160 O   0  0  0  0  0  0  0  0  0  0  0  0
   20.0630  -26.8670   36.9640 C   0  0  0  0  0  0  0  0  0  0  0  0
   20.5140  -26.6700   38.3610 C   0  0  0  0  0  0  0  0  0  0  0  0
   20.4200  -25.3910   38.8780 O   0  0  0  0  0  0  0  0  0  0  0  0
   21.0020  -27.7290   39.0340 C   0  0  0  0  0  0  0  0  0  0  0  0
   21.4940  -27.6470   40.4260 C   0  0  0  0  0  0  0  0  0  0  0  0
   20.9100  -26.7900   41.3640 C   0  0  0  0  0  0  0  0  0  0  0  0
   21.3790  -26.7450   42.6800 C   0  0  0  0  0  0  0  0  0  0  0  0
   22.4430  -27.5620   43.0960 C   0  0  0  0  0  0  0  0  0  0  0  0
   22.9270  -27.4900   44.5270 C   0  0  0  0  0  0  0  0  0  0  0  0
   22.3080  -26.5020   45.2310 F   0  0  0  0  0  0  0  0  0  0  0  0
   22.6900  -28.6410   45.2160 F   0  0  0  0  0  0  0  0  0  0  0  0
   24.2630  -27.2530   44.6480 F   0  0  0  0  0  0  0  0  0  0  0  0
   23.0330  -28.4440   42.1640 C   0  0  0  0  0  0  0  0  0  0  0  0
   24.1820  -29.3480   42.5480 C   0  0  0  0  0  0  0  0  0  0  0  0
   24.1250  -30.5750   41.9570 F   0  0  0  0  0  0  0  0  0  0  0  0
   22.5490  -28.4730   40.8410 C   0  0  0  0  0  0  0  0  0  0  0  0
   21.1180  -29.0040   38.4930 O   0  0  0  0  0  0  0  0  0  0  0  0
   20.7020  -29.2180   37.2040 C   0  0  0  0  0  0  0  0  0  0  0  0
   20.8290  -30.5160   36.7050 C   0  0  0  0  0  0  0  0  0  0  0  0
   20.4240  -30.8020   35.4000 C   0  0  0  0  0  0  0  0  0  0  0  0
   19.8960  -29.7930   34.5940 C   0  0  0  0  0  0  0  0  0  0  0  0
   19.7700  -28.4990   35.0930 C   0  0  0  0  0  0  0  0  0  0  0  0
   19.2450  -27.5600   34.2490 O   0  0  0  0  0  0  0  0  0  0  0  0
   20.1750  -28.2130   36.4000 C   0  0  0  0  0  0  0  0  0  0  0  0
   19.5830  -25.0450   39.1220 H   0  0  0  0  0  0  0  0  0  0  0  0
   20.0721  -26.1440   41.0629 H   0  0  0  0  0  0  0  0  0  0  0  0
   20.9080  -26.0598   43.4002 H   0  0  0  0  0  0  0  0  0  0  0  0
   25.1229  -28.8614   42.2516 H   0  0  0  0  0  0  0  0  0  0  0  0
   24.1213  -29.5073   43.6347 H   0  0  0  0  0  0  0  0  0  0  0  0
   23.0097  -29.1601   40.1160 H   0  0  0  0  0  0  0  0  0  0  0  0
   21.2474  -31.3116   37.3390 H   0  0  0  0  0  0  0  0  0  0  0  0
   20.5213  -31.8246   35.0065 H   0  0  0  0  0  0  0  0  0  0  0  0
   19.5795  -30.0194   33.5651 H   0  0  0  0  0  0  0  0  0  0  0  0
   18.9950  -27.7990   33.3800 H   0  0  0  0  0  0  0  0  0  0  0  0
  1  2  2  0
  2  3  1  0
  3  4  1  0
  3  5  2  0
  5  6  1  0
  6  7  2  0
  7  8  1  0
  8  9  2  0
  9 10  1  0
 10 11  1  0
 10 12  1  0
 10 13  1  0
  9 14  1  0
 14 15  1  0
 15 16  1  0
 14 17  2  0
  5 18  1  0
 18 19  1  0
 19 20  2  0
 20 21  1  0
 21 22  2  0
 22 23  1  0
 23 24  1  0
 23 25  2  0
 25  2  1  0
 17  6  1  0
 25 19  1  0
  4 26  1  0
  7 27  1  0
  8 28  1  0
 15 29  1  0
 15 30  1  0
 17 31  1  0
 20 32  1  0
 21 33  1  0
 22 34  1  0
 24 35  1  0
M  END
>  <meeko>  (9) 
{"is_sidechain": [false], "free_energy": -8.385, "intermolecular_energy": -10.843, "internal_energy": -0.008}

$$$$
