cand_001_out
     RDKit          3D

 45 48  0  0  0  0  0  0  0  0999 V2000
   20.3500  -25.5970   41.3840 C   0  0  0  0  0  0  0  0  0  0  0  0
   20.2210  -26.9170   40.6750 C   0  0  0  0  0  0  0  0  0  0  0  0
   18.9660  -27.2890   40.1690 C   0  0  0  0  0  0  0  0  0  0  0  0
   18.7960  -28.4910   39.4760 C   0  0  0  0  0  0  0  0  0  0  0  0
   19.8790  -29.3490   39.2590 C   0  0  0  0  0  0  0  0  0  0  0  0
   19.6770  -30.6220   38.5370 C   0  0  0  0  0  0  0  0  0  0  0  0
   19.2720  -31.6580   39.3710 O   0  0  0  0  0  0  0  0  0  0  0  0
   19.0470  -32.8980   38.8280 C   0  0  0  0  0  0  0  0  0  0  0  0
   18.6570  -33.9120   39.7040 C   0  0  0  0  0  0  0  0  0  0  0  0
   18.4100  -35.1960   39.2160 C   0  0  0  0  0  0  0  0  0  0  0  0
   18.5540  -35.4680   37.8540 C   0  0  0  0  0  0  0  0  0  0  0  0
   18.9440  -34.4540   36.9820 C   0  0  0  0  0  0  0  0  0  0  0  0
   19.0640  -34.7880   35.6610 O   0  0  0  0  0  0  0  0  0  0  0  0
   19.1910  -33.1680   37.4710 C   0  0  0  0  0  0  0  0  0  0  0  0
   19.6020  -32.0750   36.5890 C   0  0  0  0  0  0  0  0  0  0  0  0
   19.7420  -32.2320   35.3780 O   0  0  0  0  0  0  0  0  0  0  0  0
   19.8460  -30.7510   37.2090 C   0  0  0  0  0  0  0  0  0  0  0  0
   20.2220  -29.7220   36.3640 O   0  0  0  0  0  0  0  0  0  0  0  0
   21.1310  -28.9810   39.7690 C   0  0  0  0  0  0  0  0  0  0  0  0
   21.3240  -27.7700   40.4670 C   0  0  0  0  0  0  0  0  0  0  0  0
   22.7220  -27.4340   40.9530 C   0  0  0  0  0  0  0  0  0  0  0  0
   23.0890  -28.0180   42.3000 C   0  0  0  0  0  0  0  0  0  0  0  0
   23.8820  -29.1740   42.3750 C   0  0  0  0  0  0  0  0  0  0  0  0
   24.2470  -29.7070   43.6130 C   0  0  0  0  0  0  0  0  0  0  0  0
   23.8300  -29.0890   44.7890 C   0  0  0  0  0  0  0  0  0  0  0  0
   23.0520  -27.9350   44.7300 C   0  0  0  0  0  0  0  0  0  0  0  0
   22.6880  -27.3990   43.4940 C   0  0  0  0  0  0  0  0  0  0  0  0
   20.3339  -25.7618   42.4715 H   0  0  0  0  0  0  0  0  0  0  0  0
   21.2991  -25.1192   41.0996 H   0  0  0  0  0  0  0  0  0  0  0  0
   19.5113  -24.9445   41.0996 H   0  0  0  0  0  0  0  0  0  0  0  0
   18.1026  -26.6243   40.3201 H   0  0  0  0  0  0  0  0  0  0  0  0
   17.8002  -28.7649   39.0974 H   0  0  0  0  0  0  0  0  0  0  0  0
   18.5445  -33.6996   40.7774 H   0  0  0  0  0  0  0  0  0  0  0  0
   18.1013  -35.9954   39.9057 H   0  0  0  0  0  0  0  0  0  0  0  0
   18.3599  -36.4806   37.4705 H   0  0  0  0  0  0  0  0  0  0  0  0
   19.8600  -34.6040   35.2020 H   0  0  0  0  0  0  0  0  0  0  0  0
   20.1410  -28.8320   36.6450 H   0  0  0  0  0  0  0  0  0  0  0  0
   21.9876  -29.6551   39.6211 H   0  0  0  0  0  0  0  0  0  0  0  0
   23.4410  -27.8107   40.2106 H   0  0  0  0  0  0  0  0  0  0  0  0
   22.7508  -26.3410   41.0739 H   0  0  0  0  0  0  0  0  0  0  0  0
   24.2190  -29.6645   41.4499 H   0  0  0  0  0  0  0  0  0  0  0  0
   24.8646  -30.6161   43.6592 H   0  0  0  0  0  0  0  0  0  0  0  0
   24.1147  -29.5117   45.7638 H   0  0  0  0  0  0  0  0  0  0  0  0
   22.7241  -27.4456   45.6589 H   0  0  0  0  0  0  0  0  0  0  0  0
   22.0809  -26.4825   43.4552 H   0  0  0  0  0  0  0  0  0  0  0  0
  1  2  1  0
  2  3  2  0
  3  4  1  0
  4  5  2  0
  5  6  1  0
  6  7  1  0
  7  8  1  0
  8  9  2  0
  9 10  1  0
 10 11  2  0
 11 12  1  0
 12 13  1  0
 12 14  2  0
 14 15  1  0
 15 16  2  0
 15 17  1  0
 17 18  1  0
  5 19  1  0
 19 20  2  0
 20 21  1  0
 21 22  1  0
 22 23  2  0
 23 24  1  0
 24 25  2  0
 25 26  1  0
 26 27  2  0
 20  2  1  0
 27 22  1  0
 17  6  2  0
 14  8  1  0
  1 28  1  0
  1 29  1  0
  1 30  1  0
  3 31  1  0
  4 32  1  0
  9 33  1  0
 10 34  1  0
 11 35  1  0
 13 36  1  0
 18 37  1  0
 19 38  1  0
 21 39  1  0
 21 40  1  0
 23 41  1  0
 24 42  1  0
 25 43  1  0
 26 44  1  0
 27 45  1  0
M  END
>  <meeko>  (1) 
{"is_sidechain": [false], "free_energy": -9.997, "intermolecular_energy": -12.335, "internal_energy": -1.052}

$$$$
cand_001_out
     RDKit          3D

 45 48  0  0  0  0  0  0  0  0999 V2000
   20.4450  -25.0210   42.4770 C   0  0  0  0  0  0  0  0  0  0  0  0
   20.3800  -26.2590   41.6240 C   0  0  0  0  0  0  0  0  0  0  0  0
   19.1800  -26.5550   40.9600 C   0  0  0  0  0  0  0  0  0  0  0  0
   19.0730  -27.6750   40.1310 C   0  0  0  0  0  0  0  0  0  0  0  0
   20.1670  -28.5230   39.9330 C   0  0  0  0  0  0  0  0  0  0  0  0
   20.0310  -29.7110   39.0640 C   0  0  0  0  0  0  0  0  0  0  0  0
   19.4400  -30.7900   39.7130 O   0  0  0  0  0  0  0  0  0  0  0  0
   19.2530  -31.9590   39.0190 C   0  0  0  0  0  0  0  0  0  0  0  0
   18.6700  -33.0210   39.7120 C   0  0  0  0  0  0  0  0  0  0  0  0
   18.4500  -34.2370   39.0650 C   0  0  0  0  0  0  0  0  0  0  0  0
   18.8110  -34.3930   37.7260 C   0  0  0  0  0  0  0  0  0  0  0  0
   19.3930  -33.3330   37.0360 C   0  0  0  0  0  0  0  0  0  0  0  0
   19.7210  -33.5540   35.7270 O   0  0  0  0  0  0  0  0  0  0  0  0
   19.6130  -32.1140   37.6850 C   0  0  0  0  0  0  0  0  0  0  0  0
   20.2210  -30.9750   36.9960 C   0  0  0  0  0  0  0  0  0  0  0  0
   20.5590  -31.0310   35.8160 O   0  0  0  0  0  0  0  0  0  0  0  0
   20.4190  -29.7310   37.7760 C   0  0  0  0  0  0  0  0  0  0  0  0
   20.9820  -28.6560   37.1120 O   0  0  0  0  0  0  0  0  0  0  0  0
   21.3640  -28.2310   40.6000 C   0  0  0  0  0  0  0  0  0  0  0  0
   21.4930  -27.1030   41.4380 C   0  0  0  0  0  0  0  0  0  0  0  0
   22.8380  -26.8430   42.0930 C   0  0  0  0  0  0  0  0  0  0  0  0
   23.4700  -28.0470   42.7560 C   0  0  0  0  0  0  0  0  0  0  0  0
   23.7840  -29.1850   41.9980 C   0  0  0  0  0  0  0  0  0  0  0  0
   24.3890  -30.2930   42.5950 C   0  0  0  0  0  0  0  0  0  0  0  0
   24.6960  -30.2730   43.9530 C   0  0  0  0  0  0  0  0  0  0  0  0
   24.4010  -29.1450   44.7160 C   0  0  0  0  0  0  0  0  0  0  0  0
   23.7970  -28.0360   44.1210 C   0  0  0  0  0  0  0  0  0  0  0  0
   20.4300  -25.3064   43.5392 H   0  0  0  0  0  0  0  0  0  0  0  0
   21.3732  -24.4729   42.2577 H   0  0  0  0  0  0  0  0  0  0  0  0
   19.5793  -24.3787   42.2577 H   0  0  0  0  0  0  0  0  0  0  0  0
   18.3100  -25.8953   41.0940 H   0  0  0  0  0  0  0  0  0  0  0  0
   18.1184  -27.8916   39.6292 H   0  0  0  0  0  0  0  0  0  0  0  0
   18.3843  -32.8992   40.7673 H   0  0  0  0  0  0  0  0  0  0  0  0
   17.9912  -35.0744   39.6111 H   0  0  0  0  0  0  0  0  0  0  0  0
   18.6360  -35.3520   37.2165 H   0  0  0  0  0  0  0  0  0  0  0  0
   20.2520  -34.2900   35.4950 H   0  0  0  0  0  0  0  0  0  0  0  0
   21.7450  -28.2380   37.4590 H   0  0  0  0  0  0  0  0  0  0  0  0
   22.2272  -28.8996   40.4667 H   0  0  0  0  0  0  0  0  0  0  0  0
   23.5293  -26.4775   41.3193 H   0  0  0  0  0  0  0  0  0  0  0  0
   22.6534  -26.1125   42.8944 H   0  0  0  0  0  0  0  0  0  0  0  0
   23.5514  -29.2047   40.9231 H   0  0  0  0  0  0  0  0  0  0  0  0
   24.6233  -31.1825   41.9918 H   0  0  0  0  0  0  0  0  0  0  0  0
   25.1709  -31.1468   44.4230 H   0  0  0  0  0  0  0  0  0  0  0  0
   24.6444  -29.1284   45.7886 H   0  0  0  0  0  0  0  0  0  0  0  0
   23.5753  -27.1454   44.7274 H   0  0  0  0  0  0  0  0  0  0  0  0
  1  2  1  0
  2  3  2  0
  3  4  1  0
  4  5  2  0
  5  6  1  0
  6  7  1  0
  7  8  1  0
  8  9  2  0
  9 10  1  0
 10 11  2  0
 11 12  1  0
 12 13  1  0
 12 14  2  0
 14 15  1  0
 15 16  2  0
 15 17  1  0
 17 18  1  0
  5 19  1  0
 19 20  2  0
 20 21  1  0
 21 22  1  0
 22 23  2  0
 23 24  1  0
 24 25  2  0
 25 26  1  0
 26 27  2  0
 20  2  1  0
 27 22  1  0
 17  6  2  0
 14  8  1  0
  1 28  1  0
  1 29  1  0
  1 30  1  0
  3 31  1  0
  4 32  1  0
  9 33  1  0
 10 34  1  0
 11 35  1  0
 13 36  1  0
 18 37  1  0
 19 38  1  0
 21 39  1  0
 21 40  1  0
 23 41  1  0
 24 42  1  0
 25 43  1  0
 26 44  1  0
 27 45  1  0
M  END
>  <meeko>  (2) 
{"is_sidechain": [false], "free_energy": -9.741, "intermolecular_energy": -12.601, "internal_energy": -0.47}

$$$$
cand_001_out
     RDKit          3D

 45 48  0  0  0  0  0  0  0  0999 V2000
   22.4520  -26.8360   42.2470 C   0  0  0  0  0  0  0  0  0  0  0  0
   21.8980  -27.8270   41.2600 C   0  0  0  0  0  0  0  0  0  0  0  0
   22.7470  -28.8280   40.7650 C   0  0  0  0  0  0  0  0  0  0  0  0
   22.2770  -29.7930   39.8690 C   0  0  0  0  0  0  0  0  0  0  0  0
   20.9420  -29.7910   39.4540 C   0  0  0  0  0  0  0  0  0  0  0  0
   20.4660  -30.8110   38.4950 C   0  0  0  0  0  0  0  0  0  0  0  0
   20.0270  -31.9740   39.1180 O   0  0  0  0  0  0  0  0  0  0  0  0
   19.5580  -33.0040   38.3430 C   0  0  0  0  0  0  0  0  0  0  0  0
   19.1420  -34.1580   39.0080 C   0  0  0  0  0  0  0  0  0  0  0  0
   18.6510  -35.2430   38.2790 C   0  0  0  0  0  0  0  0  0  0  0  0
   18.5770  -35.1750   36.8870 C   0  0  0  0  0  0  0  0  0  0  0  0
   18.9920  -34.0220   36.2250 C   0  0  0  0  0  0  0  0  0  0  0  0
   18.8920  -34.0220   34.8610 O   0  0  0  0  0  0  0  0  0  0  0  0
   19.4840  -32.9360   36.9560 C   0  0  0  0  0  0  0  0  0  0  0  0
   19.9310  -31.7060   36.3000 C   0  0  0  0  0  0  0  0  0  0  0  0
   19.8890  -31.5660   35.0800 O   0  0  0  0  0  0  0  0  0  0  0  0
   20.4420  -30.6170   37.1650 C   0  0  0  0  0  0  0  0  0  0  0  0
   20.8500  -29.4540   36.5350 O   0  0  0  0  0  0  0  0  0  0  0  0
   20.0950  -28.7880   39.9440 C   0  0  0  0  0  0  0  0  0  0  0  0
   20.5490  -27.8090   40.8520 C   0  0  0  0  0  0  0  0  0  0  0  0
   19.5530  -26.7810   41.3610 C   0  0  0  0  0  0  0  0  0  0  0  0
   19.4620  -25.5160   40.5360 C   0  0  0  0  0  0  0  0  0  0  0  0
   19.4850  -24.2620   41.1650 C   0  0  0  0  0  0  0  0  0  0  0  0
   19.4260  -23.0870   40.4120 C   0  0  0  0  0  0  0  0  0  0  0  0
   19.3510  -23.1510   39.0230 C   0  0  0  0  0  0  0  0  0  0  0  0
   19.3410  -24.3900   38.3840 C   0  0  0  0  0  0  0  0  0  0  0  0
   19.4010  -25.5650   39.1350 C   0  0  0  0  0  0  0  0  0  0  0  0
   22.2550  -27.1884   43.2702 H   0  0  0  0  0  0  0  0  0  0  0  0
   23.5370  -26.7358   42.0962 H   0  0  0  0  0  0  0  0  0  0  0  0
   21.9691  -25.8592   42.0962 H   0  0  0  0  0  0  0  0  0  0  0  0
   23.7986  -28.8541   41.0867 H   0  0  0  0  0  0  0  0  0  0  0  0
   22.9647  -30.5617   39.4867 H   0  0  0  0  0  0  0  0  0  0  0  0
   19.2008  -34.2129   40.1051 H   0  0  0  0  0  0  0  0  0  0  0  0
   18.3220  -36.1527   38.8026 H   0  0  0  0  0  0  0  0  0  0  0  0
   18.1915  -36.0308   36.3135 H   0  0  0  0  0  0  0  0  0  0  0  0
   19.6060  -33.7160   34.3390 H   0  0  0  0  0  0  0  0  0  0  0  0
   20.7980  -29.3840   35.6020 H   0  0  0  0  0  0  0  0  0  0  0  0
   19.0468  -28.7635   39.6112 H   0  0  0  0  0  0  0  0  0  0  0  0
   18.5579  -27.2494   41.3784 H   0  0  0  0  0  0  0  0  0  0  0  0
   19.9087  -26.4744   42.3557 H   0  0  0  0  0  0  0  0  0  0  0  0
   19.5501  -24.2036   42.2615 H   0  0  0  0  0  0  0  0  0  0  0  0
   19.4388  -22.1098   40.9169 H   0  0  0  0  0  0  0  0  0  0  0  0
   19.2997  -22.2254   38.4309 H   0  0  0  0  0  0  0  0  0  0  0  0
   19.2858  -24.4417   37.2866 H   0  0  0  0  0  0  0  0  0  0  0  0
   19.4005  -26.5389   38.6236 H   0  0  0  0  0  0  0  0  0  0  0  0
  1  2  1  0
  2  3  2  0
  3  4  1  0
  4  5  2  0
  5  6  1  0
  6  7  1  0
  7  8  1  0
  8  9  2  0
  9 10  1  0
 10 11  2  0
 11 12  1  0
 12 13  1  0
 12 14  2  0
 14 15  1  0
 15 16  2  0
 15 17  1  0
 17 18  1  0
  5 19  1  0
 19 20  2  0
 20 21  1  0
 21 22  1  0
 22 23  2  0
 23 24  1  0
 24 25  2  0
 25 26  1  0
 26 27  2  0
 20  2  1  0
 27 22  1  0
 17  6  2  0
 14  8  1  0
  1 28  1  0
  1 29  1  0
  1 30  1  0
  3 31  1  0
  4 32  1  0
  9 33  1  0
 10 34  1  0
 11 35  1  0
 13 36  1  0
 18 37  1  0
 19 38  1  0
 21 39  1  0
 21 40  1  0
 23 41  1  0
 24 42  1  0
 25 43  1  0
 26 44  1  0
 27 45  1  0
M  END
>  <meeko>  (3) 
{"is_sidechain": [false], "free_energy": -9.614, "intermolecular_energy": -11.968, "internal_energy": -0.946}

$$$$
cand_001_out
     RDKit          3D

 45 48  0  0  0  0  0  0  0  0999 V2000
   20.2490  -26.1650   41.0860 C   0  0  0  0  0  0  0  0  0  0  0  0
   20.1460  -27.4360   40.2890 C   0  0  0  0  0  0  0  0  0  0  0  0
   18.8830  -27.8400   39.8270 C   0  0  0  0  0  0  0  0  0  0  0  0
   18.7350  -28.9960   39.0560 C   0  0  0  0  0  0  0  0  0  0  0  0
   19.8450  -29.7740   38.7150 C   0  0  0  0  0  0  0  0  0  0  0  0
   19.6660  -31.0020   37.9110 C   0  0  0  0  0  0  0  0  0  0  0  0
   20.0840  -30.8500   36.5940 O   0  0  0  0  0  0  0  0  0  0  0  0
   19.9740  -31.9150   35.7360 C   0  0  0  0  0  0  0  0  0  0  0  0
   20.3910  -31.7140   34.4200 C   0  0  0  0  0  0  0  0  0  0  0  0
   20.3080  -32.7580   33.4960 C   0  0  0  0  0  0  0  0  0  0  0  0
   19.8090  -34.0010   33.8880 C   0  0  0  0  0  0  0  0  0  0  0  0
   19.3930  -34.1990   35.2020 C   0  0  0  0  0  0  0  0  0  0  0  0
   18.9150  -35.4410   35.5180 O   0  0  0  0  0  0  0  0  0  0  0  0
   19.4760  -33.1540   36.1260 C   0  0  0  0  0  0  0  0  0  0  0  0
   19.0500  -33.3200   37.5170 C   0  0  0  0  0  0  0  0  0  0  0  0
   18.6070  -34.3850   37.9390 O   0  0  0  0  0  0  0  0  0  0  0  0
   19.1720  -32.1470   38.4140 C   0  0  0  0  0  0  0  0  0  0  0  0
   18.7790  -32.3200   39.7300 O   0  0  0  0  0  0  0  0  0  0  0  0
   21.1050  -29.3750   39.1800 C   0  0  0  0  0  0  0  0  0  0  0  0
   21.2770  -28.2090   39.9560 C   0  0  0  0  0  0  0  0  0  0  0  0
   22.6820  -27.8320   40.3870 C   0  0  0  0  0  0  0  0  0  0  0  0
   23.0840  -28.3230   41.7610 C   0  0  0  0  0  0  0  0  0  0  0  0
   23.8500  -29.4920   41.8950 C   0  0  0  0  0  0  0  0  0  0  0  0
   24.2460  -29.9410   43.1570 C   0  0  0  0  0  0  0  0  0  0  0  0
   23.8890  -29.2250   44.2970 C   0  0  0  0  0  0  0  0  0  0  0  0
   23.1400  -28.0560   44.1770 C   0  0  0  0  0  0  0  0  0  0  0  0
   22.7440  -27.6050   42.9170 C   0  0  0  0  0  0  0  0  0  0  0  0
   20.2297  -26.4030   42.1598 H   0  0  0  0  0  0  0  0  0  0  0  0
   21.1915  -25.6537   40.8406 H   0  0  0  0  0  0  0  0  0  0  0  0
   19.4011  -25.5086   40.8406 H   0  0  0  0  0  0  0  0  0  0  0  0
   17.9969  -27.2375   40.0757 H   0  0  0  0  0  0  0  0  0  0  0  0
   17.7339  -29.2970   38.7137 H   0  0  0  0  0  0  0  0  0  0  0  0
   20.7846  -30.7346   34.1105 H   0  0  0  0  0  0  0  0  0  0  0  0
   20.6363  -32.6004   32.4580 H   0  0  0  0  0  0  0  0  0  0  0  0
   19.7444  -34.8231   33.1600 H   0  0  0  0  0  0  0  0  0  0  0  0
   19.4270  -36.0190   36.0480 H   0  0  0  0  0  0  0  0  0  0  0  0
   19.3780  -32.6800   40.3540 H   0  0  0  0  0  0  0  0  0  0  0  0
   21.9846  -29.9877   38.9333 H   0  0  0  0  0  0  0  0  0  0  0  0
   23.3875  -28.2518   39.6549 H   0  0  0  0  0  0  0  0  0  0  0  0
   22.7039  -26.7333   40.4351 H   0  0  0  0  0  0  0  0  0  0  0  0
   24.1408  -30.0591   40.9985 H   0  0  0  0  0  0  0  0  0  0  0  0
   24.8408  -30.8616   43.2506 H   0  0  0  0  0  0  0  0  0  0  0  0
   24.1978  -29.5817   45.2907 H   0  0  0  0  0  0  0  0  0  0  0  0
   22.8605  -27.4880   45.0766 H   0  0  0  0  0  0  0  0  0  0  0  0
   22.1595  -26.6773   42.8296 H   0  0  0  0  0  0  0  0  0  0  0  0
  1  2  1  0
  2  3  2  0
  3  4  1  0
  4  5  2  0
  5  6  1  0
  6  7  1  0
  7  8  1  0
  8  9  2  0
  9 10  1  0
 10 11  2  0
 11 12  1  0
 12 13  1  0
 12 14  2  0
 14 15  1  0
 15 16  2  0
 15 17  1  0
 17 18  1  0
  5 19  1  0
 19 20  2  0
 20 21  1  0
 21 22  1  0
 22 23  2  0
 23 24  1  0
 24 25  2  0
 25 26  1  0
 26 27  2  0
 20  2  1  0
 27 22  1  0
 17  6  2  0
 14  8  1  0
  1 28  1  0
  1 29  1  0
  1 30  1  0
  3 31  1  0
  4 32  1  0
  9 33  1  0
 10 34  1  0
 11 35  1  0
 13 36  1  0
 18 37  1  0
 19 38  1  0
 21 39  1  0
 21 40  1  0
 23 41  1  0
 24 42  1  0
 25 43  1  0
 26 44  1  0
 27 45  1  0
M  END
>  <meeko>  (4) 
{"is_sidechain": [false], "free_energy": -9.502, "intermolecular_energy": -11.924, "internal_energy": -0.852}

$$$$
cand_001_out
     RDKit          3D

 45 48  0  0  0  0  0  0  0  0999 V2000
   19.2990  -28.6370   35.3300 C   0  0  0  0  0  0  0  0  0  0  0  0
   20.0200  -28.5080   36.6430 C   0  0  0  0  0  0  0  0  0  0  0  0
   20.1340  -27.2360   37.2250 C   0  0  0  0  0  0  0  0  0  0  0  0
   20.7670  -27.0630   38.4590 C   0  0  0  0  0  0  0  0  0  0  0  0
   21.2930  -28.1580   39.1510 C   0  0  0  0  0  0  0  0  0  0  0  0
   21.9720  -27.9530   40.4490 C   0  0  0  0  0  0  0  0  0  0  0  0
   22.7810  -29.0260   40.8100 O   0  0  0  0  0  0  0  0  0  0  0  0
   23.4710  -28.9660   41.9940 C   0  0  0  0  0  0  0  0  0  0  0  0
   24.2580  -30.0690   42.3250 C   0  0  0  0  0  0  0  0  0  0  0  0
   24.9880  -30.0720   43.5140 C   0  0  0  0  0  0  0  0  0  0  0  0
   24.9310  -28.9740   44.3730 C   0  0  0  0  0  0  0  0  0  0  0  0
   24.1450  -27.8730   44.0420 C   0  0  0  0  0  0  0  0  0  0  0  0
   24.1350  -26.8310   44.9270 O   0  0  0  0  0  0  0  0  0  0  0  0
   23.4140  -27.8710   42.8500 C   0  0  0  0  0  0  0  0  0  0  0  0
   22.5760  -26.7350   42.4640 C   0  0  0  0  0  0  0  0  0  0  0  0
   22.4790  -25.7290   43.1620 O   0  0  0  0  0  0  0  0  0  0  0  0
   21.8350  -26.8360   41.1840 C   0  0  0  0  0  0  0  0  0  0  0  0
   21.0560  -25.7510   40.8220 O   0  0  0  0  0  0  0  0  0  0  0  0
   21.1840  -29.4270   38.5690 C   0  0  0  0  0  0  0  0  0  0  0  0
   20.5450  -29.6240   37.3260 C   0  0  0  0  0  0  0  0  0  0  0  0
   20.4400  -31.0380   36.7860 C   0  0  0  0  0  0  0  0  0  0  0  0
   19.6820  -32.0060   37.6680 C   0  0  0  0  0  0  0  0  0  0  0  0
   19.1350  -33.1770   37.1220 C   0  0  0  0  0  0  0  0  0  0  0  0
   18.4540  -34.0890   37.9310 C   0  0  0  0  0  0  0  0  0  0  0  0
   18.3190  -33.8460   39.2960 C   0  0  0  0  0  0  0  0  0  0  0  0
   18.8680  -32.6930   39.8540 C   0  0  0  0  0  0  0  0  0  0  0  0
   19.5500  -31.7810   39.0470 C   0  0  0  0  0  0  0  0  0  0  0  0
   18.2316  -28.8280   35.5150 H   0  0  0  0  0  0  0  0  0  0  0  0
   19.4108  -27.7046   34.7572 H   0  0  0  0  0  0  0  0  0  0  0  0
   19.7271  -29.4728   34.7572 H   0  0  0  0  0  0  0  0  0  0  0  0
   19.7188  -26.3619   36.7020 H   0  0  0  0  0  0  0  0  0  0  0  0
   20.8522  -26.0547   38.8903 H   0  0  0  0  0  0  0  0  0  0  0  0
   24.3031  -30.9358   41.6492 H   0  0  0  0  0  0  0  0  0  0  0  0
   25.6095  -30.9414   43.7746 H   0  0  0  0  0  0  0  0  0  0  0  0
   25.5062  -28.9780   45.3106 H   0  0  0  0  0  0  0  0  0  0  0  0
   24.3590  -25.9690   44.6380 H   0  0  0  0  0  0  0  0  0  0  0  0
   20.7810  -25.1340   41.4720 H   0  0  0  0  0  0  0  0  0  0  0  0
   21.6083  -30.2947   39.0954 H   0  0  0  0  0  0  0  0  0  0  0  0
   19.9310  -30.9941   35.8118 H   0  0  0  0  0  0  0  0  0  0  0  0
   21.4696  -31.4203   36.7248 H   0  0  0  0  0  0  0  0  0  0  0  0
   19.2437  -33.3786   36.0461 H   0  0  0  0  0  0  0  0  0  0  0  0
   18.0237  -35.0002   37.4899 H   0  0  0  0  0  0  0  0  0  0  0  0
   17.7799  -34.5631   39.9325 H   0  0  0  0  0  0  0  0  0  0  0  0
   18.7637  -32.5014   40.9321 H   0  0  0  0  0  0  0  0  0  0  0  0
   19.9881  -30.8774   39.4960 H   0  0  0  0  0  0  0  0  0  0  0  0
  1  2  1  0
  2  3  2  0
  3  4  1  0
  4  5  2  0
  5  6  1  0
  6  7  1  0
  7  8  1  0
  8  9  2  0
  9 10  1  0
 10 11  2  0
 11 12  1  0
 12 13  1  0
 12 14  2  0
 14 15  1  0
 15 16  2  0
 15 17  1  0
 17 18  1  0
  5 19  1  0
 19 20  2  0
 20 21  1  0
 21 22  1  0
 22 23  2  0
 23 24  1  0
 24 25  2  0
 25 26  1  0
 26 27  2  0
 20  2  1  0
 27 22  1  0
 17  6  2  0
 14  8  1  0
  1 28  1  0
  1 29  1  0
  1 30  1  0
  3 31  1  0
  4 32  1  0
  9 33  1  0
 10 34  1  0
 11 35  1  0
 13 36  1  0
 18 37  1  0
 19 38  1  0
 21 39  1  0
 21 40  1  0
 23 41  1  0
 24 42  1  0
 25 43  1  0
 26 44  1  0
 27 45  1  0
M  END
>  <meeko>  (5) 
{"is_sidechain": [false], "free_energy": -9.154, "intermolecular_energy": -12.551, "internal_energy": 0.205}

$$$$
cand_001_out
     RDKit          3D

 45 48  0  0  0  0  0  0  0  0999 V2000
   21.8210  -26.7740   41.7130 C   0  0  0  0  0  0  0  0  0  0  0  0
   21.3690  -27.8350   40.7470 C   0  0  0  0  0  0  0  0  0  0  0  0
   22.2610  -28.8670   40.4170 C   0  0  0  0  0  0  0  0  0  0  0  0
   21.8820  -29.8950   39.5480 C   0  0  0  0  0  0  0  0  0  0  0  0
   20.5980  -29.9260   38.9960 C   0  0  0  0  0  0  0  0  0  0  0  0
   20.2200  -31.0130   38.0680 C   0  0  0  0  0  0  0  0  0  0  0  0
   20.5760  -30.7460   36.7510 O   0  0  0  0  0  0  0  0  0  0  0  0
   20.2830  -31.6750   35.7840 C   0  0  0  0  0  0  0  0  0  0  0  0
   20.6440  -31.3600   34.4730 C   0  0  0  0  0  0  0  0  0  0  0  0
   20.3770  -32.2620   33.4420 C   0  0  0  0  0  0  0  0  0  0  0  0
   19.7500  -33.4780   33.7200 C   0  0  0  0  0  0  0  0  0  0  0  0
   19.3910  -33.7900   35.0290 C   0  0  0  0  0  0  0  0  0  0  0  0
   18.7820  -34.9980   35.2310 O   0  0  0  0  0  0  0  0  0  0  0  0
   19.6590  -32.8860   36.0610 C   0  0  0  0  0  0  0  0  0  0  0  0
   19.2980  -33.1760   37.4500 C   0  0  0  0  0  0  0  0  0  0  0  0
   18.7510  -34.2270   37.7760 O   0  0  0  0  0  0  0  0  0  0  0  0
   19.6180  -32.1470   38.4680 C   0  0  0  0  0  0  0  0  0  0  0  0
   19.2850  -32.4370   39.7800 O   0  0  0  0  0  0  0  0  0  0  0  0
   19.7090  -28.8930   39.3210 C   0  0  0  0  0  0  0  0  0  0  0  0
   20.0700  -27.8490   40.1990 C   0  0  0  0  0  0  0  0  0  0  0  0
   19.0330  -26.7900   40.5250 C   0  0  0  0  0  0  0  0  0  0  0  0
   19.1660  -25.5010   39.7430 C   0  0  0  0  0  0  0  0  0  0  0  0
   19.1600  -25.5250   38.3400 C   0  0  0  0  0  0  0  0  0  0  0  0
   19.2590  -24.3390   37.6090 C   0  0  0  0  0  0  0  0  0  0  0  0
   19.3560  -23.1170   38.2690 C   0  0  0  0  0  0  0  0  0  0  0  0
   19.3510  -23.0780   39.6620 C   0  0  0  0  0  0  0  0  0  0  0  0
   19.2510  -24.2620   40.3950 C   0  0  0  0  0  0  0  0  0  0  0  0
   21.6702  -27.1281   42.7435 H   0  0  0  0  0  0  0  0  0  0  0  0
   22.8880  -26.5611   41.5509 H   0  0  0  0  0  0  0  0  0  0  0  0
   21.2354  -25.8571   41.5509 H   0  0  0  0  0  0  0  0  0  0  0  0
   23.2730  -28.8673   40.8482 H   0  0  0  0  0  0  0  0  0  0  0  0
   22.6019  -30.6877   39.2961 H   0  0  0  0  0  0  0  0  0  0  0  0
   21.1382  -30.4023   34.2528 H   0  0  0  0  0  0  0  0  0  0  0  0
   20.6611  -32.0144   32.4086 H   0  0  0  0  0  0  0  0  0  0  0  0
   19.5399  -34.1883   32.9068 H   0  0  0  0  0  0  0  0  0  0  0  0
   17.9790  -35.1970   34.7920 H   0  0  0  0  0  0  0  0  0  0  0  0
   19.9240  -32.3390   40.4570 H   0  0  0  0  0  0  0  0  0  0  0  0
   18.7015  -28.8959   38.8794 H   0  0  0  0  0  0  0  0  0  0  0  0
   18.0382  -27.2123   40.3199 H   0  0  0  0  0  0  0  0  0  0  0  0
   19.1863  -26.5252   41.5816 H   0  0  0  0  0  0  0  0  0  0  0  0
   19.0766  -26.4861   37.8114 H   0  0  0  0  0  0  0  0  0  0  0  0
   19.2603  -24.3705   36.5095 H   0  0  0  0  0  0  0  0  0  0  0  0
   19.4364  -22.1840   37.6920 H   0  0  0  0  0  0  0  0  0  0  0  0
   19.4259  -22.1130   40.1847 H   0  0  0  0  0  0  0  0  0  0  0  0
   19.2388  -24.2228   41.4942 H   0  0  0  0  0  0  0  0  0  0  0  0
  1  2  1  0
  2  3  2  0
  3  4  1  0
  4  5  2  0
  5  6  1  0
  6  7  1  0
  7  8  1  0
  8  9  2  0
  9 10  1  0
 10 11  2  0
 11 12  1  0
 12 13  1  0
 12 14  2  0
 14 15  1  0
 15 16  2  0
 15 17  1  0
 17 18  1  0
  5 19  1  0
 19 20  2  0
 20 21  1  0
 21 22  1  0
 22 23  2  0
 23 24  1  0
 24 25  2  0
 25 26  1  0
 26 27  2  0
 20  2  1  0
 27 22  1  0
 17  6  2  0
 14  8  1  0
  1 28  1  0
  1 29  1  0
  1 30  1  0
  3 31  1  0
  4 32  1  0
  9 33  1  0
 10 34  1  0
 11 35  1  0
 13 36  1  0
 18 37  1  0
 19 38  1  0
 21 39  1  0
 21 40  1  0
 23 41  1  0
 24 42  1  0
 25 43  1  0
 26 44  1  0
 27 45  1  0
M  END
>  <meeko>  (6) 
{"is_sidechain": [false], "free_energy": -9.037, "intermolecular_energy": -11.224, "internal_energy": -0.978}

$$$$
cand_001_out
     RDKit          3D

 45 48  0  0  0  0  0  0  0  0999 V2000
   20.5900  -30.8030   35.7080 C   0  0  0  0  0  0  0  0  0  0  0  0
   20.9920  -30.2970   37.0660 C   0  0  0  0  0  0  0  0  0  0  0  0
   22.2030  -29.5980   37.1920 C   0  0  0  0  0  0  0  0  0  0  0  0
   22.6100  -29.0800   38.4240 C   0  0  0  0  0  0  0  0  0  0  0  0
   21.8130  -29.2340   39.5630 C   0  0  0  0  0  0  0  0  0  0  0  0
   22.2670  -28.6910   40.8600 C   0  0  0  0  0  0  0  0  0  0  0  0
   21.5970  -27.5280   41.2230 O   0  0  0  0  0  0  0  0  0  0  0  0
   21.9210  -26.9180   42.4080 C   0  0  0  0  0  0  0  0  0  0  0  0
   21.2350  -25.7450   42.7260 C   0  0  0  0  0  0  0  0  0  0  0  0
   21.5150  -25.0750   43.9180 C   0  0  0  0  0  0  0  0  0  0  0  0
   22.4800  -25.5780   44.7920 C   0  0  0  0  0  0  0  0  0  0  0  0
   23.1640  -26.7480   44.4740 C   0  0  0  0  0  0  0  0  0  0  0  0
   24.0950  -27.1850   45.3760 O   0  0  0  0  0  0  0  0  0  0  0  0
   22.8830  -27.4180   43.2800 C   0  0  0  0  0  0  0  0  0  0  0  0
   23.5770  -28.6520   42.9070 C   0  0  0  0  0  0  0  0  0  0  0  0
   24.4330  -29.1600   43.6270 O   0  0  0  0  0  0  0  0  0  0  0  0
   23.2110  -29.2790   41.6160 C   0  0  0  0  0  0  0  0  0  0  0  0
   23.8650  -30.4520   41.2800 O   0  0  0  0  0  0  0  0  0  0  0  0
   20.6060  -29.9360   39.4390 C   0  0  0  0  0  0  0  0  0  0  0  0
   20.1750  -30.4630   38.2030 C   0  0  0  0  0  0  0  0  0  0  0  0
   18.8370  -31.1780   38.1530 C   0  0  0  0  0  0  0  0  0  0  0  0
   18.9070  -32.6800   38.3260 C   0  0  0  0  0  0  0  0  0  0  0  0
   18.5530  -33.2640   39.5520 C   0  0  0  0  0  0  0  0  0  0  0  0
   18.5910  -34.6510   39.7160 C   0  0  0  0  0  0  0  0  0  0  0  0
   18.9750  -35.4690   38.6570 C   0  0  0  0  0  0  0  0  0  0  0  0
   19.3170  -34.9030   37.4300 C   0  0  0  0  0  0  0  0  0  0  0  0
   19.2790  -33.5180   37.2640 C   0  0  0  0  0  0  0  0  0  0  0  0
   19.9095  -31.6596   35.8226 H   0  0  0  0  0  0  0  0  0  0  0  0
   20.0800  -30.0011   35.1541 H   0  0  0  0  0  0  0  0  0  0  0  0
   21.4865  -31.1184   35.1541 H   0  0  0  0  0  0  0  0  0  0  0  0
   22.8411  -29.4560   36.3073 H   0  0  0  0  0  0  0  0  0  0  0  0
   23.5682  -28.5449   38.4991 H   0  0  0  0  0  0  0  0  0  0  0  0
   20.4740  -25.3487   42.0376 H   0  0  0  0  0  0  0  0  0  0  0  0
   20.9749  -24.1501   44.1687 H   0  0  0  0  0  0  0  0  0  0  0  0
   22.6999  -25.0501   45.7317 H   0  0  0  0  0  0  0  0  0  0  0  0
   24.9690  -26.8510   45.3450 H   0  0  0  0  0  0  0  0  0  0  0  0
   23.8460  -30.7620   40.3960 H   0  0  0  0  0  0  0  0  0  0  0  0
   19.9773  -30.0801   40.3301 H   0  0  0  0  0  0  0  0  0  0  0  0
   18.2028  -30.7715   38.9546 H   0  0  0  0  0  0  0  0  0  0  0  0
   18.4328  -31.0034   37.1450 H   0  0  0  0  0  0  0  0  0  0  0  0
   18.2429  -32.6241   40.3913 H   0  0  0  0  0  0  0  0  0  0  0  0
   18.3171  -35.0973   40.6834 H   0  0  0  0  0  0  0  0  0  0  0  0
   19.0085  -36.5606   38.7884 H   0  0  0  0  0  0  0  0  0  0  0  0
   19.6172  -35.5488   36.5916 H   0  0  0  0  0  0  0  0  0  0  0  0
   19.5434  -33.0788   36.2907 H   0  0  0  0  0  0  0  0  0  0  0  0
  1  2  1  0
  2  3  2  0
  3  4  1  0
  4  5  2  0
  5  6  1  0
  6  7  1  0
  7  8  1  0
  8  9  2  0
  9 10  1  0
 10 11  2  0
 11 12  1  0
 12 13  1  0
 12 14  2  0
 14 15  1  0
 15 16  2  0
 15 17  1  0
 17 18  1  0
  5 19  1  0
 19 20  2  0
 20 21  1  0
 21 22  1  0
 22 23  2  0
 23 24  1  0
 24 25  2  0
 25 26  1  0
 26 27  2  0
 20  2  1  0
 27 22  1  0
 17  6  2  0
 14  8  1  0
  1 28  1  0
  1 29  1  0
  1 30  1  0
  3 31  1  0
  4 32  1  0
  9 33  1  0
 10 34  1  0
 11 35  1  0
 13 36  1  0
 18 37  1  0
 19 38  1  0
 21 39  1  0
 21 40  1  0
 23 41  1  0
 24 42  1  0
 25 43  1  0
 26 44  1  0
 27 45  1  0
M  END
>  <meeko>  (7) 
{"is_sidechain": [false], "free_energy": -8.949, "intermolecular_energy": -11.256, "internal_energy": -0.837}

$$$$
cand_001_out
     RDKit          3D

 45 48  0  0  0  0  0  0  0  0999 V2000
   24.2610  -26.6040   43.8440 C   0  0  0  0  0  0  0  0  0  0  0  0
   23.5820  -27.3370   42.7210 C   0  0  0  0  0  0  0  0  0  0  0  0
   23.7970  -28.7180   42.5920 C   0  0  0  0  0  0  0  0  0  0  0  0
   23.1670  -29.4540   41.5860 C   0  0  0  0  0  0  0  0  0  0  0  0
   22.2940  -28.8330   40.6870 C   0  0  0  0  0  0  0  0  0  0  0  0
   21.6470  -29.6260   39.6190 C   0  0  0  0  0  0  0  0  0  0  0  0
   20.8270  -30.6330   40.1170 O   0  0  0  0  0  0  0  0  0  0  0  0
   20.1650  -31.4450   39.2320 C   0  0  0  0  0  0  0  0  0  0  0  0
   19.3650  -32.4530   39.7730 C   0  0  0  0  0  0  0  0  0  0  0  0
   18.6610  -33.3120   38.9280 C   0  0  0  0  0  0  0  0  0  0  0  0
   18.7570  -33.1660   37.5430 C   0  0  0  0  0  0  0  0  0  0  0  0
   19.5550  -32.1610   37.0050 C   0  0  0  0  0  0  0  0  0  0  0  0
   19.6030  -32.0730   35.6410 O   0  0  0  0  0  0  0  0  0  0  0  0
   20.2600  -31.3000   37.8520 C   0  0  0  0  0  0  0  0  0  0  0  0
   21.1100  -30.2300   37.3270 C   0  0  0  0  0  0  0  0  0  0  0  0
   21.2390  -30.0330   36.1210 O   0  0  0  0  0  0  0  0  0  0  0  0
   21.8200  -29.3770   38.3090 C   0  0  0  0  0  0  0  0  0  0  0  0
   22.6110  -28.3610   37.8020 O   0  0  0  0  0  0  0  0  0  0  0  0
   22.0820  -27.4540   40.8110 C   0  0  0  0  0  0  0  0  0  0  0  0
   22.7050  -26.6940   41.8230 C   0  0  0  0  0  0  0  0  0  0  0  0
   22.3910  -25.2110   41.9070 C   0  0  0  0  0  0  0  0  0  0  0  0
   21.3860  -24.8280   42.9720 C   0  0  0  0  0  0  0  0  0  0  0  0
   20.0140  -24.8240   42.6760 C   0  0  0  0  0  0  0  0  0  0  0  0
   19.0770  -24.4960   43.6580 C   0  0  0  0  0  0  0  0  0  0  0  0
   19.4970  -24.1770   44.9470 C   0  0  0  0  0  0  0  0  0  0  0  0
   20.8560  -24.1890   45.2570 C   0  0  0  0  0  0  0  0  0  0  0  0
   21.7940  -24.5180   44.2780 C   0  0  0  0  0  0  0  0  0  0  0  0
   23.9001  -26.9936   44.8073 H   0  0  0  0  0  0  0  0  0  0  0  0
   25.3488  -26.7513   43.7733 H   0  0  0  0  0  0  0  0  0  0  0  0
   24.0310  -25.5306   43.7733 H   0  0  0  0  0  0  0  0  0  0  0  0
   24.4723  -29.2287   43.2943 H   0  0  0  0  0  0  0  0  0  0  0  0
   23.3595  -30.5336   41.4998 H   0  0  0  0  0  0  0  0  0  0  0  0
   19.2896  -32.5701   40.8642 H   0  0  0  0  0  0  0  0  0  0  0  0
   18.0294  -34.1055   39.3540 H   0  0  0  0  0  0  0  0  0  0  0  0
   18.2026  -33.8445   36.8779 H   0  0  0  0  0  0  0  0  0  0  0  0
   19.8080  -32.8310   35.1300 H   0  0  0  0  0  0  0  0  0  0  0  0
   22.2460  -27.5090   37.6630 H   0  0  0  0  0  0  0  0  0  0  0  0
   21.4113  -26.9498   40.0997 H   0  0  0  0  0  0  0  0  0  0  0  0
   23.3289  -24.6751   42.1147 H   0  0  0  0  0  0  0  0  0  0  0  0
   21.9358  -24.9387   40.9434 H   0  0  0  0  0  0  0  0  0  0  0  0
   19.6740  -25.0814   41.6620 H   0  0  0  0  0  0  0  0  0  0  0  0
   18.0047  -24.4896   43.4129 H   0  0  0  0  0  0  0  0  0  0  0  0
   18.7579  -23.9161   45.7188 H   0  0  0  0  0  0  0  0  0  0  0  0
   21.1893  -23.9387   46.2750 H   0  0  0  0  0  0  0  0  0  0  0  0
   22.8640  -24.5345   44.5326 H   0  0  0  0  0  0  0  0  0  0  0  0
  1  2  1  0
  2  3  2  0
  3  4  1  0
  4  5  2  0
  5  6  1  0
  6  7  1  0
  7  8  1  0
  8  9  2  0
  9 10  1  0
 10 11  2  0
 11 12  1  0
 12 13  1  0
 12 14  2  0
 14 15  1  0
 15 16  2  0
 15 17  1  0
 17 18  1  0
  5 19  1  0
 19 20  2  0
 20 21  1  0
 21 22  1  0
 22 23  2  0
 23 24  1  0
 24 25  2  0
 25 26  1  0
 26 27  2  0
 20  2  1  0
 27 22  1  0
 17  6  2  0
 14  8  1  0
  1 28  1  0
  1 29  1  0
  1 30  1  0
  3 31  1  0
  4 32  1  0
  9 33  1  0
 10 34  1  0
 11 35  1  0
 13 36  1  0
 18 37  1  0
 19 38  1  0
 21 39  1  0
 21 40  1  0
 23 41  1  0
 24 42  1  0
 25 43  1  0
 26 44  1  0
 27 45  1  0
M  END
>  <meeko>  (8) 
{"is_sidechain": [false], "free_energy": -8.853, "intermolecular_energy": -11.414, "internal_energy": -0.562}

$$$$
