9IV_ttbk1_out
     RDKit          3D

 37 40  0  0  0  0  0  0  0  0999 V2000
  178.5690   23.7890   47.3650 Cl  0  0  0  0  0  0  0  0  0  0  0  0
  177.4970   22.7120   48.1810 C   0  0  0  0  0  0  0  0  0  0  0  0
  176.1420   23.0420   48.2500 C   0  0  0  0  0  0  0  0  0  0  0  0
  175.2470   22.1900   48.9020 C   0  0  0  0  0  0  0  0  0  0  0  0
  175.7050   21.0060   49.4800 C   0  0  0  0  0  0  0  0  0  0  0  0
  177.0580   20.6720   49.4120 C   0  0  0  0  0  0  0  0  0  0  0  0
  177.9610   21.5340   48.7770 C   0  0  0  0  0  0  0  0  0  0  0  0
  179.2930   21.2010   48.6670 O   0  0  0  0  0  0  0  0  0  0  0  0
  179.6720   20.5030   47.5440 C   0  0  0  0  0  0  0  0  0  0  0  0
  178.7630   19.8500   46.7100 C   0  0  0  0  0  0  0  0  0  0  0  0
  179.2290   19.1340   45.6040 C   0  0  0  0  0  0  0  0  0  0  0  0
  180.5990   19.0580   45.3170 C   0  0  0  0  0  0  0  0  0  0  0  0
  181.0060   18.2940   44.2030 N   0  0  0  0  0  0  0  0  0  0  0  0
  180.8390   16.9160   43.9910 C   0  0  0  0  0  0  0  0  0  0  0  0
  180.4710   16.1750   45.0670 N   0  0  0  0  0  0  0  0  0  0  0  0
  180.2900   14.8490   44.9070 C   0  0  0  0  0  0  0  0  0  0  0  0
  180.4130   14.1240   43.7850 N   0  0  0  0  0  0  0  0  0  0  0  0
  180.7470   14.8970   42.7410 C   0  0  0  0  0  0  0  0  0  0  0  0
  180.9170   14.4430   41.4630 N   0  0  0  0  0  0  0  0  0  0  0  0
  181.2280   15.4920   40.6350 C   0  0  0  0  0  0  0  0  0  0  0  0
  181.2580   16.6360   41.4050 C   0  0  0  0  0  0  0  0  0  0  0  0
  180.9680   16.2660   42.7510 C   0  0  0  0  0  0  0  0  0  0  0  0
  181.4990   19.6810   46.1890 C   0  0  0  0  0  0  0  0  0  0  0  0
  181.0400   20.3990   47.2970 C   0  0  0  0  0  0  0  0  0  0  0  0
  175.7790   23.9733   47.7908 H   0  0  0  0  0  0  0  0  0  0  0  0
  174.1805   22.4531   48.9596 H   0  0  0  0  0  0  0  0  0  0  0  0
  174.9985   20.3347   49.9901 H   0  0  0  0  0  0  0  0  0  0  0  0
  177.4155   19.7317   49.8571 H   0  0  0  0  0  0  0  0  0  0  0  0
  177.6848   19.8987   46.9223 H   0  0  0  0  0  0  0  0  0  0  0  0
  178.5094   18.6220   44.9483 H   0  0  0  0  0  0  0  0  0  0  0  0
  181.4640   18.7880   43.4850 H   0  0  0  0  0  0  0  0  0  0  0  0
  180.0054   14.2905   45.8109 H   0  0  0  0  0  0  0  0  0  0  0  0
  180.8310   13.5040   41.1780 H   0  0  0  0  0  0  0  0  0  0  0  0
  181.4188   15.4316   39.5534 H   0  0  0  0  0  0  0  0  0  0  0  0
  181.4684   17.6537   41.0444 H   0  0  0  0  0  0  0  0  0  0  0  0
  182.5800   19.6048   46.0003 H   0  0  0  0  0  0  0  0  0  0  0  0
  181.7590   20.8825   47.9747 H   0  0  0  0  0  0  0  0  0  0  0  0
  1  2  1  0
  2  3  2  0
  3  4  1  0
  4  5  2  0
  5  6  1  0
  6  7  2  0
  7  8  1  0
  8  9  1  0
  9 10  2  0
 10 11  1  0
 11 12  2  0
 12 13  1  0
 13 14  1  0
 14 15  2  0
 15 16  1  0
 16 17  2  0
 17 18  1  0
 18 19  1  0
 19 20  1  0
 20 21  2  0
 21 22  1  0
 12 23  1  0
 23 24  2  0
  7  2  1  0
 24  9  1  0
 22 14  1  0
 22 18  2  0
  3 25  1  0
  4 26  1  0
  5 27  1  0
  6 28  1  0
 10 29  1  0
 11 30  1  0
 13 31  1  0
 16 32  1  0
 19 33  1  0
 20 34  1  0
 21 35  1  0
 23 36  1  0
 24 37  1  0
M  END
>  <meeko>  (1) 
{"is_sidechain": [false], "free_energy": -8.97, "intermolecular_energy": -11.067, "internal_energy": -0.383}

$$$$
9IV_ttbk1_out
     RDKit          3D

 37 40  0  0  0  0  0  0  0  0999 V2000
  180.8940   14.3560   45.1420 Cl  0  0  0  0  0  0  0  0  0  0  0  0
  180.9040   15.2310   43.6550 C   0  0  0  0  0  0  0  0  0  0  0  0
  180.6620   14.5350   42.4680 C   0  0  0  0  0  0  0  0  0  0  0  0
  180.6620   15.2140   41.2480 C   0  0  0  0  0  0  0  0  0  0  0  0
  180.8970   16.5890   41.2120 C   0  0  0  0  0  0  0  0  0  0  0  0
  181.1380   17.2880   42.3960 C   0  0  0  0  0  0  0  0  0  0  0  0
  181.1600   16.6060   43.6190 C   0  0  0  0  0  0  0  0  0  0  0  0
  181.3570   17.2870   44.8010 O   0  0  0  0  0  0  0  0  0  0  0  0
  180.3980   18.2050   45.1610 C   0  0  0  0  0  0  0  0  0  0  0  0
  179.1870   17.8490   45.7560 C   0  0  0  0  0  0  0  0  0  0  0  0
  178.2500   18.8380   46.0640 C   0  0  0  0  0  0  0  0  0  0  0  0
  178.5040   20.1880   45.7840 C   0  0  0  0  0  0  0  0  0  0  0  0
  177.5040   21.1340   46.0930 N   0  0  0  0  0  0  0  0  0  0  0  0
  177.2050   21.7000   47.3420 C   0  0  0  0  0  0  0  0  0  0  0  0
  177.5560   22.9990   47.5220 N   0  0  0  0  0  0  0  0  0  0  0  0
  177.2780   23.5850   48.7030 C   0  0  0  0  0  0  0  0  0  0  0  0
  176.6660   23.0510   49.7720 N   0  0  0  0  0  0  0  0  0  0  0  0
  176.3090   21.7800   49.5420 C   0  0  0  0  0  0  0  0  0  0  0  0
  175.6460   20.9870   50.4370 N   0  0  0  0  0  0  0  0  0  0  0  0
  175.4110   19.7550   49.8800 C   0  0  0  0  0  0  0  0  0  0  0  0
  175.9390   19.7650   48.6070 C   0  0  0  0  0  0  0  0  0  0  0  0
  176.5270   21.0450   48.3860 C   0  0  0  0  0  0  0  0  0  0  0  0
  179.7050   20.5220   45.1470 C   0  0  0  0  0  0  0  0  0  0  0  0
  180.6480   19.5370   44.8360 C   0  0  0  0  0  0  0  0  0  0  0  0
  180.4714   13.4520   42.4946 H   0  0  0  0  0  0  0  0  0  0  0  0
  180.4764   14.6641   40.3136 H   0  0  0  0  0  0  0  0  0  0  0  0
  180.8923   17.1224   40.2500 H   0  0  0  0  0  0  0  0  0  0  0  0
  181.3106   18.3740   42.3684 H   0  0  0  0  0  0  0  0  0  0  0  0
  178.9713   16.7942   45.9815 H   0  0  0  0  0  0  0  0  0  0  0  0
  177.2972   18.5529   46.5340 H   0  0  0  0  0  0  0  0  0  0  0  0
  176.9470   21.4330   45.3390 H   0  0  0  0  0  0  0  0  0  0  0  0
  177.5924   24.6342   48.8042 H   0  0  0  0  0  0  0  0  0  0  0  0
  175.3770   21.2580   51.3450 H   0  0  0  0  0  0  0  0  0  0  0  0
  174.8946   18.9120   50.3623 H   0  0  0  0  0  0  0  0  0  0  0  0
  175.9116   18.9326   47.8884 H   0  0  0  0  0  0  0  0  0  0  0  0
  179.9094   21.5714   44.8880 H   0  0  0  0  0  0  0  0  0  0  0  0
  181.5872   19.8137   44.3347 H   0  0  0  0  0  0  0  0  0  0  0  0
  1  2  1  0
  2  3  2  0
  3  4  1  0
  4  5  2  0
  5  6  1  0
  6  7  2  0
  7  8  1  0
  8  9  1  0
  9 10  2  0
 10 11  1  0
 11 12  2  0
 12 13  1  0
 13 14  1  0
 14 15  2  0
 15 16  1  0
 16 17  2  0
 17 18  1  0
 18 19  1  0
 19 20  1  0
 20 21  2  0
 21 22  1  0
 12 23  1  0
 23 24  2  0
  7  2  1  0
 24  9  1  0
 22 14  1  0
 22 18  2  0
  3 25  1  0
  4 26  1  0
  5 27  1  0
  6 28  1  0
 10 29  1  0
 11 30  1  0
 13 31  1  0
 16 32  1  0
 19 33  1  0
 20 34  1  0
 21 35  1  0
 23 36  1  0
 24 37  1  0
M  END
>  <meeko>  (2) 
{"is_sidechain": [false], "free_energy": -8.751, "intermolecular_energy": -10.437, "internal_energy": -0.743}

$$$$
9IV_ttbk1_out
     RDKit          3D

 37 40  0  0  0  0  0  0  0  0999 V2000
  181.2960   16.9810   40.9960 Cl  0  0  0  0  0  0  0  0  0  0  0  0
  180.9460   16.1060   42.4420 C   0  0  0  0  0  0  0  0  0  0  0  0
  180.6840   14.7370   42.3480 C   0  0  0  0  0  0  0  0  0  0  0  0
  180.3980   14.0000   43.4990 C   0  0  0  0  0  0  0  0  0  0  0  0
  180.3800   14.6270   44.7450 C   0  0  0  0  0  0  0  0  0  0  0  0
  180.6430   15.9950   44.8430 C   0  0  0  0  0  0  0  0  0  0  0  0
  180.9080   16.7410   43.6880 C   0  0  0  0  0  0  0  0  0  0  0  0
  181.2080   18.0830   43.7700 O   0  0  0  0  0  0  0  0  0  0  0  0
  180.8020   18.7460   44.9050 C   0  0  0  0  0  0  0  0  0  0  0  0
  179.5140   18.6370   45.4310 C   0  0  0  0  0  0  0  0  0  0  0  0
  179.1680   19.3680   46.5710 C   0  0  0  0  0  0  0  0  0  0  0  0
  180.0940   20.2140   47.1970 C   0  0  0  0  0  0  0  0  0  0  0  0
  179.6720   20.9460   48.3260 N   0  0  0  0  0  0  0  0  0  0  0  0
  178.6400   21.8940   48.4050 C   0  0  0  0  0  0  0  0  0  0  0  0
  178.9430   23.1580   48.0130 N   0  0  0  0  0  0  0  0  0  0  0  0
  177.9780   24.0980   48.0630 C   0  0  0  0  0  0  0  0  0  0  0  0
  176.7010   23.9580   48.4510 N   0  0  0  0  0  0  0  0  0  0  0  0
  176.4360   22.6910   48.7990 C   0  0  0  0  0  0  0  0  0  0  0  0
  175.2120   22.2400   49.2120 N   0  0  0  0  0  0  0  0  0  0  0  0
  175.2770   20.8930   49.4670 C   0  0  0  0  0  0  0  0  0  0  0  0
  176.5680   20.4810   49.2130 C   0  0  0  0  0  0  0  0  0  0  0  0
  177.3190   21.6210   48.8020 C   0  0  0  0  0  0  0  0  0  0  0  0
  181.3680   20.3440   46.6290 C   0  0  0  0  0  0  0  0  0  0  0  0
  181.7200   19.6160   45.4890 C   0  0  0  0  0  0  0  0  0  0  0  0
  180.7030   14.2396   41.3671 H   0  0  0  0  0  0  0  0  0  0  0  0
  180.1865   12.9232   43.4231 H   0  0  0  0  0  0  0  0  0  0  0  0
  180.1585   14.0435   45.6508 H   0  0  0  0  0  0  0  0  0  0  0  0
  180.6420   16.4863   45.8272 H   0  0  0  0  0  0  0  0  0  0  0  0
  178.7747   17.9790   44.9508 H   0  0  0  0  0  0  0  0  0  0  0  0
  178.1523   19.2779   46.9837 H   0  0  0  0  0  0  0  0  0  0  0  0
  180.1630   20.7710   49.1610 H   0  0  0  0  0  0  0  0  0  0  0  0
  178.2751   25.1083   47.7453 H   0  0  0  0  0  0  0  0  0  0  0  0
  174.4070   22.7970   49.3120 H   0  0  0  0  0  0  0  0  0  0  0  0
  174.4485   20.2568   49.8118 H   0  0  0  0  0  0  0  0  0  0  0  0
  176.9508   19.4544   49.3103 H   0  0  0  0  0  0  0  0  0  0  0  0
  182.0997   21.0269   47.0855 H   0  0  0  0  0  0  0  0  0  0  0  0
  182.7232   19.7302   45.0524 H   0  0  0  0  0  0  0  0  0  0  0  0
  1  2  1  0
  2  3  2  0
  3  4  1  0
  4  5  2  0
  5  6  1  0
  6  7  2  0
  7  8  1  0
  8  9  1  0
  9 10  2  0
 10 11  1  0
 11 12  2  0
 12 13  1  0
 13 14  1  0
 14 15  2  0
 15 16  1  0
 16 17  2  0
 17 18  1  0
 18 19  1  0
 19 20  1  0
 20 21  2  0
 21 22  1  0
 12 23  1  0
 23 24  2  0
  7  2  1  0
 24  9  1  0
 22 14  1  0
 22 18  2  0
  3 25  1  0
  4 26  1  0
  5 27  1  0
  6 28  1  0
 10 29  1  0
 11 30  1  0
 13 31  1  0
 16 32  1  0
 19 33  1  0
 20 34  1  0
 21 35  1  0
 23 36  1  0
 24 37  1  0
M  END
>  <meeko>  (3) 
{"is_sidechain": [false], "free_energy": -8.63, "intermolecular_energy": -10.728, "internal_energy": -0.303}

$$$$
9IV_ttbk1_out
     RDKit          3D

 37 40  0  0  0  0  0  0  0  0999 V2000
  181.1140   14.3870   45.0040 Cl  0  0  0  0  0  0  0  0  0  0  0  0
  181.0040   15.2360   43.5060 C   0  0  0  0  0  0  0  0  0  0  0  0
  180.6040   14.5330   42.3670 C   0  0  0  0  0  0  0  0  0  0  0  0
  180.5040   15.1910   41.1390 C   0  0  0  0  0  0  0  0  0  0  0  0
  180.7960   16.5520   41.0490 C   0  0  0  0  0  0  0  0  0  0  0  0
  181.1960   17.2580   42.1850 C   0  0  0  0  0  0  0  0  0  0  0  0
  181.3180   16.5960   43.4130 C   0  0  0  0  0  0  0  0  0  0  0  0
  181.6730   17.2850   44.5520 O   0  0  0  0  0  0  0  0  0  0  0  0
  180.7990   18.2500   44.9960 C   0  0  0  0  0  0  0  0  0  0  0  0
  181.1180   19.6080   45.0330 C   0  0  0  0  0  0  0  0  0  0  0  0
  180.1870   20.5250   45.5280 C   0  0  0  0  0  0  0  0  0  0  0  0
  178.9330   20.1040   45.9920 C   0  0  0  0  0  0  0  0  0  0  0  0
  178.0510   21.0760   46.5070 N   0  0  0  0  0  0  0  0  0  0  0  0
  177.1000   20.9270   47.5290 C   0  0  0  0  0  0  0  0  0  0  0  0
  176.7060   19.6600   47.8130 N   0  0  0  0  0  0  0  0  0  0  0  0
  175.8020   19.4690   48.7950 C   0  0  0  0  0  0  0  0  0  0  0  0
  175.2180   20.3910   49.5770 N   0  0  0  0  0  0  0  0  0  0  0  0
  175.6580   21.6240   49.2850 C   0  0  0  0  0  0  0  0  0  0  0  0
  175.2620   22.7620   49.9320 N   0  0  0  0  0  0  0  0  0  0  0  0
  175.9190   23.8460   49.4080 C   0  0  0  0  0  0  0  0  0  0  0  0
  176.7470   23.3870   48.4050 C   0  0  0  0  0  0  0  0  0  0  0  0
  176.5770   21.9750   48.3080 C   0  0  0  0  0  0  0  0  0  0  0  0
  178.6470   18.7330   45.9890 C   0  0  0  0  0  0  0  0  0  0  0  0
  179.5740   17.8100   45.4950 C   0  0  0  0  0  0  0  0  0  0  0  0
  180.3677   13.4610   42.4372 H   0  0  0  0  0  0  0  0  0  0  0  0
  180.1945   14.6351   40.2416 H   0  0  0  0  0  0  0  0  0  0  0  0
  180.7110   17.0695   40.0820 H   0  0  0  0  0  0  0  0  0  0  0  0
  181.4152   18.3337   42.1156 H   0  0  0  0  0  0  0  0  0  0  0  0
  182.0981   19.9551   44.6741 H   0  0  0  0  0  0  0  0  0  0  0  0
  180.4423   21.5946   45.5540 H   0  0  0  0  0  0  0  0  0  0  0  0
  178.1080   21.9700   46.0980 H   0  0  0  0  0  0  0  0  0  0  0  0
  175.5054   18.4258   48.9787 H   0  0  0  0  0  0  0  0  0  0  0  0
  174.6040   22.7980   50.6630 H   0  0  0  0  0  0  0  0  0  0  0  0
  175.8060   24.8919   49.7295 H   0  0  0  0  0  0  0  0  0  0  0  0
  177.4196   24.0018   47.7889 H   0  0  0  0  0  0  0  0  0  0  0  0
  177.6819   18.3781   46.3798 H   0  0  0  0  0  0  0  0  0  0  0  0
  179.3364   16.7360   45.5002 H   0  0  0  0  0  0  0  0  0  0  0  0
  1  2  1  0
  2  3  2  0
  3  4  1  0
  4  5  2  0
  5  6  1  0
  6  7  2  0
  7  8  1  0
  8  9  1  0
  9 10  2  0
 10 11  1  0
 11 12  2  0
 12 13  1  0
 13 14  1  0
 14 15  2  0
 15 16  1  0
 16 17  2  0
 17 18  1  0
 18 19  1  0
 19 20  1  0
 20 21  2  0
 21 22  1  0
 12 23  1  0
 23 24  2  0
  7  2  1  0
 24  9  1  0
 22 14  1  0
 22 18  2  0
  3 25  1  0
  4 26  1  0
  5 27  1  0
  6 28  1  0
 10 29  1  0
 11 30  1  0
 13 31  1  0
 16 32  1  0
 19 33  1  0
 20 34  1  0
 21 35  1  0
 23 36  1  0
 24 37  1  0
M  END
>  <meeko>  (4) 
{"is_sidechain": [false], "free_energy": -8.464, "intermolecular_energy": -10.672, "internal_energy": -0.154}

$$$$
9IV_ttbk1_out
     RDKit          3D

 37 40  0  0  0  0  0  0  0  0999 V2000
  181.2790   17.3100   41.0390 Cl  0  0  0  0  0  0  0  0  0  0  0  0
  181.0240   16.2020   42.3370 C   0  0  0  0  0  0  0  0  0  0  0  0
  180.5620   14.9180   42.0380 C   0  0  0  0  0  0  0  0  0  0  0  0
  180.3470   13.9960   43.0650 C   0  0  0  0  0  0  0  0  0  0  0  0
  180.5980   14.3540   44.3890 C   0  0  0  0  0  0  0  0  0  0  0  0
  181.0600   15.6360   44.6920 C   0  0  0  0  0  0  0  0  0  0  0  0
  181.2570   16.5690   43.6660 C   0  0  0  0  0  0  0  0  0  0  0  0
  181.7500   17.8250   43.9430 O   0  0  0  0  0  0  0  0  0  0  0  0
  181.0500   18.5860   44.8510 C   0  0  0  0  0  0  0  0  0  0  0  0
  181.5830   19.7200   45.4660 C   0  0  0  0  0  0  0  0  0  0  0  0
  180.8210   20.4220   46.4030 C   0  0  0  0  0  0  0  0  0  0  0  0
  179.5250   20.0060   46.7390 C   0  0  0  0  0  0  0  0  0  0  0  0
  178.8190   20.7410   47.7140 N   0  0  0  0  0  0  0  0  0  0  0  0
  177.4410   20.7290   47.9770 C   0  0  0  0  0  0  0  0  0  0  0  0
  176.8010   19.5430   47.8160 N   0  0  0  0  0  0  0  0  0  0  0  0
  175.4780   19.4830   48.0670 C   0  0  0  0  0  0  0  0  0  0  0  0
  174.6660   20.4670   48.4850 N   0  0  0  0  0  0  0  0  0  0  0  0
  175.3430   21.6120   48.6630 C   0  0  0  0  0  0  0  0  0  0  0  0
  174.7880   22.7790   49.1080 N   0  0  0  0  0  0  0  0  0  0  0  0
  175.7560   23.7460   49.2020 C   0  0  0  0  0  0  0  0  0  0  0  0
  176.9500   23.1820   48.8040 C   0  0  0  0  0  0  0  0  0  0  0  0
  176.6950   21.8270   48.4450 C   0  0  0  0  0  0  0  0  0  0  0  0
  179.0240   18.8410   46.1450 C   0  0  0  0  0  0  0  0  0  0  0  0
  179.7810   18.1340   45.2070 C   0  0  0  0  0  0  0  0  0  0  0  0
  180.3675   14.6330   40.9935 H   0  0  0  0  0  0  0  0  0  0  0  0
  179.9793   12.9865   42.8290 H   0  0  0  0  0  0  0  0  0  0  0  0
  180.4317   13.6252   45.1959 H   0  0  0  0  0  0  0  0  0  0  0  0
  181.2692   15.9133   45.7357 H   0  0  0  0  0  0  0  0  0  0  0  0
  182.5985   20.0594   45.2140 H   0  0  0  0  0  0  0  0  0  0  0  0
  181.2446   21.3155   46.8849 H   0  0  0  0  0  0  0  0  0  0  0  0
  179.3610   21.3380   48.2800 H   0  0  0  0  0  0  0  0  0  0  0  0
  175.0034   18.5033   47.9093 H   0  0  0  0  0  0  0  0  0  0  0  0
  173.8370   22.9070   49.3280 H   0  0  0  0  0  0  0  0  0  0  0  0
  175.6070   24.7838   49.5347 H   0  0  0  0  0  0  0  0  0  0  0  0
  177.9259   23.6884   48.7698 H   0  0  0  0  0  0  0  0  0  0  0  0
  178.0227   18.4781   46.4201 H   0  0  0  0  0  0  0  0  0  0  0  0
  179.3748   17.2199   44.7493 H   0  0  0  0  0  0  0  0  0  0  0  0
  1  2  1  0
  2  3  2  0
  3  4  1  0
  4  5  2  0
  5  6  1  0
  6  7  2  0
  7  8  1  0
  8  9  1  0
  9 10  2  0
 10 11  1  0
 11 12  2  0
 12 13  1  0
 13 14  1  0
 14 15  2  0
 15 16  1  0
 16 17  2  0
 17 18  1  0
 18 19  1  0
 19 20  1  0
 20 21  2  0
 21 22  1  0
 12 23  1  0
 23 24  2  0
  7  2  1  0
 24  9  1  0
 22 14  1  0
 22 18  2  0
  3 25  1  0
  4 26  1  0
  5 27  1  0
  6 28  1  0
 10 29  1  0
 11 30  1  0
 13 31  1  0
 16 32  1  0
 19 33  1  0
 20 34  1  0
 21 35  1  0
 23 36  1  0
 24 37  1  0
M  END
>  <meeko>  (5) 
{"is_sidechain": [false], "free_energy": -7.773, "intermolecular_energy": -10.422, "internal_energy": 0.449}

$$$$
9IV_ttbk1_out
     RDKit          3D

 37 40  0  0  0  0  0  0  0  0999 V2000
  175.9270   19.2650   48.8210 Cl  0  0  0  0  0  0  0  0  0  0  0  0
  176.3390   20.9160   48.5390 C   0  0  0  0  0  0  0  0  0  0  0  0
  175.6200   21.9090   49.2100 C   0  0  0  0  0  0  0  0  0  0  0  0
  175.9290   23.2550   49.0040 C   0  0  0  0  0  0  0  0  0  0  0  0
  176.9600   23.6110   48.1340 C   0  0  0  0  0  0  0  0  0  0  0  0
  177.6810   22.6230   47.4620 C   0  0  0  0  0  0  0  0  0  0  0  0
  177.3590   21.2730   47.6500 C   0  0  0  0  0  0  0  0  0  0  0  0
  178.0860   20.2830   47.0260 O   0  0  0  0  0  0  0  0  0  0  0  0
  179.3920   20.5730   46.7060 C   0  0  0  0  0  0  0  0  0  0  0  0
  179.9190   20.4010   45.4250 C   0  0  0  0  0  0  0  0  0  0  0  0
  181.2650   20.6890   45.1860 C   0  0  0  0  0  0  0  0  0  0  0  0
  182.1000   21.1480   46.2140 C   0  0  0  0  0  0  0  0  0  0  0  0
  183.4570   21.3910   45.9140 N   0  0  0  0  0  0  0  0  0  0  0  0
  184.0490   22.5960   45.5030 C   0  0  0  0  0  0  0  0  0  0  0  0
  183.6960   23.7130   46.1890 N   0  0  0  0  0  0  0  0  0  0  0  0
  184.2480   24.8900   45.8340 C   0  0  0  0  0  0  0  0  0  0  0  0
  185.1470   25.1280   44.8650 N   0  0  0  0  0  0  0  0  0  0  0  0
  185.4910   23.9960   44.2350 C   0  0  0  0  0  0  0  0  0  0  0  0
  186.4050   23.9210   43.2200 N   0  0  0  0  0  0  0  0  0  0  0  0
  186.5430   22.6180   42.8160 C   0  0  0  0  0  0  0  0  0  0  0  0
  185.6970   21.8490   43.5870 C   0  0  0  0  0  0  0  0  0  0  0  0
  185.0100   22.7190   44.4840 C   0  0  0  0  0  0  0  0  0  0  0  0
  181.5650   21.2720   47.5020 C   0  0  0  0  0  0  0  0  0  0  0  0
  180.2190   20.9860   47.7480 C   0  0  0  0  0  0  0  0  0  0  0  0
  174.8105   21.6301   49.9006 H   0  0  0  0  0  0  0  0  0  0  0  0
  175.3587   24.0359   49.5284 H   0  0  0  0  0  0  0  0  0  0  0  0
  177.2049   24.6719   47.9775 H   0  0  0  0  0  0  0  0  0  0  0  0
  178.5014   22.9043   46.7853 H   0  0  0  0  0  0  0  0  0  0  0  0
  179.2775   20.0404   44.6074 H   0  0  0  0  0  0  0  0  0  0  0  0
  181.6761   20.5534   44.1748 H   0  0  0  0  0  0  0  0  0  0  0  0
  184.0630   20.6210   46.0030 H   0  0  0  0  0  0  0  0  0  0  0  0
  183.9207   25.7673   46.4112 H   0  0  0  0  0  0  0  0  0  0  0  0
  186.8910   24.6870   42.8380 H   0  0  0  0  0  0  0  0  0  0  0  0
  187.2086   22.2521   42.0203 H   0  0  0  0  0  0  0  0  0  0  0  0
  185.5739   20.7579   43.5217 H   0  0  0  0  0  0  0  0  0  0  0  0
  182.2115   21.5983   48.3300 H   0  0  0  0  0  0  0  0  0  0  0  0
  179.8126   21.0872   48.7652 H   0  0  0  0  0  0  0  0  0  0  0  0
  1  2  1  0
  2  3  2  0
  3  4  1  0
  4  5  2  0
  5  6  1  0
  6  7  2  0
  7  8  1  0
  8  9  1  0
  9 10  2  0
 10 11  1  0
 11 12  2  0
 12 13  1  0
 13 14  1  0
 14 15  2  0
 15 16  1  0
 16 17  2  0
 17 18  1  0
 18 19  1  0
 19 20  1  0
 20 21  2  0
 21 22  1  0
 12 23  1  0
 23 24  2  0
  7  2  1  0
 24  9  1  0
 22 14  1  0
 22 18  2  0
  3 25  1  0
  4 26  1  0
  5 27  1  0
  6 28  1  0
 10 29  1  0
 11 30  1  0
 13 31  1  0
 16 32  1  0
 19 33  1  0
 20 34  1  0
 21 35  1  0
 23 36  1  0
 24 37  1  0
M  END
>  <meeko>  (6) 
{"is_sidechain": [false], "free_energy": -7.417, "intermolecular_energy": -9.174, "internal_energy": -0.361}

$$$$
9IV_ttbk1_out
     RDKit          3D

 37 40  0  0  0  0  0  0  0  0999 V2000
  175.9590   19.4000   48.8340 Cl  0  0  0  0  0  0  0  0  0  0  0  0
  176.3900   21.0490   48.5660 C   0  0  0  0  0  0  0  0  0  0  0  0
  175.6730   22.0450   49.2350 C   0  0  0  0  0  0  0  0  0  0  0  0
  175.9970   23.3890   49.0410 C   0  0  0  0  0  0  0  0  0  0  0  0
  177.0410   23.7400   48.1840 C   0  0  0  0  0  0  0  0  0  0  0  0
  177.7600   22.7480   47.5150 C   0  0  0  0  0  0  0  0  0  0  0  0
  177.4230   21.4010   47.6910 C   0  0  0  0  0  0  0  0  0  0  0  0
  178.1470   20.4070   47.0690 O   0  0  0  0  0  0  0  0  0  0  0  0
  179.4530   20.6950   46.7450 C   0  0  0  0  0  0  0  0  0  0  0  0
  180.0200   20.3750   45.5100 C   0  0  0  0  0  0  0  0  0  0  0  0
  181.3630   20.6710   45.2680 C   0  0  0  0  0  0  0  0  0  0  0  0
  182.1570   21.2860   46.2470 C   0  0  0  0  0  0  0  0  0  0  0  0
  183.5130   21.5310   45.9490 N   0  0  0  0  0  0  0  0  0  0  0  0
  184.0760   22.6720   45.3550 C   0  0  0  0  0  0  0  0  0  0  0  0
  184.0020   22.7530   44.0020 N   0  0  0  0  0  0  0  0  0  0  0  0
  184.5210   23.8370   43.3910 C   0  0  0  0  0  0  0  0  0  0  0  0
  185.1150   24.9020   43.9520 N   0  0  0  0  0  0  0  0  0  0  0  0
  185.1390   24.7970   45.2880 C   0  0  0  0  0  0  0  0  0  0  0  0
  185.6580   25.7410   46.1310 N   0  0  0  0  0  0  0  0  0  0  0  0
  185.5010   25.3360   47.4320 C   0  0  0  0  0  0  0  0  0  0  0  0
  184.8720   24.1090   47.4150 C   0  0  0  0  0  0  0  0  0  0  0  0
  184.6510   23.7490   46.0540 C   0  0  0  0  0  0  0  0  0  0  0  0
  181.5830   21.5590   47.4940 C   0  0  0  0  0  0  0  0  0  0  0  0
  180.2400   21.2650   47.7440 C   0  0  0  0  0  0  0  0  0  0  0  0
  174.8531   21.7697   49.9147 H   0  0  0  0  0  0  0  0  0  0  0  0
  175.4288   24.1722   49.5642 H   0  0  0  0  0  0  0  0  0  0  0  0
  177.2975   24.7993   48.0355 H   0  0  0  0  0  0  0  0  0  0  0  0
  178.5911   23.0248   46.8497 H   0  0  0  0  0  0  0  0  0  0  0  0
  179.4116   19.8919   44.7312 H   0  0  0  0  0  0  0  0  0  0  0  0
  181.8056   20.4176   44.2934 H   0  0  0  0  0  0  0  0  0  0  0  0
  184.1440   20.8130   46.1860 H   0  0  0  0  0  0  0  0  0  0  0  0
  184.4484   23.8504   42.2935 H   0  0  0  0  0  0  0  0  0  0  0  0
  186.0810   26.5830   45.8470 H   0  0  0  0  0  0  0  0  0  0  0  0
  185.8194   25.8900   48.3274 H   0  0  0  0  0  0  0  0  0  0  0  0
  184.5906   23.5135   48.2960 H   0  0  0  0  0  0  0  0  0  0  0  0
  182.1968   22.0107   48.2872 H   0  0  0  0  0  0  0  0  0  0  0  0
  179.8037   21.4836   48.7298 H   0  0  0  0  0  0  0  0  0  0  0  0
  1  2  1  0
  2  3  2  0
  3  4  1  0
  4  5  2  0
  5  6  1  0
  6  7  2  0
  7  8  1  0
  8  9  1  0
  9 10  2  0
 10 11  1  0
 11 12  2  0
 12 13  1  0
 13 14  1  0
 14 15  2  0
 15 16  1  0
 16 17  2  0
 17 18  1  0
 18 19  1  0
 19 20  1  0
 20 21  2  0
 21 22  1  0
 12 23  1  0
 23 24  2  0
  7  2  1  0
 24  9  1  0
 22 14  1  0
 22 18  2  0
  3 25  1  0
  4 26  1  0
  5 27  1  0
  6 28  1  0
 10 29  1  0
 11 30  1  0
 13 31  1  0
 16 32  1  0
 19 33  1  0
 20 34  1  0
 21 35  1  0
 23 36  1  0
 24 37  1  0
M  END
>  <meeko>  (7) 
{"is_sidechain": [false], "free_energy": -7.252, "intermolecular_energy": -9.035, "internal_energy": -0.295}

$$$$
9IV_ttbk1_out
     RDKit          3D

 37 40  0  0  0  0  0  0  0  0999 V2000
  177.0810   23.4020   47.3640 Cl  0  0  0  0  0  0  0  0  0  0  0  0
  176.6060   21.8360   47.9110 C   0  0  0  0  0  0  0  0  0  0  0  0
  175.8230   21.7400   49.0640 C   0  0  0  0  0  0  0  0  0  0  0  0
  175.4210   20.4880   49.5340 C   0  0  0  0  0  0  0  0  0  0  0  0
  175.7940   19.3320   48.8490 C   0  0  0  0  0  0  0  0  0  0  0  0
  176.5760   19.4230   47.6960 C   0  0  0  0  0  0  0  0  0  0  0  0
  176.9990   20.6760   47.2360 C   0  0  0  0  0  0  0  0  0  0  0  0
  177.7380   20.7880   46.0780 O   0  0  0  0  0  0  0  0  0  0  0  0
  179.0930   20.9810   46.2170 C   0  0  0  0  0  0  0  0  0  0  0  0
  179.6510   21.7740   47.2200 C   0  0  0  0  0  0  0  0  0  0  0  0
  181.0360   21.9460   47.2760 C   0  0  0  0  0  0  0  0  0  0  0  0
  181.8800   21.3350   46.3370 C   0  0  0  0  0  0  0  0  0  0  0  0
  183.2670   21.5740   46.4320 N   0  0  0  0  0  0  0  0  0  0  0  0
  183.9450   22.7960   46.2990 C   0  0  0  0  0  0  0  0  0  0  0  0
  184.2280   23.4630   47.4460 N   0  0  0  0  0  0  0  0  0  0  0  0
  184.8870   24.6360   47.3660 C   0  0  0  0  0  0  0  0  0  0  0  0
  185.3370   25.2620   46.2670 N   0  0  0  0  0  0  0  0  0  0  0  0
  185.0660   24.5550   45.1600 C   0  0  0  0  0  0  0  0  0  0  0  0
  185.4250   24.9290   43.8950 N   0  0  0  0  0  0  0  0  0  0  0  0
  185.0190   23.9740   42.9970 C   0  0  0  0  0  0  0  0  0  0  0  0
  184.3870   22.9750   43.7070 C   0  0  0  0  0  0  0  0  0  0  0  0
  184.3980   23.3430   45.0850 C   0  0  0  0  0  0  0  0  0  0  0  0
  181.2990   20.5800   45.3120 C   0  0  0  0  0  0  0  0  0  0  0  0
  179.9140   20.4030   45.2500 C   0  0  0  0  0  0  0  0  0  0  0  0
  175.5229   22.6513   49.6020 H   0  0  0  0  0  0  0  0  0  0  0  0
  174.8096   20.4136   50.4454 H   0  0  0  0  0  0  0  0  0  0  0  0
  175.4716   18.3470   49.2176 H   0  0  0  0  0  0  0  0  0  0  0  0
  176.8595   18.5114   47.1496 H   0  0  0  0  0  0  0  0  0  0  0  0
  179.0032   22.2616   47.9634 H   0  0  0  0  0  0  0  0  0  0  0  0
  181.4719   22.5708   48.0694 H   0  0  0  0  0  0  0  0  0  0  0  0
  183.8280   20.7860   46.6130 H   0  0  0  0  0  0  0  0  0  0  0  0
  185.0805   25.1446   48.3220 H   0  0  0  0  0  0  0  0  0  0  0  0
  185.9010   25.7580   43.6620 H   0  0  0  0  0  0  0  0  0  0  0  0
  185.1703   24.0006   41.9078 H   0  0  0  0  0  0  0  0  0  0  0  0
  183.9516   22.0570   43.2854 H   0  0  0  0  0  0  0  0  0  0  0  0
  181.9402   20.1202   44.5456 H   0  0  0  0  0  0  0  0  0  0  0  0
  179.4716   19.8074   44.4379 H   0  0  0  0  0  0  0  0  0  0  0  0
  1  2  1  0
  2  3  2  0
  3  4  1  0
  4  5  2  0
  5  6  1  0
  6  7  2  0
  7  8  1  0
  8  9  1  0
  9 10  2  0
 10 11  1  0
 11 12  2  0
 12 13  1  0
 13 14  1  0
 14 15  2  0
 15 16  1  0
 16 17  2  0
 17 18  1  0
 18 19  1  0
 19 20  1  0
 20 21  2  0
 21 22  1  0
 12 23  1  0
 23 24  2  0
  7  2  1  0
 24  9  1  0
 22 14  1  0
 22 18  2  0
  3 25  1  0
  4 26  1  0
  5 27  1  0
  6 28  1  0
 10 29  1  0
 11 30  1  0
 13 31  1  0
 16 32  1  0
 19 33  1  0
 20 34  1  0
 21 35  1  0
 23 36  1  0
 24 37  1  0
M  END
>  <meeko>  (8) 
{"is_sidechain": [false], "free_energy": -7.246, "intermolecular_energy": -9.213, "internal_energy": -0.11}

$$$$
9IV_ttbk1_out
     RDKit          3D

 37 40  0  0  0  0  0  0  0  0999 V2000
  184.8250   24.1440   48.0350 Cl  0  0  0  0  0  0  0  0  0  0  0  0
  184.6900   23.9840   46.3220 C   0  0  0  0  0  0  0  0  0  0  0  0
  185.1950   25.0050   45.5130 C   0  0  0  0  0  0  0  0  0  0  0  0
  185.1030   24.9050   44.1230 C   0  0  0  0  0  0  0  0  0  0  0  0
  184.5130   23.7840   43.5400 C   0  0  0  0  0  0  0  0  0  0  0  0
  184.0070   22.7610   44.3450 C   0  0  0  0  0  0  0  0  0  0  0  0
  184.0790   22.8690   45.7390 C   0  0  0  0  0  0  0  0  0  0  0  0
  183.6210   21.8510   46.5480 O   0  0  0  0  0  0  0  0  0  0  0  0
  182.2860   21.5330   46.4560 C   0  0  0  0  0  0  0  0  0  0  0  0
  181.7700   20.6830   45.4770 C   0  0  0  0  0  0  0  0  0  0  0  0
  180.3970   20.4330   45.4310 C   0  0  0  0  0  0  0  0  0  0  0  0
  179.5220   21.0230   46.3540 C   0  0  0  0  0  0  0  0  0  0  0  0
  178.1430   20.7530   46.2340 N   0  0  0  0  0  0  0  0  0  0  0  0
  177.1860   20.6700   47.2570 C   0  0  0  0  0  0  0  0  0  0  0  0
  176.7320   19.4280   47.5660 N   0  0  0  0  0  0  0  0  0  0  0  0
  175.8200   19.3000   48.5500 C   0  0  0  0  0  0  0  0  0  0  0  0
  175.2790   20.2640   49.3120 N   0  0  0  0  0  0  0  0  0  0  0  0
  175.7770   21.4690   48.9960 C   0  0  0  0  0  0  0  0  0  0  0  0
  175.4340   22.6370   49.6200 N   0  0  0  0  0  0  0  0  0  0  0  0
  176.1420   23.6780   49.0750 C   0  0  0  0  0  0  0  0  0  0  0  0
  176.9480   23.1610   48.0820 C   0  0  0  0  0  0  0  0  0  0  0  0
  176.7120   21.7570   48.0140 C   0  0  0  0  0  0  0  0  0  0  0  0
  180.0510   21.9080   47.3010 C   0  0  0  0  0  0  0  0  0  0  0  0
  181.4250   22.1630   47.3530 C   0  0  0  0  0  0  0  0  0  0  0  0
  185.6652   25.8878   45.9709 H   0  0  0  0  0  0  0  0  0  0  0  0
  185.4965   25.7117   43.4871 H   0  0  0  0  0  0  0  0  0  0  0  0
  184.4461   23.7054   42.4449 H   0  0  0  0  0  0  0  0  0  0  0  0
  183.5525   21.8715   43.8843 H   0  0  0  0  0  0  0  0  0  0  0  0
  182.4420   20.2119   44.7446 H   0  0  0  0  0  0  0  0  0  0  0  0
  179.9952   19.7619   44.6576 H   0  0  0  0  0  0  0  0  0  0  0  0
  177.8110   20.6040   45.3190 H   0  0  0  0  0  0  0  0  0  0  0  0
  175.4751   18.2757   48.7548 H   0  0  0  0  0  0  0  0  0  0  0  0
  174.7790   22.7190   50.3490 H   0  0  0  0  0  0  0  0  0  0  0  0
  176.0785   24.7342   49.3755 H   0  0  0  0  0  0  0  0  0  0  0  0
  177.6485   23.7311   47.4541 H   0  0  0  0  0  0  0  0  0  0  0  0
  179.3779   22.4087   48.0126 H   0  0  0  0  0  0  0  0  0  0  0  0
  181.8265   22.8612   48.1022 H   0  0  0  0  0  0  0  0  0  0  0  0
  1  2  1  0
  2  3  2  0
  3  4  1  0
  4  5  2  0
  5  6  1  0
  6  7  2  0
  7  8  1  0
  8  9  1  0
  9 10  2  0
 10 11  1  0
 11 12  2  0
 12 13  1  0
 13 14  1  0
 14 15  2  0
 15 16  1  0
 16 17  2  0
 17 18  1  0
 18 19  1  0
 19 20  1  0
 20 21  2  0
 21 22  1  0
 12 23  1  0
 23 24  2  0
  7  2  1  0
 24  9  1  0
 22 14  1  0
 22 18  2  0
  3 25  1  0
  4 26  1  0
  5 27  1  0
  6 28  1  0
 10 29  1  0
 11 30  1  0
 13 31  1  0
 16 32  1  0
 19 33  1  0
 20 34  1  0
 21 35  1  0
 23 36  1  0
 24 37  1  0
M  END
>  <meeko>  (9) 
{"is_sidechain": [false], "free_energy": -7.136, "intermolecular_energy": -8.716, "internal_energy": -0.471}

$$$$
