kaempferol_out
     RDKit          3D

 31 33  0  0  0  0  0  0  0  0999 V2000
  180.5600   21.7170   48.0450 O   0  0  0  0  0  0  0  0  0  0  0  0
  179.8800   20.8420   47.5120 C   0  0  0  0  0  0  0  0  0  0  0  0
  180.5090   19.8330   46.6300 C   0  0  0  0  0  0  0  0  0  0  0  0
  181.8780   19.9180   46.4530 O   0  0  0  0  0  0  0  0  0  0  0  0
  179.7270   18.8920   46.0700 C   0  0  0  0  0  0  0  0  0  0  0  0
  180.2440   17.8260   45.1840 C   0  0  0  0  0  0  0  0  0  0  0  0
  181.1430   18.1030   44.1420 C   0  0  0  0  0  0  0  0  0  0  0  0
  181.6020   17.0850   43.3010 C   0  0  0  0  0  0  0  0  0  0  0  0
  181.1560   15.7830   43.4960 C   0  0  0  0  0  0  0  0  0  0  0  0
  181.5780   14.7600   42.7010 O   0  0  0  0  0  0  0  0  0  0  0  0
  180.2590   15.4860   44.5130 C   0  0  0  0  0  0  0  0  0  0  0  0
  179.8020   16.5040   45.3530 C   0  0  0  0  0  0  0  0  0  0  0  0
  178.3540   18.8020   46.2770 O   0  0  0  0  0  0  0  0  0  0  0  0
  177.7420   19.7270   47.0840 C   0  0  0  0  0  0  0  0  0  0  0  0
  176.3630   19.6070   47.2560 C   0  0  0  0  0  0  0  0  0  0  0  0
  175.6910   20.5180   48.0650 C   0  0  0  0  0  0  0  0  0  0  0  0
  174.3440   20.3650   48.2070 O   0  0  0  0  0  0  0  0  0  0  0  0
  176.3730   21.5490   48.7070 C   0  0  0  0  0  0  0  0  0  0  0  0
  177.7500   21.6650   48.5310 C   0  0  0  0  0  0  0  0  0  0  0  0
  178.3690   22.6960   49.1850 O   0  0  0  0  0  0  0  0  0  0  0  0
  178.4340   20.7530   47.7200 C   0  0  0  0  0  0  0  0  0  0  0  0
  182.3820   19.1380   46.3270 H   0  0  0  0  0  0  0  0  0  0  0  0
  181.4909   19.1347   43.9852 H   0  0  0  0  0  0  0  0  0  0  0  0
  182.3107   17.3126   42.4911 H   0  0  0  0  0  0  0  0  0  0  0  0
  182.4740   14.7150   42.4300 H   0  0  0  0  0  0  0  0  0  0  0  0
  179.9095   14.4529   44.6567 H   0  0  0  0  0  0  0  0  0  0  0  0
  179.0880   16.2675   46.1557 H   0  0  0  0  0  0  0  0  0  0  0  0
  175.8107   18.7979   46.7556 H   0  0  0  0  0  0  0  0  0  0  0  0
  173.8460   21.0100   48.6680 H   0  0  0  0  0  0  0  0  0  0  0  0
  175.8310   22.2626   49.3450 H   0  0  0  0  0  0  0  0  0  0  0  0
  178.8730   23.3210   48.7020 H   0  0  0  0  0  0  0  0  0  0  0  0
  1  2  2  0
  2  3  1  0
  3  4  1  0
  3  5  2  0
  5  6  1  0
  6  7  2  0
  7  8  1  0
  8  9  2  0
  9 10  1  0
  9 11  1  0
 11 12  2  0
  5 13  1  0
 13 14  1  0
 14 15  2  0
 15 16  1  0
 16 17  1  0
 16 18  2  0
 18 19  1  0
 19 20  1  0
 19 21  2  0
 21  2  1  0
 12  6  1  0
 21 14  1  0
  4 22  1  0
  7 23  1  0
  8 24  1  0
 10 25  1  0
 11 26  1  0
 12 27  1  0
 15 28  1  0
 17 29  1  0
 18 30  1  0
 20 31  1  0
M  END
>  <meeko>  (1) 
{"is_sidechain": [false], "free_energy": -7.749, "intermolecular_energy": -9.108, "internal_energy": -0.01}

$$$$
kaempferol_out
     RDKit          3D

 31 33  0  0  0  0  0  0  0  0999 V2000
  179.3820   23.6440   49.1810 O   0  0  0  0  0  0  0  0  0  0  0  0
  178.9670   22.7010   48.5110 C   0  0  0  0  0  0  0  0  0  0  0  0
  179.8970   21.8940   47.6890 C   0  0  0  0  0  0  0  0  0  0  0  0
  181.2340   22.2440   47.7260 O   0  0  0  0  0  0  0  0  0  0  0  0
  179.3990   20.8690   46.9730 C   0  0  0  0  0  0  0  0  0  0  0  0
  180.2330   19.9870   46.1280 C   0  0  0  0  0  0  0  0  0  0  0  0
  181.4830   20.3980   45.6390 C   0  0  0  0  0  0  0  0  0  0  0  0
  182.2460   19.5570   44.8220 C   0  0  0  0  0  0  0  0  0  0  0  0
  181.7540   18.3020   44.4830 C   0  0  0  0  0  0  0  0  0  0  0  0
  182.4640   17.4510   43.6910 O   0  0  0  0  0  0  0  0  0  0  0  0
  180.5170   17.8770   44.9460 C   0  0  0  0  0  0  0  0  0  0  0  0
  179.7560   18.7170   45.7630 C   0  0  0  0  0  0  0  0  0  0  0  0
  178.0550   20.5110   46.9650 O   0  0  0  0  0  0  0  0  0  0  0  0
  177.1670   21.2430   47.7110 C   0  0  0  0  0  0  0  0  0  0  0  0
  175.8290   20.8570   47.6660 C   0  0  0  0  0  0  0  0  0  0  0  0
  174.8850   21.5650   48.4050 C   0  0  0  0  0  0  0  0  0  0  0  0
  173.5870   21.1540   48.3330 O   0  0  0  0  0  0  0  0  0  0  0  0
  175.2570   22.6540   49.1900 C   0  0  0  0  0  0  0  0  0  0  0  0
  176.5950   23.0350   49.2310 C   0  0  0  0  0  0  0  0  0  0  0  0
  176.9050   24.1110   50.0180 O   0  0  0  0  0  0  0  0  0  0  0  0
  177.5510   22.3300   48.4920 C   0  0  0  0  0  0  0  0  0  0  0  0
  181.8400   21.7270   48.2190 H   0  0  0  0  0  0  0  0  0  0  0  0
  181.8676   21.3945   45.9017 H   0  0  0  0  0  0  0  0  0  0  0  0
  183.2277   19.8863   44.4507 H   0  0  0  0  0  0  0  0  0  0  0  0
  182.1270   16.5970   43.4990 H   0  0  0  0  0  0  0  0  0  0  0  0
  180.1367   16.8822   44.6708 H   0  0  0  0  0  0  0  0  0  0  0  0
  178.7730   18.3804   46.1242 H   0  0  0  0  0  0  0  0  0  0  0  0
  175.5206   19.9988   47.0509 H   0  0  0  0  0  0  0  0  0  0  0  0
  172.9040   21.7010   48.6690 H   0  0  0  0  0  0  0  0  0  0  0  0
  174.5028   23.2059   49.7702 H   0  0  0  0  0  0  0  0  0  0  0  0
  176.8090   24.9810   49.6830 H   0  0  0  0  0  0  0  0  0  0  0  0
  1  2  2  0
  2  3  1  0
  3  4  1  0
  3  5  2  0
  5  6  1  0
  6  7  2  0
  7  8  1  0
  8  9  2  0
  9 10  1  0
  9 11  1  0
 11 12  2  0
  5 13  1  0
 13 14  1  0
 14 15  2  0
 15 16  1  0
 16 17  1  0
 16 18  2  0
 18 19  1  0
 19 20  1  0
 19 21  2  0
 21  2  1  0
 12  6  1  0
 21 14  1  0
  4 22  1  0
  7 23  1  0
  8 24  1  0
 10 25  1  0
 11 26  1  0
 12 27  1  0
 15 28  1  0
 17 29  1  0
 18 30  1  0
 20 31  1  0
M  END
>  <meeko>  (2) 
{"is_sidechain": [false], "free_energy": -7.278, "intermolecular_energy": -8.808, "internal_energy": 0.243}

$$$$
kaempferol_out
     RDKit          3D

 31 33  0  0  0  0  0  0  0  0999 V2000
  174.7650   19.4770   47.5260 O   0  0  0  0  0  0  0  0  0  0  0  0
  175.8840   19.9790   47.4300 C   0  0  0  0  0  0  0  0  0  0  0  0
  176.9570   19.2890   46.6790 C   0  0  0  0  0  0  0  0  0  0  0  0
  176.6350   18.0800   46.0900 O   0  0  0  0  0  0  0  0  0  0  0  0
  178.1650   19.8770   46.5980 C   0  0  0  0  0  0  0  0  0  0  0  0
  179.3070   19.2890   45.8640 C   0  0  0  0  0  0  0  0  0  0  0  0
  179.3950   17.9100   45.6160 C   0  0  0  0  0  0  0  0  0  0  0  0
  180.4950   17.3720   44.9400 C   0  0  0  0  0  0  0  0  0  0  0  0
  181.5170   18.2140   44.5170 C   0  0  0  0  0  0  0  0  0  0  0  0
  182.6070   17.7320   43.8550 O   0  0  0  0  0  0  0  0  0  0  0  0
  181.4580   19.5790   44.7600 C   0  0  0  0  0  0  0  0  0  0  0  0
  180.3580   20.1160   45.4350 C   0  0  0  0  0  0  0  0  0  0  0  0
  178.4680   21.1060   47.1730 O   0  0  0  0  0  0  0  0  0  0  0  0
  177.4960   21.7670   47.8810 C   0  0  0  0  0  0  0  0  0  0  0  0
  177.8460   22.9910   48.4500 C   0  0  0  0  0  0  0  0  0  0  0  0
  176.8980   23.7040   49.1780 C   0  0  0  0  0  0  0  0  0  0  0  0
  177.2800   24.8960   49.7170 O   0  0  0  0  0  0  0  0  0  0  0  0
  175.6050   23.2140   49.3490 C   0  0  0  0  0  0  0  0  0  0  0  0
  175.2620   21.9910   48.7790 C   0  0  0  0  0  0  0  0  0  0  0  0
  173.9790   21.5580   48.9770 O   0  0  0  0  0  0  0  0  0  0  0  0
  176.2070   21.2670   48.0450 C   0  0  0  0  0  0  0  0  0  0  0  0
  176.3660   17.3570   46.6230 H   0  0  0  0  0  0  0  0  0  0  0  0
  178.5887   17.2442   45.9576 H   0  0  0  0  0  0  0  0  0  0  0  0
  180.5509   16.2909   44.7446 H   0  0  0  0  0  0  0  0  0  0  0  0
  183.1730   18.3200   43.3940 H   0  0  0  0  0  0  0  0  0  0  0  0
  182.2735   20.2357   44.4228 H   0  0  0  0  0  0  0  0  0  0  0  0
  180.3151   21.1973   45.6322 H   0  0  0  0  0  0  0  0  0  0  0  0
  178.8634   23.3899   48.3245 H   0  0  0  0  0  0  0  0  0  0  0  0
  177.9910   25.3740   49.3380 H   0  0  0  0  0  0  0  0  0  0  0  0
  174.8645   23.7862   49.9271 H   0  0  0  0  0  0  0  0  0  0  0  0
  173.7870   20.6410   48.9710 H   0  0  0  0  0  0  0  0  0  0  0  0
  1  2  2  0
  2  3  1  0
  3  4  1  0
  3  5  2  0
  5  6  1  0
  6  7  2  0
  7  8  1  0
  8  9  2  0
  9 10  1  0
  9 11  1  0
 11 12  2  0
  5 13  1  0
 13 14  1  0
 14 15  2  0
 15 16  1  0
 16 17  1  0
 16 18  2  0
 18 19  1  0
 19 20  1  0
 19 21  2  0
 21  2  1  0
 12  6  1  0
 21 14  1  0
  4 22  1  0
  7 23  1  0
  8 24  1  0
 10 25  1  0
 11 26  1  0
 12 27  1  0
 15 28  1  0
 17 29  1  0
 18 30  1  0
 20 31  1  0
M  END
>  <meeko>  (3) 
{"is_sidechain": [false], "free_energy": -7.071, "intermolecular_energy": -8.557, "internal_energy": 0.237}

$$$$
kaempferol_out
     RDKit          3D

 31 33  0  0  0  0  0  0  0  0999 V2000
  177.1610   22.7720   49.5890 O   0  0  0  0  0  0  0  0  0  0  0  0
  177.6100   22.0120   48.7330 C   0  0  0  0  0  0  0  0  0  0  0  0
  178.9830   22.1920   48.2120 C   0  0  0  0  0  0  0  0  0  0  0  0
  179.7250   23.2340   48.7400 O   0  0  0  0  0  0  0  0  0  0  0  0
  179.4350   21.3350   47.2770 C   0  0  0  0  0  0  0  0  0  0  0  0
  180.7920   21.4080   46.6950 C   0  0  0  0  0  0  0  0  0  0  0  0
  181.7630   22.2930   47.1910 C   0  0  0  0  0  0  0  0  0  0  0  0
  183.0330   22.3630   46.6100 C   0  0  0  0  0  0  0  0  0  0  0  0
  183.3340   21.5530   45.5230 C   0  0  0  0  0  0  0  0  0  0  0  0
  184.5590   21.5880   44.9270 O   0  0  0  0  0  0  0  0  0  0  0  0
  182.3880   20.6780   45.0070 C   0  0  0  0  0  0  0  0  0  0  0  0
  181.1190   20.6070   45.5890 C   0  0  0  0  0  0  0  0  0  0  0  0
  178.6880   20.2750   46.7740 O   0  0  0  0  0  0  0  0  0  0  0  0
  177.4090   20.0860   47.2320 C   0  0  0  0  0  0  0  0  0  0  0  0
  176.6910   19.0190   46.6930 C   0  0  0  0  0  0  0  0  0  0  0  0
  175.3890   18.7810   47.1230 C   0  0  0  0  0  0  0  0  0  0  0  0
  174.7240   17.7280   46.5710 O   0  0  0  0  0  0  0  0  0  0  0  0
  174.7900   19.5920   48.0840 C   0  0  0  0  0  0  0  0  0  0  0  0
  175.5110   20.6560   48.6190 C   0  0  0  0  0  0  0  0  0  0  0  0
  174.8740   21.4200   49.5600 O   0  0  0  0  0  0  0  0  0  0  0  0
  176.8210   20.9040   48.1930 C   0  0  0  0  0  0  0  0  0  0  0  0
  180.3820   23.0600   49.3850 H   0  0  0  0  0  0  0  0  0  0  0  0
  181.5214   22.9395   48.0476 H   0  0  0  0  0  0  0  0  0  0  0  0
  183.7883   23.0548   47.0112 H   0  0  0  0  0  0  0  0  0  0  0  0
  184.6260   21.5870   43.9910 H   0  0  0  0  0  0  0  0  0  0  0  0
  182.6359   20.0431   44.1436 H   0  0  0  0  0  0  0  0  0  0  0  0
  180.3688   19.9165   45.1763 H   0  0  0  0  0  0  0  0  0  0  0  0
  177.1506   18.3699   45.9331 H   0  0  0  0  0  0  0  0  0  0  0  0
  175.1630   16.9090   46.4470 H   0  0  0  0  0  0  0  0  0  0  0  0
  173.7601   19.3943   48.4161 H   0  0  0  0  0  0  0  0  0  0  0  0
  173.9400   21.4810   49.5600 H   0  0  0  0  0  0  0  0  0  0  0  0
  1  2  2  0
  2  3  1  0
  3  4  1  0
  3  5  2  0
  5  6  1  0
  6  7  2  0
  7  8  1  0
  8  9  2  0
  9 10  1  0
  9 11  1  0
 11 12  2  0
  5 13  1  0
 13 14  1  0
 14 15  2  0
 15 16  1  0
 16 17  1  0
 16 18  2  0
 18 19  1  0
 19 20  1  0
 19 21  2  0
 21  2  1  0
 12  6  1  0
 21 14  1  0
  4 22  1  0
  7 23  1  0
  8 24  1  0
 10 25  1  0
 11 26  1  0
 12 27  1  0
 15 28  1  0
 17 29  1  0
 18 30  1  0
 20 31  1  0
M  END
>  <meeko>  (4) 
{"is_sidechain": [false], "free_energy": -6.334, "intermolecular_energy": -7.796, "internal_energy": 0.342}

$$$$
kaempferol_out
     RDKit          3D

 31 33  0  0  0  0  0  0  0  0999 V2000
  178.7360   18.0780   45.7570 O   0  0  0  0  0  0  0  0  0  0  0  0
  178.9470   19.2000   46.2110 C   0  0  0  0  0  0  0  0  0  0  0  0
  177.8950   19.9170   46.9660 C   0  0  0  0  0  0  0  0  0  0  0  0
  176.6890   19.2620   47.1410 O   0  0  0  0  0  0  0  0  0  0  0  0
  178.1710   21.1430   47.4480 C   0  0  0  0  0  0  0  0  0  0  0  0
  177.2040   21.9470   48.2270 C   0  0  0  0  0  0  0  0  0  0  0  0
  176.1610   21.3490   48.9520 C   0  0  0  0  0  0  0  0  0  0  0  0
  175.2440   22.1290   49.6640 C   0  0  0  0  0  0  0  0  0  0  0  0
  175.3620   23.5130   49.6450 C   0  0  0  0  0  0  0  0  0  0  0  0
  174.4910   24.3110   50.3240 O   0  0  0  0  0  0  0  0  0  0  0  0
  176.3780   24.1280   48.9270 C   0  0  0  0  0  0  0  0  0  0  0  0
  177.2950   23.3480   48.2170 C   0  0  0  0  0  0  0  0  0  0  0  0
  179.3970   21.7800   47.2880 O   0  0  0  0  0  0  0  0  0  0  0  0
  180.3900   21.1440   46.5870 C   0  0  0  0  0  0  0  0  0  0  0  0
  181.5990   21.8230   46.4410 C   0  0  0  0  0  0  0  0  0  0  0  0
  182.6410   21.2230   45.7400 C   0  0  0  0  0  0  0  0  0  0  0  0
  183.8070   21.9200   45.6200 O   0  0  0  0  0  0  0  0  0  0  0  0
  182.4970   19.9550   45.1810 C   0  0  0  0  0  0  0  0  0  0  0  0
  181.2870   19.2830   45.3300 C   0  0  0  0  0  0  0  0  0  0  0  0
  181.1990   18.0400   44.7620 O   0  0  0  0  0  0  0  0  0  0  0  0
  180.2330   19.8770   46.0330 C   0  0  0  0  0  0  0  0  0  0  0  0
  176.0250   19.6420   47.6820 H   0  0  0  0  0  0  0  0  0  0  0  0
  176.0638   20.2533   48.9602 H   0  0  0  0  0  0  0  0  0  0  0  0
  174.4351   21.6499   50.2350 H   0  0  0  0  0  0  0  0  0  0  0  0
  174.1570   24.0380   51.1570 H   0  0  0  0  0  0  0  0  0  0  0  0
  176.4612   25.2248   48.9167 H   0  0  0  0  0  0  0  0  0  0  0  0
  178.0967   23.8370   47.6442 H   0  0  0  0  0  0  0  0  0  0  0  0
  181.7283   22.8249   46.8764 H   0  0  0  0  0  0  0  0  0  0  0  0
  184.3720   21.7650   44.8890 H   0  0  0  0  0  0  0  0  0  0  0  0
  183.3281   19.4912   44.6294 H   0  0  0  0  0  0  0  0  0  0  0  0
  181.4450   17.9160   43.8670 H   0  0  0  0  0  0  0  0  0  0  0  0
  1  2  2  0
  2  3  1  0
  3  4  1  0
  3  5  2  0
  5  6  1  0
  6  7  2  0
  7  8  1  0
  8  9  2  0
  9 10  1  0
  9 11  1  0
 11 12  2  0
  5 13  1  0
 13 14  1  0
 14 15  2  0
 15 16  1  0
 16 17  1  0
 16 18  2  0
 18 19  1  0
 19 20  1  0
 19 21  2  0
 21  2  1  0
 12  6  1  0
 21 14  1  0
  4 22  1  0
  7 23  1  0
  8 24  1  0
 10 25  1  0
 11 26  1  0
 12 27  1  0
 15 28  1  0
 17 29  1  0
 18 30  1  0
 20 31  1  0
M  END
>  <meeko>  (5) 
{"is_sidechain": [false], "free_energy": -6.293, "intermolecular_energy": -7.631, "internal_energy": 0.224}

$$$$
kaempferol_out
     RDKit          3D

 31 33  0  0  0  0  0  0  0  0999 V2000
  182.1740   22.2410   46.9710 O   0  0  0  0  0  0  0  0  0  0  0  0
  181.2050   21.4880   46.8960 C   0  0  0  0  0  0  0  0  0  0  0  0
  179.9860   21.7480   47.6950 C   0  0  0  0  0  0  0  0  0  0  0  0
  179.9920   22.8700   48.5030 O   0  0  0  0  0  0  0  0  0  0  0  0
  178.9480   20.8990   47.5800 C   0  0  0  0  0  0  0  0  0  0  0  0
  177.6760   21.0660   48.3160 C   0  0  0  0  0  0  0  0  0  0  0  0
  176.6280   21.8530   47.8130 C   0  0  0  0  0  0  0  0  0  0  0  0
  175.4430   22.0160   48.5360 C   0  0  0  0  0  0  0  0  0  0  0  0
  175.3050   21.3980   49.7730 C   0  0  0  0  0  0  0  0  0  0  0  0
  174.1670   21.5300   50.5110 O   0  0  0  0  0  0  0  0  0  0  0  0
  176.3300   20.6240   50.2970 C   0  0  0  0  0  0  0  0  0  0  0  0
  177.5150   20.4600   49.5730 C   0  0  0  0  0  0  0  0  0  0  0  0
  178.9460   19.7880   46.7430 O   0  0  0  0  0  0  0  0  0  0  0  0
  180.0630   19.5160   45.9960 C   0  0  0  0  0  0  0  0  0  0  0  0
  180.0230   18.3870   45.1790 C   0  0  0  0  0  0  0  0  0  0  0  0
  181.1290   18.0650   44.3980 C   0  0  0  0  0  0  0  0  0  0  0  0
  181.0470   16.9530   43.6140 O   0  0  0  0  0  0  0  0  0  0  0  0
  182.2780   18.8520   44.4190 C   0  0  0  0  0  0  0  0  0  0  0  0
  182.3130   19.9790   45.2370 C   0  0  0  0  0  0  0  0  0  0  0  0
  183.4650   20.7170   45.2190 O   0  0  0  0  0  0  0  0  0  0  0  0
  181.2060   20.3110   46.0250 C   0  0  0  0  0  0  0  0  0  0  0  0
  180.0480   23.7230   48.1190 H   0  0  0  0  0  0  0  0  0  0  0  0
  176.7409   22.3479   46.8371 H   0  0  0  0  0  0  0  0  0  0  0  0
  174.6255   22.6291   48.1288 H   0  0  0  0  0  0  0  0  0  0  0  0
  173.4610   20.9240   50.3970 H   0  0  0  0  0  0  0  0  0  0  0  0
  176.2111   20.1412   51.2782 H   0  0  0  0  0  0  0  0  0  0  0  0
  178.3292   19.8504   49.9919 H   0  0  0  0  0  0  0  0  0  0  0  0
  179.1232   17.7549   45.1519 H   0  0  0  0  0  0  0  0  0  0  0  0
  181.6280   16.8500   42.8860 H   0  0  0  0  0  0  0  0  0  0  0  0
  183.1463   18.5871   43.7978 H   0  0  0  0  0  0  0  0  0  0  0  0
  184.0120   20.7140   44.4580 H   0  0  0  0  0  0  0  0  0  0  0  0
  1  2  2  0
  2  3  1  0
  3  4  1  0
  3  5  2  0
  5  6  1  0
  6  7  2  0
  7  8  1  0
  8  9  2  0
  9 10  1  0
  9 11  1  0
 11 12  2  0
  5 13  1  0
 13 14  1  0
 14 15  2  0
 15 16  1  0
 16 17  1  0
 16 18  2  0
 18 19  1  0
 19 20  1  0
 19 21  2  0
 21  2  1  0
 12  6  1  0
 21 14  1  0
  4 22  1  0
  7 23  1  0
  8 24  1  0
 10 25  1  0
 11 26  1  0
 12 27  1  0
 15 28  1  0
 17 29  1  0
 18 30  1  0
 20 31  1  0
M  END
>  <meeko>  (6) 
{"is_sidechain": [false], "free_energy": -6.269, "intermolecular_energy": -7.081, "internal_energy": -0.298}

$$$$
kaempferol_out
     RDKit          3D

 31 33  0  0  0  0  0  0  0  0999 V2000
  181.9430   20.5930   45.0840 O   0  0  0  0  0  0  0  0  0  0  0  0
  181.0050   19.8760   45.4280 C   0  0  0  0  0  0  0  0  0  0  0  0
  179.9340   20.4060   46.3020 C   0  0  0  0  0  0  0  0  0  0  0  0
  180.0380   21.7280   46.6930 O   0  0  0  0  0  0  0  0  0  0  0  0
  178.9250   19.5870   46.6510 C   0  0  0  0  0  0  0  0  0  0  0  0
  177.7950   20.0080   47.5070 C   0  0  0  0  0  0  0  0  0  0  0  0
  177.9650   20.9240   48.5570 C   0  0  0  0  0  0  0  0  0  0  0  0
  176.8880   21.2920   49.3690 C   0  0  0  0  0  0  0  0  0  0  0  0
  175.6350   20.7360   49.1380 C   0  0  0  0  0  0  0  0  0  0  0  0
  174.5580   21.0660   49.9050 O   0  0  0  0  0  0  0  0  0  0  0  0
  175.4440   19.8210   48.1130 C   0  0  0  0  0  0  0  0  0  0  0  0
  176.5210   19.4540   47.3010 C   0  0  0  0  0  0  0  0  0  0  0  0
  178.8190   18.2650   46.2300 O   0  0  0  0  0  0  0  0  0  0  0  0
  179.7990   17.7440   45.4240 C   0  0  0  0  0  0  0  0  0  0  0  0
  179.6600   16.4130   45.0340 C   0  0  0  0  0  0  0  0  0  0  0  0
  180.6260   15.8330   44.2160 C   0  0  0  0  0  0  0  0  0  0  0  0
  180.4510   14.5300   43.8580 O   0  0  0  0  0  0  0  0  0  0  0  0
  181.7300   16.5610   43.7800 C   0  0  0  0  0  0  0  0  0  0  0  0
  181.8640   17.8910   44.1730 C   0  0  0  0  0  0  0  0  0  0  0  0
  182.9670   18.5590   43.7160 O   0  0  0  0  0  0  0  0  0  0  0  0
  180.8990   18.4820   44.9950 C   0  0  0  0  0  0  0  0  0  0  0  0
  179.3420   22.3270   46.5050 H   0  0  0  0  0  0  0  0  0  0  0  0
  178.9585   21.3579   48.7434 H   0  0  0  0  0  0  0  0  0  0  0  0
  177.0311   22.0161   50.1846 H   0  0  0  0  0  0  0  0  0  0  0  0
  174.1850   21.9240   49.8450 H   0  0  0  0  0  0  0  0  0  0  0  0
  174.4487   19.3858   47.9398 H   0  0  0  0  0  0  0  0  0  0  0  0
  176.3691   18.7238   46.4924 H   0  0  0  0  0  0  0  0  0  0  0  0
  178.7932   15.8250   45.3701 H   0  0  0  0  0  0  0  0  0  0  0  0
  180.4510   13.8600   44.5130 H   0  0  0  0  0  0  0  0  0  0  0  0
  182.4866   16.0921   43.1336 H   0  0  0  0  0  0  0  0  0  0  0  0
  183.7510   18.0870   43.5120 H   0  0  0  0  0  0  0  0  0  0  0  0
  1  2  2  0
  2  3  1  0
  3  4  1  0
  3  5  2  0
  5  6  1  0
  6  7  2  0
  7  8  1  0
  8  9  2  0
  9 10  1  0
  9 11  1  0
 11 12  2  0
  5 13  1  0
 13 14  1  0
 14 15  2  0
 15 16  1  0
 16 17  1  0
 16 18  2  0
 18 19  1  0
 19 20  1  0
 19 21  2  0
 21  2  1  0
 12  6  1  0
 21 14  1  0
  4 22  1  0
  7 23  1  0
  8 24  1  0
 10 25  1  0
 11 26  1  0
 12 27  1  0
 15 28  1  0
 17 29  1  0
 18 30  1  0
 20 31  1  0
M  END
>  <meeko>  (7) 
{"is_sidechain": [false], "free_energy": -6.169, "intermolecular_energy": -7.38, "internal_energy": 0.12}

$$$$
kaempferol_out
     RDKit          3D

 31 33  0  0  0  0  0  0  0  0999 V2000
  178.3200   19.6170   47.3620 O   0  0  0  0  0  0  0  0  0  0  0  0
  179.3150   19.4100   46.6720 C   0  0  0  0  0  0  0  0  0  0  0  0
  179.3900   18.2180   45.7970 C   0  0  0  0  0  0  0  0  0  0  0  0
  178.2940   17.3750   45.7870 O   0  0  0  0  0  0  0  0  0  0  0  0
  180.4980   18.0320   45.0560 C   0  0  0  0  0  0  0  0  0  0  0  0
  180.6790   16.8880   44.1370 C   0  0  0  0  0  0  0  0  0  0  0  0
  180.4880   15.5630   44.5590 C   0  0  0  0  0  0  0  0  0  0  0  0
  180.6870   14.4940   43.6800 C   0  0  0  0  0  0  0  0  0  0  0  0
  181.0870   14.7480   42.3730 C   0  0  0  0  0  0  0  0  0  0  0  0
  181.2910   13.7370   41.4830 O   0  0  0  0  0  0  0  0  0  0  0  0
  181.2920   16.0480   41.9340 C   0  0  0  0  0  0  0  0  0  0  0  0
  181.0920   17.1160   42.8140 C   0  0  0  0  0  0  0  0  0  0  0  0
  181.5840   18.9020   45.0550 O   0  0  0  0  0  0  0  0  0  0  0  0
  181.5470   20.0110   45.8610 C   0  0  0  0  0  0  0  0  0  0  0  0
  182.6600   20.8510   45.8380 C   0  0  0  0  0  0  0  0  0  0  0  0
  182.6760   21.9910   46.6350 C   0  0  0  0  0  0  0  0  0  0  0  0
  183.7830   22.7850   46.5820 O   0  0  0  0  0  0  0  0  0  0  0  0
  181.5980   22.3090   47.4580 C   0  0  0  0  0  0  0  0  0  0  0  0
  180.4890   21.4660   47.4770 C   0  0  0  0  0  0  0  0  0  0  0  0
  179.4580   21.8260   48.3030 O   0  0  0  0  0  0  0  0  0  0  0  0
  180.4630   20.3180   46.6790 C   0  0  0  0  0  0  0  0  0  0  0  0
  177.4310   17.7280   45.8830 H   0  0  0  0  0  0  0  0  0  0  0  0
  180.1776   15.3629   45.5952 H   0  0  0  0  0  0  0  0  0  0  0  0
  180.5283   13.4600   44.0200 H   0  0  0  0  0  0  0  0  0  0  0  0
  182.0500   13.7430   40.9320 H   0  0  0  0  0  0  0  0  0  0  0  0
  181.6105   16.2377   40.8983 H   0  0  0  0  0  0  0  0  0  0  0  0
  181.2599   18.1460   42.4664 H   0  0  0  0  0  0  0  0  0  0  0  0
  183.5195   20.6137   45.1939 H   0  0  0  0  0  0  0  0  0  0  0  0
  184.6010   22.4710   46.9150 H   0  0  0  0  0  0  0  0  0  0  0  0
  181.6221   23.2131   48.0841 H   0  0  0  0  0  0  0  0  0  0  0  0
  179.5150   22.6110   48.8100 H   0  0  0  0  0  0  0  0  0  0  0  0
  1  2  2  0
  2  3  1  0
  3  4  1  0
  3  5  2  0
  5  6  1  0
  6  7  2  0
  7  8  1  0
  8  9  2  0
  9 10  1  0
  9 11  1  0
 11 12  2  0
  5 13  1  0
 13 14  1  0
 14 15  2  0
 15 16  1  0
 16 17  1  0
 16 18  2  0
 18 19  1  0
 19 20  1  0
 19 21  2  0
 21  2  1  0
 12  6  1  0
 21 14  1  0
  4 22  1  0
  7 23  1  0
  8 24  1  0
 10 25  1  0
 11 26  1  0
 12 27  1  0
 15 28  1  0
 17 29  1  0
 18 30  1  0
 20 31  1  0
M  END
>  <meeko>  (8) 
{"is_sidechain": [false], "free_energy": -6.11, "intermolecular_energy": -7.118, "internal_energy": -0.074}

$$$$
kaempferol_out
     RDKit          3D

 31 33  0  0  0  0  0  0  0  0999 V2000
  176.4360   18.6410   46.7940 O   0  0  0  0  0  0  0  0  0  0  0  0
  177.1010   19.6440   47.0440 C   0  0  0  0  0  0  0  0  0  0  0  0
  178.5020   19.7540   46.5790 C   0  0  0  0  0  0  0  0  0  0  0  0
  179.0090   18.6930   45.8510 O   0  0  0  0  0  0  0  0  0  0  0  0
  179.1920   20.8720   46.8740 C   0  0  0  0  0  0  0  0  0  0  0  0
  180.5910   21.0990   46.4510 C   0  0  0  0  0  0  0  0  0  0  0  0
  181.4380   21.9790   47.1430 C   0  0  0  0  0  0  0  0  0  0  0  0
  182.7510   22.1970   46.7130 C   0  0  0  0  0  0  0  0  0  0  0  0
  183.2180   21.5400   45.5800 C   0  0  0  0  0  0  0  0  0  0  0  0
  184.4900   21.7230   45.1260 O   0  0  0  0  0  0  0  0  0  0  0  0
  182.3970   20.6730   44.8740 C   0  0  0  0  0  0  0  0  0  0  0  0
  181.0850   20.4550   45.3050 C   0  0  0  0  0  0  0  0  0  0  0  0
  178.6620   21.9440   47.5840 O   0  0  0  0  0  0  0  0  0  0  0  0
  177.3680   21.8690   48.0340 C   0  0  0  0  0  0  0  0  0  0  0  0
  176.8810   22.9600   48.7520 C   0  0  0  0  0  0  0  0  0  0  0  0
  175.5740   22.9380   49.2310 C   0  0  0  0  0  0  0  0  0  0  0  0
  175.1370   24.0250   49.9270 O   0  0  0  0  0  0  0  0  0  0  0  0
  174.7440   21.8420   49.0050 C   0  0  0  0  0  0  0  0  0  0  0  0
  175.2370   20.7540   48.2880 C   0  0  0  0  0  0  0  0  0  0  0  0
  174.3790   19.7050   48.0950 O   0  0  0  0  0  0  0  0  0  0  0  0
  176.5490   20.7680   47.8020 C   0  0  0  0  0  0  0  0  0  0  0  0
  179.9350   18.5990   45.7440 H   0  0  0  0  0  0  0  0  0  0  0  0
  181.0644   22.5037   48.0347 H   0  0  0  0  0  0  0  0  0  0  0  0
  183.4090   22.8828   47.2668 H   0  0  0  0  0  0  0  0  0  0  0  0
  185.0740   20.9920   45.0590 H   0  0  0  0  0  0  0  0  0  0  0  0
  182.7767   20.1591   43.9786 H   0  0  0  0  0  0  0  0  0  0  0  0
  180.4330   19.7720   44.7407 H   0  0  0  0  0  0  0  0  0  0  0  0
  177.5248   23.8321   48.9388 H   0  0  0  0  0  0  0  0  0  0  0  0
  175.0420   24.8500   49.4940 H   0  0  0  0  0  0  0  0  0  0  0  0
  173.7128   21.8358   49.3878 H   0  0  0  0  0  0  0  0  0  0  0  0
  174.4500   19.1770   47.3250 H   0  0  0  0  0  0  0  0  0  0  0  0
  1  2  2  0
  2  3  1  0
  3  4  1  0
  3  5  2  0
  5  6  1  0
  6  7  2  0
  7  8  1  0
  8  9  2  0
  9 10  1  0
  9 11  1  0
 11 12  2  0
  5 13  1  0
 13 14  1  0
 14 15  2  0
 15 16  1  0
 16 17  1  0
 16 18  2  0
 18 19  1  0
 19 20  1  0
 19 21  2  0
 21  2  1  0
 12  6  1  0
 21 14  1  0
  4 22  1  0
  7 23  1  0
  8 24  1  0
 10 25  1  0
 11 26  1  0
 12 27  1  0
 15 28  1  0
 17 29  1  0
 18 30  1  0
 20 31  1  0
M  END
>  <meeko>  (9) 
{"is_sidechain": [false], "free_energy": -6.08, "intermolecular_energy": -7.435, "internal_energy": 0.278}

$$$$
