cand_030_out
     RDKit          3D

 38 40  0  0  0  0  0  0  0  0999 V2000
   76.3630   42.8610   -6.4080 C   0  0  0  0  0  0  0  0  0  0  0  0
   75.7140   43.6630   -5.2890 C   0  0  0  0  0  0  0  0  0  0  0  0
   74.8680   42.7940   -4.3840 C   0  0  0  0  0  0  0  0  0  0  0  0
   73.6310   42.3370   -4.8710 C   0  0  0  0  0  0  0  0  0  0  0  0
   72.7990   41.5370   -4.0850 C   0  0  0  0  0  0  0  0  0  0  0  0
   73.1790   41.1670   -2.7910 C   0  0  0  0  0  0  0  0  0  0  0  0
   72.2780   40.3350   -1.9680 C   0  0  0  0  0  0  0  0  0  0  0  0
   70.9470   40.7270   -2.0570 O   0  0  0  0  0  0  0  0  0  0  0  0
   70.0050   40.0380   -1.3370 C   0  0  0  0  0  0  0  0  0  0  0  0
   68.6840   40.4750   -1.4410 C   0  0  0  0  0  0  0  0  0  0  0  0
   67.6750   39.8160   -0.7360 C   0  0  0  0  0  0  0  0  0  0  0  0
   67.9860   38.7200    0.0730 C   0  0  0  0  0  0  0  0  0  0  0  0
   69.3050   38.2860    0.1750 C   0  0  0  0  0  0  0  0  0  0  0  0
   69.5390   37.2080    0.9830 O   0  0  0  0  0  0  0  0  0  0  0  0
   70.3150   38.9470   -0.5300 C   0  0  0  0  0  0  0  0  0  0  0  0
   71.7130   38.5230   -0.4500 C   0  0  0  0  0  0  0  0  0  0  0  0
   72.0660   37.5640    0.2320 O   0  0  0  0  0  0  0  0  0  0  0  0
   72.7080   39.2950   -1.2310 C   0  0  0  0  0  0  0  0  0  0  0  0
   74.0250   38.8810   -1.1600 O   0  0  0  0  0  0  0  0  0  0  0  0
   74.4050   41.6360   -2.2980 C   0  0  0  0  0  0  0  0  0  0  0  0
   75.2570   42.4490   -3.0730 C   0  0  0  0  0  0  0  0  0  0  0  0
   76.5770   42.8880   -2.4800 C   0  0  0  0  0  0  0  0  0  0  0  0
   76.5790   44.1890   -2.0780 F   0  0  0  0  0  0  0  0  0  0  0  0
   76.9450   42.1720   -1.3790 F   0  0  0  0  0  0  0  0  0  0  0  0
   76.9990   42.0751   -5.9746 H   0  0  0  0  0  0  0  0  0  0  0  0
   75.5813   42.3992   -7.0291 H   0  0  0  0  0  0  0  0  0  0  0  0
   76.9777   43.5291   -7.0291 H   0  0  0  0  0  0  0  0  0  0  0  0
   76.5039   44.1376   -4.6883 H   0  0  0  0  0  0  0  0  0  0  0  0
   75.0562   44.4155   -5.7485 H   0  0  0  0  0  0  0  0  0  0  0  0
   73.3135   42.6139   -5.8871 H   0  0  0  0  0  0  0  0  0  0  0  0
   71.8346   41.1942   -4.4879 H   0  0  0  0  0  0  0  0  0  0  0  0
   68.4378   41.3376   -2.0776 H   0  0  0  0  0  0  0  0  0  0  0  0
   66.6334   40.1602   -0.8176 H   0  0  0  0  0  0  0  0  0  0  0  0
   67.1905   38.2012    0.6281 H   0  0  0  0  0  0  0  0  0  0  0  0
   69.5440   37.3120    1.9140 H   0  0  0  0  0  0  0  0  0  0  0  0
   74.7140   39.5160   -1.1280 H   0  0  0  0  0  0  0  0  0  0  0  0
   74.7107   41.3618   -1.2775 H   0  0  0  0  0  0  0  0  0  0  0  0
   77.2800   42.7242   -3.3100 H   0  0  0  0  0  0  0  0  0  0  0  0
  1  2  1  0
  2  3  1  0
  3  4  2  0
  4  5  1  0
  5  6  2  0
  6  7  1  0
  7  8  1  0
  8  9  1  0
  9 10  2  0
 10 11  1  0
 11 12  2  0
 12 13  1  0
 13 14  1  0
 13 15  2  0
 15 16  1  0
 16 17  2  0
 16 18  1  0
 18 19  1  0
  6 20  1  0
 20 21  2  0
 21 22  1  0
 22 23  1  0
 22 24  1  0
 21  3  1  0
 18  7  2  0
 15  9  1  0
  1 25  1  0
  1 26  1  0
  1 27  1  0
  2 28  1  0
  2 29  1  0
  4 30  1  0
  5 31  1  0
 10 32  1  0
 11 33  1  0
 12 34  1  0
 14 35  1  0
 19 36  1  0
 20 37  1  0
 22 38  1  0
M  END
>  <meeko>  (1) 
{"is_sidechain": [false], "free_energy": -7.898, "intermolecular_energy": -9.745, "internal_energy": -0.373}

$$$$
cand_030_out
     RDKit          3D

 38 40  0  0  0  0  0  0  0  0999 V2000
   70.6440   36.5150    1.5390 C   0  0  0  0  0  0  0  0  0  0  0  0
   71.5490   37.0920    0.4610 C   0  0  0  0  0  0  0  0  0  0  0  0
   70.9000   38.2510   -0.2650 C   0  0  0  0  0  0  0  0  0  0  0  0
   69.6000   38.6260    0.1140 C   0  0  0  0  0  0  0  0  0  0  0  0
   68.9410   39.6820   -0.5190 C   0  0  0  0  0  0  0  0  0  0  0  0
   69.5640   40.3970   -1.5470 C   0  0  0  0  0  0  0  0  0  0  0  0
   68.8450   41.4990   -2.2180 C   0  0  0  0  0  0  0  0  0  0  0  0
   67.9240   42.1290   -1.3890 O   0  0  0  0  0  0  0  0  0  0  0  0
   67.1850   43.1710   -1.8920 C   0  0  0  0  0  0  0  0  0  0  0  0
   66.2600   43.7630   -1.0300 C   0  0  0  0  0  0  0  0  0  0  0  0
   65.4770   44.8300   -1.4780 C   0  0  0  0  0  0  0  0  0  0  0  0
   65.6190   45.3040   -2.7850 C   0  0  0  0  0  0  0  0  0  0  0  0
   66.5430   44.7100   -3.6410 C   0  0  0  0  0  0  0  0  0  0  0  0
   66.6310   45.2230   -4.9060 O   0  0  0  0  0  0  0  0  0  0  0  0
   67.3250   43.6420   -3.1930 C   0  0  0  0  0  0  0  0  0  0  0  0
   68.3070   42.9900   -4.0610 C   0  0  0  0  0  0  0  0  0  0  0  0
   68.4960   43.3530   -5.2190 O   0  0  0  0  0  0  0  0  0  0  0  0
   69.0810   41.8620   -3.4920 C   0  0  0  0  0  0  0  0  0  0  0  0
   70.0150   41.2590   -4.3140 O   0  0  0  0  0  0  0  0  0  0  0  0
   70.8540   40.0130   -1.9390 C   0  0  0  0  0  0  0  0  0  0  0  0
   71.5340   38.9460   -1.3150 C   0  0  0  0  0  0  0  0  0  0  0  0
   72.9370   38.6150   -1.7740 C   0  0  0  0  0  0  0  0  0  0  0  0
   73.0050   38.2750   -3.0910 F   0  0  0  0  0  0  0  0  0  0  0  0
   73.8170   39.6460   -1.6230 F   0  0  0  0  0  0  0  0  0  0  0  0
   71.0456   36.7710    2.5306 H   0  0  0  0  0  0  0  0  0  0  0  0
   69.6332   36.9357    1.4330 H   0  0  0  0  0  0  0  0  0  0  0  0
   70.5988   35.4211    1.4330 H   0  0  0  0  0  0  0  0  0  0  0  0
   72.4800   37.4434    0.9298 H   0  0  0  0  0  0  0  0  0  0  0  0
   71.7481   36.2992   -0.2751 H   0  0  0  0  0  0  0  0  0  0  0  0
   69.0931   38.0788    0.9225 H   0  0  0  0  0  0  0  0  0  0  0  0
   67.9221   39.9541   -0.2061 H   0  0  0  0  0  0  0  0  0  0  0  0
   66.1479   43.3905   -0.0011 H   0  0  0  0  0  0  0  0  0  0  0  0
   64.7474   45.2978   -0.8006 H   0  0  0  0  0  0  0  0  0  0  0  0
   65.0024   46.1443   -3.1368 H   0  0  0  0  0  0  0  0  0  0  0  0
   67.4420   45.5750   -5.2140 H   0  0  0  0  0  0  0  0  0  0  0  0
   69.8660   41.2160   -5.2390 H   0  0  0  0  0  0  0  0  0  0  0  0
   71.3496   40.5586   -2.7555 H   0  0  0  0  0  0  0  0  0  0  0  0
   73.2085   37.7674   -1.1276 H   0  0  0  0  0  0  0  0  0  0  0  0
  1  2  1  0
  2  3  1  0
  3  4  2  0
  4  5  1  0
  5  6  2  0
  6  7  1  0
  7  8  1  0
  8  9  1  0
  9 10  2  0
 10 11  1  0
 11 12  2  0
 12 13  1  0
 13 14  1  0
 13 15  2  0
 15 16  1  0
 16 17  2  0
 16 18  1  0
 18 19  1  0
  6 20  1  0
 20 21  2  0
 21 22  1  0
 22 23  1  0
 22 24  1  0
 21  3  1  0
 18  7  2  0
 15  9  1  0
  1 25  1  0
  1 26  1  0
  1 27  1  0
  2 28  1  0
  2 29  1  0
  4 30  1  0
  5 31  1  0
 10 32  1  0
 11 33  1  0
 12 34  1  0
 14 35  1  0
 19 36  1  0
 20 37  1  0
 22 38  1  0
M  END
>  <meeko>  (2) 
{"is_sidechain": [false], "free_energy": -7.78, "intermolecular_energy": -9.851, "internal_energy": -0.122}

$$$$
cand_030_out
     RDKit          3D

 38 40  0  0  0  0  0  0  0  0999 V2000
   66.5760   39.3790   -1.0120 C   0  0  0  0  0  0  0  0  0  0  0  0
   67.7700   38.8900   -0.2070 C   0  0  0  0  0  0  0  0  0  0  0  0
   69.0600   39.5510   -0.6440 C   0  0  0  0  0  0  0  0  0  0  0  0
   68.9910   40.5490   -1.6320 C   0  0  0  0  0  0  0  0  0  0  0  0
   70.1440   41.1940   -2.0850 C   0  0  0  0  0  0  0  0  0  0  0  0
   71.3980   40.8640   -1.5620 C   0  0  0  0  0  0  0  0  0  0  0  0
   72.6080   41.5440   -2.0660 C   0  0  0  0  0  0  0  0  0  0  0  0
   72.3740   42.8640   -2.4360 O   0  0  0  0  0  0  0  0  0  0  0  0
   73.4170   43.6090   -2.9260 C   0  0  0  0  0  0  0  0  0  0  0  0
   73.1340   44.9230   -3.3020 C   0  0  0  0  0  0  0  0  0  0  0  0
   74.1510   45.7370   -3.8050 C   0  0  0  0  0  0  0  0  0  0  0  0
   75.4500   45.2380   -3.9330 C   0  0  0  0  0  0  0  0  0  0  0  0
   75.7290   43.9260   -3.5580 C   0  0  0  0  0  0  0  0  0  0  0  0
   77.0210   43.5020   -3.7080 O   0  0  0  0  0  0  0  0  0  0  0  0
   74.7100   43.1120   -3.0550 C   0  0  0  0  0  0  0  0  0  0  0  0
   74.9620   41.7280   -2.6480 C   0  0  0  0  0  0  0  0  0  0  0  0
   76.0770   41.2190   -2.7230 O   0  0  0  0  0  0  0  0  0  0  0  0
   73.8130   40.9470   -2.1350 C   0  0  0  0  0  0  0  0  0  0  0  0
   74.0600   39.6440   -1.7420 O   0  0  0  0  0  0  0  0  0  0  0  0
   71.4710   39.8570   -0.5890 C   0  0  0  0  0  0  0  0  0  0  0  0
   70.3190   39.1900   -0.1230 C   0  0  0  0  0  0  0  0  0  0  0  0
   70.4770   38.1370    0.9520 C   0  0  0  0  0  0  0  0  0  0  0  0
   71.5330   37.3050    0.7370 F   0  0  0  0  0  0  0  0  0  0  0  0
   70.6770   38.6560    2.1980 F   0  0  0  0  0  0  0  0  0  0  0  0
   65.7801   39.7050   -0.3262 H   0  0  0  0  0  0  0  0  0  0  0  0
   66.8825   40.2240   -1.6460 H   0  0  0  0  0  0  0  0  0  0  0  0
   66.2017   38.5617   -1.6460 H   0  0  0  0  0  0  0  0  0  0  0  0
   67.5979   39.1158    0.8557 H   0  0  0  0  0  0  0  0  0  0  0  0
   67.8706   37.8073   -0.3735 H   0  0  0  0  0  0  0  0  0  0  0  0
   68.0139   40.8260   -2.0547 H   0  0  0  0  0  0  0  0  0  0  0  0
   70.0647   41.9695   -2.8611 H   0  0  0  0  0  0  0  0  0  0  0  0
   72.1117   45.3166   -3.2023 H   0  0  0  0  0  0  0  0  0  0  0  0
   73.9292   46.7729   -4.1010 H   0  0  0  0  0  0  0  0  0  0  0  0
   76.2505   45.8801   -4.3291 H   0  0  0  0  0  0  0  0  0  0  0  0
   77.7300   44.0670   -3.4730 H   0  0  0  0  0  0  0  0  0  0  0  0
   74.5890   39.4760   -0.9860 H   0  0  0  0  0  0  0  0  0  0  0  0
   72.4530   39.5798   -0.1781 H   0  0  0  0  0  0  0  0  0  0  0  0
   69.5219   37.5937    0.8997 H   0  0  0  0  0  0  0  0  0  0  0  0
  1  2  1  0
  2  3  1  0
  3  4  2  0
  4  5  1  0
  5  6  2  0
  6  7  1  0
  7  8  1  0
  8  9  1  0
  9 10  2  0
 10 11  1  0
 11 12  2  0
 12 13  1  0
 13 14  1  0
 13 15  2  0
 15 16  1  0
 16 17  2  0
 16 18  1  0
 18 19  1  0
  6 20  1  0
 20 21  2  0
 21 22  1  0
 22 23  1  0
 22 24  1  0
 21  3  1  0
 18  7  2  0
 15  9  1  0
  1 25  1  0
  1 26  1  0
  1 27  1  0
  2 28  1  0
  2 29  1  0
  4 30  1  0
  5 31  1  0
 10 32  1  0
 11 33  1  0
 12 34  1  0
 14 35  1  0
 19 36  1  0
 20 37  1  0
 22 38  1  0
M  END
>  <meeko>  (3) 
{"is_sidechain": [false], "free_energy": -7.77, "intermolecular_energy": -9.793, "internal_energy": -0.168}

$$$$
cand_030_out
     RDKit          3D

 38 40  0  0  0  0  0  0  0  0999 V2000
   76.3990   42.7390   -6.5390 C   0  0  0  0  0  0  0  0  0  0  0  0
   75.7660   43.6030   -5.4580 C   0  0  0  0  0  0  0  0  0  0  0  0
   74.8490   42.8040   -4.5570 C   0  0  0  0  0  0  0  0  0  0  0  0
   73.6280   42.3520   -5.0860 C   0  0  0  0  0  0  0  0  0  0  0  0
   72.7330   41.6160   -4.3070 C   0  0  0  0  0  0  0  0  0  0  0  0
   73.0340   41.3040   -2.9770 C   0  0  0  0  0  0  0  0  0  0  0  0
   72.0680   40.5400   -2.1630 C   0  0  0  0  0  0  0  0  0  0  0  0
   72.6430   39.4490   -1.5210 O   0  0  0  0  0  0  0  0  0  0  0  0
   71.8520   38.6510   -0.7340 C   0  0  0  0  0  0  0  0  0  0  0  0
   72.4670   37.5580   -0.1220 C   0  0  0  0  0  0  0  0  0  0  0  0
   71.7190   36.7070    0.6950 C   0  0  0  0  0  0  0  0  0  0  0  0
   70.3590   36.9490    0.9010 C   0  0  0  0  0  0  0  0  0  0  0  0
   69.7490   38.0420    0.2890 C   0  0  0  0  0  0  0  0  0  0  0  0
   68.4150   38.2210    0.5330 O   0  0  0  0  0  0  0  0  0  0  0  0
   70.4970   38.8920   -0.5300 C   0  0  0  0  0  0  0  0  0  0  0  0
   69.8940   40.0510   -1.1910 C   0  0  0  0  0  0  0  0  0  0  0  0
   68.7070   40.3350   -1.0540 O   0  0  0  0  0  0  0  0  0  0  0  0
   70.7730   40.8850   -2.0430 C   0  0  0  0  0  0  0  0  0  0  0  0
   70.1990   41.9850   -2.6550 O   0  0  0  0  0  0  0  0  0  0  0  0
   74.2440   41.7690   -2.4420 C   0  0  0  0  0  0  0  0  0  0  0  0
   75.1580   42.5190   -3.2110 C   0  0  0  0  0  0  0  0  0  0  0  0
   76.4570   42.9550   -2.5700 C   0  0  0  0  0  0  0  0  0  0  0  0
   76.4670   44.2720   -2.2210 F   0  0  0  0  0  0  0  0  0  0  0  0
   76.7530   42.2790   -1.4220 F   0  0  0  0  0  0  0  0  0  0  0  0
   76.9869   41.9365   -6.0695 H   0  0  0  0  0  0  0  0  0  0  0  0
   75.6093   42.2972   -7.1644 H   0  0  0  0  0  0  0  0  0  0  0  0
   77.0583   43.3588   -7.1644 H   0  0  0  0  0  0  0  0  0  0  0  0
   76.5646   44.0484   -4.8466 H   0  0  0  0  0  0  0  0  0  0  0  0
   75.1637   44.3790   -5.9531 H   0  0  0  0  0  0  0  0  0  0  0  0
   73.3732   42.5819   -6.1311 H   0  0  0  0  0  0  0  0  0  0  0  0
   71.7816   41.2781   -4.7436 H   0  0  0  0  0  0  0  0  0  0  0  0
   73.5383   37.3670   -0.2826 H   0  0  0  0  0  0  0  0  0  0  0  0
   72.2021   35.8444    1.1772 H   0  0  0  0  0  0  0  0  0  0  0  0
   69.7709   36.2784    1.5448 H   0  0  0  0  0  0  0  0  0  0  0  0
   67.8300   37.4900    0.4980 H   0  0  0  0  0  0  0  0  0  0  0  0
   69.6090   41.8660   -3.3720 H   0  0  0  0  0  0  0  0  0  0  0  0
   74.4871   41.5425   -1.3934 H   0  0  0  0  0  0  0  0  0  0  0  0
   77.1969   42.7415   -3.3555 H   0  0  0  0  0  0  0  0  0  0  0  0
  1  2  1  0
  2  3  1  0
  3  4  2  0
  4  5  1  0
  5  6  2  0
  6  7  1  0
  7  8  1  0
  8  9  1  0
  9 10  2  0
 10 11  1  0
 11 12  2  0
 12 13  1  0
 13 14  1  0
 13 15  2  0
 15 16  1  0
 16 17  2  0
 16 18  1  0
 18 19  1  0
  6 20  1  0
 20 21  2  0
 21 22  1  0
 22 23  1  0
 22 24  1  0
 21  3  1  0
 18  7  2  0
 15  9  1  0
  1 25  1  0
  1 26  1  0
  1 27  1  0
  2 28  1  0
  2 29  1  0
  4 30  1  0
  5 31  1  0
 10 32  1  0
 11 33  1  0
 12 34  1  0
 14 35  1  0
 19 36  1  0
 20 37  1  0
 22 38  1  0
M  END
>  <meeko>  (4) 
{"is_sidechain": [false], "free_energy": -7.758, "intermolecular_energy": -9.524, "internal_energy": -0.422}

$$$$
cand_030_out
     RDKit          3D

 38 40  0  0  0  0  0  0  0  0999 V2000
   75.6120   46.7210   -2.9410 C   0  0  0  0  0  0  0  0  0  0  0  0
   75.7500   45.3460   -3.5790 C   0  0  0  0  0  0  0  0  0  0  0  0
   74.5500   44.4670   -3.2990 C   0  0  0  0  0  0  0  0  0  0  0  0
   73.2750   44.9660   -3.6120 C   0  0  0  0  0  0  0  0  0  0  0  0
   72.1260   44.2090   -3.3740 C   0  0  0  0  0  0  0  0  0  0  0  0
   72.2190   42.9280   -2.8180 C   0  0  0  0  0  0  0  0  0  0  0  0
   70.9920   42.1490   -2.5560 C   0  0  0  0  0  0  0  0  0  0  0  0
   71.0870   41.3550   -1.4190 O   0  0  0  0  0  0  0  0  0  0  0  0
   70.0140   40.5760   -1.0630 C   0  0  0  0  0  0  0  0  0  0  0  0
   70.1590   39.7820    0.0750 C   0  0  0  0  0  0  0  0  0  0  0  0
   69.1050   38.9670    0.4930 C   0  0  0  0  0  0  0  0  0  0  0  0
   67.9070   38.9470   -0.2250 C   0  0  0  0  0  0  0  0  0  0  0  0
   67.7660   39.7410   -1.3610 C   0  0  0  0  0  0  0  0  0  0  0  0
   66.5670   39.6740   -2.0160 O   0  0  0  0  0  0  0  0  0  0  0  0
   68.8220   40.5550   -1.7790 C   0  0  0  0  0  0  0  0  0  0  0  0
   68.7140   41.4050   -2.9670 C   0  0  0  0  0  0  0  0  0  0  0  0
   67.6920   41.4490   -3.6470 O   0  0  0  0  0  0  0  0  0  0  0  0
   69.8930   42.2250   -3.3300 C   0  0  0  0  0  0  0  0  0  0  0  0
   69.7810   43.0340   -4.4460 O   0  0  0  0  0  0  0  0  0  0  0  0
   73.4890   42.4360   -2.4880 C   0  0  0  0  0  0  0  0  0  0  0  0
   74.6600   43.1870   -2.7160 C   0  0  0  0  0  0  0  0  0  0  0  0
   75.9960   42.5720   -2.3630 C   0  0  0  0  0  0  0  0  0  0  0  0
   76.3520   42.7730   -1.0630 F   0  0  0  0  0  0  0  0  0  0  0  0
   76.0380   41.2200   -2.5410 F   0  0  0  0  0  0  0  0  0  0  0  0
   75.6222   46.6197   -1.8457 H   0  0  0  0  0  0  0  0  0  0  0  0
   76.4507   47.3582   -3.2581 H   0  0  0  0  0  0  0  0  0  0  0  0
   74.6634   47.1788   -3.2581 H   0  0  0  0  0  0  0  0  0  0  0  0
   75.8541   45.4684   -4.6672 H   0  0  0  0  0  0  0  0  0  0  0  0
   76.6361   44.8585   -3.1464 H   0  0  0  0  0  0  0  0  0  0  0  0
   73.1800   45.9697   -4.0519 H   0  0  0  0  0  0  0  0  0  0  0  0
   71.1386   44.6233   -3.6258 H   0  0  0  0  0  0  0  0  0  0  0  0
   71.1016   39.7980    0.6418 H   0  0  0  0  0  0  0  0  0  0  0  0
   69.2183   38.3396    1.3894 H   0  0  0  0  0  0  0  0  0  0  0  0
   67.0767   38.3057    0.1058 H   0  0  0  0  0  0  0  0  0  0  0  0
   65.9390   39.0210   -1.7770 H   0  0  0  0  0  0  0  0  0  0  0  0
   68.9630   43.0930   -4.9000 H   0  0  0  0  0  0  0  0  0  0  0  0
   73.5745   41.4357   -2.0384 H   0  0  0  0  0  0  0  0  0  0  0  0
   76.6859   43.0818   -3.0516 H   0  0  0  0  0  0  0  0  0  0  0  0
  1  2  1  0
  2  3  1  0
  3  4  2  0
  4  5  1  0
  5  6  2  0
  6  7  1  0
  7  8  1  0
  8  9  1  0
  9 10  2  0
 10 11  1  0
 11 12  2  0
 12 13  1  0
 13 14  1  0
 13 15  2  0
 15 16  1  0
 16 17  2  0
 16 18  1  0
 18 19  1  0
  6 20  1  0
 20 21  2  0
 21 22  1  0
 22 23  1  0
 22 24  1  0
 21  3  1  0
 18  7  2  0
 15  9  1  0
  1 25  1  0
  1 26  1  0
  1 27  1  0
  2 28  1  0
  2 29  1  0
  4 30  1  0
  5 31  1  0
 10 32  1  0
 11 33  1  0
 12 34  1  0
 14 35  1  0
 19 36  1  0
 20 37  1  0
 22 38  1  0
M  END
>  <meeko>  (5) 
{"is_sidechain": [false], "free_energy": -7.746, "intermolecular_energy": -9.74, "internal_energy": -0.191}

$$$$
cand_030_out
     RDKit          3D

 38 40  0  0  0  0  0  0  0  0999 V2000
   77.5800   44.9950   -3.8670 C   0  0  0  0  0  0  0  0  0  0  0  0
   77.5230   43.5360   -4.2940 C   0  0  0  0  0  0  0  0  0  0  0  0
   76.3190   42.8220   -3.7180 C   0  0  0  0  0  0  0  0  0  0  0  0
   76.2740   42.6150   -2.3280 C   0  0  0  0  0  0  0  0  0  0  0  0
   75.1960   41.9580   -1.7320 C   0  0  0  0  0  0  0  0  0  0  0  0
   74.1290   41.4910   -2.5070 C   0  0  0  0  0  0  0  0  0  0  0  0
   73.0050   40.7820   -1.8620 C   0  0  0  0  0  0  0  0  0  0  0  0
   73.3760   39.5550   -1.3250 O   0  0  0  0  0  0  0  0  0  0  0  0
   72.4230   38.7910   -0.6980 C   0  0  0  0  0  0  0  0  0  0  0  0
   72.8350   37.5590   -0.1890 C   0  0  0  0  0  0  0  0  0  0  0  0
   71.9150   36.7340    0.4630 C   0  0  0  0  0  0  0  0  0  0  0  0
   70.5860   37.1400    0.6050 C   0  0  0  0  0  0  0  0  0  0  0  0
   70.1790   38.3710    0.0960 C   0  0  0  0  0  0  0  0  0  0  0  0
   68.8650   38.7070    0.2710 O   0  0  0  0  0  0  0  0  0  0  0  0
   71.0990   39.1960   -0.5570 C   0  0  0  0  0  0  0  0  0  0  0  0
   70.7120   40.4960   -1.1060 C   0  0  0  0  0  0  0  0  0  0  0  0
   69.5660   40.9280   -1.0150 O   0  0  0  0  0  0  0  0  0  0  0  0
   71.7610   41.2910   -1.7870 C   0  0  0  0  0  0  0  0  0  0  0  0
   71.3910   42.5230   -2.2920 O   0  0  0  0  0  0  0  0  0  0  0  0
   74.1800   41.6810   -3.8950 C   0  0  0  0  0  0  0  0  0  0  0  0
   75.2630   42.3370   -4.5160 C   0  0  0  0  0  0  0  0  0  0  0  0
   75.2290   42.5310   -6.0160 C   0  0  0  0  0  0  0  0  0  0  0  0
   76.2220   41.8630   -6.6660 F   0  0  0  0  0  0  0  0  0  0  0  0
   74.0700   42.1030   -6.5950 F   0  0  0  0  0  0  0  0  0  0  0  0
   77.5824   45.0558   -2.7687 H   0  0  0  0  0  0  0  0  0  0  0  0
   78.4969   45.4570   -4.2618 H   0  0  0  0  0  0  0  0  0  0  0  0
   76.7020   45.5272   -4.2618 H   0  0  0  0  0  0  0  0  0  0  0  0
   77.4717   43.4892   -5.3918 H   0  0  0  0  0  0  0  0  0  0  0  0
   78.4269   43.0362   -3.9156 H   0  0  0  0  0  0  0  0  0  0  0  0
   77.1016   42.9766   -1.7000 H   0  0  0  0  0  0  0  0  0  0  0  0
   75.1855   41.8061   -0.6426 H   0  0  0  0  0  0  0  0  0  0  0  0
   73.8812   37.2381   -0.3007 H   0  0  0  0  0  0  0  0  0  0  0  0
   72.2380   35.7625    0.8654 H   0  0  0  0  0  0  0  0  0  0  0  0
   69.8625   36.4890    1.1176 H   0  0  0  0  0  0  0  0  0  0  0  0
   68.1950   38.2200   -0.1660 H   0  0  0  0  0  0  0  0  0  0  0  0
   71.7690   42.8330   -3.0930 H   0  0  0  0  0  0  0  0  0  0  0  0
   73.3527   41.3082   -4.5167 H   0  0  0  0  0  0  0  0  0  0  0  0
   75.3433   43.6200   -6.1210 H   0  0  0  0  0  0  0  0  0  0  0  0
  1  2  1  0
  2  3  1  0
  3  4  2  0
  4  5  1  0
  5  6  2  0
  6  7  1  0
  7  8  1  0
  8  9  1  0
  9 10  2  0
 10 11  1  0
 11 12  2  0
 12 13  1  0
 13 14  1  0
 13 15  2  0
 15 16  1  0
 16 17  2  0
 16 18  1  0
 18 19  1  0
  6 20  1  0
 20 21  2  0
 21 22  1  0
 22 23  1  0
 22 24  1  0
 21  3  1  0
 18  7  2  0
 15  9  1  0
  1 25  1  0
  1 26  1  0
  1 27  1  0
  2 28  1  0
  2 29  1  0
  4 30  1  0
  5 31  1  0
 10 32  1  0
 11 33  1  0
 12 34  1  0
 14 35  1  0
 19 36  1  0
 20 37  1  0
 22 38  1  0
M  END
>  <meeko>  (6) 
{"is_sidechain": [false], "free_energy": -7.697, "intermolecular_energy": -9.296, "internal_energy": -0.574}

$$$$
cand_030_out
     RDKit          3D

 38 40  0  0  0  0  0  0  0  0999 V2000
   70.6640   37.5050    0.4040 C   0  0  0  0  0  0  0  0  0  0  0  0
   70.1090   38.8270   -0.1040 C   0  0  0  0  0  0  0  0  0  0  0  0
   71.0840   39.5400   -1.0170 C   0  0  0  0  0  0  0  0  0  0  0  0
   72.0860   38.7770   -1.6410 C   0  0  0  0  0  0  0  0  0  0  0  0
   73.0210   39.3730   -2.4900 C   0  0  0  0  0  0  0  0  0  0  0  0
   72.9790   40.7480   -2.7450 C   0  0  0  0  0  0  0  0  0  0  0  0
   73.9870   41.3640   -3.6320 C   0  0  0  0  0  0  0  0  0  0  0  0
   73.4580   41.7750   -4.8500 O   0  0  0  0  0  0  0  0  0  0  0  0
   74.2910   42.3610   -5.7690 C   0  0  0  0  0  0  0  0  0  0  0  0
   73.7230   42.7420   -6.9850 C   0  0  0  0  0  0  0  0  0  0  0  0
   74.5150   43.3470   -7.9640 C   0  0  0  0  0  0  0  0  0  0  0  0
   75.8730   43.5710   -7.7270 C   0  0  0  0  0  0  0  0  0  0  0  0
   76.4370   43.1890   -6.5120 C   0  0  0  0  0  0  0  0  0  0  0  0
   77.7720   43.4380   -6.3460 O   0  0  0  0  0  0  0  0  0  0  0  0
   75.6440   42.5830   -5.5330 C   0  0  0  0  0  0  0  0  0  0  0  0
   76.1980   42.1670   -4.2440 C   0  0  0  0  0  0  0  0  0  0  0  0
   77.3800   42.3360   -3.9570 O   0  0  0  0  0  0  0  0  0  0  0  0
   75.2750   41.5260   -3.2780 C   0  0  0  0  0  0  0  0  0  0  0  0
   75.8020   41.1470   -2.0570 O   0  0  0  0  0  0  0  0  0  0  0  0
   71.9900   41.5130   -2.1100 C   0  0  0  0  0  0  0  0  0  0  0  0
   71.0410   40.9310   -1.2450 C   0  0  0  0  0  0  0  0  0  0  0  0
   69.9860   41.8190   -0.6240 C   0  0  0  0  0  0  0  0  0  0  0  0
   70.3270   43.1380   -0.6230 F   0  0  0  0  0  0  0  0  0  0  0  0
   68.7810   41.7610   -1.2610 F   0  0  0  0  0  0  0  0  0  0  0  0
   70.6637   37.5057    1.5040 H   0  0  0  0  0  0  0  0  0  0  0  0
   70.0367   36.6790    0.0377 H   0  0  0  0  0  0  0  0  0  0  0  0
   71.6929   37.3743    0.0377 H   0  0  0  0  0  0  0  0  0  0  0  0
   69.1802   38.6317   -0.6600 H   0  0  0  0  0  0  0  0  0  0  0  0
   69.9243   39.4740    0.7662 H   0  0  0  0  0  0  0  0  0  0  0  0
   72.1345   37.6935   -1.4577 H   0  0  0  0  0  0  0  0  0  0  0  0
   73.7984   38.7551   -2.9631 H   0  0  0  0  0  0  0  0  0  0  0  0
   72.6534   42.5663   -7.1726 H   0  0  0  0  0  0  0  0  0  0  0  0
   74.0682   43.6475   -8.9232 H   0  0  0  0  0  0  0  0  0  0  0  0
   76.4958   44.0480   -8.4981 H   0  0  0  0  0  0  0  0  0  0  0  0
   78.0530   44.2400   -5.9510 H   0  0  0  0  0  0  0  0  0  0  0  0
   75.3760   40.4840   -1.5490 H   0  0  0  0  0  0  0  0  0  0  0  0
   71.9537   42.5973   -2.2919 H   0  0  0  0  0  0  0  0  0  0  0  0
   69.9106   41.4238    0.3998 H   0  0  0  0  0  0  0  0  0  0  0  0
  1  2  1  0
  2  3  1  0
  3  4  2  0
  4  5  1  0
  5  6  2  0
  6  7  1  0
  7  8  1  0
  8  9  1  0
  9 10  2  0
 10 11  1  0
 11 12  2  0
 12 13  1  0
 13 14  1  0
 13 15  2  0
 15 16  1  0
 16 17  2  0
 16 18  1  0
 18 19  1  0
  6 20  1  0
 20 21  2  0
 21 22  1  0
 22 23  1  0
 22 24  1  0
 21  3  1  0
 18  7  2  0
 15  9  1  0
  1 25  1  0
  1 26  1  0
  1 27  1  0
  2 28  1  0
  2 29  1  0
  4 30  1  0
  5 31  1  0
 10 32  1  0
 11 33  1  0
 12 34  1  0
 14 35  1  0
 19 36  1  0
 20 37  1  0
 22 38  1  0
M  END
>  <meeko>  (7) 
{"is_sidechain": [false], "free_energy": -7.688, "intermolecular_energy": -9.258, "internal_energy": -0.601}

$$$$
cand_030_out
     RDKit          3D

 38 40  0  0  0  0  0  0  0  0999 V2000
   72.4310   46.5010   -6.1400 C   0  0  0  0  0  0  0  0  0  0  0  0
   73.6820   45.7650   -5.6840 C   0  0  0  0  0  0  0  0  0  0  0  0
   73.3510   44.5380   -4.8610 C   0  0  0  0  0  0  0  0  0  0  0  0
   72.7550   44.7250   -3.6020 C   0  0  0  0  0  0  0  0  0  0  0  0
   72.4300   43.6360   -2.7890 C   0  0  0  0  0  0  0  0  0  0  0  0
   72.6870   42.3290   -3.2140 C   0  0  0  0  0  0  0  0  0  0  0  0
   72.3530   41.1900   -2.3340 C   0  0  0  0  0  0  0  0  0  0  0  0
   70.9960   41.1080   -2.0450 O   0  0  0  0  0  0  0  0  0  0  0  0
   70.5520   40.0950   -1.2330 C   0  0  0  0  0  0  0  0  0  0  0  0
   69.1850   40.0610   -0.9550 C   0  0  0  0  0  0  0  0  0  0  0  0
   68.6670   39.0540   -0.1370 C   0  0  0  0  0  0  0  0  0  0  0  0
   69.5140   38.0830    0.4020 C   0  0  0  0  0  0  0  0  0  0  0  0
   70.8780   38.1200    0.1220 C   0  0  0  0  0  0  0  0  0  0  0  0
   71.6500   37.1390    0.6820 O   0  0  0  0  0  0  0  0  0  0  0  0
   71.3960   39.1290   -0.6950 C   0  0  0  0  0  0  0  0  0  0  0  0
   72.8230   39.2040   -1.0140 C   0  0  0  0  0  0  0  0  0  0  0  0
   73.6310   38.3840   -0.5850 O   0  0  0  0  0  0  0  0  0  0  0  0
   73.2720   40.3160   -1.8830 C   0  0  0  0  0  0  0  0  0  0  0  0
   74.6190   40.3730   -2.1900 O   0  0  0  0  0  0  0  0  0  0  0  0
   73.2960   42.1410   -4.4620 C   0  0  0  0  0  0  0  0  0  0  0  0
   73.6370   43.2270   -5.2940 C   0  0  0  0  0  0  0  0  0  0  0  0
   74.2630   42.9400   -6.6410 C   0  0  0  0  0  0  0  0  0  0  0  0
   75.2890   42.0460   -6.5770 F   0  0  0  0  0  0  0  0  0  0  0  0
   73.3880   42.4170   -7.5480 F   0  0  0  0  0  0  0  0  0  0  0  0
   71.8616   46.8360   -5.2605 H   0  0  0  0  0  0  0  0  0  0  0  0
   72.7189   47.3737   -6.7446 H   0  0  0  0  0  0  0  0  0  0  0  0
   71.8080   45.8255   -6.7446 H   0  0  0  0  0  0  0  0  0  0  0  0
   74.2539   45.4540   -6.5707 H   0  0  0  0  0  0  0  0  0  0  0  0
   74.2672   46.4495   -5.0524 H   0  0  0  0  0  0  0  0  0  0  0  0
   72.5409   45.7452   -3.2509 H   0  0  0  0  0  0  0  0  0  0  0  0
   71.9678   43.8085   -1.8058 H   0  0  0  0  0  0  0  0  0  0  0  0
   68.5169   40.8252   -1.3789 H   0  0  0  0  0  0  0  0  0  0  0  0
   67.5896   39.0257    0.0831 H   0  0  0  0  0  0  0  0  0  0  0  0
   69.1048   37.2908    1.0462 H   0  0  0  0  0  0  0  0  0  0  0  0
   72.5820   37.1740    0.6000 H   0  0  0  0  0  0  0  0  0  0  0  0
   75.0120   39.6920   -2.6990 H   0  0  0  0  0  0  0  0  0  0  0  0
   73.5140   41.1178   -4.8019 H   0  0  0  0  0  0  0  0  0  0  0  0
   74.6155   43.9322   -6.9593 H   0  0  0  0  0  0  0  0  0  0  0  0
  1  2  1  0
  2  3  1  0
  3  4  2  0
  4  5  1  0
  5  6  2  0
  6  7  1  0
  7  8  1  0
  8  9  1  0
  9 10  2  0
 10 11  1  0
 11 12  2  0
 12 13  1  0
 13 14  1  0
 13 15  2  0
 15 16  1  0
 16 17  2  0
 16 18  1  0
 18 19  1  0
  6 20  1  0
 20 21  2  0
 21 22  1  0
 22 23  1  0
 22 24  1  0
 21  3  1  0
 18  7  2  0
 15  9  1  0
  1 25  1  0
  1 26  1  0
  1 27  1  0
  2 28  1  0
  2 29  1  0
  4 30  1  0
  5 31  1  0
 10 32  1  0
 11 33  1  0
 12 34  1  0
 14 35  1  0
 19 36  1  0
 20 37  1  0
 22 38  1  0
M  END
>  <meeko>  (8) 
{"is_sidechain": [false], "free_energy": -7.663, "intermolecular_energy": -9.315, "internal_energy": -0.513}

$$$$
cand_030_out
     RDKit          3D

 38 40  0  0  0  0  0  0  0  0999 V2000
   71.2310   36.3570    1.2300 C   0  0  0  0  0  0  0  0  0  0  0  0
   70.2750   37.3920    0.6550 C   0  0  0  0  0  0  0  0  0  0  0  0
   70.9810   38.3720   -0.2570 C   0  0  0  0  0  0  0  0  0  0  0  0
   72.3240   38.1220   -0.5870 C   0  0  0  0  0  0  0  0  0  0  0  0
   73.0350   38.9890   -1.4190 C   0  0  0  0  0  0  0  0  0  0  0  0
   72.4240   40.1290   -1.9500 C   0  0  0  0  0  0  0  0  0  0  0  0
   73.1970   41.0450   -2.8140 C   0  0  0  0  0  0  0  0  0  0  0  0
   74.2400   41.6720   -2.1420 O   0  0  0  0  0  0  0  0  0  0  0  0
   75.0350   42.5530   -2.8310 C   0  0  0  0  0  0  0  0  0  0  0  0
   76.0600   43.1730   -2.1140 C   0  0  0  0  0  0  0  0  0  0  0  0
   76.9080   44.0790   -2.7560 C   0  0  0  0  0  0  0  0  0  0  0  0
   76.7330   44.3630   -4.1120 C   0  0  0  0  0  0  0  0  0  0  0  0
   75.7090   43.7430   -4.8240 C   0  0  0  0  0  0  0  0  0  0  0  0
   75.5940   44.0660   -6.1480 O   0  0  0  0  0  0  0  0  0  0  0  0
   74.8600   42.8370   -4.1810 C   0  0  0  0  0  0  0  0  0  0  0  0
   73.7730   42.1630   -4.8940 C   0  0  0  0  0  0  0  0  0  0  0  0
   73.5590   42.3550   -6.0880 O   0  0  0  0  0  0  0  0  0  0  0  0
   72.9250   41.2280   -4.1200 C   0  0  0  0  0  0  0  0  0  0  0  0
   71.9080   40.5850   -4.8010 O   0  0  0  0  0  0  0  0  0  0  0  0
   71.0890   40.3890   -1.6090 C   0  0  0  0  0  0  0  0  0  0  0  0
   70.3560   39.5290   -0.7660 C   0  0  0  0  0  0  0  0  0  0  0  0
   68.9100   39.8620   -0.4720 C   0  0  0  0  0  0  0  0  0  0  0  0
   68.5090   41.0430   -1.0200 F   0  0  0  0  0  0  0  0  0  0  0  0
   68.0300   38.9320   -0.9410 F   0  0  0  0  0  0  0  0  0  0  0  0
   71.1955   36.3955    2.3288 H   0  0  0  0  0  0  0  0  0  0  0  0
   70.9345   35.3543    0.8884 H   0  0  0  0  0  0  0  0  0  0  0  0
   72.2541   36.5731    0.8884 H   0  0  0  0  0  0  0  0  0  0  0  0
   69.4931   36.8730    0.0812 H   0  0  0  0  0  0  0  0  0  0  0  0
   69.8438   37.9586    1.4934 H   0  0  0  0  0  0  0  0  0  0  0  0
   72.8231   37.2288   -0.1833 H   0  0  0  0  0  0  0  0  0  0  0  0
   74.0865   38.7730   -1.6592 H   0  0  0  0  0  0  0  0  0  0  0  0
   76.1996   42.9487   -1.0462 H   0  0  0  0  0  0  0  0  0  0  0  0
   77.7151   44.5696   -2.1922 H   0  0  0  0  0  0  0  0  0  0  0  0
   77.4025   45.0749   -4.6168 H   0  0  0  0  0  0  0  0  0  0  0  0
   74.7470   44.1590   -6.5360 H   0  0  0  0  0  0  0  0  0  0  0  0
   72.0200   40.3600   -5.7040 H   0  0  0  0  0  0  0  0  0  0  0  0
   70.6001   41.2889   -2.0104 H   0  0  0  0  0  0  0  0  0  0  0  0
   68.8911   39.9032    0.6271 H   0  0  0  0  0  0  0  0  0  0  0  0
  1  2  1  0
  2  3  1  0
  3  4  2  0
  4  5  1  0
  5  6  2  0
  6  7  1  0
  7  8  1  0
  8  9  1  0
  9 10  2  0
 10 11  1  0
 11 12  2  0
 12 13  1  0
 13 14  1  0
 13 15  2  0
 15 16  1  0
 16 17  2  0
 16 18  1  0
 18 19  1  0
  6 20  1  0
 20 21  2  0
 21 22  1  0
 22 23  1  0
 22 24  1  0
 21  3  1  0
 18  7  2  0
 15  9  1  0
  1 25  1  0
  1 26  1  0
  1 27  1  0
  2 28  1  0
  2 29  1  0
  4 30  1  0
  5 31  1  0
 10 32  1  0
 11 33  1  0
 12 34  1  0
 14 35  1  0
 19 36  1  0
 20 37  1  0
 22 38  1  0
M  END
>  <meeko>  (9) 
{"is_sidechain": [false], "free_energy": -7.609, "intermolecular_energy": -9.233, "internal_energy": -0.529}

$$$$
