cand_046_out
     RDKit          3D

 39 41  0  0  0  0  0  0  0  0999 V2000
   69.7840   43.0110   -1.0130 C   0  0  0  0  0  0  0  0  0  0  0  0
   70.2180   41.8470   -0.5130 C   0  0  0  0  0  0  0  0  0  0  0  0
   71.1430   40.9560   -1.2300 C   0  0  0  0  0  0  0  0  0  0  0  0
   72.1200   41.5210   -2.0700 C   0  0  0  0  0  0  0  0  0  0  0  0
   73.0540   40.7280   -2.7530 C   0  0  0  0  0  0  0  0  0  0  0  0
   74.0440   41.3640   -3.6490 C   0  0  0  0  0  0  0  0  0  0  0  0
   73.4910   41.7770   -4.8560 O   0  0  0  0  0  0  0  0  0  0  0  0
   74.3000   42.3860   -5.7810 C   0  0  0  0  0  0  0  0  0  0  0  0
   73.7060   42.7720   -6.9840 C   0  0  0  0  0  0  0  0  0  0  0  0
   74.4730   43.3990   -7.9700 C   0  0  0  0  0  0  0  0  0  0  0  0
   75.8310   43.6400   -7.7510 C   0  0  0  0  0  0  0  0  0  0  0  0
   76.4200   43.2550   -6.5500 C   0  0  0  0  0  0  0  0  0  0  0  0
   77.7540   43.5210   -6.4020 O   0  0  0  0  0  0  0  0  0  0  0  0
   75.6530   42.6260   -5.5650 C   0  0  0  0  0  0  0  0  0  0  0  0
   76.2330   42.2050   -4.2880 C   0  0  0  0  0  0  0  0  0  0  0  0
   77.4180   42.3880   -4.0200 O   0  0  0  0  0  0  0  0  0  0  0  0
   75.3360   41.5420   -3.3150 C   0  0  0  0  0  0  0  0  0  0  0  0
   75.8900   41.1600   -2.1070 O   0  0  0  0  0  0  0  0  0  0  0  0
   72.9930   39.3410   -2.5900 C   0  0  0  0  0  0  0  0  0  0  0  0
   72.0350   38.7650   -1.7520 C   0  0  0  0  0  0  0  0  0  0  0  0
   71.1010   39.5580   -1.0640 C   0  0  0  0  0  0  0  0  0  0  0  0
   70.0980   38.8670   -0.1670 C   0  0  0  0  0  0  0  0  0  0  0  0
   70.6540   37.5800    0.4250 C   0  0  0  0  0  0  0  0  0  0  0  0
   69.0918   43.6362   -0.4298 H   0  0  0  0  0  0  0  0  0  0  0  0
   70.1197   43.3420   -2.0069 H   0  0  0  0  0  0  0  0  0  0  0  0
   69.8653   41.5421    0.4833 H   0  0  0  0  0  0  0  0  0  0  0  0
   72.1523   42.6135   -2.1945 H   0  0  0  0  0  0  0  0  0  0  0  0
   72.6360   42.5830   -7.1556 H   0  0  0  0  0  0  0  0  0  0  0  0
   74.0068   43.7027   -8.9189 H   0  0  0  0  0  0  0  0  0  0  0  0
   76.4346   44.1336   -8.5269 H   0  0  0  0  0  0  0  0  0  0  0  0
   78.3010   43.6060   -7.1580 H   0  0  0  0  0  0  0  0  0  0  0  0
   76.6800   41.5640   -1.8070 H   0  0  0  0  0  0  0  0  0  0  0  0
   73.7057   38.6973   -3.1264 H   0  0  0  0  0  0  0  0  0  0  0  0
   72.0115   37.6722   -1.6287 H   0  0  0  0  0  0  0  0  0  0  0  0
   69.8276   39.5476    0.6538 H   0  0  0  0  0  0  0  0  0  0  0  0
   69.2190   38.6088   -0.7759 H   0  0  0  0  0  0  0  0  0  0  0  0
   70.6280   37.6403    1.5230 H   0  0  0  0  0  0  0  0  0  0  0  0
   70.0435   36.7285    0.0899 H   0  0  0  0  0  0  0  0  0  0  0  0
   71.6925   37.4409    0.0899 H   0  0  0  0  0  0  0  0  0  0  0  0
  1  2  2  0
  2  3  1  0
  3  4  2  0
  4  5  1  0
  5  6  1  0
  6  7  1  0
  7  8  1  0
  8  9  2  0
  9 10  1  0
 10 11  2  0
 11 12  1  0
 12 13  1  0
 12 14  2  0
 14 15  1  0
 15 16  2  0
 15 17  1  0
 17 18  1  0
  5 19  2  0
 19 20  1  0
 20 21  2  0
 21 22  1  0
 22 23  1  0
 21  3  1  0
 17  6  2  0
 14  8  1  0
  1 24  1  0
  1 25  1  0
  2 26  1  0
  4 27  1  0
  9 28  1  0
 10 29  1  0
 11 30  1  0
 13 31  1  0
 18 32  1  0
 19 33  1  0
 20 34  1  0
 22 35  1  0
 22 36  1  0
 23 37  1  0
 23 38  1  0
 23 39  1  0
M  END
>  <meeko>  (1) 
{"is_sidechain": [false], "free_energy": -7.576, "intermolecular_energy": -9.347, "internal_energy": -0.608}

$$$$
cand_046_out
     RDKit          3D

 39 41  0  0  0  0  0  0  0  0999 V2000
   76.2780   42.4690   -1.6900 C   0  0  0  0  0  0  0  0  0  0  0  0
   75.4970   43.2840   -2.4110 C   0  0  0  0  0  0  0  0  0  0  0  0
   74.4770   42.7980   -3.3520 C   0  0  0  0  0  0  0  0  0  0  0  0
   73.2410   42.3530   -2.8480 C   0  0  0  0  0  0  0  0  0  0  0  0
   72.2140   41.9120   -3.6950 C   0  0  0  0  0  0  0  0  0  0  0  0
   70.9420   41.4240   -3.1180 C   0  0  0  0  0  0  0  0  0  0  0  0
   71.1320   40.5760   -2.0330 O   0  0  0  0  0  0  0  0  0  0  0  0
   70.0340   40.0530   -1.4010 C   0  0  0  0  0  0  0  0  0  0  0  0
   70.2710   39.1960   -0.3260 C   0  0  0  0  0  0  0  0  0  0  0  0
   69.1950   38.6290    0.3640 C   0  0  0  0  0  0  0  0  0  0  0  0
   67.8860   38.9210   -0.0210 C   0  0  0  0  0  0  0  0  0  0  0  0
   67.6520   39.7770   -1.0940 C   0  0  0  0  0  0  0  0  0  0  0  0
   66.3450   40.0190   -1.4190 O   0  0  0  0  0  0  0  0  0  0  0  0
   68.7280   40.3420   -1.7850 C   0  0  0  0  0  0  0  0  0  0  0  0
   68.5270   41.2470   -2.9180 C   0  0  0  0  0  0  0  0  0  0  0  0
   67.4040   41.5560   -3.3120 O   0  0  0  0  0  0  0  0  0  0  0  0
   69.7330   41.7870   -3.5850 C   0  0  0  0  0  0  0  0  0  0  0  0
   69.5320   42.6520   -4.6450 O   0  0  0  0  0  0  0  0  0  0  0  0
   72.4440   41.9120   -5.0740 C   0  0  0  0  0  0  0  0  0  0  0  0
   73.6620   42.3590   -5.5920 C   0  0  0  0  0  0  0  0  0  0  0  0
   74.6910   42.8060   -4.7440 C   0  0  0  0  0  0  0  0  0  0  0  0
   75.9800   43.2830   -5.3740 C   0  0  0  0  0  0  0  0  0  0  0  0
   76.8690   42.1250   -5.8030 C   0  0  0  0  0  0  0  0  0  0  0  0
   77.0249   42.8903   -1.0010 H   0  0  0  0  0  0  0  0  0  0  0  0
   76.1725   41.3784   -1.7869 H   0  0  0  0  0  0  0  0  0  0  0  0
   75.6249   44.3702   -2.2934 H   0  0  0  0  0  0  0  0  0  0  0  0
   73.0759   42.3510   -1.7605 H   0  0  0  0  0  0  0  0  0  0  0  0
   71.3029   38.9666   -0.0216 H   0  0  0  0  0  0  0  0  0  0  0  0
   69.3807   37.9522    1.2110 H   0  0  0  0  0  0  0  0  0  0  0  0
   67.0398   38.4754    0.5226 H   0  0  0  0  0  0  0  0  0  0  0  0
   65.7060   40.1190   -0.7420 H   0  0  0  0  0  0  0  0  0  0  0  0
   70.1430   43.3440   -4.8070 H   0  0  0  0  0  0  0  0  0  0  0  0
   71.6587   41.5568   -5.7574 H   0  0  0  0  0  0  0  0  0  0  0  0
   73.8187   42.3614   -6.6808 H   0  0  0  0  0  0  0  0  0  0  0  0
   75.7390   43.8918   -6.2579 H   0  0  0  0  0  0  0  0  0  0  0  0
   76.5276   43.8707   -4.6226 H   0  0  0  0  0  0  0  0  0  0  0  0
   77.2613   41.6140   -4.9114 H   0  0  0  0  0  0  0  0  0  0  0  0
   76.2818   41.4150   -6.4039 H   0  0  0  0  0  0  0  0  0  0  0  0
   77.7066   42.5088   -6.4039 H   0  0  0  0  0  0  0  0  0  0  0  0
  1  2  2  0
  2  3  1  0
  3  4  2  0
  4  5  1  0
  5  6  1  0
  6  7  1  0
  7  8  1  0
  8  9  2  0
  9 10  1  0
 10 11  2  0
 11 12  1  0
 12 13  1  0
 12 14  2  0
 14 15  1  0
 15 16  2  0
 15 17  1  0
 17 18  1  0
  5 19  2  0
 19 20  1  0
 20 21  2  0
 21 22  1  0
 22 23  1  0
 21  3  1  0
 17  6  2  0
 14  8  1  0
  1 24  1  0
  1 25  1  0
  2 26  1  0
  4 27  1  0
  9 28  1  0
 10 29  1  0
 11 30  1  0
 13 31  1  0
 18 32  1  0
 19 33  1  0
 20 34  1  0
 22 35  1  0
 22 36  1  0
 23 37  1  0
 23 38  1  0
 23 39  1  0
M  END
>  <meeko>  (2) 
{"is_sidechain": [false], "free_energy": -7.527, "intermolecular_energy": -9.472, "internal_energy": -0.424}

$$$$
cand_046_out
     RDKit          3D

 39 41  0  0  0  0  0  0  0  0999 V2000
   67.9370   39.6950   -1.1610 C   0  0  0  0  0  0  0  0  0  0  0  0
   68.9280   39.4950   -0.2820 C   0  0  0  0  0  0  0  0  0  0  0  0
   70.3150   39.2130   -0.6830 C   0  0  0  0  0  0  0  0  0  0  0  0
   70.9810   40.1230   -1.5240 C   0  0  0  0  0  0  0  0  0  0  0  0
   72.3150   39.9300   -1.9120 C   0  0  0  0  0  0  0  0  0  0  0  0
   72.9650   40.8970   -2.8220 C   0  0  0  0  0  0  0  0  0  0  0  0
   73.9270   41.6740   -2.1870 O   0  0  0  0  0  0  0  0  0  0  0  0
   74.6090   42.6120   -2.9160 C   0  0  0  0  0  0  0  0  0  0  0  0
   75.5560   43.3790   -2.2350 C   0  0  0  0  0  0  0  0  0  0  0  0
   76.2880   44.3520   -2.9200 C   0  0  0  0  0  0  0  0  0  0  0  0
   76.0750   44.5560   -4.2840 C   0  0  0  0  0  0  0  0  0  0  0  0
   75.1300   43.7900   -4.9620 C   0  0  0  0  0  0  0  0  0  0  0  0
   74.9710   44.0430   -6.2980 O   0  0  0  0  0  0  0  0  0  0  0  0
   74.3970   42.8180   -4.2760 C   0  0  0  0  0  0  0  0  0  0  0  0
   73.3940   41.9900   -4.9500 C   0  0  0  0  0  0  0  0  0  0  0  0
   73.1540   42.1080   -6.1500 O   0  0  0  0  0  0  0  0  0  0  0  0
   72.6680   40.9930   -4.1320 C   0  0  0  0  0  0  0  0  0  0  0  0
   71.7340   40.2070   -4.7810 O   0  0  0  0  0  0  0  0  0  0  0  0
   72.9830   38.7920   -1.4490 C   0  0  0  0  0  0  0  0  0  0  0  0
   72.3400   37.8830   -0.6050 C   0  0  0  0  0  0  0  0  0  0  0  0
   71.0040   38.0780   -0.2120 C   0  0  0  0  0  0  0  0  0  0  0  0
   70.3740   37.0580    0.7100 C   0  0  0  0  0  0  0  0  0  0  0  0
   71.4120   36.3360    1.5560 C   0  0  0  0  0  0  0  0  0  0  0  0
   66.9178   39.9023   -0.8030 H   0  0  0  0  0  0  0  0  0  0  0  0
   68.1425   39.6519   -2.2408 H   0  0  0  0  0  0  0  0  0  0  0  0
   68.6932   39.5440    0.7915 H   0  0  0  0  0  0  0  0  0  0  0  0
   70.4410   41.0099   -1.8871 H   0  0  0  0  0  0  0  0  0  0  0  0
   75.7257   43.2174   -1.1602 H   0  0  0  0  0  0  0  0  0  0  0  0
   77.0331   44.9580   -2.3836 H   0  0  0  0  0  0  0  0  0  0  0  0
   76.6530   45.3211   -4.8231 H   0  0  0  0  0  0  0  0  0  0  0  0
   75.6830   44.3910   -6.7960 H   0  0  0  0  0  0  0  0  0  0  0  0
   71.4880   39.3780   -4.4200 H   0  0  0  0  0  0  0  0  0  0  0  0
   74.0247   38.6108   -1.7522 H   0  0  0  0  0  0  0  0  0  0  0  0
   72.8876   37.0007   -0.2421 H   0  0  0  0  0  0  0  0  0  0  0  0
   69.6668   37.5719    1.3777 H   0  0  0  0  0  0  0  0  0  0  0  0
   69.8619   36.3088    0.0883 H   0  0  0  0  0  0  0  0  0  0  0  0
   71.1887   36.4913    2.6218 H   0  0  0  0  0  0  0  0  0  0  0  0
   71.3860   35.2600    1.3289 H   0  0  0  0  0  0  0  0  0  0  0  0
   72.4118   36.7346    1.3289 H   0  0  0  0  0  0  0  0  0  0  0  0
  1  2  2  0
  2  3  1  0
  3  4  2  0
  4  5  1  0
  5  6  1  0
  6  7  1  0
  7  8  1  0
  8  9  2  0
  9 10  1  0
 10 11  2  0
 11 12  1  0
 12 13  1  0
 12 14  2  0
 14 15  1  0
 15 16  2  0
 15 17  1  0
 17 18  1  0
  5 19  2  0
 19 20  1  0
 20 21  2  0
 21 22  1  0
 22 23  1  0
 21  3  1  0
 17  6  2  0
 14  8  1  0
  1 24  1  0
  1 25  1  0
  2 26  1  0
  4 27  1  0
  9 28  1  0
 10 29  1  0
 11 30  1  0
 13 31  1  0
 18 32  1  0
 19 33  1  0
 20 34  1  0
 22 35  1  0
 22 36  1  0
 23 37  1  0
 23 38  1  0
 23 39  1  0
M  END
>  <meeko>  (3) 
{"is_sidechain": [false], "free_energy": -7.515, "intermolecular_energy": -9.315, "internal_energy": -0.566}

$$$$
cand_046_out
     RDKit          3D

 39 41  0  0  0  0  0  0  0  0999 V2000
   70.7510   37.2700    1.1020 C   0  0  0  0  0  0  0  0  0  0  0  0
   70.3970   38.5590    1.1800 C   0  0  0  0  0  0  0  0  0  0  0  0
   70.2770   39.4340    0.0040 C   0  0  0  0  0  0  0  0  0  0  0  0
   71.4300   40.0710   -0.4930 C   0  0  0  0  0  0  0  0  0  0  0  0
   71.3870   40.8890   -1.6320 C   0  0  0  0  0  0  0  0  0  0  0  0
   72.6180   41.5620   -2.1010 C   0  0  0  0  0  0  0  0  0  0  0  0
   72.4030   42.8850   -2.4690 O   0  0  0  0  0  0  0  0  0  0  0  0
   73.4620   43.6280   -2.9210 C   0  0  0  0  0  0  0  0  0  0  0  0
   73.1980   44.9470   -3.2920 C   0  0  0  0  0  0  0  0  0  0  0  0
   74.2340   45.7600   -3.7610 C   0  0  0  0  0  0  0  0  0  0  0  0
   75.5320   45.2540   -3.8550 C   0  0  0  0  0  0  0  0  0  0  0  0
   75.7930   43.9380   -3.4830 C   0  0  0  0  0  0  0  0  0  0  0  0
   77.0860   43.5070   -3.6020 O   0  0  0  0  0  0  0  0  0  0  0  0
   74.7560   43.1250   -3.0170 C   0  0  0  0  0  0  0  0  0  0  0  0
   74.9870   41.7360   -2.6150 C   0  0  0  0  0  0  0  0  0  0  0  0
   76.1020   41.2210   -2.6650 O   0  0  0  0  0  0  0  0  0  0  0  0
   73.8200   40.9570   -2.1410 C   0  0  0  0  0  0  0  0  0  0  0  0
   74.0520   39.6510   -1.7510 O   0  0  0  0  0  0  0  0  0  0  0  0
   70.1580   41.0730   -2.2720 C   0  0  0  0  0  0  0  0  0  0  0  0
   69.0070   40.4410   -1.7970 C   0  0  0  0  0  0  0  0  0  0  0  0
   69.0480   39.6180   -0.6590 C   0  0  0  0  0  0  0  0  0  0  0  0
   67.7640   38.9590   -0.2060 C   0  0  0  0  0  0  0  0  0  0  0  0
   66.5860   39.3370   -1.0910 C   0  0  0  0  0  0  0  0  0  0  0  0
   70.8244   36.6635    2.0167 H   0  0  0  0  0  0  0  0  0  0  0  0
   70.9684   36.8176    0.1232 H   0  0  0  0  0  0  0  0  0  0  0  0
   70.1856   38.9843    2.1722 H   0  0  0  0  0  0  0  0  0  0  0  0
   72.3891   39.9236    0.0250 H   0  0  0  0  0  0  0  0  0  0  0  0
   72.1760   45.3465   -3.2155 H   0  0  0  0  0  0  0  0  0  0  0  0
   74.0265   46.7991   -4.0562 H   0  0  0  0  0  0  0  0  0  0  0  0
   76.3474   45.8944   -4.2225 H   0  0  0  0  0  0  0  0  0  0  0  0
   77.2680   42.5930   -3.6970 H   0  0  0  0  0  0  0  0  0  0  0  0
   73.3320   39.0600   -1.6460 H   0  0  0  0  0  0  0  0  0  0  0  0
   70.0970   41.7218   -3.1582 H   0  0  0  0  0  0  0  0  0  0  0  0
   68.0522   40.5900   -2.3226 H   0  0  0  0  0  0  0  0  0  0  0  0
   67.8952   37.8673   -0.2367 H   0  0  0  0  0  0  0  0  0  0  0  0
   67.5465   39.3053    0.8152 H   0  0  0  0  0  0  0  0  0  0  0  0
   65.7275   39.6125   -0.4608 H   0  0  0  0  0  0  0  0  0  0  0  0
   66.8637   40.1911   -1.7261 H   0  0  0  0  0  0  0  0  0  0  0  0
   66.3149   38.4807   -1.7261 H   0  0  0  0  0  0  0  0  0  0  0  0
  1  2  2  0
  2  3  1  0
  3  4  2  0
  4  5  1  0
  5  6  1  0
  6  7  1  0
  7  8  1  0
  8  9  2  0
  9 10  1  0
 10 11  2  0
 11 12  1  0
 12 13  1  0
 12 14  2  0
 14 15  1  0
 15 16  2  0
 15 17  1  0
 17 18  1  0
  5 19  2  0
 19 20  1  0
 20 21  2  0
 21 22  1  0
 22 23  1  0
 21  3  1  0
 17  6  2  0
 14  8  1  0
  1 24  1  0
  1 25  1  0
  2 26  1  0
  4 27  1  0
  9 28  1  0
 10 29  1  0
 11 30  1  0
 13 31  1  0
 18 32  1  0
 19 33  1  0
 20 34  1  0
 22 35  1  0
 22 36  1  0
 23 37  1  0
 23 38  1  0
 23 39  1  0
M  END
>  <meeko>  (4) 
{"is_sidechain": [false], "free_energy": -7.5, "intermolecular_energy": -9.632, "internal_energy": -0.23}

$$$$
cand_046_out
     RDKit          3D

 39 41  0  0  0  0  0  0  0  0999 V2000
   76.3550   43.2600   -2.0320 C   0  0  0  0  0  0  0  0  0  0  0  0
   75.4240   43.7740   -2.8460 C   0  0  0  0  0  0  0  0  0  0  0  0
   74.3580   42.9690   -3.4620 C   0  0  0  0  0  0  0  0  0  0  0  0
   73.5510   42.1620   -2.6390 C   0  0  0  0  0  0  0  0  0  0  0  0
   72.4960   41.3990   -3.1610 C   0  0  0  0  0  0  0  0  0  0  0  0
   71.6930   40.5410   -2.2620 C   0  0  0  0  0  0  0  0  0  0  0  0
   72.4340   39.5110   -1.6960 O   0  0  0  0  0  0  0  0  0  0  0  0
   71.8120   38.6400   -0.8390 C   0  0  0  0  0  0  0  0  0  0  0  0
   72.5910   37.6130   -0.3040 C   0  0  0  0  0  0  0  0  0  0  0  0
   72.0190   36.6920    0.5780 C   0  0  0  0  0  0  0  0  0  0  0  0
   70.6710   36.8010    0.9250 C   0  0  0  0  0  0  0  0  0  0  0  0
   69.8970   37.8270    0.3910 C   0  0  0  0  0  0  0  0  0  0  0  0
   68.5830   37.8740    0.7730 O   0  0  0  0  0  0  0  0  0  0  0  0
   70.4690   38.7460   -0.4920 C   0  0  0  0  0  0  0  0  0  0  0  0
   69.6910   39.8410   -1.0770 C   0  0  0  0  0  0  0  0  0  0  0  0
   68.5010   40.0050   -0.8150 O   0  0  0  0  0  0  0  0  0  0  0  0
   70.3890   40.7570   -2.0060 C   0  0  0  0  0  0  0  0  0  0  0  0
   69.6490   41.7950   -2.5410 O   0  0  0  0  0  0  0  0  0  0  0  0
   72.2600   41.4460   -4.5380 C   0  0  0  0  0  0  0  0  0  0  0  0
   73.0460   42.2490   -5.3670 C   0  0  0  0  0  0  0  0  0  0  0  0
   74.1010   43.0180   -4.8460 C   0  0  0  0  0  0  0  0  0  0  0  0
   74.9050   43.8710   -5.8010 C   0  0  0  0  0  0  0  0  0  0  0  0
   75.6480   43.0310   -6.8290 C   0  0  0  0  0  0  0  0  0  0  0  0
   77.1287   43.9120   -1.6003 H   0  0  0  0  0  0  0  0  0  0  0  0
   76.3460   42.1858   -1.7951 H   0  0  0  0  0  0  0  0  0  0  0  0
   75.4582   44.8515   -3.0648 H   0  0  0  0  0  0  0  0  0  0  0  0
   73.7527   42.1286   -1.5582 H   0  0  0  0  0  0  0  0  0  0  0  0
   73.6535   37.5286   -0.5761 H   0  0  0  0  0  0  0  0  0  0  0  0
   72.6311   35.8808    0.9990 H   0  0  0  0  0  0  0  0  0  0  0  0
   70.2211   36.0766    1.6198 H   0  0  0  0  0  0  0  0  0  0  0  0
   68.3500   37.7180    1.6670 H   0  0  0  0  0  0  0  0  0  0  0  0
   69.6730   41.9600   -3.4640 H   0  0  0  0  0  0  0  0  0  0  0  0
   71.4477   40.8449   -4.9725 H   0  0  0  0  0  0  0  0  0  0  0  0
   72.8360   42.2803   -6.4463 H   0  0  0  0  0  0  0  0  0  0  0  0
   74.2224   44.5544   -6.3274 H   0  0  0  0  0  0  0  0  0  0  0  0
   75.6508   44.4271   -5.2140 H   0  0  0  0  0  0  0  0  0  0  0  0
   76.2914   42.3036   -6.3123 H   0  0  0  0  0  0  0  0  0  0  0  0
   74.9222   42.4959   -7.4590 H   0  0  0  0  0  0  0  0  0  0  0  0
   76.2677   43.6861   -7.4590 H   0  0  0  0  0  0  0  0  0  0  0  0
  1  2  2  0
  2  3  1  0
  3  4  2  0
  4  5  1  0
  5  6  1  0
  6  7  1  0
  7  8  1  0
  8  9  2  0
  9 10  1  0
 10 11  2  0
 11 12  1  0
 12 13  1  0
 12 14  2  0
 14 15  1  0
 15 16  2  0
 15 17  1  0
 17 18  1  0
  5 19  2  0
 19 20  1  0
 20 21  2  0
 21 22  1  0
 22 23  1  0
 21  3  1  0
 17  6  2  0
 14  8  1  0
  1 24  1  0
  1 25  1  0
  2 26  1  0
  4 27  1  0
  9 28  1  0
 10 29  1  0
 11 30  1  0
 13 31  1  0
 18 32  1  0
 19 33  1  0
 20 34  1  0
 22 35  1  0
 22 36  1  0
 23 37  1  0
 23 38  1  0
 23 39  1  0
M  END
>  <meeko>  (5) 
{"is_sidechain": [false], "free_energy": -7.453, "intermolecular_energy": -9.226, "internal_energy": -0.578}

$$$$
cand_046_out
     RDKit          3D

 39 41  0  0  0  0  0  0  0  0999 V2000
   67.1240   39.3970   -0.6950 C   0  0  0  0  0  0  0  0  0  0  0  0
   68.1580   38.9520    0.0320 C   0  0  0  0  0  0  0  0  0  0  0  0
   69.5580   39.0750   -0.4000 C   0  0  0  0  0  0  0  0  0  0  0  0
   69.9120   40.1160   -1.2790 C   0  0  0  0  0  0  0  0  0  0  0  0
   71.2370   40.3080   -1.6980 C   0  0  0  0  0  0  0  0  0  0  0  0
   71.5570   41.3960   -2.6470 C   0  0  0  0  0  0  0  0  0  0  0  0
   72.7630   42.0250   -2.3590 O   0  0  0  0  0  0  0  0  0  0  0  0
   73.1830   43.0530   -3.1630 C   0  0  0  0  0  0  0  0  0  0  0  0
   74.3920   43.6640   -2.8300 C   0  0  0  0  0  0  0  0  0  0  0  0
   74.8790   44.7180   -3.6090 C   0  0  0  0  0  0  0  0  0  0  0  0
   74.1580   45.1560   -4.7200 C   0  0  0  0  0  0  0  0  0  0  0  0
   72.9520   44.5440   -5.0510 C   0  0  0  0  0  0  0  0  0  0  0  0
   72.2960   45.0250   -6.1530 O   0  0  0  0  0  0  0  0  0  0  0  0
   72.4650   43.4920   -4.2710 C   0  0  0  0  0  0  0  0  0  0  0  0
   71.2020   42.8210   -4.5840 C   0  0  0  0  0  0  0  0  0  0  0  0
   70.5140   43.1470   -5.5490 O   0  0  0  0  0  0  0  0  0  0  0  0
   70.7710   41.7220   -3.6910 C   0  0  0  0  0  0  0  0  0  0  0  0
   69.5850   41.0850   -4.0030 O   0  0  0  0  0  0  0  0  0  0  0  0
   72.2170   39.4290   -1.2280 C   0  0  0  0  0  0  0  0  0  0  0  0
   71.8840   38.3970   -0.3480 C   0  0  0  0  0  0  0  0  0  0  0  0
   70.5580   38.2050    0.0770 C   0  0  0  0  0  0  0  0  0  0  0  0
   70.2710   37.0730    1.0380 C   0  0  0  0  0  0  0  0  0  0  0  0
   71.5340   36.3120    1.4160 C   0  0  0  0  0  0  0  0  0  0  0  0
   66.0966   39.2774   -0.3207 H   0  0  0  0  0  0  0  0  0  0  0  0
   67.3026   39.8819   -1.6661 H   0  0  0  0  0  0  0  0  0  0  0  0
   67.9492   38.4713    0.9991 H   0  0  0  0  0  0  0  0  0  0  0  0
   69.1297   40.7963   -1.6467 H   0  0  0  0  0  0  0  0  0  0  0  0
   74.9617   43.3169   -1.9554 H   0  0  0  0  0  0  0  0  0  0  0  0
   75.8310   45.2020   -3.3457 H   0  0  0  0  0  0  0  0  0  0  0  0
   74.5419   45.9841   -5.3339 H   0  0  0  0  0  0  0  0  0  0  0  0
   72.2860   45.9450   -6.3260 H   0  0  0  0  0  0  0  0  0  0  0  0
   69.5980   40.2240   -4.3730 H   0  0  0  0  0  0  0  0  0  0  0  0
   73.2603   39.5513   -1.5544 H   0  0  0  0  0  0  0  0  0  0  0  0
   72.6724   37.7232    0.0186 H   0  0  0  0  0  0  0  0  0  0  0  0
   69.8198   37.4882    1.9513 H   0  0  0  0  0  0  0  0  0  0  0  0
   69.5868   36.3700    0.5404 H   0  0  0  0  0  0  0  0  0  0  0  0
   71.6176   36.2616    2.5117 H   0  0  0  0  0  0  0  0  0  0  0  0
   71.4850   35.2929    1.0047 H   0  0  0  0  0  0  0  0  0  0  0  0
   72.4120   36.8315    1.0047 H   0  0  0  0  0  0  0  0  0  0  0  0
  1  2  2  0
  2  3  1  0
  3  4  2  0
  4  5  1  0
  5  6  1  0
  6  7  1  0
  7  8  1  0
  8  9  2  0
  9 10  1  0
 10 11  2  0
 11 12  1  0
 12 13  1  0
 12 14  2  0
 14 15  1  0
 15 16  2  0
 15 17  1  0
 17 18  1  0
  5 19  2  0
 19 20  1  0
 20 21  2  0
 21 22  1  0
 22 23  1  0
 21  3  1  0
 17  6  2  0
 14  8  1  0
  1 24  1  0
  1 25  1  0
  2 26  1  0
  4 27  1  0
  9 28  1  0
 10 29  1  0
 11 30  1  0
 13 31  1  0
 18 32  1  0
 19 33  1  0
 20 34  1  0
 22 35  1  0
 22 36  1  0
 23 37  1  0
 23 38  1  0
 23 39  1  0
M  END
>  <meeko>  (6) 
{"is_sidechain": [false], "free_energy": -7.446, "intermolecular_energy": -9.589, "internal_energy": -0.206}

$$$$
cand_046_out
     RDKit          3D

 39 41  0  0  0  0  0  0  0  0999 V2000
   73.2640   39.3120   -0.5910 C   0  0  0  0  0  0  0  0  0  0  0  0
   72.3280   39.6290    0.3120 C   0  0  0  0  0  0  0  0  0  0  0  0
   70.8870   39.6050    0.0220 C   0  0  0  0  0  0  0  0  0  0  0  0
   70.3470   40.5830   -0.8340 C   0  0  0  0  0  0  0  0  0  0  0  0
   68.9870   40.5930   -1.1780 C   0  0  0  0  0  0  0  0  0  0  0  0
   68.4580   41.6590   -2.0560 C   0  0  0  0  0  0  0  0  0  0  0  0
   67.5580   42.4950   -1.4070 O   0  0  0  0  0  0  0  0  0  0  0  0
   66.9920   43.5300   -2.1050 C   0  0  0  0  0  0  0  0  0  0  0  0
   66.0840   44.3370   -1.4180 C   0  0  0  0  0  0  0  0  0  0  0  0
   65.4710   45.4100   -2.0710 C   0  0  0  0  0  0  0  0  0  0  0  0
   65.7690   45.6760   -3.4090 C   0  0  0  0  0  0  0  0  0  0  0  0
   66.6760   44.8700   -4.0920 C   0  0  0  0  0  0  0  0  0  0  0  0
   66.9200   45.1870   -5.4010 O   0  0  0  0  0  0  0  0  0  0  0  0
   67.2860   43.7960   -3.4390 C   0  0  0  0  0  0  0  0  0  0  0  0
   68.2450   42.9240   -4.1200 C   0  0  0  0  0  0  0  0  0  0  0  0
   68.5620   43.0980   -5.2950 O   0  0  0  0  0  0  0  0  0  0  0  0
   68.8310   41.8100   -3.3410 C   0  0  0  0  0  0  0  0  0  0  0  0
   69.7460   41.0010   -3.9890 O   0  0  0  0  0  0  0  0  0  0  0  0
   68.1590   39.6020   -0.6420 C   0  0  0  0  0  0  0  0  0  0  0  0
   68.6800   38.6180    0.2010 C   0  0  0  0  0  0  0  0  0  0  0  0
   70.0430   38.6040    0.5440 C   0  0  0  0  0  0  0  0  0  0  0  0
   70.5410   37.5040    1.4550 C   0  0  0  0  0  0  0  0  0  0  0  0
   71.1120   36.3310    0.6730 C   0  0  0  0  0  0  0  0  0  0  0  0
   74.3284   39.3483   -0.3158 H   0  0  0  0  0  0  0  0  0  0  0  0
   72.9687   39.0152   -1.6082 H   0  0  0  0  0  0  0  0  0  0  0  0
   72.6533   39.9220    1.3211 H   0  0  0  0  0  0  0  0  0  0  0  0
   71.0088   41.3601   -1.2441 H   0  0  0  0  0  0  0  0  0  0  0  0
   65.8509   44.1288   -0.3633 H   0  0  0  0  0  0  0  0  0  0  0  0
   64.7536   46.0451   -1.5307 H   0  0  0  0  0  0  0  0  0  0  0  0
   65.2878   46.5212   -3.9228 H   0  0  0  0  0  0  0  0  0  0  0  0
   66.6150   46.0000   -5.7500 H   0  0  0  0  0  0  0  0  0  0  0  0
   70.3390   40.4740   -3.4910 H   0  0  0  0  0  0  0  0  0  0  0  0
   67.0866   39.5974   -0.8867 H   0  0  0  0  0  0  0  0  0  0  0  0
   68.0129   37.8413    0.6031 H   0  0  0  0  0  0  0  0  0  0  0  0
   71.3269   37.9120    2.1076 H   0  0  0  0  0  0  0  0  0  0  0  0
   69.6867   37.1368    2.0426 H   0  0  0  0  0  0  0  0  0  0  0  0
   71.4830   35.5688    1.3740 H   0  0  0  0  0  0  0  0  0  0  0  0
   70.3254   35.8948    0.0397 H   0  0  0  0  0  0  0  0  0  0  0  0
   71.9405   36.6810    0.0397 H   0  0  0  0  0  0  0  0  0  0  0  0
  1  2  2  0
  2  3  1  0
  3  4  2  0
  4  5  1  0
  5  6  1  0
  6  7  1  0
  7  8  1  0
  8  9  2  0
  9 10  1  0
 10 11  2  0
 11 12  1  0
 12 13  1  0
 12 14  2  0
 14 15  1  0
 15 16  2  0
 15 17  1  0
 17 18  1  0
  5 19  2  0
 19 20  1  0
 20 21  2  0
 21 22  1  0
 22 23  1  0
 21  3  1  0
 17  6  2  0
 14  8  1  0
  1 24  1  0
  1 25  1  0
  2 26  1  0
  4 27  1  0
  9 28  1  0
 10 29  1  0
 11 30  1  0
 13 31  1  0
 18 32  1  0
 19 33  1  0
 20 34  1  0
 22 35  1  0
 22 36  1  0
 23 37  1  0
 23 38  1  0
 23 39  1  0
M  END
>  <meeko>  (7) 
{"is_sidechain": [false], "free_energy": -7.402, "intermolecular_energy": -9.217, "internal_energy": -0.525}

$$$$
cand_046_out
     RDKit          3D

 39 41  0  0  0  0  0  0  0  0999 V2000
   73.9570   46.2820   -3.3150 C   0  0  0  0  0  0  0  0  0  0  0  0
   74.9380   45.3740   -3.3840 C   0  0  0  0  0  0  0  0  0  0  0  0
   74.7600   43.9650   -3.0010 C   0  0  0  0  0  0  0  0  0  0  0  0
   73.4570   43.4400   -2.9160 C   0  0  0  0  0  0  0  0  0  0  0  0
   73.2230   42.0960   -2.5910 C   0  0  0  0  0  0  0  0  0  0  0  0
   71.8350   41.5960   -2.4830 C   0  0  0  0  0  0  0  0  0  0  0  0
   71.6180   40.8510   -1.3300 O   0  0  0  0  0  0  0  0  0  0  0  0
   70.3720   40.3280   -1.1030 C   0  0  0  0  0  0  0  0  0  0  0  0
   70.2020   39.5760    0.0600 C   0  0  0  0  0  0  0  0  0  0  0  0
   68.9560   39.0150    0.3520 C   0  0  0  0  0  0  0  0  0  0  0  0
   67.8810   39.2100   -0.5160 C   0  0  0  0  0  0  0  0  0  0  0  0
   68.0520   39.9620   -1.6760 C   0  0  0  0  0  0  0  0  0  0  0  0
   66.9570   40.1120   -2.4830 O   0  0  0  0  0  0  0  0  0  0  0  0
   69.2990   40.5200   -1.9680 C   0  0  0  0  0  0  0  0  0  0  0  0
   69.5230   41.3180   -3.1760 C   0  0  0  0  0  0  0  0  0  0  0  0
   68.6240   41.5370   -3.9860 O   0  0  0  0  0  0  0  0  0  0  0  0
   70.8820   41.8600   -3.3970 C   0  0  0  0  0  0  0  0  0  0  0  0
   71.0790   42.6230   -4.5330 O   0  0  0  0  0  0  0  0  0  0  0  0
   74.3240   41.2720   -2.3400 C   0  0  0  0  0  0  0  0  0  0  0  0
   75.6240   41.7740   -2.4290 C   0  0  0  0  0  0  0  0  0  0  0  0
   75.8610   43.1200   -2.7590 C   0  0  0  0  0  0  0  0  0  0  0  0
   77.2950   43.5930   -2.8460 C   0  0  0  0  0  0  0  0  0  0  0  0
   77.9000   43.3310   -4.2170 C   0  0  0  0  0  0  0  0  0  0  0  0
   74.1487   47.3227   -3.6153 H   0  0  0  0  0  0  0  0  0  0  0  0
   72.9591   45.9875   -2.9580 H   0  0  0  0  0  0  0  0  0  0  0  0
   75.9256   45.6973   -3.7448 H   0  0  0  0  0  0  0  0  0  0  0  0
   72.5995   44.1013   -3.1096 H   0  0  0  0  0  0  0  0  0  0  0  0
   71.0482   39.4249    0.7464 H   0  0  0  0  0  0  0  0  0  0  0  0
   68.8224   38.4191    1.2669 H   0  0  0  0  0  0  0  0  0  0  0  0
   66.8996   38.7704   -0.2845 H   0  0  0  0  0  0  0  0  0  0  0  0
   67.0670   40.3560   -3.3800 H   0  0  0  0  0  0  0  0  0  0  0  0
   71.9190   43.0030   -4.7020 H   0  0  0  0  0  0  0  0  0  0  0  0
   74.1647   40.2177   -2.0697 H   0  0  0  0  0  0  0  0  0  0  0  0
   76.4764   41.1056   -2.2378 H   0  0  0  0  0  0  0  0  0  0  0  0
   77.3250   44.6741   -2.6454 H   0  0  0  0  0  0  0  0  0  0  0  0
   77.8826   43.0337   -2.1031 H   0  0  0  0  0  0  0  0  0  0  0  0
   78.9035   42.8964   -4.0980 H   0  0  0  0  0  0  0  0  0  0  0  0
   77.2601   42.6294   -4.7722 H   0  0  0  0  0  0  0  0  0  0  0  0
   77.9739   44.2777   -4.7722 H   0  0  0  0  0  0  0  0  0  0  0  0
  1  2  2  0
  2  3  1  0
  3  4  2  0
  4  5  1  0
  5  6  1  0
  6  7  1  0
  7  8  1  0
  8  9  2  0
  9 10  1  0
 10 11  2  0
 11 12  1  0
 12 13  1  0
 12 14  2  0
 14 15  1  0
 15 16  2  0
 15 17  1  0
 17 18  1  0
  5 19  2  0
 19 20  1  0
 20 21  2  0
 21 22  1  0
 22 23  1  0
 21  3  1  0
 17  6  2  0
 14  8  1  0
  1 24  1  0
  1 25  1  0
  2 26  1  0
  4 27  1  0
  9 28  1  0
 10 29  1  0
 11 30  1  0
 13 31  1  0
 18 32  1  0
 19 33  1  0
 20 34  1  0
 22 35  1  0
 22 36  1  0
 23 37  1  0
 23 38  1  0
 23 39  1  0
M  END
>  <meeko>  (8) 
{"is_sidechain": [false], "free_energy": -7.361, "intermolecular_energy": -9.383, "internal_energy": -0.307}

$$$$
cand_046_out
     RDKit          3D

 39 41  0  0  0  0  0  0  0  0999 V2000
   75.3760   45.7920   -3.2650 C   0  0  0  0  0  0  0  0  0  0  0  0
   74.0380   45.7310   -3.2840 C   0  0  0  0  0  0  0  0  0  0  0  0
   73.2910   44.5800   -3.8130 C   0  0  0  0  0  0  0  0  0  0  0  0
   73.0640   43.4710   -2.9760 C   0  0  0  0  0  0  0  0  0  0  0  0
   72.3280   42.3580   -3.4090 C   0  0  0  0  0  0  0  0  0  0  0  0
   72.1410   41.2030   -2.5060 C   0  0  0  0  0  0  0  0  0  0  0  0
   70.8290   41.0700   -2.0640 O   0  0  0  0  0  0  0  0  0  0  0  0
   70.5150   40.0360   -1.2200 C   0  0  0  0  0  0  0  0  0  0  0  0
   69.1900   39.9500   -0.7910 C   0  0  0  0  0  0  0  0  0  0  0  0
   68.8030   38.9190    0.0690 C   0  0  0  0  0  0  0  0  0  0  0  0
   69.7390   37.9760    0.4960 C   0  0  0  0  0  0  0  0  0  0  0  0
   71.0600   38.0640    0.0670 C   0  0  0  0  0  0  0  0  0  0  0  0
   71.9250   37.1080    0.5250 O   0  0  0  0  0  0  0  0  0  0  0  0
   71.4470   39.0970   -0.7920 C   0  0  0  0  0  0  0  0  0  0  0  0
   72.8260   39.2270   -1.2680 C   0  0  0  0  0  0  0  0  0  0  0  0
   73.7050   38.4320   -0.9400 O   0  0  0  0  0  0  0  0  0  0  0  0
   73.1350   40.3590   -2.1700 C   0  0  0  0  0  0  0  0  0  0  0  0
   74.4360   40.4650   -2.6260 O   0  0  0  0  0  0  0  0  0  0  0  0
   71.8210   42.3640   -4.7120 C   0  0  0  0  0  0  0  0  0  0  0  0
   72.0290   43.4600   -5.5520 C   0  0  0  0  0  0  0  0  0  0  0  0
   72.7630   44.5780   -5.1190 C   0  0  0  0  0  0  0  0  0  0  0  0
   72.9420   45.7330   -6.0790 C   0  0  0  0  0  0  0  0  0  0  0  0
   74.1440   45.5360   -6.9900 C   0  0  0  0  0  0  0  0  0  0  0  0
   75.8803   46.6801   -2.8563 H   0  0  0  0  0  0  0  0  0  0  0  0
   75.9704   44.9540   -3.6581 H   0  0  0  0  0  0  0  0  0  0  0  0
   73.4700   46.5839   -2.8842 H   0  0  0  0  0  0  0  0  0  0  0  0
   73.4746   43.4774   -1.9555 H   0  0  0  0  0  0  0  0  0  0  0  0
   68.4518   40.6922   -1.1291 H   0  0  0  0  0  0  0  0  0  0  0  0
   67.7594   38.8505    0.4099 H   0  0  0  0  0  0  0  0  0  0  0  0
   69.4328   37.1635    1.1714 H   0  0  0  0  0  0  0  0  0  0  0  0
   71.6620   36.5320    1.2150 H   0  0  0  0  0  0  0  0  0  0  0  0
   74.6080   40.5080   -3.5460 H   0  0  0  0  0  0  0  0  0  0  0  0
   71.2526   41.4967   -5.0791 H   0  0  0  0  0  0  0  0  0  0  0  0
   71.6115   43.4483   -6.5696 H   0  0  0  0  0  0  0  0  0  0  0  0
   72.0377   45.8230   -6.6988 H   0  0  0  0  0  0  0  0  0  0  0  0
   73.1107   46.6442   -5.4864 H   0  0  0  0  0  0  0  0  0  0  0  0
   75.0467   45.3880   -6.3791 H   0  0  0  0  0  0  0  0  0  0  0  0
   73.9820   44.6524   -7.6249 H   0  0  0  0  0  0  0  0  0  0  0  0
   74.2725   46.4251   -7.6249 H   0  0  0  0  0  0  0  0  0  0  0  0
  1  2  2  0
  2  3  1  0
  3  4  2  0
  4  5  1  0
  5  6  1  0
  6  7  1  0
  7  8  1  0
  8  9  2  0
  9 10  1  0
 10 11  2  0
 11 12  1  0
 12 13  1  0
 12 14  2  0
 14 15  1  0
 15 16  2  0
 15 17  1  0
 17 18  1  0
  5 19  2  0
 19 20  1  0
 20 21  2  0
 21 22  1  0
 22 23  1  0
 21  3  1  0
 17  6  2  0
 14  8  1  0
  1 24  1  0
  1 25  1  0
  2 26  1  0
  4 27  1  0
  9 28  1  0
 10 29  1  0
 11 30  1  0
 13 31  1  0
 18 32  1  0
 19 33  1  0
 20 34  1  0
 22 35  1  0
 22 36  1  0
 23 37  1  0
 23 38  1  0
 23 39  1  0
M  END
>  <meeko>  (9) 
{"is_sidechain": [false], "free_energy": -7.323, "intermolecular_energy": -9.019, "internal_energy": -0.625}

$$$$
