cand_031_out
     RDKit          3D

 36 38  0  0  0  0  0  0  0  0999 V2000
   67.9810   38.9680   -0.2830 C   0  0  0  0  0  0  0  0  0  0  0  0
   69.0740   38.9730    0.4890 C   0  0  0  0  0  0  0  0  0  0  0  0
   70.4290   38.7160   -0.0230 C   0  0  0  0  0  0  0  0  0  0  0  0
   71.0300   39.6480   -0.8880 C   0  0  0  0  0  0  0  0  0  0  0  0
   72.3060   39.4310   -1.4310 C   0  0  0  0  0  0  0  0  0  0  0  0
   72.9120   40.4520   -2.3130 C   0  0  0  0  0  0  0  0  0  0  0  0
   74.0770   40.9970   -1.7860 O   0  0  0  0  0  0  0  0  0  0  0  0
   74.7430   41.9590   -2.5010 C   0  0  0  0  0  0  0  0  0  0  0  0
   75.9150   42.4690   -1.9410 C   0  0  0  0  0  0  0  0  0  0  0  0
   76.6400   43.4520   -2.6170 C   0  0  0  0  0  0  0  0  0  0  0  0
   76.1940   43.9250   -3.8530 C   0  0  0  0  0  0  0  0  0  0  0  0
   75.0250   43.4140   -4.4100 C   0  0  0  0  0  0  0  0  0  0  0  0
   74.6460   43.9230   -5.6220 O   0  0  0  0  0  0  0  0  0  0  0  0
   74.3000   42.4310   -3.7330 C   0  0  0  0  0  0  0  0  0  0  0  0
   73.0660   41.8670   -4.2830 C   0  0  0  0  0  0  0  0  0  0  0  0
   72.6050   42.2370   -5.3620 O   0  0  0  0  0  0  0  0  0  0  0  0
   72.3760   40.8240   -3.4900 C   0  0  0  0  0  0  0  0  0  0  0  0
   71.2040   40.3090   -4.0120 O   0  0  0  0  0  0  0  0  0  0  0  0
   72.9840   38.2580   -1.0870 C   0  0  0  0  0  0  0  0  0  0  0  0
   72.3970   37.3190   -0.2370 C   0  0  0  0  0  0  0  0  0  0  0  0
   71.1200   37.5330    0.3030 C   0  0  0  0  0  0  0  0  0  0  0  0
   70.5260   36.4900    1.2120 C   0  0  0  0  0  0  0  0  0  0  0  0
   66.9940   39.1677    0.1597 H   0  0  0  0  0  0  0  0  0  0  0  0
   68.0695   38.7642   -1.3603 H   0  0  0  0  0  0  0  0  0  0  0  0
   68.9530   39.1801    1.5625 H   0  0  0  0  0  0  0  0  0  0  0  0
   70.4869   40.5693   -1.1452 H   0  0  0  0  0  0  0  0  0  0  0  0
   76.2673   42.0968   -0.9677 H   0  0  0  0  0  0  0  0  0  0  0  0
   77.5637   43.8545   -2.1756 H   0  0  0  0  0  0  0  0  0  0  0  0
   76.7653   44.6998   -4.3853 H   0  0  0  0  0  0  0  0  0  0  0  0
   74.5450   43.3540   -6.3590 H   0  0  0  0  0  0  0  0  0  0  0  0
   71.2320   39.5650   -4.5810 H   0  0  0  0  0  0  0  0  0  0  0  0
   73.9905   38.0729   -1.4903 H   0  0  0  0  0  0  0  0  0  0  0  0
   72.9437   36.3978    0.0130 H   0  0  0  0  0  0  0  0  0  0  0  0
   70.6912   36.7801    2.2601 H   0  0  0  0  0  0  0  0  0  0  0  0
   69.4460   36.4084    1.0200 H   0  0  0  0  0  0  0  0  0  0  0  0
   71.0069   35.5195    1.0200 H   0  0  0  0  0  0  0  0  0  0  0  0
  1  2  2  0
  2  3  1  0
  3  4  2  0
  4  5  1  0
  5  6  1  0
  6  7  1  0
  7  8  1  0
  8  9  2  0
  9 10  1  0
 10 11  2  0
 11 12  1  0
 12 13  1  0
 12 14  2  0
 14 15  1  0
 15 16  2  0
 15 17  1  0
 17 18  1  0
  5 19  2  0
 19 20  1  0
 20 21  2  0
 21 22  1  0
 21  3  1  0
 17  6  2  0
 14  8  1  0
  1 23  1  0
  1 24  1  0
  2 25  1  0
  4 26  1  0
  9 27  1  0
 10 28  1  0
 11 29  1  0
 13 30  1  0
 18 31  1  0
 19 32  1  0
 20 33  1  0
 22 34  1  0
 22 35  1  0
 22 36  1  0
M  END
>  <meeko>  (1) 
{"is_sidechain": [false], "free_energy": -7.967, "intermolecular_energy": -9.365, "internal_energy": -0.337}

$$$$
cand_031_out
     RDKit          3D

 36 38  0  0  0  0  0  0  0  0999 V2000
   67.9620   38.9380   -0.1320 C   0  0  0  0  0  0  0  0  0  0  0  0
   69.1510   38.6980    0.4330 C   0  0  0  0  0  0  0  0  0  0  0  0
   70.4290   38.8180   -0.2860 C   0  0  0  0  0  0  0  0  0  0  0  0
   70.6320   39.9010   -1.1610 C   0  0  0  0  0  0  0  0  0  0  0  0
   71.8190   40.0400   -1.8960 C   0  0  0  0  0  0  0  0  0  0  0  0
   72.0010   41.2100   -2.7830 C   0  0  0  0  0  0  0  0  0  0  0  0
   73.1370   41.9490   -2.4730 O   0  0  0  0  0  0  0  0  0  0  0  0
   73.4260   43.0650   -3.2160 C   0  0  0  0  0  0  0  0  0  0  0  0
   74.5830   43.7700   -2.8800 C   0  0  0  0  0  0  0  0  0  0  0  0
   74.9340   44.9150   -3.5970 C   0  0  0  0  0  0  0  0  0  0  0  0
   74.1300   45.3560   -4.6490 C   0  0  0  0  0  0  0  0  0  0  0  0
   72.9760   44.6510   -4.9830 C   0  0  0  0  0  0  0  0  0  0  0  0
   72.2350   45.1390   -6.0250 O   0  0  0  0  0  0  0  0  0  0  0  0
   72.6260   43.5040   -4.2660 C   0  0  0  0  0  0  0  0  0  0  0  0
   71.4220   42.7340   -4.5850 C   0  0  0  0  0  0  0  0  0  0  0  0
   70.6600   43.0620   -5.4920 O   0  0  0  0  0  0  0  0  0  0  0  0
   71.1430   41.5310   -3.7680 C   0  0  0  0  0  0  0  0  0  0  0  0
   69.9970   40.8190   -4.0680 O   0  0  0  0  0  0  0  0  0  0  0  0
   72.8170   39.0740   -1.7360 C   0  0  0  0  0  0  0  0  0  0  0  0
   72.6270   37.9880   -0.8790 C   0  0  0  0  0  0  0  0  0  0  0  0
   71.4390   37.8460   -0.1470 C   0  0  0  0  0  0  0  0  0  0  0  0
   71.2790   36.6580    0.7630 C   0  0  0  0  0  0  0  0  0  0  0  0
   67.0405   38.8308    0.4591 H   0  0  0  0  0  0  0  0  0  0  0  0
   67.9061   39.2425   -1.1875 H   0  0  0  0  0  0  0  0  0  0  0  0
   69.1741   38.3952    1.4902 H   0  0  0  0  0  0  0  0  0  0  0  0
   69.8408   40.6571   -1.2715 H   0  0  0  0  0  0  0  0  0  0  0  0
   75.2175   43.4235   -2.0509 H   0  0  0  0  0  0  0  0  0  0  0  0
   75.8458   45.4706   -3.3324 H   0  0  0  0  0  0  0  0  0  0  0  0
   74.4071   46.2586   -5.2134 H   0  0  0  0  0  0  0  0  0  0  0  0
   72.4920   44.9600   -6.9080 H   0  0  0  0  0  0  0  0  0  0  0  0
   70.0350   39.8870   -4.1620 H   0  0  0  0  0  0  0  0  0  0  0  0
   73.7618   39.1705   -2.2910 H   0  0  0  0  0  0  0  0  0  0  0  0
   73.4204   37.2330   -0.7765 H   0  0  0  0  0  0  0  0  0  0  0  0
   71.3237   36.9900    1.8107 H   0  0  0  0  0  0  0  0  0  0  0  0
   70.3081   36.1777    0.5717 H   0  0  0  0  0  0  0  0  0  0  0  0
   72.0883   35.9380    0.5717 H   0  0  0  0  0  0  0  0  0  0  0  0
  1  2  2  0
  2  3  1  0
  3  4  2  0
  4  5  1  0
  5  6  1  0
  6  7  1  0
  7  8  1  0
  8  9  2  0
  9 10  1  0
 10 11  2  0
 11 12  1  0
 12 13  1  0
 12 14  2  0
 14 15  1  0
 15 16  2  0
 15 17  1  0
 17 18  1  0
  5 19  2  0
 19 20  1  0
 20 21  2  0
 21 22  1  0
 21  3  1  0
 17  6  2  0
 14  8  1  0
  1 23  1  0
  1 24  1  0
  2 25  1  0
  4 26  1  0
  9 27  1  0
 10 28  1  0
 11 29  1  0
 13 30  1  0
 18 31  1  0
 19 32  1  0
 20 33  1  0
 22 34  1  0
 22 35  1  0
 22 36  1  0
M  END
>  <meeko>  (2) 
{"is_sidechain": [false], "free_energy": -7.895, "intermolecular_energy": -9.352, "internal_energy": -0.265}

$$$$
cand_031_out
     RDKit          3D

 36 38  0  0  0  0  0  0  0  0999 V2000
   76.3360   42.4360   -1.5000 C   0  0  0  0  0  0  0  0  0  0  0  0
   75.7000   42.4730   -2.6770 C   0  0  0  0  0  0  0  0  0  0  0  0
   74.3870   43.1080   -2.8690 C   0  0  0  0  0  0  0  0  0  0  0  0
   73.2170   42.3620   -2.6400 C   0  0  0  0  0  0  0  0  0  0  0  0
   71.9420   42.9120   -2.8420 C   0  0  0  0  0  0  0  0  0  0  0  0
   70.7380   42.1000   -2.5610 C   0  0  0  0  0  0  0  0  0  0  0  0
   70.8720   41.3150   -1.4210 O   0  0  0  0  0  0  0  0  0  0  0  0
   69.8280   40.5090   -1.0440 C   0  0  0  0  0  0  0  0  0  0  0  0
   70.0000   39.7480    0.1130 C   0  0  0  0  0  0  0  0  0  0  0  0
   68.9760   38.9060    0.5510 C   0  0  0  0  0  0  0  0  0  0  0  0
   67.7820   38.8240   -0.1670 C   0  0  0  0  0  0  0  0  0  0  0  0
   67.6130   39.5840   -1.3210 C   0  0  0  0  0  0  0  0  0  0  0  0
   66.4180   39.4540   -1.9760 O   0  0  0  0  0  0  0  0  0  0  0  0
   68.6370   40.4270   -1.7590 C   0  0  0  0  0  0  0  0  0  0  0  0
   68.5000   41.2430   -2.9670 C   0  0  0  0  0  0  0  0  0  0  0  0
   67.4830   41.2200   -3.6570 O   0  0  0  0  0  0  0  0  0  0  0  0
   69.6420   42.1080   -3.3420 C   0  0  0  0  0  0  0  0  0  0  0  0
   69.5080   42.8630   -4.4920 O   0  0  0  0  0  0  0  0  0  0  0  0
   71.8510   44.2380   -3.2750 C   0  0  0  0  0  0  0  0  0  0  0  0
   73.0030   44.9890   -3.5170 C   0  0  0  0  0  0  0  0  0  0  0  0
   74.2780   44.4390   -3.3180 C   0  0  0  0  0  0  0  0  0  0  0  0
   75.4920   45.2860   -3.5940 C   0  0  0  0  0  0  0  0  0  0  0  0
   77.3173   41.9455   -1.4203 H   0  0  0  0  0  0  0  0  0  0  0  0
   75.8774   42.8961   -0.6123 H   0  0  0  0  0  0  0  0  0  0  0  0
   76.1844   42.0041   -3.5462 H   0  0  0  0  0  0  0  0  0  0  0  0
   73.3035   41.3215   -2.2939 H   0  0  0  0  0  0  0  0  0  0  0  0
   70.9410   39.8114    0.6791 H   0  0  0  0  0  0  0  0  0  0  0  0
   69.1105   38.3064    1.4633 H   0  0  0  0  0  0  0  0  0  0  0  0
   66.9759   38.1600    0.1784 H   0  0  0  0  0  0  0  0  0  0  0  0
   65.6530   39.1850   -1.5070 H   0  0  0  0  0  0  0  0  0  0  0  0
   70.2690   43.2030   -4.9200 H   0  0  0  0  0  0  0  0  0  0  0  0
   70.8617   44.6945   -3.4266 H   0  0  0  0  0  0  0  0  0  0  0  0
   72.9094   46.0270   -3.8688 H   0  0  0  0  0  0  0  0  0  0  0  0
   75.9435   45.6010   -2.6417 H   0  0  0  0  0  0  0  0  0  0  0  0
   76.2236   44.7013   -4.1710 H   0  0  0  0  0  0  0  0  0  0  0  0
   75.1958   46.1745   -4.1710 H   0  0  0  0  0  0  0  0  0  0  0  0
  1  2  2  0
  2  3  1  0
  3  4  2  0
  4  5  1  0
  5  6  1  0
  6  7  1  0
  7  8  1  0
  8  9  2  0
  9 10  1  0
 10 11  2  0
 11 12  1  0
 12 13  1  0
 12 14  2  0
 14 15  1  0
 15 16  2  0
 15 17  1  0
 17 18  1  0
  5 19  2  0
 19 20  1  0
 20 21  2  0
 21 22  1  0
 21  3  1  0
 17  6  2  0
 14  8  1  0
  1 23  1  0
  1 24  1  0
  2 25  1  0
  4 26  1  0
  9 27  1  0
 10 28  1  0
 11 29  1  0
 13 30  1  0
 18 31  1  0
 19 32  1  0
 20 33  1  0
 22 34  1  0
 22 35  1  0
 22 36  1  0
M  END
>  <meeko>  (3) 
{"is_sidechain": [false], "free_energy": -7.695, "intermolecular_energy": -9.26, "internal_energy": -0.122}

$$$$
cand_031_out
     RDKit          3D

 36 38  0  0  0  0  0  0  0  0999 V2000
   73.9720   46.2690   -3.3200 C   0  0  0  0  0  0  0  0  0  0  0  0
   74.9550   45.3610   -3.3480 C   0  0  0  0  0  0  0  0  0  0  0  0
   74.7580   43.9430   -3.0130 C   0  0  0  0  0  0  0  0  0  0  0  0
   73.4510   43.4390   -2.8790 C   0  0  0  0  0  0  0  0  0  0  0  0
   73.2110   42.1010   -2.5260 C   0  0  0  0  0  0  0  0  0  0  0  0
   71.8210   41.6060   -2.4270 C   0  0  0  0  0  0  0  0  0  0  0  0
   71.6040   40.8350   -1.2900 O   0  0  0  0  0  0  0  0  0  0  0  0
   70.3560   40.3100   -1.0730 C   0  0  0  0  0  0  0  0  0  0  0  0
   70.1780   39.5530    0.0860 C   0  0  0  0  0  0  0  0  0  0  0  0
   68.9320   38.9890    0.3650 C   0  0  0  0  0  0  0  0  0  0  0  0
   67.8640   39.1800   -0.5130 C   0  0  0  0  0  0  0  0  0  0  0  0
   68.0440   39.9350   -1.6690 C   0  0  0  0  0  0  0  0  0  0  0  0
   66.9560   40.0810   -2.4860 O   0  0  0  0  0  0  0  0  0  0  0  0
   69.2910   40.5000   -1.9490 C   0  0  0  0  0  0  0  0  0  0  0  0
   69.5210   41.3010   -3.1520 C   0  0  0  0  0  0  0  0  0  0  0  0
   68.6330   41.5080   -3.9770 O   0  0  0  0  0  0  0  0  0  0  0  0
   70.8780   41.8610   -3.3520 C   0  0  0  0  0  0  0  0  0  0  0  0
   71.0890   42.6030   -4.4990 O   0  0  0  0  0  0  0  0  0  0  0  0
   74.3090   41.2630   -2.3130 C   0  0  0  0  0  0  0  0  0  0  0  0
   75.6120   41.7510   -2.4310 C   0  0  0  0  0  0  0  0  0  0  0  0
   75.8530   43.0880   -2.7800 C   0  0  0  0  0  0  0  0  0  0  0  0
   77.2750   43.5690   -2.8930 C   0  0  0  0  0  0  0  0  0  0  0  0
   74.1831   47.3163   -3.5818 H   0  0  0  0  0  0  0  0  0  0  0  0
   72.9531   45.9679   -3.0352 H   0  0  0  0  0  0  0  0  0  0  0  0
   75.9631   45.6931   -3.6368 H   0  0  0  0  0  0  0  0  0  0  0  0
   72.5967   44.1092   -3.0550 H   0  0  0  0  0  0  0  0  0  0  0  0
   71.0187   39.4010    0.7789 H   0  0  0  0  0  0  0  0  0  0  0  0
   68.7915   38.3928    1.2787 H   0  0  0  0  0  0  0  0  0  0  0  0
   66.8825   38.7352   -0.2923 H   0  0  0  0  0  0  0  0  0  0  0  0
   66.3670   39.3640   -2.6170 H   0  0  0  0  0  0  0  0  0  0  0  0
   71.9590   42.8500   -4.7430 H   0  0  0  0  0  0  0  0  0  0  0  0
   74.1450   40.2077   -2.0496 H   0  0  0  0  0  0  0  0  0  0  0  0
   76.4618   41.0771   -2.2476 H   0  0  0  0  0  0  0  0  0  0  0  0
   77.6951   43.7111   -1.8864 H   0  0  0  0  0  0  0  0  0  0  0  0
   77.8723   42.8229   -3.4376 H   0  0  0  0  0  0  0  0  0  0  0  0
   77.2967   44.5245   -3.4376 H   0  0  0  0  0  0  0  0  0  0  0  0
  1  2  2  0
  2  3  1  0
  3  4  2  0
  4  5  1  0
  5  6  1  0
  6  7  1  0
  7  8  1  0
  8  9  2  0
  9 10  1  0
 10 11  2  0
 11 12  1  0
 12 13  1  0
 12 14  2  0
 14 15  1  0
 15 16  2  0
 15 17  1  0
 17 18  1  0
  5 19  2  0
 19 20  1  0
 20 21  2  0
 21 22  1  0
 21  3  1  0
 17  6  2  0
 14  8  1  0
  1 23  1  0
  1 24  1  0
  2 25  1  0
  4 26  1  0
  9 27  1  0
 10 28  1  0
 11 29  1  0
 13 30  1  0
 18 31  1  0
 19 32  1  0
 20 33  1  0
 22 34  1  0
 22 35  1  0
 22 36  1  0
M  END
>  <meeko>  (4) 
{"is_sidechain": [false], "free_energy": -7.634, "intermolecular_energy": -9.173, "internal_energy": -0.138}

$$$$
cand_031_out
     RDKit          3D

 36 38  0  0  0  0  0  0  0  0999 V2000
   76.3280   43.4040   -2.1500 C   0  0  0  0  0  0  0  0  0  0  0  0
   75.3550   43.9130   -2.9150 C   0  0  0  0  0  0  0  0  0  0  0  0
   74.2700   43.1040   -3.4920 C   0  0  0  0  0  0  0  0  0  0  0  0
   73.5180   42.2580   -2.6560 C   0  0  0  0  0  0  0  0  0  0  0  0
   72.4970   41.4400   -3.1630 C   0  0  0  0  0  0  0  0  0  0  0  0
   71.7120   40.5890   -2.2430 C   0  0  0  0  0  0  0  0  0  0  0  0
   72.4610   39.5530   -1.6970 O   0  0  0  0  0  0  0  0  0  0  0  0
   71.8550   38.6830   -0.8260 C   0  0  0  0  0  0  0  0  0  0  0  0
   72.6460   37.6660   -0.2910 C   0  0  0  0  0  0  0  0  0  0  0  0
   72.0900   36.7470    0.6010 C   0  0  0  0  0  0  0  0  0  0  0  0
   70.7440   36.8440    0.9580 C   0  0  0  0  0  0  0  0  0  0  0  0
   69.9560   37.8600    0.4220 C   0  0  0  0  0  0  0  0  0  0  0  0
   68.6460   37.8960    0.8140 O   0  0  0  0  0  0  0  0  0  0  0  0
   70.5130   38.7800   -0.4700 C   0  0  0  0  0  0  0  0  0  0  0  0
   69.7200   39.8620   -1.0550 C   0  0  0  0  0  0  0  0  0  0  0  0
   68.5270   40.0100   -0.7960 O   0  0  0  0  0  0  0  0  0  0  0  0
   70.4070   40.7880   -1.9850 C   0  0  0  0  0  0  0  0  0  0  0  0
   69.6450   41.7980   -2.5430 O   0  0  0  0  0  0  0  0  0  0  0  0
   72.2300   41.4850   -4.5350 C   0  0  0  0  0  0  0  0  0  0  0  0
   72.9740   42.3110   -5.3790 C   0  0  0  0  0  0  0  0  0  0  0  0
   73.9970   43.1260   -4.8730 C   0  0  0  0  0  0  0  0  0  0  0  0
   74.7740   43.9980   -5.8230 C   0  0  0  0  0  0  0  0  0  0  0  0
   77.1123   44.0620   -1.7476 H   0  0  0  0  0  0  0  0  0  0  0  0
   76.3434   42.3277   -1.9236 H   0  0  0  0  0  0  0  0  0  0  0  0
   75.3671   44.9930   -3.1233 H   0  0  0  0  0  0  0  0  0  0  0  0
   73.7361   42.2375   -1.5780 H   0  0  0  0  0  0  0  0  0  0  0  0
   73.7067   37.5882   -0.5717 H   0  0  0  0  0  0  0  0  0  0  0  0
   72.7136   35.9452    1.0231 H   0  0  0  0  0  0  0  0  0  0  0  0
   70.3066   36.1198    1.6610 H   0  0  0  0  0  0  0  0  0  0  0  0
   68.3330   37.2950    1.4620 H   0  0  0  0  0  0  0  0  0  0  0  0
   69.0690   42.3030   -2.0030 H   0  0  0  0  0  0  0  0  0  0  0  0
   71.4251   40.8628   -4.9535 H   0  0  0  0  0  0  0  0  0  0  0  0
   72.7547   42.3229   -6.4569 H   0  0  0  0  0  0  0  0  0  0  0  0
   75.3986   44.6990   -5.2498 H   0  0  0  0  0  0  0  0  0  0  0  0
   75.4161   43.3686   -6.4566 H   0  0  0  0  0  0  0  0  0  0  0  0
   74.0750   44.5636   -6.4566 H   0  0  0  0  0  0  0  0  0  0  0  0
  1  2  2  0
  2  3  1  0
  3  4  2  0
  4  5  1  0
  5  6  1  0
  6  7  1  0
  7  8  1  0
  8  9  2  0
  9 10  1  0
 10 11  2  0
 11 12  1  0
 12 13  1  0
 12 14  2  0
 14 15  1  0
 15 16  2  0
 15 17  1  0
 17 18  1  0
  5 19  2  0
 19 20  1  0
 20 21  2  0
 21 22  1  0
 21  3  1  0
 17  6  2  0
 14  8  1  0
  1 23  1  0
  1 24  1  0
  2 25  1  0
  4 26  1  0
  9 27  1  0
 10 28  1  0
 11 29  1  0
 13 30  1  0
 18 31  1  0
 19 32  1  0
 20 33  1  0
 22 34  1  0
 22 35  1  0
 22 36  1  0
M  END
>  <meeko>  (5) 
{"is_sidechain": [false], "free_energy": -7.631, "intermolecular_energy": -8.915, "internal_energy": -0.392}

$$$$
cand_031_out
     RDKit          3D

 36 38  0  0  0  0  0  0  0  0999 V2000
   75.1380   45.8040   -3.3090 C   0  0  0  0  0  0  0  0  0  0  0  0
   73.8000   45.7550   -3.3120 C   0  0  0  0  0  0  0  0  0  0  0  0
   73.0330   44.6030   -3.8100 C   0  0  0  0  0  0  0  0  0  0  0  0
   72.8920   43.4620   -2.9980 C   0  0  0  0  0  0  0  0  0  0  0  0
   72.2000   42.3240   -3.4410 C   0  0  0  0  0  0  0  0  0  0  0  0
   72.0510   41.1590   -2.5430 C   0  0  0  0  0  0  0  0  0  0  0  0
   70.7580   41.0180   -2.0530 O   0  0  0  0  0  0  0  0  0  0  0  0
   70.4790   39.9770   -1.2050 C   0  0  0  0  0  0  0  0  0  0  0  0
   69.1660   39.8660   -0.7460 C   0  0  0  0  0  0  0  0  0  0  0  0
   68.8160   38.8290    0.1200 C   0  0  0  0  0  0  0  0  0  0  0  0
   69.7780   37.9040    0.5300 C   0  0  0  0  0  0  0  0  0  0  0  0
   71.0880   38.0170    0.0710 C   0  0  0  0  0  0  0  0  0  0  0  0
   71.9790   37.0770    0.5130 O   0  0  0  0  0  0  0  0  0  0  0  0
   71.4380   39.0550   -0.7960 C   0  0  0  0  0  0  0  0  0  0  0  0
   72.8030   39.2090   -1.3020 C   0  0  0  0  0  0  0  0  0  0  0  0
   73.7070   38.4400   -0.9820 O   0  0  0  0  0  0  0  0  0  0  0  0
   73.0680   40.3390   -2.2220 C   0  0  0  0  0  0  0  0  0  0  0  0
   74.3640   40.4840   -2.6820 O   0  0  0  0  0  0  0  0  0  0  0  0
   71.6370   42.3460   -4.7210 C   0  0  0  0  0  0  0  0  0  0  0  0
   71.7770   43.4660   -5.5420 C   0  0  0  0  0  0  0  0  0  0  0  0
   72.4710   44.6020   -5.1010 C   0  0  0  0  0  0  0  0  0  0  0  0
   72.5980   45.7850   -6.0240 C   0  0  0  0  0  0  0  0  0  0  0  0
   75.6549   46.6949   -2.9228 H   0  0  0  0  0  0  0  0  0  0  0  0
   75.7204   44.9534   -3.6927 H   0  0  0  0  0  0  0  0  0  0  0  0
   73.2456   46.6212   -2.9218 H   0  0  0  0  0  0  0  0  0  0  0  0
   73.3351   43.4621   -1.9912 H   0  0  0  0  0  0  0  0  0  0  0  0
   68.4074   40.5952   -1.0664 H   0  0  0  0  0  0  0  0  0  0  0  0
   67.7804   38.7403    0.4801 H   0  0  0  0  0  0  0  0  0  0  0  0
   69.5019   37.0879    1.2139 H   0  0  0  0  0  0  0  0  0  0  0  0
   72.4050   37.1860    1.3400 H   0  0  0  0  0  0  0  0  0  0  0  0
   74.7140   41.3410   -2.8310 H   0  0  0  0  0  0  0  0  0  0  0  0
   71.0779   41.4713   -5.0846 H   0  0  0  0  0  0  0  0  0  0  0  0
   71.3364   43.4575   -6.5499 H   0  0  0  0  0  0  0  0  0  0  0  0
   72.6968   46.7051   -5.4293 H   0  0  0  0  0  0  0  0  0  0  0  0
   73.4880   45.6612   -6.6585 H   0  0  0  0  0  0  0  0  0  0  0  0
   71.7020   45.8529   -6.6585 H   0  0  0  0  0  0  0  0  0  0  0  0
  1  2  2  0
  2  3  1  0
  3  4  2  0
  4  5  1  0
  5  6  1  0
  6  7  1  0
  7  8  1  0
  8  9  2  0
  9 10  1  0
 10 11  2  0
 11 12  1  0
 12 13  1  0
 12 14  2  0
 14 15  1  0
 15 16  2  0
 15 17  1  0
 17 18  1  0
  5 19  2  0
 19 20  1  0
 20 21  2  0
 21 22  1  0
 21  3  1  0
 17  6  2  0
 14  8  1  0
  1 23  1  0
  1 24  1  0
  2 25  1  0
  4 26  1  0
  9 27  1  0
 10 28  1  0
 11 29  1  0
 13 30  1  0
 18 31  1  0
 19 32  1  0
 20 33  1  0
 22 34  1  0
 22 35  1  0
 22 36  1  0
M  END
>  <meeko>  (6) 
{"is_sidechain": [false], "free_energy": -7.626, "intermolecular_energy": -8.887, "internal_energy": -0.414}

$$$$
cand_031_out
     RDKit          3D

 36 38  0  0  0  0  0  0  0  0999 V2000
   76.3250   43.1260   -1.7600 C   0  0  0  0  0  0  0  0  0  0  0  0
   75.7540   43.4890   -2.9150 C   0  0  0  0  0  0  0  0  0  0  0  0
   74.5770   42.8140   -3.4840 C   0  0  0  0  0  0  0  0  0  0  0  0
   73.8100   41.9590   -2.6720 C   0  0  0  0  0  0  0  0  0  0  0  0
   72.7000   41.2650   -3.1780 C   0  0  0  0  0  0  0  0  0  0  0  0
   71.9040   40.3990   -2.2810 C   0  0  0  0  0  0  0  0  0  0  0  0
   70.5580   40.7450   -2.2530 O   0  0  0  0  0  0  0  0  0  0  0  0
   69.7030   40.0230   -1.4590 C   0  0  0  0  0  0  0  0  0  0  0  0
   68.3590   40.3960   -1.4710 C   0  0  0  0  0  0  0  0  0  0  0  0
   67.4370   39.7030   -0.6840 C   0  0  0  0  0  0  0  0  0  0  0  0
   67.8590   38.6390    0.1150 C   0  0  0  0  0  0  0  0  0  0  0  0
   69.2010   38.2690    0.1260 C   0  0  0  0  0  0  0  0  0  0  0  0
   69.5450   37.2180    0.9320 O   0  0  0  0  0  0  0  0  0  0  0  0
   70.1230   38.9620   -0.6620 C   0  0  0  0  0  0  0  0  0  0  0  0
   71.5430   38.6060   -0.6800 C   0  0  0  0  0  0  0  0  0  0  0  0
   71.9920   37.6860    0.0010 O   0  0  0  0  0  0  0  0  0  0  0  0
   72.4370   39.3990   -1.5550 C   0  0  0  0  0  0  0  0  0  0  0  0
   73.7780   39.0630   -1.5540 O   0  0  0  0  0  0  0  0  0  0  0  0
   72.3580   41.4460   -4.5210 C   0  0  0  0  0  0  0  0  0  0  0  0
   73.1160   42.2830   -5.3430 C   0  0  0  0  0  0  0  0  0  0  0  0
   74.2280   42.9740   -4.8390 C   0  0  0  0  0  0  0  0  0  0  0  0
   75.0160   43.8640   -5.7630 C   0  0  0  0  0  0  0  0  0  0  0  0
   77.2045   43.6707   -1.3862 H   0  0  0  0  0  0  0  0  0  0  0  0
   75.9147   42.2830   -1.1847 H   0  0  0  0  0  0  0  0  0  0  0  0
   76.1872   44.3359   -3.4674 H   0  0  0  0  0  0  0  0  0  0  0  0
   74.0868   41.8313   -1.6151 H   0  0  0  0  0  0  0  0  0  0  0  0
   68.0259   41.2350   -2.0996 H   0  0  0  0  0  0  0  0  0  0  0  0
   66.3767   39.9959   -0.6936 H   0  0  0  0  0  0  0  0  0  0  0  0
   67.1322   38.0937    0.7350 H   0  0  0  0  0  0  0  0  0  0  0  0
   69.3470   37.2440    1.8470 H   0  0  0  0  0  0  0  0  0  0  0  0
   74.0390   38.1760   -1.4010 H   0  0  0  0  0  0  0  0  0  0  0  0
   71.4828   40.9238   -4.9349 H   0  0  0  0  0  0  0  0  0  0  0  0
   72.8371   42.4020   -6.4004 H   0  0  0  0  0  0  0  0  0  0  0  0
   75.6298   44.5573   -5.1692 H   0  0  0  0  0  0  0  0  0  0  0  0
   75.6694   43.2471   -6.3974 H   0  0  0  0  0  0  0  0  0  0  0  0
   74.3245   44.4379   -6.3974 H   0  0  0  0  0  0  0  0  0  0  0  0
  1  2  2  0
  2  3  1  0
  3  4  2  0
  4  5  1  0
  5  6  1  0
  6  7  1  0
  7  8  1  0
  8  9  2  0
  9 10  1  0
 10 11  2  0
 11 12  1  0
 12 13  1  0
 12 14  2  0
 14 15  1  0
 15 16  2  0
 15 17  1  0
 17 18  1  0
  5 19  2  0
 19 20  1  0
 20 21  2  0
 21 22  1  0
 21  3  1  0
 17  6  2  0
 14  8  1  0
  1 23  1  0
  1 24  1  0
  2 25  1  0
  4 26  1  0
  9 27  1  0
 10 28  1  0
 11 29  1  0
 13 30  1  0
 18 31  1  0
 19 32  1  0
 20 33  1  0
 22 34  1  0
 22 35  1  0
 22 36  1  0
M  END
>  <meeko>  (7) 
{"is_sidechain": [false], "free_energy": -7.579, "intermolecular_energy": -8.995, "internal_energy": -0.251}

$$$$
cand_031_out
     RDKit          3D

 36 38  0  0  0  0  0  0  0  0999 V2000
   73.3280   38.9800   -0.9470 C   0  0  0  0  0  0  0  0  0  0  0  0
   72.4400   39.3200   -0.0050 C   0  0  0  0  0  0  0  0  0  0  0  0
   70.9870   39.3400   -0.2300 C   0  0  0  0  0  0  0  0  0  0  0  0
   70.4170   40.3860   -0.9790 C   0  0  0  0  0  0  0  0  0  0  0  0
   69.0330   40.4690   -1.1930 C   0  0  0  0  0  0  0  0  0  0  0  0
   68.4800   41.5700   -2.0110 C   0  0  0  0  0  0  0  0  0  0  0  0
   67.5850   42.3670   -1.3070 O   0  0  0  0  0  0  0  0  0  0  0  0
   66.9950   43.4270   -1.9470 C   0  0  0  0  0  0  0  0  0  0  0  0
   66.1140   44.2090   -1.2000 C   0  0  0  0  0  0  0  0  0  0  0  0
   65.4780   45.3020   -1.7920 C   0  0  0  0  0  0  0  0  0  0  0  0
   65.7230   45.6130   -3.1320 C   0  0  0  0  0  0  0  0  0  0  0  0
   66.6020   44.8300   -3.8750 C   0  0  0  0  0  0  0  0  0  0  0  0
   66.7950   45.1910   -5.1810 O   0  0  0  0  0  0  0  0  0  0  0  0
   67.2380   43.7370   -3.2820 C   0  0  0  0  0  0  0  0  0  0  0  0
   68.1700   42.8900   -4.0280 C   0  0  0  0  0  0  0  0  0  0  0  0
   68.4310   43.0940   -5.2120 O   0  0  0  0  0  0  0  0  0  0  0  0
   68.7970   41.7600   -3.3050 C   0  0  0  0  0  0  0  0  0  0  0  0
   69.6640   40.9570   -4.0230 O   0  0  0  0  0  0  0  0  0  0  0  0
   68.2150   39.4740   -0.6470 C   0  0  0  0  0  0  0  0  0  0  0  0
   68.7640   38.4350    0.1070 C   0  0  0  0  0  0  0  0  0  0  0  0
   70.1480   38.3540    0.3240 C   0  0  0  0  0  0  0  0  0  0  0  0
   70.6940   37.2170    1.1460 C   0  0  0  0  0  0  0  0  0  0  0  0
   74.4035   38.9847   -0.7163 H   0  0  0  0  0  0  0  0  0  0  0  0
   72.9823   38.6959   -1.9519 H   0  0  0  0  0  0  0  0  0  0  0  0
   72.8170   39.5992    0.9899 H   0  0  0  0  0  0  0  0  0  0  0  0
   71.0731   41.1580   -1.4075 H   0  0  0  0  0  0  0  0  0  0  0  0
   65.9204   43.9647   -0.1451 H   0  0  0  0  0  0  0  0  0  0  0  0
   64.7834   45.9188   -1.2029 H   0  0  0  0  0  0  0  0  0  0  0  0
   65.2226   46.4743   -3.5986 H   0  0  0  0  0  0  0  0  0  0  0  0
   66.7680   44.5420   -5.8560 H   0  0  0  0  0  0  0  0  0  0  0  0
   70.2830   41.3440   -4.6100 H   0  0  0  0  0  0  0  0  0  0  0  0
   67.1283   39.5106   -0.8134 H   0  0  0  0  0  0  0  0  0  0  0  0
   68.1021   37.6689    0.5371 H   0  0  0  0  0  0  0  0  0  0  0  0
   70.5819   37.4505    2.2151 H   0  0  0  0  0  0  0  0  0  0  0  0
   70.1399   36.2961    0.9118 H   0  0  0  0  0  0  0  0  0  0  0  0
   71.7592   37.0737    0.9118 H   0  0  0  0  0  0  0  0  0  0  0  0
  1  2  2  0
  2  3  1  0
  3  4  2  0
  4  5  1  0
  5  6  1  0
  6  7  1  0
  7  8  1  0
  8  9  2  0
  9 10  1  0
 10 11  2  0
 11 12  1  0
 12 13  1  0
 12 14  2  0
 14 15  1  0
 15 16  2  0
 15 17  1  0
 17 18  1  0
  5 19  2  0
 19 20  1  0
 20 21  2  0
 21 22  1  0
 21  3  1  0
 17  6  2  0
 14  8  1  0
  1 23  1  0
  1 24  1  0
  2 25  1  0
  4 26  1  0
  9 27  1  0
 10 28  1  0
 11 29  1  0
 13 30  1  0
 18 31  1  0
 19 32  1  0
 20 33  1  0
 22 34  1  0
 22 35  1  0
 22 36  1  0
M  END
>  <meeko>  (8) 
{"is_sidechain": [false], "free_energy": -7.513, "intermolecular_energy": -8.844, "internal_energy": -0.324}

$$$$
cand_031_out
     RDKit          3D

 36 38  0  0  0  0  0  0  0  0999 V2000
   71.0800   36.9390    0.7610 C   0  0  0  0  0  0  0  0  0  0  0  0
   70.4140   38.0820    0.9640 C   0  0  0  0  0  0  0  0  0  0  0  0
   70.2490   39.1180   -0.0670 C   0  0  0  0  0  0  0  0  0  0  0  0
   71.3800   39.8050   -0.5450 C   0  0  0  0  0  0  0  0  0  0  0  0
   71.2710   40.8250   -1.5030 C   0  0  0  0  0  0  0  0  0  0  0  0
   72.4890   41.5000   -1.9990 C   0  0  0  0  0  0  0  0  0  0  0  0
   72.2540   42.8110   -2.3980 O   0  0  0  0  0  0  0  0  0  0  0  0
   73.3000   43.5560   -2.8820 C   0  0  0  0  0  0  0  0  0  0  0  0
   73.0230   44.8700   -3.2580 C   0  0  0  0  0  0  0  0  0  0  0  0
   74.0420   45.6810   -3.7590 C   0  0  0  0  0  0  0  0  0  0  0  0
   75.3380   45.1780   -3.8860 C   0  0  0  0  0  0  0  0  0  0  0  0
   75.6130   43.8660   -3.5100 C   0  0  0  0  0  0  0  0  0  0  0  0
   76.9040   43.4380   -3.6610 O   0  0  0  0  0  0  0  0  0  0  0  0
   74.5920   43.0550   -3.0080 C   0  0  0  0  0  0  0  0  0  0  0  0
   74.8380   41.6700   -2.6010 C   0  0  0  0  0  0  0  0  0  0  0  0
   75.9500   41.1530   -2.6890 O   0  0  0  0  0  0  0  0  0  0  0  0
   73.6900   40.8970   -2.0750 C   0  0  0  0  0  0  0  0  0  0  0  0
   73.9300   39.5860   -1.7080 O   0  0  0  0  0  0  0  0  0  0  0  0
   70.0000   41.1480   -1.9880 C   0  0  0  0  0  0  0  0  0  0  0  0
   68.8670   40.4820   -1.5160 C   0  0  0  0  0  0  0  0  0  0  0  0
   68.9750   39.4650   -0.5560 C   0  0  0  0  0  0  0  0  0  0  0  0
   67.7250   38.7780   -0.0760 C   0  0  0  0  0  0  0  0  0  0  0  0
   71.1687   36.2024    1.5732 H   0  0  0  0  0  0  0  0  0  0  0  0
   71.5387   36.7361   -0.2180 H   0  0  0  0  0  0  0  0  0  0  0  0
   69.9666   38.2558    1.9538 H   0  0  0  0  0  0  0  0  0  0  0  0
   72.3741   39.5361   -0.1584 H   0  0  0  0  0  0  0  0  0  0  0  0
   72.0018   45.2669   -3.1597 H   0  0  0  0  0  0  0  0  0  0  0  0
   73.8238   46.7179   -4.0542 H   0  0  0  0  0  0  0  0  0  0  0  0
   76.1406   45.8172   -4.2825 H   0  0  0  0  0  0  0  0  0  0  0  0
   77.0810   42.5350   -3.8390 H   0  0  0  0  0  0  0  0  0  0  0  0
   74.6300   39.1080   -2.1080 H   0  0  0  0  0  0  0  0  0  0  0  0
   69.8915   41.9347   -2.7491 H   0  0  0  0  0  0  0  0  0  0  0  0
   67.8752   40.7590   -1.9027 H   0  0  0  0  0  0  0  0  0  0  0  0
   67.7103   38.7699    1.0239 H   0  0  0  0  0  0  0  0  0  0  0  0
   66.8429   39.3181   -0.4505 H   0  0  0  0  0  0  0  0  0  0  0  0
   67.7081   37.7439   -0.4505 H   0  0  0  0  0  0  0  0  0  0  0  0
  1  2  2  0
  2  3  1  0
  3  4  2  0
  4  5  1  0
  5  6  1  0
  6  7  1  0
  7  8  1  0
  8  9  2  0
  9 10  1  0
 10 11  2  0
 11 12  1  0
 12 13  1  0
 12 14  2  0
 14 15  1  0
 15 16  2  0
 15 17  1  0
 17 18  1  0
  5 19  2  0
 19 20  1  0
 20 21  2  0
 21 22  1  0
 21  3  1  0
 17  6  2  0
 14  8  1  0
  1 23  1  0
  1 24  1  0
  2 25  1  0
  4 26  1  0
  9 27  1  0
 10 28  1  0
 11 29  1  0
 13 30  1  0
 18 31  1  0
 19 32  1  0
 20 33  1  0
 22 34  1  0
 22 35  1  0
 22 36  1  0
M  END
>  <meeko>  (9) 
{"is_sidechain": [false], "free_energy": -7.435, "intermolecular_energy": -9.124, "internal_energy": 0.048}

$$$$
