cand_047_out
     RDKit          3D

 38 40  0  0  0  0  0  0  0  0999 V2000
   72.5160   39.7230    0.4810 C   0  0  0  0  0  0  0  0  0  0  0  0
   71.0590   39.6250    0.1210 C   0  0  0  0  0  0  0  0  0  0  0  0
   70.5020   40.6110   -0.7160 C   0  0  0  0  0  0  0  0  0  0  0  0
   69.1490   40.5840   -1.0870 C   0  0  0  0  0  0  0  0  0  0  0  0
   68.5570   41.6300   -1.9470 C   0  0  0  0  0  0  0  0  0  0  0  0
   67.6330   42.4230   -1.2770 O   0  0  0  0  0  0  0  0  0  0  0  0
   67.0090   43.4350   -1.9590 C   0  0  0  0  0  0  0  0  0  0  0  0
   66.1000   44.2150   -1.2440 C   0  0  0  0  0  0  0  0  0  0  0  0
   65.4280   45.2620   -1.8800 C   0  0  0  0  0  0  0  0  0  0  0  0
   65.6630   45.5260   -3.2300 C   0  0  0  0  0  0  0  0  0  0  0  0
   66.5700   44.7460   -3.9430 C   0  0  0  0  0  0  0  0  0  0  0  0
   66.7520   45.0580   -5.2620 O   0  0  0  0  0  0  0  0  0  0  0  0
   67.2430   43.6990   -3.3050 C   0  0  0  0  0  0  0  0  0  0  0  0
   68.2040   42.8550   -4.0170 C   0  0  0  0  0  0  0  0  0  0  0  0
   68.4590   43.0200   -5.2080 O   0  0  0  0  0  0  0  0  0  0  0  0
   68.8700   41.7780   -3.2490 C   0  0  0  0  0  0  0  0  0  0  0  0
   69.7660   40.9770   -3.9340 O   0  0  0  0  0  0  0  0  0  0  0  0
   68.3440   39.5560   -0.5870 C   0  0  0  0  0  0  0  0  0  0  0  0
   68.8790   38.5730    0.2490 C   0  0  0  0  0  0  0  0  0  0  0  0
   70.2340   38.5960    0.6160 C   0  0  0  0  0  0  0  0  0  0  0  0
   70.7580   37.4920    1.5040 C   0  0  0  0  0  0  0  0  0  0  0  0
   71.0790   36.2290    0.7210 C   0  0  0  0  0  0  0  0  0  0  0  0
   72.2680   36.4040    0.0800 F   0  0  0  0  0  0  0  0  0  0  0  0
   72.6235   39.7302    1.5757 H   0  0  0  0  0  0  0  0  0  0  0  0
   73.0553   38.8591    0.0653 H   0  0  0  0  0  0  0  0  0  0  0  0
   72.9348   40.6513    0.0653 H   0  0  0  0  0  0  0  0  0  0  0  0
   71.1438   41.4230   -1.0884 H   0  0  0  0  0  0  0  0  0  0  0  0
   65.9124   44.0060   -0.1805 H   0  0  0  0  0  0  0  0  0  0  0  0
   64.7129   45.8789   -1.3159 H   0  0  0  0  0  0  0  0  0  0  0  0
   65.1324   46.3494   -3.7305 H   0  0  0  0  0  0  0  0  0  0  0  0
   66.0380   45.3960   -5.7660 H   0  0  0  0  0  0  0  0  0  0  0  0
   70.3680   40.4390   -3.4600 H   0  0  0  0  0  0  0  0  0  0  0  0
   67.2777   39.5209   -0.8549 H   0  0  0  0  0  0  0  0  0  0  0  0
   68.2292   37.7692    0.6253 H   0  0  0  0  0  0  0  0  0  0  0  0
   71.6741   37.8426    2.0020 H   0  0  0  0  0  0  0  0  0  0  0  0
   69.9740   37.2459    2.2353 H   0  0  0  0  0  0  0  0  0  0  0  0
   71.1520   35.3746    1.4100 H   0  0  0  0  0  0  0  0  0  0  0  0
   70.2834   36.0295   -0.0120 H   0  0  0  0  0  0  0  0  0  0  0  0
  1  2  1  0
  2  3  2  0
  3  4  1  0
  4  5  1  0
  5  6  1  0
  6  7  1  0
  7  8  2  0
  8  9  1  0
  9 10  2  0
 10 11  1  0
 11 12  1  0
 11 13  2  0
 13 14  1  0
 14 15  2  0
 14 16  1  0
 16 17  1  0
  4 18  2  0
 18 19  1  0
 19 20  2  0
 20 21  1  0
 21 22  1  0
 22 23  1  0
 20  2  1  0
 16  5  2  0
 13  7  1  0
  1 24  1  0
  1 25  1  0
  1 26  1  0
  3 27  1  0
  8 28  1  0
  9 29  1  0
 10 30  1  0
 12 31  1  0
 17 32  1  0
 18 33  1  0
 19 34  1  0
 21 35  1  0
 21 36  1  0
 22 37  1  0
 22 38  1  0
M  END
>  <meeko>  (1) 
{"is_sidechain": [false], "free_energy": -7.414, "intermolecular_energy": -9.147, "internal_energy": -0.529}

$$$$
cand_047_out
     RDKit          3D

 38 40  0  0  0  0  0  0  0  0999 V2000
   75.1940   44.0660   -3.1190 C   0  0  0  0  0  0  0  0  0  0  0  0
   74.1550   43.1360   -3.6830 C   0  0  0  0  0  0  0  0  0  0  0  0
   73.4200   42.3260   -2.7960 C   0  0  0  0  0  0  0  0  0  0  0  0
   72.4400   41.4330   -3.2540 C   0  0  0  0  0  0  0  0  0  0  0  0
   71.6830   40.5660   -2.3270 C   0  0  0  0  0  0  0  0  0  0  0  0
   72.4470   39.5240   -1.8140 O   0  0  0  0  0  0  0  0  0  0  0  0
   71.8660   38.6450   -0.9380 C   0  0  0  0  0  0  0  0  0  0  0  0
   72.6740   37.6230   -0.4360 C   0  0  0  0  0  0  0  0  0  0  0  0
   72.1440   36.6920    0.4600 C   0  0  0  0  0  0  0  0  0  0  0  0
   70.8060   36.7810    0.8520 C   0  0  0  0  0  0  0  0  0  0  0  0
   70.0020   37.8000    0.3490 C   0  0  0  0  0  0  0  0  0  0  0  0
   68.7020   37.8280    0.7740 O   0  0  0  0  0  0  0  0  0  0  0  0
   70.5340   38.7330   -0.5460 C   0  0  0  0  0  0  0  0  0  0  0  0
   69.7230   39.8190   -1.0980 C   0  0  0  0  0  0  0  0  0  0  0  0
   68.5370   39.9600   -0.8070 O   0  0  0  0  0  0  0  0  0  0  0  0
   70.3830   40.7600   -2.0320 C   0  0  0  0  0  0  0  0  0  0  0  0
   69.6050   41.7750   -2.5580 O   0  0  0  0  0  0  0  0  0  0  0  0
   72.2160   41.3420   -4.6310 C   0  0  0  0  0  0  0  0  0  0  0  0
   72.9410   42.1340   -5.5260 C   0  0  0  0  0  0  0  0  0  0  0  0
   73.9170   43.0330   -5.0670 C   0  0  0  0  0  0  0  0  0  0  0  0
   74.6500   43.8780   -6.0830 C   0  0  0  0  0  0  0  0  0  0  0  0
   75.4720   43.0350   -7.0440 C   0  0  0  0  0  0  0  0  0  0  0  0
   76.0750   42.0360   -6.3420 F   0  0  0  0  0  0  0  0  0  0  0  0
   75.1575   44.0334   -2.0201 H   0  0  0  0  0  0  0  0  0  0  0  0
   76.1912   43.7532   -3.4622 H   0  0  0  0  0  0  0  0  0  0  0  0
   74.9931   45.0916   -3.4622 H   0  0  0  0  0  0  0  0  0  0  0  0
   73.6195   42.3953   -1.7165 H   0  0  0  0  0  0  0  0  0  0  0  0
   73.7270   37.5512   -0.7459 H   0  0  0  0  0  0  0  0  0  0  0  0
   72.7807   35.8878    0.8575 H   0  0  0  0  0  0  0  0  0  0  0  0
   70.3885   36.0470    1.5570 H   0  0  0  0  0  0  0  0  0  0  0  0
   68.2860   37.0380    1.0580 H   0  0  0  0  0  0  0  0  0  0  0  0
   69.9740   42.3750   -3.1760 H   0  0  0  0  0  0  0  0  0  0  0  0
   71.4611   40.6396   -5.0142 H   0  0  0  0  0  0  0  0  0  0  0  0
   72.7441   42.0518   -6.6051 H   0  0  0  0  0  0  0  0  0  0  0  0
   73.9137   44.4567   -6.6600 H   0  0  0  0  0  0  0  0  0  0  0  0
   75.3400   44.5390   -5.5381 H   0  0  0  0  0  0  0  0  0  0  0  0
   74.8145   42.6027   -7.8126 H   0  0  0  0  0  0  0  0  0  0  0  0
   76.2325   43.6601   -7.5348 H   0  0  0  0  0  0  0  0  0  0  0  0
  1  2  1  0
  2  3  2  0
  3  4  1  0
  4  5  1  0
  5  6  1  0
  6  7  1  0
  7  8  2  0
  8  9  1  0
  9 10  2  0
 10 11  1  0
 11 12  1  0
 11 13  2  0
 13 14  1  0
 14 15  2  0
 14 16  1  0
 16 17  1  0
  4 18  2  0
 18 19  1  0
 19 20  2  0
 20 21  1  0
 21 22  1  0
 22 23  1  0
 20  2  1  0
 16  5  2  0
 13  7  1  0
  1 24  1  0
  1 25  1  0
  1 26  1  0
  3 27  1  0
  8 28  1  0
  9 29  1  0
 10 30  1  0
 12 31  1  0
 17 32  1  0
 18 33  1  0
 19 34  1  0
 21 35  1  0
 21 36  1  0
 22 37  1  0
 22 38  1  0
M  END
>  <meeko>  (2) 
{"is_sidechain": [false], "free_energy": -7.384, "intermolecular_energy": -9.077, "internal_energy": -0.563}

$$$$
cand_047_out
     RDKit          3D

 38 40  0  0  0  0  0  0  0  0999 V2000
   68.9870   39.5660   -0.5450 C   0  0  0  0  0  0  0  0  0  0  0  0
   70.4410   39.3020   -0.8250 C   0  0  0  0  0  0  0  0  0  0  0  0
   71.1590   40.2300   -1.6040 C   0  0  0  0  0  0  0  0  0  0  0  0
   72.5150   40.0420   -1.9090 C   0  0  0  0  0  0  0  0  0  0  0  0
   73.2650   41.0040   -2.7440 C   0  0  0  0  0  0  0  0  0  0  0  0
   74.2750   41.6550   -2.0460 O   0  0  0  0  0  0  0  0  0  0  0  0
   75.0500   42.5750   -2.7040 C   0  0  0  0  0  0  0  0  0  0  0  0
   76.0620   43.1930   -1.9680 C   0  0  0  0  0  0  0  0  0  0  0  0
   76.8870   44.1410   -2.5780 C   0  0  0  0  0  0  0  0  0  0  0  0
   76.6990   44.4720   -3.9210 C   0  0  0  0  0  0  0  0  0  0  0  0
   75.6880   43.8550   -4.6530 C   0  0  0  0  0  0  0  0  0  0  0  0
   75.5580   44.2250   -5.9630 O   0  0  0  0  0  0  0  0  0  0  0  0
   74.8640   42.9050   -4.0420 C   0  0  0  0  0  0  0  0  0  0  0  0
   73.7900   42.2330   -4.7760 C   0  0  0  0  0  0  0  0  0  0  0  0
   73.5570   42.4750   -5.9580 O   0  0  0  0  0  0  0  0  0  0  0  0
   72.9780   41.2360   -4.0390 C   0  0  0  0  0  0  0  0  0  0  0  0
   71.9570   40.6160   -4.7370 O   0  0  0  0  0  0  0  0  0  0  0  0
   73.1490   38.8900   -1.4370 C   0  0  0  0  0  0  0  0  0  0  0  0
   72.4500   37.9550   -0.6680 C   0  0  0  0  0  0  0  0  0  0  0  0
   71.0940   38.1460   -0.3570 C   0  0  0  0  0  0  0  0  0  0  0  0
   70.4000   37.1110    0.4980 C   0  0  0  0  0  0  0  0  0  0  0  0
   70.7810   37.2290    1.9640 C   0  0  0  0  0  0  0  0  0  0  0  0
   70.7610   38.5450    2.3150 F   0  0  0  0  0  0  0  0  0  0  0  0
   68.8225   39.5959    0.5422 H   0  0  0  0  0  0  0  0  0  0  0  0
   68.6980   40.5313   -0.9862 H   0  0  0  0  0  0  0  0  0  0  0  0
   68.3771   38.7639   -0.9862 H   0  0  0  0  0  0  0  0  0  0  0  0
   70.6433   41.1248   -1.9827 H   0  0  0  0  0  0  0  0  0  0  0  0
   76.2098   42.9340   -0.9092 H   0  0  0  0  0  0  0  0  0  0  0  0
   77.6860   44.6274   -1.9992 H   0  0  0  0  0  0  0  0  0  0  0  0
   77.3486   45.2192   -4.4003 H   0  0  0  0  0  0  0  0  0  0  0  0
   74.8320   43.9150   -6.4670 H   0  0  0  0  0  0  0  0  0  0  0  0
   71.2300   40.2490   -4.2740 H   0  0  0  0  0  0  0  0  0  0  0  0
   74.2094   38.7169   -1.6730 H   0  0  0  0  0  0  0  0  0  0  0  0
   72.9693   37.0573   -0.3014 H   0  0  0  0  0  0  0  0  0  0  0  0
   69.3123   37.2444    0.4028 H   0  0  0  0  0  0  0  0  0  0  0  0
   70.7136   36.1170    0.1464 H   0  0  0  0  0  0  0  0  0  0  0  0
   70.0608   36.6705    2.5799 H   0  0  0  0  0  0  0  0  0  0  0  0
   71.7865   36.8130    2.1250 H   0  0  0  0  0  0  0  0  0  0  0  0
  1  2  1  0
  2  3  2  0
  3  4  1  0
  4  5  1  0
  5  6  1  0
  6  7  1  0
  7  8  2  0
  8  9  1  0
  9 10  2  0
 10 11  1  0
 11 12  1  0
 11 13  2  0
 13 14  1  0
 14 15  2  0
 14 16  1  0
 16 17  1  0
  4 18  2  0
 18 19  1  0
 19 20  2  0
 20 21  1  0
 21 22  1  0
 22 23  1  0
 20  2  1  0
 16  5  2  0
 13  7  1  0
  1 24  1  0
  1 25  1  0
  1 26  1  0
  3 27  1  0
  8 28  1  0
  9 29  1  0
 10 30  1  0
 12 31  1  0
 17 32  1  0
 18 33  1  0
 19 34  1  0
 21 35  1  0
 21 36  1  0
 22 37  1  0
 22 38  1  0
M  END
>  <meeko>  (3) 
{"is_sidechain": [false], "free_energy": -7.353, "intermolecular_energy": -9.068, "internal_energy": -0.534}

$$$$
cand_047_out
     RDKit          3D

 38 40  0  0  0  0  0  0  0  0999 V2000
   74.7820   45.4130   -3.3780 C   0  0  0  0  0  0  0  0  0  0  0  0
   74.5950   43.9620   -3.0280 C   0  0  0  0  0  0  0  0  0  0  0  0
   73.2850   43.4570   -2.9170 C   0  0  0  0  0  0  0  0  0  0  0  0
   73.0390   42.1160   -2.5880 C   0  0  0  0  0  0  0  0  0  0  0  0
   71.6640   41.5890   -2.4500 C   0  0  0  0  0  0  0  0  0  0  0  0
   71.4950   40.8110   -1.3110 O   0  0  0  0  0  0  0  0  0  0  0  0
   70.2650   40.2610   -1.0600 C   0  0  0  0  0  0  0  0  0  0  0  0
   70.1360   39.4990    0.1030 C   0  0  0  0  0  0  0  0  0  0  0  0
   68.9100   38.9090    0.4170 C   0  0  0  0  0  0  0  0  0  0  0  0
   67.8140   39.0780   -0.4320 C   0  0  0  0  0  0  0  0  0  0  0  0
   67.9450   39.8370   -1.5920 C   0  0  0  0  0  0  0  0  0  0  0  0
   66.8330   39.9610   -2.3790 O   0  0  0  0  0  0  0  0  0  0  0  0
   69.1730   40.4290   -1.9040 C   0  0  0  0  0  0  0  0  0  0  0  0
   69.3530   41.2340   -3.1140 C   0  0  0  0  0  0  0  0  0  0  0  0
   68.4390   41.4220   -3.9140 O   0  0  0  0  0  0  0  0  0  0  0  0
   70.6910   41.8250   -3.3500 C   0  0  0  0  0  0  0  0  0  0  0  0
   70.8550   42.5730   -4.5010 O   0  0  0  0  0  0  0  0  0  0  0  0
   74.1320   41.2790   -2.3470 C   0  0  0  0  0  0  0  0  0  0  0  0
   75.4380   41.7660   -2.4460 C   0  0  0  0  0  0  0  0  0  0  0  0
   75.6860   43.1060   -2.7820 C   0  0  0  0  0  0  0  0  0  0  0  0
   77.1210   43.5660   -2.8960 C   0  0  0  0  0  0  0  0  0  0  0  0
   77.7690   43.1050   -4.1910 C   0  0  0  0  0  0  0  0  0  0  0  0
   76.8340   43.1330   -5.1810 F   0  0  0  0  0  0  0  0  0  0  0  0
   74.8584   46.0060   -2.4547 H   0  0  0  0  0  0  0  0  0  0  0  0
   75.7029   45.5322   -3.9676 H   0  0  0  0  0  0  0  0  0  0  0  0
   73.9214   45.7618   -3.9676 H   0  0  0  0  0  0  0  0  0  0  0  0
   72.4336   44.1310   -3.0927 H   0  0  0  0  0  0  0  0  0  0  0  0
   70.9993   39.3637    0.7711 H   0  0  0  0  0  0  0  0  0  0  0  0
   68.8073   38.3104    1.3341 H   0  0  0  0  0  0  0  0  0  0  0  0
   66.8487   38.6122   -0.1847 H   0  0  0  0  0  0  0  0  0  0  0  0
   66.5520   39.2400   -2.9080 H   0  0  0  0  0  0  0  0  0  0  0  0
   70.3560   43.3560   -4.6250 H   0  0  0  0  0  0  0  0  0  0  0  0
   73.9625   40.2263   -2.0767 H   0  0  0  0  0  0  0  0  0  0  0  0
   76.2844   41.0891   -2.2578 H   0  0  0  0  0  0  0  0  0  0  0  0
   77.1449   44.6651   -2.8593 H   0  0  0  0  0  0  0  0  0  0  0  0
   77.6847   43.1259   -2.0602 H   0  0  0  0  0  0  0  0  0  0  0  0
   78.6009   43.7771   -4.4484 H   0  0  0  0  0  0  0  0  0  0  0  0
   78.1587   42.0832   -4.0722 H   0  0  0  0  0  0  0  0  0  0  0  0
  1  2  1  0
  2  3  2  0
  3  4  1  0
  4  5  1  0
  5  6  1  0
  6  7  1  0
  7  8  2  0
  8  9  1  0
  9 10  2  0
 10 11  1  0
 11 12  1  0
 11 13  2  0
 13 14  1  0
 14 15  2  0
 14 16  1  0
 16 17  1  0
  4 18  2  0
 18 19  1  0
 19 20  2  0
 20 21  1  0
 21 22  1  0
 22 23  1  0
 20  2  1  0
 16  5  2  0
 13  7  1  0
  1 24  1  0
  1 25  1  0
  1 26  1  0
  3 27  1  0
  8 28  1  0
  9 29  1  0
 10 30  1  0
 12 31  1  0
 17 32  1  0
 18 33  1  0
 19 34  1  0
 21 35  1  0
 21 36  1  0
 22 37  1  0
 22 38  1  0
M  END
>  <meeko>  (4) 
{"is_sidechain": [false], "free_energy": -7.352, "intermolecular_energy": -9.238, "internal_energy": -0.362}

$$$$
cand_047_out
     RDKit          3D

 38 40  0  0  0  0  0  0  0  0999 V2000
   73.6750   45.8980   -3.2670 C   0  0  0  0  0  0  0  0  0  0  0  0
   73.2100   44.5850   -3.8360 C   0  0  0  0  0  0  0  0  0  0  0  0
   72.9520   43.5190   -2.9530 C   0  0  0  0  0  0  0  0  0  0  0  0
   72.5210   42.2670   -3.4160 C   0  0  0  0  0  0  0  0  0  0  0  0
   72.2710   41.1400   -2.4930 C   0  0  0  0  0  0  0  0  0  0  0  0
   70.9410   41.0500   -2.0960 O   0  0  0  0  0  0  0  0  0  0  0  0
   70.5710   40.0470   -1.2400 C   0  0  0  0  0  0  0  0  0  0  0  0
   69.2240   39.9850   -0.8810 C   0  0  0  0  0  0  0  0  0  0  0  0
   68.7800   38.9870   -0.0090 C   0  0  0  0  0  0  0  0  0  0  0  0
   69.6830   38.0540    0.5040 C   0  0  0  0  0  0  0  0  0  0  0  0
   71.0260   38.1180    0.1450 C   0  0  0  0  0  0  0  0  0  0  0  0
   71.8560   37.1740    0.6840 O   0  0  0  0  0  0  0  0  0  0  0  0
   71.4690   39.1160   -0.7290 C   0  0  0  0  0  0  0  0  0  0  0  0
   72.8730   39.2180   -1.1310 C   0  0  0  0  0  0  0  0  0  0  0  0
   73.7290   38.4390   -0.7170 O   0  0  0  0  0  0  0  0  0  0  0  0
   73.2390   40.3070   -2.0670 C   0  0  0  0  0  0  0  0  0  0  0  0
   74.5700   40.4030   -2.4310 O   0  0  0  0  0  0  0  0  0  0  0  0
   72.3690   42.0840   -4.7940 C   0  0  0  0  0  0  0  0  0  0  0  0
   72.6270   43.1300   -5.6840 C   0  0  0  0  0  0  0  0  0  0  0  0
   73.0520   44.3850   -5.2210 C   0  0  0  0  0  0  0  0  0  0  0  0
   73.2920   45.4820   -6.2330 C   0  0  0  0  0  0  0  0  0  0  0  0
   74.5590   45.2500   -7.0410 C   0  0  0  0  0  0  0  0  0  0  0  0
   75.5030   44.7060   -6.2240 F   0  0  0  0  0  0  0  0  0  0  0  0
   73.6574   45.8483   -2.1683 H   0  0  0  0  0  0  0  0  0  0  0  0
   74.7004   46.1030   -3.6084 H   0  0  0  0  0  0  0  0  0  0  0  0
   73.0072   46.7026   -3.6084 H   0  0  0  0  0  0  0  0  0  0  0  0
   73.0920   43.6719   -1.8727 H   0  0  0  0  0  0  0  0  0  0  0  0
   68.5124   40.7207   -1.2838 H   0  0  0  0  0  0  0  0  0  0  0  0
   67.7180   38.9366    0.2734 H   0  0  0  0  0  0  0  0  0  0  0  0
   69.3334   37.2693    1.1911 H   0  0  0  0  0  0  0  0  0  0  0  0
   72.2530   37.3230    1.5200 H   0  0  0  0  0  0  0  0  0  0  0  0
   75.0870   41.1220   -2.1260 H   0  0  0  0  0  0  0  0  0  0  0  0
   72.0432   41.1073   -5.1811 H   0  0  0  0  0  0  0  0  0  0  0  0
   72.4950   42.9673   -6.7639 H   0  0  0  0  0  0  0  0  0  0  0  0
   72.4351   45.5226   -6.9215 H   0  0  0  0  0  0  0  0  0  0  0  0
   73.4095   46.4281   -5.6844 H   0  0  0  0  0  0  0  0  0  0  0  0
   74.3473   44.5614   -7.8723 H   0  0  0  0  0  0  0  0  0  0  0  0
   74.9223   46.2037   -7.4514 H   0  0  0  0  0  0  0  0  0  0  0  0
  1  2  1  0
  2  3  2  0
  3  4  1  0
  4  5  1  0
  5  6  1  0
  6  7  1  0
  7  8  2  0
  8  9  1  0
  9 10  2  0
 10 11  1  0
 11 12  1  0
 11 13  2  0
 13 14  1  0
 14 15  2  0
 14 16  1  0
 16 17  1  0
  4 18  2  0
 18 19  1  0
 19 20  2  0
 20 21  1  0
 21 22  1  0
 22 23  1  0
 20  2  1  0
 16  5  2  0
 13  7  1  0
  1 24  1  0
  1 25  1  0
  1 26  1  0
  3 27  1  0
  8 28  1  0
  9 29  1  0
 10 30  1  0
 12 31  1  0
 17 32  1  0
 18 33  1  0
 19 34  1  0
 21 35  1  0
 21 36  1  0
 22 37  1  0
 22 38  1  0
M  END
>  <meeko>  (5) 
{"is_sidechain": [false], "free_energy": -7.302, "intermolecular_energy": -8.885, "internal_energy": -0.653}

$$$$
cand_047_out
     RDKit          3D

 38 40  0  0  0  0  0  0  0  0999 V2000
   76.0260   43.4890   -2.8080 C   0  0  0  0  0  0  0  0  0  0  0  0
   74.8170   42.8160   -3.3980 C   0  0  0  0  0  0  0  0  0  0  0  0
   74.0300   41.9920   -2.5690 C   0  0  0  0  0  0  0  0  0  0  0  0
   72.8940   41.3300   -3.0550 C   0  0  0  0  0  0  0  0  0  0  0  0
   72.0790   40.4490   -2.1920 C   0  0  0  0  0  0  0  0  0  0  0  0
   70.7340   40.7990   -2.1770 O   0  0  0  0  0  0  0  0  0  0  0  0
   69.8640   40.0610   -1.4160 C   0  0  0  0  0  0  0  0  0  0  0  0
   68.5210   40.4390   -1.4430 C   0  0  0  0  0  0  0  0  0  0  0  0
   67.5830   39.7290   -0.6890 C   0  0  0  0  0  0  0  0  0  0  0  0
   67.9880   38.6450    0.0920 C   0  0  0  0  0  0  0  0  0  0  0  0
   69.3290   38.2710    0.1180 C   0  0  0  0  0  0  0  0  0  0  0  0
   69.6570   37.2010    0.9040 O   0  0  0  0  0  0  0  0  0  0  0  0
   70.2670   38.9800   -0.6380 C   0  0  0  0  0  0  0  0  0  0  0  0
   71.6860   38.6200   -0.6390 C   0  0  0  0  0  0  0  0  0  0  0  0
   72.1210   37.6830    0.0280 O   0  0  0  0  0  0  0  0  0  0  0  0
   72.5970   39.4290   -1.4810 C   0  0  0  0  0  0  0  0  0  0  0  0
   73.9380   39.0890   -1.4650 O   0  0  0  0  0  0  0  0  0  0  0  0
   72.5590   41.4850   -4.4030 C   0  0  0  0  0  0  0  0  0  0  0  0
   73.3330   42.2930   -5.2410 C   0  0  0  0  0  0  0  0  0  0  0  0
   74.4670   42.9620   -4.7530 C   0  0  0  0  0  0  0  0  0  0  0  0
   75.2490   43.8390   -5.7040 C   0  0  0  0  0  0  0  0  0  0  0  0
   75.7650   43.0650   -6.9060 C   0  0  0  0  0  0  0  0  0  0  0  0
   76.3890   41.9390   -6.4640 F   0  0  0  0  0  0  0  0  0  0  0  0
   75.9653   43.4552   -1.7102 H   0  0  0  0  0  0  0  0  0  0  0  0
   76.9353   42.9672   -3.1412 H   0  0  0  0  0  0  0  0  0  0  0  0
   76.0616   44.5367   -3.1412 H   0  0  0  0  0  0  0  0  0  0  0  0
   74.3142   41.8651   -1.5140 H   0  0  0  0  0  0  0  0  0  0  0  0
   68.2014   41.2942   -2.0566 H   0  0  0  0  0  0  0  0  0  0  0  0
   66.5237   40.0247   -0.7108 H   0  0  0  0  0  0  0  0  0  0  0  0
   67.2489   38.0873    0.6859 H   0  0  0  0  0  0  0  0  0  0  0  0
   69.7450   36.3490    0.5220 H   0  0  0  0  0  0  0  0  0  0  0  0
   74.4900   39.3320   -2.1810 H   0  0  0  0  0  0  0  0  0  0  0  0
   71.6778   40.9662   -4.8084 H   0  0  0  0  0  0  0  0  0  0  0  0
   73.0496   42.4063   -6.2978 H   0  0  0  0  0  0  0  0  0  0  0  0
   74.5944   44.6488   -6.0585 H   0  0  0  0  0  0  0  0  0  0  0  0
   76.1184   44.2363   -5.1596 H   0  0  0  0  0  0  0  0  0  0  0  0
   74.9232   42.7900   -7.5585 H   0  0  0  0  0  0  0  0  0  0  0  0
   76.4713   43.6857   -7.4769 H   0  0  0  0  0  0  0  0  0  0  0  0
  1  2  1  0
  2  3  2  0
  3  4  1  0
  4  5  1  0
  5  6  1  0
  6  7  1  0
  7  8  2  0
  8  9  1  0
  9 10  2  0
 10 11  1  0
 11 12  1  0
 11 13  2  0
 13 14  1  0
 14 15  2  0
 14 16  1  0
 16 17  1  0
  4 18  2  0
 18 19  1  0
 19 20  2  0
 20 21  1  0
 21 22  1  0
 22 23  1  0
 20  2  1  0
 16  5  2  0
 13  7  1  0
  1 24  1  0
  1 25  1  0
  1 26  1  0
  3 27  1  0
  8 28  1  0
  9 29  1  0
 10 30  1  0
 12 31  1  0
 17 32  1  0
 18 33  1  0
 19 34  1  0
 21 35  1  0
 21 36  1  0
 22 37  1  0
 22 38  1  0
M  END
>  <meeko>  (6) 
{"is_sidechain": [false], "free_energy": -7.296, "intermolecular_energy": -9.142, "internal_energy": -0.388}

$$$$
cand_047_out
     RDKit          3D

 38 40  0  0  0  0  0  0  0  0999 V2000
   69.9960   41.9760   -0.6430 C   0  0  0  0  0  0  0  0  0  0  0  0
   71.0190   41.0680   -1.2690 C   0  0  0  0  0  0  0  0  0  0  0  0
   72.0010   41.6320   -2.1070 C   0  0  0  0  0  0  0  0  0  0  0  0
   72.9810   40.8430   -2.7260 C   0  0  0  0  0  0  0  0  0  0  0  0
   73.9990   41.4300   -3.6230 C   0  0  0  0  0  0  0  0  0  0  0  0
   73.4840   41.7940   -4.8620 O   0  0  0  0  0  0  0  0  0  0  0  0
   74.3230   42.3540   -5.7900 C   0  0  0  0  0  0  0  0  0  0  0  0
   73.7600   42.7170   -7.0150 C   0  0  0  0  0  0  0  0  0  0  0  0
   74.5600   43.2920   -8.0060 C   0  0  0  0  0  0  0  0  0  0  0  0
   75.9210   43.4990   -7.7740 C   0  0  0  0  0  0  0  0  0  0  0  0
   76.4810   43.1340   -6.5520 C   0  0  0  0  0  0  0  0  0  0  0  0
   77.8190   43.3640   -6.3910 O   0  0  0  0  0  0  0  0  0  0  0  0
   75.6790   42.5610   -5.5600 C   0  0  0  0  0  0  0  0  0  0  0  0
   76.2270   42.1630   -4.2620 C   0  0  0  0  0  0  0  0  0  0  0  0
   77.4160   42.3070   -3.9850 O   0  0  0  0  0  0  0  0  0  0  0  0
   75.2920   41.5730   -3.2760 C   0  0  0  0  0  0  0  0  0  0  0  0
   75.8220   41.1880   -2.0580 O   0  0  0  0  0  0  0  0  0  0  0  0
   72.9550   39.4620   -2.5140 C   0  0  0  0  0  0  0  0  0  0  0  0
   71.9840   38.8850   -1.6910 C   0  0  0  0  0  0  0  0  0  0  0  0
   71.0070   39.6750   -1.0640 C   0  0  0  0  0  0  0  0  0  0  0  0
   69.9980   38.9940   -0.1680 C   0  0  0  0  0  0  0  0  0  0  0  0
   70.6550   38.0290    0.8060 C   0  0  0  0  0  0  0  0  0  0  0  0
   70.3000   36.7590    0.4660 F   0  0  0  0  0  0  0  0  0  0  0  0
   70.0694   41.9108    0.4526 H   0  0  0  0  0  0  0  0  0  0  0  0
   70.1815   43.0123   -0.9619 H   0  0  0  0  0  0  0  0  0  0  0  0
   68.9891   41.6689   -0.9619 H   0  0  0  0  0  0  0  0  0  0  0  0
   71.9989   42.7183   -2.2800 H   0  0  0  0  0  0  0  0  0  0  0  0
   72.6885   42.5506   -7.1997 H   0  0  0  0  0  0  0  0  0  0  0  0
   74.1168   43.5819   -8.9701 H   0  0  0  0  0  0  0  0  0  0  0  0
   76.5504   43.9499   -8.5554 H   0  0  0  0  0  0  0  0  0  0  0  0
   78.4320   42.6680   -6.5220 H   0  0  0  0  0  0  0  0  0  0  0  0
   75.2660   40.8180   -1.4020 H   0  0  0  0  0  0  0  0  0  0  0  0
   73.7066   38.8225   -2.9999 H   0  0  0  0  0  0  0  0  0  0  0  0
   71.9851   37.7965   -1.5321 H   0  0  0  0  0  0  0  0  0  0  0  0
   69.4572   39.7620    0.4045 H   0  0  0  0  0  0  0  0  0  0  0  0
   69.3143   38.4160   -0.8071 H   0  0  0  0  0  0  0  0  0  0  0  0
   71.7485   38.1351    0.7518 H   0  0  0  0  0  0  0  0  0  0  0  0
   70.3259   38.2490    1.8323 H   0  0  0  0  0  0  0  0  0  0  0  0
  1  2  1  0
  2  3  2  0
  3  4  1  0
  4  5  1  0
  5  6  1  0
  6  7  1  0
  7  8  2  0
  8  9  1  0
  9 10  2  0
 10 11  1  0
 11 12  1  0
 11 13  2  0
 13 14  1  0
 14 15  2  0
 14 16  1  0
 16 17  1  0
  4 18  2  0
 18 19  1  0
 19 20  2  0
 20 21  1  0
 21 22  1  0
 22 23  1  0
 20  2  1  0
 16  5  2  0
 13  7  1  0
  1 24  1  0
  1 25  1  0
  1 26  1  0
  3 27  1  0
  8 28  1  0
  9 29  1  0
 10 30  1  0
 12 31  1  0
 17 32  1  0
 18 33  1  0
 19 34  1  0
 21 35  1  0
 21 36  1  0
 22 37  1  0
 22 38  1  0
M  END
>  <meeko>  (7) 
{"is_sidechain": [false], "free_energy": -7.287, "intermolecular_energy": -9.079, "internal_energy": -0.441}

$$$$
cand_047_out
     RDKit          3D

 38 40  0  0  0  0  0  0  0  0999 V2000
   68.7060   39.5600   -0.5180 C   0  0  0  0  0  0  0  0  0  0  0  0
   70.1800   39.7950   -0.7050 C   0  0  0  0  0  0  0  0  0  0  0  0
   70.6030   40.6400   -1.7490 C   0  0  0  0  0  0  0  0  0  0  0  0
   71.9610   40.8980   -1.9830 C   0  0  0  0  0  0  0  0  0  0  0  0
   72.4080   41.7680   -3.0920 C   0  0  0  0  0  0  0  0  0  0  0  0
   72.6670   43.0720   -2.6860 O   0  0  0  0  0  0  0  0  0  0  0  0
   73.0920   43.9850   -3.6160 C   0  0  0  0  0  0  0  0  0  0  0  0
   73.3540   45.2780   -3.1610 C   0  0  0  0  0  0  0  0  0  0  0  0
   73.7890   46.2570   -4.0580 C   0  0  0  0  0  0  0  0  0  0  0  0
   73.9570   45.9440   -5.4080 C   0  0  0  0  0  0  0  0  0  0  0  0
   73.6940   44.6530   -5.8600 C   0  0  0  0  0  0  0  0  0  0  0  0
   73.8790   44.4150   -7.1940 O   0  0  0  0  0  0  0  0  0  0  0  0
   73.2610   43.6740   -4.9610 C   0  0  0  0  0  0  0  0  0  0  0  0
   72.9720   42.3050   -5.3950 C   0  0  0  0  0  0  0  0  0  0  0  0
   73.0900   41.9550   -6.5670 O   0  0  0  0  0  0  0  0  0  0  0  0
   72.5270   41.3400   -4.3630 C   0  0  0  0  0  0  0  0  0  0  0  0
   72.2450   40.0540   -4.7840 O   0  0  0  0  0  0  0  0  0  0  0  0
   72.9070   40.2750   -1.1640 C   0  0  0  0  0  0  0  0  0  0  0  0
   72.5050   39.4280   -0.1280 C   0  0  0  0  0  0  0  0  0  0  0  0
   71.1450   39.1750    0.1110 C   0  0  0  0  0  0  0  0  0  0  0  0
   70.7730   38.2680    1.2620 C   0  0  0  0  0  0  0  0  0  0  0  0
   71.3810   36.8820    1.1190 C   0  0  0  0  0  0  0  0  0  0  0  0
   70.5000   36.0870    0.4490 F   0  0  0  0  0  0  0  0  0  0  0  0
   68.4740   39.5230    0.5566 H   0  0  0  0  0  0  0  0  0  0  0  0
   68.1417   40.3795   -0.9869 H   0  0  0  0  0  0  0  0  0  0  0  0
   68.4245   38.6056   -0.9869 H   0  0  0  0  0  0  0  0  0  0  0  0
   69.8487   41.1096   -2.3975 H   0  0  0  0  0  0  0  0  0  0  0  0
   73.2183   45.5260   -2.0980 H   0  0  0  0  0  0  0  0  0  0  0  0
   73.9993   47.2756   -3.7000 H   0  0  0  0  0  0  0  0  0  0  0  0
   74.2967   46.7161   -6.1141 H   0  0  0  0  0  0  0  0  0  0  0  0
   74.2610   45.0750   -7.7380 H   0  0  0  0  0  0  0  0  0  0  0  0
   71.4420   39.6440   -4.5290 H   0  0  0  0  0  0  0  0  0  0  0  0
   73.9786   40.4533   -1.3368 H   0  0  0  0  0  0  0  0  0  0  0  0
   73.2651   38.9526    0.5094 H   0  0  0  0  0  0  0  0  0  0  0  0
   71.1332   38.7182    2.1988 H   0  0  0  0  0  0  0  0  0  0  0  0
   69.6785   38.1584    1.2662 H   0  0  0  0  0  0  0  0  0  0  0  0
   72.3235   36.9473    0.5556 H   0  0  0  0  0  0  0  0  0  0  0  0
   71.5881   36.4585    2.1129 H   0  0  0  0  0  0  0  0  0  0  0  0
  1  2  1  0
  2  3  2  0
  3  4  1  0
  4  5  1  0
  5  6  1  0
  6  7  1  0
  7  8  2  0
  8  9  1  0
  9 10  2  0
 10 11  1  0
 11 12  1  0
 11 13  2  0
 13 14  1  0
 14 15  2  0
 14 16  1  0
 16 17  1  0
  4 18  2  0
 18 19  1  0
 19 20  2  0
 20 21  1  0
 21 22  1  0
 22 23  1  0
 20  2  1  0
 16  5  2  0
 13  7  1  0
  1 24  1  0
  1 25  1  0
  1 26  1  0
  3 27  1  0
  8 28  1  0
  9 29  1  0
 10 30  1  0
 12 31  1  0
 17 32  1  0
 18 33  1  0
 19 34  1  0
 21 35  1  0
 21 36  1  0
 22 37  1  0
 22 38  1  0
M  END
>  <meeko>  (8) 
{"is_sidechain": [false], "free_energy": -7.276, "intermolecular_energy": -8.969, "internal_energy": -0.538}

$$$$
cand_047_out
     RDKit          3D

 38 40  0  0  0  0  0  0  0  0999 V2000
   70.3830   38.5780    1.2290 C   0  0  0  0  0  0  0  0  0  0  0  0
   70.2860   39.4400   -0.0000 C   0  0  0  0  0  0  0  0  0  0  0  0
   71.4470   40.0880   -0.4650 C   0  0  0  0  0  0  0  0  0  0  0  0
   71.4260   40.9100   -1.6010 C   0  0  0  0  0  0  0  0  0  0  0  0
   72.6390   41.6080   -2.0790 C   0  0  0  0  0  0  0  0  0  0  0  0
   72.3900   42.9160   -2.4760 O   0  0  0  0  0  0  0  0  0  0  0  0
   73.4300   43.6780   -2.9400 C   0  0  0  0  0  0  0  0  0  0  0  0
   73.1370   44.9910   -3.3140 C   0  0  0  0  0  0  0  0  0  0  0  0
   74.1520   45.8210   -3.7960 C   0  0  0  0  0  0  0  0  0  0  0  0
   75.4580   45.3380   -3.9070 C   0  0  0  0  0  0  0  0  0  0  0  0
   75.7480   44.0280   -3.5350 C   0  0  0  0  0  0  0  0  0  0  0  0
   77.0460   43.6200   -3.6690 O   0  0  0  0  0  0  0  0  0  0  0  0
   74.7320   43.1990   -3.0500 C   0  0  0  0  0  0  0  0  0  0  0  0
   74.9940   41.8160   -2.6480 C   0  0  0  0  0  0  0  0  0  0  0  0
   76.1140   41.3160   -2.7230 O   0  0  0  0  0  0  0  0  0  0  0  0
   73.8500   41.0220   -2.1400 C   0  0  0  0  0  0  0  0  0  0  0  0
   74.1050   39.7130   -1.7750 O   0  0  0  0  0  0  0  0  0  0  0  0
   70.2100   41.0980   -2.2640 C   0  0  0  0  0  0  0  0  0  0  0  0
   69.0470   40.4680   -1.8120 C   0  0  0  0  0  0  0  0  0  0  0  0
   69.0690   39.6390   -0.6790 C   0  0  0  0  0  0  0  0  0  0  0  0
   67.7830   38.9690   -0.2540 C   0  0  0  0  0  0  0  0  0  0  0  0
   66.5750   39.5250   -0.9900 C   0  0  0  0  0  0  0  0  0  0  0  0
   66.3850   38.7980   -2.1260 F   0  0  0  0  0  0  0  0  0  0  0  0
   70.3119   39.2099    2.1266 H   0  0  0  0  0  0  0  0  0  0  0  0
   69.5615   37.8465    1.2296 H   0  0  0  0  0  0  0  0  0  0  0  0
   71.3465   38.0473    1.2296 H   0  0  0  0  0  0  0  0  0  0  0  0
   72.3939   39.9457    0.0765 H   0  0  0  0  0  0  0  0  0  0  0  0
   72.1083   45.3713   -3.2292 H   0  0  0  0  0  0  0  0  0  0  0  0
   73.9225   46.8563   -4.0885 H   0  0  0  0  0  0  0  0  0  0  0  0
   76.2564   45.9918   -4.2879 H   0  0  0  0  0  0  0  0  0  0  0  0
   77.7050   44.2340   -3.9280 H   0  0  0  0  0  0  0  0  0  0  0  0
   74.9500   39.4750   -1.4470 H   0  0  0  0  0  0  0  0  0  0  0  0
   70.1678   41.7482   -3.1503 H   0  0  0  0  0  0  0  0  0  0  0  0
   68.1012   40.6239   -2.3515 H   0  0  0  0  0  0  0  0  0  0  0  0
   67.8594   37.8916   -0.4620 H   0  0  0  0  0  0  0  0  0  0  0  0
   67.6415   39.1606    0.8199 H   0  0  0  0  0  0  0  0  0  0  0  0
   65.6841   39.4504   -0.3491 H   0  0  0  0  0  0  0  0  0  0  0  0
   66.7439   40.5818   -1.2443 H   0  0  0  0  0  0  0  0  0  0  0  0
  1  2  1  0
  2  3  2  0
  3  4  1  0
  4  5  1  0
  5  6  1  0
  6  7  1  0
  7  8  2  0
  8  9  1  0
  9 10  2  0
 10 11  1  0
 11 12  1  0
 11 13  2  0
 13 14  1  0
 14 15  2  0
 14 16  1  0
 16 17  1  0
  4 18  2  0
 18 19  1  0
 19 20  2  0
 20 21  1  0
 21 22  1  0
 22 23  1  0
 20  2  1  0
 16  5  2  0
 13  7  1  0
  1 24  1  0
  1 25  1  0
  1 26  1  0
  3 27  1  0
  8 28  1  0
  9 29  1  0
 10 30  1  0
 12 31  1  0
 17 32  1  0
 18 33  1  0
 19 34  1  0
 21 35  1  0
 21 36  1  0
 22 37  1  0
 22 38  1  0
M  END
>  <meeko>  (9) 
{"is_sidechain": [false], "free_energy": -7.228, "intermolecular_energy": -9.328, "internal_energy": -0.12}

$$$$
