cand_021_out
     RDKit          3D

 36 38  0  0  0  0  0  0  0  0999 V2000
   67.8230   38.9440   -0.2280 C   0  0  0  0  0  0  0  0  0  0  0  0
   68.9510   38.9380    0.4940 C   0  0  0  0  0  0  0  0  0  0  0  0
   70.2850   38.9050   -0.1200 C   0  0  0  0  0  0  0  0  0  0  0  0
   70.6540   39.9260   -1.0130 C   0  0  0  0  0  0  0  0  0  0  0  0
   71.9170   39.9480   -1.6210 C   0  0  0  0  0  0  0  0  0  0  0  0
   72.3150   41.0300   -2.5450 C   0  0  0  0  0  0  0  0  0  0  0  0
   73.5020   41.6490   -2.1750 O   0  0  0  0  0  0  0  0  0  0  0  0
   73.9850   42.6740   -2.9490 C   0  0  0  0  0  0  0  0  0  0  0  0
   75.1720   43.2780   -2.5320 C   0  0  0  0  0  0  0  0  0  0  0  0
   75.7180   44.3270   -3.2760 C   0  0  0  0  0  0  0  0  0  0  0  0
   75.0790   44.7690   -4.4360 C   0  0  0  0  0  0  0  0  0  0  0  0
   73.8940   44.1640   -4.8490 C   0  0  0  0  0  0  0  0  0  0  0  0
   73.3210   44.6470   -5.9930 O   0  0  0  0  0  0  0  0  0  0  0  0
   73.3480   43.1160   -4.1040 C   0  0  0  0  0  0  0  0  0  0  0  0
   72.1060   42.4530   -4.5030 C   0  0  0  0  0  0  0  0  0  0  0  0
   71.4880   42.7810   -5.5150 O   0  0  0  0  0  0  0  0  0  0  0  0
   71.6060   41.3580   -3.6410 C   0  0  0  0  0  0  0  0  0  0  0  0
   70.4390   40.7290   -4.0340 O   0  0  0  0  0  0  0  0  0  0  0  0
   72.8290   38.9360   -1.2990 C   0  0  0  0  0  0  0  0  0  0  0  0
   72.4780   37.9180   -0.4080 C   0  0  0  0  0  0  0  0  0  0  0  0
   71.2070   37.8880    0.1900 C   0  0  0  0  0  0  0  0  0  0  0  0
   70.8530   36.7640    1.1320 C   0  0  0  0  0  0  0  0  0  0  0  0
   71.9130   36.3530    1.8840 F   0  0  0  0  0  0  0  0  0  0  0  0
   70.4090   35.6410    0.4930 F   0  0  0  0  0  0  0  0  0  0  0  0
   66.8464   38.9692    0.2777 H   0  0  0  0  0  0  0  0  0  0  0  0
   67.8731   38.9238   -1.3267 H   0  0  0  0  0  0  0  0  0  0  0  0
   68.8754   38.9586    1.5912 H   0  0  0  0  0  0  0  0  0  0  0  0
   69.9347   40.7266   -1.2401 H   0  0  0  0  0  0  0  0  0  0  0  0
   75.6768   42.9288   -1.6192 H   0  0  0  0  0  0  0  0  0  0  0  0
   76.6525   44.8053   -2.9474 H   0  0  0  0  0  0  0  0  0  0  0  0
   75.5104   45.5934   -5.0227 H   0  0  0  0  0  0  0  0  0  0  0  0
   73.6490   45.4330   -6.3870 H   0  0  0  0  0  0  0  0  0  0  0  0
   69.9840   41.0200   -4.7990 H   0  0  0  0  0  0  0  0  0  0  0  0
   73.8316   38.9420   -1.7516 H   0  0  0  0  0  0  0  0  0  0  0  0
   73.2072   37.1291   -0.1716 H   0  0  0  0  0  0  0  0  0  0  0  0
   70.0594   37.2010    1.7560 H   0  0  0  0  0  0  0  0  0  0  0  0
  1  2  2  0
  2  3  1  0
  3  4  2  0
  4  5  1  0
  5  6  1  0
  6  7  1  0
  7  8  1  0
  8  9  2  0
  9 10  1  0
 10 11  2  0
 11 12  1  0
 12 13  1  0
 12 14  2  0
 14 15  1  0
 15 16  2  0
 15 17  1  0
 17 18  1  0
  5 19  2  0
 19 20  1  0
 20 21  2  0
 21 22  1  0
 22 23  1  0
 22 24  1  0
 21  3  1  0
 17  6  2  0
 14  8  1  0
  1 25  1  0
  1 26  1  0
  2 27  1  0
  4 28  1  0
  9 29  1  0
 10 30  1  0
 11 31  1  0
 13 32  1  0
 18 33  1  0
 19 34  1  0
 20 35  1  0
 22 36  1  0
M  END
>  <meeko>  (1) 
{"is_sidechain": [false], "free_energy": -8.104, "intermolecular_energy": -9.999, "internal_energy": -0.489}

$$$$
cand_021_out
     RDKit          3D

 36 38  0  0  0  0  0  0  0  0999 V2000
   73.4530   39.0880   -0.9880 C   0  0  0  0  0  0  0  0  0  0  0  0
   72.5960   39.4460   -0.0230 C   0  0  0  0  0  0  0  0  0  0  0  0
   71.1410   39.4460   -0.2150 C   0  0  0  0  0  0  0  0  0  0  0  0
   70.5490   40.4730   -0.9730 C   0  0  0  0  0  0  0  0  0  0  0  0
   69.1650   40.5160   -1.1950 C   0  0  0  0  0  0  0  0  0  0  0  0
   68.5440   41.5830   -2.0060 C   0  0  0  0  0  0  0  0  0  0  0  0
   67.6510   42.3630   -1.2820 O   0  0  0  0  0  0  0  0  0  0  0  0
   67.0010   43.3910   -1.9180 C   0  0  0  0  0  0  0  0  0  0  0  0
   66.1010   44.1380   -1.1570 C   0  0  0  0  0  0  0  0  0  0  0  0
   65.4080   45.2000   -1.7430 C   0  0  0  0  0  0  0  0  0  0  0  0
   65.6160   45.5140   -3.0870 C   0  0  0  0  0  0  0  0  0  0  0  0
   66.5150   44.7670   -3.8440 C   0  0  0  0  0  0  0  0  0  0  0  0
   66.6700   45.1290   -5.1540 O   0  0  0  0  0  0  0  0  0  0  0  0
   67.2070   43.7040   -3.2580 C   0  0  0  0  0  0  0  0  0  0  0  0
   68.1610   42.8940   -4.0170 C   0  0  0  0  0  0  0  0  0  0  0  0
   68.4030   43.1120   -5.2020 O   0  0  0  0  0  0  0  0  0  0  0  0
   68.8360   41.7850   -3.3050 C   0  0  0  0  0  0  0  0  0  0  0  0
   69.7450   41.0330   -4.0260 O   0  0  0  0  0  0  0  0  0  0  0  0
   68.3730   39.4920   -0.6650 C   0  0  0  0  0  0  0  0  0  0  0  0
   68.9470   38.4620    0.0850 C   0  0  0  0  0  0  0  0  0  0  0  0
   70.3320   38.4260    0.3200 C   0  0  0  0  0  0  0  0  0  0  0  0
   70.9180   37.3100    1.1500 C   0  0  0  0  0  0  0  0  0  0  0  0
   70.3900   36.0910    0.8440 F   0  0  0  0  0  0  0  0  0  0  0  0
   70.7090   37.4660    2.4910 F   0  0  0  0  0  0  0  0  0  0  0  0
   74.5359   39.1044   -0.7957 H   0  0  0  0  0  0  0  0  0  0  0  0
   73.0739   38.7776   -1.9729 H   0  0  0  0  0  0  0  0  0  0  0  0
   72.9992   39.7526    0.9534 H   0  0  0  0  0  0  0  0  0  0  0  0
   71.1866   41.2604   -1.4014 H   0  0  0  0  0  0  0  0  0  0  0  0
   65.9375   43.8911   -0.0976 H   0  0  0  0  0  0  0  0  0  0  0  0
   64.6977   45.7894   -1.1446 H   0  0  0  0  0  0  0  0  0  0  0  0
   65.0704   46.3507   -3.5478 H   0  0  0  0  0  0  0  0  0  0  0  0
   66.9740   44.5020   -5.7810 H   0  0  0  0  0  0  0  0  0  0  0  0
   70.6590   41.0780   -3.8200 H   0  0  0  0  0  0  0  0  0  0  0  0
   67.2871   39.4976   -0.8404 H   0  0  0  0  0  0  0  0  0  0  0  0
   68.3060   37.6687    0.4970 H   0  0  0  0  0  0  0  0  0  0  0  0
   71.9906   37.3569    0.9107 H   0  0  0  0  0  0  0  0  0  0  0  0
  1  2  2  0
  2  3  1  0
  3  4  2  0
  4  5  1  0
  5  6  1  0
  6  7  1  0
  7  8  1  0
  8  9  2  0
  9 10  1  0
 10 11  2  0
 11 12  1  0
 12 13  1  0
 12 14  2  0
 14 15  1  0
 15 16  2  0
 15 17  1  0
 17 18  1  0
  5 19  2  0
 19 20  1  0
 20 21  2  0
 21 22  1  0
 22 23  1  0
 22 24  1  0
 21  3  1  0
 17  6  2  0
 14  8  1  0
  1 25  1  0
  1 26  1  0
  2 27  1  0
  4 28  1  0
  9 29  1  0
 10 30  1  0
 11 31  1  0
 13 32  1  0
 18 33  1  0
 19 34  1  0
 20 35  1  0
 22 36  1  0
M  END
>  <meeko>  (2) 
{"is_sidechain": [false], "free_energy": -7.929, "intermolecular_energy": -9.745, "internal_energy": -0.528}

$$$$
cand_021_out
     RDKit          3D

 36 38  0  0  0  0  0  0  0  0999 V2000
   69.7710   43.0440   -0.9300 C   0  0  0  0  0  0  0  0  0  0  0  0
   70.1180   41.8260   -0.4950 C   0  0  0  0  0  0  0  0  0  0  0  0
   71.0610   40.9640   -1.2190 C   0  0  0  0  0  0  0  0  0  0  0  0
   72.0150   41.5550   -2.0680 C   0  0  0  0  0  0  0  0  0  0  0  0
   72.9450   40.7800   -2.7770 C   0  0  0  0  0  0  0  0  0  0  0  0
   73.9600   41.3990   -3.6540 C   0  0  0  0  0  0  0  0  0  0  0  0
   73.4390   41.8160   -4.8730 O   0  0  0  0  0  0  0  0  0  0  0  0
   74.2770   42.4070   -5.7850 C   0  0  0  0  0  0  0  0  0  0  0  0
   73.7160   42.7960   -7.0020 C   0  0  0  0  0  0  0  0  0  0  0  0
   74.5150   43.4060   -7.9730 C   0  0  0  0  0  0  0  0  0  0  0  0
   75.8710   43.6260   -7.7260 C   0  0  0  0  0  0  0  0  0  0  0  0
   76.4280   43.2370   -6.5100 C   0  0  0  0  0  0  0  0  0  0  0  0
   77.7620   43.4830   -6.3350 O   0  0  0  0  0  0  0  0  0  0  0  0
   75.6300   42.6260   -5.5400 C   0  0  0  0  0  0  0  0  0  0  0  0
   76.1740   42.2020   -4.2490 C   0  0  0  0  0  0  0  0  0  0  0  0
   77.3570   42.3680   -3.9540 O   0  0  0  0  0  0  0  0  0  0  0  0
   75.2460   41.5570   -3.2930 C   0  0  0  0  0  0  0  0  0  0  0  0
   75.7670   41.1730   -2.0710 O   0  0  0  0  0  0  0  0  0  0  0  0
   72.9250   39.3920   -2.6040 C   0  0  0  0  0  0  0  0  0  0  0  0
   71.9870   38.7920   -1.7590 C   0  0  0  0  0  0  0  0  0  0  0  0
   71.0460   39.5660   -1.0600 C   0  0  0  0  0  0  0  0  0  0  0  0
   70.0340   38.8860   -0.1710 C   0  0  0  0  0  0  0  0  0  0  0  0
   70.2840   37.5560   -0.0090 F   0  0  0  0  0  0  0  0  0  0  0  0
   68.7580   38.9560   -0.6510 F   0  0  0  0  0  0  0  0  0  0  0  0
   69.0600   43.6526   -0.3520 H   0  0  0  0  0  0  0  0  0  0  0  0
   70.1969   43.4360   -1.8654 H   0  0  0  0  0  0  0  0  0  0  0  0
   69.6787   41.4560    0.4431 H   0  0  0  0  0  0  0  0  0  0  0  0
   72.0319   42.6493   -2.1782 H   0  0  0  0  0  0  0  0  0  0  0  0
   72.6473   42.6229   -7.1967 H   0  0  0  0  0  0  0  0  0  0  0  0
   74.0746   43.7131   -8.9331 H   0  0  0  0  0  0  0  0  0  0  0  0
   76.4991   44.1061   -8.4908 H   0  0  0  0  0  0  0  0  0  0  0  0
   78.3100   43.6510   -7.0780 H   0  0  0  0  0  0  0  0  0  0  0  0
   76.0810   41.8200   -1.4700 H   0  0  0  0  0  0  0  0  0  0  0  0
   73.6550   38.7663   -3.1384 H   0  0  0  0  0  0  0  0  0  0  0  0
   71.9857   37.6985   -1.6397 H   0  0  0  0  0  0  0  0  0  0  0  0
   70.1272   39.4335    0.7785 H   0  0  0  0  0  0  0  0  0  0  0  0
  1  2  2  0
  2  3  1  0
  3  4  2  0
  4  5  1  0
  5  6  1  0
  6  7  1  0
  7  8  1  0
  8  9  2  0
  9 10  1  0
 10 11  2  0
 11 12  1  0
 12 13  1  0
 12 14  2  0
 14 15  1  0
 15 16  2  0
 15 17  1  0
 17 18  1  0
  5 19  2  0
 19 20  1  0
 20 21  2  0
 21 22  1  0
 22 23  1  0
 22 24  1  0
 21  3  1  0
 17  6  2  0
 14  8  1  0
  1 25  1  0
  1 26  1  0
  2 27  1  0
  4 28  1  0
  9 29  1  0
 10 30  1  0
 11 31  1  0
 13 32  1  0
 18 33  1  0
 19 34  1  0
 20 35  1  0
 22 36  1  0
M  END
>  <meeko>  (3) 
{"is_sidechain": [false], "free_energy": -7.802, "intermolecular_energy": -9.513, "internal_energy": -0.603}

$$$$
cand_021_out
     RDKit          3D

 36 38  0  0  0  0  0  0  0  0999 V2000
   70.2650   37.6030    0.6040 C   0  0  0  0  0  0  0  0  0  0  0  0
   69.5430   38.7270    0.5110 C   0  0  0  0  0  0  0  0  0  0  0  0
   69.6700   39.6590   -0.6160 C   0  0  0  0  0  0  0  0  0  0  0  0
   70.9200   40.2460   -0.8830 C   0  0  0  0  0  0  0  0  0  0  0  0
   71.0990   41.1360   -1.9520 C   0  0  0  0  0  0  0  0  0  0  0  0
   72.4160   41.7380   -2.2460 C   0  0  0  0  0  0  0  0  0  0  0  0
   72.3310   43.0810   -2.5940 O   0  0  0  0  0  0  0  0  0  0  0  0
   73.4830   43.7620   -2.8940 C   0  0  0  0  0  0  0  0  0  0  0  0
   73.3500   45.1040   -3.2540 C   0  0  0  0  0  0  0  0  0  0  0  0
   74.4850   45.8560   -3.5690 C   0  0  0  0  0  0  0  0  0  0  0  0
   75.7500   45.2660   -3.5240 C   0  0  0  0  0  0  0  0  0  0  0  0
   75.8790   43.9270   -3.1650 C   0  0  0  0  0  0  0  0  0  0  0  0
   77.1470   43.4140   -3.1410 O   0  0  0  0  0  0  0  0  0  0  0  0
   74.7440   43.1750   -2.8500 C   0  0  0  0  0  0  0  0  0  0  0  0
   74.8360   41.7660   -2.4670 C   0  0  0  0  0  0  0  0  0  0  0  0
   75.9130   41.1770   -2.3970 O   0  0  0  0  0  0  0  0  0  0  0  0
   73.5730   41.0560   -2.1600 C   0  0  0  0  0  0  0  0  0  0  0  0
   73.6700   39.7290   -1.7860 O   0  0  0  0  0  0  0  0  0  0  0  0
   70.0040   41.4160   -2.7760 C   0  0  0  0  0  0  0  0  0  0  0  0
   68.7580   40.8360   -2.5270 C   0  0  0  0  0  0  0  0  0  0  0  0
   68.5740   39.9550   -1.4480 C   0  0  0  0  0  0  0  0  0  0  0  0
   67.2100   39.3620   -1.1940 C   0  0  0  0  0  0  0  0  0  0  0  0
   66.5910   38.9550   -2.3390 F   0  0  0  0  0  0  0  0  0  0  0  0
   66.3400   40.2360   -0.6060 F   0  0  0  0  0  0  0  0  0  0  0  0
   70.1345   36.9354    1.4685 H   0  0  0  0  0  0  0  0  0  0  0  0
   70.9886   37.3473   -0.1841 H   0  0  0  0  0  0  0  0  0  0  0  0
   68.8258   38.9614    1.3114 H   0  0  0  0  0  0  0  0  0  0  0  0
   71.7771   40.0013   -0.2384 H   0  0  0  0  0  0  0  0  0  0  0  0
   72.3537   45.5688   -3.2897 H   0  0  0  0  0  0  0  0  0  0  0  0
   74.3819   46.9138   -3.8527 H   0  0  0  0  0  0  0  0  0  0  0  0
   76.6432   45.8583   -3.7718 H   0  0  0  0  0  0  0  0  0  0  0  0
   77.6670   43.4120   -3.9210 H   0  0  0  0  0  0  0  0  0  0  0  0
   73.2480   39.0650   -2.2970 H   0  0  0  0  0  0  0  0  0  0  0  0
   70.1254   42.1000   -3.6289 H   0  0  0  0  0  0  0  0  0  0  0  0
   67.9087   41.0723   -3.1850 H   0  0  0  0  0  0  0  0  0  0  0  0
   67.4256   38.5142   -0.5272 H   0  0  0  0  0  0  0  0  0  0  0  0
  1  2  2  0
  2  3  1  0
  3  4  2  0
  4  5  1  0
  5  6  1  0
  6  7  1  0
  7  8  1  0
  8  9  2  0
  9 10  1  0
 10 11  2  0
 11 12  1  0
 12 13  1  0
 12 14  2  0
 14 15  1  0
 15 16  2  0
 15 17  1  0
 17 18  1  0
  5 19  2  0
 19 20  1  0
 20 21  2  0
 21 22  1  0
 22 23  1  0
 22 24  1  0
 21  3  1  0
 17  6  2  0
 14  8  1  0
  1 25  1  0
  1 26  1  0
  2 27  1  0
  4 28  1  0
  9 29  1  0
 10 30  1  0
 11 31  1  0
 13 32  1  0
 18 33  1  0
 19 34  1  0
 20 35  1  0
 22 36  1  0
M  END
>  <meeko>  (4) 
{"is_sidechain": [false], "free_energy": -7.598, "intermolecular_energy": -9.579, "internal_energy": -0.284}

$$$$
cand_021_out
     RDKit          3D

 36 38  0  0  0  0  0  0  0  0999 V2000
   76.3780   43.5830   -2.3540 C   0  0  0  0  0  0  0  0  0  0  0  0
   75.2700   44.0490   -2.9430 C   0  0  0  0  0  0  0  0  0  0  0  0
   74.2420   43.1670   -3.5110 C   0  0  0  0  0  0  0  0  0  0  0  0
   73.5110   42.3260   -2.6530 C   0  0  0  0  0  0  0  0  0  0  0  0
   72.5130   41.4700   -3.1410 C   0  0  0  0  0  0  0  0  0  0  0  0
   71.7310   40.5990   -2.2400 C   0  0  0  0  0  0  0  0  0  0  0  0
   72.4900   39.5810   -1.6770 O   0  0  0  0  0  0  0  0  0  0  0  0
   71.8840   38.6980   -0.8190 C   0  0  0  0  0  0  0  0  0  0  0  0
   72.6800   37.6810   -0.2890 C   0  0  0  0  0  0  0  0  0  0  0  0
   72.1240   36.7500    0.5920 C   0  0  0  0  0  0  0  0  0  0  0  0
   70.7760   36.8360    0.9420 C   0  0  0  0  0  0  0  0  0  0  0  0
   69.9840   37.8520    0.4120 C   0  0  0  0  0  0  0  0  0  0  0  0
   68.6720   37.8770    0.7980 O   0  0  0  0  0  0  0  0  0  0  0  0
   70.5390   38.7820   -0.4700 C   0  0  0  0  0  0  0  0  0  0  0  0
   69.7430   39.8650   -1.0490 C   0  0  0  0  0  0  0  0  0  0  0  0
   68.5510   40.0120   -0.7840 O   0  0  0  0  0  0  0  0  0  0  0  0
   70.4240   40.7940   -1.9800 C   0  0  0  0  0  0  0  0  0  0  0  0
   69.6680   41.8220   -2.5120 O   0  0  0  0  0  0  0  0  0  0  0  0
   72.2340   41.4840   -4.5120 C   0  0  0  0  0  0  0  0  0  0  0  0
   72.9480   42.3190   -5.3760 C   0  0  0  0  0  0  0  0  0  0  0  0
   73.9580   43.1670   -4.8900 C   0  0  0  0  0  0  0  0  0  0  0  0
   74.7240   44.0410   -5.8520 C   0  0  0  0  0  0  0  0  0  0  0  0
   74.0610   44.2400   -7.0260 F   0  0  0  0  0  0  0  0  0  0  0  0
   75.9360   43.5220   -6.2080 F   0  0  0  0  0  0  0  0  0  0  0  0
   77.1192   44.2845   -1.9434 H   0  0  0  0  0  0  0  0  0  0  0  0
   76.5473   42.4986   -2.2806 H   0  0  0  0  0  0  0  0  0  0  0  0
   75.1233   45.1375   -3.0042 H   0  0  0  0  0  0  0  0  0  0  0  0
   73.7269   42.3399   -1.5745 H   0  0  0  0  0  0  0  0  0  0  0  0
   73.7428   37.6128   -0.5644 H   0  0  0  0  0  0  0  0  0  0  0  0
   72.7499   35.9480    1.0104 H   0  0  0  0  0  0  0  0  0  0  0  0
   70.3393   36.1024    1.6356 H   0  0  0  0  0  0  0  0  0  0  0  0
   68.4300   38.2700    1.6140 H   0  0  0  0  0  0  0  0  0  0  0  0
   68.7500   41.8720   -2.3280 H   0  0  0  0  0  0  0  0  0  0  0  0
   71.4449   40.8314   -4.9138 H   0  0  0  0  0  0  0  0  0  0  0  0
   72.7162   42.3124   -6.4513 H   0  0  0  0  0  0  0  0  0  0  0  0
   74.8472   44.9801   -5.2926 H   0  0  0  0  0  0  0  0  0  0  0  0
  1  2  2  0
  2  3  1  0
  3  4  2  0
  4  5  1  0
  5  6  1  0
  6  7  1  0
  7  8  1  0
  8  9  2  0
  9 10  1  0
 10 11  2  0
 11 12  1  0
 12 13  1  0
 12 14  2  0
 14 15  1  0
 15 16  2  0
 15 17  1  0
 17 18  1  0
  5 19  2  0
 19 20  1  0
 20 21  2  0
 21 22  1  0
 22 23  1  0
 22 24  1  0
 21  3  1  0
 17  6  2  0
 14  8  1  0
  1 25  1  0
  1 26  1  0
  2 27  1  0
  4 28  1  0
  9 29  1  0
 10 30  1  0
 11 31  1  0
 13 32  1  0
 18 33  1  0
 19 34  1  0
 20 35  1  0
 22 36  1  0
M  END
>  <meeko>  (5) 
{"is_sidechain": [false], "free_energy": -7.574, "intermolecular_energy": -9.216, "internal_energy": -0.619}

$$$$
cand_021_out
     RDKit          3D

 36 38  0  0  0  0  0  0  0  0999 V2000
   76.6110   43.0120   -1.7500 C   0  0  0  0  0  0  0  0  0  0  0  0
   75.8820   43.5110   -2.7550 C   0  0  0  0  0  0  0  0  0  0  0  0
   74.7330   42.8000   -3.3310 C   0  0  0  0  0  0  0  0  0  0  0  0
   73.9620   41.9620   -2.5050 C   0  0  0  0  0  0  0  0  0  0  0  0
   72.8500   41.2660   -3.0000 C   0  0  0  0  0  0  0  0  0  0  0  0
   72.0280   40.4000   -2.1310 C   0  0  0  0  0  0  0  0  0  0  0  0
   70.6780   40.7280   -2.1620 O   0  0  0  0  0  0  0  0  0  0  0  0
   69.8010   40.0020   -1.3970 C   0  0  0  0  0  0  0  0  0  0  0  0
   68.4570   40.3760   -1.4450 C   0  0  0  0  0  0  0  0  0  0  0  0
   67.5120   39.6750   -0.6910 C   0  0  0  0  0  0  0  0  0  0  0  0
   67.9100   38.6030    0.1090 C   0  0  0  0  0  0  0  0  0  0  0  0
   69.2520   38.2320    0.1560 C   0  0  0  0  0  0  0  0  0  0  0  0
   69.5730   37.1730    0.9600 O   0  0  0  0  0  0  0  0  0  0  0  0
   70.1970   38.9330   -0.5980 C   0  0  0  0  0  0  0  0  0  0  0  0
   71.6160   38.5770   -0.5780 C   0  0  0  0  0  0  0  0  0  0  0  0
   72.0440   37.6410    0.0960 O   0  0  0  0  0  0  0  0  0  0  0  0
   72.5380   39.3870   -1.4060 C   0  0  0  0  0  0  0  0  0  0  0  0
   73.8750   39.0340   -1.3920 O   0  0  0  0  0  0  0  0  0  0  0  0
   72.4990   41.4410   -4.3440 C   0  0  0  0  0  0  0  0  0  0  0  0
   73.2520   42.2750   -5.1740 C   0  0  0  0  0  0  0  0  0  0  0  0
   74.3750   42.9610   -4.6820 C   0  0  0  0  0  0  0  0  0  0  0  0
   75.1780   43.8390   -5.6110 C   0  0  0  0  0  0  0  0  0  0  0  0
   74.4830   44.2010   -6.7260 F   0  0  0  0  0  0  0  0  0  0  0  0
   76.3140   43.2380   -6.0740 F   0  0  0  0  0  0  0  0  0  0  0  0
   77.4630   43.5829   -1.3523 H   0  0  0  0  0  0  0  0  0  0  0  0
   76.3583   42.0309   -1.3215 H   0  0  0  0  0  0  0  0  0  0  0  0
   76.1544   44.4940   -3.1667 H   0  0  0  0  0  0  0  0  0  0  0  0
   74.2379   41.8502   -1.4461 H   0  0  0  0  0  0  0  0  0  0  0  0
   68.1423   41.2209   -2.0751 H   0  0  0  0  0  0  0  0  0  0  0  0
   66.4526   39.9687   -0.7281 H   0  0  0  0  0  0  0  0  0  0  0  0
   67.1651   38.0517    0.7016 H   0  0  0  0  0  0  0  0  0  0  0  0
   68.9430   36.4960    1.1170 H   0  0  0  0  0  0  0  0  0  0  0  0
   74.1230   38.1450   -1.2340 H   0  0  0  0  0  0  0  0  0  0  0  0
   71.6216   40.9166   -4.7504 H   0  0  0  0  0  0  0  0  0  0  0  0
   72.9615   42.3964   -6.2280 H   0  0  0  0  0  0  0  0  0  0  0  0
   75.4206   44.7111   -4.9861 H   0  0  0  0  0  0  0  0  0  0  0  0
  1  2  2  0
  2  3  1  0
  3  4  2  0
  4  5  1  0
  5  6  1  0
  6  7  1  0
  7  8  1  0
  8  9  2  0
  9 10  1  0
 10 11  2  0
 11 12  1  0
 12 13  1  0
 12 14  2  0
 14 15  1  0
 15 16  2  0
 15 17  1  0
 17 18  1  0
  5 19  2  0
 19 20  1  0
 20 21  2  0
 21 22  1  0
 22 23  1  0
 22 24  1  0
 21  3  1  0
 17  6  2  0
 14  8  1  0
  1 25  1  0
  1 26  1  0
  2 27  1  0
  4 28  1  0
  9 29  1  0
 10 30  1  0
 11 31  1  0
 13 32  1  0
 18 33  1  0
 19 34  1  0
 20 35  1  0
 22 36  1  0
M  END
>  <meeko>  (6) 
{"is_sidechain": [false], "free_energy": -7.56, "intermolecular_energy": -9.333, "internal_energy": -0.484}

$$$$
cand_021_out
     RDKit          3D

 36 38  0  0  0  0  0  0  0  0999 V2000
   72.9570   37.4190    0.1120 C   0  0  0  0  0  0  0  0  0  0  0  0
   72.1290   37.8490   -0.8490 C   0  0  0  0  0  0  0  0  0  0  0  0
   72.0830   39.2490   -1.2870 C   0  0  0  0  0  0  0  0  0  0  0  0
   73.0520   39.7160   -2.1930 C   0  0  0  0  0  0  0  0  0  0  0  0
   73.0500   41.0410   -2.6520 C   0  0  0  0  0  0  0  0  0  0  0  0
   74.0550   41.5290   -3.6180 C   0  0  0  0  0  0  0  0  0  0  0  0
   73.4950   41.9340   -4.8230 O   0  0  0  0  0  0  0  0  0  0  0  0
   74.3200   42.4090   -5.8110 C   0  0  0  0  0  0  0  0  0  0  0  0
   73.7180   42.7890   -7.0120 C   0  0  0  0  0  0  0  0  0  0  0  0
   74.5020   43.2830   -8.0580 C   0  0  0  0  0  0  0  0  0  0  0  0
   75.8840   43.3960   -7.9030 C   0  0  0  0  0  0  0  0  0  0  0  0
   76.4830   43.0160   -6.7050 C   0  0  0  0  0  0  0  0  0  0  0  0
   77.8410   43.1530   -6.6220 O   0  0  0  0  0  0  0  0  0  0  0  0
   75.6990   42.5210   -5.6590 C   0  0  0  0  0  0  0  0  0  0  0  0
   76.2870   42.1100   -4.3830 C   0  0  0  0  0  0  0  0  0  0  0  0
   77.4950   42.1860   -4.1680 O   0  0  0  0  0  0  0  0  0  0  0  0
   75.3710   41.5920   -3.3420 C   0  0  0  0  0  0  0  0  0  0  0  0
   75.9340   41.2200   -2.1350 O   0  0  0  0  0  0  0  0  0  0  0  0
   72.0370   41.8980   -2.2060 C   0  0  0  0  0  0  0  0  0  0  0  0
   71.0640   41.4470   -1.3110 C   0  0  0  0  0  0  0  0  0  0  0  0
   71.0740   40.1230   -0.8400 C   0  0  0  0  0  0  0  0  0  0  0  0
   70.0200   39.6730    0.1420 C   0  0  0  0  0  0  0  0  0  0  0  0
   70.5500   39.2310    1.3170 F   0  0  0  0  0  0  0  0  0  0  0  0
   69.2560   38.6390   -0.3210 F   0  0  0  0  0  0  0  0  0  0  0  0
   72.9549   36.3590    0.4061 H   0  0  0  0  0  0  0  0  0  0  0  0
   73.6391   38.1258    0.6071 H   0  0  0  0  0  0  0  0  0  0  0  0
   71.4562   37.1234   -1.3294 H   0  0  0  0  0  0  0  0  0  0  0  0
   73.8301   39.0253   -2.5501 H   0  0  0  0  0  0  0  0  0  0  0  0
   72.6285   42.6997   -7.1347 H   0  0  0  0  0  0  0  0  0  0  0  0
   74.0290   43.5831   -9.0047 H   0  0  0  0  0  0  0  0  0  0  0  0
   76.5001   43.7852   -8.7270 H   0  0  0  0  0  0  0  0  0  0  0  0
   78.3350   42.5950   -6.0520 H   0  0  0  0  0  0  0  0  0  0  0  0
   76.8570   41.3100   -2.0010 H   0  0  0  0  0  0  0  0  0  0  0  0
   72.0069   42.9376   -2.5641 H   0  0  0  0  0  0  0  0  0  0  0  0
   70.2789   42.1379   -0.9701 H   0  0  0  0  0  0  0  0  0  0  0  0
   69.4103   40.5767    0.2889 H   0  0  0  0  0  0  0  0  0  0  0  0
  1  2  2  0
  2  3  1  0
  3  4  2  0
  4  5  1  0
  5  6  1  0
  6  7  1  0
  7  8  1  0
  8  9  2  0
  9 10  1  0
 10 11  2  0
 11 12  1  0
 12 13  1  0
 12 14  2  0
 14 15  1  0
 15 16  2  0
 15 17  1  0
 17 18  1  0
  5 19  2  0
 19 20  1  0
 20 21  2  0
 21 22  1  0
 22 23  1  0
 22 24  1  0
 21  3  1  0
 17  6  2  0
 14  8  1  0
  1 25  1  0
  1 26  1  0
  2 27  1  0
  4 28  1  0
  9 29  1  0
 10 30  1  0
 11 31  1  0
 13 32  1  0
 18 33  1  0
 19 34  1  0
 20 35  1  0
 22 36  1  0
M  END
>  <meeko>  (7) 
{"is_sidechain": [false], "free_energy": -7.552, "intermolecular_energy": -9.406, "internal_energy": -0.402}

$$$$
cand_021_out
     RDKit          3D

 36 38  0  0  0  0  0  0  0  0999 V2000
   76.4450   42.2880   -1.4740 C   0  0  0  0  0  0  0  0  0  0  0  0
   75.9270   42.4610   -2.6970 C   0  0  0  0  0  0  0  0  0  0  0  0
   74.6190   43.0890   -2.9220 C   0  0  0  0  0  0  0  0  0  0  0  0
   73.4510   42.3470   -2.6740 C   0  0  0  0  0  0  0  0  0  0  0  0
   72.1760   42.9010   -2.8650 C   0  0  0  0  0  0  0  0  0  0  0  0
   70.9470   42.1300   -2.5870 C   0  0  0  0  0  0  0  0  0  0  0  0
   71.0510   41.3360   -1.4510 O   0  0  0  0  0  0  0  0  0  0  0  0
   69.9780   40.5660   -1.0800 C   0  0  0  0  0  0  0  0  0  0  0  0
   70.1320   39.7710    0.0570 C   0  0  0  0  0  0  0  0  0  0  0  0
   69.0770   38.9650    0.4900 C   0  0  0  0  0  0  0  0  0  0  0  0
   67.8700   38.9530   -0.2120 C   0  0  0  0  0  0  0  0  0  0  0  0
   67.7200   39.7470   -1.3470 C   0  0  0  0  0  0  0  0  0  0  0  0
   66.5120   39.6880   -1.9860 O   0  0  0  0  0  0  0  0  0  0  0  0
   68.7760   40.5530   -1.7800 C   0  0  0  0  0  0  0  0  0  0  0  0
   68.6600   41.4020   -2.9670 C   0  0  0  0  0  0  0  0  0  0  0  0
   67.6280   41.4530   -3.6340 O   0  0  0  0  0  0  0  0  0  0  0  0
   69.8390   42.2130   -3.3470 C   0  0  0  0  0  0  0  0  0  0  0  0
   69.7160   43.0220   -4.4610 O   0  0  0  0  0  0  0  0  0  0  0  0
   72.0840   44.2320   -3.2870 C   0  0  0  0  0  0  0  0  0  0  0  0
   73.2370   44.9830   -3.5310 C   0  0  0  0  0  0  0  0  0  0  0  0
   74.5140   44.4250   -3.3550 C   0  0  0  0  0  0  0  0  0  0  0  0
   75.7390   45.2570   -3.6470 C   0  0  0  0  0  0  0  0  0  0  0  0
   76.0220   46.1450   -2.6510 F   0  0  0  0  0  0  0  0  0  0  0  0
   75.6220   46.0120   -4.7790 F   0  0  0  0  0  0  0  0  0  0  0  0
   77.4296   41.8119   -1.3560 H   0  0  0  0  0  0  0  0  0  0  0  0
   75.8858   42.6221   -0.5876 H   0  0  0  0  0  0  0  0  0  0  0  0
   76.5049   42.1187   -3.5681 H   0  0  0  0  0  0  0  0  0  0  0  0
   73.5386   41.3085   -2.3222 H   0  0  0  0  0  0  0  0  0  0  0  0
   71.0824   39.7794    0.6108 H   0  0  0  0  0  0  0  0  0  0  0  0
   69.1971   38.3383    1.3860 H   0  0  0  0  0  0  0  0  0  0  0  0
   67.0395   38.3181    0.1303 H   0  0  0  0  0  0  0  0  0  0  0  0
   66.4630   39.3690   -2.8670 H   0  0  0  0  0  0  0  0  0  0  0  0
   69.9750   43.9220   -4.4180 H   0  0  0  0  0  0  0  0  0  0  0  0
   71.0946   44.6916   -3.4280 H   0  0  0  0  0  0  0  0  0  0  0  0
   73.1431   46.0266   -3.8659 H   0  0  0  0  0  0  0  0  0  0  0  0
   76.5341   44.5048   -3.7562 H   0  0  0  0  0  0  0  0  0  0  0  0
  1  2  2  0
  2  3  1  0
  3  4  2  0
  4  5  1  0
  5  6  1  0
  6  7  1  0
  7  8  1  0
  8  9  2  0
  9 10  1  0
 10 11  2  0
 11 12  1  0
 12 13  1  0
 12 14  2  0
 14 15  1  0
 15 16  2  0
 15 17  1  0
 17 18  1  0
  5 19  2  0
 19 20  1  0
 20 21  2  0
 21 22  1  0
 22 23  1  0
 22 24  1  0
 21  3  1  0
 17  6  2  0
 14  8  1  0
  1 25  1  0
  1 26  1  0
  2 27  1  0
  4 28  1  0
  9 29  1  0
 10 30  1  0
 11 31  1  0
 13 32  1  0
 18 33  1  0
 19 34  1  0
 20 35  1  0
 22 36  1  0
M  END
>  <meeko>  (8) 
{"is_sidechain": [false], "free_energy": -7.537, "intermolecular_energy": -9.502, "internal_energy": -0.286}

$$$$
cand_021_out
     RDKit          3D

 36 38  0  0  0  0  0  0  0  0999 V2000
   75.2990   45.8820   -3.3310 C   0  0  0  0  0  0  0  0  0  0  0  0
   73.9610   45.8340   -3.3210 C   0  0  0  0  0  0  0  0  0  0  0  0
   73.2060   44.6730   -3.8070 C   0  0  0  0  0  0  0  0  0  0  0  0
   73.0500   43.5560   -2.9660 C   0  0  0  0  0  0  0  0  0  0  0  0
   72.3310   42.4240   -3.3770 C   0  0  0  0  0  0  0  0  0  0  0  0
   72.1490   41.2580   -2.4880 C   0  0  0  0  0  0  0  0  0  0  0  0
   70.8450   41.1250   -2.0290 O   0  0  0  0  0  0  0  0  0  0  0  0
   70.5390   40.0810   -1.1930 C   0  0  0  0  0  0  0  0  0  0  0  0
   69.2210   39.9950   -0.7430 C   0  0  0  0  0  0  0  0  0  0  0  0
   68.8430   38.9540    0.1100 C   0  0  0  0  0  0  0  0  0  0  0  0
   69.7820   38.0020    0.5110 C   0  0  0  0  0  0  0  0  0  0  0  0
   71.0970   38.0910    0.0600 C   0  0  0  0  0  0  0  0  0  0  0  0
   71.9640   37.1250    0.4910 O   0  0  0  0  0  0  0  0  0  0  0  0
   71.4750   39.1320   -0.7920 C   0  0  0  0  0  0  0  0  0  0  0  0
   72.8450   39.2620   -1.2890 C   0  0  0  0  0  0  0  0  0  0  0  0
   73.7270   38.4590   -0.9880 O   0  0  0  0  0  0  0  0  0  0  0  0
   73.1450   40.4050   -2.1810 C   0  0  0  0  0  0  0  0  0  0  0  0
   74.4380   40.5120   -2.6560 O   0  0  0  0  0  0  0  0  0  0  0  0
   71.7400   42.4330   -4.6450 C   0  0  0  0  0  0  0  0  0  0  0  0
   71.8820   43.5380   -5.4890 C   0  0  0  0  0  0  0  0  0  0  0  0
   72.6140   44.6670   -5.0840 C   0  0  0  0  0  0  0  0  0  0  0  0
   72.7640   45.8360   -6.0270 C   0  0  0  0  0  0  0  0  0  0  0  0
   71.5910   46.1810   -6.6300 F   0  0  0  0  0  0  0  0  0  0  0  0
   73.6370   45.5960   -7.0500 F   0  0  0  0  0  0  0  0  0  0  0  0
   75.8201   46.7751   -2.9558 H   0  0  0  0  0  0  0  0  0  0  0  0
   75.8771   45.0283   -3.7144 H   0  0  0  0  0  0  0  0  0  0  0  0
   73.4049   46.7000   -2.9327 H   0  0  0  0  0  0  0  0  0  0  0  0
   73.5022   43.5708   -1.9633 H   0  0  0  0  0  0  0  0  0  0  0  0
   68.4808   40.7449   -1.0589 H   0  0  0  0  0  0  0  0  0  0  0  0
   67.8044   38.8849    0.4657 H   0  0  0  0  0  0  0  0  0  0  0  0
   69.4840   37.1829    1.1820 H   0  0  0  0  0  0  0  0  0  0  0  0
   71.7020   36.5250    1.1630 H   0  0  0  0  0  0  0  0  0  0  0  0
   74.8560   39.7710   -3.0510 H   0  0  0  0  0  0  0  0  0  0  0  0
   71.1580   41.5621   -4.9810 H   0  0  0  0  0  0  0  0  0  0  0  0
   71.4141   43.5236   -6.4844 H   0  0  0  0  0  0  0  0  0  0  0  0
   73.1339   46.6400   -5.3737 H   0  0  0  0  0  0  0  0  0  0  0  0
  1  2  2  0
  2  3  1  0
  3  4  2  0
  4  5  1  0
  5  6  1  0
  6  7  1  0
  7  8  1  0
  8  9  2  0
  9 10  1  0
 10 11  2  0
 11 12  1  0
 12 13  1  0
 12 14  2  0
 14 15  1  0
 15 16  2  0
 15 17  1  0
 17 18  1  0
  5 19  2  0
 19 20  1  0
 20 21  2  0
 21 22  1  0
 22 23  1  0
 22 24  1  0
 21  3  1  0
 17  6  2  0
 14  8  1  0
  1 25  1  0
  1 26  1  0
  2 27  1  0
  4 28  1  0
  9 29  1  0
 10 30  1  0
 11 31  1  0
 13 32  1  0
 18 33  1  0
 19 34  1  0
 20 35  1  0
 22 36  1  0
M  END
>  <meeko>  (9) 
{"is_sidechain": [false], "free_energy": -7.49, "intermolecular_energy": -9.099, "internal_energy": -0.632}

$$$$
