cand_012_out
     RDKit          3D

 40 42  0  0  0  0  0  0  0  0999 V2000
   75.1100   45.0200   -5.7290 C   0  0  0  0  0  0  0  0  0  0  0  0
   75.6480   43.7190   -5.3190 N   0  0  0  0  0  0  0  0  0  0  0  0
   76.2500   42.9490   -6.4130 C   0  0  0  0  0  0  0  0  0  0  0  0
   74.7400   42.9500   -4.5670 C   0  0  0  0  0  0  0  0  0  0  0  0
   73.5920   42.3850   -5.1450 C   0  0  0  0  0  0  0  0  0  0  0  0
   72.7010   41.6150   -4.3900 C   0  0  0  0  0  0  0  0  0  0  0  0
   72.9360   41.3780   -3.0340 C   0  0  0  0  0  0  0  0  0  0  0  0
   72.0000   40.5900   -2.2050 C   0  0  0  0  0  0  0  0  0  0  0  0
   72.6090   39.5070   -1.5820 O   0  0  0  0  0  0  0  0  0  0  0  0
   71.8520   38.6890   -0.7830 C   0  0  0  0  0  0  0  0  0  0  0  0
   72.5080   37.6210   -0.1680 C   0  0  0  0  0  0  0  0  0  0  0  0
   71.7940   36.7490    0.6580 C   0  0  0  0  0  0  0  0  0  0  0  0
   70.4280   36.9440    0.8670 C   0  0  0  0  0  0  0  0  0  0  0  0
   69.7760   38.0100    0.2510 C   0  0  0  0  0  0  0  0  0  0  0  0
   68.4370   38.1410    0.4990 O   0  0  0  0  0  0  0  0  0  0  0  0
   70.4900   38.8830   -0.5740 C   0  0  0  0  0  0  0  0  0  0  0  0
   69.8450   40.0140   -1.2400 C   0  0  0  0  0  0  0  0  0  0  0  0
   68.6440   40.2490   -1.1110 O   0  0  0  0  0  0  0  0  0  0  0  0
   70.6910   40.8830   -2.0900 C   0  0  0  0  0  0  0  0  0  0  0  0
   70.0680   41.9400   -2.7280 O   0  0  0  0  0  0  0  0  0  0  0  0
   74.0780   41.9460   -2.4510 C   0  0  0  0  0  0  0  0  0  0  0  0
   74.9860   42.7250   -3.2010 C   0  0  0  0  0  0  0  0  0  0  0  0
   76.2010   43.3120   -2.5260 C   0  0  0  0  0  0  0  0  0  0  0  0
   77.3820   42.9210   -3.0860 F   0  0  0  0  0  0  0  0  0  0  0  0
   76.3020   42.9420   -1.2100 F   0  0  0  0  0  0  0  0  0  0  0  0
   76.2130   44.6760   -2.5030 F   0  0  0  0  0  0  0  0  0  0  0  0
   74.8647   45.6133   -4.8358 H   0  0  0  0  0  0  0  0  0  0  0  0
   75.8609   45.5546   -6.3294 H   0  0  0  0  0  0  0  0  0  0  0  0
   74.2009   44.8681   -6.3294 H   0  0  0  0  0  0  0  0  0  0  0  0
   76.8768   42.1473   -5.9955 H   0  0  0  0  0  0  0  0  0  0  0  0
   75.4547   42.5080   -7.0319 H   0  0  0  0  0  0  0  0  0  0  0  0
   76.8699   43.6144   -7.0319 H   0  0  0  0  0  0  0  0  0  0  0  0
   73.3891   42.5512   -6.2133 H   0  0  0  0  0  0  0  0  0  0  0  0
   71.8060   41.1918   -4.8694 H   0  0  0  0  0  0  0  0  0  0  0  0
   73.5845   37.4664   -0.3333 H   0  0  0  0  0  0  0  0  0  0  0  0
   72.3094   35.9076    1.1442 H   0  0  0  0  0  0  0  0  0  0  0  0
   69.8668   36.2569    1.5173 H   0  0  0  0  0  0  0  0  0  0  0  0
   68.0950   37.9310    1.3460 H   0  0  0  0  0  0  0  0  0  0  0  0
   69.2350   42.2460   -2.4240 H   0  0  0  0  0  0  0  0  0  0  0  0
   74.2716   41.7802   -1.3809 H   0  0  0  0  0  0  0  0  0  0  0  0
  1  2  1  0
  2  3  1  0
  2  4  1  0
  4  5  2  0
  5  6  1  0
  6  7  2  0
  7  8  1  0
  8  9  1  0
  9 10  1  0
 10 11  2  0
 11 12  1  0
 12 13  2  0
 13 14  1  0
 14 15  1  0
 14 16  2  0
 16 17  1  0
 17 18  2  0
 17 19  1  0
 19 20  1  0
  7 21  1  0
 21 22  2  0
 22 23  1  0
 23 24  1  0
 23 25  1  0
 23 26  1  0
 22  4  1  0
 19  8  2  0
 16 10  1  0
  1 27  1  0
  1 28  1  0
  1 29  1  0
  3 30  1  0
  3 31  1  0
  3 32  1  0
  5 33  1  0
  6 34  1  0
 11 35  1  0
 12 36  1  0
 13 37  1  0
 15 38  1  0
 20 39  1  0
 21 40  1  0
M  END
>  <meeko>  (1) 
{"is_sidechain": [false], "free_energy": -7.897, "intermolecular_energy": -9.744, "internal_energy": -0.437}

$$$$
cand_012_out
     RDKit          3D

 40 42  0  0  0  0  0  0  0  0999 V2000
   74.8190   45.0700   -5.7410 C   0  0  0  0  0  0  0  0  0  0  0  0
   75.5100   43.8590   -5.2870 N   0  0  0  0  0  0  0  0  0  0  0  0
   76.2180   43.1390   -6.3510 C   0  0  0  0  0  0  0  0  0  0  0  0
   74.6960   43.0040   -4.5200 C   0  0  0  0  0  0  0  0  0  0  0  0
   73.5700   42.3680   -5.0660 C   0  0  0  0  0  0  0  0  0  0  0  0
   72.7730   41.5140   -4.2980 C   0  0  0  0  0  0  0  0  0  0  0  0
   73.0840   41.2600   -2.9600 C   0  0  0  0  0  0  0  0  0  0  0  0
   72.2450   40.3830   -2.1160 C   0  0  0  0  0  0  0  0  0  0  0  0
   70.9060   40.7580   -2.1100 O   0  0  0  0  0  0  0  0  0  0  0  0
   70.0160   40.0300   -1.3630 C   0  0  0  0  0  0  0  0  0  0  0  0
   68.6810   40.4350   -1.3960 C   0  0  0  0  0  0  0  0  0  0  0  0
   67.7240   39.7360   -0.6570 C   0  0  0  0  0  0  0  0  0  0  0  0
   68.1010   38.6340    0.1140 C   0  0  0  0  0  0  0  0  0  0  0  0
   69.4340   38.2330    0.1440 C   0  0  0  0  0  0  0  0  0  0  0  0
   69.7340   37.1460    0.9200 O   0  0  0  0  0  0  0  0  0  0  0  0
   70.3910   38.9310   -0.5960 C   0  0  0  0  0  0  0  0  0  0  0  0
   71.8020   38.5430   -0.5910 C   0  0  0  0  0  0  0  0  0  0  0  0
   72.2140   37.5890    0.0670 O   0  0  0  0  0  0  0  0  0  0  0  0
   72.7370   39.3460   -1.4130 C   0  0  0  0  0  0  0  0  0  0  0  0
   74.0700   38.9810   -1.3890 O   0  0  0  0  0  0  0  0  0  0  0  0
   74.2030   41.8990   -2.4080 C   0  0  0  0  0  0  0  0  0  0  0  0
   75.0170   42.7640   -3.1720 C   0  0  0  0  0  0  0  0  0  0  0  0
   76.2130   43.4240   -2.5310 C   0  0  0  0  0  0  0  0  0  0  0  0
   77.4030   43.0750   -3.1000 F   0  0  0  0  0  0  0  0  0  0  0  0
   76.3500   43.0940   -1.2080 F   0  0  0  0  0  0  0  0  0  0  0  0
   76.1600   44.7870   -2.5420 F   0  0  0  0  0  0  0  0  0  0  0  0
   74.4871   45.6517   -4.8684 H   0  0  0  0  0  0  0  0  0  0  0  0
   75.5059   45.6785   -6.3476 H   0  0  0  0  0  0  0  0  0  0  0  0
   73.9457   44.7883   -6.3476 H   0  0  0  0  0  0  0  0  0  0  0  0
   76.9224   42.4227   -5.9030 H   0  0  0  0  0  0  0  0  0  0  0  0
   75.4909   42.5975   -6.9739 H   0  0  0  0  0  0  0  0  0  0  0  0
   76.7717   43.8569   -6.9739 H   0  0  0  0  0  0  0  0  0  0  0  0
   73.3094   42.5452   -6.1199 H   0  0  0  0  0  0  0  0  0  0  0  0
   71.8918   41.0371   -4.7520 H   0  0  0  0  0  0  0  0  0  0  0  0
   68.3831   41.3028   -2.0027 H   0  0  0  0  0  0  0  0  0  0  0  0
   66.6713   40.0540   -0.6822 H   0  0  0  0  0  0  0  0  0  0  0  0
   67.3466   38.0843    0.6960 H   0  0  0  0  0  0  0  0  0  0  0  0
   69.0730   36.7610    1.4620 H   0  0  0  0  0  0  0  0  0  0  0  0
   74.3920   38.4270   -0.7050 H   0  0  0  0  0  0  0  0  0  0  0  0
   74.4537   41.7220   -1.3517 H   0  0  0  0  0  0  0  0  0  0  0  0
  1  2  1  0
  2  3  1  0
  2  4  1  0
  4  5  2  0
  5  6  1  0
  6  7  2  0
  7  8  1  0
  8  9  1  0
  9 10  1  0
 10 11  2  0
 11 12  1  0
 12 13  2  0
 13 14  1  0
 14 15  1  0
 14 16  2  0
 16 17  1  0
 17 18  2  0
 17 19  1  0
 19 20  1  0
  7 21  1  0
 21 22  2  0
 22 23  1  0
 23 24  1  0
 23 25  1  0
 23 26  1  0
 22  4  1  0
 19  8  2  0
 16 10  1  0
  1 27  1  0
  1 28  1  0
  1 29  1  0
  3 30  1  0
  3 31  1  0
  3 32  1  0
  5 33  1  0
  6 34  1  0
 11 35  1  0
 12 36  1  0
 13 37  1  0
 15 38  1  0
 20 39  1  0
 21 40  1  0
M  END
>  <meeko>  (2) 
{"is_sidechain": [false], "free_energy": -7.889, "intermolecular_energy": -9.774, "internal_energy": -0.397}

$$$$
cand_012_out
     RDKit          3D

 40 42  0  0  0  0  0  0  0  0999 V2000
   78.3440   43.0360   -4.6140 C   0  0  0  0  0  0  0  0  0  0  0  0
   77.0580   43.7380   -4.5900 N   0  0  0  0  0  0  0  0  0  0  0  0
   77.1450   45.1340   -4.1470 C   0  0  0  0  0  0  0  0  0  0  0  0
   76.0460   43.0300   -3.9140 C   0  0  0  0  0  0  0  0  0  0  0  0
   76.0600   42.8700   -2.5200 C   0  0  0  0  0  0  0  0  0  0  0  0
   75.0450   42.1730   -1.8570 C   0  0  0  0  0  0  0  0  0  0  0  0
   73.9770   41.6210   -2.5690 C   0  0  0  0  0  0  0  0  0  0  0  0
   72.9040   40.8570   -1.8990 C   0  0  0  0  0  0  0  0  0  0  0  0
   73.3400   39.6320   -1.4060 O   0  0  0  0  0  0  0  0  0  0  0  0
   72.4440   38.8180   -0.7630 C   0  0  0  0  0  0  0  0  0  0  0  0
   72.9280   37.6040   -0.2740 C   0  0  0  0  0  0  0  0  0  0  0  0
   72.0660   36.7280    0.3910 C   0  0  0  0  0  0  0  0  0  0  0  0
   70.7230   37.0660    0.5650 C   0  0  0  0  0  0  0  0  0  0  0  0
   70.2430   38.2770    0.0750 C   0  0  0  0  0  0  0  0  0  0  0  0
   68.9160   38.5440    0.2810 O   0  0  0  0  0  0  0  0  0  0  0  0
   71.1050   39.1540   -0.5880 C   0  0  0  0  0  0  0  0  0  0  0  0
   70.6410   40.4370   -1.1190 C   0  0  0  0  0  0  0  0  0  0  0  0
   69.4720   40.8020   -1.0110 O   0  0  0  0  0  0  0  0  0  0  0  0
   71.6350   41.2960   -1.8010 C   0  0  0  0  0  0  0  0  0  0  0  0
   71.1840   42.4990   -2.3130 O   0  0  0  0  0  0  0  0  0  0  0  0
   73.9630   41.7730   -3.9630 C   0  0  0  0  0  0  0  0  0  0  0  0
   74.9810   42.4750   -4.6450 C   0  0  0  0  0  0  0  0  0  0  0  0
   74.9160   42.6110   -6.1460 C   0  0  0  0  0  0  0  0  0  0  0  0
   74.8660   43.9040   -6.5780 F   0  0  0  0  0  0  0  0  0  0  0  0
   73.7990   42.0240   -6.6810 F   0  0  0  0  0  0  0  0  0  0  0  0
   75.9600   42.0230   -6.7980 F   0  0  0  0  0  0  0  0  0  0  0  0
   78.6807   42.8522   -3.5831 H   0  0  0  0  0  0  0  0  0  0  0  0
   78.2280   42.0761   -5.1385 H   0  0  0  0  0  0  0  0  0  0  0  0
   79.0887   43.6527   -5.1385 H   0  0  0  0  0  0  0  0  0  0  0  0
   77.1473   45.1703   -3.0476 H   0  0  0  0  0  0  0  0  0  0  0  0
   78.0729   45.5833   -4.5306 H   0  0  0  0  0  0  0  0  0  0  0  0
   76.2801   45.6950   -4.5306 H   0  0  0  0  0  0  0  0  0  0  0  0
   76.8866   43.3018   -1.9366 H   0  0  0  0  0  0  0  0  0  0  0  0
   75.0878   42.0581   -0.7639 H   0  0  0  0  0  0  0  0  0  0  0  0
   73.9862   37.3371   -0.4118 H   0  0  0  0  0  0  0  0  0  0  0  0
   72.4463   35.7710    0.7778 H   0  0  0  0  0  0  0  0  0  0  0  0
   70.0449   36.3762    1.0887 H   0  0  0  0  0  0  0  0  0  0  0  0
   68.5320   38.3880    1.1210 H   0  0  0  0  0  0  0  0  0  0  0  0
   70.8930   42.5490   -3.2030 H   0  0  0  0  0  0  0  0  0  0  0  0
   73.1366   41.3335   -4.5409 H   0  0  0  0  0  0  0  0  0  0  0  0
  1  2  1  0
  2  3  1  0
  2  4  1  0
  4  5  2  0
  5  6  1  0
  6  7  2  0
  7  8  1  0
  8  9  1  0
  9 10  1  0
 10 11  2  0
 11 12  1  0
 12 13  2  0
 13 14  1  0
 14 15  1  0
 14 16  2  0
 16 17  1  0
 17 18  2  0
 17 19  1  0
 19 20  1  0
  7 21  1  0
 21 22  2  0
 22 23  1  0
 23 24  1  0
 23 25  1  0
 23 26  1  0
 22  4  1  0
 19  8  2  0
 16 10  1  0
  1 27  1  0
  1 28  1  0
  1 29  1  0
  3 30  1  0
  3 31  1  0
  3 32  1  0
  5 33  1  0
  6 34  1  0
 11 35  1  0
 12 36  1  0
 13 37  1  0
 15 38  1  0
 20 39  1  0
 21 40  1  0
M  END
>  <meeko>  (3) 
{"is_sidechain": [false], "free_energy": -7.735, "intermolecular_energy": -9.43, "internal_energy": -0.552}

$$$$
cand_012_out
     RDKit          3D

 40 42  0  0  0  0  0  0  0  0999 V2000
   77.0770   42.7880   -5.5940 C   0  0  0  0  0  0  0  0  0  0  0  0
   75.9720   43.5460   -5.0010 N   0  0  0  0  0  0  0  0  0  0  0  0
   76.3910   44.7600   -4.2910 C   0  0  0  0  0  0  0  0  0  0  0  0
   75.1010   42.7550   -4.2290 C   0  0  0  0  0  0  0  0  0  0  0  0
   75.4770   42.2470   -2.9760 C   0  0  0  0  0  0  0  0  0  0  0  0
   74.6000   41.4700   -2.2130 C   0  0  0  0  0  0  0  0  0  0  0  0
   73.3140   41.1830   -2.6770 C   0  0  0  0  0  0  0  0  0  0  0  0
   72.3750   40.3410   -1.9050 C   0  0  0  0  0  0  0  0  0  0  0  0
   71.0610   40.7910   -1.9790 O   0  0  0  0  0  0  0  0  0  0  0  0
   70.0850   40.1030   -1.3050 C   0  0  0  0  0  0  0  0  0  0  0  0
   68.7790   40.5820   -1.4170 C   0  0  0  0  0  0  0  0  0  0  0  0
   67.7380   39.9270   -0.7540 C   0  0  0  0  0  0  0  0  0  0  0  0
   68.0030   38.7960    0.0190 C   0  0  0  0  0  0  0  0  0  0  0  0
   69.3070   38.3200    0.1290 C   0  0  0  0  0  0  0  0  0  0  0  0
   69.4950   37.2070    0.9030 O   0  0  0  0  0  0  0  0  0  0  0  0
   70.3480   38.9740   -0.5340 C   0  0  0  0  0  0  0  0  0  0  0  0
   71.7330   38.5080   -0.4450 C   0  0  0  0  0  0  0  0  0  0  0  0
   72.0470   37.5230    0.2210 O   0  0  0  0  0  0  0  0  0  0  0  0
   72.7610   39.2690   -1.1900 C   0  0  0  0  0  0  0  0  0  0  0  0
   74.0690   38.8300   -1.0860 O   0  0  0  0  0  0  0  0  0  0  0  0
   72.9360   41.6820   -3.9320 C   0  0  0  0  0  0  0  0  0  0  0  0
   73.8110   42.4680   -4.7130 C   0  0  0  0  0  0  0  0  0  0  0  0
   73.3550   42.9830   -6.0550 C   0  0  0  0  0  0  0  0  0  0  0  0
   73.6130   44.3080   -6.2520 F   0  0  0  0  0  0  0  0  0  0  0  0
   72.0010   42.8640   -6.2320 F   0  0  0  0  0  0  0  0  0  0  0  0
   73.9010   42.3180   -7.1140 F   0  0  0  0  0  0  0  0  0  0  0  0
   77.6996   42.3609   -4.7940 H   0  0  0  0  0  0  0  0  0  0  0  0
   76.6724   41.9764   -6.2166 H   0  0  0  0  0  0  0  0  0  0  0  0
   77.6885   43.4577   -6.2166 H   0  0  0  0  0  0  0  0  0  0  0  0
   76.3320   44.5890   -3.2060 H   0  0  0  0  0  0  0  0  0  0  0  0
   77.4265   45.0075   -4.5674 H   0  0  0  0  0  0  0  0  0  0  0  0
   75.7285   45.5935   -4.5674 H   0  0  0  0  0  0  0  0  0  0  0  0
   76.4823   42.4646   -2.5861 H   0  0  0  0  0  0  0  0  0  0  0  0
   74.9261   41.0807   -1.2372 H   0  0  0  0  0  0  0  0  0  0  0  0
   68.5695   41.4736   -2.0262 H   0  0  0  0  0  0  0  0  0  0  0  0
   66.7081   40.3035   -0.8416 H   0  0  0  0  0  0  0  0  0  0  0  0
   67.1829   38.2811    0.5408 H   0  0  0  0  0  0  0  0  0  0  0  0
   69.2040   37.2020    1.7940 H   0  0  0  0  0  0  0  0  0  0  0  0
   74.4490   38.6860   -0.2410 H   0  0  0  0  0  0  0  0  0  0  0  0
   71.9313   41.4550   -4.3180 H   0  0  0  0  0  0  0  0  0  0  0  0
  1  2  1  0
  2  3  1  0
  2  4  1  0
  4  5  2  0
  5  6  1  0
  6  7  2  0
  7  8  1  0
  8  9  1  0
  9 10  1  0
 10 11  2  0
 11 12  1  0
 12 13  2  0
 13 14  1  0
 14 15  1  0
 14 16  2  0
 16 17  1  0
 17 18  2  0
 17 19  1  0
 19 20  1  0
  7 21  1  0
 21 22  2  0
 22 23  1  0
 23 24  1  0
 23 25  1  0
 23 26  1  0
 22  4  1  0
 19  8  2  0
 16 10  1  0
  1 27  1  0
  1 28  1  0
  1 29  1  0
  3 30  1  0
  3 31  1  0
  3 32  1  0
  5 33  1  0
  6 34  1  0
 11 35  1  0
 12 36  1  0
 13 37  1  0
 15 38  1  0
 20 39  1  0
 21 40  1  0
M  END
>  <meeko>  (4) 
{"is_sidechain": [false], "free_energy": -7.715, "intermolecular_energy": -9.782, "internal_energy": -0.175}

$$$$
cand_012_out
     RDKit          3D

 40 42  0  0  0  0  0  0  0  0999 V2000
   75.8380   46.3770   -2.9370 C   0  0  0  0  0  0  0  0  0  0  0  0
   75.7050   45.1530   -3.7330 N   0  0  0  0  0  0  0  0  0  0  0  0
   75.9130   45.3490   -5.1720 C   0  0  0  0  0  0  0  0  0  0  0  0
   74.5260   44.4350   -3.4610 C   0  0  0  0  0  0  0  0  0  0  0  0
   73.2550   44.9820   -3.6960 C   0  0  0  0  0  0  0  0  0  0  0  0
   72.0900   44.2560   -3.4310 C   0  0  0  0  0  0  0  0  0  0  0  0
   72.1590   42.9530   -2.9310 C   0  0  0  0  0  0  0  0  0  0  0  0
   70.9450   42.1710   -2.6170 C   0  0  0  0  0  0  0  0  0  0  0  0
   71.1090   41.3380   -1.5170 O   0  0  0  0  0  0  0  0  0  0  0  0
   70.0590   40.5510   -1.1160 C   0  0  0  0  0  0  0  0  0  0  0  0
   70.2650   39.7390   -0.0000 C   0  0  0  0  0  0  0  0  0  0  0  0
   69.2360   38.9140    0.4590 C   0  0  0  0  0  0  0  0  0  0  0  0
   68.0040   38.9000   -0.1980 C   0  0  0  0  0  0  0  0  0  0  0  0
   67.8020   39.7110   -1.3110 C   0  0  0  0  0  0  0  0  0  0  0  0
   66.5710   39.6480   -1.9060 O   0  0  0  0  0  0  0  0  0  0  0  0
   68.8310   40.5380   -1.7700 C   0  0  0  0  0  0  0  0  0  0  0  0
   68.6610   41.4050   -2.9360 C   0  0  0  0  0  0  0  0  0  0  0  0
   67.6080   41.4450   -3.5710 O   0  0  0  0  0  0  0  0  0  0  0  0
   69.8110   42.2460   -3.3380 C   0  0  0  0  0  0  0  0  0  0  0  0
   69.6460   43.0510   -4.4510 O   0  0  0  0  0  0  0  0  0  0  0  0
   73.4270   42.4050   -2.6890 C   0  0  0  0  0  0  0  0  0  0  0  0
   74.6120   43.1260   -2.9520 C   0  0  0  0  0  0  0  0  0  0  0  0
   75.9510   42.4880   -2.6760 C   0  0  0  0  0  0  0  0  0  0  0  0
   76.7200   42.3240   -3.7910 F   0  0  0  0  0  0  0  0  0  0  0  0
   75.8350   41.2300   -2.1450 F   0  0  0  0  0  0  0  0  0  0  0  0
   76.7120   43.1750   -1.7750 F   0  0  0  0  0  0  0  0  0  0  0  0
   75.8104   46.1233   -1.8670 H   0  0  0  0  0  0  0  0  0  0  0  0
   76.7946   46.8660   -3.1734 H   0  0  0  0  0  0  0  0  0  0  0  0
   75.0088   47.0600   -3.1734 H   0  0  0  0  0  0  0  0  0  0  0  0
   76.7053   46.0956   -5.3296 H   0  0  0  0  0  0  0  0  0  0  0  0
   76.2108   44.3955   -5.6327 H   0  0  0  0  0  0  0  0  0  0  0  0
   74.9789   45.7028   -5.6327 H   0  0  0  0  0  0  0  0  0  0  0  0
   73.1738   46.0031   -4.0970 H   0  0  0  0  0  0  0  0  0  0  0  0
   71.1083   44.7155   -3.6182 H   0  0  0  0  0  0  0  0  0  0  0  0
   71.2358   39.7487    0.5171 H   0  0  0  0  0  0  0  0  0  0  0  0
   69.3962   38.2743    1.3394 H   0  0  0  0  0  0  0  0  0  0  0  0
   67.1943   38.2490    0.1635 H   0  0  0  0  0  0  0  0  0  0  0  0
   65.8620   39.2160   -1.4720 H   0  0  0  0  0  0  0  0  0  0  0  0
   69.5030   42.6620   -5.2920 H   0  0  0  0  0  0  0  0  0  0  0  0
   73.5003   41.3853   -2.2831 H   0  0  0  0  0  0  0  0  0  0  0  0
  1  2  1  0
  2  3  1  0
  2  4  1  0
  4  5  2  0
  5  6  1  0
  6  7  2  0
  7  8  1  0
  8  9  1  0
  9 10  1  0
 10 11  2  0
 11 12  1  0
 12 13  2  0
 13 14  1  0
 14 15  1  0
 14 16  2  0
 16 17  1  0
 17 18  2  0
 17 19  1  0
 19 20  1  0
  7 21  1  0
 21 22  2  0
 22 23  1  0
 23 24  1  0
 23 25  1  0
 23 26  1  0
 22  4  1  0
 19  8  2  0
 16 10  1  0
  1 27  1  0
  1 28  1  0
  1 29  1  0
  3 30  1  0
  3 31  1  0
  3 32  1  0
  5 33  1  0
  6 34  1  0
 11 35  1  0
 12 36  1  0
 13 37  1  0
 15 38  1  0
 20 39  1  0
 21 40  1  0
M  END
>  <meeko>  (5) 
{"is_sidechain": [false], "free_energy": -7.665, "intermolecular_energy": -9.666, "internal_energy": -0.229}

$$$$
cand_012_out
     RDKit          3D

 40 42  0  0  0  0  0  0  0  0999 V2000
   72.5580   46.3740   -5.9890 C   0  0  0  0  0  0  0  0  0  0  0  0
   73.6390   45.3970   -5.8300 N   0  0  0  0  0  0  0  0  0  0  0  0
   74.2300   44.9470   -7.0950 C   0  0  0  0  0  0  0  0  0  0  0  0
   73.3000   44.3190   -4.9910 C   0  0  0  0  0  0  0  0  0  0  0  0
   72.2600   43.4320   -5.3080 C   0  0  0  0  0  0  0  0  0  0  0  0
   71.9380   42.3590   -4.4720 C   0  0  0  0  0  0  0  0  0  0  0  0
   72.6540   42.1340   -3.2930 C   0  0  0  0  0  0  0  0  0  0  0  0
   72.3190   41.0240   -2.3760 C   0  0  0  0  0  0  0  0  0  0  0  0
   70.9660   40.9730   -2.0610 O   0  0  0  0  0  0  0  0  0  0  0  0
   70.5180   39.9920   -1.2140 C   0  0  0  0  0  0  0  0  0  0  0  0
   69.1510   39.9720   -0.9350 C   0  0  0  0  0  0  0  0  0  0  0  0
   68.6300   38.9980   -0.0790 C   0  0  0  0  0  0  0  0  0  0  0  0
   69.4740   38.0470    0.4960 C   0  0  0  0  0  0  0  0  0  0  0  0
   70.8380   38.0700    0.2160 C   0  0  0  0  0  0  0  0  0  0  0  0
   71.6080   37.1090    0.8130 O   0  0  0  0  0  0  0  0  0  0  0  0
   71.3590   39.0430   -0.6410 C   0  0  0  0  0  0  0  0  0  0  0  0
   72.7860   39.1040   -0.9610 C   0  0  0  0  0  0  0  0  0  0  0  0
   73.5940   38.3060   -0.4900 O   0  0  0  0  0  0  0  0  0  0  0  0
   73.2360   40.1710   -1.8840 C   0  0  0  0  0  0  0  0  0  0  0  0
   74.5880   40.2290   -2.1680 O   0  0  0  0  0  0  0  0  0  0  0  0
   73.6890   43.0220   -2.9680 C   0  0  0  0  0  0  0  0  0  0  0  0
   74.0260   44.1090   -3.8040 C   0  0  0  0  0  0  0  0  0  0  0  0
   75.1510   45.0340   -3.4090 C   0  0  0  0  0  0  0  0  0  0  0  0
   76.0820   45.2150   -4.3900 F   0  0  0  0  0  0  0  0  0  0  0  0
   75.8630   44.5670   -2.3360 F   0  0  0  0  0  0  0  0  0  0  0  0
   74.7340   46.2770   -3.0330 F   0  0  0  0  0  0  0  0  0  0  0  0
   72.2041   46.6938   -4.9978 H   0  0  0  0  0  0  0  0  0  0  0  0
   72.9315   47.2470   -6.5443 H   0  0  0  0  0  0  0  0  0  0  0  0
   71.7271   45.9144   -6.5443 H   0  0  0  0  0  0  0  0  0  0  0  0
   75.0892   44.2928   -6.8860 H   0  0  0  0  0  0  0  0  0  0  0  0
   73.4779   44.3908   -7.6738 H   0  0  0  0  0  0  0  0  0  0  0  0
   74.5661   45.8200   -7.6738 H   0  0  0  0  0  0  0  0  0  0  0  0
   71.6860   43.5842   -6.2339 H   0  0  0  0  0  0  0  0  0  0  0  0
   71.1127   41.6849   -4.7448 H   0  0  0  0  0  0  0  0  0  0  0  0
   68.4849   40.7212   -1.3878 H   0  0  0  0  0  0  0  0  0  0  0  0
   67.5526   38.9809    0.1420 H   0  0  0  0  0  0  0  0  0  0  0  0
   69.0626   37.2805    1.1693 H   0  0  0  0  0  0  0  0  0  0  0  0
   71.7930   37.1610    1.7300 H   0  0  0  0  0  0  0  0  0  0  0  0
   75.0130   41.0600   -2.2560 H   0  0  0  0  0  0  0  0  0  0  0  0
   74.2538   42.8679   -2.0367 H   0  0  0  0  0  0  0  0  0  0  0  0
  1  2  1  0
  2  3  1  0
  2  4  1  0
  4  5  2  0
  5  6  1  0
  6  7  2  0
  7  8  1  0
  8  9  1  0
  9 10  1  0
 10 11  2  0
 11 12  1  0
 12 13  2  0
 13 14  1  0
 14 15  1  0
 14 16  2  0
 16 17  1  0
 17 18  2  0
 17 19  1  0
 19 20  1  0
  7 21  1  0
 21 22  2  0
 22 23  1  0
 23 24  1  0
 23 25  1  0
 23 26  1  0
 22  4  1  0
 19  8  2  0
 16 10  1  0
  1 27  1  0
  1 28  1  0
  1 29  1  0
  3 30  1  0
  3 31  1  0
  3 32  1  0
  5 33  1  0
  6 34  1  0
 11 35  1  0
 12 36  1  0
 13 37  1  0
 15 38  1  0
 20 39  1  0
 21 40  1  0
M  END
>  <meeko>  (6) 
{"is_sidechain": [false], "free_energy": -7.488, "intermolecular_energy": -9.382, "internal_energy": -0.295}

$$$$
cand_012_out
     RDKit          3D

 40 42  0  0  0  0  0  0  0  0999 V2000
   77.3590   43.1330   -4.3670 C   0  0  0  0  0  0  0  0  0  0  0  0
   76.1840   43.8910   -4.8080 N   0  0  0  0  0  0  0  0  0  0  0  0
   76.2790   45.3360   -4.5710 C   0  0  0  0  0  0  0  0  0  0  0  0
   74.9670   43.3580   -4.3420 C   0  0  0  0  0  0  0  0  0  0  0  0
   74.6330   43.3560   -2.9790 C   0  0  0  0  0  0  0  0  0  0  0  0
   73.4170   42.8320   -2.5280 C   0  0  0  0  0  0  0  0  0  0  0  0
   72.4920   42.3000   -3.4300 C   0  0  0  0  0  0  0  0  0  0  0  0
   71.2110   41.7150   -2.9800 C   0  0  0  0  0  0  0  0  0  0  0  0
   71.3500   40.9100   -1.8560 O   0  0  0  0  0  0  0  0  0  0  0  0
   70.2380   40.3000   -1.3340 C   0  0  0  0  0  0  0  0  0  0  0  0
   70.4220   39.5100   -0.1980 C   0  0  0  0  0  0  0  0  0  0  0  0
   69.3300   38.8610    0.3820 C   0  0  0  0  0  0  0  0  0  0  0  0
   68.0570   39.0010   -0.1720 C   0  0  0  0  0  0  0  0  0  0  0  0
   67.8770   39.7890   -1.3060 C   0  0  0  0  0  0  0  0  0  0  0  0
   66.6030   39.8820   -1.7970 O   0  0  0  0  0  0  0  0  0  0  0  0
   68.9680   40.4390   -1.8860 C   0  0  0  0  0  0  0  0  0  0  0  0
   68.8230   41.2760   -3.0780 C   0  0  0  0  0  0  0  0  0  0  0  0
   67.7360   41.4440   -3.6270 O   0  0  0  0  0  0  0  0  0  0  0  0
   70.0410   41.9260   -3.6120 C   0  0  0  0  0  0  0  0  0  0  0  0
   69.8960   42.7020   -4.7470 O   0  0  0  0  0  0  0  0  0  0  0  0
   72.8250   42.2930   -4.7920 C   0  0  0  0  0  0  0  0  0  0  0  0
   74.0480   42.8190   -5.2610 C   0  0  0  0  0  0  0  0  0  0  0  0
   74.3560   42.7900   -6.7380 C   0  0  0  0  0  0  0  0  0  0  0  0
   73.3440   42.2830   -7.4990 F   0  0  0  0  0  0  0  0  0  0  0  0
   75.4400   42.0050   -7.0340 F   0  0  0  0  0  0  0  0  0  0  0  0
   74.6630   44.0120   -7.2600 F   0  0  0  0  0  0  0  0  0  0  0  0
   77.3907   43.1125   -3.2676 H   0  0  0  0  0  0  0  0  0  0  0  0
   77.2970   42.1042   -4.7512 H   0  0  0  0  0  0  0  0  0  0  0  0
   78.2708   43.6136   -4.7512 H   0  0  0  0  0  0  0  0  0  0  0  0
   76.2917   45.5299   -3.4883 H   0  0  0  0  0  0  0  0  0  0  0  0
   77.2044   45.7217   -5.0235 H   0  0  0  0  0  0  0  0  0  0  0  0
   75.4120   45.8396   -5.0235 H   0  0  0  0  0  0  0  0  0  0  0  0
   75.3422   43.7752   -2.2501 H   0  0  0  0  0  0  0  0  0  0  0  0
   73.1867   42.8388   -1.4524 H   0  0  0  0  0  0  0  0  0  0  0  0
   71.4251   39.3989    0.2394 H   0  0  0  0  0  0  0  0  0  0  0  0
   69.4736   38.2382    1.2773 H   0  0  0  0  0  0  0  0  0  0  0  0
   67.1974   38.4899    0.2861 H   0  0  0  0  0  0  0  0  0  0  0  0
   66.0500   40.5930   -1.5350 H   0  0  0  0  0  0  0  0  0  0  0  0
   69.8390   42.2940   -5.5890 H   0  0  0  0  0  0  0  0  0  0  0  0
   72.1139   41.8660   -5.5146 H   0  0  0  0  0  0  0  0  0  0  0  0
  1  2  1  0
  2  3  1  0
  2  4  1  0
  4  5  2  0
  5  6  1  0
  6  7  2  0
  7  8  1  0
  8  9  1  0
  9 10  1  0
 10 11  2  0
 11 12  1  0
 12 13  2  0
 13 14  1  0
 14 15  1  0
 14 16  2  0
 16 17  1  0
 17 18  2  0
 17 19  1  0
 19 20  1  0
  7 21  1  0
 21 22  2  0
 22 23  1  0
 23 24  1  0
 23 25  1  0
 23 26  1  0
 22  4  1  0
 19  8  2  0
 16 10  1  0
  1 27  1  0
  1 28  1  0
  1 29  1  0
  3 30  1  0
  3 31  1  0
  3 32  1  0
  5 33  1  0
  6 34  1  0
 11 35  1  0
 12 36  1  0
 13 37  1  0
 15 38  1  0
 20 39  1  0
 21 40  1  0
M  END
>  <meeko>  (7) 
{"is_sidechain": [false], "free_energy": -7.462, "intermolecular_energy": -9.424, "internal_energy": -0.22}

$$$$
cand_012_out
     RDKit          3D

 40 42  0  0  0  0  0  0  0  0999 V2000
   77.1800   43.5480   -5.2830 C   0  0  0  0  0  0  0  0  0  0  0  0
   76.7660   43.7910   -3.8980 N   0  0  0  0  0  0  0  0  0  0  0  0
   77.7860   43.4540   -2.8990 C   0  0  0  0  0  0  0  0  0  0  0  0
   75.5120   43.2330   -3.5830 C   0  0  0  0  0  0  0  0  0  0  0  0
   75.3200   41.8450   -3.5000 C   0  0  0  0  0  0  0  0  0  0  0  0
   74.0720   41.3010   -3.1780 C   0  0  0  0  0  0  0  0  0  0  0  0
   72.9790   42.1310   -2.9190 C   0  0  0  0  0  0  0  0  0  0  0  0
   71.6420   41.5850   -2.6020 C   0  0  0  0  0  0  0  0  0  0  0  0
   71.6300   40.8270   -1.4370 O   0  0  0  0  0  0  0  0  0  0  0  0
   70.4520   40.2570   -1.0270 C   0  0  0  0  0  0  0  0  0  0  0  0
   70.4840   39.5150    0.1550 C   0  0  0  0  0  0  0  0  0  0  0  0
   69.3180   38.9080    0.6270 C   0  0  0  0  0  0  0  0  0  0  0  0
   68.1230   39.0420   -0.0810 C   0  0  0  0  0  0  0  0  0  0  0  0
   68.0940   39.7830   -1.2600 C   0  0  0  0  0  0  0  0  0  0  0  0
   66.8900   39.8730   -1.9030 O   0  0  0  0  0  0  0  0  0  0  0  0
   69.2600   40.3910   -1.7320 C   0  0  0  0  0  0  0  0  0  0  0  0
   69.2740   41.1770   -2.9660 C   0  0  0  0  0  0  0  0  0  0  0  0
   68.2630   41.3370   -3.6490 O   0  0  0  0  0  0  0  0  0  0  0  0
   70.5600   41.7850   -3.3770 C   0  0  0  0  0  0  0  0  0  0  0  0
   70.5660   42.5130   -4.5530 O   0  0  0  0  0  0  0  0  0  0  0  0
   73.1640   43.5180   -3.0080 C   0  0  0  0  0  0  0  0  0  0  0  0
   74.4180   44.0800   -3.3320 C   0  0  0  0  0  0  0  0  0  0  0  0
   74.5650   45.5800   -3.4130 C   0  0  0  0  0  0  0  0  0  0  0  0
   73.4590   46.2630   -2.9990 F   0  0  0  0  0  0  0  0  0  0  0  0
   74.7860   46.0190   -4.6920 F   0  0  0  0  0  0  0  0  0  0  0  0
   75.6170   46.0680   -2.6940 F   0  0  0  0  0  0  0  0  0  0  0  0
   78.1286   42.9912   -5.2898 H   0  0  0  0  0  0  0  0  0  0  0  0
   76.4064   42.9607   -5.7993 H   0  0  0  0  0  0  0  0  0  0  0  0
   77.3157   44.5098   -5.7993 H   0  0  0  0  0  0  0  0  0  0  0  0
   77.3703   43.5913   -1.8899 H   0  0  0  0  0  0  0  0  0  0  0  0
   78.0945   42.4062   -3.0290 H   0  0  0  0  0  0  0  0  0  0  0  0
   78.6580   44.1118   -3.0290 H   0  0  0  0  0  0  0  0  0  0  0  0
   76.1681   41.1713   -3.6921 H   0  0  0  0  0  0  0  0  0  0  0  0
   73.9504   40.2089   -3.1283 H   0  0  0  0  0  0  0  0  0  0  0  0
   71.4256   39.4086    0.7136 H   0  0  0  0  0  0  0  0  0  0  0  0
   69.3417   38.3233    1.5584 H   0  0  0  0  0  0  0  0  0  0  0  0
   67.2054   38.5632    0.2914 H   0  0  0  0  0  0  0  0  0  0  0  0
   66.5880   39.1620   -2.4350 H   0  0  0  0  0  0  0  0  0  0  0  0
   70.6410   42.0720   -5.3770 H   0  0  0  0  0  0  0  0  0  0  0  0
   72.3100   44.1855   -2.8205 H   0  0  0  0  0  0  0  0  0  0  0  0
  1  2  1  0
  2  3  1  0
  2  4  1  0
  4  5  2  0
  5  6  1  0
  6  7  2  0
  7  8  1  0
  8  9  1  0
  9 10  1  0
 10 11  2  0
 11 12  1  0
 12 13  2  0
 13 14  1  0
 14 15  1  0
 14 16  2  0
 16 17  1  0
 17 18  2  0
 17 19  1  0
 19 20  1  0
  7 21  1  0
 21 22  2  0
 22 23  1  0
 23 24  1  0
 23 25  1  0
 23 26  1  0
 22  4  1  0
 19  8  2  0
 16 10  1  0
  1 27  1  0
  1 28  1  0
  1 29  1  0
  3 30  1  0
  3 31  1  0
  3 32  1  0
  5 33  1  0
  6 34  1  0
 11 35  1  0
 12 36  1  0
 13 37  1  0
 15 38  1  0
 20 39  1  0
 21 40  1  0
M  END
>  <meeko>  (8) 
{"is_sidechain": [false], "free_energy": -7.438, "intermolecular_energy": -9.209, "internal_energy": -0.406}

$$$$
cand_012_out
     RDKit          3D

 40 42  0  0  0  0  0  0  0  0999 V2000
   74.8410   46.8420   -4.9030 C   0  0  0  0  0  0  0  0  0  0  0  0
   73.9760   45.8860   -5.5990 N   0  0  0  0  0  0  0  0  0  0  0  0
   72.8210   46.4980   -6.2660 C   0  0  0  0  0  0  0  0  0  0  0  0
   73.6060   44.7840   -4.8050 C   0  0  0  0  0  0  0  0  0  0  0  0
   72.8390   44.9360   -3.6390 C   0  0  0  0  0  0  0  0  0  0  0  0
   72.4690   43.8340   -2.8620 C   0  0  0  0  0  0  0  0  0  0  0  0
   72.8480   42.5420   -3.2330 C   0  0  0  0  0  0  0  0  0  0  0  0
   72.4940   41.3600   -2.4170 C   0  0  0  0  0  0  0  0  0  0  0  0
   71.1420   41.3080   -2.1000 O   0  0  0  0  0  0  0  0  0  0  0  0
   70.6780   40.2630   -1.3420 C   0  0  0  0  0  0  0  0  0  0  0  0
   69.3110   40.2450   -1.0580 C   0  0  0  0  0  0  0  0  0  0  0  0
   68.7740   39.2080   -0.2900 C   0  0  0  0  0  0  0  0  0  0  0  0
   69.6020   38.1920    0.1910 C   0  0  0  0  0  0  0  0  0  0  0  0
   70.9650   38.2140   -0.0940 C   0  0  0  0  0  0  0  0  0  0  0  0
   71.7170   37.1880    0.4100 O   0  0  0  0  0  0  0  0  0  0  0  0
   71.5020   39.2500   -0.8620 C   0  0  0  0  0  0  0  0  0  0  0  0
   72.9280   39.3110   -1.1850 C   0  0  0  0  0  0  0  0  0  0  0  0
   73.7220   38.4580   -0.7920 O   0  0  0  0  0  0  0  0  0  0  0  0
   73.3960   40.4480   -2.0100 C   0  0  0  0  0  0  0  0  0  0  0  0
   74.7480   40.5050   -2.2960 O   0  0  0  0  0  0  0  0  0  0  0  0
   73.6200   42.3850   -4.3930 C   0  0  0  0  0  0  0  0  0  0  0  0
   74.0000   43.4890   -5.1870 C   0  0  0  0  0  0  0  0  0  0  0  0
   74.8290   43.2660   -6.4270 C   0  0  0  0  0  0  0  0  0  0  0  0
   74.1520   43.4980   -7.5890 F   0  0  0  0  0  0  0  0  0  0  0  0
   75.2750   41.9750   -6.5370 F   0  0  0  0  0  0  0  0  0  0  0  0
   75.9600   44.0270   -6.4770 F   0  0  0  0  0  0  0  0  0  0  0  0
   74.7269   46.7159   -3.8162 H   0  0  0  0  0  0  0  0  0  0  0  0
   75.8887   46.6613   -5.1851 H   0  0  0  0  0  0  0  0  0  0  0  0
   74.5568   47.8665   -5.1851 H   0  0  0  0  0  0  0  0  0  0  0  0
   72.1159   46.8716   -5.5089 H   0  0  0  0  0  0  0  0  0  0  0  0
   73.1612   47.3342   -6.8945 H   0  0  0  0  0  0  0  0  0  0  0  0
   72.3202   45.7469   -6.8945 H   0  0  0  0  0  0  0  0  0  0  0  0
   72.5225   45.9432   -3.3302 H   0  0  0  0  0  0  0  0  0  0  0  0
   71.8736   43.9861   -1.9496 H   0  0  0  0  0  0  0  0  0  0  0  0
   68.6584   41.0449   -1.4377 H   0  0  0  0  0  0  0  0  0  0  0  0
   67.6975   39.1923   -0.0642 H   0  0  0  0  0  0  0  0  0  0  0  0
   69.1784   37.3754    0.7941 H   0  0  0  0  0  0  0  0  0  0  0  0
   72.5860   37.0430    0.0900 H   0  0  0  0  0  0  0  0  0  0  0  0
   75.2470   39.7140   -2.3600 H   0  0  0  0  0  0  0  0  0  0  0  0
   73.9379   41.3753   -4.6922 H   0  0  0  0  0  0  0  0  0  0  0  0
  1  2  1  0
  2  3  1  0
  2  4  1  0
  4  5  2  0
  5  6  1  0
  6  7  2  0
  7  8  1  0
  8  9  1  0
  9 10  1  0
 10 11  2  0
 11 12  1  0
 12 13  2  0
 13 14  1  0
 14 15  1  0
 14 16  2  0
 16 17  1  0
 17 18  2  0
 17 19  1  0
 19 20  1  0
  7 21  1  0
 21 22  2  0
 22 23  1  0
 23 24  1  0
 23 25  1  0
 23 26  1  0
 22  4  1  0
 19  8  2  0
 16 10  1  0
  1 27  1  0
  1 28  1  0
  1 29  1  0
  3 30  1  0
  3 31  1  0
  3 32  1  0
  5 33  1  0
  6 34  1  0
 11 35  1  0
 12 36  1  0
 13 37  1  0
 15 38  1  0
 20 39  1  0
 21 40  1  0
M  END
>  <meeko>  (9) 
{"is_sidechain": [false], "free_energy": -7.327, "intermolecular_energy": -9.155, "internal_energy": -0.322}

$$$$
