cand_006_out
     RDKit          3D

 47 50  0  0  0  0  0  0  0  0999 V2000
   73.9570   44.7610   -6.7250 C   0  0  0  0  0  0  0  0  0  0  0  0
   73.5490   43.8030   -5.6390 C   0  0  0  0  0  0  0  0  0  0  0  0
   72.9860   42.5660   -5.9790 C   0  0  0  0  0  0  0  0  0  0  0  0
   72.6030   41.6610   -4.9880 C   0  0  0  0  0  0  0  0  0  0  0  0
   72.7800   41.9680   -3.6340 C   0  0  0  0  0  0  0  0  0  0  0  0
   72.3450   41.0070   -2.5980 C   0  0  0  0  0  0  0  0  0  0  0  0
   70.9660   40.9970   -2.4150 O   0  0  0  0  0  0  0  0  0  0  0  0
   70.4260   40.1490   -1.4830 C   0  0  0  0  0  0  0  0  0  0  0  0
   69.0400   40.1830   -1.3220 C   0  0  0  0  0  0  0  0  0  0  0  0
   68.4260   39.3440   -0.3900 C   0  0  0  0  0  0  0  0  0  0  0  0
   69.1970   38.4710    0.3790 C   0  0  0  0  0  0  0  0  0  0  0  0
   70.5790   38.4370    0.2170 C   0  0  0  0  0  0  0  0  0  0  0  0
   71.2730   37.5580    1.0020 O   0  0  0  0  0  0  0  0  0  0  0  0
   71.1940   39.2790   -0.7150 C   0  0  0  0  0  0  0  0  0  0  0  0
   72.6430   39.2760   -0.9170 C   0  0  0  0  0  0  0  0  0  0  0  0
   73.3880   38.5310   -0.2830 O   0  0  0  0  0  0  0  0  0  0  0  0
   73.1960   40.2120   -1.9240 C   0  0  0  0  0  0  0  0  0  0  0  0
   74.5660   40.1910   -2.1160 O   0  0  0  0  0  0  0  0  0  0  0  0
   73.3330   43.2130   -3.2980 C   0  0  0  0  0  0  0  0  0  0  0  0
   73.7270   44.1370   -4.2820 C   0  0  0  0  0  0  0  0  0  0  0  0
   74.2990   45.3880   -3.9530 N   0  0  0  0  0  0  0  0  0  0  0  0
   75.5880   45.2440   -3.2550 C   0  0  0  0  0  0  0  0  0  0  0  0
   76.2490   46.6180   -3.1410 C   0  0  0  0  0  0  0  0  0  0  0  0
   75.3230   47.6210   -2.4540 C   0  0  0  0  0  0  0  0  0  0  0  0
   73.9610   47.6700   -3.1460 C   0  0  0  0  0  0  0  0  0  0  0  0
   73.3490   46.2730   -3.2600 C   0  0  0  0  0  0  0  0  0  0  0  0
   74.3498   45.6832   -6.2719 H   0  0  0  0  0  0  0  0  0  0  0  0
   74.7361   44.2982   -7.3485 H   0  0  0  0  0  0  0  0  0  0  0  0
   73.0834   45.0020   -7.3485 H   0  0  0  0  0  0  0  0  0  0  0  0
   72.8443   42.3053   -7.0382 H   0  0  0  0  0  0  0  0  0  0  0  0
   72.1575   40.6967   -5.2740 H   0  0  0  0  0  0  0  0  0  0  0  0
   68.4320   40.8701   -1.9288 H   0  0  0  0  0  0  0  0  0  0  0  0
   67.3338   39.3711   -0.2617 H   0  0  0  0  0  0  0  0  0  0  0  0
   68.7126   37.8101    1.1129 H   0  0  0  0  0  0  0  0  0  0  0  0
   70.9250   36.7050    1.1690 H   0  0  0  0  0  0  0  0  0  0  0  0
   75.0900   39.5510   -1.6760 H   0  0  0  0  0  0  0  0  0  0  0  0
   73.4617   43.4731   -2.2370 H   0  0  0  0  0  0  0  0  0  0  0  0
   75.4187   44.8317   -2.2493 H   0  0  0  0  0  0  0  0  0  0  0  0
   76.2419   44.5628   -3.8193 H   0  0  0  0  0  0  0  0  0  0  0  0
   77.1744   46.5235   -2.5539 H   0  0  0  0  0  0  0  0  0  0  0  0
   76.4687   46.9842   -4.1547 H   0  0  0  0  0  0  0  0  0  0  0  0
   75.1831   47.3217   -1.4048 H   0  0  0  0  0  0  0  0  0  0  0  0
   75.7820   48.6190   -2.5114 H   0  0  0  0  0  0  0  0  0  0  0  0
   73.2846   48.3117   -2.5622 H   0  0  0  0  0  0  0  0  0  0  0  0
   74.0993   48.0739   -4.1598 H   0  0  0  0  0  0  0  0  0  0  0  0
   73.1430   45.8776   -2.2544 H   0  0  0  0  0  0  0  0  0  0  0  0
   72.4082   46.3250   -3.8276 H   0  0  0  0  0  0  0  0  0  0  0  0
  1  2  1  0
  2  3  2  0
  3  4  1  0
  4  5  2  0
  5  6  1  0
  6  7  1  0
  7  8  1  0
  8  9  2  0
  9 10  1  0
 10 11  2  0
 11 12  1  0
 12 13  1  0
 12 14  2  0
 14 15  1  0
 15 16  2  0
 15 17  1  0
 17 18  1  0
  5 19  1  0
 19 20  2  0
 20 21  1  0
 21 22  1  0
 22 23  1  0
 23 24  1  0
 24 25  1  0
 25 26  1  0
 20  2  1  0
 26 21  1  0
 17  6  2  0
 14  8  1  0
  1 27  1  0
  1 28  1  0
  1 29  1  0
  3 30  1  0
  4 31  1  0
  9 32  1  0
 10 33  1  0
 11 34  1  0
 13 35  1  0
 18 36  1  0
 19 37  1  0
 22 38  1  0
 22 39  1  0
 23 40  1  0
 23 41  1  0
 24 42  1  0
 24 43  1  0
 25 44  1  0
 25 45  1  0
 26 46  1  0
 26 47  1  0
M  END
>  <meeko>  (1) 
{"is_sidechain": [false], "free_energy": -7.896, "intermolecular_energy": -9.28, "internal_energy": -0.782}

$$$$
cand_006_out
     RDKit          3D

 47 50  0  0  0  0  0  0  0  0999 V2000
   72.4330   46.3240   -4.9580 C   0  0  0  0  0  0  0  0  0  0  0  0
   72.2920   45.0250   -4.2120 C   0  0  0  0  0  0  0  0  0  0  0  0
   73.3790   44.5180   -3.4870 C   0  0  0  0  0  0  0  0  0  0  0  0
   73.2690   43.3170   -2.7860 C   0  0  0  0  0  0  0  0  0  0  0  0
   72.0680   42.5970   -2.7860 C   0  0  0  0  0  0  0  0  0  0  0  0
   71.9800   41.3140   -2.0570 C   0  0  0  0  0  0  0  0  0  0  0  0
   70.7110   41.0710   -1.5420 O   0  0  0  0  0  0  0  0  0  0  0  0
   70.4880   39.9130   -0.8420 C   0  0  0  0  0  0  0  0  0  0  0  0
   69.2040   39.7190   -0.3310 C   0  0  0  0  0  0  0  0  0  0  0  0
   68.9100   38.5600    0.3910 C   0  0  0  0  0  0  0  0  0  0  0  0
   69.8980   37.5960    0.6000 C   0  0  0  0  0  0  0  0  0  0  0  0
   71.1780   37.7920    0.0880 C   0  0  0  0  0  0  0  0  0  0  0  0
   72.0970   36.8080    0.3290 O   0  0  0  0  0  0  0  0  0  0  0  0
   71.4730   38.9530   -0.6330 C   0  0  0  0  0  0  0  0  0  0  0  0
   72.8050   39.1980   -1.1870 C   0  0  0  0  0  0  0  0  0  0  0  0
   73.7250   38.3950   -1.0520 O   0  0  0  0  0  0  0  0  0  0  0  0
   73.0150   40.4640   -1.9290 C   0  0  0  0  0  0  0  0  0  0  0  0
   74.2740   40.6780   -2.4590 O   0  0  0  0  0  0  0  0  0  0  0  0
   70.9860   43.1020   -3.5220 C   0  0  0  0  0  0  0  0  0  0  0  0
   71.0770   44.3120   -4.2340 C   0  0  0  0  0  0  0  0  0  0  0  0
   69.9870   44.8360   -4.9680 N   0  0  0  0  0  0  0  0  0  0  0  0
   68.8970   45.2960   -4.0910 C   0  0  0  0  0  0  0  0  0  0  0  0
   67.8680   46.0530   -4.9310 C   0  0  0  0  0  0  0  0  0  0  0  0
   67.3610   45.1940   -6.0900 C   0  0  0  0  0  0  0  0  0  0  0  0
   68.5260   44.6530   -6.9180 C   0  0  0  0  0  0  0  0  0  0  0  0
   69.5410   43.9260   -6.0350 C   0  0  0  0  0  0  0  0  0  0  0  0
   72.5228   47.1518   -4.2392 H   0  0  0  0  0  0  0  0  0  0  0  0
   73.3325   46.2880   -5.5901 H   0  0  0  0  0  0  0  0  0  0  0  0
   71.5467   46.4819   -5.5901 H   0  0  0  0  0  0  0  0  0  0  0  0
   74.3287   45.0728   -3.4706 H   0  0  0  0  0  0  0  0  0  0  0  0
   74.1347   42.9315   -2.2274 H   0  0  0  0  0  0  0  0  0  0  0  0
   68.4247   40.4775   -0.4965 H   0  0  0  0  0  0  0  0  0  0  0  0
   67.8986   38.4066    0.7955 H   0  0  0  0  0  0  0  0  0  0  0  0
   69.6657   36.6832    1.1682 H   0  0  0  0  0  0  0  0  0  0  0  0
   71.9270   35.9300    0.0510 H   0  0  0  0  0  0  0  0  0  0  0  0
   75.0360   40.4310   -1.9730 H   0  0  0  0  0  0  0  0  0  0  0  0
   70.0421   42.5375   -3.5430 H   0  0  0  0  0  0  0  0  0  0  0  0
   68.4172   44.4290   -3.6133 H   0  0  0  0  0  0  0  0  0  0  0  0
   69.3014   45.9593   -3.3123 H   0  0  0  0  0  0  0  0  0  0  0  0
   67.0173   46.3310   -4.2915 H   0  0  0  0  0  0  0  0  0  0  0  0
   68.3498   46.9501   -5.3470 H   0  0  0  0  0  0  0  0  0  0  0  0
   66.7832   44.3495   -5.6865 H   0  0  0  0  0  0  0  0  0  0  0  0
   66.7282   45.8173   -6.7389 H   0  0  0  0  0  0  0  0  0  0  0  0
   68.1364   43.9508   -7.6697 H   0  0  0  0  0  0  0  0  0  0  0  0
   69.0311   45.5006   -7.4042 H   0  0  0  0  0  0  0  0  0  0  0  0
   69.0716   43.0368   -5.5889 H   0  0  0  0  0  0  0  0  0  0  0  0
   70.4039   43.6132   -6.6412 H   0  0  0  0  0  0  0  0  0  0  0  0
  1  2  1  0
  2  3  2  0
  3  4  1  0
  4  5  2  0
  5  6  1  0
  6  7  1  0
  7  8  1  0
  8  9  2  0
  9 10  1  0
 10 11  2  0
 11 12  1  0
 12 13  1  0
 12 14  2  0
 14 15  1  0
 15 16  2  0
 15 17  1  0
 17 18  1  0
  5 19  1  0
 19 20  2  0
 20 21  1  0
 21 22  1  0
 22 23  1  0
 23 24  1  0
 24 25  1  0
 25 26  1  0
 20  2  1  0
 26 21  1  0
 17  6  2  0
 14  8  1  0
  1 27  1  0
  1 28  1  0
  1 29  1  0
  3 30  1  0
  4 31  1  0
  9 32  1  0
 10 33  1  0
 11 34  1  0
 13 35  1  0
 18 36  1  0
 19 37  1  0
 22 38  1  0
 22 39  1  0
 23 40  1  0
 23 41  1  0
 24 42  1  0
 24 43  1  0
 25 44  1  0
 25 45  1  0
 26 46  1  0
 26 47  1  0
M  END
>  <meeko>  (2) 
{"is_sidechain": [false], "free_energy": -7.714, "intermolecular_energy": -9.551, "internal_energy": -0.299}

$$$$
cand_006_out
     RDKit          3D

 47 50  0  0  0  0  0  0  0  0999 V2000
   69.5130   44.6390   -5.9960 C   0  0  0  0  0  0  0  0  0  0  0  0
   69.6360   43.5360   -4.9800 C   0  0  0  0  0  0  0  0  0  0  0  0
   68.5010   43.1080   -4.2780 C   0  0  0  0  0  0  0  0  0  0  0  0
   68.5910   42.0840   -3.3340 C   0  0  0  0  0  0  0  0  0  0  0  0
   69.8160   41.4580   -3.0750 C   0  0  0  0  0  0  0  0  0  0  0  0
   69.8960   40.3920   -2.0540 C   0  0  0  0  0  0  0  0  0  0  0  0
   71.1610   39.8220   -1.9660 O   0  0  0  0  0  0  0  0  0  0  0  0
   71.3760   38.8190   -1.0550 C   0  0  0  0  0  0  0  0  0  0  0  0
   72.6570   38.2660   -1.0130 C   0  0  0  0  0  0  0  0  0  0  0  0
   72.9430   37.2410   -0.1080 C   0  0  0  0  0  0  0  0  0  0  0  0
   71.9490   36.7720    0.7540 C   0  0  0  0  0  0  0  0  0  0  0  0
   70.6720   37.3250    0.7100 C   0  0  0  0  0  0  0  0  0  0  0  0
   69.7490   36.8180    1.5810 O   0  0  0  0  0  0  0  0  0  0  0  0
   70.3860   38.3500   -0.1980 C   0  0  0  0  0  0  0  0  0  0  0  0
   69.0580   38.9590   -0.2770 C   0  0  0  0  0  0  0  0  0  0  0  0
   68.1340   38.6050    0.4520 O   0  0  0  0  0  0  0  0  0  0  0  0
   68.8570   40.0330   -1.2780 C   0  0  0  0  0  0  0  0  0  0  0  0
   67.6010   40.6100   -1.3350 O   0  0  0  0  0  0  0  0  0  0  0  0
   70.9520   41.8960   -3.7720 C   0  0  0  0  0  0  0  0  0  0  0  0
   70.8800   42.9260   -4.7290 C   0  0  0  0  0  0  0  0  0  0  0  0
   72.0170   43.3650   -5.4460 N   0  0  0  0  0  0  0  0  0  0  0  0
   72.8030   42.2420   -5.9850 C   0  0  0  0  0  0  0  0  0  0  0  0
   73.8710   42.7890   -6.9320 C   0  0  0  0  0  0  0  0  0  0  0  0
   74.7450   43.8320   -6.2350 C   0  0  0  0  0  0  0  0  0  0  0  0
   73.8890   44.9290   -5.6040 C   0  0  0  0  0  0  0  0  0  0  0  0
   72.8210   44.3350   -4.6850 C   0  0  0  0  0  0  0  0  0  0  0  0
   69.4054   45.6038   -5.4786 H   0  0  0  0  0  0  0  0  0  0  0  0
   70.4144   44.6593   -6.6261 H   0  0  0  0  0  0  0  0  0  0  0  0
   68.6292   44.4603   -6.6261 H   0  0  0  0  0  0  0  0  0  0  0  0
   67.5288   43.5843   -4.4731 H   0  0  0  0  0  0  0  0  0  0  0  0
   67.6906   41.7657   -2.7882 H   0  0  0  0  0  0  0  0  0  0  0  0
   73.4397   38.6366   -1.6912 H   0  0  0  0  0  0  0  0  0  0  0  0
   73.9515   36.8030   -0.0742 H   0  0  0  0  0  0  0  0  0  0  0  0
   72.1751   35.9659    1.4675 H   0  0  0  0  0  0  0  0  0  0  0  0
   69.3060   37.3880    2.1780 H   0  0  0  0  0  0  0  0  0  0  0  0
   66.9850   40.4590   -0.6460 H   0  0  0  0  0  0  0  0  0  0  0  0
   71.9233   41.4228   -3.5656 H   0  0  0  0  0  0  0  0  0  0  0  0
   73.2860   41.7001   -5.1585 H   0  0  0  0  0  0  0  0  0  0  0  0
   72.1407   41.5539   -6.5307 H   0  0  0  0  0  0  0  0  0  0  0  0
   74.5065   41.9589   -7.2741 H   0  0  0  0  0  0  0  0  0  0  0  0
   73.3682   43.2689   -7.7846 H   0  0  0  0  0  0  0  0  0  0  0  0
   75.3355   43.3392   -5.4486 H   0  0  0  0  0  0  0  0  0  0  0  0
   75.4077   44.2910   -6.9834 H   0  0  0  0  0  0  0  0  0  0  0  0
   74.5367   45.5969   -5.0171 H   0  0  0  0  0  0  0  0  0  0  0  0
   73.3865   45.4858   -6.4087 H   0  0  0  0  0  0  0  0  0  0  0  0
   73.3050   43.8279   -3.8373 H   0  0  0  0  0  0  0  0  0  0  0  0
   72.1717   45.1371   -4.3041 H   0  0  0  0  0  0  0  0  0  0  0  0
  1  2  1  0
  2  3  2  0
  3  4  1  0
  4  5  2  0
  5  6  1  0
  6  7  1  0
  7  8  1  0
  8  9  2  0
  9 10  1  0
 10 11  2  0
 11 12  1  0
 12 13  1  0
 12 14  2  0
 14 15  1  0
 15 16  2  0
 15 17  1  0
 17 18  1  0
  5 19  1  0
 19 20  2  0
 20 21  1  0
 21 22  1  0
 22 23  1  0
 23 24  1  0
 24 25  1  0
 25 26  1  0
 20  2  1  0
 26 21  1  0
 17  6  2  0
 14  8  1  0
  1 27  1  0
  1 28  1  0
  1 29  1  0
  3 30  1  0
  4 31  1  0
  9 32  1  0
 10 33  1  0
 11 34  1  0
 13 35  1  0
 18 36  1  0
 19 37  1  0
 22 38  1  0
 22 39  1  0
 23 40  1  0
 23 41  1  0
 24 42  1  0
 24 43  1  0
 25 44  1  0
 25 45  1  0
 26 46  1  0
 26 47  1  0
M  END
>  <meeko>  (3) 
{"is_sidechain": [false], "free_energy": -7.709, "intermolecular_energy": -9.815, "internal_energy": -0.028}

$$$$
cand_006_out
     RDKit          3D

 47 50  0  0  0  0  0  0  0  0999 V2000
   74.3810   45.7900   -5.0440 C   0  0  0  0  0  0  0  0  0  0  0  0
   73.9070   44.5830   -4.2810 C   0  0  0  0  0  0  0  0  0  0  0  0
   72.7050   44.6420   -3.5620 C   0  0  0  0  0  0  0  0  0  0  0  0
   72.2460   43.5330   -2.8500 C   0  0  0  0  0  0  0  0  0  0  0  0
   72.9720   42.3370   -2.8450 C   0  0  0  0  0  0  0  0  0  0  0  0
   72.4820   41.1810   -2.0650 C   0  0  0  0  0  0  0  0  0  0  0  0
   71.1040   41.2020   -1.8760 O   0  0  0  0  0  0  0  0  0  0  0  0
   70.5150   40.1860   -1.1690 C   0  0  0  0  0  0  0  0  0  0  0  0
   69.1320   40.2560   -0.9920 C   0  0  0  0  0  0  0  0  0  0  0  0
   68.4690   39.2530   -0.2810 C   0  0  0  0  0  0  0  0  0  0  0  0
   69.1880   38.1810    0.2510 C   0  0  0  0  0  0  0  0  0  0  0  0
   70.5680   38.1130    0.0730 C   0  0  0  0  0  0  0  0  0  0  0  0
   71.2090   37.0360    0.6190 O   0  0  0  0  0  0  0  0  0  0  0  0
   71.2310   39.1180   -0.6370 C   0  0  0  0  0  0  0  0  0  0  0  0
   72.6790   39.0850   -0.8480 C   0  0  0  0  0  0  0  0  0  0  0  0
   73.3790   38.1720   -0.4160 O   0  0  0  0  0  0  0  0  0  0  0  0
   73.2860   40.2030   -1.6070 C   0  0  0  0  0  0  0  0  0  0  0  0
   74.6530   40.1550   -1.8110 O   0  0  0  0  0  0  0  0  0  0  0  0
   74.1800   42.2850   -3.5560 C   0  0  0  0  0  0  0  0  0  0  0  0
   74.6590   43.3920   -4.2820 C   0  0  0  0  0  0  0  0  0  0  0  0
   75.8690   43.3440   -5.0130 N   0  0  0  0  0  0  0  0  0  0  0  0
   75.7890   42.4260   -6.1610 C   0  0  0  0  0  0  0  0  0  0  0  0
   77.0370   42.6010   -7.0270 C   0  0  0  0  0  0  0  0  0  0  0  0
   78.3110   42.4010   -6.2070 C   0  0  0  0  0  0  0  0  0  0  0  0
   78.3120   43.2990   -4.9710 C   0  0  0  0  0  0  0  0  0  0  0  0
   77.0370   43.1090   -4.1490 C   0  0  0  0  0  0  0  0  0  0  0  0
   74.6888   46.5737   -4.3361 H   0  0  0  0  0  0  0  0  0  0  0  0
   75.2364   45.5111   -5.6769 H   0  0  0  0  0  0  0  0  0  0  0  0
   73.5644   46.1677   -5.6769 H   0  0  0  0  0  0  0  0  0  0  0  0
   72.1176   45.5720   -3.5590 H   0  0  0  0  0  0  0  0  0  0  0  0
   71.3035   43.5999   -2.2868 H   0  0  0  0  0  0  0  0  0  0  0  0
   68.5651   41.1000   -1.4119 H   0  0  0  0  0  0  0  0  0  0  0  0
   67.3794   39.3078   -0.1401 H   0  0  0  0  0  0  0  0  0  0  0  0
   68.6654   37.3909    0.8101 H   0  0  0  0  0  0  0  0  0  0  0  0
   71.8800   37.1650    1.2590 H   0  0  0  0  0  0  0  0  0  0  0  0
   74.9960   40.1430   -2.6820 H   0  0  0  0  0  0  0  0  0  0  0  0
   74.7681   41.3555   -3.5461 H   0  0  0  0  0  0  0  0  0  0  0  0
   75.7332   41.3884   -5.8001 H   0  0  0  0  0  0  0  0  0  0  0  0
   74.8906   42.6509   -6.7545 H   0  0  0  0  0  0  0  0  0  0  0  0
   77.0149   41.8622   -7.8417 H   0  0  0  0  0  0  0  0  0  0  0  0
   77.0399   43.6240   -7.4312 H   0  0  0  0  0  0  0  0  0  0  0  0
   78.3726   41.3500   -5.8883 H   0  0  0  0  0  0  0  0  0  0  0  0
   79.1762   42.6647   -6.8330 H   0  0  0  0  0  0  0  0  0  0  0  0
   79.1823   43.0489   -4.3464 H   0  0  0  0  0  0  0  0  0  0  0  0
   78.3605   44.3470   -5.3017 H   0  0  0  0  0  0  0  0  0  0  0  0
   77.0027   42.0830   -3.7538 H   0  0  0  0  0  0  0  0  0  0  0  0
   77.0270   43.8202   -3.3099 H   0  0  0  0  0  0  0  0  0  0  0  0
  1  2  1  0
  2  3  2  0
  3  4  1  0
  4  5  2  0
  5  6  1  0
  6  7  1  0
  7  8  1  0
  8  9  2  0
  9 10  1  0
 10 11  2  0
 11 12  1  0
 12 13  1  0
 12 14  2  0
 14 15  1  0
 15 16  2  0
 15 17  1  0
 17 18  1  0
  5 19  1  0
 19 20  2  0
 20 21  1  0
 21 22  1  0
 22 23  1  0
 23 24  1  0
 24 25  1  0
 25 26  1  0
 20  2  1  0
 26 21  1  0
 17  6  2  0
 14  8  1  0
  1 27  1  0
  1 28  1  0
  1 29  1  0
  3 30  1  0
  4 31  1  0
  9 32  1  0
 10 33  1  0
 11 34  1  0
 13 35  1  0
 18 36  1  0
 19 37  1  0
 22 38  1  0
 22 39  1  0
 23 40  1  0
 23 41  1  0
 24 42  1  0
 24 43  1  0
 25 44  1  0
 25 45  1  0
 26 46  1  0
 26 47  1  0
M  END
>  <meeko>  (4) 
{"is_sidechain": [false], "free_energy": -7.66, "intermolecular_energy": -9.553, "internal_energy": -0.233}

$$$$
cand_006_out
     RDKit          3D

 47 50  0  0  0  0  0  0  0  0999 V2000
   73.6970   44.4560   -6.3250 C   0  0  0  0  0  0  0  0  0  0  0  0
   73.1130   43.4920   -5.3280 C   0  0  0  0  0  0  0  0  0  0  0  0
   71.7770   43.0880   -5.4530 C   0  0  0  0  0  0  0  0  0  0  0  0
   71.2150   42.1920   -4.5420 C   0  0  0  0  0  0  0  0  0  0  0  0
   71.9780   41.6730   -3.4890 C   0  0  0  0  0  0  0  0  0  0  0  0
   71.3580   40.7450   -2.5190 C   0  0  0  0  0  0  0  0  0  0  0  0
   72.2320   39.7560   -2.0820 O   0  0  0  0  0  0  0  0  0  0  0  0
   71.7860   38.8280   -1.1780 C   0  0  0  0  0  0  0  0  0  0  0  0
   72.6940   37.8450   -0.7790 C   0  0  0  0  0  0  0  0  0  0  0  0
   72.3040   36.8690    0.1400 C   0  0  0  0  0  0  0  0  0  0  0  0
   71.0080   36.8760    0.6610 C   0  0  0  0  0  0  0  0  0  0  0  0
   70.1050   37.8570    0.2620 C   0  0  0  0  0  0  0  0  0  0  0  0
   68.8530   37.8050    0.8110 O   0  0  0  0  0  0  0  0  0  0  0  0
   70.4950   38.8330   -0.6600 C   0  0  0  0  0  0  0  0  0  0  0  0
   69.5770   39.8820   -1.1060 C   0  0  0  0  0  0  0  0  0  0  0  0
   68.4240   39.9590   -0.6890 O   0  0  0  0  0  0  0  0  0  0  0  0
   70.0870   40.8640   -2.0910 C   0  0  0  0  0  0  0  0  0  0  0  0
   69.2140   41.8580   -2.4960 O   0  0  0  0  0  0  0  0  0  0  0  0
   73.3110   42.0890   -3.3610 C   0  0  0  0  0  0  0  0  0  0  0  0
   73.8960   42.9890   -4.2710 C   0  0  0  0  0  0  0  0  0  0  0  0
   75.2430   43.4030   -4.1570 N   0  0  0  0  0  0  0  0  0  0  0  0
   76.1830   42.3660   -4.6170 C   0  0  0  0  0  0  0  0  0  0  0  0
   77.5890   42.9630   -4.6840 C   0  0  0  0  0  0  0  0  0  0  0  0
   77.9980   43.5670   -3.3400 C   0  0  0  0  0  0  0  0  0  0  0  0
   76.9490   44.5640   -2.8480 C   0  0  0  0  0  0  0  0  0  0  0  0
   75.5570   43.9320   -2.8210 C   0  0  0  0  0  0  0  0  0  0  0  0
   74.1953   45.2786   -5.7911 H   0  0  0  0  0  0  0  0  0  0  0  0
   74.4295   43.9317   -6.9563 H   0  0  0  0  0  0  0  0  0  0  0  0
   72.8931   44.8624   -6.9563 H   0  0  0  0  0  0  0  0  0  0  0  0
   71.1646   43.4812   -6.2778 H   0  0  0  0  0  0  0  0  0  0  0  0
   70.1628   41.8909   -4.6524 H   0  0  0  0  0  0  0  0  0  0  0  0
   73.7151   37.8396   -1.1882 H   0  0  0  0  0  0  0  0  0  0  0  0
   73.0182   36.0936    0.4541 H   0  0  0  0  0  0  0  0  0  0  0  0
   70.7015   36.1072    1.3856 H   0  0  0  0  0  0  0  0  0  0  0  0
   68.1320   38.2090    0.3720 H   0  0  0  0  0  0  0  0  0  0  0  0
   68.5670   41.6760   -3.1470 H   0  0  0  0  0  0  0  0  0  0  0  0
   73.9152   41.7017   -2.5274 H   0  0  0  0  0  0  0  0  0  0  0  0
   76.1741   41.5214   -3.9123 H   0  0  0  0  0  0  0  0  0  0  0  0
   75.8833   42.0082   -5.6131 H   0  0  0  0  0  0  0  0  0  0  0  0
   78.3028   42.1706   -4.9533 H   0  0  0  0  0  0  0  0  0  0  0  0
   77.5926   43.7617   -5.4403 H   0  0  0  0  0  0  0  0  0  0  0  0
   78.1032   42.7602   -2.5997 H   0  0  0  0  0  0  0  0  0  0  0  0
   78.9532   44.0970   -3.4691 H   0  0  0  0  0  0  0  0  0  0  0  0
   77.2141   44.8920   -1.8321 H   0  0  0  0  0  0  0  0  0  0  0  0
   76.9302   45.4199   -3.5388 H   0  0  0  0  0  0  0  0  0  0  0  0
   75.5384   43.1131   -2.0868 H   0  0  0  0  0  0  0  0  0  0  0  0
   74.8114   44.6894   -2.5375 H   0  0  0  0  0  0  0  0  0  0  0  0
  1  2  1  0
  2  3  2  0
  3  4  1  0
  4  5  2  0
  5  6  1  0
  6  7  1  0
  7  8  1  0
  8  9  2  0
  9 10  1  0
 10 11  2  0
 11 12  1  0
 12 13  1  0
 12 14  2  0
 14 15  1  0
 15 16  2  0
 15 17  1  0
 17 18  1  0
  5 19  1  0
 19 20  2  0
 20 21  1  0
 21 22  1  0
 22 23  1  0
 23 24  1  0
 24 25  1  0
 25 26  1  0
 20  2  1  0
 26 21  1  0
 17  6  2  0
 14  8  1  0
  1 27  1  0
  1 28  1  0
  1 29  1  0
  3 30  1  0
  4 31  1  0
  9 32  1  0
 10 33  1  0
 11 34  1  0
 13 35  1  0
 18 36  1  0
 19 37  1  0
 22 38  1  0
 22 39  1  0
 23 40  1  0
 23 41  1  0
 24 42  1  0
 24 43  1  0
 25 44  1  0
 25 45  1  0
 26 46  1  0
 26 47  1  0
M  END
>  <meeko>  (5) 
{"is_sidechain": [false], "free_energy": -7.531, "intermolecular_energy": -9.311, "internal_energy": -0.323}

$$$$
cand_006_out
     RDKit          3D

 47 50  0  0  0  0  0  0  0  0999 V2000
   77.1640   43.4980   -2.9230 C   0  0  0  0  0  0  0  0  0  0  0  0
   75.7490   43.0080   -2.7820 C   0  0  0  0  0  0  0  0  0  0  0  0
   75.5030   41.7390   -2.2400 C   0  0  0  0  0  0  0  0  0  0  0  0
   74.1980   41.2670   -2.0970 C   0  0  0  0  0  0  0  0  0  0  0  0
   73.1070   42.0530   -2.4850 C   0  0  0  0  0  0  0  0  0  0  0  0
   71.7340   41.5240   -2.3480 C   0  0  0  0  0  0  0  0  0  0  0  0
   71.5600   40.7610   -1.1990 O   0  0  0  0  0  0  0  0  0  0  0  0
   70.3300   40.2100   -0.9470 C   0  0  0  0  0  0  0  0  0  0  0  0
   70.2060   39.4390    0.2100 C   0  0  0  0  0  0  0  0  0  0  0  0
   68.9800   38.8500    0.5260 C   0  0  0  0  0  0  0  0  0  0  0  0
   67.8790   39.0310   -0.3140 C   0  0  0  0  0  0  0  0  0  0  0  0
   68.0050   39.8000   -1.4680 C   0  0  0  0  0  0  0  0  0  0  0  0
   66.8880   39.9370   -2.2440 O   0  0  0  0  0  0  0  0  0  0  0  0
   69.2340   40.3890   -1.7840 C   0  0  0  0  0  0  0  0  0  0  0  0
   69.4090   41.2040   -2.9860 C   0  0  0  0  0  0  0  0  0  0  0  0
   68.4860   41.4160   -3.7710 O   0  0  0  0  0  0  0  0  0  0  0  0
   70.7530   41.7770   -3.2350 C   0  0  0  0  0  0  0  0  0  0  0  0
   70.9030   42.5570   -4.3670 O   0  0  0  0  0  0  0  0  0  0  0  0
   73.3580   43.3180   -3.0370 C   0  0  0  0  0  0  0  0  0  0  0  0
   74.6660   43.8130   -3.1880 C   0  0  0  0  0  0  0  0  0  0  0  0
   74.9270   45.0920   -3.7310 N   0  0  0  0  0  0  0  0  0  0  0  0
   74.0480   46.1280   -3.1620 C   0  0  0  0  0  0  0  0  0  0  0  0
   74.5390   47.5030   -3.6170 C   0  0  0  0  0  0  0  0  0  0  0  0
   74.6230   47.5830   -5.1410 C   0  0  0  0  0  0  0  0  0  0  0  0
   75.4620   46.4340   -5.7020 C   0  0  0  0  0  0  0  0  0  0  0  0
   74.9510   45.0820   -5.2020 C   0  0  0  0  0  0  0  0  0  0  0  0
   77.6008   43.6493   -1.9248 H   0  0  0  0  0  0  0  0  0  0  0  0
   77.7569   42.7529   -3.4736 H   0  0  0  0  0  0  0  0  0  0  0  0
   77.1691   44.4502   -3.4736 H   0  0  0  0  0  0  0  0  0  0  0  0
   76.3475   41.1089   -1.9242 H   0  0  0  0  0  0  0  0  0  0  0  0
   74.0247   40.2662   -1.6747 H   0  0  0  0  0  0  0  0  0  0  0  0
   71.0728   39.2956    0.8719 H   0  0  0  0  0  0  0  0  0  0  0  0
   68.8812   38.2426    1.4378 H   0  0  0  0  0  0  0  0  0  0  0  0
   66.9136   38.5667   -0.0643 H   0  0  0  0  0  0  0  0  0  0  0  0
   66.0400   39.9350   -1.8490 H   0  0  0  0  0  0  0  0  0  0  0  0
   71.4120   42.2420   -5.0880 H   0  0  0  0  0  0  0  0  0  0  0  0
   72.5097   43.9392   -3.3603 H   0  0  0  0  0  0  0  0  0  0  0  0
   73.0173   45.9701   -3.5122 H   0  0  0  0  0  0  0  0  0  0  0  0
   74.0690   46.0708   -2.0637 H   0  0  0  0  0  0  0  0  0  0  0  0
   73.8400   48.2715   -3.2553 H   0  0  0  0  0  0  0  0  0  0  0  0
   75.5448   47.6683   -3.2034 H   0  0  0  0  0  0  0  0  0  0  0  0
   73.6080   47.5264   -5.5612 H   0  0  0  0  0  0  0  0  0  0  0  0
   75.1005   48.5346   -5.4173 H   0  0  0  0  0  0  0  0  0  0  0  0
   75.4090   46.4539   -6.8005 H   0  0  0  0  0  0  0  0  0  0  0  0
   76.5003   46.5619   -5.3619 H   0  0  0  0  0  0  0  0  0  0  0  0
   73.9352   44.9070   -5.5860 H   0  0  0  0  0  0  0  0  0  0  0  0
   75.6149   44.2800   -5.5569 H   0  0  0  0  0  0  0  0  0  0  0  0
  1  2  1  0
  2  3  2  0
  3  4  1  0
  4  5  2  0
  5  6  1  0
  6  7  1  0
  7  8  1  0
  8  9  2  0
  9 10  1  0
 10 11  2  0
 11 12  1  0
 12 13  1  0
 12 14  2  0
 14 15  1  0
 15 16  2  0
 15 17  1  0
 17 18  1  0
  5 19  1  0
 19 20  2  0
 20 21  1  0
 21 22  1  0
 22 23  1  0
 23 24  1  0
 24 25  1  0
 25 26  1  0
 20  2  1  0
 26 21  1  0
 17  6  2  0
 14  8  1  0
  1 27  1  0
  1 28  1  0
  1 29  1  0
  3 30  1  0
  4 31  1  0
  9 32  1  0
 10 33  1  0
 11 34  1  0
 13 35  1  0
 18 36  1  0
 19 37  1  0
 22 38  1  0
 22 39  1  0
 23 40  1  0
 23 41  1  0
 24 42  1  0
 24 43  1  0
 25 44  1  0
 25 45  1  0
 26 46  1  0
 26 47  1  0
M  END
>  <meeko>  (6) 
{"is_sidechain": [false], "free_energy": -7.483, "intermolecular_energy": -9.288, "internal_energy": -0.29}

$$$$
cand_006_out
     RDKit          3D

 47 50  0  0  0  0  0  0  0  0999 V2000
   72.2330   46.0590   -4.8790 C   0  0  0  0  0  0  0  0  0  0  0  0
   71.8630   44.8260   -4.0990 C   0  0  0  0  0  0  0  0  0  0  0  0
   72.8040   44.2380   -3.2430 C   0  0  0  0  0  0  0  0  0  0  0  0
   72.4810   43.0970   -2.5070 C   0  0  0  0  0  0  0  0  0  0  0  0
   71.2100   42.5200   -2.6040 C   0  0  0  0  0  0  0  0  0  0  0  0
   70.8960   41.2970   -1.8360 C   0  0  0  0  0  0  0  0  0  0  0  0
   72.0230   40.5360   -1.5460 O   0  0  0  0  0  0  0  0  0  0  0  0
   71.8750   39.3730   -0.8350 C   0  0  0  0  0  0  0  0  0  0  0  0
   73.0320   38.6350   -0.5800 C   0  0  0  0  0  0  0  0  0  0  0  0
   72.9510   37.4410    0.1390 C   0  0  0  0  0  0  0  0  0  0  0  0
   71.7150   36.9860    0.6040 C   0  0  0  0  0  0  0  0  0  0  0  0
   70.5630   37.7240    0.3480 C   0  0  0  0  0  0  0  0  0  0  0  0
   69.3870   37.2210    0.8320 O   0  0  0  0  0  0  0  0  0  0  0  0
   70.6440   38.9190   -0.3740 C   0  0  0  0  0  0  0  0  0  0  0  0
   69.4580   39.7250   -0.6640 C   0  0  0  0  0  0  0  0  0  0  0  0
   68.3360   39.3950   -0.2840 O   0  0  0  0  0  0  0  0  0  0  0  0
   69.6500   40.9710   -1.4430 C   0  0  0  0  0  0  0  0  0  0  0  0
   68.5240   41.7310   -1.7000 O   0  0  0  0  0  0  0  0  0  0  0  0
   70.2750   43.1060   -3.4710 C   0  0  0  0  0  0  0  0  0  0  0  0
   70.5800   44.2580   -4.2190 C   0  0  0  0  0  0  0  0  0  0  0  0
   69.6390   44.8630   -5.0840 N   0  0  0  0  0  0  0  0  0  0  0  0
   68.5820   45.5740   -4.3460 C   0  0  0  0  0  0  0  0  0  0  0  0
   67.7460   46.3880   -5.3340 C   0  0  0  0  0  0  0  0  0  0  0  0
   67.1850   45.5010   -6.4450 C   0  0  0  0  0  0  0  0  0  0  0  0
   68.3000   44.7040   -7.1220 C   0  0  0  0  0  0  0  0  0  0  0  0
   69.1240   43.9260   -6.0960 C   0  0  0  0  0  0  0  0  0  0  0  0
   72.4776   46.8741   -4.1820 H   0  0  0  0  0  0  0  0  0  0  0  0
   73.1061   45.8438   -5.5125 H   0  0  0  0  0  0  0  0  0  0  0  0
   71.3857   46.3601   -5.5125 H   0  0  0  0  0  0  0  0  0  0  0  0
   73.8070   44.6801   -3.1503 H   0  0  0  0  0  0  0  0  0  0  0  0
   73.2338   42.6464   -1.8435 H   0  0  0  0  0  0  0  0  0  0  0  0
   74.0058   38.9935   -0.9449 H   0  0  0  0  0  0  0  0  0  0  0  0
   73.8618   36.8578    0.3396 H   0  0  0  0  0  0  0  0  0  0  0  0
   71.6521   36.0459    1.1716 H   0  0  0  0  0  0  0  0  0  0  0  0
   68.7870   37.7820    1.2810 H   0  0  0  0  0  0  0  0  0  0  0  0
   67.7760   41.6630   -1.1400 H   0  0  0  0  0  0  0  0  0  0  0  0
   69.2774   42.6528   -3.5684 H   0  0  0  0  0  0  0  0  0  0  0  0
   67.9384   44.8458   -3.8307 H   0  0  0  0  0  0  0  0  0  0  0  0
   69.0356   46.2452   -3.6019 H   0  0  0  0  0  0  0  0  0  0  0  0
   66.9109   46.8590   -4.7947 H   0  0  0  0  0  0  0  0  0  0  0  0
   68.3924   47.1518   -5.7909 H   0  0  0  0  0  0  0  0  0  0  0  0
   66.4538   44.8019   -6.0131 H   0  0  0  0  0  0  0  0  0  0  0  0
   66.7045   46.1427   -7.1982 H   0  0  0  0  0  0  0  0  0  0  0  0
   67.8528   43.9955   -7.8348 H   0  0  0  0  0  0  0  0  0  0  0  0
   68.9659   45.4086   -7.6418 H   0  0  0  0  0  0  0  0  0  0  0  0
   68.4893   43.1705   -5.6098 H   0  0  0  0  0  0  0  0  0  0  0  0
   69.9637   43.4234   -6.5982 H   0  0  0  0  0  0  0  0  0  0  0  0
  1  2  1  0
  2  3  2  0
  3  4  1  0
  4  5  2  0
  5  6  1  0
  6  7  1  0
  7  8  1  0
  8  9  2  0
  9 10  1  0
 10 11  2  0
 11 12  1  0
 12 13  1  0
 12 14  2  0
 14 15  1  0
 15 16  2  0
 15 17  1  0
 17 18  1  0
  5 19  1  0
 19 20  2  0
 20 21  1  0
 21 22  1  0
 22 23  1  0
 23 24  1  0
 24 25  1  0
 25 26  1  0
 20  2  1  0
 26 21  1  0
 17  6  2  0
 14  8  1  0
  1 27  1  0
  1 28  1  0
  1 29  1  0
  3 30  1  0
  4 31  1  0
  9 32  1  0
 10 33  1  0
 11 34  1  0
 13 35  1  0
 18 36  1  0
 19 37  1  0
 22 38  1  0
 22 39  1  0
 23 40  1  0
 23 41  1  0
 24 42  1  0
 24 43  1  0
 25 44  1  0
 25 45  1  0
 26 46  1  0
 26 47  1  0
M  END
>  <meeko>  (7) 
{"is_sidechain": [false], "free_energy": -7.387, "intermolecular_energy": -9.18, "internal_energy": -0.286}

$$$$
cand_006_out
     RDKit          3D

 47 50  0  0  0  0  0  0  0  0999 V2000
   74.5190   44.4230   -6.7450 C   0  0  0  0  0  0  0  0  0  0  0  0
   73.7950   43.5930   -5.7190 C   0  0  0  0  0  0  0  0  0  0  0  0
   73.2350   42.3640   -6.0900 C   0  0  0  0  0  0  0  0  0  0  0  0
   72.5630   41.5770   -5.1540 C   0  0  0  0  0  0  0  0  0  0  0  0
   72.4400   41.9960   -3.8250 C   0  0  0  0  0  0  0  0  0  0  0  0
   71.7020   41.1600   -2.8540 C   0  0  0  0  0  0  0  0  0  0  0  0
   72.4820   40.1430   -2.3140 O   0  0  0  0  0  0  0  0  0  0  0  0
   71.9210   39.2920   -1.3970 C   0  0  0  0  0  0  0  0  0  0  0  0
   72.7370   38.2780   -0.8920 C   0  0  0  0  0  0  0  0  0  0  0  0
   72.2280   37.3770    0.0460 C   0  0  0  0  0  0  0  0  0  0  0  0
   70.9060   37.4910    0.4790 C   0  0  0  0  0  0  0  0  0  0  0  0
   70.0940   38.5040   -0.0250 C   0  0  0  0  0  0  0  0  0  0  0  0
   68.8100   38.5570    0.4430 O   0  0  0  0  0  0  0  0  0  0  0  0
   70.6030   39.4040   -0.9650 C   0  0  0  0  0  0  0  0  0  0  0  0
   69.7850   40.4830   -1.5200 C   0  0  0  0  0  0  0  0  0  0  0  0
   68.6150   40.6520   -1.1840 O   0  0  0  0  0  0  0  0  0  0  0  0
   70.4170   41.3790   -2.5160 C   0  0  0  0  0  0  0  0  0  0  0  0
   69.6380   42.4020   -3.0240 O   0  0  0  0  0  0  0  0  0  0  0  0
   72.9920   43.2330   -3.4600 C   0  0  0  0  0  0  0  0  0  0  0  0
   73.6750   44.0400   -4.3890 C   0  0  0  0  0  0  0  0  0  0  0  0
   74.2470   45.2820   -4.0270 N   0  0  0  0  0  0  0  0  0  0  0  0
   75.5050   45.1180   -3.2790 C   0  0  0  0  0  0  0  0  0  0  0  0
   76.1760   46.4830   -3.1270 C   0  0  0  0  0  0  0  0  0  0  0  0
   75.2340   47.4920   -2.4710 C   0  0  0  0  0  0  0  0  0  0  0  0
   73.9020   47.5620   -3.2180 C   0  0  0  0  0  0  0  0  0  0  0  0
   73.2800   46.1730   -3.3670 C   0  0  0  0  0  0  0  0  0  0  0  0
   75.1600   45.1579   -6.2361 H   0  0  0  0  0  0  0  0  0  0  0  0
   75.1399   43.7684   -7.3744 H   0  0  0  0  0  0  0  0  0  0  0  0
   73.7862   44.9492   -7.3744 H   0  0  0  0  0  0  0  0  0  0  0  0
   73.3258   42.0158   -7.1295 H   0  0  0  0  0  0  0  0  0  0  0  0
   72.1253   40.6168   -5.4645 H   0  0  0  0  0  0  0  0  0  0  0  0
   73.7792   38.1888   -1.2323 H   0  0  0  0  0  0  0  0  0  0  0  0
   72.8695   36.5769    0.4438 H   0  0  0  0  0  0  0  0  0  0  0  0
   70.5057   36.7812    1.2179 H   0  0  0  0  0  0  0  0  0  0  0  0
   68.2200   39.2080    0.1190 H   0  0  0  0  0  0  0  0  0  0  0  0
   68.7080   42.3820   -2.9130 H   0  0  0  0  0  0  0  0  0  0  0  0
   72.8884   43.5809   -2.4216 H   0  0  0  0  0  0  0  0  0  0  0  0
   75.2907   44.6997   -2.2844 H   0  0  0  0  0  0  0  0  0  0  0  0
   76.1736   44.4340   -3.8223 H   0  0  0  0  0  0  0  0  0  0  0  0
   77.0752   46.3733   -2.5029 H   0  0  0  0  0  0  0  0  0  0  0  0
   76.4414   46.8540   -4.1279 H   0  0  0  0  0  0  0  0  0  0  0  0
   75.0477   47.1869   -1.4307 H   0  0  0  0  0  0  0  0  0  0  0  0
   75.7064   48.4849   -2.5020 H   0  0  0  0  0  0  0  0  0  0  0  0
   73.2095   48.2074   -2.6577 H   0  0  0  0  0  0  0  0  0  0  0  0
   74.0860   47.9717   -4.2222 H   0  0  0  0  0  0  0  0  0  0  0  0
   73.0289   45.7731   -2.3735 H   0  0  0  0  0  0  0  0  0  0  0  0
   72.3638   46.2397   -3.9721 H   0  0  0  0  0  0  0  0  0  0  0  0
  1  2  1  0
  2  3  2  0
  3  4  1  0
  4  5  2  0
  5  6  1  0
  6  7  1  0
  7  8  1  0
  8  9  2  0
  9 10  1  0
 10 11  2  0
 11 12  1  0
 12 13  1  0
 12 14  2  0
 14 15  1  0
 15 16  2  0
 15 17  1  0
 17 18  1  0
  5 19  1  0
 19 20  2  0
 20 21  1  0
 21 22  1  0
 22 23  1  0
 23 24  1  0
 24 25  1  0
 25 26  1  0
 20  2  1  0
 26 21  1  0
 17  6  2  0
 14  8  1  0
  1 27  1  0
  1 28  1  0
  1 29  1  0
  3 30  1  0
  4 31  1  0
  9 32  1  0
 10 33  1  0
 11 34  1  0
 13 35  1  0
 18 36  1  0
 19 37  1  0
 22 38  1  0
 22 39  1  0
 23 40  1  0
 23 41  1  0
 24 42  1  0
 24 43  1  0
 25 44  1  0
 25 45  1  0
 26 46  1  0
 26 47  1  0
M  END
>  <meeko>  (8) 
{"is_sidechain": [false], "free_energy": -7.386, "intermolecular_energy": -8.696, "internal_energy": -0.768}

$$$$
cand_006_out
     RDKit          3D

 47 50  0  0  0  0  0  0  0  0999 V2000
   77.8280   43.6390   -3.9280 C   0  0  0  0  0  0  0  0  0  0  0  0
   76.5810   42.9660   -3.4220 C   0  0  0  0  0  0  0  0  0  0  0  0
   76.5770   42.3710   -2.1540 C   0  0  0  0  0  0  0  0  0  0  0  0
   75.4300   41.7450   -1.6640 C   0  0  0  0  0  0  0  0  0  0  0  0
   74.2580   41.7040   -2.4270 C   0  0  0  0  0  0  0  0  0  0  0  0
   73.0610   41.0140   -1.9010 C   0  0  0  0  0  0  0  0  0  0  0  0
   73.3640   39.8150   -1.2650 O   0  0  0  0  0  0  0  0  0  0  0  0
   72.3440   39.0720   -0.7280 C   0  0  0  0  0  0  0  0  0  0  0  0
   72.6930   37.8680   -0.1130 C   0  0  0  0  0  0  0  0  0  0  0  0
   71.7040   37.0640    0.4540 C   0  0  0  0  0  0  0  0  0  0  0  0
   70.3660   37.4620    0.4080 C   0  0  0  0  0  0  0  0  0  0  0  0
   70.0200   38.6630   -0.2060 C   0  0  0  0  0  0  0  0  0  0  0  0
   68.6930   38.9930   -0.2150 O   0  0  0  0  0  0  0  0  0  0  0  0
   71.0120   39.4680   -0.7760 C   0  0  0  0  0  0  0  0  0  0  0  0
   70.6920   40.7370   -1.4300 C   0  0  0  0  0  0  0  0  0  0  0  0
   69.5390   41.1590   -1.5050 O   0  0  0  0  0  0  0  0  0  0  0  0
   71.8150   41.5110   -2.0090 C   0  0  0  0  0  0  0  0  0  0  0  0
   71.5010   42.7150   -2.6130 O   0  0  0  0  0  0  0  0  0  0  0  0
   74.2690   42.2910   -3.7010 C   0  0  0  0  0  0  0  0  0  0  0  0
   75.4150   42.9290   -4.2120 C   0  0  0  0  0  0  0  0  0  0  0  0
   75.4310   43.5340   -5.4900 N   0  0  0  0  0  0  0  0  0  0  0  0
   74.6430   44.7780   -5.5250 C   0  0  0  0  0  0  0  0  0  0  0  0
   74.8950   45.4900   -6.8550 C   0  0  0  0  0  0  0  0  0  0  0  0
   74.5900   44.5720   -8.0390 C   0  0  0  0  0  0  0  0  0  0  0  0
   75.3490   43.2510   -7.9160 C   0  0  0  0  0  0  0  0  0  0  0  0
   75.0870   42.5880   -6.5630 C   0  0  0  0  0  0  0  0  0  0  0  0
   78.4388   43.9686   -3.0746 H   0  0  0  0  0  0  0  0  0  0  0  0
   78.4050   42.9298   -4.5397 H   0  0  0  0  0  0  0  0  0  0  0  0
   77.5519   44.5106   -4.5397 H   0  0  0  0  0  0  0  0  0  0  0  0
   77.4878   42.3974   -1.5378 H   0  0  0  0  0  0  0  0  0  0  0  0
   75.4476   41.2791   -0.6677 H   0  0  0  0  0  0  0  0  0  0  0  0
   73.7465   37.5538   -0.0756 H   0  0  0  0  0  0  0  0  0  0  0  0
   71.9783   36.1151    0.9381 H   0  0  0  0  0  0  0  0  0  0  0  0
   69.5869   36.8278    0.8560 H   0  0  0  0  0  0  0  0  0  0  0  0
   68.1380   38.7220    0.4890 H   0  0  0  0  0  0  0  0  0  0  0  0
   71.2230   43.4420   -2.0920 H   0  0  0  0  0  0  0  0  0  0  0  0
   73.3583   42.2517   -4.3168 H   0  0  0  0  0  0  0  0  0  0  0  0
   73.5732   44.5397   -5.4312 H   0  0  0  0  0  0  0  0  0  0  0  0
   74.9419   45.4308   -4.6916 H   0  0  0  0  0  0  0  0  0  0  0  0
   74.2496   46.3788   -6.9143 H   0  0  0  0  0  0  0  0  0  0  0  0
   75.9557   45.7777   -6.9010 H   0  0  0  0  0  0  0  0  0  0  0  0
   73.5099   44.3654   -8.0654 H   0  0  0  0  0  0  0  0  0  0  0  0
   74.9083   45.0749   -8.9641 H   0  0  0  0  0  0  0  0  0  0  0  0
   75.0214   42.5727   -8.7176 H   0  0  0  0  0  0  0  0  0  0  0  0
   76.4260   43.4583   -8.0002 H   0  0  0  0  0  0  0  0  0  0  0  0
   74.0244   42.3142   -6.4863 H   0  0  0  0  0  0  0  0  0  0  0  0
   75.7019   41.6807   -6.4691 H   0  0  0  0  0  0  0  0  0  0  0  0
  1  2  1  0
  2  3  2  0
  3  4  1  0
  4  5  2  0
  5  6  1  0
  6  7  1  0
  7  8  1  0
  8  9  2  0
  9 10  1  0
 10 11  2  0
 11 12  1  0
 12 13  1  0
 12 14  2  0
 14 15  1  0
 15 16  2  0
 15 17  1  0
 17 18  1  0
  5 19  1  0
 19 20  2  0
 20 21  1  0
 21 22  1  0
 22 23  1  0
 23 24  1  0
 24 25  1  0
 25 26  1  0
 20  2  1  0
 26 21  1  0
 17  6  2  0
 14  8  1  0
  1 27  1  0
  1 28  1  0
  1 29  1  0
  3 30  1  0
  4 31  1  0
  9 32  1  0
 10 33  1  0
 11 34  1  0
 13 35  1  0
 18 36  1  0
 19 37  1  0
 22 38  1  0
 22 39  1  0
 23 40  1  0
 23 41  1  0
 24 42  1  0
 24 43  1  0
 25 44  1  0
 25 45  1  0
 26 46  1  0
 26 47  1  0
M  END
>  <meeko>  (9) 
{"is_sidechain": [false], "free_energy": -7.353, "intermolecular_energy": -8.957, "internal_energy": -0.468}

$$$$
