cand_050_out
     RDKit          3D

 38 40  0  0  0  0  0  0  0  0999 V2000
   66.8410   39.4530   -1.0020 C   0  0  0  0  0  0  0  0  0  0  0  0
   68.0920   39.0510   -0.2330 C   0  0  0  0  0  0  0  0  0  0  0  0
   69.3340   39.7190   -0.7820 C   0  0  0  0  0  0  0  0  0  0  0  0
   69.1720   40.7380   -1.7360 C   0  0  0  0  0  0  0  0  0  0  0  0
   70.2780   41.3880   -2.2890 C   0  0  0  0  0  0  0  0  0  0  0  0
   71.5770   41.0430   -1.9030 C   0  0  0  0  0  0  0  0  0  0  0  0
   72.7340   41.7310   -2.5140 C   0  0  0  0  0  0  0  0  0  0  0  0
   72.5660   43.1090   -2.5910 O   0  0  0  0  0  0  0  0  0  0  0  0
   73.5680   43.8680   -3.1390 C   0  0  0  0  0  0  0  0  0  0  0  0
   73.3520   45.2450   -3.2100 C   0  0  0  0  0  0  0  0  0  0  0  0
   74.3330   46.0770   -3.7550 C   0  0  0  0  0  0  0  0  0  0  0  0
   75.5290   45.5320   -4.2260 C   0  0  0  0  0  0  0  0  0  0  0  0
   75.7420   44.1580   -4.1540 C   0  0  0  0  0  0  0  0  0  0  0  0
   76.9350   43.6920   -4.6350 O   0  0  0  0  0  0  0  0  0  0  0  0
   74.7590   43.3260   -3.6100 C   0  0  0  0  0  0  0  0  0  0  0  0
   74.9430   41.8770   -3.5160 C   0  0  0  0  0  0  0  0  0  0  0  0
   75.9700   41.3230   -3.9030 O   0  0  0  0  0  0  0  0  0  0  0  0
   73.8380   41.0840   -2.9300 C   0  0  0  0  0  0  0  0  0  0  0  0
   74.0250   39.7180   -2.8320 O   0  0  0  0  0  0  0  0  0  0  0  0
   71.7400   40.0150   -0.9630 C   0  0  0  0  0  0  0  0  0  0  0  0
   70.6380   39.3430   -0.3930 C   0  0  0  0  0  0  0  0  0  0  0  0
   70.8940   38.2560    0.6290 C   0  0  0  0  0  0  0  0  0  0  0  0
   70.2290   37.0930    0.3700 F   0  0  0  0  0  0  0  0  0  0  0  0
   70.5180   38.6130    1.8900 F   0  0  0  0  0  0  0  0  0  0  0  0
   72.2100   37.9150    0.7120 F   0  0  0  0  0  0  0  0  0  0  0  0
   66.0410   39.7101   -0.2921 H   0  0  0  0  0  0  0  0  0  0  0  0
   67.0638   40.3248   -1.6347 H   0  0  0  0  0  0  0  0  0  0  0  0
   66.5143   38.6146   -1.6347 H   0  0  0  0  0  0  0  0  0  0  0  0
   67.9694   39.3407    0.8211 H   0  0  0  0  0  0  0  0  0  0  0  0
   68.2183   37.9630   -0.3345 H   0  0  0  0  0  0  0  0  0  0  0  0
   68.1591   41.0282   -2.0521 H   0  0  0  0  0  0  0  0  0  0  0  0
   70.1253   42.1803   -3.0366 H   0  0  0  0  0  0  0  0  0  0  0  0
   72.4105   45.6747   -2.8373 H   0  0  0  0  0  0  0  0  0  0  0  0
   74.1630   47.1622   -3.8131 H   0  0  0  0  0  0  0  0  0  0  0  0
   76.3021   46.1874   -4.6535 H   0  0  0  0  0  0  0  0  0  0  0  0
   77.3390   42.9450   -4.2420 H   0  0  0  0  0  0  0  0  0  0  0  0
   74.3430   39.3450   -2.0340 H   0  0  0  0  0  0  0  0  0  0  0  0
   72.7570   39.7240   -0.6612 H   0  0  0  0  0  0  0  0  0  0  0  0
  1  2  1  0
  2  3  1  0
  3  4  2  0
  4  5  1  0
  5  6  2  0
  6  7  1  0
  7  8  1  0
  8  9  1  0
  9 10  2  0
 10 11  1  0
 11 12  2  0
 12 13  1  0
 13 14  1  0
 13 15  2  0
 15 16  1  0
 16 17  2  0
 16 18  1  0
 18 19  1  0
  6 20  1  0
 20 21  2  0
 21 22  1  0
 22 23  1  0
 22 24  1  0
 22 25  1  0
 21  3  1  0
 18  7  2  0
 15  9  1  0
  1 26  1  0
  1 27  1  0
  1 28  1  0
  2 29  1  0
  2 30  1  0
  4 31  1  0
  5 32  1  0
 10 33  1  0
 11 34  1  0
 12 35  1  0
 14 36  1  0
 19 37  1  0
 20 38  1  0
M  END
>  <meeko>  (1) 
{"is_sidechain": [false], "free_energy": -8.182, "intermolecular_energy": -10.095, "internal_energy": -0.262}

$$$$
cand_050_out
     RDKit          3D

 38 40  0  0  0  0  0  0  0  0999 V2000
   76.2280   42.9920   -6.4580 C   0  0  0  0  0  0  0  0  0  0  0  0
   75.4070   43.8100   -5.4720 C   0  0  0  0  0  0  0  0  0  0  0  0
   74.6010   42.9320   -4.5390 C   0  0  0  0  0  0  0  0  0  0  0  0
   73.4560   42.2970   -5.0490 C   0  0  0  0  0  0  0  0  0  0  0  0
   72.6640   41.4810   -4.2380 C   0  0  0  0  0  0  0  0  0  0  0  0
   72.9940   41.2710   -2.8960 C   0  0  0  0  0  0  0  0  0  0  0  0
   72.1320   40.4180   -2.0500 C   0  0  0  0  0  0  0  0  0  0  0  0
   70.7900   40.7780   -2.1090 O   0  0  0  0  0  0  0  0  0  0  0  0
   69.8810   40.0650   -1.3690 C   0  0  0  0  0  0  0  0  0  0  0  0
   68.5480   40.4690   -1.4440 C   0  0  0  0  0  0  0  0  0  0  0  0
   67.5700   39.7850   -0.7180 C   0  0  0  0  0  0  0  0  0  0  0  0
   67.9260   38.6980    0.0830 C   0  0  0  0  0  0  0  0  0  0  0  0
   69.2580   38.2970    0.1570 C   0  0  0  0  0  0  0  0  0  0  0  0
   69.5360   37.2250    0.9600 O   0  0  0  0  0  0  0  0  0  0  0  0
   70.2360   38.9820   -0.5700 C   0  0  0  0  0  0  0  0  0  0  0  0
   71.6450   38.5940   -0.5200 C   0  0  0  0  0  0  0  0  0  0  0  0
   72.0370   37.6440    0.1560 O   0  0  0  0  0  0  0  0  0  0  0  0
   72.6030   39.3900   -1.3210 C   0  0  0  0  0  0  0  0  0  0  0  0
   73.9320   39.0090   -1.2790 O   0  0  0  0  0  0  0  0  0  0  0  0
   74.1270   41.9170   -2.3810 C   0  0  0  0  0  0  0  0  0  0  0  0
   74.9400   42.7480   -3.1810 C   0  0  0  0  0  0  0  0  0  0  0  0
   76.1580   43.3960   -2.5580 C   0  0  0  0  0  0  0  0  0  0  0  0
   76.1340   44.7600   -2.6000 F   0  0  0  0  0  0  0  0  0  0  0  0
   77.3220   43.0380   -3.1680 F   0  0  0  0  0  0  0  0  0  0  0  0
   76.3080   43.0730   -1.2430 F   0  0  0  0  0  0  0  0  0  0  0  0
   76.9019   42.3206   -5.9057 H   0  0  0  0  0  0  0  0  0  0  0  0
   75.5539   42.3958   -7.0905 H   0  0  0  0  0  0  0  0  0  0  0  0
   76.8217   43.6683   -7.0905 H   0  0  0  0  0  0  0  0  0  0  0  0
   76.0882   44.4327   -4.8735 H   0  0  0  0  0  0  0  0  0  0  0  0
   74.7035   44.4295   -6.0476 H   0  0  0  0  0  0  0  0  0  0  0  0
   73.1791   42.4448   -6.1033 H   0  0  0  0  0  0  0  0  0  0  0  0
   71.7704   40.9981   -4.6602 H   0  0  0  0  0  0  0  0  0  0  0  0
   68.2671   41.3256   -2.0744 H   0  0  0  0  0  0  0  0  0  0  0  0
   66.5186   40.1029   -0.7773 H   0  0  0  0  0  0  0  0  0  0  0  0
   67.1559   38.1593    0.6546 H   0  0  0  0  0  0  0  0  0  0  0  0
   68.8380   36.7400    1.3530 H   0  0  0  0  0  0  0  0  0  0  0  0
   74.4540   39.0460   -2.0560 H   0  0  0  0  0  0  0  0  0  0  0  0
   74.3897   41.7718   -1.3227 H   0  0  0  0  0  0  0  0  0  0  0  0
  1  2  1  0
  2  3  1  0
  3  4  2  0
  4  5  1  0
  5  6  2  0
  6  7  1  0
  7  8  1  0
  8  9  1  0
  9 10  2  0
 10 11  1  0
 11 12  2  0
 12 13  1  0
 13 14  1  0
 13 15  2  0
 15 16  1  0
 16 17  2  0
 16 18  1  0
 18 19  1  0
  6 20  1  0
 20 21  2  0
 21 22  1  0
 22 23  1  0
 22 24  1  0
 22 25  1  0
 21  3  1  0
 18  7  2  0
 15  9  1  0
  1 26  1  0
  1 27  1  0
  1 28  1  0
  2 29  1  0
  2 30  1  0
  4 31  1  0
  5 32  1  0
 10 33  1  0
 11 34  1  0
 12 35  1  0
 14 36  1  0
 19 37  1  0
 20 38  1  0
M  END
>  <meeko>  (2) 
{"is_sidechain": [false], "free_energy": -8.139, "intermolecular_energy": -9.788, "internal_energy": -0.516}

$$$$
cand_050_out
     RDKit          3D

 38 40  0  0  0  0  0  0  0  0999 V2000
   75.2930   46.7530   -3.0050 C   0  0  0  0  0  0  0  0  0  0  0  0
   75.5490   45.3170   -3.4420 C   0  0  0  0  0  0  0  0  0  0  0  0
   74.3440   44.4310   -3.2120 C   0  0  0  0  0  0  0  0  0  0  0  0
   73.0730   44.9460   -3.5230 C   0  0  0  0  0  0  0  0  0  0  0  0
   71.9200   44.1830   -3.3250 C   0  0  0  0  0  0  0  0  0  0  0  0
   72.0010   42.8840   -2.8160 C   0  0  0  0  0  0  0  0  0  0  0  0
   70.7660   42.1010   -2.5980 C   0  0  0  0  0  0  0  0  0  0  0  0
   70.8350   41.2830   -1.4750 O   0  0  0  0  0  0  0  0  0  0  0  0
   69.7540   40.5010   -1.1590 C   0  0  0  0  0  0  0  0  0  0  0  0
   69.8710   39.6840   -0.0330 C   0  0  0  0  0  0  0  0  0  0  0  0
   68.8050   38.8650    0.3470 C   0  0  0  0  0  0  0  0  0  0  0  0
   67.6250   38.8630   -0.3970 C   0  0  0  0  0  0  0  0  0  0  0  0
   67.5100   39.6780   -1.5200 C   0  0  0  0  0  0  0  0  0  0  0  0
   66.3250   39.6260   -2.2040 O   0  0  0  0  0  0  0  0  0  0  0  0
   68.5770   40.4980   -1.9010 C   0  0  0  0  0  0  0  0  0  0  0  0
   68.4970   41.3690   -3.0730 C   0  0  0  0  0  0  0  0  0  0  0  0
   67.4900   41.4290   -3.7750 O   0  0  0  0  0  0  0  0  0  0  0  0
   69.6860   42.1920   -3.3950 C   0  0  0  0  0  0  0  0  0  0  0  0
   69.5990   43.0230   -4.4970 O   0  0  0  0  0  0  0  0  0  0  0  0
   73.2660   42.3750   -2.4900 C   0  0  0  0  0  0  0  0  0  0  0  0
   74.4450   43.1280   -2.6790 C   0  0  0  0  0  0  0  0  0  0  0  0
   75.7760   42.5030   -2.3210 C   0  0  0  0  0  0  0  0  0  0  0  0
   75.6880   41.1830   -1.9840 F   0  0  0  0  0  0  0  0  0  0  0  0
   76.3770   43.1070   -1.2570 F   0  0  0  0  0  0  0  0  0  0  0  0
   76.6740   42.5610   -3.3430 F   0  0  0  0  0  0  0  0  0  0  0  0
   75.2836   46.8058   -1.9063 H   0  0  0  0  0  0  0  0  0  0  0  0
   76.0894   47.4029   -3.3965 H   0  0  0  0  0  0  0  0  0  0  0  0
   74.3210   47.0877   -3.3965 H   0  0  0  0  0  0  0  0  0  0  0  0
   75.7951   45.3106   -4.5141 H   0  0  0  0  0  0  0  0  0  0  0  0
   76.3809   44.9220   -2.8404 H   0  0  0  0  0  0  0  0  0  0  0  0
   72.9855   45.9649   -3.9282 H   0  0  0  0  0  0  0  0  0  0  0  0
   70.9367   44.6095   -3.5726 H   0  0  0  0  0  0  0  0  0  0  0  0
   70.8012   39.6852    0.5541 H   0  0  0  0  0  0  0  0  0  0  0  0
   68.8962   38.2209    1.2340 H   0  0  0  0  0  0  0  0  0  0  0  0
   66.7860   38.2180   -0.0967 H   0  0  0  0  0  0  0  0  0  0  0  0
   65.7320   38.9170   -2.0580 H   0  0  0  0  0  0  0  0  0  0  0  0
   68.7700   43.1710   -4.9080 H   0  0  0  0  0  0  0  0  0  0  0  0
   73.3420   41.3592   -2.0748 H   0  0  0  0  0  0  0  0  0  0  0  0
  1  2  1  0
  2  3  1  0
  3  4  2  0
  4  5  1  0
  5  6  2  0
  6  7  1  0
  7  8  1  0
  8  9  1  0
  9 10  2  0
 10 11  1  0
 11 12  2  0
 12 13  1  0
 13 14  1  0
 13 15  2  0
 15 16  1  0
 16 17  2  0
 16 18  1  0
 18 19  1  0
  6 20  1  0
 20 21  2  0
 21 22  1  0
 22 23  1  0
 22 24  1  0
 22 25  1  0
 21  3  1  0
 18  7  2  0
 15  9  1  0
  1 26  1  0
  1 27  1  0
  1 28  1  0
  2 29  1  0
  2 30  1  0
  4 31  1  0
  5 32  1  0
 10 33  1  0
 11 34  1  0
 12 35  1  0
 14 36  1  0
 19 37  1  0
 20 38  1  0
M  END
>  <meeko>  (3) 
{"is_sidechain": [false], "free_energy": -8.063, "intermolecular_energy": -10.049, "internal_energy": -0.161}

$$$$
cand_050_out
     RDKit          3D

 38 40  0  0  0  0  0  0  0  0999 V2000
   70.9080   36.2000    0.5820 C   0  0  0  0  0  0  0  0  0  0  0  0
   70.7970   37.5220    1.3280 C   0  0  0  0  0  0  0  0  0  0  0  0
   70.2590   38.6270    0.4440 C   0  0  0  0  0  0  0  0  0  0  0  0
   68.8680   38.7150    0.2650 C   0  0  0  0  0  0  0  0  0  0  0  0
   68.3080   39.7060   -0.5450 C   0  0  0  0  0  0  0  0  0  0  0  0
   69.1190   40.6400   -1.1970 C   0  0  0  0  0  0  0  0  0  0  0  0
   68.5080   41.6690   -2.0640 C   0  0  0  0  0  0  0  0  0  0  0  0
   67.6070   42.4830   -1.3860 O   0  0  0  0  0  0  0  0  0  0  0  0
   66.9670   43.4800   -2.0770 C   0  0  0  0  0  0  0  0  0  0  0  0
   66.0600   44.2630   -1.3620 C   0  0  0  0  0  0  0  0  0  0  0  0
   65.3760   45.2980   -2.0040 C   0  0  0  0  0  0  0  0  0  0  0  0
   65.6000   45.5500   -3.3580 C   0  0  0  0  0  0  0  0  0  0  0  0
   66.5050   44.7670   -4.0700 C   0  0  0  0  0  0  0  0  0  0  0  0
   66.6750   45.0680   -5.3940 O   0  0  0  0  0  0  0  0  0  0  0  0
   67.1890   43.7300   -3.4270 C   0  0  0  0  0  0  0  0  0  0  0  0
   68.1480   42.8850   -4.1380 C   0  0  0  0  0  0  0  0  0  0  0  0
   68.4050   43.0470   -5.3290 O   0  0  0  0  0  0  0  0  0  0  0  0
   68.8130   41.8090   -3.3670 C   0  0  0  0  0  0  0  0  0  0  0  0
   69.7290   41.0220   -4.0420 O   0  0  0  0  0  0  0  0  0  0  0  0
   70.5090   40.5430   -1.0320 C   0  0  0  0  0  0  0  0  0  0  0  0
   71.0960   39.5490   -0.2200 C   0  0  0  0  0  0  0  0  0  0  0  0
   72.6030   39.5210   -0.0770 C   0  0  0  0  0  0  0  0  0  0  0  0
   73.1560   38.3040   -0.3510 F   0  0  0  0  0  0  0  0  0  0  0  0
   73.0230   39.8310    1.1820 F   0  0  0  0  0  0  0  0  0  0  0  0
   73.2250   40.4020   -0.9080 F   0  0  0  0  0  0  0  0  0  0  0  0
   70.9773   35.3750    1.3063 H   0  0  0  0  0  0  0  0  0  0  0  0
   70.0185   36.0596   -0.0497 H   0  0  0  0  0  0  0  0  0  0  0  0
   71.8085   36.2099   -0.0497 H   0  0  0  0  0  0  0  0  0  0  0  0
   70.1197   37.3908    2.1848 H   0  0  0  0  0  0  0  0  0  0  0  0
   71.8052   37.8116    1.6593 H   0  0  0  0  0  0  0  0  0  0  0  0
   68.2101   37.9926    0.7703 H   0  0  0  0  0  0  0  0  0  0  0  0
   67.2162   39.7521   -0.6713 H   0  0  0  0  0  0  0  0  0  0  0  0
   65.8839   44.0655   -0.2943 H   0  0  0  0  0  0  0  0  0  0  0  0
   64.6599   45.9151   -1.4415 H   0  0  0  0  0  0  0  0  0  0  0  0
   65.0623   46.3663   -3.8624 H   0  0  0  0  0  0  0  0  0  0  0  0
   67.3940   45.6030   -5.6640 H   0  0  0  0  0  0  0  0  0  0  0  0
   70.5980   41.3370   -4.1890 H   0  0  0  0  0  0  0  0  0  0  0  0
   71.1600   41.2624   -1.5504 H   0  0  0  0  0  0  0  0  0  0  0  0
  1  2  1  0
  2  3  1  0
  3  4  2  0
  4  5  1  0
  5  6  2  0
  6  7  1  0
  7  8  1  0
  8  9  1  0
  9 10  2  0
 10 11  1  0
 11 12  2  0
 12 13  1  0
 13 14  1  0
 13 15  2  0
 15 16  1  0
 16 17  2  0
 16 18  1  0
 18 19  1  0
  6 20  1  0
 20 21  2  0
 21 22  1  0
 22 23  1  0
 22 24  1  0
 22 25  1  0
 21  3  1  0
 18  7  2  0
 15  9  1  0
  1 26  1  0
  1 27  1  0
  1 28  1  0
  2 29  1  0
  2 30  1  0
  4 31  1  0
  5 32  1  0
 10 33  1  0
 11 34  1  0
 12 35  1  0
 14 36  1  0
 19 37  1  0
 20 38  1  0
M  END
>  <meeko>  (4) 
{"is_sidechain": [false], "free_energy": -8.037, "intermolecular_energy": -9.688, "internal_energy": -0.49}

$$$$
cand_050_out
     RDKit          3D

 38 40  0  0  0  0  0  0  0  0999 V2000
   76.2540   42.8330   -6.6470 C   0  0  0  0  0  0  0  0  0  0  0  0
   75.4670   43.7130   -5.6860 C   0  0  0  0  0  0  0  0  0  0  0  0
   74.6060   42.8970   -4.7460 C   0  0  0  0  0  0  0  0  0  0  0  0
   73.4610   42.2720   -5.2700 C   0  0  0  0  0  0  0  0  0  0  0  0
   72.6190   41.5130   -4.4540 C   0  0  0  0  0  0  0  0  0  0  0  0
   72.8970   41.3520   -3.0930 C   0  0  0  0  0  0  0  0  0  0  0  0
   71.9830   40.5590   -2.2440 C   0  0  0  0  0  0  0  0  0  0  0  0
   72.6130   39.4850   -1.6250 O   0  0  0  0  0  0  0  0  0  0  0  0
   71.8760   38.6660   -0.8080 C   0  0  0  0  0  0  0  0  0  0  0  0
   72.5440   37.5910   -0.2200 C   0  0  0  0  0  0  0  0  0  0  0  0
   71.8530   36.7200    0.6250 C   0  0  0  0  0  0  0  0  0  0  0  0
   70.4970   36.9250    0.8830 C   0  0  0  0  0  0  0  0  0  0  0  0
   69.8320   37.9980    0.2950 C   0  0  0  0  0  0  0  0  0  0  0  0
   68.5030   38.1390    0.5910 O   0  0  0  0  0  0  0  0  0  0  0  0
   70.5230   38.8690   -0.5520 C   0  0  0  0  0  0  0  0  0  0  0  0
   69.8630   40.0090   -1.1890 C   0  0  0  0  0  0  0  0  0  0  0  0
   68.6740   40.2590   -1.0070 O   0  0  0  0  0  0  0  0  0  0  0  0
   70.6830   40.8660   -2.0750 C   0  0  0  0  0  0  0  0  0  0  0  0
   70.0560   41.9490   -2.6640 O   0  0  0  0  0  0  0  0  0  0  0  0
   74.0300   41.9880   -2.5660 C   0  0  0  0  0  0  0  0  0  0  0  0
   74.8930   42.7620   -3.3710 C   0  0  0  0  0  0  0  0  0  0  0  0
   76.1070   43.4030   -2.7320 C   0  0  0  0  0  0  0  0  0  0  0  0
   77.2860   43.0530   -3.3240 F   0  0  0  0  0  0  0  0  0  0  0  0
   76.2520   43.0750   -1.4180 F   0  0  0  0  0  0  0  0  0  0  0  0
   76.0650   44.7640   -2.7770 F   0  0  0  0  0  0  0  0  0  0  0  0
   76.8800   42.1330   -6.0742 H   0  0  0  0  0  0  0  0  0  0  0  0
   75.5559   42.2663   -7.2806 H   0  0  0  0  0  0  0  0  0  0  0  0
   76.8948   43.4638   -7.2806 H   0  0  0  0  0  0  0  0  0  0  0  0
   76.1739   44.3105   -5.0917 H   0  0  0  0  0  0  0  0  0  0  0  0
   74.8036   44.3576   -6.2813 H   0  0  0  0  0  0  0  0  0  0  0  0
   73.2246   42.3823   -6.3386 H   0  0  0  0  0  0  0  0  0  0  0  0
   71.7271   41.0365   -4.8869 H   0  0  0  0  0  0  0  0  0  0  0  0
   73.6133   37.4300   -0.4218 H   0  0  0  0  0  0  0  0  0  0  0  0
   72.3782   35.8714    1.0877 H   0  0  0  0  0  0  0  0  0  0  0  0
   69.9539   36.2396    1.5503 H   0  0  0  0  0  0  0  0  0  0  0  0
   67.9310   38.5610   -0.0180 H   0  0  0  0  0  0  0  0  0  0  0  0
   69.7420   41.8860   -3.5440 H   0  0  0  0  0  0  0  0  0  0  0  0
   74.2527   41.8806   -1.4941 H   0  0  0  0  0  0  0  0  0  0  0  0
  1  2  1  0
  2  3  1  0
  3  4  2  0
  4  5  1  0
  5  6  2  0
  6  7  1  0
  7  8  1  0
  8  9  1  0
  9 10  2  0
 10 11  1  0
 11 12  2  0
 12 13  1  0
 13 14  1  0
 13 15  2  0
 15 16  1  0
 16 17  2  0
 16 18  1  0
 18 19  1  0
  6 20  1  0
 20 21  2  0
 21 22  1  0
 22 23  1  0
 22 24  1  0
 22 25  1  0
 21  3  1  0
 18  7  2  0
 15  9  1  0
  1 26  1  0
  1 27  1  0
  1 28  1  0
  2 29  1  0
  2 30  1  0
  4 31  1  0
  5 32  1  0
 10 33  1  0
 11 34  1  0
 12 35  1  0
 14 36  1  0
 19 37  1  0
 20 38  1  0
M  END
>  <meeko>  (5) 
{"is_sidechain": [false], "free_energy": -8.022, "intermolecular_energy": -9.613, "internal_energy": -0.547}

$$$$
cand_050_out
     RDKit          3D

 38 40  0  0  0  0  0  0  0  0999 V2000
   77.6930   44.9170   -3.8200 C   0  0  0  0  0  0  0  0  0  0  0  0
   77.5710   43.4800   -4.3080 C   0  0  0  0  0  0  0  0  0  0  0  0
   76.3600   42.7840   -3.7260 C   0  0  0  0  0  0  0  0  0  0  0  0
   76.3250   42.5640   -2.3390 C   0  0  0  0  0  0  0  0  0  0  0  0
   75.2400   41.9190   -1.7400 C   0  0  0  0  0  0  0  0  0  0  0  0
   74.1580   41.4790   -2.5070 C   0  0  0  0  0  0  0  0  0  0  0  0
   73.0280   40.7820   -1.8560 C   0  0  0  0  0  0  0  0  0  0  0  0
   73.3870   39.5480   -1.3240 O   0  0  0  0  0  0  0  0  0  0  0  0
   72.4300   38.7970   -0.6920 C   0  0  0  0  0  0  0  0  0  0  0  0
   72.8290   37.5580   -0.1870 C   0  0  0  0  0  0  0  0  0  0  0  0
   71.9050   36.7440    0.4720 C   0  0  0  0  0  0  0  0  0  0  0  0
   70.5840   37.1680    0.6250 C   0  0  0  0  0  0  0  0  0  0  0  0
   70.1880   38.4030    0.1210 C   0  0  0  0  0  0  0  0  0  0  0  0
   68.8780   38.7560    0.3060 O   0  0  0  0  0  0  0  0  0  0  0  0
   71.1120   39.2180   -0.5390 C   0  0  0  0  0  0  0  0  0  0  0  0
   70.7380   40.5230   -1.0840 C   0  0  0  0  0  0  0  0  0  0  0  0
   69.5970   40.9690   -0.9830 O   0  0  0  0  0  0  0  0  0  0  0  0
   71.7910   41.3050   -1.7720 C   0  0  0  0  0  0  0  0  0  0  0  0
   71.4330   42.5430   -2.2730 O   0  0  0  0  0  0  0  0  0  0  0  0
   74.1980   41.6830   -3.8940 C   0  0  0  0  0  0  0  0  0  0  0  0
   75.2850   42.3310   -4.5210 C   0  0  0  0  0  0  0  0  0  0  0  0
   75.2480   42.5310   -6.0210 C   0  0  0  0  0  0  0  0  0  0  0  0
   75.3090   43.8410   -6.4000 F   0  0  0  0  0  0  0  0  0  0  0  0
   74.1120   42.0430   -6.5940 F   0  0  0  0  0  0  0  0  0  0  0  0
   76.2840   41.9170   -6.6570 F   0  0  0  0  0  0  0  0  0  0  0  0
   77.6943   44.9318   -2.7201 H   0  0  0  0  0  0  0  0  0  0  0  0
   78.6314   45.3527   -4.1937 H   0  0  0  0  0  0  0  0  0  0  0  0
   76.8415   45.5047   -4.1937 H   0  0  0  0  0  0  0  0  0  0  0  0
   77.4855   43.4835   -5.4047 H   0  0  0  0  0  0  0  0  0  0  0  0
   78.4672   42.9329   -3.9802 H   0  0  0  0  0  0  0  0  0  0  0  0
   77.1645   42.9047   -1.7151 H   0  0  0  0  0  0  0  0  0  0  0  0
   75.2375   41.7557   -0.6522 H   0  0  0  0  0  0  0  0  0  0  0  0
   73.8698   37.2233   -0.3080 H   0  0  0  0  0  0  0  0  0  0  0  0
   72.2186   35.7680    0.8708 H   0  0  0  0  0  0  0  0  0  0  0  0
   69.8565   36.5263    1.1436 H   0  0  0  0  0  0  0  0  0  0  0  0
   68.6370   39.6600    0.3370 H   0  0  0  0  0  0  0  0  0  0  0  0
   70.5280   42.7570   -2.3890 H   0  0  0  0  0  0  0  0  0  0  0  0
   73.3591   41.3283   -4.5109 H   0  0  0  0  0  0  0  0  0  0  0  0
  1  2  1  0
  2  3  1  0
  3  4  2  0
  4  5  1  0
  5  6  2  0
  6  7  1  0
  7  8  1  0
  8  9  1  0
  9 10  2  0
 10 11  1  0
 11 12  2  0
 12 13  1  0
 13 14  1  0
 13 15  2  0
 15 16  1  0
 16 17  2  0
 16 18  1  0
 18 19  1  0
  6 20  1  0
 20 21  2  0
 21 22  1  0
 22 23  1  0
 22 24  1  0
 22 25  1  0
 21  3  1  0
 18  7  2  0
 15  9  1  0
  1 26  1  0
  1 27  1  0
  1 28  1  0
  2 29  1  0
  2 30  1  0
  4 31  1  0
  5 32  1  0
 10 33  1  0
 11 34  1  0
 12 35  1  0
 14 36  1  0
 19 37  1  0
 20 38  1  0
M  END
>  <meeko>  (6) 
{"is_sidechain": [false], "free_energy": -7.981, "intermolecular_energy": -9.471, "internal_energy": -0.638}

$$$$
cand_050_out
     RDKit          3D

 38 40  0  0  0  0  0  0  0  0999 V2000
   67.1210   38.9600   -0.1010 C   0  0  0  0  0  0  0  0  0  0  0  0
   68.4890   38.6100    0.4690 C   0  0  0  0  0  0  0  0  0  0  0  0
   69.6120   39.2380   -0.3270 C   0  0  0  0  0  0  0  0  0  0  0  0
   69.3130   40.3530   -1.1300 C   0  0  0  0  0  0  0  0  0  0  0  0
   70.3030   40.9730   -1.8970 C   0  0  0  0  0  0  0  0  0  0  0  0
   71.6190   40.5030   -1.8810 C   0  0  0  0  0  0  0  0  0  0  0  0
   72.6460   41.1620   -2.7140 C   0  0  0  0  0  0  0  0  0  0  0  0
   73.7970   41.4840   -2.0020 O   0  0  0  0  0  0  0  0  0  0  0  0
   74.8300   42.1020   -2.6580 C   0  0  0  0  0  0  0  0  0  0  0  0
   75.9600   42.4200   -1.9030 C   0  0  0  0  0  0  0  0  0  0  0  0
   77.0500   43.0490   -2.5100 C   0  0  0  0  0  0  0  0  0  0  0  0
   77.0100   43.3570   -3.8700 C   0  0  0  0  0  0  0  0  0  0  0  0
   75.8820   43.0390   -4.6220 C   0  0  0  0  0  0  0  0  0  0  0  0
   75.9110   43.3700   -5.9500 O   0  0  0  0  0  0  0  0  0  0  0  0
   74.7910   42.4110   -4.0150 C   0  0  0  0  0  0  0  0  0  0  0  0
   73.5870   42.0590   -4.7680 C   0  0  0  0  0  0  0  0  0  0  0  0
   73.4790   42.2920   -5.9700 O   0  0  0  0  0  0  0  0  0  0  0  0
   72.4850   41.4030   -4.0290 C   0  0  0  0  0  0  0  0  0  0  0  0
   71.3560   41.0620   -4.7500 O   0  0  0  0  0  0  0  0  0  0  0  0
   71.9150   39.3810   -1.0940 C   0  0  0  0  0  0  0  0  0  0  0  0
   70.9310   38.7370   -0.3130 C   0  0  0  0  0  0  0  0  0  0  0  0
   71.3320   37.5420    0.5260 C   0  0  0  0  0  0  0  0  0  0  0  0
   71.0910   37.7040    1.8600 F   0  0  0  0  0  0  0  0  0  0  0  0
   72.6600   37.2490    0.4330 F   0  0  0  0  0  0  0  0  0  0  0  0
   70.6710   36.4060    0.1700 F   0  0  0  0  0  0  0  0  0  0  0  0
   66.4155   39.1405    0.7234 H   0  0  0  0  0  0  0  0  0  0  0  0
   67.2023   39.8663   -0.7191 H   0  0  0  0  0  0  0  0  0  0  0  0
   66.7570   38.1260   -0.7191 H   0  0  0  0  0  0  0  0  0  0  0  0
   68.5443   38.9707    1.5067 H   0  0  0  0  0  0  0  0  0  0  0  0
   68.6079   37.5175    0.4208 H   0  0  0  0  0  0  0  0  0  0  0  0
   68.2847   40.7429   -1.1547 H   0  0  0  0  0  0  0  0  0  0  0  0
   70.0434   41.8411   -2.5206 H   0  0  0  0  0  0  0  0  0  0  0  0
   75.9924   42.1756   -0.8310 H   0  0  0  0  0  0  0  0  0  0  0  0
   77.9402   43.3015   -1.9152 H   0  0  0  0  0  0  0  0  0  0  0  0
   77.8689   43.8507   -4.3480 H   0  0  0  0  0  0  0  0  0  0  0  0
   76.5930   43.0420   -6.5000 H   0  0  0  0  0  0  0  0  0  0  0  0
   71.3290   40.2540   -5.2230 H   0  0  0  0  0  0  0  0  0  0  0  0
   72.9436   38.9913   -1.0848 H   0  0  0  0  0  0  0  0  0  0  0  0
  1  2  1  0
  2  3  1  0
  3  4  2  0
  4  5  1  0
  5  6  2  0
  6  7  1  0
  7  8  1  0
  8  9  1  0
  9 10  2  0
 10 11  1  0
 11 12  2  0
 12 13  1  0
 13 14  1  0
 13 15  2  0
 15 16  1  0
 16 17  2  0
 16 18  1  0
 18 19  1  0
  6 20  1  0
 20 21  2  0
 21 22  1  0
 22 23  1  0
 22 24  1  0
 22 25  1  0
 21  3  1  0
 18  7  2  0
 15  9  1  0
  1 26  1  0
  1 27  1  0
  1 28  1  0
  2 29  1  0
  2 30  1  0
  4 31  1  0
  5 32  1  0
 10 33  1  0
 11 34  1  0
 12 35  1  0
 14 36  1  0
 19 37  1  0
 20 38  1  0
M  END
>  <meeko>  (7) 
{"is_sidechain": [false], "free_energy": -7.946, "intermolecular_energy": -9.687, "internal_energy": -0.38}

$$$$
cand_050_out
     RDKit          3D

 38 40  0  0  0  0  0  0  0  0999 V2000
   70.6090   37.9440    2.1900 C   0  0  0  0  0  0  0  0  0  0  0  0
   70.2090   37.4570    0.8050 C   0  0  0  0  0  0  0  0  0  0  0  0
   70.1340   38.5910   -0.1950 C   0  0  0  0  0  0  0  0  0  0  0  0
   68.9170   39.2820   -0.3250 C   0  0  0  0  0  0  0  0  0  0  0  0
   68.7790   40.3320   -1.2350 C   0  0  0  0  0  0  0  0  0  0  0  0
   69.8520   40.7260   -2.0400 C   0  0  0  0  0  0  0  0  0  0  0  0
   69.6790   41.8270   -3.0110 C   0  0  0  0  0  0  0  0  0  0  0  0
   70.7820   42.6720   -3.0730 O   0  0  0  0  0  0  0  0  0  0  0  0
   70.7510   43.7380   -3.9360 C   0  0  0  0  0  0  0  0  0  0  0  0
   71.8720   44.5690   -3.9560 C   0  0  0  0  0  0  0  0  0  0  0  0
   71.9070   45.6710   -4.8130 C   0  0  0  0  0  0  0  0  0  0  0  0
   70.8230   45.9410   -5.6500 C   0  0  0  0  0  0  0  0  0  0  0  0
   69.7060   45.1110   -5.6290 C   0  0  0  0  0  0  0  0  0  0  0  0
   68.6790   45.4340   -6.4740 O   0  0  0  0  0  0  0  0  0  0  0  0
   69.6700   44.0080   -4.7700 C   0  0  0  0  0  0  0  0  0  0  0  0
   68.5160   43.1110   -4.7160 C   0  0  0  0  0  0  0  0  0  0  0  0
   67.5260   43.2770   -5.4260 O   0  0  0  0  0  0  0  0  0  0  0  0
   68.5750   41.9760   -3.7660 C   0  0  0  0  0  0  0  0  0  0  0  0
   67.4860   41.1250   -3.7300 O   0  0  0  0  0  0  0  0  0  0  0  0
   71.0630   40.0270   -1.9240 C   0  0  0  0  0  0  0  0  0  0  0  0
   71.2240   38.9610   -1.0130 C   0  0  0  0  0  0  0  0  0  0  0  0
   72.5670   38.2670   -0.9320 C   0  0  0  0  0  0  0  0  0  0  0  0
   72.4780   36.9060   -0.8920 F   0  0  0  0  0  0  0  0  0  0  0  0
   73.2780   38.6140    0.1780 F   0  0  0  0  0  0  0  0  0  0  0  0
   73.3680   38.5510   -1.9960 F   0  0  0  0  0  0  0  0  0  0  0  0
   70.1062   37.3319    2.9533 H   0  0  0  0  0  0  0  0  0  0  0  0
   71.6990   37.8560    2.3090 H   0  0  0  0  0  0  0  0  0  0  0  0
   70.3109   38.9961    2.3090 H   0  0  0  0  0  0  0  0  0  0  0  0
   70.9531   36.7254    0.4572 H   0  0  0  0  0  0  0  0  0  0  0  0
   69.2097   37.0033    0.8798 H   0  0  0  0  0  0  0  0  0  0  0  0
   68.0598   38.9910    0.3000 H   0  0  0  0  0  0  0  0  0  0  0  0
   67.8151   40.8551   -1.3195 H   0  0  0  0  0  0  0  0  0  0  0  0
   72.7270   44.3562   -3.2975 H   0  0  0  0  0  0  0  0  0  0  0  0
   72.7898   46.3271   -4.8285 H   0  0  0  0  0  0  0  0  0  0  0  0
   70.8516   46.8088   -6.3254 H   0  0  0  0  0  0  0  0  0  0  0  0
   67.9120   44.8980   -6.5050 H   0  0  0  0  0  0  0  0  0  0  0  0
   66.9560   41.0760   -2.9600 H   0  0  0  0  0  0  0  0  0  0  0  0
   71.9111   40.3181   -2.5612 H   0  0  0  0  0  0  0  0  0  0  0  0
  1  2  1  0
  2  3  1  0
  3  4  2  0
  4  5  1  0
  5  6  2  0
  6  7  1  0
  7  8  1  0
  8  9  1  0
  9 10  2  0
 10 11  1  0
 11 12  2  0
 12 13  1  0
 13 14  1  0
 13 15  2  0
 15 16  1  0
 16 17  2  0
 16 18  1  0
 18 19  1  0
  6 20  1  0
 20 21  2  0
 21 22  1  0
 22 23  1  0
 22 24  1  0
 22 25  1  0
 21  3  1  0
 18  7  2  0
 15  9  1  0
  1 26  1  0
  1 27  1  0
  1 28  1  0
  2 29  1  0
  2 30  1  0
  4 31  1  0
  5 32  1  0
 10 33  1  0
 11 34  1  0
 12 35  1  0
 14 36  1  0
 19 37  1  0
 20 38  1  0
M  END
>  <meeko>  (8) 
{"is_sidechain": [false], "free_energy": -7.942, "intermolecular_energy": -9.787, "internal_energy": -0.274}

$$$$
cand_050_out
     RDKit          3D

 38 40  0  0  0  0  0  0  0  0999 V2000
   77.6870   43.1680   -4.2610 C   0  0  0  0  0  0  0  0  0  0  0  0
   77.1120   43.5080   -2.8940 C   0  0  0  0  0  0  0  0  0  0  0  0
   75.6760   43.0490   -2.7530 C   0  0  0  0  0  0  0  0  0  0  0  0
   75.4400   41.7110   -2.3950 C   0  0  0  0  0  0  0  0  0  0  0  0
   74.1380   41.2220   -2.2570 C   0  0  0  0  0  0  0  0  0  0  0  0
   73.0360   42.0550   -2.4690 C   0  0  0  0  0  0  0  0  0  0  0  0
   71.6670   41.5130   -2.3360 C   0  0  0  0  0  0  0  0  0  0  0  0
   71.5080   40.7140   -1.2090 O   0  0  0  0  0  0  0  0  0  0  0  0
   70.2830   40.1470   -0.9680 C   0  0  0  0  0  0  0  0  0  0  0  0
   70.1710   39.3410    0.1660 C   0  0  0  0  0  0  0  0  0  0  0  0
   68.9500   38.7340    0.4720 C   0  0  0  0  0  0  0  0  0  0  0  0
   67.8430   38.9360   -0.3540 C   0  0  0  0  0  0  0  0  0  0  0  0
   67.9570   39.7400   -1.4840 C   0  0  0  0  0  0  0  0  0  0  0  0
   66.8330   39.8940   -2.2490 O   0  0  0  0  0  0  0  0  0  0  0  0
   69.1790   40.3460   -1.7910 C   0  0  0  0  0  0  0  0  0  0  0  0
   69.3410   41.1990   -2.9690 C   0  0  0  0  0  0  0  0  0  0  0  0
   68.4130   41.4300   -3.7400 O   0  0  0  0  0  0  0  0  0  0  0  0
   70.6790   41.7870   -3.2080 C   0  0  0  0  0  0  0  0  0  0  0  0
   70.8220   42.6020   -4.3160 O   0  0  0  0  0  0  0  0  0  0  0  0
   73.2700   43.3870   -2.8430 C   0  0  0  0  0  0  0  0  0  0  0  0
   74.5760   43.9010   -2.9900 C   0  0  0  0  0  0  0  0  0  0  0  0
   74.7480   45.3540   -3.3780 C   0  0  0  0  0  0  0  0  0  0  0  0
   75.6370   46.0290   -2.5930 F   0  0  0  0  0  0  0  0  0  0  0  0
   73.5880   46.0660   -3.3020 F   0  0  0  0  0  0  0  0  0  0  0  0
   75.1990   45.5060   -4.6550 F   0  0  0  0  0  0  0  0  0  0  0  0
   78.6276   42.6118   -4.1351 H   0  0  0  0  0  0  0  0  0  0  0  0
   76.9674   42.5501   -4.8181 H   0  0  0  0  0  0  0  0  0  0  0  0
   77.8817   44.0963   -4.8181 H   0  0  0  0  0  0  0  0  0  0  0  0
   77.7198   43.0158   -2.1205 H   0  0  0  0  0  0  0  0  0  0  0  0
   77.1321   44.6018   -2.7792 H   0  0  0  0  0  0  0  0  0  0  0  0
   76.2927   41.0383   -2.2207 H   0  0  0  0  0  0  0  0  0  0  0  0
   73.9789   40.1698   -1.9784 H   0  0  0  0  0  0  0  0  0  0  0  0
   71.0428   39.1838    0.8181 H   0  0  0  0  0  0  0  0  0  0  0  0
   68.8612   38.0967    1.3642 H   0  0  0  0  0  0  0  0  0  0  0  0
   66.8813   38.4600   -0.1118 H   0  0  0  0  0  0  0  0  0  0  0  0
   66.0460   40.2230   -1.8640 H   0  0  0  0  0  0  0  0  0  0  0  0
   71.5990   42.5540   -4.8360 H   0  0  0  0  0  0  0  0  0  0  0  0
   72.4112   44.0493   -3.0268 H   0  0  0  0  0  0  0  0  0  0  0  0
  1  2  1  0
  2  3  1  0
  3  4  2  0
  4  5  1  0
  5  6  2  0
  6  7  1  0
  7  8  1  0
  8  9  1  0
  9 10  2  0
 10 11  1  0
 11 12  2  0
 12 13  1  0
 13 14  1  0
 13 15  2  0
 15 16  1  0
 16 17  2  0
 16 18  1  0
 18 19  1  0
  6 20  1  0
 20 21  2  0
 21 22  1  0
 22 23  1  0
 22 24  1  0
 22 25  1  0
 21  3  1  0
 18  7  2  0
 15  9  1  0
  1 26  1  0
  1 27  1  0
  1 28  1  0
  2 29  1  0
  2 30  1  0
  4 31  1  0
  5 32  1  0
 10 33  1  0
 11 34  1  0
 12 35  1  0
 14 36  1  0
 19 37  1  0
 20 38  1  0
M  END
>  <meeko>  (9) 
{"is_sidechain": [false], "free_energy": -7.879, "intermolecular_energy": -9.639, "internal_energy": -0.345}

$$$$
