cand_016_out
     RDKit          3D

 35 37  0  0  0  0  0  0  0  0999 V2000
   69.8490   39.0250    1.1030 C   0  0  0  0  0  0  0  0  0  0  0  0
   70.7850   39.0570   -0.0750 C   0  0  0  0  0  0  0  0  0  0  0  0
   70.7700   40.1790   -0.9250 C   0  0  0  0  0  0  0  0  0  0  0  0
   71.6240   40.2730   -2.0330 C   0  0  0  0  0  0  0  0  0  0  0  0
   71.6240   41.4590   -2.9160 C   0  0  0  0  0  0  0  0  0  0  0  0
   72.7370   42.2710   -2.7310 O   0  0  0  0  0  0  0  0  0  0  0  0
   72.8620   43.4070   -3.4890 C   0  0  0  0  0  0  0  0  0  0  0  0
   73.9860   44.2010   -3.2590 C   0  0  0  0  0  0  0  0  0  0  0  0
   74.1750   45.3720   -3.9970 C   0  0  0  0  0  0  0  0  0  0  0  0
   73.2400   45.7480   -4.9640 C   0  0  0  0  0  0  0  0  0  0  0  0
   72.1190   44.9540   -5.1920 C   0  0  0  0  0  0  0  0  0  0  0  0
   71.2460   45.3800   -6.1530 O   0  0  0  0  0  0  0  0  0  0  0  0
   71.9310   43.7830   -4.4520 C   0  0  0  0  0  0  0  0  0  0  0  0
   70.7660   42.9200   -4.6590 C   0  0  0  0  0  0  0  0  0  0  0  0
   69.9040   43.1790   -5.4970 O   0  0  0  0  0  0  0  0  0  0  0  0
   70.6550   41.7060   -3.8180 C   0  0  0  0  0  0  0  0  0  0  0  0
   69.5590   40.8910   -4.0310 O   0  0  0  0  0  0  0  0  0  0  0  0
   72.5220   39.2280   -2.2710 C   0  0  0  0  0  0  0  0  0  0  0  0
   72.5570   38.1120   -1.4320 C   0  0  0  0  0  0  0  0  0  0  0  0
   71.7000   38.0130   -0.3240 C   0  0  0  0  0  0  0  0  0  0  0  0
   71.7590   36.7810    0.5500 C   0  0  0  0  0  0  0  0  0  0  0  0
   70.6510   35.9910    0.4520 F   0  0  0  0  0  0  0  0  0  0  0  0
   72.8110   35.9670    0.2580 F   0  0  0  0  0  0  0  0  0  0  0  0
   70.4323   39.0449    2.0354 H   0  0  0  0  0  0  0  0  0  0  0  0
   69.1846   39.9010    1.0673 H   0  0  0  0  0  0  0  0  0  0  0  0
   69.2460   38.1057    1.0673 H   0  0  0  0  0  0  0  0  0  0  0  0
   70.0712   41.0021   -0.7148 H   0  0  0  0  0  0  0  0  0  0  0  0
   74.7225   43.9053   -2.4974 H   0  0  0  0  0  0  0  0  0  0  0  0
   75.0610   45.9984   -3.8164 H   0  0  0  0  0  0  0  0  0  0  0  0
   73.3889   46.6702   -5.5448 H   0  0  0  0  0  0  0  0  0  0  0  0
   71.5420   45.9450   -6.8400 H   0  0  0  0  0  0  0  0  0  0  0  0
   69.5870   39.9910   -3.7700 H   0  0  0  0  0  0  0  0  0  0  0  0
   73.2085   39.2855   -3.1285 H   0  0  0  0  0  0  0  0  0  0  0  0
   73.2666   37.2983   -1.6423 H   0  0  0  0  0  0  0  0  0  0  0  0
   71.8510   37.2042    1.5612 H   0  0  0  0  0  0  0  0  0  0  0  0
  1  2  1  0
  2  3  2  0
  3  4  1  0
  4  5  1  0
  5  6  1  0
  6  7  1  0
  7  8  2  0
  8  9  1  0
  9 10  2  0
 10 11  1  0
 11 12  1  0
 11 13  2  0
 13 14  1  0
 14 15  2  0
 14 16  1  0
 16 17  1  0
  4 18  2  0
 18 19  1  0
 19 20  2  0
 20 21  1  0
 21 22  1  0
 21 23  1  0
 20  2  1  0
 16  5  2  0
 13  7  1  0
  1 24  1  0
  1 25  1  0
  1 26  1  0
  3 27  1  0
  8 28  1  0
  9 29  1  0
 10 30  1  0
 12 31  1  0
 17 32  1  0
 18 33  1  0
 19 34  1  0
 21 35  1  0
M  END
>  <meeko>  (1) 
{"is_sidechain": [false], "free_energy": -7.992, "intermolecular_energy": -9.394, "internal_energy": -0.456}

$$$$
cand_016_out
     RDKit          3D

 35 37  0  0  0  0  0  0  0  0999 V2000
   69.0240   38.9980    0.1690 C   0  0  0  0  0  0  0  0  0  0  0  0
   70.4480   38.8700   -0.3020 C   0  0  0  0  0  0  0  0  0  0  0  0
   70.9600   39.8330   -1.1910 C   0  0  0  0  0  0  0  0  0  0  0  0
   72.2800   39.7740   -1.6580 C   0  0  0  0  0  0  0  0  0  0  0  0
   72.8260   40.7970   -2.5760 C   0  0  0  0  0  0  0  0  0  0  0  0
   73.8990   41.4940   -2.0320 O   0  0  0  0  0  0  0  0  0  0  0  0
   74.5010   42.4720   -2.7800 C   0  0  0  0  0  0  0  0  0  0  0  0
   75.5640   43.1580   -2.1900 C   0  0  0  0  0  0  0  0  0  0  0  0
   76.2220   44.1660   -2.8970 C   0  0  0  0  0  0  0  0  0  0  0  0
   75.8180   44.4890   -4.1940 C   0  0  0  0  0  0  0  0  0  0  0  0
   74.7570   43.8040   -4.7810 C   0  0  0  0  0  0  0  0  0  0  0  0
   74.4140   44.1700   -6.0530 O   0  0  0  0  0  0  0  0  0  0  0  0
   74.0990   42.7950   -4.0720 C   0  0  0  0  0  0  0  0  0  0  0  0
   72.9790   42.0520   -4.6520 C   0  0  0  0  0  0  0  0  0  0  0  0
   72.5700   42.2720   -5.7900 O   0  0  0  0  0  0  0  0  0  0  0  0
   72.3440   41.0080   -3.8150 C   0  0  0  0  0  0  0  0  0  0  0  0
   71.2970   40.3020   -4.3760 O   0  0  0  0  0  0  0  0  0  0  0  0
   73.1020   38.7390   -1.2020 C   0  0  0  0  0  0  0  0  0  0  0  0
   72.6130   37.7790   -0.3120 C   0  0  0  0  0  0  0  0  0  0  0  0
   71.2890   37.8330    0.1540 C   0  0  0  0  0  0  0  0  0  0  0  0
   70.7950   36.7660    1.1050 C   0  0  0  0  0  0  0  0  0  0  0  0
   70.3220   35.6530    0.4720 F   0  0  0  0  0  0  0  0  0  0  0  0
   71.7590   36.3180    1.9550 F   0  0  0  0  0  0  0  0  0  0  0  0
   69.0003   39.0001    1.2687 H   0  0  0  0  0  0  0  0  0  0  0  0
   68.5960   39.9382   -0.2088 H   0  0  0  0  0  0  0  0  0  0  0  0
   68.4351   38.1492   -0.2088 H   0  0  0  0  0  0  0  0  0  0  0  0
   70.3080   40.6525   -1.5278 H   0  0  0  0  0  0  0  0  0  0  0  0
   75.8831   42.9044   -1.1683 H   0  0  0  0  0  0  0  0  0  0  0  0
   77.0596   44.7064   -2.4318 H   0  0  0  0  0  0  0  0  0  0  0  0
   76.3368   45.2830   -4.7511 H   0  0  0  0  0  0  0  0  0  0  0  0
   75.0070   44.6810   -6.5710 H   0  0  0  0  0  0  0  0  0  0  0  0
   70.4180   40.4580   -4.0880 H   0  0  0  0  0  0  0  0  0  0  0  0
   74.1447   38.6798   -1.5475 H   0  0  0  0  0  0  0  0  0  0  0  0
   73.2747   36.9690    0.0287 H   0  0  0  0  0  0  0  0  0  0  0  0
   69.9904   37.2791    1.6521 H   0  0  0  0  0  0  0  0  0  0  0  0
  1  2  1  0
  2  3  2  0
  3  4  1  0
  4  5  1  0
  5  6  1  0
  6  7  1  0
  7  8  2  0
  8  9  1  0
  9 10  2  0
 10 11  1  0
 11 12  1  0
 11 13  2  0
 13 14  1  0
 14 15  2  0
 14 16  1  0
 16 17  1  0
  4 18  2  0
 18 19  1  0
 19 20  2  0
 20 21  1  0
 21 22  1  0
 21 23  1  0
 20  2  1  0
 16  5  2  0
 13  7  1  0
  1 24  1  0
  1 25  1  0
  1 26  1  0
  3 27  1  0
  8 28  1  0
  9 29  1  0
 10 30  1  0
 12 31  1  0
 17 32  1  0
 18 33  1  0
 19 34  1  0
 21 35  1  0
M  END
>  <meeko>  (2) 
{"is_sidechain": [false], "free_energy": -7.969, "intermolecular_energy": -9.42, "internal_energy": -0.402}

$$$$
cand_016_out
     RDKit          3D

 35 37  0  0  0  0  0  0  0  0999 V2000
   72.7730   37.6760   -0.2920 C   0  0  0  0  0  0  0  0  0  0  0  0
   71.5480   38.5200   -0.5210 C   0  0  0  0  0  0  0  0  0  0  0  0
   71.6220   39.5950   -1.4250 C   0  0  0  0  0  0  0  0  0  0  0  0
   70.5130   40.4120   -1.6880 C   0  0  0  0  0  0  0  0  0  0  0  0
   70.5820   41.5300   -2.6530 C   0  0  0  0  0  0  0  0  0  0  0  0
   71.7350   42.2930   -2.5150 O   0  0  0  0  0  0  0  0  0  0  0  0
   71.9260   43.3640   -3.3510 C   0  0  0  0  0  0  0  0  0  0  0  0
   73.0890   44.1130   -3.1660 C   0  0  0  0  0  0  0  0  0  0  0  0
   73.3450   45.2160   -3.9840 C   0  0  0  0  0  0  0  0  0  0  0  0
   72.4390   45.5690   -4.9860 C   0  0  0  0  0  0  0  0  0  0  0  0
   71.2780   44.8210   -5.1680 C   0  0  0  0  0  0  0  0  0  0  0  0
   70.4350   45.2220   -6.1670 O   0  0  0  0  0  0  0  0  0  0  0  0
   71.0230   43.7170   -4.3480 C   0  0  0  0  0  0  0  0  0  0  0  0
   69.8160   42.9050   -4.5060 C   0  0  0  0  0  0  0  0  0  0  0  0
   68.9740   43.1470   -5.3690 O   0  0  0  0  0  0  0  0  0  0  0  0
   69.6340   41.7620   -3.5810 C   0  0  0  0  0  0  0  0  0  0  0  0
   68.4980   40.9920   -3.7470 O   0  0  0  0  0  0  0  0  0  0  0  0
   69.3060   40.1230   -1.0430 C   0  0  0  0  0  0  0  0  0  0  0  0
   69.2130   39.0530   -0.1490 C   0  0  0  0  0  0  0  0  0  0  0  0
   70.3230   38.2360    0.1190 C   0  0  0  0  0  0  0  0  0  0  0  0
   70.1840   37.0990    1.1050 C   0  0  0  0  0  0  0  0  0  0  0  0
   70.5720   35.8920    0.5990 F   0  0  0  0  0  0  0  0  0  0  0  0
   70.9270   37.2730    2.2330 F   0  0  0  0  0  0  0  0  0  0  0  0
   72.9415   37.5599    0.7888 H   0  0  0  0  0  0  0  0  0  0  0  0
   72.6268   36.6860   -0.7487 H   0  0  0  0  0  0  0  0  0  0  0  0
   73.6460   38.1652   -0.7487 H   0  0  0  0  0  0  0  0  0  0  0  0
   72.5731   39.7999   -1.9383 H   0  0  0  0  0  0  0  0  0  0  0  0
   73.8032   43.8351   -2.3769 H   0  0  0  0  0  0  0  0  0  0  0  0
   74.2613   45.8070   -3.8386 H   0  0  0  0  0  0  0  0  0  0  0  0
   72.6418   46.4367   -5.6309 H   0  0  0  0  0  0  0  0  0  0  0  0
   70.5250   44.8640   -7.0290 H   0  0  0  0  0  0  0  0  0  0  0  0
   67.6530   41.3640   -3.5860 H   0  0  0  0  0  0  0  0  0  0  0  0
   68.4205   40.7446   -1.2416 H   0  0  0  0  0  0  0  0  0  0  0  0
   68.2557   38.8477    0.3524 H   0  0  0  0  0  0  0  0  0  0  0  0
   69.1078   37.1038    1.3324 H   0  0  0  0  0  0  0  0  0  0  0  0
  1  2  1  0
  2  3  2  0
  3  4  1  0
  4  5  1  0
  5  6  1  0
  6  7  1  0
  7  8  2  0
  8  9  1  0
  9 10  2  0
 10 11  1  0
 11 12  1  0
 11 13  2  0
 13 14  1  0
 14 15  2  0
 14 16  1  0
 16 17  1  0
  4 18  2  0
 18 19  1  0
 19 20  2  0
 20 21  1  0
 21 22  1  0
 21 23  1  0
 20  2  1  0
 16  5  2  0
 13  7  1  0
  1 24  1  0
  1 25  1  0
  1 26  1  0
  3 27  1  0
  8 28  1  0
  9 29  1  0
 10 30  1  0
 12 31  1  0
 17 32  1  0
 18 33  1  0
 19 34  1  0
 21 35  1  0
M  END
>  <meeko>  (3) 
{"is_sidechain": [false], "free_energy": -7.793, "intermolecular_energy": -9.648, "internal_energy": 0.032}

$$$$
cand_016_out
     RDKit          3D

 35 37  0  0  0  0  0  0  0  0999 V2000
   72.9620   39.3060   -0.2630 C   0  0  0  0  0  0  0  0  0  0  0  0
   71.4600   39.3040   -0.3620 C   0  0  0  0  0  0  0  0  0  0  0  0
   70.8240   40.3380   -1.0730 C   0  0  0  0  0  0  0  0  0  0  0  0
   69.4290   40.3870   -1.2090 C   0  0  0  0  0  0  0  0  0  0  0  0
   68.7590   41.4610   -1.9730 C   0  0  0  0  0  0  0  0  0  0  0  0
   67.8560   42.1880   -1.2060 O   0  0  0  0  0  0  0  0  0  0  0  0
   67.1650   43.2160   -1.7930 C   0  0  0  0  0  0  0  0  0  0  0  0
   66.2570   43.9080   -0.9910 C   0  0  0  0  0  0  0  0  0  0  0  0
   65.5210   44.9680   -1.5260 C   0  0  0  0  0  0  0  0  0  0  0  0
   65.6930   45.3340   -2.8620 C   0  0  0  0  0  0  0  0  0  0  0  0
   66.5990   44.6420   -3.6610 C   0  0  0  0  0  0  0  0  0  0  0  0
   66.7180   45.0540   -4.9590 O   0  0  0  0  0  0  0  0  0  0  0  0
   67.3350   43.5820   -3.1250 C   0  0  0  0  0  0  0  0  0  0  0  0
   68.2980   42.8280   -3.9300 C   0  0  0  0  0  0  0  0  0  0  0  0
   68.5110   43.0950   -5.1110 O   0  0  0  0  0  0  0  0  0  0  0  0
   69.0210   41.7160   -3.2690 C   0  0  0  0  0  0  0  0  0  0  0  0
   69.9370   41.0190   -4.0330 O   0  0  0  0  0  0  0  0  0  0  0  0
   68.6690   39.3610   -0.6370 C   0  0  0  0  0  0  0  0  0  0  0  0
   69.2850   38.3220    0.0640 C   0  0  0  0  0  0  0  0  0  0  0  0
   70.6820   38.2740    0.2060 C   0  0  0  0  0  0  0  0  0  0  0  0
   71.3080   37.1400    0.9850 C   0  0  0  0  0  0  0  0  0  0  0  0
   70.3940   36.3300    1.5940 F   0  0  0  0  0  0  0  0  0  0  0  0
   72.0660   36.3140    0.2130 F   0  0  0  0  0  0  0  0  0  0  0  0
   73.2597   39.3064    0.7960 H   0  0  0  0  0  0  0  0  0  0  0  0
   73.3632   38.4084   -0.7563 H   0  0  0  0  0  0  0  0  0  0  0  0
   73.3608   40.2047   -0.7563 H   0  0  0  0  0  0  0  0  0  0  0  0
   71.4359   41.1275   -1.5336 H   0  0  0  0  0  0  0  0  0  0  0  0
   66.1208   43.6192    0.0616 H   0  0  0  0  0  0  0  0  0  0  0  0
   64.8055   45.5146   -0.8941 H   0  0  0  0  0  0  0  0  0  0  0  0
   65.1132   46.1685   -3.2832 H   0  0  0  0  0  0  0  0  0  0  0  0
   66.7440   44.4230   -5.6520 H   0  0  0  0  0  0  0  0  0  0  0  0
   69.6410   40.3910   -4.6630 H   0  0  0  0  0  0  0  0  0  0  0  0
   67.5740   39.3728   -0.7406 H   0  0  0  0  0  0  0  0  0  0  0  0
   68.6673   37.5295    0.5116 H   0  0  0  0  0  0  0  0  0  0  0  0
   71.9242   37.6663    1.7289 H   0  0  0  0  0  0  0  0  0  0  0  0
  1  2  1  0
  2  3  2  0
  3  4  1  0
  4  5  1  0
  5  6  1  0
  6  7  1  0
  7  8  2  0
  8  9  1  0
  9 10  2  0
 10 11  1  0
 11 12  1  0
 11 13  2  0
 13 14  1  0
 14 15  2  0
 14 16  1  0
 16 17  1  0
  4 18  2  0
 18 19  1  0
 19 20  2  0
 20 21  1  0
 21 22  1  0
 21 23  1  0
 20  2  1  0
 16  5  2  0
 13  7  1  0
  1 24  1  0
  1 25  1  0
  1 26  1  0
  3 27  1  0
  8 28  1  0
  9 29  1  0
 10 30  1  0
 12 31  1  0
 17 32  1  0
 18 33  1  0
 19 34  1  0
 21 35  1  0
M  END
>  <meeko>  (4) 
{"is_sidechain": [false], "free_energy": -7.695, "intermolecular_energy": -9.208, "internal_energy": -0.293}

$$$$
cand_016_out
     RDKit          3D

 35 37  0  0  0  0  0  0  0  0999 V2000
   73.6980   45.7410   -3.2890 C   0  0  0  0  0  0  0  0  0  0  0  0
   73.3390   44.3810   -3.8240 C   0  0  0  0  0  0  0  0  0  0  0  0
   73.0040   43.3600   -2.9160 C   0  0  0  0  0  0  0  0  0  0  0  0
   72.6510   42.0750   -3.3520 C   0  0  0  0  0  0  0  0  0  0  0  0
   72.2780   41.0060   -2.4010 C   0  0  0  0  0  0  0  0  0  0  0  0
   70.9120   40.9590   -2.1490 O   0  0  0  0  0  0  0  0  0  0  0  0
   70.4300   40.0110   -1.2830 C   0  0  0  0  0  0  0  0  0  0  0  0
   69.0550   40.0100   -1.0470 C   0  0  0  0  0  0  0  0  0  0  0  0
   68.4980   39.0700   -0.1760 C   0  0  0  0  0  0  0  0  0  0  0  0
   69.3160   38.1330    0.4580 C   0  0  0  0  0  0  0  0  0  0  0  0
   70.6880   38.1360    0.2200 C   0  0  0  0  0  0  0  0  0  0  0  0
   71.4300   37.1900    0.8720 O   0  0  0  0  0  0  0  0  0  0  0  0
   71.2450   39.0770   -0.6510 C   0  0  0  0  0  0  0  0  0  0  0  0
   72.6810   39.1150   -0.9280 C   0  0  0  0  0  0  0  0  0  0  0  0
   73.4660   38.3190   -0.4150 O   0  0  0  0  0  0  0  0  0  0  0  0
   73.1720   40.1570   -1.8590 C   0  0  0  0  0  0  0  0  0  0  0  0
   74.5280   40.1770   -2.1250 O   0  0  0  0  0  0  0  0  0  0  0  0
   72.6150   41.8270   -4.7280 C   0  0  0  0  0  0  0  0  0  0  0  0
   72.9360   42.8320   -5.6440 C   0  0  0  0  0  0  0  0  0  0  0  0
   73.2940   44.1180   -5.2090 C   0  0  0  0  0  0  0  0  0  0  0  0
   73.6490   45.1730   -6.2320 C   0  0  0  0  0  0  0  0  0  0  0  0
   74.0940   44.6550   -7.4140 F   0  0  0  0  0  0  0  0  0  0  0  0
   72.5990   45.9750   -6.5610 F   0  0  0  0  0  0  0  0  0  0  0  0
   73.6914   45.7159   -2.1893 H   0  0  0  0  0  0  0  0  0  0  0  0
   74.7009   46.0214   -3.6433 H   0  0  0  0  0  0  0  0  0  0  0  0
   72.9641   46.4798   -3.6433 H   0  0  0  0  0  0  0  0  0  0  0  0
   73.0194   43.5751   -1.8373 H   0  0  0  0  0  0  0  0  0  0  0  0
   68.4101   40.7483   -1.5460 H   0  0  0  0  0  0  0  0  0  0  0  0
   67.4139   39.0683    0.0103 H   0  0  0  0  0  0  0  0  0  0  0  0
   68.8775   37.3937    1.1443 H   0  0  0  0  0  0  0  0  0  0  0  0
   72.1660   36.7960    0.4470 H   0  0  0  0  0  0  0  0  0  0  0  0
   74.8390   40.4930   -2.9510 H   0  0  0  0  0  0  0  0  0  0  0  0
   72.3307   40.8291   -5.0933 H   0  0  0  0  0  0  0  0  0  0  0  0
   72.9078   42.6125   -6.7215 H   0  0  0  0  0  0  0  0  0  0  0  0
   74.4435   45.7435   -5.7286 H   0  0  0  0  0  0  0  0  0  0  0  0
  1  2  1  0
  2  3  2  0
  3  4  1  0
  4  5  1  0
  5  6  1  0
  6  7  1  0
  7  8  2  0
  8  9  1  0
  9 10  2  0
 10 11  1  0
 11 12  1  0
 11 13  2  0
 13 14  1  0
 14 15  2  0
 14 16  1  0
 16 17  1  0
  4 18  2  0
 18 19  1  0
 19 20  2  0
 20 21  1  0
 21 22  1  0
 21 23  1  0
 20  2  1  0
 16  5  2  0
 13  7  1  0
  1 24  1  0
  1 25  1  0
  1 26  1  0
  3 27  1  0
  8 28  1  0
  9 29  1  0
 10 30  1  0
 12 31  1  0
 17 32  1  0
 18 33  1  0
 19 34  1  0
 21 35  1  0
M  END
>  <meeko>  (5) 
{"is_sidechain": [false], "free_energy": -7.576, "intermolecular_energy": -8.829, "internal_energy": -0.531}

$$$$
cand_016_out
     RDKit          3D

 35 37  0  0  0  0  0  0  0  0999 V2000
   74.0800   45.7150   -3.5350 C   0  0  0  0  0  0  0  0  0  0  0  0
   73.9980   44.2670   -3.1320 C   0  0  0  0  0  0  0  0  0  0  0  0
   72.7310   43.6800   -2.9590 C   0  0  0  0  0  0  0  0  0  0  0  0
   72.5880   42.3340   -2.5940 C   0  0  0  0  0  0  0  0  0  0  0  0
   71.2580   41.7100   -2.4310 C   0  0  0  0  0  0  0  0  0  0  0  0
   71.1630   40.9300   -1.2840 O   0  0  0  0  0  0  0  0  0  0  0  0
   69.9810   40.2930   -1.0110 C   0  0  0  0  0  0  0  0  0  0  0  0
   69.9350   39.5070    0.1410 C   0  0  0  0  0  0  0  0  0  0  0  0
   68.7590   38.8320    0.4780 C   0  0  0  0  0  0  0  0  0  0  0  0
   67.6310   38.9410   -0.3370 C   0  0  0  0  0  0  0  0  0  0  0  0
   67.6790   39.7250   -1.4860 C   0  0  0  0  0  0  0  0  0  0  0  0
   66.5390   39.7890   -2.2380 O   0  0  0  0  0  0  0  0  0  0  0  0
   68.8560   40.4010   -1.8230 C   0  0  0  0  0  0  0  0  0  0  0  0
   68.9480   41.2350   -3.0230 C   0  0  0  0  0  0  0  0  0  0  0  0
   67.9970   41.3870   -3.7860 O   0  0  0  0  0  0  0  0  0  0  0  0
   70.2430   41.9010   -3.2950 C   0  0  0  0  0  0  0  0  0  0  0  0
   70.3170   42.6970   -4.4220 O   0  0  0  0  0  0  0  0  0  0  0  0
   73.7440   41.5650   -2.4250 C   0  0  0  0  0  0  0  0  0  0  0  0
   75.0090   42.1290   -2.6020 C   0  0  0  0  0  0  0  0  0  0  0  0
   75.1550   43.4780   -2.9630 C   0  0  0  0  0  0  0  0  0  0  0  0
   76.5430   44.0540   -3.1310 C   0  0  0  0  0  0  0  0  0  0  0  0
   76.9570   44.7920   -2.0600 F   0  0  0  0  0  0  0  0  0  0  0  0
   77.5000   43.1010   -3.3050 F   0  0  0  0  0  0  0  0  0  0  0  0
   74.1157   46.3449   -2.6339 H   0  0  0  0  0  0  0  0  0  0  0  0
   74.9888   45.8783   -4.1328 H   0  0  0  0  0  0  0  0  0  0  0  0
   73.1954   45.9799   -4.1328 H   0  0  0  0  0  0  0  0  0  0  0  0
   71.8304   44.2924   -3.1140 H   0  0  0  0  0  0  0  0  0  0  0  0
   70.8237   39.4189    0.7832 H   0  0  0  0  0  0  0  0  0  0  0  0
   68.7220   38.2137    1.3870 H   0  0  0  0  0  0  0  0  0  0  0  0
   66.7059   38.4083   -0.0717 H   0  0  0  0  0  0  0  0  0  0  0  0
   66.3790   39.1500   -2.9050 H   0  0  0  0  0  0  0  0  0  0  0  0
   71.1320   42.7960   -4.8740 H   0  0  0  0  0  0  0  0  0  0  0  0
   73.6556   40.5037   -2.1495 H   0  0  0  0  0  0  0  0  0  0  0  0
   75.9046   41.5072   -2.4564 H   0  0  0  0  0  0  0  0  0  0  0  0
   76.4401   44.6840   -4.0268 H   0  0  0  0  0  0  0  0  0  0  0  0
  1  2  1  0
  2  3  2  0
  3  4  1  0
  4  5  1  0
  5  6  1  0
  6  7  1  0
  7  8  2  0
  8  9  1  0
  9 10  2  0
 10 11  1  0
 11 12  1  0
 11 13  2  0
 13 14  1  0
 14 15  2  0
 14 16  1  0
 16 17  1  0
  4 18  2  0
 18 19  1  0
 19 20  2  0
 20 21  1  0
 21 22  1  0
 21 23  1  0
 20  2  1  0
 16  5  2  0
 13  7  1  0
  1 24  1  0
  1 25  1  0
  1 26  1  0
  3 27  1  0
  8 28  1  0
  9 29  1  0
 10 30  1  0
 12 31  1  0
 17 32  1  0
 18 33  1  0
 19 34  1  0
 21 35  1  0
M  END
>  <meeko>  (6) 
{"is_sidechain": [false], "free_energy": -7.559, "intermolecular_energy": -9.143, "internal_energy": -0.198}

$$$$
cand_016_out
     RDKit          3D

 35 37  0  0  0  0  0  0  0  0999 V2000
   70.0060   41.9590   -0.5910 C   0  0  0  0  0  0  0  0  0  0  0  0
   70.9970   41.0520   -1.2690 C   0  0  0  0  0  0  0  0  0  0  0  0
   71.9610   41.6160   -2.1240 C   0  0  0  0  0  0  0  0  0  0  0  0
   72.9170   40.8250   -2.7780 C   0  0  0  0  0  0  0  0  0  0  0  0
   73.9440   41.4170   -3.6610 C   0  0  0  0  0  0  0  0  0  0  0  0
   73.4360   41.8110   -4.8940 O   0  0  0  0  0  0  0  0  0  0  0  0
   74.2840   42.3770   -5.8100 C   0  0  0  0  0  0  0  0  0  0  0  0
   73.7360   42.7430   -7.0400 C   0  0  0  0  0  0  0  0  0  0  0  0
   74.5450   43.3260   -8.0180 C   0  0  0  0  0  0  0  0  0  0  0  0
   75.9000   43.5440   -7.7660 C   0  0  0  0  0  0  0  0  0  0  0  0
   76.4460   43.1790   -6.5380 C   0  0  0  0  0  0  0  0  0  0  0  0
   77.7790   43.4210   -6.3580 O   0  0  0  0  0  0  0  0  0  0  0  0
   75.6360   42.5940   -5.5600 C   0  0  0  0  0  0  0  0  0  0  0  0
   76.1690   42.1950   -4.2560 C   0  0  0  0  0  0  0  0  0  0  0  0
   77.3500   42.3610   -3.9560 O   0  0  0  0  0  0  0  0  0  0  0  0
   75.2290   41.5770   -3.2930 C   0  0  0  0  0  0  0  0  0  0  0  0
   75.7390   41.2160   -2.0600 O   0  0  0  0  0  0  0  0  0  0  0  0
   72.9100   39.4460   -2.5450 C   0  0  0  0  0  0  0  0  0  0  0  0
   71.9660   38.8700   -1.6920 C   0  0  0  0  0  0  0  0  0  0  0  0
   71.0050   39.6600   -1.0390 C   0  0  0  0  0  0  0  0  0  0  0  0
   69.9910   38.9960   -0.1360 C   0  0  0  0  0  0  0  0  0  0  0  0
   68.7230   39.0080   -0.6420 F   0  0  0  0  0  0  0  0  0  0  0  0
   70.2700   37.6860    0.1100 F   0  0  0  0  0  0  0  0  0  0  0  0
   70.1092   41.8645    0.5001 H   0  0  0  0  0  0  0  0  0  0  0  0
   70.1986   43.0003   -0.8887 H   0  0  0  0  0  0  0  0  0  0  0  0
   68.9858   41.6752   -0.8887 H   0  0  0  0  0  0  0  0  0  0  0  0
   71.9653   42.7043   -2.2837 H   0  0  0  0  0  0  0  0  0  0  0  0
   72.6677   42.5725   -7.2392 H   0  0  0  0  0  0  0  0  0  0  0  0
   74.1134   43.6136   -8.9881 H   0  0  0  0  0  0  0  0  0  0  0  0
   76.5363   44.0037   -8.5366 H   0  0  0  0  0  0  0  0  0  0  0  0
   78.4160   42.9200   -6.8300 H   0  0  0  0  0  0  0  0  0  0  0  0
   76.3500   41.7770   -1.6230 H   0  0  0  0  0  0  0  0  0  0  0  0
   73.6569   38.8075   -3.0394 H   0  0  0  0  0  0  0  0  0  0  0  0
   71.9750   37.7822   -1.5291 H   0  0  0  0  0  0  0  0  0  0  0  0
   70.0529   39.5962    0.7837 H   0  0  0  0  0  0  0  0  0  0  0  0
  1  2  1  0
  2  3  2  0
  3  4  1  0
  4  5  1  0
  5  6  1  0
  6  7  1  0
  7  8  2  0
  8  9  1  0
  9 10  2  0
 10 11  1  0
 11 12  1  0
 11 13  2  0
 13 14  1  0
 14 15  2  0
 14 16  1  0
 16 17  1  0
  4 18  2  0
 18 19  1  0
 19 20  2  0
 20 21  1  0
 21 22  1  0
 21 23  1  0
 20  2  1  0
 16  5  2  0
 13  7  1  0
  1 24  1  0
  1 25  1  0
  1 26  1  0
  3 27  1  0
  8 28  1  0
  9 29  1  0
 10 30  1  0
 12 31  1  0
 17 32  1  0
 18 33  1  0
 19 34  1  0
 21 35  1  0
M  END
>  <meeko>  (7) 
{"is_sidechain": [false], "free_energy": -7.516, "intermolecular_energy": -8.846, "internal_energy": -0.443}

$$$$
cand_016_out
     RDKit          3D

 35 37  0  0  0  0  0  0  0  0999 V2000
   76.1010   43.6730   -2.4920 C   0  0  0  0  0  0  0  0  0  0  0  0
   74.9610   42.9340   -3.1400 C   0  0  0  0  0  0  0  0  0  0  0  0
   74.1770   42.0700   -2.3540 C   0  0  0  0  0  0  0  0  0  0  0  0
   73.0960   41.3610   -2.8970 C   0  0  0  0  0  0  0  0  0  0  0  0
   72.2570   40.4690   -2.0680 C   0  0  0  0  0  0  0  0  0  0  0  0
   70.9100   40.8090   -2.1000 O   0  0  0  0  0  0  0  0  0  0  0  0
   70.0200   40.0610   -1.3740 C   0  0  0  0  0  0  0  0  0  0  0  0
   68.6800   40.4480   -1.4210 C   0  0  0  0  0  0  0  0  0  0  0  0
   67.7200   39.7280   -0.7050 C   0  0  0  0  0  0  0  0  0  0  0  0
   68.1010   38.6220    0.0570 C   0  0  0  0  0  0  0  0  0  0  0  0
   69.4380   38.2380    0.1030 C   0  0  0  0  0  0  0  0  0  0  0  0
   69.7410   37.1450    0.8680 O   0  0  0  0  0  0  0  0  0  0  0  0
   70.3980   38.9590   -0.6130 C   0  0  0  0  0  0  0  0  0  0  0  0
   71.8140   38.5890   -0.5920 C   0  0  0  0  0  0  0  0  0  0  0  0
   72.2260   37.6240    0.0490 O   0  0  0  0  0  0  0  0  0  0  0  0
   72.7520   39.4230   -1.3780 C   0  0  0  0  0  0  0  0  0  0  0  0
   74.0840   39.0580   -1.3630 O   0  0  0  0  0  0  0  0  0  0  0  0
   72.7910   41.5460   -4.2490 C   0  0  0  0  0  0  0  0  0  0  0  0
   73.5540   42.4070   -5.0420 C   0  0  0  0  0  0  0  0  0  0  0  0
   74.6400   43.1150   -4.5010 C   0  0  0  0  0  0  0  0  0  0  0  0
   75.4490   44.0250   -5.3970 C   0  0  0  0  0  0  0  0  0  0  0  0
   76.6360   43.4800   -5.7940 F   0  0  0  0  0  0  0  0  0  0  0  0
   74.8010   44.3590   -6.5470 F   0  0  0  0  0  0  0  0  0  0  0  0
   76.0041   43.6102   -1.3981 H   0  0  0  0  0  0  0  0  0  0  0  0
   77.0546   43.2208   -2.8022 H   0  0  0  0  0  0  0  0  0  0  0  0
   76.0775   44.7281   -2.8022 H   0  0  0  0  0  0  0  0  0  0  0  0
   74.4178   41.9477   -1.2877 H   0  0  0  0  0  0  0  0  0  0  0  0
   68.3796   41.3194   -2.0214 H   0  0  0  0  0  0  0  0  0  0  0  0
   66.6637   40.0328   -0.7418 H   0  0  0  0  0  0  0  0  0  0  0  0
   67.3454   38.0547    0.6203 H   0  0  0  0  0  0  0  0  0  0  0  0
   70.5170   36.6490    0.6920 H   0  0  0  0  0  0  0  0  0  0  0  0
   74.6760   39.4690   -0.7630 H   0  0  0  0  0  0  0  0  0  0  0  0
   71.9408   41.0077   -4.6933 H   0  0  0  0  0  0  0  0  0  0  0  0
   73.3007   42.5322   -6.1051 H   0  0  0  0  0  0  0  0  0  0  0  0
   75.6144   44.9084   -4.7627 H   0  0  0  0  0  0  0  0  0  0  0  0
  1  2  1  0
  2  3  2  0
  3  4  1  0
  4  5  1  0
  5  6  1  0
  6  7  1  0
  7  8  2  0
  8  9  1  0
  9 10  2  0
 10 11  1  0
 11 12  1  0
 11 13  2  0
 13 14  1  0
 14 15  2  0
 14 16  1  0
 16 17  1  0
  4 18  2  0
 18 19  1  0
 19 20  2  0
 20 21  1  0
 21 22  1  0
 21 23  1  0
 20  2  1  0
 16  5  2  0
 13  7  1  0
  1 24  1  0
  1 25  1  0
  1 26  1  0
  3 27  1  0
  8 28  1  0
  9 29  1  0
 10 30  1  0
 12 31  1  0
 17 32  1  0
 18 33  1  0
 19 34  1  0
 21 35  1  0
M  END
>  <meeko>  (8) 
{"is_sidechain": [false], "free_energy": -7.483, "intermolecular_energy": -8.894, "internal_energy": -0.358}

$$$$
cand_016_out
     RDKit          3D

 35 37  0  0  0  0  0  0  0  0999 V2000
   72.6200   37.1900   -0.2820 C   0  0  0  0  0  0  0  0  0  0  0  0
   72.1600   38.5750   -0.6490 C   0  0  0  0  0  0  0  0  0  0  0  0
   72.9620   39.3540   -1.5030 C   0  0  0  0  0  0  0  0  0  0  0  0
   72.5840   40.6480   -1.8890 C   0  0  0  0  0  0  0  0  0  0  0  0
   73.4150   41.4610   -2.8020 C   0  0  0  0  0  0  0  0  0  0  0  0
   74.4360   42.1380   -2.1450 O   0  0  0  0  0  0  0  0  0  0  0  0
   75.2830   42.9300   -2.8770 C   0  0  0  0  0  0  0  0  0  0  0  0
   76.2840   43.6040   -2.1750 C   0  0  0  0  0  0  0  0  0  0  0  0
   77.1810   44.4270   -2.8600 C   0  0  0  0  0  0  0  0  0  0  0  0
   77.0780   44.5760   -4.2440 C   0  0  0  0  0  0  0  0  0  0  0  0
   76.0790   43.9030   -4.9420 C   0  0  0  0  0  0  0  0  0  0  0  0
   76.0350   44.0930   -6.2950 O   0  0  0  0  0  0  0  0  0  0  0  0
   75.1800   43.0800   -4.2560 C   0  0  0  0  0  0  0  0  0  0  0  0
   74.1160   42.3550   -4.9510 C   0  0  0  0  0  0  0  0  0  0  0  0
   73.9640   42.4280   -6.1690 O   0  0  0  0  0  0  0  0  0  0  0  0
   73.2110   41.5160   -4.1320 C   0  0  0  0  0  0  0  0  0  0  0  0
   72.2170   40.8250   -4.7990 O   0  0  0  0  0  0  0  0  0  0  0  0
   71.3650   41.1510   -1.4220 C   0  0  0  0  0  0  0  0  0  0  0  0
   70.5520   40.3870   -0.5810 C   0  0  0  0  0  0  0  0  0  0  0  0
   70.9310   39.0930   -0.1900 C   0  0  0  0  0  0  0  0  0  0  0  0
   70.0300   38.3050    0.7330 C   0  0  0  0  0  0  0  0  0  0  0  0
   70.2140   38.5990    2.0530 F   0  0  0  0  0  0  0  0  0  0  0  0
   68.7050   38.5170    0.4970 F   0  0  0  0  0  0  0  0  0  0  0  0
   72.6524   37.0926    0.8132 H   0  0  0  0  0  0  0  0  0  0  0  0
   71.9196   36.4494   -0.6955 H   0  0  0  0  0  0  0  0  0  0  0  0
   73.6243   37.0156   -0.6955 H   0  0  0  0  0  0  0  0  0  0  0  0
   73.9089   38.9377   -1.8772 H   0  0  0  0  0  0  0  0  0  0  0  0
   76.3662   43.4871   -1.0843 H   0  0  0  0  0  0  0  0  0  0  0  0
   77.9699   44.9586   -2.3078 H   0  0  0  0  0  0  0  0  0  0  0  0
   77.7851   45.2242   -4.7824 H   0  0  0  0  0  0  0  0  0  0  0  0
   75.7140   43.4120   -6.8550 H   0  0  0  0  0  0  0  0  0  0  0  0
   71.5290   40.4100   -4.3150 H   0  0  0  0  0  0  0  0  0  0  0  0
   71.0429   42.1596   -1.7204 H   0  0  0  0  0  0  0  0  0  0  0  0
   69.6010   40.8055   -0.2199 H   0  0  0  0  0  0  0  0  0  0  0  0
   70.3120   37.2635    0.5191 H   0  0  0  0  0  0  0  0  0  0  0  0
  1  2  1  0
  2  3  2  0
  3  4  1  0
  4  5  1  0
  5  6  1  0
  6  7  1  0
  7  8  2  0
  8  9  1  0
  9 10  2  0
 10 11  1  0
 11 12  1  0
 11 13  2  0
 13 14  1  0
 14 15  2  0
 14 16  1  0
 16 17  1  0
  4 18  2  0
 18 19  1  0
 19 20  2  0
 20 21  1  0
 21 22  1  0
 21 23  1  0
 20  2  1  0
 16  5  2  0
 13  7  1  0
  1 24  1  0
  1 25  1  0
  1 26  1  0
  3 27  1  0
  8 28  1  0
  9 29  1  0
 10 30  1  0
 12 31  1  0
 17 32  1  0
 18 33  1  0
 19 34  1  0
 21 35  1  0
M  END
>  <meeko>  (9) 
{"is_sidechain": [false], "free_energy": -7.452, "intermolecular_energy": -8.7, "internal_energy": -0.514}

$$$$
