cand_054_out
     RDKit          3D

 46 48  0  0  0  0  0  0  0  0999 V2000
   73.3770   45.7510   -4.6120 C   0  0  0  0  0  0  0  0  0  0  0  0
   72.8540   44.5420   -5.3760 C   0  0  0  0  0  0  0  0  0  0  0  0
   73.9060   43.5220   -5.5610 N   0  0  0  0  0  0  0  0  0  0  0  0
   73.6790   42.5970   -6.6900 C   0  0  0  0  0  0  0  0  0  0  0  0
   74.4570   43.0620   -7.9130 C   0  0  0  0  0  0  0  0  0  0  0  0
   74.1940   42.7870   -4.3800 C   0  0  0  0  0  0  0  0  0  0  0  0
   73.2040   42.0490   -3.7020 C   0  0  0  0  0  0  0  0  0  0  0  0
   73.4990   41.3090   -2.5470 C   0  0  0  0  0  0  0  0  0  0  0  0
   72.4550   40.5560   -1.8200 C   0  0  0  0  0  0  0  0  0  0  0  0
   72.9430   39.4000   -1.2210 O   0  0  0  0  0  0  0  0  0  0  0  0
   72.0790   38.6050   -0.5120 C   0  0  0  0  0  0  0  0  0  0  0  0
   72.6150   37.4630    0.0850 C   0  0  0  0  0  0  0  0  0  0  0  0
   71.7890   36.6100    0.8200 C   0  0  0  0  0  0  0  0  0  0  0  0
   70.4280   36.8970    0.9550 C   0  0  0  0  0  0  0  0  0  0  0  0
   69.8980   38.0360    0.3570 C   0  0  0  0  0  0  0  0  0  0  0  0
   68.5580   38.2570    0.5300 O   0  0  0  0  0  0  0  0  0  0  0  0
   70.7250   38.8910   -0.3770 C   0  0  0  0  0  0  0  0  0  0  0  0
   70.2070   40.0990   -1.0200 C   0  0  0  0  0  0  0  0  0  0  0  0
   69.0200   40.4160   -0.9520 O   0  0  0  0  0  0  0  0  0  0  0  0
   71.1670   40.9420   -1.7680 C   0  0  0  0  0  0  0  0  0  0  0  0
   70.6640   42.0740   -2.3830 O   0  0  0  0  0  0  0  0  0  0  0  0
   74.8120   41.3240   -2.0610 C   0  0  0  0  0  0  0  0  0  0  0  0
   75.8090   42.0410   -2.7260 C   0  0  0  0  0  0  0  0  0  0  0  0
   75.5150   42.7680   -3.8860 C   0  0  0  0  0  0  0  0  0  0  0  0
   76.6100   43.5260   -4.5860 C   0  0  0  0  0  0  0  0  0  0  0  0
   73.2963   45.5646   -3.5309 H   0  0  0  0  0  0  0  0  0  0  0  0
   74.4305   45.9243   -4.8766 H   0  0  0  0  0  0  0  0  0  0  0  0
   72.7819   46.6375   -4.8766 H   0  0  0  0  0  0  0  0  0  0  0  0
   72.0199   44.0972   -4.8135 H   0  0  0  0  0  0  0  0  0  0  0  0
   72.5213   44.8787   -6.3690 H   0  0  0  0  0  0  0  0  0  0  0  0
   74.0150   41.5885   -6.4071 H   0  0  0  0  0  0  0  0  0  0  0  0
   72.6059   42.5805   -6.9313 H   0  0  0  0  0  0  0  0  0  0  0  0
   75.3596   43.6015   -7.5901 H   0  0  0  0  0  0  0  0  0  0  0  0
   74.7476   42.1893   -8.5163 H   0  0  0  0  0  0  0  0  0  0  0  0
   73.8260   43.7312   -8.5163 H   0  0  0  0  0  0  0  0  0  0  0  0
   72.1739   42.0530   -4.0877 H   0  0  0  0  0  0  0  0  0  0  0  0
   73.6857   37.2353   -0.0232 H   0  0  0  0  0  0  0  0  0  0  0  0
   72.2103   35.7109    1.2934 H   0  0  0  0  0  0  0  0  0  0  0  0
   69.7773   36.2240    1.5327 H   0  0  0  0  0  0  0  0  0  0  0  0
   68.0050   38.3910   -0.2150 H   0  0  0  0  0  0  0  0  0  0  0  0
   69.8280   42.4120   -2.1300 H   0  0  0  0  0  0  0  0  0  0  0  0
   75.0607   40.7656   -1.1465 H   0  0  0  0  0  0  0  0  0  0  0  0
   76.8368   42.0345   -2.3341 H   0  0  0  0  0  0  0  0  0  0  0  0
   77.2736   43.9854   -3.8386 H   0  0  0  0  0  0  0  0  0  0  0  0
   77.1897   42.8349   -5.2156 H   0  0  0  0  0  0  0  0  0  0  0  0
   76.1673   44.3119   -5.2156 H   0  0  0  0  0  0  0  0  0  0  0  0
  1  2  1  0
  2  3  1  0
  3  4  1  0
  4  5  1  0
  3  6  1  0
  6  7  2  0
  7  8  1  0
  8  9  1  0
  9 10  1  0
 10 11  1  0
 11 12  2  0
 12 13  1  0
 13 14  2  0
 14 15  1  0
 15 16  1  0
 15 17  2  0
 17 18  1  0
 18 19  2  0
 18 20  1  0
 20 21  1  0
  8 22  2  0
 22 23  1  0
 23 24  2  0
 24 25  1  0
 24  6  1  0
 20  9  2  0
 17 11  1  0
  1 26  1  0
  1 27  1  0
  1 28  1  0
  2 29  1  0
  2 30  1  0
  4 31  1  0
  4 32  1  0
  5 33  1  0
  5 34  1  0
  5 35  1  0
  7 36  1  0
 12 37  1  0
 13 38  1  0
 14 39  1  0
 16 40  1  0
 21 41  1  0
 22 42  1  0
 23 43  1  0
 25 44  1  0
 25 45  1  0
 25 46  1  0
M  END
>  <meeko>  (1) 
{"is_sidechain": [false], "free_energy": -7.369, "intermolecular_energy": -9.523, "internal_energy": -0.523}

$$$$
cand_054_out
     RDKit          3D

 46 48  0  0  0  0  0  0  0  0999 V2000
   74.6270   43.5360   -8.2520 C   0  0  0  0  0  0  0  0  0  0  0  0
   74.8810   42.6570   -7.0350 C   0  0  0  0  0  0  0  0  0  0  0  0
   75.3080   43.4570   -5.8690 N   0  0  0  0  0  0  0  0  0  0  0  0
   76.6090   43.0610   -5.2920 C   0  0  0  0  0  0  0  0  0  0  0  0
   77.1820   41.8750   -6.0560 C   0  0  0  0  0  0  0  0  0  0  0  0
   74.3250   43.5360   -4.8480 C   0  0  0  0  0  0  0  0  0  0  0  0
   73.9720   42.4200   -4.0650 C   0  0  0  0  0  0  0  0  0  0  0  0
   73.0150   42.5100   -3.0440 C   0  0  0  0  0  0  0  0  0  0  0  0
   72.6260   41.3320   -2.2390 C   0  0  0  0  0  0  0  0  0  0  0  0
   71.2640   41.2940   -1.9620 O   0  0  0  0  0  0  0  0  0  0  0  0
   70.7650   40.2530   -1.2220 C   0  0  0  0  0  0  0  0  0  0  0  0
   69.3920   40.2480   -0.9810 C   0  0  0  0  0  0  0  0  0  0  0  0
   68.8200   39.2150   -0.2330 C   0  0  0  0  0  0  0  0  0  0  0  0
   69.6230   38.1910    0.2750 C   0  0  0  0  0  0  0  0  0  0  0  0
   70.9940   38.2000    0.0330 C   0  0  0  0  0  0  0  0  0  0  0  0
   71.7210   37.1670    0.5590 O   0  0  0  0  0  0  0  0  0  0  0  0
   71.5650   39.2320   -0.7170 C   0  0  0  0  0  0  0  0  0  0  0  0
   73.0010   39.2790   -0.9950 C   0  0  0  0  0  0  0  0  0  0  0  0
   73.7740   38.4180   -0.5780 O   0  0  0  0  0  0  0  0  0  0  0  0
   73.5050   40.4100   -1.8060 C   0  0  0  0  0  0  0  0  0  0  0  0
   74.8660   40.4510   -2.0510 O   0  0  0  0  0  0  0  0  0  0  0  0
   72.3930   43.7440   -2.8170 C   0  0  0  0  0  0  0  0  0  0  0  0
   72.7380   44.8640   -3.5760 C   0  0  0  0  0  0  0  0  0  0  0  0
   73.7040   44.7750   -4.5860 C   0  0  0  0  0  0  0  0  0  0  0  0
   74.0610   46.0000   -5.3840 C   0  0  0  0  0  0  0  0  0  0  0  0
   74.3357   44.5440   -7.9219 H   0  0  0  0  0  0  0  0  0  0  0  0
   75.5437   43.5988   -8.8567 H   0  0  0  0  0  0  0  0  0  0  0  0
   73.8180   43.1002   -8.8567 H   0  0  0  0  0  0  0  0  0  0  0  0
   73.9542   42.1216   -6.7811 H   0  0  0  0  0  0  0  0  0  0  0  0
   75.6866   41.9499   -7.2821 H   0  0  0  0  0  0  0  0  0  0  0  0
   77.3084   43.9076   -5.3568 H   0  0  0  0  0  0  0  0  0  0  0  0
   76.4636   42.7748   -4.2399 H   0  0  0  0  0  0  0  0  0  0  0  0
   77.5463   41.1209   -5.3429 H   0  0  0  0  0  0  0  0  0  0  0  0
   76.3981   41.4330   -6.6885 H   0  0  0  0  0  0  0  0  0  0  0  0
   78.0155   42.2144   -6.6885 H   0  0  0  0  0  0  0  0  0  0  0  0
   74.4593   41.4532   -4.2592 H   0  0  0  0  0  0  0  0  0  0  0  0
   68.7598   41.0556   -1.3788 H   0  0  0  0  0  0  0  0  0  0  0  0
   67.7364   39.2084   -0.0442 H   0  0  0  0  0  0  0  0  0  0  0  0
   69.1729   37.3791    0.8651 H   0  0  0  0  0  0  0  0  0  0  0  0
   72.6510   37.1420    0.4440 H   0  0  0  0  0  0  0  0  0  0  0  0
   75.2000   40.9730   -2.7530 H   0  0  0  0  0  0  0  0  0  0  0  0
   71.6257   43.8317   -2.0337 H   0  0  0  0  0  0  0  0  0  0  0  0
   72.2453   45.8274   -3.3783 H   0  0  0  0  0  0  0  0  0  0  0  0
   74.3018   46.8264   -4.6991 H   0  0  0  0  0  0  0  0  0  0  0  0
   74.9333   45.7832   -6.0181 H   0  0  0  0  0  0  0  0  0  0  0  0
   73.2088   46.2858   -6.0181 H   0  0  0  0  0  0  0  0  0  0  0  0
  1  2  1  0
  2  3  1  0
  3  4  1  0
  4  5  1  0
  3  6  1  0
  6  7  2  0
  7  8  1  0
  8  9  1  0
  9 10  1  0
 10 11  1  0
 11 12  2  0
 12 13  1  0
 13 14  2  0
 14 15  1  0
 15 16  1  0
 15 17  2  0
 17 18  1  0
 18 19  2  0
 18 20  1  0
 20 21  1  0
  8 22  2  0
 22 23  1  0
 23 24  2  0
 24 25  1  0
 24  6  1  0
 20  9  2  0
 17 11  1  0
  1 26  1  0
  1 27  1  0
  1 28  1  0
  2 29  1  0
  2 30  1  0
  4 31  1  0
  4 32  1  0
  5 33  1  0
  5 34  1  0
  5 35  1  0
  7 36  1  0
 12 37  1  0
 13 38  1  0
 14 39  1  0
 16 40  1  0
 21 41  1  0
 22 42  1  0
 23 43  1  0
 25 44  1  0
 25 45  1  0
 25 46  1  0
M  END
>  <meeko>  (2) 
{"is_sidechain": [false], "free_energy": -7.344, "intermolecular_energy": -9.458, "internal_energy": -0.555}

$$$$
cand_054_out
     RDKit          3D

 46 48  0  0  0  0  0  0  0  0999 V2000
   72.6380   45.6610   -4.5470 C   0  0  0  0  0  0  0  0  0  0  0  0
   72.3460   44.4260   -5.3890 C   0  0  0  0  0  0  0  0  0  0  0  0
   73.5500   43.5860   -5.5520 N   0  0  0  0  0  0  0  0  0  0  0  0
   73.4860   42.6270   -6.6730 C   0  0  0  0  0  0  0  0  0  0  0  0
   74.4890   43.0140   -7.7520 C   0  0  0  0  0  0  0  0  0  0  0  0
   73.9380   42.9180   -4.3600 C   0  0  0  0  0  0  0  0  0  0  0  0
   73.0700   42.0400   -3.6820 C   0  0  0  0  0  0  0  0  0  0  0  0
   73.4660   41.3680   -2.5160 C   0  0  0  0  0  0  0  0  0  0  0  0
   72.5460   40.4670   -1.7900 C   0  0  0  0  0  0  0  0  0  0  0  0
   71.2190   40.8780   -1.8620 O   0  0  0  0  0  0  0  0  0  0  0  0
   70.2580   40.1320   -1.2310 C   0  0  0  0  0  0  0  0  0  0  0  0
   68.9390   40.5740   -1.3420 C   0  0  0  0  0  0  0  0  0  0  0  0
   67.9110   39.8590   -0.7220 C   0  0  0  0  0  0  0  0  0  0  0  0
   68.2030   38.7060    0.0110 C   0  0  0  0  0  0  0  0  0  0  0  0
   69.5200   38.2690    0.1200 C   0  0  0  0  0  0  0  0  0  0  0  0
   69.7350   37.1330    0.8510 O   0  0  0  0  0  0  0  0  0  0  0  0
   70.5480   38.9830   -0.5020 C   0  0  0  0  0  0  0  0  0  0  0  0
   71.9450   38.5570   -0.4130 C   0  0  0  0  0  0  0  0  0  0  0  0
   72.2830   37.5570    0.2190 O   0  0  0  0  0  0  0  0  0  0  0  0
   72.9580   39.3790   -1.1140 C   0  0  0  0  0  0  0  0  0  0  0  0
   74.2770   38.9740   -1.0110 O   0  0  0  0  0  0  0  0  0  0  0  0
   74.7550   41.5930   -2.0200 C   0  0  0  0  0  0  0  0  0  0  0  0
   75.6340   42.4520   -2.6850 C   0  0  0  0  0  0  0  0  0  0  0  0
   75.2400   43.1120   -3.8560 C   0  0  0  0  0  0  0  0  0  0  0  0
   76.2100   44.0250   -4.5560 C   0  0  0  0  0  0  0  0  0  0  0  0
   72.5764   45.4003   -3.4801 H   0  0  0  0  0  0  0  0  0  0  0  0
   73.6483   46.0307   -4.7764 H   0  0  0  0  0  0  0  0  0  0  0  0
   71.9002   46.4440   -4.7764 H   0  0  0  0  0  0  0  0  0  0  0  0
   71.5611   43.8341   -4.8954 H   0  0  0  0  0  0  0  0  0  0  0  0
   72.0180   44.7568   -6.3855 H   0  0  0  0  0  0  0  0  0  0  0  0
   73.7214   41.6184   -6.3026 H   0  0  0  0  0  0  0  0  0  0  0  0
   72.4730   42.6418   -7.1016 H   0  0  0  0  0  0  0  0  0  0  0  0
   75.4159   43.3716   -7.2797 H   0  0  0  0  0  0  0  0  0  0  0  0
   74.7111   42.1370   -8.3777 H   0  0  0  0  0  0  0  0  0  0  0  0
   74.0644   43.8129   -8.3777 H   0  0  0  0  0  0  0  0  0  0  0  0
   72.0562   41.8772   -4.0767 H   0  0  0  0  0  0  0  0  0  0  0  0
   68.7091   41.4835   -1.9164 H   0  0  0  0  0  0  0  0  0  0  0  0
   66.8704   40.2044   -0.8111 H   0  0  0  0  0  0  0  0  0  0  0  0
   67.3937   38.1447    0.5010 H   0  0  0  0  0  0  0  0  0  0  0  0
   69.7700   37.1770    1.7880 H   0  0  0  0  0  0  0  0  0  0  0  0
   74.6530   38.4310   -1.6750 H   0  0  0  0  0  0  0  0  0  0  0  0
   75.0795   41.0888   -1.0978 H   0  0  0  0  0  0  0  0  0  0  0  0
   76.6461   42.6116   -2.2846 H   0  0  0  0  0  0  0  0  0  0  0  0
   76.7976   44.5781   -3.8085 H   0  0  0  0  0  0  0  0  0  0  0  0
   76.8863   43.4281   -5.1856 H   0  0  0  0  0  0  0  0  0  0  0  0
   75.6551   44.7362   -5.1856 H   0  0  0  0  0  0  0  0  0  0  0  0
  1  2  1  0
  2  3  1  0
  3  4  1  0
  4  5  1  0
  3  6  1  0
  6  7  2  0
  7  8  1  0
  8  9  1  0
  9 10  1  0
 10 11  1  0
 11 12  2  0
 12 13  1  0
 13 14  2  0
 14 15  1  0
 15 16  1  0
 15 17  2  0
 17 18  1  0
 18 19  2  0
 18 20  1  0
 20 21  1  0
  8 22  2  0
 22 23  1  0
 23 24  2  0
 24 25  1  0
 24  6  1  0
 20  9  2  0
 17 11  1  0
  1 26  1  0
  1 27  1  0
  1 28  1  0
  2 29  1  0
  2 30  1  0
  4 31  1  0
  4 32  1  0
  5 33  1  0
  5 34  1  0
  5 35  1  0
  7 36  1  0
 12 37  1  0
 13 38  1  0
 14 39  1  0
 16 40  1  0
 21 41  1  0
 22 42  1  0
 23 43  1  0
 25 44  1  0
 25 45  1  0
 25 46  1  0
M  END
>  <meeko>  (3) 
{"is_sidechain": [false], "free_energy": -7.288, "intermolecular_energy": -9.417, "internal_energy": -0.525}

$$$$
cand_054_out
     RDKit          3D

 46 48  0  0  0  0  0  0  0  0999 V2000
   75.8950   42.3810   -6.3120 C   0  0  0  0  0  0  0  0  0  0  0  0
   76.1350   42.0060   -4.8560 C   0  0  0  0  0  0  0  0  0  0  0  0
   75.8450   43.1370   -3.9510 N   0  0  0  0  0  0  0  0  0  0  0  0
   76.6960   43.1980   -2.7460 C   0  0  0  0  0  0  0  0  0  0  0  0
   77.2300   44.6100   -2.5510 C   0  0  0  0  0  0  0  0  0  0  0  0
   74.4750   43.2320   -3.5870 C   0  0  0  0  0  0  0  0  0  0  0  0
   73.8170   42.2010   -2.8890 C   0  0  0  0  0  0  0  0  0  0  0  0
   72.4700   42.3100   -2.5140 C   0  0  0  0  0  0  0  0  0  0  0  0
   71.7720   41.2170   -1.8030 C   0  0  0  0  0  0  0  0  0  0  0  0
   72.6360   40.2160   -1.3720 O   0  0  0  0  0  0  0  0  0  0  0  0
   72.1200   39.1400   -0.6970 C   0  0  0  0  0  0  0  0  0  0  0  0
   73.0240   38.1670   -0.2700 C   0  0  0  0  0  0  0  0  0  0  0  0
   72.5640   37.0450    0.4230 C   0  0  0  0  0  0  0  0  0  0  0  0
   71.2000   36.8940    0.6850 C   0  0  0  0  0  0  0  0  0  0  0  0
   70.3010   37.8660    0.2560 C   0  0  0  0  0  0  0  0  0  0  0  0
   68.9800   37.6560    0.5470 O   0  0  0  0  0  0  0  0  0  0  0  0
   70.7620   38.9900   -0.4350 C   0  0  0  0  0  0  0  0  0  0  0  0
   69.8500   40.0350   -0.9020 C   0  0  0  0  0  0  0  0  0  0  0  0
   68.6360   39.9710   -0.7150 O   0  0  0  0  0  0  0  0  0  0  0  0
   70.4390   41.1890   -1.6180 C   0  0  0  0  0  0  0  0  0  0  0  0
   69.5660   42.1640   -2.0660 O   0  0  0  0  0  0  0  0  0  0  0  0
   71.7710   43.4720   -2.8600 C   0  0  0  0  0  0  0  0  0  0  0  0
   72.4100   44.5100   -3.5430 C   0  0  0  0  0  0  0  0  0  0  0  0
   73.7590   44.4040   -3.9040 C   0  0  0  0  0  0  0  0  0  0  0  0
   74.4240   45.5400   -4.6330 C   0  0  0  0  0  0  0  0  0  0  0  0
   75.3026   43.3066   -6.3594 H   0  0  0  0  0  0  0  0  0  0  0  0
   76.8610   42.5378   -6.8143 H   0  0  0  0  0  0  0  0  0  0  0  0
   75.3480   41.5695   -6.8143 H   0  0  0  0  0  0  0  0  0  0  0  0
   75.4823   41.1607   -4.5923 H   0  0  0  0  0  0  0  0  0  0  0  0
   77.1944   41.7337   -4.7398 H   0  0  0  0  0  0  0  0  0  0  0  0
   76.1018   42.9095   -1.8664 H   0  0  0  0  0  0  0  0  0  0  0  0
   77.5433   42.5075   -2.8695 H   0  0  0  0  0  0  0  0  0  0  0  0
   77.3116   44.8259   -1.4755 H   0  0  0  0  0  0  0  0  0  0  0  0
   78.2222   44.6946   -3.0183 H   0  0  0  0  0  0  0  0  0  0  0  0
   76.5421   45.3300   -3.0183 H   0  0  0  0  0  0  0  0  0  0  0  0
   74.3733   41.2876   -2.6315 H   0  0  0  0  0  0  0  0  0  0  0  0
   74.0977   38.2833   -0.4788 H   0  0  0  0  0  0  0  0  0  0  0  0
   73.2766   36.2791    0.7630 H   0  0  0  0  0  0  0  0  0  0  0  0
   70.8376   36.0092    1.2289 H   0  0  0  0  0  0  0  0  0  0  0  0
   68.6170   36.7940    0.4840 H   0  0  0  0  0  0  0  0  0  0  0  0
   69.8660   43.0430   -2.1840 H   0  0  0  0  0  0  0  0  0  0  0  0
   70.7086   43.5691   -2.5918 H   0  0  0  0  0  0  0  0  0  0  0  0
   71.8477   45.4199   -3.7998 H   0  0  0  0  0  0  0  0  0  0  0  0
   74.8399   46.2504   -3.9034 H   0  0  0  0  0  0  0  0  0  0  0  0
   75.2342   45.1463   -5.2643 H   0  0  0  0  0  0  0  0  0  0  0  0
   73.6840   46.0538   -5.2643 H   0  0  0  0  0  0  0  0  0  0  0  0
  1  2  1  0
  2  3  1  0
  3  4  1  0
  4  5  1  0
  3  6  1  0
  6  7  2  0
  7  8  1  0
  8  9  1  0
  9 10  1  0
 10 11  1  0
 11 12  2  0
 12 13  1  0
 13 14  2  0
 14 15  1  0
 15 16  1  0
 15 17  2  0
 17 18  1  0
 18 19  2  0
 18 20  1  0
 20 21  1  0
  8 22  2  0
 22 23  1  0
 23 24  2  0
 24 25  1  0
 24  6  1  0
 20  9  2  0
 17 11  1  0
  1 26  1  0
  1 27  1  0
  1 28  1  0
  2 29  1  0
  2 30  1  0
  4 31  1  0
  4 32  1  0
  5 33  1  0
  5 34  1  0
  5 35  1  0
  7 36  1  0
 12 37  1  0
 13 38  1  0
 14 39  1  0
 16 40  1  0
 21 41  1  0
 22 42  1  0
 23 43  1  0
 25 44  1  0
 25 45  1  0
 25 46  1  0
M  END
>  <meeko>  (4) 
{"is_sidechain": [false], "free_energy": -7.262, "intermolecular_energy": -9.616, "internal_energy": -0.292}

$$$$
cand_054_out
     RDKit          3D

 46 48  0  0  0  0  0  0  0  0999 V2000
   76.8120   44.6550   -4.0050 C   0  0  0  0  0  0  0  0  0  0  0  0
   75.7040   45.1360   -3.0780 C   0  0  0  0  0  0  0  0  0  0  0  0
   74.4400   45.3510   -3.8120 N   0  0  0  0  0  0  0  0  0  0  0  0
   73.4860   46.2600   -3.1460 C   0  0  0  0  0  0  0  0  0  0  0  0
   74.1830   47.5550   -2.7510 C   0  0  0  0  0  0  0  0  0  0  0  0
   73.7880   44.1440   -4.1790 C   0  0  0  0  0  0  0  0  0  0  0  0
   73.3860   43.1930   -3.2220 C   0  0  0  0  0  0  0  0  0  0  0  0
   72.7240   42.0120   -3.5890 C   0  0  0  0  0  0  0  0  0  0  0  0
   72.3250   41.0020   -2.5860 C   0  0  0  0  0  0  0  0  0  0  0  0
   70.9550   40.9920   -2.3460 O   0  0  0  0  0  0  0  0  0  0  0  0
   70.4470   40.1020   -1.4360 C   0  0  0  0  0  0  0  0  0  0  0  0
   69.0670   40.1170   -1.2370 C   0  0  0  0  0  0  0  0  0  0  0  0
   68.4850   39.2360   -0.3230 C   0  0  0  0  0  0  0  0  0  0  0  0
   69.2840   38.3420    0.3940 C   0  0  0  0  0  0  0  0  0  0  0  0
   70.6620   38.3300    0.1940 C   0  0  0  0  0  0  0  0  0  0  0  0
   71.3850   37.4300    0.9280 O   0  0  0  0  0  0  0  0  0  0  0  0
   71.2430   39.2110   -0.7220 C   0  0  0  0  0  0  0  0  0  0  0  0
   72.6860   39.2310   -0.9620 C   0  0  0  0  0  0  0  0  0  0  0  0
   73.4570   38.4800   -0.3660 O   0  0  0  0  0  0  0  0  0  0  0  0
   73.2020   40.1960   -1.9590 C   0  0  0  0  0  0  0  0  0  0  0  0
   74.5690   40.2150   -2.1690 O   0  0  0  0  0  0  0  0  0  0  0  0
   72.4750   41.7810   -4.9470 C   0  0  0  0  0  0  0  0  0  0  0  0
   72.8570   42.7170   -5.9110 C   0  0  0  0  0  0  0  0  0  0  0  0
   73.5060   43.9010   -5.5390 C   0  0  0  0  0  0  0  0  0  0  0  0
   73.9000   44.8960   -6.5980 C   0  0  0  0  0  0  0  0  0  0  0  0
   77.6580   44.2877   -3.4055 H   0  0  0  0  0  0  0  0  0  0  0  0
   76.4316   43.8410   -4.6396 H   0  0  0  0  0  0  0  0  0  0  0  0
   77.1469   45.4887   -4.6396 H   0  0  0  0  0  0  0  0  0  0  0  0
   75.5391   44.3804   -2.2957 H   0  0  0  0  0  0  0  0  0  0  0  0
   76.0146   46.0946   -2.6369 H   0  0  0  0  0  0  0  0  0  0  0  0
   72.6593   46.4877   -3.8351 H   0  0  0  0  0  0  0  0  0  0  0  0
   73.0962   45.7713   -2.2409 H   0  0  0  0  0  0  0  0  0  0  0  0
   74.2233   47.6299   -1.6543 H   0  0  0  0  0  0  0  0  0  0  0  0
   75.2054   47.5596   -3.1567 H   0  0  0  0  0  0  0  0  0  0  0  0
   73.6237   48.4109   -3.1567 H   0  0  0  0  0  0  0  0  0  0  0  0
   73.5965   43.3809   -2.1588 H   0  0  0  0  0  0  0  0  0  0  0  0
   68.4373   40.8221   -1.7994 H   0  0  0  0  0  0  0  0  0  0  0  0
   67.3961   39.2460   -0.1674 H   0  0  0  0  0  0  0  0  0  0  0  0
   68.8256   37.6491    1.1149 H   0  0  0  0  0  0  0  0  0  0  0  0
   71.5790   36.5840    0.5740 H   0  0  0  0  0  0  0  0  0  0  0  0
   75.1550   40.2360   -1.4380 H   0  0  0  0  0  0  0  0  0  0  0  0
   71.9733   40.8528   -5.2582 H   0  0  0  0  0  0  0  0  0  0  0  0
   72.6460   42.5222   -6.9728 H   0  0  0  0  0  0  0  0  0  0  0  0
   74.2645   45.8166   -6.1187 H   0  0  0  0  0  0  0  0  0  0  0  0
   74.6967   44.4685   -7.2245 H   0  0  0  0  0  0  0  0  0  0  0  0
   73.0266   45.1299   -7.2245 H   0  0  0  0  0  0  0  0  0  0  0  0
  1  2  1  0
  2  3  1  0
  3  4  1  0
  4  5  1  0
  3  6  1  0
  6  7  2  0
  7  8  1  0
  8  9  1  0
  9 10  1  0
 10 11  1  0
 11 12  2  0
 12 13  1  0
 13 14  2  0
 14 15  1  0
 15 16  1  0
 15 17  2  0
 17 18  1  0
 18 19  2  0
 18 20  1  0
 20 21  1  0
  8 22  2  0
 22 23  1  0
 23 24  2  0
 24 25  1  0
 24  6  1  0
 20  9  2  0
 17 11  1  0
  1 26  1  0
  1 27  1  0
  1 28  1  0
  2 29  1  0
  2 30  1  0
  4 31  1  0
  4 32  1  0
  5 33  1  0
  5 34  1  0
  5 35  1  0
  7 36  1  0
 12 37  1  0
 13 38  1  0
 14 39  1  0
 16 40  1  0
 21 41  1  0
 22 42  1  0
 23 43  1  0
 25 44  1  0
 25 45  1  0
 25 46  1  0
M  END
>  <meeko>  (5) 
{"is_sidechain": [false], "free_energy": -7.245, "intermolecular_energy": -8.989, "internal_energy": -0.896}

$$$$
cand_054_out
     RDKit          3D

 46 48  0  0  0  0  0  0  0  0999 V2000
   68.7610   46.7630   -4.0540 C   0  0  0  0  0  0  0  0  0  0  0  0
   68.7890   45.2500   -4.2220 C   0  0  0  0  0  0  0  0  0  0  0  0
   69.9370   44.8180   -5.0450 N   0  0  0  0  0  0  0  0  0  0  0  0
   69.6020   43.8640   -6.1210 C   0  0  0  0  0  0  0  0  0  0  0  0
   68.5290   44.4510   -7.0270 C   0  0  0  0  0  0  0  0  0  0  0  0
   71.0270   44.3250   -4.2780 C   0  0  0  0  0  0  0  0  0  0  0  0
   70.9610   43.0950   -3.5950 C   0  0  0  0  0  0  0  0  0  0  0  0
   72.0480   42.6050   -2.8560 C   0  0  0  0  0  0  0  0  0  0  0  0
   71.9700   41.3250   -2.1180 C   0  0  0  0  0  0  0  0  0  0  0  0
   70.7060   41.0820   -1.5930 O   0  0  0  0  0  0  0  0  0  0  0  0
   70.4930   39.9280   -0.8840 C   0  0  0  0  0  0  0  0  0  0  0  0
   69.2060   39.7180   -0.3880 C   0  0  0  0  0  0  0  0  0  0  0  0
   68.9220   38.5630    0.3440 C   0  0  0  0  0  0  0  0  0  0  0  0
   69.9260   37.6200    0.5820 C   0  0  0  0  0  0  0  0  0  0  0  0
   71.2090   37.8340    0.0860 C   0  0  0  0  0  0  0  0  0  0  0  0
   72.1430   36.8710    0.3550 O   0  0  0  0  0  0  0  0  0  0  0  0
   71.4920   38.9890   -0.6480 C   0  0  0  0  0  0  0  0  0  0  0  0
   72.8270   39.2510   -1.1870 C   0  0  0  0  0  0  0  0  0  0  0  0
   73.7640   38.4730   -1.0150 O   0  0  0  0  0  0  0  0  0  0  0  0
   73.0210   40.5010   -1.9580 C   0  0  0  0  0  0  0  0  0  0  0  0
   74.2900   40.7440   -2.4510 O   0  0  0  0  0  0  0  0  0  0  0  0
   73.2160   43.3730   -2.7950 C   0  0  0  0  0  0  0  0  0  0  0  0
   73.3040   44.5910   -3.4740 C   0  0  0  0  0  0  0  0  0  0  0  0
   72.2210   45.0720   -4.2220 C   0  0  0  0  0  0  0  0  0  0  0  0
   72.3460   46.3830   -4.9500 C   0  0  0  0  0  0  0  0  0  0  0  0
   68.7564   47.0129   -2.9828 H   0  0  0  0  0  0  0  0  0  0  0  0
   69.6512   47.2012   -4.5289 H   0  0  0  0  0  0  0  0  0  0  0  0
   67.8552   47.1680   -4.5289 H   0  0  0  0  0  0  0  0  0  0  0  0
   68.8642   44.7815   -3.2296 H   0  0  0  0  0  0  0  0  0  0  0  0
   67.8639   44.9421   -4.7313 H   0  0  0  0  0  0  0  0  0  0  0  0
   70.5040   43.6540   -6.7145 H   0  0  0  0  0  0  0  0  0  0  0  0
   69.2238   42.9339   -5.6718 H   0  0  0  0  0  0  0  0  0  0  0  0
   67.7289   44.8887   -6.4119 H   0  0  0  0  0  0  0  0  0  0  0  0
   68.9724   45.2322   -7.6619 H   0  0  0  0  0  0  0  0  0  0  0  0
   68.1102   43.6563   -7.6619 H   0  0  0  0  0  0  0  0  0  0  0  0
   70.0344   42.5041   -3.6422 H   0  0  0  0  0  0  0  0  0  0  0  0
   68.4162   40.4609   -0.5732 H   0  0  0  0  0  0  0  0  0  0  0  0
   67.9071   38.3952    0.7337 H   0  0  0  0  0  0  0  0  0  0  0  0
   69.7028   36.7110    1.1598 H   0  0  0  0  0  0  0  0  0  0  0  0
   71.8850   35.9720    0.4210 H   0  0  0  0  0  0  0  0  0  0  0  0
   74.6420   41.6120   -2.4320 H   0  0  0  0  0  0  0  0  0  0  0  0
   74.0735   43.0143   -2.2067 H   0  0  0  0  0  0  0  0  0  0  0  0
   74.2327   45.1782   -3.4209 H   0  0  0  0  0  0  0  0  0  0  0  0
   72.4241   47.2019   -4.2197 H   0  0  0  0  0  0  0  0  0  0  0  0
   73.2467   46.3675   -5.5812 H   0  0  0  0  0  0  0  0  0  0  0  0
   71.4586   46.5380   -5.5812 H   0  0  0  0  0  0  0  0  0  0  0  0
  1  2  1  0
  2  3  1  0
  3  4  1  0
  4  5  1  0
  3  6  1  0
  6  7  2  0
  7  8  1  0
  8  9  1  0
  9 10  1  0
 10 11  1  0
 11 12  2  0
 12 13  1  0
 13 14  2  0
 14 15  1  0
 15 16  1  0
 15 17  2  0
 17 18  1  0
 18 19  2  0
 18 20  1  0
 20 21  1  0
  8 22  2  0
 22 23  1  0
 23 24  2  0
 24 25  1  0
 24  6  1  0
 20  9  2  0
 17 11  1  0
  1 26  1  0
  1 27  1  0
  1 28  1  0
  2 29  1  0
  2 30  1  0
  4 31  1  0
  4 32  1  0
  5 33  1  0
  5 34  1  0
  5 35  1  0
  7 36  1  0
 12 37  1  0
 13 38  1  0
 14 39  1  0
 16 40  1  0
 21 41  1  0
 22 42  1  0
 23 43  1  0
 25 44  1  0
 25 45  1  0
 25 46  1  0
M  END
>  <meeko>  (6) 
{"is_sidechain": [false], "free_energy": -7.233, "intermolecular_energy": -9.43, "internal_energy": -0.441}

$$$$
cand_054_out
     RDKit          3D

 46 48  0  0  0  0  0  0  0  0999 V2000
   75.6550   47.1750   -2.8520 C   0  0  0  0  0  0  0  0  0  0  0  0
   74.4700   46.3100   -3.2610 C   0  0  0  0  0  0  0  0  0  0  0  0
   74.9030   45.1360   -4.0460 N   0  0  0  0  0  0  0  0  0  0  0  0
   74.3980   45.1010   -5.4330 C   0  0  0  0  0  0  0  0  0  0  0  0
   75.4290   44.4570   -6.3500 C   0  0  0  0  0  0  0  0  0  0  0  0
   74.6420   43.8980   -3.4000 C   0  0  0  0  0  0  0  0  0  0  0  0
   73.3360   43.3880   -3.2680 C   0  0  0  0  0  0  0  0  0  0  0  0
   73.0870   42.1550   -2.6470 C   0  0  0  0  0  0  0  0  0  0  0  0
   71.7140   41.6310   -2.4850 C   0  0  0  0  0  0  0  0  0  0  0  0
   71.5640   40.8560   -1.3400 O   0  0  0  0  0  0  0  0  0  0  0  0
   70.3380   40.3070   -1.0670 C   0  0  0  0  0  0  0  0  0  0  0  0
   70.2290   39.5490    0.0990 C   0  0  0  0  0  0  0  0  0  0  0  0
   69.0080   38.9600    0.4360 C   0  0  0  0  0  0  0  0  0  0  0  0
   67.8970   39.1280   -0.3950 C   0  0  0  0  0  0  0  0  0  0  0  0
   68.0100   39.8840   -1.5580 C   0  0  0  0  0  0  0  0  0  0  0  0
   66.8830   40.0080   -2.3250 O   0  0  0  0  0  0  0  0  0  0  0  0
   69.2310   40.4740   -1.8930 C   0  0  0  0  0  0  0  0  0  0  0  0
   69.3920   41.2770   -3.1060 C   0  0  0  0  0  0  0  0  0  0  0  0
   68.4630   41.4650   -3.8910 O   0  0  0  0  0  0  0  0  0  0  0  0
   70.7250   41.8650   -3.3670 C   0  0  0  0  0  0  0  0  0  0  0  0
   70.8680   42.6110   -4.5240 O   0  0  0  0  0  0  0  0  0  0  0  0
   74.1720   41.4300   -2.1410 C   0  0  0  0  0  0  0  0  0  0  0  0
   75.4760   41.9150   -2.2720 C   0  0  0  0  0  0  0  0  0  0  0  0
   75.7230   43.1400   -2.9040 C   0  0  0  0  0  0  0  0  0  0  0  0
   77.1370   43.6350   -3.0380 C   0  0  0  0  0  0  0  0  0  0  0  0
   75.7153   47.2190   -1.7545 H   0  0  0  0  0  0  0  0  0  0  0  0
   76.5823   46.7399   -3.2530 H   0  0  0  0  0  0  0  0  0  0  0  0
   75.5232   48.1908   -3.2530 H   0  0  0  0  0  0  0  0  0  0  0  0
   73.9512   45.9629   -2.3553 H   0  0  0  0  0  0  0  0  0  0  0  0
   73.7996   46.9165   -3.8878 H   0  0  0  0  0  0  0  0  0  0  0  0
   73.4665   44.5169   -5.4662 H   0  0  0  0  0  0  0  0  0  0  0  0
   74.2075   46.1298   -5.7725 H   0  0  0  0  0  0  0  0  0  0  0  0
   76.2070   43.9710   -5.7429 H   0  0  0  0  0  0  0  0  0  0  0  0
   74.9366   43.7056   -6.9848 H   0  0  0  0  0  0  0  0  0  0  0  0
   75.8882   45.2291   -6.9848 H   0  0  0  0  0  0  0  0  0  0  0  0
   72.4902   43.9709   -3.6616 H   0  0  0  0  0  0  0  0  0  0  0  0
   71.1037   39.4152    0.7524 H   0  0  0  0  0  0  0  0  0  0  0  0
   68.9209   38.3635    1.3561 H   0  0  0  0  0  0  0  0  0  0  0  0
   66.9355   38.6638   -0.1305 H   0  0  0  0  0  0  0  0  0  0  0  0
   66.6450   39.3250   -2.9220 H   0  0  0  0  0  0  0  0  0  0  0  0
   70.1300   42.7570   -5.0810 H   0  0  0  0  0  0  0  0  0  0  0  0
   73.9966   40.4690   -1.6353 H   0  0  0  0  0  0  0  0  0  0  0  0
   76.3173   41.3283   -1.8745 H   0  0  0  0  0  0  0  0  0  0  0  0
   77.5689   43.7862   -2.0377 H   0  0  0  0  0  0  0  0  0  0  0  0
   77.7349   42.8927   -3.5871 H   0  0  0  0  0  0  0  0  0  0  0  0
   77.1413   44.5881   -3.5871 H   0  0  0  0  0  0  0  0  0  0  0  0
  1  2  1  0
  2  3  1  0
  3  4  1  0
  4  5  1  0
  3  6  1  0
  6  7  2  0
  7  8  1  0
  8  9  1  0
  9 10  1  0
 10 11  1  0
 11 12  2  0
 12 13  1  0
 13 14  2  0
 14 15  1  0
 15 16  1  0
 15 17  2  0
 17 18  1  0
 18 19  2  0
 18 20  1  0
 20 21  1  0
  8 22  2  0
 22 23  1  0
 23 24  2  0
 24 25  1  0
 24  6  1  0
 20  9  2  0
 17 11  1  0
  1 26  1  0
  1 27  1  0
  1 28  1  0
  2 29  1  0
  2 30  1  0
  4 31  1  0
  4 32  1  0
  5 33  1  0
  5 34  1  0
  5 35  1  0
  7 36  1  0
 12 37  1  0
 13 38  1  0
 14 39  1  0
 16 40  1  0
 21 41  1  0
 22 42  1  0
 23 43  1  0
 25 44  1  0
 25 45  1  0
 25 46  1  0
M  END
>  <meeko>  (7) 
{"is_sidechain": [false], "free_energy": -7.219, "intermolecular_energy": -9.301, "internal_energy": -0.551}

$$$$
cand_054_out
     RDKit          3D

 46 48  0  0  0  0  0  0  0  0999 V2000
   67.7500   39.9770   -1.4250 C   0  0  0  0  0  0  0  0  0  0  0  0
   68.8470   40.8440   -2.0260 C   0  0  0  0  0  0  0  0  0  0  0  0
   69.8030   41.2990   -0.9960 N   0  0  0  0  0  0  0  0  0  0  0  0
   69.8320   42.7600   -0.7820 C   0  0  0  0  0  0  0  0  0  0  0  0
   68.9180   43.4550   -1.7810 C   0  0  0  0  0  0  0  0  0  0  0  0
   71.1220   40.8100   -1.1950 C   0  0  0  0  0  0  0  0  0  0  0  0
   71.9920   41.3760   -2.1470 C   0  0  0  0  0  0  0  0  0  0  0  0
   73.2990   40.9010   -2.3240 C   0  0  0  0  0  0  0  0  0  0  0  0
   74.2040   41.4790   -3.3410 C   0  0  0  0  0  0  0  0  0  0  0  0
   73.5550   41.7730   -4.5350 O   0  0  0  0  0  0  0  0  0  0  0  0
   74.2760   42.3150   -5.5670 C   0  0  0  0  0  0  0  0  0  0  0  0
   73.5820   42.6070   -6.7410 C   0  0  0  0  0  0  0  0  0  0  0  0
   74.2580   43.1610   -7.8310 C   0  0  0  0  0  0  0  0  0  0  0  0
   75.6290   43.4190   -7.7460 C   0  0  0  0  0  0  0  0  0  0  0  0
   76.3180   43.1260   -6.5730 C   0  0  0  0  0  0  0  0  0  0  0  0
   77.6580   43.4050   -6.5580 O   0  0  0  0  0  0  0  0  0  0  0  0
   75.6410   42.5740   -5.4820 C   0  0  0  0  0  0  0  0  0  0  0  0
   76.3280   42.2520   -4.2320 C   0  0  0  0  0  0  0  0  0  0  0  0
   77.5340   42.4440   -4.0820 O   0  0  0  0  0  0  0  0  0  0  0  0
   75.5180   41.6770   -3.1330 C   0  0  0  0  0  0  0  0  0  0  0  0
   76.1820   41.3650   -1.9600 O   0  0  0  0  0  0  0  0  0  0  0  0
   73.7330   39.8290   -1.5360 C   0  0  0  0  0  0  0  0  0  0  0  0
   72.8890   39.2600   -0.5800 C   0  0  0  0  0  0  0  0  0  0  0  0
   71.5880   39.7450   -0.3960 C   0  0  0  0  0  0  0  0  0  0  0  0
   70.7020   39.1190    0.6470 C   0  0  0  0  0  0  0  0  0  0  0  0
   67.8070   40.0221   -0.3274 H   0  0  0  0  0  0  0  0  0  0  0  0
   66.7682   40.3458   -1.7566 H   0  0  0  0  0  0  0  0  0  0  0  0
   67.8820   38.9365   -1.7566 H   0  0  0  0  0  0  0  0  0  0  0  0
   69.3894   40.2597   -2.7839 H   0  0  0  0  0  0  0  0  0  0  0  0
   68.3777   41.7308   -2.4770 H   0  0  0  0  0  0  0  0  0  0  0  0
   69.4915   42.9846    0.2396 H   0  0  0  0  0  0  0  0  0  0  0  0
   70.8606   43.1234   -0.9230 H   0  0  0  0  0  0  0  0  0  0  0  0
   68.1559   44.0345   -1.2393 H   0  0  0  0  0  0  0  0  0  0  0  0
   69.5124   44.1314   -2.4129 H   0  0  0  0  0  0  0  0  0  0  0  0
   68.4251   42.7015   -2.4129 H   0  0  0  0  0  0  0  0  0  0  0  0
   71.6369   42.2120   -2.7674 H   0  0  0  0  0  0  0  0  0  0  0  0
   72.5035   42.4013   -6.8087 H   0  0  0  0  0  0  0  0  0  0  0  0
   73.7110   43.3942   -8.7564 H   0  0  0  0  0  0  0  0  0  0  0  0
   76.1624   43.8528   -8.6047 H   0  0  0  0  0  0  0  0  0  0  0  0
   77.9790   44.1850   -6.9690 H   0  0  0  0  0  0  0  0  0  0  0  0
   76.7500   41.9930   -1.5610 H   0  0  0  0  0  0  0  0  0  0  0  0
   74.7494   39.4305   -1.6711 H   0  0  0  0  0  0  0  0  0  0  0  0
   73.2497   38.4222    0.0349 H   0  0  0  0  0  0  0  0  0  0  0  0
   71.0732   39.3812    1.6487 H   0  0  0  0  0  0  0  0  0  0  0  0
   69.6743   39.4926    0.5273 H   0  0  0  0  0  0  0  0  0  0  0  0
   70.7109   38.0256    0.5273 H   0  0  0  0  0  0  0  0  0  0  0  0
  1  2  1  0
  2  3  1  0
  3  4  1  0
  4  5  1  0
  3  6  1  0
  6  7  2  0
  7  8  1  0
  8  9  1  0
  9 10  1  0
 10 11  1  0
 11 12  2  0
 12 13  1  0
 13 14  2  0
 14 15  1  0
 15 16  1  0
 15 17  2  0
 17 18  1  0
 18 19  2  0
 18 20  1  0
 20 21  1  0
  8 22  2  0
 22 23  1  0
 23 24  2  0
 24 25  1  0
 24  6  1  0
 20  9  2  0
 17 11  1  0
  1 26  1  0
  1 27  1  0
  1 28  1  0
  2 29  1  0
  2 30  1  0
  4 31  1  0
  4 32  1  0
  5 33  1  0
  5 34  1  0
  5 35  1  0
  7 36  1  0
 12 37  1  0
 13 38  1  0
 14 39  1  0
 16 40  1  0
 21 41  1  0
 22 42  1  0
 23 43  1  0
 25 44  1  0
 25 45  1  0
 25 46  1  0
M  END
>  <meeko>  (8) 
{"is_sidechain": [false], "free_energy": -7.159, "intermolecular_energy": -9.299, "internal_energy": -0.475}

$$$$
cand_054_out
     RDKit          3D

 46 48  0  0  0  0  0  0  0  0999 V2000
   66.1850   45.5590   -2.1260 C   0  0  0  0  0  0  0  0  0  0  0  0
   67.4870   45.7270   -2.8980 C   0  0  0  0  0  0  0  0  0  0  0  0
   67.5050   44.8940   -4.1170 N   0  0  0  0  0  0  0  0  0  0  0  0
   66.2210   44.2360   -4.4350 C   0  0  0  0  0  0  0  0  0  0  0  0
   65.7690   44.6190   -5.8370 C   0  0  0  0  0  0  0  0  0  0  0  0
   68.5580   43.9400   -4.1340 C   0  0  0  0  0  0  0  0  0  0  0  0
   68.6210   42.8840   -3.2050 C   0  0  0  0  0  0  0  0  0  0  0  0
   69.6530   41.9340   -3.2400 C   0  0  0  0  0  0  0  0  0  0  0  0
   69.7330   40.8390   -2.2490 C   0  0  0  0  0  0  0  0  0  0  0  0
   71.0130   40.3080   -2.1360 O   0  0  0  0  0  0  0  0  0  0  0  0
   71.2310   39.2840   -1.2500 C   0  0  0  0  0  0  0  0  0  0  0  0
   72.5320   38.7910   -1.1590 C   0  0  0  0  0  0  0  0  0  0  0  0
   72.8210   37.7470   -0.2760 C   0  0  0  0  0  0  0  0  0  0  0  0
   71.8080   37.1960    0.5120 C   0  0  0  0  0  0  0  0  0  0  0  0
   70.5100   37.6900    0.4170 C   0  0  0  0  0  0  0  0  0  0  0  0
   69.5670   37.1040    1.2170 O   0  0  0  0  0  0  0  0  0  0  0  0
   70.2220   38.7350   -0.4650 C   0  0  0  0  0  0  0  0  0  0  0  0
   68.8710   39.2830   -0.5940 C   0  0  0  0  0  0  0  0  0  0  0  0
   67.9250   38.8470    0.0600 O   0  0  0  0  0  0  0  0  0  0  0  0
   68.6720   40.3950   -1.5510 C   0  0  0  0  0  0  0  0  0  0  0  0
   67.3890   40.8970   -1.6740 O   0  0  0  0  0  0  0  0  0  0  0  0
   70.6440   42.0590   -4.2200 C   0  0  0  0  0  0  0  0  0  0  0  0
   70.5920   43.0940   -5.1570 C   0  0  0  0  0  0  0  0  0  0  0  0
   69.5540   44.0340   -5.1280 C   0  0  0  0  0  0  0  0  0  0  0  0
   69.5190   45.1350   -6.1530 C   0  0  0  0  0  0  0  0  0  0  0  0
   66.3929   45.5858   -1.0462 H   0  0  0  0  0  0  0  0  0  0  0  0
   65.4959   46.3757   -2.3871 H   0  0  0  0  0  0  0  0  0  0  0  0
   65.7258   44.5942   -2.3871 H   0  0  0  0  0  0  0  0  0  0  0  0
   67.5985   46.7830   -3.1851 H   0  0  0  0  0  0  0  0  0  0  0  0
   68.3162   45.4076   -2.2496 H   0  0  0  0  0  0  0  0  0  0  0  0
   66.3480   43.1448   -4.3793 H   0  0  0  0  0  0  0  0  0  0  0  0
   65.4605   44.5623   -3.7103 H   0  0  0  0  0  0  0  0  0  0  0  0
   64.9313   45.3288   -5.7711 H   0  0  0  0  0  0  0  0  0  0  0  0
   66.6051   45.0877   -6.3766 H   0  0  0  0  0  0  0  0  0  0  0  0
   65.4439   43.7172   -6.3766 H   0  0  0  0  0  0  0  0  0  0  0  0
   67.8420   42.8017   -2.4327 H   0  0  0  0  0  0  0  0  0  0  0  0
   73.3296   39.2231   -1.7812 H   0  0  0  0  0  0  0  0  0  0  0  0
   73.8475   37.3588   -0.2015 H   0  0  0  0  0  0  0  0  0  0  0  0
   72.0353   36.3735    1.2061 H   0  0  0  0  0  0  0  0  0  0  0  0
   68.9300   37.6340    1.6560 H   0  0  0  0  0  0  0  0  0  0  0  0
   66.8990   40.7430   -2.4570 H   0  0  0  0  0  0  0  0  0  0  0  0
   71.4719   41.3354   -4.2529 H   0  0  0  0  0  0  0  0  0  0  0  0
   71.3748   43.1715   -5.9259 H   0  0  0  0  0  0  0  0  0  0  0  0
   69.4880   46.1094   -5.6435 H   0  0  0  0  0  0  0  0  0  0  0  0
   70.4194   45.0788   -6.7824 H   0  0  0  0  0  0  0  0  0  0  0  0
   68.6240   45.0217   -6.7824 H   0  0  0  0  0  0  0  0  0  0  0  0
  1  2  1  0
  2  3  1  0
  3  4  1  0
  4  5  1  0
  3  6  1  0
  6  7  2  0
  7  8  1  0
  8  9  1  0
  9 10  1  0
 10 11  1  0
 11 12  2  0
 12 13  1  0
 13 14  2  0
 14 15  1  0
 15 16  1  0
 15 17  2  0
 17 18  1  0
 18 19  2  0
 18 20  1  0
 20 21  1  0
  8 22  2  0
 22 23  1  0
 23 24  2  0
 24 25  1  0
 24  6  1  0
 20  9  2  0
 17 11  1  0
  1 26  1  0
  1 27  1  0
  1 28  1  0
  2 29  1  0
  2 30  1  0
  4 31  1  0
  4 32  1  0
  5 33  1  0
  5 34  1  0
  5 35  1  0
  7 36  1  0
 12 37  1  0
 13 38  1  0
 14 39  1  0
 16 40  1  0
 21 41  1  0
 22 42  1  0
 23 43  1  0
 25 44  1  0
 25 45  1  0
 25 46  1  0
M  END
>  <meeko>  (9) 
{"is_sidechain": [false], "free_energy": -7.048, "intermolecular_energy": -9.25, "internal_energy": -0.381}

$$$$
