cand_023_out
     RDKit          3D

 47 50  0  0  0  0  0  0  0  0999 V2000
   75.3500   43.8350   -3.0070 C   0  0  0  0  0  0  0  0  0  0  0  0
   74.2570   42.9750   -3.5830 C   0  0  0  0  0  0  0  0  0  0  0  0
   73.4810   42.1740   -2.7250 C   0  0  0  0  0  0  0  0  0  0  0  0
   72.4490   41.3610   -3.2170 C   0  0  0  0  0  0  0  0  0  0  0  0
   71.6730   40.5130   -2.2880 C   0  0  0  0  0  0  0  0  0  0  0  0
   72.4340   39.4970   -1.7200 O   0  0  0  0  0  0  0  0  0  0  0  0
   71.8400   38.6360   -0.8350 C   0  0  0  0  0  0  0  0  0  0  0  0
   72.6380   37.6240   -0.3000 C   0  0  0  0  0  0  0  0  0  0  0  0
   72.0940   36.7140    0.6080 C   0  0  0  0  0  0  0  0  0  0  0  0
   70.7520   36.8140    0.9820 C   0  0  0  0  0  0  0  0  0  0  0  0
   69.9570   37.8250    0.4460 C   0  0  0  0  0  0  0  0  0  0  0  0
   68.6520   37.8660    0.8550 O   0  0  0  0  0  0  0  0  0  0  0  0
   70.5020   38.7360   -0.4630 C   0  0  0  0  0  0  0  0  0  0  0  0
   69.7020   39.8120   -1.0490 C   0  0  0  0  0  0  0  0  0  0  0  0
   68.5160   39.9700   -0.7650 O   0  0  0  0  0  0  0  0  0  0  0  0
   70.3730   40.7200   -2.0080 C   0  0  0  0  0  0  0  0  0  0  0  0
   69.6100   41.7420   -2.5450 O   0  0  0  0  0  0  0  0  0  0  0  0
   72.2130   41.3510   -4.5950 C   0  0  0  0  0  0  0  0  0  0  0  0
   72.9760   42.1450   -5.4570 C   0  0  0  0  0  0  0  0  0  0  0  0
   74.0070   42.9630   -4.9690 C   0  0  0  0  0  0  0  0  0  0  0  0
   74.7820   43.7840   -5.8160 N   0  0  0  0  0  0  0  0  0  0  0  0
   75.4800   43.0400   -6.8760 C   0  0  0  0  0  0  0  0  0  0  0  0
   76.4650   43.9770   -7.5760 C   0  0  0  0  0  0  0  0  0  0  0  0
   75.7550   45.2190   -8.1110 C   0  0  0  0  0  0  0  0  0  0  0  0
   74.9560   45.9110   -7.0080 C   0  0  0  0  0  0  0  0  0  0  0  0
   74.0080   44.9330   -6.3120 C   0  0  0  0  0  0  0  0  0  0  0  0
   75.3044   43.7991   -1.9085 H   0  0  0  0  0  0  0  0  0  0  0  0
   76.3275   43.4613   -3.3458 H   0  0  0  0  0  0  0  0  0  0  0  0
   75.2168   44.8730   -3.3458 H   0  0  0  0  0  0  0  0  0  0  0  0
   73.6881   42.1855   -1.6447 H   0  0  0  0  0  0  0  0  0  0  0  0
   73.6950   37.5434   -0.5936 H   0  0  0  0  0  0  0  0  0  0  0  0
   72.7234   35.9166    1.0298 H   0  0  0  0  0  0  0  0  0  0  0  0
   70.3239   36.0966    1.6977 H   0  0  0  0  0  0  0  0  0  0  0  0
   68.3670   37.3300    1.5680 H   0  0  0  0  0  0  0  0  0  0  0  0
   68.9030   42.1070   -2.0510 H   0  0  0  0  0  0  0  0  0  0  0  0
   71.4181   40.7113   -5.0058 H   0  0  0  0  0  0  0  0  0  0  0  0
   72.7645   42.1282   -6.5363 H   0  0  0  0  0  0  0  0  0  0  0  0
   76.0265   42.1938   -6.4341 H   0  0  0  0  0  0  0  0  0  0  0  0
   74.7497   42.6573   -7.6041 H   0  0  0  0  0  0  0  0  0  0  0  0
   77.2388   44.2865   -6.8581 H   0  0  0  0  0  0  0  0  0  0  0  0
   76.9169   43.4401   -8.4231 H   0  0  0  0  0  0  0  0  0  0  0  0
   76.5051   45.9201   -8.5056 H   0  0  0  0  0  0  0  0  0  0  0  0
   75.0601   44.9102   -8.9058 H   0  0  0  0  0  0  0  0  0  0  0  0
   75.6541   46.3237   -6.2648 H   0  0  0  0  0  0  0  0  0  0  0  0
   74.3554   46.7117   -7.4643 H   0  0  0  0  0  0  0  0  0  0  0  0
   73.5138   45.4364   -5.4680 H   0  0  0  0  0  0  0  0  0  0  0  0
   73.2444   44.5864   -7.0239 H   0  0  0  0  0  0  0  0  0  0  0  0
  1  2  1  0
  2  3  2  0
  3  4  1  0
  4  5  1  0
  5  6  1  0
  6  7  1  0
  7  8  2  0
  8  9  1  0
  9 10  2  0
 10 11  1  0
 11 12  1  0
 11 13  2  0
 13 14  1  0
 14 15  2  0
 14 16  1  0
 16 17  1  0
  4 18  2  0
 18 19  1  0
 19 20  2  0
 20 21  1  0
 21 22  1  0
 22 23  1  0
 23 24  1  0
 24 25  1  0
 25 26  1  0
 20  2  1  0
 26 21  1  0
 16  5  2  0
 13  7  1  0
  1 27  1  0
  1 28  1  0
  1 29  1  0
  3 30  1  0
  8 31  1  0
  9 32  1  0
 10 33  1  0
 12 34  1  0
 17 35  1  0
 18 36  1  0
 19 37  1  0
 22 38  1  0
 22 39  1  0
 23 40  1  0
 23 41  1  0
 24 42  1  0
 24 43  1  0
 25 44  1  0
 25 45  1  0
 26 46  1  0
 26 47  1  0
M  END
>  <meeko>  (1) 
{"is_sidechain": [false], "free_energy": -7.885, "intermolecular_energy": -9.268, "internal_energy": -0.65}

$$$$
cand_023_out
     RDKit          3D

 47 50  0  0  0  0  0  0  0  0999 V2000
   75.6730   42.6210   -2.0390 C   0  0  0  0  0  0  0  0  0  0  0  0
   74.5650   42.3960   -3.0340 C   0  0  0  0  0  0  0  0  0  0  0  0
   73.2950   41.9970   -2.5780 C   0  0  0  0  0  0  0  0  0  0  0  0
   72.2330   41.7810   -3.4680 C   0  0  0  0  0  0  0  0  0  0  0  0
   70.9200   41.3360   -2.9540 C   0  0  0  0  0  0  0  0  0  0  0  0
   71.0290   40.4600   -1.8800 O   0  0  0  0  0  0  0  0  0  0  0  0
   69.8860   39.9700   -1.3040 C   0  0  0  0  0  0  0  0  0  0  0  0
   70.0430   39.0830   -0.2380 C   0  0  0  0  0  0  0  0  0  0  0  0
   68.9190   38.5490    0.3950 C   0  0  0  0  0  0  0  0  0  0  0  0
   67.6380   38.9000   -0.0380 C   0  0  0  0  0  0  0  0  0  0  0  0
   67.4840   39.7850   -1.1020 C   0  0  0  0  0  0  0  0  0  0  0  0
   66.2030   40.0870   -1.4750 O   0  0  0  0  0  0  0  0  0  0  0  0
   68.6100   40.3200   -1.7360 C   0  0  0  0  0  0  0  0  0  0  0  0
   68.4930   41.2530   -2.8570 C   0  0  0  0  0  0  0  0  0  0  0  0
   67.4000   41.6150   -3.2900 O   0  0  0  0  0  0  0  0  0  0  0  0
   69.7460   41.7570   -3.4630 C   0  0  0  0  0  0  0  0  0  0  0  0
   69.6230   42.6480   -4.5130 O   0  0  0  0  0  0  0  0  0  0  0  0
   72.4680   41.9570   -4.8360 C   0  0  0  0  0  0  0  0  0  0  0  0
   73.7260   42.3560   -5.3000 C   0  0  0  0  0  0  0  0  0  0  0  0
   74.7900   42.5770   -4.4120 C   0  0  0  0  0  0  0  0  0  0  0  0
   76.0640   42.9930   -4.8530 N   0  0  0  0  0  0  0  0  0  0  0  0
   76.7950   41.9560   -5.5980 C   0  0  0  0  0  0  0  0  0  0  0  0
   78.2350   42.4210   -5.8170 C   0  0  0  0  0  0  0  0  0  0  0  0
   78.2730   43.7760   -6.5230 C   0  0  0  0  0  0  0  0  0  0  0  0
   77.4200   44.8040   -5.7800 C   0  0  0  0  0  0  0  0  0  0  0  0
   76.0000   44.2870   -5.5530 C   0  0  0  0  0  0  0  0  0  0  0  0
   75.2713   42.5394   -1.0182 H   0  0  0  0  0  0  0  0  0  0  0  0
   76.4572   41.8638   -2.1860 H   0  0  0  0  0  0  0  0  0  0  0  0
   76.0997   43.6241   -2.1860 H   0  0  0  0  0  0  0  0  0  0  0  0
   73.1317   41.8514   -1.5000 H   0  0  0  0  0  0  0  0  0  0  0  0
   71.0511   38.8049    0.1031 H   0  0  0  0  0  0  0  0  0  0  0  0
   69.0423   37.8508    1.2360 H   0  0  0  0  0  0  0  0  0  0  0  0
   66.7528   38.4781    0.4605 H   0  0  0  0  0  0  0  0  0  0  0  0
   65.9950   40.9460   -1.7820 H   0  0  0  0  0  0  0  0  0  0  0  0
   70.3810   43.0910   -4.8420 H   0  0  0  0  0  0  0  0  0  0  0  0
   71.6544   41.7796   -5.5548 H   0  0  0  0  0  0  0  0  0  0  0  0
   73.8839   42.4989   -6.3792 H   0  0  0  0  0  0  0  0  0  0  0  0
   76.7938   41.0186   -5.0224 H   0  0  0  0  0  0  0  0  0  0  0  0
   76.3085   41.7842   -6.5695 H   0  0  0  0  0  0  0  0  0  0  0  0
   78.7364   42.5095   -4.8419 H   0  0  0  0  0  0  0  0  0  0  0  0
   78.7489   41.6823   -6.4497 H   0  0  0  0  0  0  0  0  0  0  0  0
   79.3130   44.1323   -6.5623 H   0  0  0  0  0  0  0  0  0  0  0  0
   77.8693   43.6537   -7.5389 H   0  0  0  0  0  0  0  0  0  0  0  0
   77.8837   45.0174   -4.8056 H   0  0  0  0  0  0  0  0  0  0  0  0
   77.3637   45.7162   -6.3922 H   0  0  0  0  0  0  0  0  0  0  0  0
   75.4385   45.0089   -4.9418 H   0  0  0  0  0  0  0  0  0  0  0  0
   75.4930   44.1599   -6.5209 H   0  0  0  0  0  0  0  0  0  0  0  0
  1  2  1  0
  2  3  2  0
  3  4  1  0
  4  5  1  0
  5  6  1  0
  6  7  1  0
  7  8  2  0
  8  9  1  0
  9 10  2  0
 10 11  1  0
 11 12  1  0
 11 13  2  0
 13 14  1  0
 14 15  2  0
 14 16  1  0
 16 17  1  0
  4 18  2  0
 18 19  1  0
 19 20  2  0
 20 21  1  0
 21 22  1  0
 22 23  1  0
 23 24  1  0
 24 25  1  0
 25 26  1  0
 20  2  1  0
 26 21  1  0
 16  5  2  0
 13  7  1  0
  1 27  1  0
  1 28  1  0
  1 29  1  0
  3 30  1  0
  8 31  1  0
  9 32  1  0
 10 33  1  0
 12 34  1  0
 17 35  1  0
 18 36  1  0
 19 37  1  0
 22 38  1  0
 22 39  1  0
 23 40  1  0
 23 41  1  0
 24 42  1  0
 24 43  1  0
 25 44  1  0
 25 45  1  0
 26 46  1  0
 26 47  1  0
M  END
>  <meeko>  (2) 
{"is_sidechain": [false], "free_energy": -7.802, "intermolecular_energy": -9.47, "internal_energy": -0.35}

$$$$
cand_023_out
     RDKit          3D

 47 50  0  0  0  0  0  0  0  0999 V2000
   73.4180   42.4980   -6.5220 C   0  0  0  0  0  0  0  0  0  0  0  0
   73.6610   42.4470   -5.0370 C   0  0  0  0  0  0  0  0  0  0  0  0
   72.9050   41.5670   -4.2410 C   0  0  0  0  0  0  0  0  0  0  0  0
   73.1010   41.4830   -2.8540 C   0  0  0  0  0  0  0  0  0  0  0  0
   72.2690   40.5670   -2.0470 C   0  0  0  0  0  0  0  0  0  0  0  0
   70.9200   40.9040   -2.0650 O   0  0  0  0  0  0  0  0  0  0  0  0
   70.0330   40.1350   -1.3580 C   0  0  0  0  0  0  0  0  0  0  0  0
   68.6920   40.5190   -1.3930 C   0  0  0  0  0  0  0  0  0  0  0  0
   67.7370   39.7770   -0.6960 C   0  0  0  0  0  0  0  0  0  0  0  0
   68.1210   38.6520    0.0360 C   0  0  0  0  0  0  0  0  0  0  0  0
   69.4600   38.2710    0.0710 C   0  0  0  0  0  0  0  0  0  0  0  0
   69.7680   37.1590    0.8070 O   0  0  0  0  0  0  0  0  0  0  0  0
   70.4170   39.0140   -0.6270 C   0  0  0  0  0  0  0  0  0  0  0  0
   71.8340   38.6490   -0.6190 C   0  0  0  0  0  0  0  0  0  0  0  0
   72.2490   37.6680   -0.0030 O   0  0  0  0  0  0  0  0  0  0  0  0
   72.7670   39.5050   -1.3850 C   0  0  0  0  0  0  0  0  0  0  0  0
   74.1020   39.1420   -1.3800 O   0  0  0  0  0  0  0  0  0  0  0  0
   74.0650   42.3120   -2.2690 C   0  0  0  0  0  0  0  0  0  0  0  0
   74.8230   43.1880   -3.0520 C   0  0  0  0  0  0  0  0  0  0  0  0
   74.6330   43.2730   -4.4400 C   0  0  0  0  0  0  0  0  0  0  0  0
   75.3960   44.1380   -5.2530 N   0  0  0  0  0  0  0  0  0  0  0  0
   75.1060   45.5630   -5.0260 C   0  0  0  0  0  0  0  0  0  0  0  0
   75.8000   46.3900   -6.1090 C   0  0  0  0  0  0  0  0  0  0  0  0
   77.3000   46.1030   -6.1450 C   0  0  0  0  0  0  0  0  0  0  0  0
   77.5660   44.6040   -6.2770 C   0  0  0  0  0  0  0  0  0  0  0  0
   76.8300   43.8110   -5.1970 C   0  0  0  0  0  0  0  0  0  0  0  0
   72.3577   42.7205   -6.7126 H   0  0  0  0  0  0  0  0  0  0  0  0
   74.0438   43.2844   -6.9692 H   0  0  0  0  0  0  0  0  0  0  0  0
   73.6749   41.5264   -6.9692 H   0  0  0  0  0  0  0  0  0  0  0  0
   72.1437   40.9310   -4.7163 H   0  0  0  0  0  0  0  0  0  0  0  0
   68.3878   41.4053   -1.9691 H   0  0  0  0  0  0  0  0  0  0  0  0
   66.6797   40.0793   -0.7236 H   0  0  0  0  0  0  0  0  0  0  0  0
   67.3673   38.0676    0.5841 H   0  0  0  0  0  0  0  0  0  0  0  0
   69.1990   36.4160    0.7910 H   0  0  0  0  0  0  0  0  0  0  0  0
   74.7660   39.8030   -1.3940 H   0  0  0  0  0  0  0  0  0  0  0  0
   74.2281   42.2740   -1.1818 H   0  0  0  0  0  0  0  0  0  0  0  0
   75.5823   43.8223   -2.5713 H   0  0  0  0  0  0  0  0  0  0  0  0
   74.0199   45.7305   -5.0731 H   0  0  0  0  0  0  0  0  0  0  0  0
   75.4746   45.8643   -4.0344 H   0  0  0  0  0  0  0  0  0  0  0  0
   75.3630   46.1399   -7.0870 H   0  0  0  0  0  0  0  0  0  0  0  0
   75.6541   47.4562   -5.8810 H   0  0  0  0  0  0  0  0  0  0  0  0
   77.7459   46.6248   -7.0046 H   0  0  0  0  0  0  0  0  0  0  0  0
   77.7481   46.4578   -5.2051 H   0  0  0  0  0  0  0  0  0  0  0  0
   77.2237   44.2652   -7.2660 H   0  0  0  0  0  0  0  0  0  0  0  0
   78.6459   44.4317   -6.1584 H   0  0  0  0  0  0  0  0  0  0  0  0
   76.9694   42.7339   -5.3714 H   0  0  0  0  0  0  0  0  0  0  0  0
   77.2315   44.0723   -4.2068 H   0  0  0  0  0  0  0  0  0  0  0  0
  1  2  1  0
  2  3  2  0
  3  4  1  0
  4  5  1  0
  5  6  1  0
  6  7  1  0
  7  8  2  0
  8  9  1  0
  9 10  2  0
 10 11  1  0
 11 12  1  0
 11 13  2  0
 13 14  1  0
 14 15  2  0
 14 16  1  0
 16 17  1  0
  4 18  2  0
 18 19  1  0
 19 20  2  0
 20 21  1  0
 21 22  1  0
 22 23  1  0
 23 24  1  0
 24 25  1  0
 25 26  1  0
 20  2  1  0
 26 21  1  0
 16  5  2  0
 13  7  1  0
  1 27  1  0
  1 28  1  0
  1 29  1  0
  3 30  1  0
  8 31  1  0
  9 32  1  0
 10 33  1  0
 12 34  1  0
 17 35  1  0
 18 36  1  0
 19 37  1  0
 22 38  1  0
 22 39  1  0
 23 40  1  0
 23 41  1  0
 24 42  1  0
 24 43  1  0
 25 44  1  0
 25 45  1  0
 26 46  1  0
 26 47  1  0
M  END
>  <meeko>  (3) 
{"is_sidechain": [false], "free_energy": -7.79, "intermolecular_energy": -9.175, "internal_energy": -0.632}

$$$$
cand_023_out
     RDKit          3D

 47 50  0  0  0  0  0  0  0  0999 V2000
   73.7120   42.6760   -6.9340 C   0  0  0  0  0  0  0  0  0  0  0  0
   73.3420   43.0080   -5.5130 C   0  0  0  0  0  0  0  0  0  0  0  0
   73.0700   41.9670   -4.6070 C   0  0  0  0  0  0  0  0  0  0  0  0
   72.7270   42.2300   -3.2720 C   0  0  0  0  0  0  0  0  0  0  0  0
   72.4210   41.1110   -2.3560 C   0  0  0  0  0  0  0  0  0  0  0  0
   71.0660   41.0070   -2.0630 O   0  0  0  0  0  0  0  0  0  0  0  0
   70.6410   40.0080   -1.2260 C   0  0  0  0  0  0  0  0  0  0  0  0
   69.2740   39.9500   -0.9490 C   0  0  0  0  0  0  0  0  0  0  0  0
   68.7760   38.9570   -0.1040 C   0  0  0  0  0  0  0  0  0  0  0  0
   69.6430   38.0210    0.4640 C   0  0  0  0  0  0  0  0  0  0  0  0
   71.0070   38.0810    0.1870 C   0  0  0  0  0  0  0  0  0  0  0  0
   71.7990   37.1340    0.7760 O   0  0  0  0  0  0  0  0  0  0  0  0
   71.5050   39.0760   -0.6590 C   0  0  0  0  0  0  0  0  0  0  0  0
   72.9300   39.1750   -0.9770 C   0  0  0  0  0  0  0  0  0  0  0  0
   73.7550   38.3840   -0.5210 O   0  0  0  0  0  0  0  0  0  0  0  0
   73.3570   40.2700   -1.8770 C   0  0  0  0  0  0  0  0  0  0  0  0
   74.7050   40.3450   -2.1820 O   0  0  0  0  0  0  0  0  0  0  0  0
   72.6450   43.5630   -2.8580 C   0  0  0  0  0  0  0  0  0  0  0  0
   72.9160   44.6060   -3.7500 C   0  0  0  0  0  0  0  0  0  0  0  0
   73.2640   44.3480   -5.0850 C   0  0  0  0  0  0  0  0  0  0  0  0
   73.5560   45.3810   -6.0000 N   0  0  0  0  0  0  0  0  0  0  0  0
   72.4440   46.3230   -6.1960 C   0  0  0  0  0  0  0  0  0  0  0  0
   72.7750   47.2490   -7.3680 C   0  0  0  0  0  0  0  0  0  0  0  0
   74.1060   47.9630   -7.1450 C   0  0  0  0  0  0  0  0  0  0  0  0
   75.2200   46.9620   -6.8430 C   0  0  0  0  0  0  0  0  0  0  0  0
   74.8370   46.0360   -5.6880 C   0  0  0  0  0  0  0  0  0  0  0  0
   74.5307   41.9414   -6.9376 H   0  0  0  0  0  0  0  0  0  0  0  0
   72.8380   42.2535   -7.4513 H   0  0  0  0  0  0  0  0  0  0  0  0
   74.0376   43.5905   -7.4513 H   0  0  0  0  0  0  0  0  0  0  0  0
   73.1274   40.9242   -4.9525 H   0  0  0  0  0  0  0  0  0  0  0  0
   68.5900   40.6862   -1.3963 H   0  0  0  0  0  0  0  0  0  0  0  0
   67.6990   38.9116    0.1149 H   0  0  0  0  0  0  0  0  0  0  0  0
   69.2496   37.2379    1.1288 H   0  0  0  0  0  0  0  0  0  0  0  0
   72.1120   37.2620    1.6490 H   0  0  0  0  0  0  0  0  0  0  0  0
   75.1200   41.1810   -2.2610 H   0  0  0  0  0  0  0  0  0  0  0  0
   72.3644   43.7940   -1.8198 H   0  0  0  0  0  0  0  0  0  0  0  0
   72.8553   45.6467   -3.3989 H   0  0  0  0  0  0  0  0  0  0  0  0
   71.5223   45.7645   -6.4164 H   0  0  0  0  0  0  0  0  0  0  0  0
   72.2964   46.9182   -5.2828 H   0  0  0  0  0  0  0  0  0  0  0  0
   72.8371   46.6530   -8.2904 H   0  0  0  0  0  0  0  0  0  0  0  0
   71.9815   48.0064   -7.4500 H   0  0  0  0  0  0  0  0  0  0  0  0
   74.3669   48.5291   -8.0514 H   0  0  0  0  0  0  0  0  0  0  0  0
   74.0007   48.6404   -6.2848 H   0  0  0  0  0  0  0  0  0  0  0  0
   75.4097   46.3554   -7.7408 H   0  0  0  0  0  0  0  0  0  0  0  0
   76.1214   47.5225   -6.5543 H   0  0  0  0  0  0  0  0  0  0  0  0
   75.6177   45.2729   -5.5533 H   0  0  0  0  0  0  0  0  0  0  0  0
   74.7382   46.6206   -4.7615 H   0  0  0  0  0  0  0  0  0  0  0  0
  1  2  1  0
  2  3  2  0
  3  4  1  0
  4  5  1  0
  5  6  1  0
  6  7  1  0
  7  8  2  0
  8  9  1  0
  9 10  2  0
 10 11  1  0
 11 12  1  0
 11 13  2  0
 13 14  1  0
 14 15  2  0
 14 16  1  0
 16 17  1  0
  4 18  2  0
 18 19  1  0
 19 20  2  0
 20 21  1  0
 21 22  1  0
 22 23  1  0
 23 24  1  0
 24 25  1  0
 25 26  1  0
 20  2  1  0
 26 21  1  0
 16  5  2  0
 13  7  1  0
  1 27  1  0
  1 28  1  0
  1 29  1  0
  3 30  1  0
  8 31  1  0
  9 32  1  0
 10 33  1  0
 12 34  1  0
 17 35  1  0
 18 36  1  0
 19 37  1  0
 22 38  1  0
 22 39  1  0
 23 40  1  0
 23 41  1  0
 24 42  1  0
 24 43  1  0
 25 44  1  0
 25 45  1  0
 26 46  1  0
 26 47  1  0
M  END
>  <meeko>  (4) 
{"is_sidechain": [false], "free_energy": -7.728, "intermolecular_energy": -9.08, "internal_energy": -0.654}

$$$$
cand_023_out
     RDKit          3D

 47 50  0  0  0  0  0  0  0  0999 V2000
   76.2320   43.4960   -2.3920 C   0  0  0  0  0  0  0  0  0  0  0  0
   75.0620   42.8200   -3.0560 C   0  0  0  0  0  0  0  0  0  0  0  0
   74.2210   41.9870   -2.2950 C   0  0  0  0  0  0  0  0  0  0  0  0
   73.1160   41.3420   -2.8710 C   0  0  0  0  0  0  0  0  0  0  0  0
   72.2710   40.4520   -2.0470 C   0  0  0  0  0  0  0  0  0  0  0  0
   70.9280   40.8090   -2.0690 O   0  0  0  0  0  0  0  0  0  0  0  0
   70.0300   40.0660   -1.3470 C   0  0  0  0  0  0  0  0  0  0  0  0
   68.6950   40.4690   -1.3880 C   0  0  0  0  0  0  0  0  0  0  0  0
   67.7300   39.7540   -0.6760 C   0  0  0  0  0  0  0  0  0  0  0  0
   68.0980   38.6360    0.0760 C   0  0  0  0  0  0  0  0  0  0  0  0
   69.4320   38.2360    0.1150 C   0  0  0  0  0  0  0  0  0  0  0  0
   69.7250   37.1330    0.8700 O   0  0  0  0  0  0  0  0  0  0  0  0
   70.3980   38.9530   -0.5970 C   0  0  0  0  0  0  0  0  0  0  0  0
   71.8100   38.5660   -0.5840 C   0  0  0  0  0  0  0  0  0  0  0  0
   72.2110   37.5910    0.0480 O   0  0  0  0  0  0  0  0  0  0  0  0
   72.7540   39.3950   -1.3670 C   0  0  0  0  0  0  0  0  0  0  0  0
   74.0840   39.0130   -1.3570 O   0  0  0  0  0  0  0  0  0  0  0  0
   72.8720   41.5340   -4.2350 C   0  0  0  0  0  0  0  0  0  0  0  0
   73.7000   42.3620   -4.9990 C   0  0  0  0  0  0  0  0  0  0  0  0
   74.8040   43.0130   -4.4270 C   0  0  0  0  0  0  0  0  0  0  0  0
   75.6470   43.8650   -5.1730 N   0  0  0  0  0  0  0  0  0  0  0  0
   76.5260   43.1470   -6.1090 C   0  0  0  0  0  0  0  0  0  0  0  0
   77.5490   44.1280   -6.6830 C   0  0  0  0  0  0  0  0  0  0  0  0
   76.8570   45.3230   -7.3380 C   0  0  0  0  0  0  0  0  0  0  0  0
   75.8740   45.9830   -6.3720 C   0  0  0  0  0  0  0  0  0  0  0  0
   74.8910   44.9630   -5.7960 C   0  0  0  0  0  0  0  0  0  0  0  0
   76.1209   43.4318   -1.2995 H   0  0  0  0  0  0  0  0  0  0  0  0
   77.1643   42.9974   -2.6957 H   0  0  0  0  0  0  0  0  0  0  0  0
   76.2656   44.5527   -2.6957 H   0  0  0  0  0  0  0  0  0  0  0  0
   74.4344   41.8384   -1.2262 H   0  0  0  0  0  0  0  0  0  0  0  0
   68.4031   41.3487   -1.9804 H   0  0  0  0  0  0  0  0  0  0  0  0
   66.6774   40.0719   -0.7074 H   0  0  0  0  0  0  0  0  0  0  0  0
   67.3367   38.0729    0.6359 H   0  0  0  0  0  0  0  0  0  0  0  0
   69.6420   36.2770    0.5000 H   0  0  0  0  0  0  0  0  0  0  0  0
   74.3100   38.1110   -1.2390 H   0  0  0  0  0  0  0  0  0  0  0  0
   72.0195   41.0281   -4.7117 H   0  0  0  0  0  0  0  0  0  0  0  0
   73.4822   42.5058   -6.0676 H   0  0  0  0  0  0  0  0  0  0  0  0
   77.0486   42.3381   -5.5774 H   0  0  0  0  0  0  0  0  0  0  0  0
   75.9271   42.7151   -6.9243 H   0  0  0  0  0  0  0  0  0  0  0  0
   78.1963   44.4888   -5.8701 H   0  0  0  0  0  0  0  0  0  0  0  0
   78.1434   43.6060   -7.4474 H   0  0  0  0  0  0  0  0  0  0  0  0
   77.6173   46.0597   -7.6368 H   0  0  0  0  0  0  0  0  0  0  0  0
   76.2994   44.9669   -8.2168 H   0  0  0  0  0  0  0  0  0  0  0  0
   76.4371   46.4434   -5.5468 H   0  0  0  0  0  0  0  0  0  0  0  0
   75.3018   46.7428   -6.9244 H   0  0  0  0  0  0  0  0  0  0  0  0
   74.2566   45.4489   -5.0400 H   0  0  0  0  0  0  0  0  0  0  0  0
   74.2552   44.5655   -6.6008 H   0  0  0  0  0  0  0  0  0  0  0  0
  1  2  1  0
  2  3  2  0
  3  4  1  0
  4  5  1  0
  5  6  1  0
  6  7  1  0
  7  8  2  0
  8  9  1  0
  9 10  2  0
 10 11  1  0
 11 12  1  0
 11 13  2  0
 13 14  1  0
 14 15  2  0
 14 16  1  0
 16 17  1  0
  4 18  2  0
 18 19  1  0
 19 20  2  0
 20 21  1  0
 21 22  1  0
 22 23  1  0
 23 24  1  0
 24 25  1  0
 25 26  1  0
 20  2  1  0
 26 21  1  0
 16  5  2  0
 13  7  1  0
  1 27  1  0
  1 28  1  0
  1 29  1  0
  3 30  1  0
  8 31  1  0
  9 32  1  0
 10 33  1  0
 12 34  1  0
 17 35  1  0
 18 36  1  0
 19 37  1  0
 22 38  1  0
 22 39  1  0
 23 40  1  0
 23 41  1  0
 24 42  1  0
 24 43  1  0
 25 44  1  0
 25 45  1  0
 26 46  1  0
 26 47  1  0
M  END
>  <meeko>  (5) 
{"is_sidechain": [false], "free_energy": -7.716, "intermolecular_energy": -9.212, "internal_energy": -0.507}

$$$$
cand_023_out
     RDKit          3D

 47 50  0  0  0  0  0  0  0  0999 V2000
   73.7210   42.6090   -6.3460 C   0  0  0  0  0  0  0  0  0  0  0  0
   73.9830   42.3590   -4.8850 C   0  0  0  0  0  0  0  0  0  0  0  0
   73.0610   41.6070   -4.1350 C   0  0  0  0  0  0  0  0  0  0  0  0
   73.2670   41.3450   -2.7720 C   0  0  0  0  0  0  0  0  0  0  0  0
   72.2620   40.5740   -2.0100 C   0  0  0  0  0  0  0  0  0  0  0  0
   72.8080   39.4830   -1.3440 O   0  0  0  0  0  0  0  0  0  0  0  0
   71.9870   38.6810   -0.5960 C   0  0  0  0  0  0  0  0  0  0  0  0
   72.5760   37.5900    0.0440 C   0  0  0  0  0  0  0  0  0  0  0  0
   71.7950   36.7350    0.8230 C   0  0  0  0  0  0  0  0  0  0  0  0
   70.4250   36.9690    0.9630 C   0  0  0  0  0  0  0  0  0  0  0  0
   69.8390   38.0580    0.3230 C   0  0  0  0  0  0  0  0  0  0  0  0
   68.4940   38.2300    0.5020 O   0  0  0  0  0  0  0  0  0  0  0  0
   70.6210   38.9140   -0.4570 C   0  0  0  0  0  0  0  0  0  0  0  0
   70.0460   40.0710   -1.1460 C   0  0  0  0  0  0  0  0  0  0  0  0
   68.8500   40.3470   -1.0660 O   0  0  0  0  0  0  0  0  0  0  0  0
   70.9590   40.9110   -1.9530 C   0  0  0  0  0  0  0  0  0  0  0  0
   70.4070   42.0090   -2.5890 O   0  0  0  0  0  0  0  0  0  0  0  0
   74.4140   41.8640   -2.1630 C   0  0  0  0  0  0  0  0  0  0  0  0
   75.3390   42.6110   -2.9000 C   0  0  0  0  0  0  0  0  0  0  0  0
   75.1380   42.8720   -4.2640 C   0  0  0  0  0  0  0  0  0  0  0  0
   76.0630   43.6110   -5.0330 N   0  0  0  0  0  0  0  0  0  0  0  0
   76.2000   45.0100   -4.6010 C   0  0  0  0  0  0  0  0  0  0  0  0
   77.0320   45.7710   -5.6340 C   0  0  0  0  0  0  0  0  0  0  0  0
   78.3860   45.0980   -5.8540 C   0  0  0  0  0  0  0  0  0  0  0  0
   78.2110   43.6200   -6.2010 C   0  0  0  0  0  0  0  0  0  0  0  0
   77.3480   42.9040   -5.1620 C   0  0  0  0  0  0  0  0  0  0  0  0
   72.9289   43.3648   -6.4524 H   0  0  0  0  0  0  0  0  0  0  0  0
   74.6413   42.9722   -6.8267 H   0  0  0  0  0  0  0  0  0  0  0  0
   73.4013   41.6726   -6.8267 H   0  0  0  0  0  0  0  0  0  0  0  0
   72.1587   41.2157   -4.6277 H   0  0  0  0  0  0  0  0  0  0  0  0
   73.6546   37.4040   -0.0653 H   0  0  0  0  0  0  0  0  0  0  0  0
   72.2593   35.8750    1.3278 H   0  0  0  0  0  0  0  0  0  0  0  0
   69.8105   36.2945    1.5774 H   0  0  0  0  0  0  0  0  0  0  0  0
   68.0650   38.9800    0.1410 H   0  0  0  0  0  0  0  0  0  0  0  0
   69.6250   42.4000   -2.2520 H   0  0  0  0  0  0  0  0  0  0  0  0
   74.5908   41.6828   -1.0925 H   0  0  0  0  0  0  0  0  0  0  0  0
   76.2391   43.0004   -2.4019 H   0  0  0  0  0  0  0  0  0  0  0  0
   75.2041   45.4697   -4.5186 H   0  0  0  0  0  0  0  0  0  0  0  0
   76.6980   45.0492   -3.6210 H   0  0  0  0  0  0  0  0  0  0  0  0
   76.4845   45.7968   -6.5877 H   0  0  0  0  0  0  0  0  0  0  0  0
   77.2055   46.7908   -5.2600 H   0  0  0  0  0  0  0  0  0  0  0  0
   78.9088   45.6023   -6.6801 H   0  0  0  0  0  0  0  0  0  0  0  0
   78.9709   45.1739   -4.9255 H   0  0  0  0  0  0  0  0  0  0  0  0
   77.7281   43.5379   -7.1859 H   0  0  0  0  0  0  0  0  0  0  0  0
   79.2037   43.1464   -6.2137 H   0  0  0  0  0  0  0  0  0  0  0  0
   77.1676   41.8678   -5.4841 H   0  0  0  0  0  0  0  0  0  0  0  0
   77.8660   42.8968   -4.1916 H   0  0  0  0  0  0  0  0  0  0  0  0
  1  2  1  0
  2  3  2  0
  3  4  1  0
  4  5  1  0
  5  6  1  0
  6  7  1  0
  7  8  2  0
  8  9  1  0
  9 10  2  0
 10 11  1  0
 11 12  1  0
 11 13  2  0
 13 14  1  0
 14 15  2  0
 14 16  1  0
 16 17  1  0
  4 18  2  0
 18 19  1  0
 19 20  2  0
 20 21  1  0
 21 22  1  0
 22 23  1  0
 23 24  1  0
 24 25  1  0
 25 26  1  0
 20  2  1  0
 26 21  1  0
 16  5  2  0
 13  7  1  0
  1 27  1  0
  1 28  1  0
  1 29  1  0
  3 30  1  0
  8 31  1  0
  9 32  1  0
 10 33  1  0
 12 34  1  0
 17 35  1  0
 18 36  1  0
 19 37  1  0
 22 38  1  0
 22 39  1  0
 23 40  1  0
 23 41  1  0
 24 42  1  0
 24 43  1  0
 25 44  1  0
 25 45  1  0
 26 46  1  0
 26 47  1  0
M  END
>  <meeko>  (6) 
{"is_sidechain": [false], "free_energy": -7.653, "intermolecular_energy": -9.152, "internal_energy": -0.494}

$$$$
cand_023_out
     RDKit          3D

 47 50  0  0  0  0  0  0  0  0999 V2000
   71.0670   43.6770   -5.5280 C   0  0  0  0  0  0  0  0  0  0  0  0
   69.9120   43.1080   -4.7490 C   0  0  0  0  0  0  0  0  0  0  0  0
   70.1520   42.1120   -3.7840 C   0  0  0  0  0  0  0  0  0  0  0  0
   69.1060   41.5560   -3.0310 C   0  0  0  0  0  0  0  0  0  0  0  0
   69.3930   40.4930   -2.0460 C   0  0  0  0  0  0  0  0  0  0  0  0
   70.7310   40.1160   -2.0310 O   0  0  0  0  0  0  0  0  0  0  0  0
   71.1370   39.1380   -1.1610 C   0  0  0  0  0  0  0  0  0  0  0  0
   72.4860   38.7820   -1.1900 C   0  0  0  0  0  0  0  0  0  0  0  0
   72.9640   37.7940   -0.3280 C   0  0  0  0  0  0  0  0  0  0  0  0
   72.0950   37.1610    0.5640 C   0  0  0  0  0  0  0  0  0  0  0  0
   70.7490   37.5180    0.5910 C   0  0  0  0  0  0  0  0  0  0  0  0
   69.9540   36.8590    1.4880 O   0  0  0  0  0  0  0  0  0  0  0  0
   70.2700   38.5070   -0.2730 C   0  0  0  0  0  0  0  0  0  0  0  0
   68.8640   38.9120   -0.2760 C   0  0  0  0  0  0  0  0  0  0  0  0
   68.0390   38.4070    0.4830 O   0  0  0  0  0  0  0  0  0  0  0  0
   68.4570   39.9650   -1.2350 C   0  0  0  0  0  0  0  0  0  0  0  0
   67.1280   40.3490   -1.2200 O   0  0  0  0  0  0  0  0  0  0  0  0
   67.8040   42.0070   -3.2720 C   0  0  0  0  0  0  0  0  0  0  0  0
   67.5550   42.9980   -4.2270 C   0  0  0  0  0  0  0  0  0  0  0  0
   68.5980   43.5590   -4.9790 C   0  0  0  0  0  0  0  0  0  0  0  0
   68.3760   44.5700   -5.9380 N   0  0  0  0  0  0  0  0  0  0  0  0
   67.3150   44.2400   -6.9030 C   0  0  0  0  0  0  0  0  0  0  0  0
   67.3200   45.2800   -8.0240 C   0  0  0  0  0  0  0  0  0  0  0  0
   67.1730   46.6930   -7.4630 C   0  0  0  0  0  0  0  0  0  0  0  0
   68.2260   46.9680   -6.3900 C   0  0  0  0  0  0  0  0  0  0  0  0
   68.2090   45.8890   -5.3070 C   0  0  0  0  0  0  0  0  0  0  0  0
   71.8300   44.0529   -4.8305 H   0  0  0  0  0  0  0  0  0  0  0  0
   71.5045   42.8913   -6.1615 H   0  0  0  0  0  0  0  0  0  0  0  0
   70.7107   44.5027   -6.1615 H   0  0  0  0  0  0  0  0  0  0  0  0
   71.1812   41.7618   -3.6163 H   0  0  0  0  0  0  0  0  0  0  0  0
   73.1718   39.2796   -1.8915 H   0  0  0  0  0  0  0  0  0  0  0  0
   74.0273   37.5131   -0.3510 H   0  0  0  0  0  0  0  0  0  0  0  0
   72.4728   36.3826    1.2433 H   0  0  0  0  0  0  0  0  0  0  0  0
   69.3550   36.2040    1.1900 H   0  0  0  0  0  0  0  0  0  0  0  0
   66.4600   39.7150   -1.0480 H   0  0  0  0  0  0  0  0  0  0  0  0
   66.9660   41.5771   -2.7037 H   0  0  0  0  0  0  0  0  0  0  0  0
   66.5237   43.3435   -4.3913 H   0  0  0  0  0  0  0  0  0  0  0  0
   67.4987   43.2413   -7.3258 H   0  0  0  0  0  0  0  0  0  0  0  0
   66.3383   44.2439   -6.3970 H   0  0  0  0  0  0  0  0  0  0  0  0
   68.2691   45.2093   -8.5756 H   0  0  0  0  0  0  0  0  0  0  0  0
   66.4692   45.0786   -8.6916 H   0  0  0  0  0  0  0  0  0  0  0  0
   67.2941   47.4191   -8.2804 H   0  0  0  0  0  0  0  0  0  0  0  0
   66.1759   46.7878   -7.0083 H   0  0  0  0  0  0  0  0  0  0  0  0
   69.2202   46.9883   -6.8603 H   0  0  0  0  0  0  0  0  0  0  0  0
   67.9986   47.9361   -5.9198 H   0  0  0  0  0  0  0  0  0  0  0  0
   69.0319   46.0652   -4.5987 H   0  0  0  0  0  0  0  0  0  0  0  0
   67.2518   45.9223   -4.7660 H   0  0  0  0  0  0  0  0  0  0  0  0
  1  2  1  0
  2  3  2  0
  3  4  1  0
  4  5  1  0
  5  6  1  0
  6  7  1  0
  7  8  2  0
  8  9  1  0
  9 10  2  0
 10 11  1  0
 11 12  1  0
 11 13  2  0
 13 14  1  0
 14 15  2  0
 14 16  1  0
 16 17  1  0
  4 18  2  0
 18 19  1  0
 19 20  2  0
 20 21  1  0
 21 22  1  0
 22 23  1  0
 23 24  1  0
 24 25  1  0
 25 26  1  0
 20  2  1  0
 26 21  1  0
 16  5  2  0
 13  7  1  0
  1 27  1  0
  1 28  1  0
  1 29  1  0
  3 30  1  0
  8 31  1  0
  9 32  1  0
 10 33  1  0
 12 34  1  0
 17 35  1  0
 18 36  1  0
 19 37  1  0
 22 38  1  0
 22 39  1  0
 23 40  1  0
 23 41  1  0
 24 42  1  0
 24 43  1  0
 25 44  1  0
 25 45  1  0
 26 46  1  0
 26 47  1  0
M  END
>  <meeko>  (7) 
{"is_sidechain": [false], "free_energy": -7.547, "intermolecular_energy": -9.469, "internal_energy": -0.052}

$$$$
cand_023_out
     RDKit          3D

 47 50  0  0  0  0  0  0  0  0999 V2000
   70.7290   44.4240   -5.5550 C   0  0  0  0  0  0  0  0  0  0  0  0
   69.8770   43.4540   -4.7810 C   0  0  0  0  0  0  0  0  0  0  0  0
   70.4950   42.4570   -4.0030 C   0  0  0  0  0  0  0  0  0  0  0  0
   69.7410   41.5350   -3.2620 C   0  0  0  0  0  0  0  0  0  0  0  0
   70.4250   40.4850   -2.4790 C   0  0  0  0  0  0  0  0  0  0  0  0
   69.7580   40.1680   -1.3010 O   0  0  0  0  0  0  0  0  0  0  0  0
   70.2830   39.2060   -0.4780 C   0  0  0  0  0  0  0  0  0  0  0  0
   69.5870   38.9290    0.7000 C   0  0  0  0  0  0  0  0  0  0  0  0
   70.0670   37.9590    1.5810 C   0  0  0  0  0  0  0  0  0  0  0  0
   71.2420   37.2640    1.2860 C   0  0  0  0  0  0  0  0  0  0  0  0
   71.9350   37.5420    0.1110 C   0  0  0  0  0  0  0  0  0  0  0  0
   73.0780   36.8260   -0.1170 O   0  0  0  0  0  0  0  0  0  0  0  0
   71.4540   38.5140   -0.7720 C   0  0  0  0  0  0  0  0  0  0  0  0
   72.1510   38.8360   -2.0180 C   0  0  0  0  0  0  0  0  0  0  0  0
   73.1870   38.2640   -2.3500 O   0  0  0  0  0  0  0  0  0  0  0  0
   71.5620   39.8860   -2.8800 C   0  0  0  0  0  0  0  0  0  0  0  0
   72.2220   40.1730   -4.0610 O   0  0  0  0  0  0  0  0  0  0  0  0
   68.3460   41.6180   -3.3230 C   0  0  0  0  0  0  0  0  0  0  0  0
   67.7220   42.6060   -4.0910 C   0  0  0  0  0  0  0  0  0  0  0  0
   68.4720   43.5330   -4.8310 C   0  0  0  0  0  0  0  0  0  0  0  0
   67.8660   44.5480   -5.6010 N   0  0  0  0  0  0  0  0  0  0  0  0
   67.3140   44.0660   -6.8770 C   0  0  0  0  0  0  0  0  0  0  0  0
   66.9020   45.2680   -7.7270 C   0  0  0  0  0  0  0  0  0  0  0  0
   65.9220   46.1650   -6.9740 C   0  0  0  0  0  0  0  0  0  0  0  0
   66.4830   46.5640   -5.6100 C   0  0  0  0  0  0  0  0  0  0  0  0
   66.9120   45.3370   -4.8050 C   0  0  0  0  0  0  0  0  0  0  0  0
   71.2884   45.0609   -4.8540 H   0  0  0  0  0  0  0  0  0  0  0  0
   71.4354   43.8672   -6.1883 H   0  0  0  0  0  0  0  0  0  0  0  0
   70.0858   45.0527   -6.1883 H   0  0  0  0  0  0  0  0  0  0  0  0
   71.5932   42.3996   -3.9755 H   0  0  0  0  0  0  0  0  0  0  0  0
   68.6610   39.4749    0.9336 H   0  0  0  0  0  0  0  0  0  0  0  0
   69.5189   37.7414    2.5096 H   0  0  0  0  0  0  0  0  0  0  0  0
   71.6190   36.4987    1.9805 H   0  0  0  0  0  0  0  0  0  0  0  0
   73.5490   36.9380   -0.9180 H   0  0  0  0  0  0  0  0  0  0  0  0
   71.9920   39.7190   -4.8480 H   0  0  0  0  0  0  0  0  0  0  0  0
   67.7331   40.8982   -2.7607 H   0  0  0  0  0  0  0  0  0  0  0  0
   66.6235   42.6575   -4.1156 H   0  0  0  0  0  0  0  0  0  0  0  0
   68.0769   43.4807   -7.4112 H   0  0  0  0  0  0  0  0  0  0  0  0
   66.4382   43.4285   -6.6858 H   0  0  0  0  0  0  0  0  0  0  0  0
   67.7989   45.8513   -7.9828 H   0  0  0  0  0  0  0  0  0  0  0  0
   66.4079   44.8985   -8.6376 H   0  0  0  0  0  0  0  0  0  0  0  0
   65.7371   47.0731   -7.5666 H   0  0  0  0  0  0  0  0  0  0  0  0
   64.9856   45.6090   -6.8191 H   0  0  0  0  0  0  0  0  0  0  0  0
   67.3550   47.2178   -5.7586 H   0  0  0  0  0  0  0  0  0  0  0  0
   65.6944   47.0881   -5.0502 H   0  0  0  0  0  0  0  0  0  0  0  0
   67.3916   45.6597   -3.8691 H   0  0  0  0  0  0  0  0  0  0  0  0
   66.0307   44.7230   -4.5675 H   0  0  0  0  0  0  0  0  0  0  0  0
  1  2  1  0
  2  3  2  0
  3  4  1  0
  4  5  1  0
  5  6  1  0
  6  7  1  0
  7  8  2  0
  8  9  1  0
  9 10  2  0
 10 11  1  0
 11 12  1  0
 11 13  2  0
 13 14  1  0
 14 15  2  0
 14 16  1  0
 16 17  1  0
  4 18  2  0
 18 19  1  0
 19 20  2  0
 20 21  1  0
 21 22  1  0
 22 23  1  0
 23 24  1  0
 24 25  1  0
 25 26  1  0
 20  2  1  0
 26 21  1  0
 16  5  2  0
 13  7  1  0
  1 27  1  0
  1 28  1  0
  1 29  1  0
  3 30  1  0
  8 31  1  0
  9 32  1  0
 10 33  1  0
 12 34  1  0
 17 35  1  0
 18 36  1  0
 19 37  1  0
 22 38  1  0
 22 39  1  0
 23 40  1  0
 23 41  1  0
 24 42  1  0
 24 43  1  0
 25 44  1  0
 25 45  1  0
 26 46  1  0
 26 47  1  0
M  END
>  <meeko>  (8) 
{"is_sidechain": [false], "free_energy": -7.466, "intermolecular_energy": -9.185, "internal_energy": -0.241}

$$$$
cand_023_out
     RDKit          3D

 47 50  0  0  0  0  0  0  0  0999 V2000
   69.5720   43.8000   -5.9730 C   0  0  0  0  0  0  0  0  0  0  0  0
   70.4600   43.5850   -4.7770 C   0  0  0  0  0  0  0  0  0  0  0  0
   70.2540   42.4610   -3.9550 C   0  0  0  0  0  0  0  0  0  0  0  0
   71.0610   42.2170   -2.8330 C   0  0  0  0  0  0  0  0  0  0  0  0
   70.7970   41.0410   -1.9780 C   0  0  0  0  0  0  0  0  0  0  0  0
   71.9420   40.3010   -1.7090 O   0  0  0  0  0  0  0  0  0  0  0  0
   71.8400   39.1820   -0.9240 C   0  0  0  0  0  0  0  0  0  0  0  0
   73.0130   38.4610   -0.6910 C   0  0  0  0  0  0  0  0  0  0  0  0
   72.9790   37.3130    0.1020 C   0  0  0  0  0  0  0  0  0  0  0  0
   71.7740   36.8840    0.6630 C   0  0  0  0  0  0  0  0  0  0  0  0
   70.6050   37.6040    0.4280 C   0  0  0  0  0  0  0  0  0  0  0  0
   69.4600   37.1290    1.0080 O   0  0  0  0  0  0  0  0  0  0  0  0
   70.6390   38.7540   -0.3660 C   0  0  0  0  0  0  0  0  0  0  0  0
   69.4350   39.5400   -0.6360 C   0  0  0  0  0  0  0  0  0  0  0  0
   68.3380   39.2310   -0.1730 O   0  0  0  0  0  0  0  0  0  0  0  0
   69.5770   40.7380   -1.4950 C   0  0  0  0  0  0  0  0  0  0  0  0
   68.4340   41.4800   -1.7320 O   0  0  0  0  0  0  0  0  0  0  0  0
   72.0770   43.1320   -2.5360 C   0  0  0  0  0  0  0  0  0  0  0  0
   72.2920   44.2500   -3.3480 C   0  0  0  0  0  0  0  0  0  0  0  0
   71.4900   44.4960   -4.4730 C   0  0  0  0  0  0  0  0  0  0  0  0
   71.6950   45.6090   -5.3160 N   0  0  0  0  0  0  0  0  0  0  0  0
   71.2400   46.8800   -4.7300 C   0  0  0  0  0  0  0  0  0  0  0  0
   71.2870   47.9680   -5.8040 C   0  0  0  0  0  0  0  0  0  0  0  0
   72.6840   48.0780   -6.4130 C   0  0  0  0  0  0  0  0  0  0  0  0
   73.1690   46.7200   -6.9190 C   0  0  0  0  0  0  0  0  0  0  0  0
   73.0750   45.6550   -5.8260 C   0  0  0  0  0  0  0  0  0  0  0  0
   68.5547   44.0463   -5.6348 H   0  0  0  0  0  0  0  0  0  0  0  0
   69.9675   44.6283   -6.5792 H   0  0  0  0  0  0  0  0  0  0  0  0
   69.5448   42.8825   -6.5792 H   0  0  0  0  0  0  0  0  0  0  0  0
   69.4429   41.7586   -4.1973 H   0  0  0  0  0  0  0  0  0  0  0  0
   73.9629   38.7975   -1.1320 H   0  0  0  0  0  0  0  0  0  0  0  0
   73.9030   36.7450    0.2855 H   0  0  0  0  0  0  0  0  0  0  0  0
   71.7482   35.9798    1.2889 H   0  0  0  0  0  0  0  0  0  0  0  0
   69.5120   36.5460    1.7390 H   0  0  0  0  0  0  0  0  0  0  0  0
   68.3640   42.3510   -1.3940 H   0  0  0  0  0  0  0  0  0  0  0  0
   72.7138   42.9701   -1.6538 H   0  0  0  0  0  0  0  0  0  0  0  0
   73.1043   44.9492   -3.1005 H   0  0  0  0  0  0  0  0  0  0  0  0
   70.2092   46.7687   -4.3625 H   0  0  0  0  0  0  0  0  0  0  0  0
   71.8943   47.1577   -3.8905 H   0  0  0  0  0  0  0  0  0  0  0  0
   70.5671   47.7206   -6.5981 H   0  0  0  0  0  0  0  0  0  0  0  0
   71.0317   48.9311   -5.3379 H   0  0  0  0  0  0  0  0  0  0  0  0
   72.6550   48.7860   -7.2544 H   0  0  0  0  0  0  0  0  0  0  0  0
   73.3783   48.4310   -5.6362 H   0  0  0  0  0  0  0  0  0  0  0  0
   72.5476   46.4129   -7.7731 H   0  0  0  0  0  0  0  0  0  0  0  0
   74.2226   46.8172   -7.2198 H   0  0  0  0  0  0  0  0  0  0  0  0
   73.3464   44.6740   -6.2432 H   0  0  0  0  0  0  0  0  0  0  0  0
   73.7651   45.9033   -5.0062 H   0  0  0  0  0  0  0  0  0  0  0  0
  1  2  1  0
  2  3  2  0
  3  4  1  0
  4  5  1  0
  5  6  1  0
  6  7  1  0
  7  8  2  0
  8  9  1  0
  9 10  2  0
 10 11  1  0
 11 12  1  0
 11 13  2  0
 13 14  1  0
 14 15  2  0
 14 16  1  0
 16 17  1  0
  4 18  2  0
 18 19  1  0
 19 20  2  0
 20 21  1  0
 21 22  1  0
 22 23  1  0
 23 24  1  0
 24 25  1  0
 25 26  1  0
 20  2  1  0
 26 21  1  0
 16  5  2  0
 13  7  1  0
  1 27  1  0
  1 28  1  0
  1 29  1  0
  3 30  1  0
  8 31  1  0
  9 32  1  0
 10 33  1  0
 12 34  1  0
 17 35  1  0
 18 36  1  0
 19 37  1  0
 22 38  1  0
 22 39  1  0
 23 40  1  0
 23 41  1  0
 24 42  1  0
 24 43  1  0
 25 44  1  0
 25 45  1  0
 26 46  1  0
 26 47  1  0
M  END
>  <meeko>  (9) 
{"is_sidechain": [false], "free_energy": -7.432, "intermolecular_energy": -8.959, "internal_energy": -0.427}

$$$$
