cand_039_out
     RDKit          3D

 41 43  0  0  0  0  0  0  0  0999 V2000
   66.5930   39.3700   -1.1050 C   0  0  0  0  0  0  0  0  0  0  0  0
   67.7510   38.9890   -0.1930 C   0  0  0  0  0  0  0  0  0  0  0  0
   69.0500   39.6200   -0.6370 C   0  0  0  0  0  0  0  0  0  0  0  0
   69.0250   40.4620   -1.7620 C   0  0  0  0  0  0  0  0  0  0  0  0
   70.1870   41.0860   -2.2240 C   0  0  0  0  0  0  0  0  0  0  0  0
   71.4100   40.8830   -1.5790 C   0  0  0  0  0  0  0  0  0  0  0  0
   72.6250   41.5680   -2.0700 C   0  0  0  0  0  0  0  0  0  0  0  0
   72.3850   42.8800   -2.4600 O   0  0  0  0  0  0  0  0  0  0  0  0
   73.4280   43.6330   -2.9360 C   0  0  0  0  0  0  0  0  0  0  0  0
   73.1450   44.9490   -3.3010 C   0  0  0  0  0  0  0  0  0  0  0  0
   74.1620   45.7690   -3.7960 C   0  0  0  0  0  0  0  0  0  0  0  0
   75.4600   45.2720   -3.9260 C   0  0  0  0  0  0  0  0  0  0  0  0
   75.7400   43.9580   -3.5610 C   0  0  0  0  0  0  0  0  0  0  0  0
   77.0320   43.5360   -3.7130 O   0  0  0  0  0  0  0  0  0  0  0  0
   74.7220   43.1380   -3.0640 C   0  0  0  0  0  0  0  0  0  0  0  0
   74.9730   41.7510   -2.6700 C   0  0  0  0  0  0  0  0  0  0  0  0
   76.0880   41.2400   -2.7620 O   0  0  0  0  0  0  0  0  0  0  0  0
   73.8280   40.9690   -2.1490 C   0  0  0  0  0  0  0  0  0  0  0  0
   74.0740   39.6570   -1.7920 O   0  0  0  0  0  0  0  0  0  0  0  0
   71.4340   40.0570   -0.4470 C   0  0  0  0  0  0  0  0  0  0  0  0
   70.2710   39.4240    0.0390 C   0  0  0  0  0  0  0  0  0  0  0  0
   70.4060   38.5320    1.2530 C   0  0  0  0  0  0  0  0  0  0  0  0
   70.7340   37.0960    0.8700 C   0  0  0  0  0  0  0  0  0  0  0  0
   65.7240   39.6559   -0.4942 H   0  0  0  0  0  0  0  0  0  0  0  0
   66.8899   40.2178   -1.7399 H   0  0  0  0  0  0  0  0  0  0  0  0
   66.3285   38.5115   -1.7399 H   0  0  0  0  0  0  0  0  0  0  0  0
   67.5237   39.3251    0.8294 H   0  0  0  0  0  0  0  0  0  0  0  0
   67.8716   37.8964   -0.2340 H   0  0  0  0  0  0  0  0  0  0  0  0
   68.0742   40.6329   -2.2881 H   0  0  0  0  0  0  0  0  0  0  0  0
   70.1385   41.7437   -3.1044 H   0  0  0  0  0  0  0  0  0  0  0  0
   72.1222   45.3408   -3.1992 H   0  0  0  0  0  0  0  0  0  0  0  0
   73.9398   46.8072   -4.0836 H   0  0  0  0  0  0  0  0  0  0  0  0
   76.2605   45.9177   -4.3163 H   0  0  0  0  0  0  0  0  0  0  0  0
   77.5370   43.2940   -2.9620 H   0  0  0  0  0  0  0  0  0  0  0  0
   74.1200   38.9920   -2.4510 H   0  0  0  0  0  0  0  0  0  0  0  0
   72.3876   39.8977    0.0777 H   0  0  0  0  0  0  0  0  0  0  0  0
   71.2114   38.9220    1.8928 H   0  0  0  0  0  0  0  0  0  0  0  0
   69.4424   38.5311    1.7836 H   0  0  0  0  0  0  0  0  0  0  0  0
   70.8711   36.4956    1.7814 H   0  0  0  0  0  0  0  0  0  0  0  0
   69.9084   36.6773    0.2759 H   0  0  0  0  0  0  0  0  0  0  0  0
   71.6596   37.0773    0.2759 H   0  0  0  0  0  0  0  0  0  0  0  0
  1  2  1  0
  2  3  1  0
  3  4  2  0
  4  5  1  0
  5  6  2  0
  6  7  1  0
  7  8  1  0
  8  9  1  0
  9 10  2  0
 10 11  1  0
 11 12  2  0
 12 13  1  0
 13 14  1  0
 13 15  2  0
 15 16  1  0
 16 17  2  0
 16 18  1  0
 18 19  1  0
  6 20  1  0
 20 21  2  0
 21 22  1  0
 22 23  1  0
 21  3  1  0
 18  7  2  0
 15  9  1  0
  1 24  1  0
  1 25  1  0
  1 26  1  0
  2 27  1  0
  2 28  1  0
  4 29  1  0
  5 30  1  0
 10 31  1  0
 11 32  1  0
 12 33  1  0
 14 34  1  0
 19 35  1  0
 20 36  1  0
 22 37  1  0
 22 38  1  0
 23 39  1  0
 23 40  1  0
 23 41  1  0
M  END
>  <meeko>  (1) 
{"is_sidechain": [false], "free_energy": -7.823, "intermolecular_energy": -9.653, "internal_energy": -0.293}

$$$$
cand_039_out
     RDKit          3D

 41 43  0  0  0  0  0  0  0  0999 V2000
   75.8220   42.7880   -6.8380 C   0  0  0  0  0  0  0  0  0  0  0  0
   75.0770   43.6960   -5.8710 C   0  0  0  0  0  0  0  0  0  0  0  0
   74.2530   42.9100   -4.8780 C   0  0  0  0  0  0  0  0  0  0  0  0
   73.1350   42.2060   -5.3570 C   0  0  0  0  0  0  0  0  0  0  0  0
   72.3340   41.4510   -4.4980 C   0  0  0  0  0  0  0  0  0  0  0  0
   72.6210   41.3800   -3.1320 C   0  0  0  0  0  0  0  0  0  0  0  0
   71.7740   40.5580   -2.2410 C   0  0  0  0  0  0  0  0  0  0  0  0
   72.4600   39.4890   -1.6790 O   0  0  0  0  0  0  0  0  0  0  0  0
   71.7920   38.6440   -0.8300 C   0  0  0  0  0  0  0  0  0  0  0  0
   72.5240   37.5930   -0.2760 C   0  0  0  0  0  0  0  0  0  0  0  0
   71.9020   36.6950    0.5950 C   0  0  0  0  0  0  0  0  0  0  0  0
   70.5500   36.8470    0.9110 C   0  0  0  0  0  0  0  0  0  0  0  0
   69.8230   37.8960    0.3560 C   0  0  0  0  0  0  0  0  0  0  0  0
   68.5040   37.9870    0.7070 O   0  0  0  0  0  0  0  0  0  0  0  0
   70.4450   38.7960   -0.5150 C   0  0  0  0  0  0  0  0  0  0  0  0
   69.7170   39.9120   -1.1190 C   0  0  0  0  0  0  0  0  0  0  0  0
   68.5240   40.1080   -0.8960 O   0  0  0  0  0  0  0  0  0  0  0  0
   70.4700   40.8130   -2.0220 C   0  0  0  0  0  0  0  0  0  0  0  0
   69.7690   41.8560   -2.5980 O   0  0  0  0  0  0  0  0  0  0  0  0
   73.7460   42.0670   -2.6550 C   0  0  0  0  0  0  0  0  0  0  0  0
   74.5720   42.8290   -3.5070 C   0  0  0  0  0  0  0  0  0  0  0  0
   75.7470   43.5530   -2.8910 C   0  0  0  0  0  0  0  0  0  0  0  0
   76.3270   42.7910   -1.7080 C   0  0  0  0  0  0  0  0  0  0  0  0
   76.4197   42.0596   -6.2704 H   0  0  0  0  0  0  0  0  0  0  0  0
   75.0981   42.2543   -7.4714 H   0  0  0  0  0  0  0  0  0  0  0  0
   76.4868   43.3937   -7.4714 H   0  0  0  0  0  0  0  0  0  0  0  0
   75.8088   44.3061   -5.3213 H   0  0  0  0  0  0  0  0  0  0  0  0
   74.3925   44.3275   -6.4564 H   0  0  0  0  0  0  0  0  0  0  0  0
   72.8866   42.2506   -6.4276 H   0  0  0  0  0  0  0  0  0  0  0  0
   71.4675   40.9061   -4.9008 H   0  0  0  0  0  0  0  0  0  0  0  0
   73.5887   37.4718   -0.5246 H   0  0  0  0  0  0  0  0  0  0  0  0
   72.4782   35.8666    1.0328 H   0  0  0  0  0  0  0  0  0  0  0  0
   70.0611   36.1394    1.5968 H   0  0  0  0  0  0  0  0  0  0  0  0
   68.2160   37.6580    1.5360 H   0  0  0  0  0  0  0  0  0  0  0  0
   70.2250   42.6160   -2.9020 H   0  0  0  0  0  0  0  0  0  0  0  0
   73.9918   42.0100   -1.5843 H   0  0  0  0  0  0  0  0  0  0  0  0
   76.5298   43.6741   -3.6542 H   0  0  0  0  0  0  0  0  0  0  0  0
   75.3932   44.5289   -2.5272 H   0  0  0  0  0  0  0  0  0  0  0  0
   75.9785   43.2488   -0.7705 H   0  0  0  0  0  0  0  0  0  0  0  0
   75.9962   41.7427   -1.7493 H   0  0  0  0  0  0  0  0  0  0  0  0
   77.4255   42.8307   -1.7493 H   0  0  0  0  0  0  0  0  0  0  0  0
  1  2  1  0
  2  3  1  0
  3  4  2  0
  4  5  1  0
  5  6  2  0
  6  7  1  0
  7  8  1  0
  8  9  1  0
  9 10  2  0
 10 11  1  0
 11 12  2  0
 12 13  1  0
 13 14  1  0
 13 15  2  0
 15 16  1  0
 16 17  2  0
 16 18  1  0
 18 19  1  0
  6 20  1  0
 20 21  2  0
 21 22  1  0
 22 23  1  0
 21  3  1  0
 18  7  2  0
 15  9  1  0
  1 24  1  0
  1 25  1  0
  1 26  1  0
  2 27  1  0
  2 28  1  0
  4 29  1  0
  5 30  1  0
 10 31  1  0
 11 32  1  0
 12 33  1  0
 14 34  1  0
 19 35  1  0
 20 36  1  0
 22 37  1  0
 22 38  1  0
 23 39  1  0
 23 40  1  0
 23 41  1  0
M  END
>  <meeko>  (2) 
{"is_sidechain": [false], "free_energy": -7.773, "intermolecular_energy": -9.376, "internal_energy": -0.508}

$$$$
cand_039_out
     RDKit          3D

 41 43  0  0  0  0  0  0  0  0999 V2000
   75.7470   42.9200   -6.8680 C   0  0  0  0  0  0  0  0  0  0  0  0
   75.0330   43.7760   -5.8310 C   0  0  0  0  0  0  0  0  0  0  0  0
   74.2650   42.9360   -4.8370 C   0  0  0  0  0  0  0  0  0  0  0  0
   73.1520   42.2150   -5.3020 C   0  0  0  0  0  0  0  0  0  0  0  0
   72.4010   41.4120   -4.4420 C   0  0  0  0  0  0  0  0  0  0  0  0
   72.7360   41.3070   -3.0890 C   0  0  0  0  0  0  0  0  0  0  0  0
   71.9420   40.4340   -2.1970 C   0  0  0  0  0  0  0  0  0  0  0  0
   70.5910   40.7620   -2.1850 O   0  0  0  0  0  0  0  0  0  0  0  0
   69.7380   40.0310   -1.3980 C   0  0  0  0  0  0  0  0  0  0  0  0
   68.3890   40.3840   -1.4290 C   0  0  0  0  0  0  0  0  0  0  0  0
   67.4670   39.6810   -0.6490 C   0  0  0  0  0  0  0  0  0  0  0  0
   67.8950   38.6260    0.1600 C   0  0  0  0  0  0  0  0  0  0  0  0
   69.2420   38.2760    0.1890 C   0  0  0  0  0  0  0  0  0  0  0  0
   69.5930   37.2340    1.0020 O   0  0  0  0  0  0  0  0  0  0  0  0
   70.1640   38.9790   -0.5920 C   0  0  0  0  0  0  0  0  0  0  0  0
   71.5880   38.6440   -0.5920 C   0  0  0  0  0  0  0  0  0  0  0  0
   72.0420   37.7340    0.0990 O   0  0  0  0  0  0  0  0  0  0  0  0
   72.4810   39.4450   -1.4610 C   0  0  0  0  0  0  0  0  0  0  0  0
   73.8270   39.1280   -1.4420 O   0  0  0  0  0  0  0  0  0  0  0  0
   73.8570   42.0100   -2.6270 C   0  0  0  0  0  0  0  0  0  0  0  0
   74.6320   42.8220   -3.4820 C   0  0  0  0  0  0  0  0  0  0  0  0
   75.8080   43.5590   -2.8820 C   0  0  0  0  0  0  0  0  0  0  0  0
   76.4430   42.7810   -1.7380 C   0  0  0  0  0  0  0  0  0  0  0  0
   76.3714   42.1714   -6.3584 H   0  0  0  0  0  0  0  0  0  0  0  0
   75.0030   42.4098   -7.4974 H   0  0  0  0  0  0  0  0  0  0  0  0
   76.3824   43.5604   -7.4974 H   0  0  0  0  0  0  0  0  0  0  0  0
   75.7801   44.3741   -5.2886 H   0  0  0  0  0  0  0  0  0  0  0  0
   74.3146   44.4209   -6.3584 H   0  0  0  0  0  0  0  0  0  0  0  0
   72.8676   42.2847   -6.3623 H   0  0  0  0  0  0  0  0  0  0  0  0
   71.5363   40.8559   -4.8332 H   0  0  0  0  0  0  0  0  0  0  0  0
   68.0514   41.2145   -2.0664 H   0  0  0  0  0  0  0  0  0  0  0  0
   66.4029   39.9588   -0.6722 H   0  0  0  0  0  0  0  0  0  0  0  0
   67.1687   38.0725    0.7733 H   0  0  0  0  0  0  0  0  0  0  0  0
   69.6530   36.3670    0.6530 H   0  0  0  0  0  0  0  0  0  0  0  0
   74.3580   39.2940   -2.1960 H   0  0  0  0  0  0  0  0  0  0  0  0
   74.1408   41.9263   -1.5675 H   0  0  0  0  0  0  0  0  0  0  0  0
   76.5637   43.7199   -3.6650 H   0  0  0  0  0  0  0  0  0  0  0  0
   75.4417   44.5156   -2.4811 H   0  0  0  0  0  0  0  0  0  0  0  0
   76.1031   43.1974   -0.7783 H   0  0  0  0  0  0  0  0  0  0  0  0
   76.1466   41.7238   -1.8045 H   0  0  0  0  0  0  0  0  0  0  0  0
   77.5382   42.8596   -1.8045 H   0  0  0  0  0  0  0  0  0  0  0  0
  1  2  1  0
  2  3  1  0
  3  4  2  0
  4  5  1  0
  5  6  2  0
  6  7  1  0
  7  8  1  0
  8  9  1  0
  9 10  2  0
 10 11  1  0
 11 12  2  0
 12 13  1  0
 13 14  1  0
 13 15  2  0
 15 16  1  0
 16 17  2  0
 16 18  1  0
 18 19  1  0
  6 20  1  0
 20 21  2  0
 21 22  1  0
 22 23  1  0
 21  3  1  0
 18  7  2  0
 15  9  1  0
  1 24  1  0
  1 25  1  0
  1 26  1  0
  2 27  1  0
  2 28  1  0
  4 29  1  0
  5 30  1  0
 10 31  1  0
 11 32  1  0
 12 33  1  0
 14 34  1  0
 19 35  1  0
 20 36  1  0
 22 37  1  0
 22 38  1  0
 23 39  1  0
 23 40  1  0
 23 41  1  0
M  END
>  <meeko>  (3) 
{"is_sidechain": [false], "free_energy": -7.755, "intermolecular_energy": -9.438, "internal_energy": -0.423}

$$$$
cand_039_out
     RDKit          3D

 41 43  0  0  0  0  0  0  0  0999 V2000
   76.7350   42.1870   -5.9820 C   0  0  0  0  0  0  0  0  0  0  0  0
   75.8760   43.3620   -5.5350 C   0  0  0  0  0  0  0  0  0  0  0  0
   74.6100   42.9060   -4.8470 C   0  0  0  0  0  0  0  0  0  0  0  0
   73.5880   42.3580   -5.6410 C   0  0  0  0  0  0  0  0  0  0  0  0
   72.3940   41.9090   -5.0720 C   0  0  0  0  0  0  0  0  0  0  0  0
   72.1820   41.9980   -3.6940 C   0  0  0  0  0  0  0  0  0  0  0  0
   70.9200   41.4980   -3.1070 C   0  0  0  0  0  0  0  0  0  0  0  0
   71.1280   40.6240   -2.0460 O   0  0  0  0  0  0  0  0  0  0  0  0
   70.0400   40.0840   -1.4080 C   0  0  0  0  0  0  0  0  0  0  0  0
   70.2940   39.2240   -0.3400 C   0  0  0  0  0  0  0  0  0  0  0  0
   69.2310   38.6380    0.3510 C   0  0  0  0  0  0  0  0  0  0  0  0
   67.9150   38.9130   -0.0270 C   0  0  0  0  0  0  0  0  0  0  0  0
   67.6640   39.7710   -1.0940 C   0  0  0  0  0  0  0  0  0  0  0  0
   66.3530   39.9960   -1.4110 O   0  0  0  0  0  0  0  0  0  0  0  0
   68.7280   40.3580   -1.7850 C   0  0  0  0  0  0  0  0  0  0  0  0
   68.5090   41.2650   -2.9120 C   0  0  0  0  0  0  0  0  0  0  0  0
   67.3810   41.5490   -3.3080 O   0  0  0  0  0  0  0  0  0  0  0  0
   69.7040   41.8400   -3.5710 C   0  0  0  0  0  0  0  0  0  0  0  0
   69.4850   42.6850   -4.6430 O   0  0  0  0  0  0  0  0  0  0  0  0
   73.2080   42.5290   -2.8980 C   0  0  0  0  0  0  0  0  0  0  0  0
   74.4230   42.9820   -3.4530 C   0  0  0  0  0  0  0  0  0  0  0  0
   75.4560   43.5610   -2.5130 C   0  0  0  0  0  0  0  0  0  0  0  0
   76.1960   42.4750   -1.7440 C   0  0  0  0  0  0  0  0  0  0  0  0
   77.1215   41.6583   -5.0983 H   0  0  0  0  0  0  0  0  0  0  0  0
   76.1270   41.4969   -6.5853 H   0  0  0  0  0  0  0  0  0  0  0  0
   77.5771   42.5570   -6.5853 H   0  0  0  0  0  0  0  0  0  0  0  0
   76.4571   43.9815   -4.8360 H   0  0  0  0  0  0  0  0  0  0  0  0
   75.5901   43.9347   -6.4296 H   0  0  0  0  0  0  0  0  0  0  0  0
   73.7308   42.2814   -6.7290 H   0  0  0  0  0  0  0  0  0  0  0  0
   71.6119   41.4806   -5.7161 H   0  0  0  0  0  0  0  0  0  0  0  0
   71.3305   39.0074   -0.0421 H   0  0  0  0  0  0  0  0  0  0  0  0
   69.4305   37.9595    1.1935 H   0  0  0  0  0  0  0  0  0  0  0  0
   67.0778   38.4522    0.5178 H   0  0  0  0  0  0  0  0  0  0  0  0
   65.7560   40.2910   -0.7520 H   0  0  0  0  0  0  0  0  0  0  0  0
   68.6440   42.7110   -5.0550 H   0  0  0  0  0  0  0  0  0  0  0  0
   73.0607   42.5939   -1.8098 H   0  0  0  0  0  0  0  0  0  0  0  0
   76.1843   44.1411   -3.0987 H   0  0  0  0  0  0  0  0  0  0  0  0
   74.9344   44.1993   -1.7846 H   0  0  0  0  0  0  0  0  0  0  0  0
   76.0793   42.6463   -0.6637 H   0  0  0  0  0  0  0  0  0  0  0  0
   75.7795   41.4913   -2.0064 H   0  0  0  0  0  0  0  0  0  0  0  0
   77.2639   42.5028   -2.0064 H   0  0  0  0  0  0  0  0  0  0  0  0
  1  2  1  0
  2  3  1  0
  3  4  2  0
  4  5  1  0
  5  6  2  0
  6  7  1  0
  7  8  1  0
  8  9  1  0
  9 10  2  0
 10 11  1  0
 11 12  2  0
 12 13  1  0
 13 14  1  0
 13 15  2  0
 15 16  1  0
 16 17  2  0
 16 18  1  0
 18 19  1  0
  6 20  1  0
 20 21  2  0
 21 22  1  0
 22 23  1  0
 21  3  1  0
 18  7  2  0
 15  9  1  0
  1 24  1  0
  1 25  1  0
  1 26  1  0
  2 27  1  0
  2 28  1  0
  4 29  1  0
  5 30  1  0
 10 31  1  0
 11 32  1  0
 12 33  1  0
 14 34  1  0
 19 35  1  0
 20 36  1  0
 22 37  1  0
 22 38  1  0
 23 39  1  0
 23 40  1  0
 23 41  1  0
M  END
>  <meeko>  (4) 
{"is_sidechain": [false], "free_energy": -7.746, "intermolecular_energy": -9.427, "internal_energy": -0.423}

$$$$
cand_039_out
     RDKit          3D

 41 43  0  0  0  0  0  0  0  0999 V2000
   71.4900   36.3680    1.3910 C   0  0  0  0  0  0  0  0  0  0  0  0
   70.2140   37.0750    0.9550 C   0  0  0  0  0  0  0  0  0  0  0  0
   70.4990   38.2250    0.0170 C   0  0  0  0  0  0  0  0  0  0  0  0
   71.8130   38.3840   -0.4540 C   0  0  0  0  0  0  0  0  0  0  0  0
   72.1470   39.4190   -1.3300 C   0  0  0  0  0  0  0  0  0  0  0  0
   71.1790   40.3310   -1.7580 C   0  0  0  0  0  0  0  0  0  0  0  0
   71.5460   41.4080   -2.7020 C   0  0  0  0  0  0  0  0  0  0  0  0
   72.7470   42.0260   -2.3750 O   0  0  0  0  0  0  0  0  0  0  0  0
   73.2080   43.0450   -3.1700 C   0  0  0  0  0  0  0  0  0  0  0  0
   74.4250   43.6260   -2.8140 C   0  0  0  0  0  0  0  0  0  0  0  0
   74.9490   44.6700   -3.5800 C   0  0  0  0  0  0  0  0  0  0  0  0
   74.2560   45.1330   -4.7000 C   0  0  0  0  0  0  0  0  0  0  0  0
   73.0410   44.5520   -5.0530 C   0  0  0  0  0  0  0  0  0  0  0  0
   72.4150   45.0530   -6.1600 O   0  0  0  0  0  0  0  0  0  0  0  0
   72.5170   43.5060   -4.2870 C   0  0  0  0  0  0  0  0  0  0  0  0
   71.2440   42.8680   -4.6220 C   0  0  0  0  0  0  0  0  0  0  0  0
   70.5720   43.2240   -5.5880 O   0  0  0  0  0  0  0  0  0  0  0  0
   70.7810   41.7630   -3.7510 C   0  0  0  0  0  0  0  0  0  0  0  0
   69.5700   41.1760   -4.0700 O   0  0  0  0  0  0  0  0  0  0  0  0
   69.8630   40.1640   -1.3030 C   0  0  0  0  0  0  0  0  0  0  0  0
   69.5050   39.1210   -0.4240 C   0  0  0  0  0  0  0  0  0  0  0  0
   68.0640   39.0420    0.0280 C   0  0  0  0  0  0  0  0  0  0  0  0
   67.0990   39.4350   -1.0810 C   0  0  0  0  0  0  0  0  0  0  0  0
   71.5375   36.3417    2.4897 H   0  0  0  0  0  0  0  0  0  0  0  0
   71.4919   35.3402    0.9992 H   0  0  0  0  0  0  0  0  0  0  0  0
   72.3625   36.9114    0.9992 H   0  0  0  0  0  0  0  0  0  0  0  0
   69.5636   36.3509    0.4425 H   0  0  0  0  0  0  0  0  0  0  0  0
   69.7254   37.4808    1.8531 H   0  0  0  0  0  0  0  0  0  0  0  0
   72.5928   37.6805   -0.1269 H   0  0  0  0  0  0  0  0  0  0  0  0
   73.1829   39.5172   -1.6867 H   0  0  0  0  0  0  0  0  0  0  0  0
   74.9714   43.2626   -1.9312 H   0  0  0  0  0  0  0  0  0  0  0  0
   75.9092   45.1280   -3.3003 H   0  0  0  0  0  0  0  0  0  0  0  0
   74.6692   45.9554   -5.3025 H   0  0  0  0  0  0  0  0  0  0  0  0
   72.9100   45.2430   -6.9330 H   0  0  0  0  0  0  0  0  0  0  0  0
   69.1370   40.6280   -3.4460 H   0  0  0  0  0  0  0  0  0  0  0  0
   69.0876   40.8669   -1.6416 H   0  0  0  0  0  0  0  0  0  0  0  0
   67.8454   38.0102    0.3405 H   0  0  0  0  0  0  0  0  0  0  0  0
   67.9294   39.7461    0.8624 H   0  0  0  0  0  0  0  0  0  0  0  0
   66.1665   39.8148   -0.6381 H   0  0  0  0  0  0  0  0  0  0  0  0
   67.5552   40.2190   -1.7033 H   0  0  0  0  0  0  0  0  0  0  0  0
   66.8777   38.5554   -1.7033 H   0  0  0  0  0  0  0  0  0  0  0  0
  1  2  1  0
  2  3  1  0
  3  4  2  0
  4  5  1  0
  5  6  2  0
  6  7  1  0
  7  8  1  0
  8  9  1  0
  9 10  2  0
 10 11  1  0
 11 12  2  0
 12 13  1  0
 13 14  1  0
 13 15  2  0
 15 16  1  0
 16 17  2  0
 16 18  1  0
 18 19  1  0
  6 20  1  0
 20 21  2  0
 21 22  1  0
 22 23  1  0
 21  3  1  0
 18  7  2  0
 15  9  1  0
  1 24  1  0
  1 25  1  0
  1 26  1  0
  2 27  1  0
  2 28  1  0
  4 29  1  0
  5 30  1  0
 10 31  1  0
 11 32  1  0
 12 33  1  0
 14 34  1  0
 19 35  1  0
 20 36  1  0
 22 37  1  0
 22 38  1  0
 23 39  1  0
 23 40  1  0
 23 41  1  0
M  END
>  <meeko>  (5) 
{"is_sidechain": [false], "free_energy": -7.744, "intermolecular_energy": -9.588, "internal_energy": -0.26}

$$$$
cand_039_out
     RDKit          3D

 41 43  0  0  0  0  0  0  0  0999 V2000
   70.7230   37.5080    0.3670 C   0  0  0  0  0  0  0  0  0  0  0  0
   70.1660   38.8230   -0.1580 C   0  0  0  0  0  0  0  0  0  0  0  0
   71.1600   39.5460   -1.0380 C   0  0  0  0  0  0  0  0  0  0  0  0
   72.0970   38.7760   -1.7480 C   0  0  0  0  0  0  0  0  0  0  0  0
   73.0390   39.3760   -2.5860 C   0  0  0  0  0  0  0  0  0  0  0  0
   73.0780   40.7650   -2.7370 C   0  0  0  0  0  0  0  0  0  0  0  0
   74.0690   41.3810   -3.6450 C   0  0  0  0  0  0  0  0  0  0  0  0
   73.5200   41.7610   -4.8640 O   0  0  0  0  0  0  0  0  0  0  0  0
   74.3310   42.3470   -5.8030 C   0  0  0  0  0  0  0  0  0  0  0  0
   73.7350   42.7280   -7.0050 C   0  0  0  0  0  0  0  0  0  0  0  0
   74.5050   43.3280   -8.0050 C   0  0  0  0  0  0  0  0  0  0  0  0
   75.8690   43.5470   -7.8010 C   0  0  0  0  0  0  0  0  0  0  0  0
   76.4610   43.1670   -6.6000 C   0  0  0  0  0  0  0  0  0  0  0  0
   77.8000   43.4100   -6.4660 O   0  0  0  0  0  0  0  0  0  0  0  0
   75.6900   42.5670   -5.5990 C   0  0  0  0  0  0  0  0  0  0  0  0
   76.2720   42.1520   -4.3230 C   0  0  0  0  0  0  0  0  0  0  0  0
   77.4660   42.3050   -4.0720 O   0  0  0  0  0  0  0  0  0  0  0  0
   75.3680   41.5320   -3.3260 C   0  0  0  0  0  0  0  0  0  0  0  0
   75.9310   41.1320   -2.1290 O   0  0  0  0  0  0  0  0  0  0  0  0
   72.1320   41.5340   -2.0440 C   0  0  0  0  0  0  0  0  0  0  0  0
   71.1690   40.9460   -1.1980 C   0  0  0  0  0  0  0  0  0  0  0  0
   70.2090   41.8640   -0.4750 C   0  0  0  0  0  0  0  0  0  0  0  0
   69.8060   43.0540   -1.3340 C   0  0  0  0  0  0  0  0  0  0  0  0
   70.7177   37.5206    1.4669 H   0  0  0  0  0  0  0  0  0  0  0  0
   70.1000   36.6761    0.0068 H   0  0  0  0  0  0  0  0  0  0  0  0
   71.7540   37.3767    0.0068 H   0  0  0  0  0  0  0  0  0  0  0  0
   69.2579   38.6160   -0.7432 H   0  0  0  0  0  0  0  0  0  0  0  0
   69.9437   39.4675    0.7053 H   0  0  0  0  0  0  0  0  0  0  0  0
   72.0881   37.6812   -1.6417 H   0  0  0  0  0  0  0  0  0  0  0  0
   73.7582   38.7488   -3.1332 H   0  0  0  0  0  0  0  0  0  0  0  0
   72.6604   42.5565   -7.1656 H   0  0  0  0  0  0  0  0  0  0  0  0
   74.0362   43.6281   -8.9538 H   0  0  0  0  0  0  0  0  0  0  0  0
   76.4748   44.0192   -8.5884 H   0  0  0  0  0  0  0  0  0  0  0  0
   78.3530   43.4120   -7.2220 H   0  0  0  0  0  0  0  0  0  0  0  0
   76.1010   40.2240   -1.9720 H   0  0  0  0  0  0  0  0  0  0  0  0
   72.1414   42.6274   -2.1637 H   0  0  0  0  0  0  0  0  0  0  0  0
   69.3057   41.2955   -0.2087 H   0  0  0  0  0  0  0  0  0  0  0  0
   70.7152   42.2477    0.4231 H   0  0  0  0  0  0  0  0  0  0  0  0
   69.5212   43.8951   -0.6848 H   0  0  0  0  0  0  0  0  0  0  0  0
   70.6535   43.3516   -1.9690 H   0  0  0  0  0  0  0  0  0  0  0  0
   68.9521   42.7754   -1.9690 H   0  0  0  0  0  0  0  0  0  0  0  0
  1  2  1  0
  2  3  1  0
  3  4  2  0
  4  5  1  0
  5  6  2  0
  6  7  1  0
  7  8  1  0
  8  9  1  0
  9 10  2  0
 10 11  1  0
 11 12  2  0
 12 13  1  0
 13 14  1  0
 13 15  2  0
 15 16  1  0
 16 17  2  0
 16 18  1  0
 18 19  1  0
  6 20  1  0
 20 21  2  0
 21 22  1  0
 22 23  1  0
 21  3  1  0
 18  7  2  0
 15  9  1  0
  1 24  1  0
  1 25  1  0
  1 26  1  0
  2 27  1  0
  2 28  1  0
  4 29  1  0
  5 30  1  0
 10 31  1  0
 11 32  1  0
 12 33  1  0
 14 34  1  0
 19 35  1  0
 20 36  1  0
 22 37  1  0
 22 38  1  0
 23 39  1  0
 23 40  1  0
 23 41  1  0
M  END
>  <meeko>  (6) 
{"is_sidechain": [false], "free_energy": -7.739, "intermolecular_energy": -9.255, "internal_energy": -0.587}

$$$$
cand_039_out
     RDKit          3D

 41 43  0  0  0  0  0  0  0  0999 V2000
   74.6960   46.2100   -5.6070 C   0  0  0  0  0  0  0  0  0  0  0  0
   73.3150   45.6110   -5.8320 C   0  0  0  0  0  0  0  0  0  0  0  0
   73.0830   44.3880   -4.9750 C   0  0  0  0  0  0  0  0  0  0  0  0
   72.6430   44.5800   -3.6540 C   0  0  0  0  0  0  0  0  0  0  0  0
   72.4010   43.4950   -2.8080 C   0  0  0  0  0  0  0  0  0  0  0  0
   72.5950   42.1850   -3.2550 C   0  0  0  0  0  0  0  0  0  0  0  0
   72.3130   41.0480   -2.3520 C   0  0  0  0  0  0  0  0  0  0  0  0
   70.9750   40.9690   -1.9850 O   0  0  0  0  0  0  0  0  0  0  0  0
   70.5740   39.9590   -1.1480 C   0  0  0  0  0  0  0  0  0  0  0  0
   69.2200   39.9090   -0.8200 C   0  0  0  0  0  0  0  0  0  0  0  0
   68.7460   38.9060    0.0300 C   0  0  0  0  0  0  0  0  0  0  0  0
   69.6270   37.9560    0.5510 C   0  0  0  0  0  0  0  0  0  0  0  0
   70.9790   38.0090    0.2210 C   0  0  0  0  0  0  0  0  0  0  0  0
   71.7860   37.0480    0.7650 O   0  0  0  0  0  0  0  0  0  0  0  0
   71.4520   39.0120   -0.6300 C   0  0  0  0  0  0  0  0  0  0  0  0
   72.8640   39.1040   -1.0020 C   0  0  0  0  0  0  0  0  0  0  0  0
   73.7010   38.3090   -0.5790 O   0  0  0  0  0  0  0  0  0  0  0  0
   73.2620   40.1990   -1.9160 C   0  0  0  0  0  0  0  0  0  0  0  0
   74.6010   40.2840   -2.2500 O   0  0  0  0  0  0  0  0  0  0  0  0
   73.0170   41.9910   -4.5780 C   0  0  0  0  0  0  0  0  0  0  0  0
   73.2600   43.0720   -5.4490 C   0  0  0  0  0  0  0  0  0  0  0  0
   73.7360   42.7590   -6.8500 C   0  0  0  0  0  0  0  0  0  0  0  0
   75.2530   42.6530   -6.9240 C   0  0  0  0  0  0  0  0  0  0  0  0
   74.8880   46.2933   -4.5271 H   0  0  0  0  0  0  0  0  0  0  0  0
   75.4564   45.5608   -6.0656 H   0  0  0  0  0  0  0  0  0  0  0  0
   74.7416   47.2088   -6.0656 H   0  0  0  0  0  0  0  0  0  0  0  0
   72.5552   46.3672   -5.5852 H   0  0  0  0  0  0  0  0  0  0  0  0
   73.2442   45.3059   -6.8865 H   0  0  0  0  0  0  0  0  0  0  0  0
   72.4865   45.6025   -3.2798 H   0  0  0  0  0  0  0  0  0  0  0  0
   72.0542   43.6735   -1.7795 H   0  0  0  0  0  0  0  0  0  0  0  0
   68.5259   40.6577   -1.2295 H   0  0  0  0  0  0  0  0  0  0  0  0
   67.6777   38.8648    0.2889 H   0  0  0  0  0  0  0  0  0  0  0  0
   69.2538   37.1673    1.2208 H   0  0  0  0  0  0  0  0  0  0  0  0
   71.6880   36.8090    1.6660 H   0  0  0  0  0  0  0  0  0  0  0  0
   75.2480   40.3650   -1.5760 H   0  0  0  0  0  0  0  0  0  0  0  0
   73.1627   40.9650   -4.9469 H   0  0  0  0  0  0  0  0  0  0  0  0
   73.2967   41.8024   -7.1694 H   0  0  0  0  0  0  0  0  0  0  0  0
   73.4192   43.5807   -7.5091 H   0  0  0  0  0  0  0  0  0  0  0  0
   75.6686   42.6240   -5.9060 H   0  0  0  0  0  0  0  0  0  0  0  0
   75.5306   41.7333   -7.4598 H   0  0  0  0  0  0  0  0  0  0  0  0
   75.6558   43.5252   -7.4598 H   0  0  0  0  0  0  0  0  0  0  0  0
  1  2  1  0
  2  3  1  0
  3  4  2  0
  4  5  1  0
  5  6  2  0
  6  7  1  0
  7  8  1  0
  8  9  1  0
  9 10  2  0
 10 11  1  0
 11 12  2  0
 12 13  1  0
 13 14  1  0
 13 15  2  0
 15 16  1  0
 16 17  2  0
 16 18  1  0
 18 19  1  0
  6 20  1  0
 20 21  2  0
 21 22  1  0
 22 23  1  0
 21  3  1  0
 18  7  2  0
 15  9  1  0
  1 24  1  0
  1 25  1  0
  1 26  1  0
  2 27  1  0
  2 28  1  0
  4 29  1  0
  5 30  1  0
 10 31  1  0
 11 32  1  0
 12 33  1  0
 14 34  1  0
 19 35  1  0
 20 36  1  0
 22 37  1  0
 22 38  1  0
 23 39  1  0
 23 40  1  0
 23 41  1  0
M  END
>  <meeko>  (7) 
{"is_sidechain": [false], "free_energy": -7.69, "intermolecular_energy": -9.161, "internal_energy": -0.62}

$$$$
cand_039_out
     RDKit          3D

 41 43  0  0  0  0  0  0  0  0999 V2000
   77.6740   43.2060   -4.1810 C   0  0  0  0  0  0  0  0  0  0  0  0
   77.0770   43.4730   -2.8070 C   0  0  0  0  0  0  0  0  0  0  0  0
   75.6350   43.0280   -2.7210 C   0  0  0  0  0  0  0  0  0  0  0  0
   75.3770   41.6910   -2.3720 C   0  0  0  0  0  0  0  0  0  0  0  0
   74.0690   41.2120   -2.2650 C   0  0  0  0  0  0  0  0  0  0  0  0
   72.9790   42.0530   -2.5090 C   0  0  0  0  0  0  0  0  0  0  0  0
   71.6010   41.5340   -2.3710 C   0  0  0  0  0  0  0  0  0  0  0  0
   71.4360   40.7370   -1.2430 O   0  0  0  0  0  0  0  0  0  0  0  0
   70.2030   40.1900   -0.9930 C   0  0  0  0  0  0  0  0  0  0  0  0
   70.0770   39.4110    0.1570 C   0  0  0  0  0  0  0  0  0  0  0  0
   68.8490   38.8220    0.4680 C   0  0  0  0  0  0  0  0  0  0  0  0
   67.7490   39.0120   -0.3700 C   0  0  0  0  0  0  0  0  0  0  0  0
   67.8770   39.7900   -1.5170 C   0  0  0  0  0  0  0  0  0  0  0  0
   66.7610   39.9350   -2.2930 O   0  0  0  0  0  0  0  0  0  0  0  0
   69.1060   40.3800   -1.8280 C   0  0  0  0  0  0  0  0  0  0  0  0
   69.2840   41.2050   -3.0240 C   0  0  0  0  0  0  0  0  0  0  0  0
   68.3650   41.4120   -3.8140 O   0  0  0  0  0  0  0  0  0  0  0  0
   70.6240   41.7910   -3.2590 C   0  0  0  0  0  0  0  0  0  0  0  0
   70.7840   42.5570   -4.3980 O   0  0  0  0  0  0  0  0  0  0  0  0
   73.2350   43.3910   -2.8390 C   0  0  0  0  0  0  0  0  0  0  0  0
   74.5480   43.8950   -2.9450 C   0  0  0  0  0  0  0  0  0  0  0  0
   74.7190   45.3470   -3.3320 C   0  0  0  0  0  0  0  0  0  0  0  0
   74.6660   45.5430   -4.8400 C   0  0  0  0  0  0  0  0  0  0  0  0
   78.6727   42.7594   -4.0664 H   0  0  0  0  0  0  0  0  0  0  0  0
   77.0238   42.5129   -4.7349 H   0  0  0  0  0  0  0  0  0  0  0  0
   77.7571   44.1527   -4.7349 H   0  0  0  0  0  0  0  0  0  0  0  0
   77.6629   42.9271   -2.0528 H   0  0  0  0  0  0  0  0  0  0  0  0
   77.1096   44.5577   -2.6269 H   0  0  0  0  0  0  0  0  0  0  0  0
   76.2194   41.0102   -2.1799 H   0  0  0  0  0  0  0  0  0  0  0  0
   73.8949   40.1623   -1.9859 H   0  0  0  0  0  0  0  0  0  0  0  0
   70.9432   39.2606    0.8181 H   0  0  0  0  0  0  0  0  0  0  0  0
   68.7488   38.2075    1.3748 H   0  0  0  0  0  0  0  0  0  0  0  0
   66.7826   38.5476   -0.1243 H   0  0  0  0  0  0  0  0  0  0  0  0
   66.7460   40.5760   -2.9770 H   0  0  0  0  0  0  0  0  0  0  0  0
   71.5220   43.1280   -4.4800 H   0  0  0  0  0  0  0  0  0  0  0  0
   72.3871   44.0678   -3.0206 H   0  0  0  0  0  0  0  0  0  0  0  0
   73.9136   45.9357   -2.8685 H   0  0  0  0  0  0  0  0  0  0  0  0
   75.7067   45.6793   -2.9798 H   0  0  0  0  0  0  0  0  0  0  0  0
   74.3849   46.5824   -5.0650 H   0  0  0  0  0  0  0  0  0  0  0  0
   75.6544   45.3286   -5.2726 H   0  0  0  0  0  0  0  0  0  0  0  0
   73.9204   44.8597   -5.2726 H   0  0  0  0  0  0  0  0  0  0  0  0
  1  2  1  0
  2  3  1  0
  3  4  2  0
  4  5  1  0
  5  6  2  0
  6  7  1  0
  7  8  1  0
  8  9  1  0
  9 10  2  0
 10 11  1  0
 11 12  2  0
 12 13  1  0
 13 14  1  0
 13 15  2  0
 15 16  1  0
 16 17  2  0
 16 18  1  0
 18 19  1  0
  6 20  1  0
 20 21  2  0
 21 22  1  0
 22 23  1  0
 21  3  1  0
 18  7  2  0
 15  9  1  0
  1 24  1  0
  1 25  1  0
  1 26  1  0
  2 27  1  0
  2 28  1  0
  4 29  1  0
  5 30  1  0
 10 31  1  0
 11 32  1  0
 12 33  1  0
 14 34  1  0
 19 35  1  0
 20 36  1  0
 22 37  1  0
 22 38  1  0
 23 39  1  0
 23 40  1  0
 23 41  1  0
M  END
>  <meeko>  (8) 
{"is_sidechain": [false], "free_energy": -7.629, "intermolecular_energy": -9.284, "internal_energy": -0.422}

$$$$
cand_039_out
     RDKit          3D

 41 43  0  0  0  0  0  0  0  0999 V2000
   68.6880   39.4000   -0.5610 C   0  0  0  0  0  0  0  0  0  0  0  0
   70.0400   39.5940    0.1100 C   0  0  0  0  0  0  0  0  0  0  0  0
   71.1000   40.0350   -0.8730 C   0  0  0  0  0  0  0  0  0  0  0  0
   71.1000   41.3790   -1.2850 C   0  0  0  0  0  0  0  0  0  0  0  0
   72.0550   41.8580   -2.1850 C   0  0  0  0  0  0  0  0  0  0  0  0
   73.0360   41.0090   -2.7040 C   0  0  0  0  0  0  0  0  0  0  0  0
   74.0510   41.5390   -3.6390 C   0  0  0  0  0  0  0  0  0  0  0  0
   73.5140   41.9060   -4.8680 O   0  0  0  0  0  0  0  0  0  0  0  0
   74.3470   42.4140   -5.8310 C   0  0  0  0  0  0  0  0  0  0  0  0
   73.7640   42.7840   -7.0430 C   0  0  0  0  0  0  0  0  0  0  0  0
   74.5570   43.3070   -8.0680 C   0  0  0  0  0  0  0  0  0  0  0  0
   75.9320   43.4590   -7.8790 C   0  0  0  0  0  0  0  0  0  0  0  0
   76.5120   43.0900   -6.6690 C   0  0  0  0  0  0  0  0  0  0  0  0
   77.8630   43.2660   -6.5520 O   0  0  0  0  0  0  0  0  0  0  0  0
   75.7180   42.5670   -5.6440 C   0  0  0  0  0  0  0  0  0  0  0  0
   76.2870   42.1660   -4.3570 C   0  0  0  0  0  0  0  0  0  0  0  0
   77.4890   42.2630   -4.1180 O   0  0  0  0  0  0  0  0  0  0  0  0
   75.3590   41.6310   -3.3340 C   0  0  0  0  0  0  0  0  0  0  0  0
   75.9090   41.2430   -2.1270 O   0  0  0  0  0  0  0  0  0  0  0  0
   73.0480   39.6720   -2.2800 C   0  0  0  0  0  0  0  0  0  0  0  0
   72.0960   39.1710   -1.3680 C   0  0  0  0  0  0  0  0  0  0  0  0
   72.1800   37.7080   -0.9930 C   0  0  0  0  0  0  0  0  0  0  0  0
   72.9340   37.5000    0.3130 C   0  0  0  0  0  0  0  0  0  0  0  0
   67.9096   39.2883    0.2082 H   0  0  0  0  0  0  0  0  0  0  0  0
   68.4610   40.2748   -1.1881 H   0  0  0  0  0  0  0  0  0  0  0  0
   68.7161   38.4967   -1.1881 H   0  0  0  0  0  0  0  0  0  0  0  0
   69.9413   40.3597    0.8936 H   0  0  0  0  0  0  0  0  0  0  0  0
   70.3507   38.6283    0.5354 H   0  0  0  0  0  0  0  0  0  0  0  0
   70.3352   42.0650   -0.8921 H   0  0  0  0  0  0  0  0  0  0  0  0
   72.0345   42.9151   -2.4884 H   0  0  0  0  0  0  0  0  0  0  0  0
   72.6807   42.6642   -7.1919 H   0  0  0  0  0  0  0  0  0  0  0  0
   74.0978   43.5990   -9.0240 H   0  0  0  0  0  0  0  0  0  0  0  0
   76.5564   43.8701   -8.6859 H   0  0  0  0  0  0  0  0  0  0  0  0
   78.2900   43.0830   -5.7380 H   0  0  0  0  0  0  0  0  0  0  0  0
   75.9480   41.8490   -1.4130 H   0  0  0  0  0  0  0  0  0  0  0  0
   73.8221   38.9948   -2.6700 H   0  0  0  0  0  0  0  0  0  0  0  0
   71.1605   37.3099   -0.8825 H   0  0  0  0  0  0  0  0  0  0  0  0
   72.7263   37.1823   -1.7899 H   0  0  0  0  0  0  0  0  0  0  0  0
   72.2579   37.6865    1.1604 H   0  0  0  0  0  0  0  0  0  0  0  0
   73.3056   36.4658    0.3611 H   0  0  0  0  0  0  0  0  0  0  0  0
   73.7833   38.1974    0.3611 H   0  0  0  0  0  0  0  0  0  0  0  0
  1  2  1  0
  2  3  1  0
  3  4  2  0
  4  5  1  0
  5  6  2  0
  6  7  1  0
  7  8  1  0
  8  9  1  0
  9 10  2  0
 10 11  1  0
 11 12  2  0
 12 13  1  0
 13 14  1  0
 13 15  2  0
 15 16  1  0
 16 17  2  0
 16 18  1  0
 18 19  1  0
  6 20  1  0
 20 21  2  0
 21 22  1  0
 22 23  1  0
 21  3  1  0
 18  7  2  0
 15  9  1  0
  1 24  1  0
  1 25  1  0
  1 26  1  0
  2 27  1  0
  2 28  1  0
  4 29  1  0
  5 30  1  0
 10 31  1  0
 11 32  1  0
 12 33  1  0
 14 34  1  0
 19 35  1  0
 20 36  1  0
 22 37  1  0
 22 38  1  0
 23 39  1  0
 23 40  1  0
 23 41  1  0
M  END
>  <meeko>  (9) 
{"is_sidechain": [false], "free_energy": -7.609, "intermolecular_energy": -9.167, "internal_energy": -0.514}

$$$$
