cand_037_out
     RDKit          3D

 35 37  0  0  0  0  0  0  0  0999 V2000
   68.7650   38.7340    0.3520 C   0  0  0  0  0  0  0  0  0  0  0  0
   70.1180   38.8000   -0.3040 C   0  0  0  0  0  0  0  0  0  0  0  0
   70.4110   39.8840   -1.1520 C   0  0  0  0  0  0  0  0  0  0  0  0
   71.6530   40.0010   -1.7950 C   0  0  0  0  0  0  0  0  0  0  0  0
   71.9120   41.1460   -2.6940 C   0  0  0  0  0  0  0  0  0  0  0  0
   73.0840   41.8250   -2.3780 O   0  0  0  0  0  0  0  0  0  0  0  0
   73.4460   42.9100   -3.1350 C   0  0  0  0  0  0  0  0  0  0  0  0
   74.6220   43.5710   -2.7740 C   0  0  0  0  0  0  0  0  0  0  0  0
   75.0470   44.6820   -3.5050 C   0  0  0  0  0  0  0  0  0  0  0  0
   74.3000   45.1320   -4.5950 C   0  0  0  0  0  0  0  0  0  0  0  0
   73.1290   44.4710   -4.9540 C   0  0  0  0  0  0  0  0  0  0  0  0
   72.4460   44.9640   -6.0320 O   0  0  0  0  0  0  0  0  0  0  0  0
   72.7010   43.3590   -4.2220 C   0  0  0  0  0  0  0  0  0  0  0  0
   71.4760   42.6360   -4.5640 C   0  0  0  0  0  0  0  0  0  0  0  0
   70.7690   42.9660   -5.5130 O   0  0  0  0  0  0  0  0  0  0  0  0
   71.1070   41.4750   -3.7210 C   0  0  0  0  0  0  0  0  0  0  0  0
   69.9550   40.7900   -4.0620 O   0  0  0  0  0  0  0  0  0  0  0  0
   72.6020   38.9940   -1.5930 C   0  0  0  0  0  0  0  0  0  0  0  0
   72.3220   37.9050   -0.7630 C   0  0  0  0  0  0  0  0  0  0  0  0
   71.0800   37.7870   -0.1200 C   0  0  0  0  0  0  0  0  0  0  0  0
   70.8310   36.6040    0.7810 C   0  0  0  0  0  0  0  0  0  0  0  0
   71.8910   36.3010    1.5820 F   0  0  0  0  0  0  0  0  0  0  0  0
   68.8869   38.7399    1.4452 H   0  0  0  0  0  0  0  0  0  0  0  0
   68.1659   39.6040    0.0451 H   0  0  0  0  0  0  0  0  0  0  0  0
   68.2534   37.8098    0.0451 H   0  0  0  0  0  0  0  0  0  0  0  0
   69.6476   40.6590   -1.3150 H   0  0  0  0  0  0  0  0  0  0  0  0
   75.2121   43.2172   -1.9157 H   0  0  0  0  0  0  0  0  0  0  0  0
   75.9728   45.2040   -3.2213 H   0  0  0  0  0  0  0  0  0  0  0  0
   74.6364   46.0078   -5.1694 H   0  0  0  0  0  0  0  0  0  0  0  0
   72.0510   45.8120   -5.9880 H   0  0  0  0  0  0  0  0  0  0  0  0
   69.9560   39.8540   -4.0830 H   0  0  0  0  0  0  0  0  0  0  0  0
   73.5796   39.0597   -2.0929 H   0  0  0  0  0  0  0  0  0  0  0  0
   73.0865   37.1287   -0.6114 H   0  0  0  0  0  0  0  0  0  0  0  0
   69.9642   36.8287    1.4199 H   0  0  0  0  0  0  0  0  0  0  0  0
   70.6549   35.7332    0.1323 H   0  0  0  0  0  0  0  0  0  0  0  0
  1  2  1  0
  2  3  2  0
  3  4  1  0
  4  5  1  0
  5  6  1  0
  6  7  1  0
  7  8  2  0
  8  9  1  0
  9 10  2  0
 10 11  1  0
 11 12  1  0
 11 13  2  0
 13 14  1  0
 14 15  2  0
 14 16  1  0
 16 17  1  0
  4 18  2  0
 18 19  1  0
 19 20  2  0
 20 21  1  0
 21 22  1  0
 20  2  1  0
 16  5  2  0
 13  7  1  0
  1 23  1  0
  1 24  1  0
  1 25  1  0
  3 26  1  0
  8 27  1  0
  9 28  1  0
 10 29  1  0
 12 30  1  0
 17 31  1  0
 18 32  1  0
 19 33  1  0
 21 34  1  0
 21 35  1  0
M  END
>  <meeko>  (1) 
{"is_sidechain": [false], "free_energy": -7.833, "intermolecular_energy": -9.207, "internal_energy": -0.161}

$$$$
cand_037_out
     RDKit          3D

 35 37  0  0  0  0  0  0  0  0999 V2000
   72.9790   37.2780   -0.0410 C   0  0  0  0  0  0  0  0  0  0  0  0
   71.8350   38.2300   -0.2600 C   0  0  0  0  0  0  0  0  0  0  0  0
   71.9810   39.2670   -1.2000 C   0  0  0  0  0  0  0  0  0  0  0  0
   70.9530   40.1880   -1.4460 C   0  0  0  0  0  0  0  0  0  0  0  0
   71.1560   41.2750   -2.4280 C   0  0  0  0  0  0  0  0  0  0  0  0
   72.3480   41.9630   -2.2330 O   0  0  0  0  0  0  0  0  0  0  0  0
   72.6630   42.9970   -3.0760 C   0  0  0  0  0  0  0  0  0  0  0  0
   73.8630   43.6700   -2.8350 C   0  0  0  0  0  0  0  0  0  0  0  0
   74.2430   44.7310   -3.6580 C   0  0  0  0  0  0  0  0  0  0  0  0
   73.4260   45.1210   -4.7210 C   0  0  0  0  0  0  0  0  0  0  0  0
   72.2310   44.4490   -4.9610 C   0  0  0  0  0  0  0  0  0  0  0  0
   71.4790   44.8820   -6.0190 O   0  0  0  0  0  0  0  0  0  0  0  0
   71.8490   43.3870   -4.1360 C   0  0  0  0  0  0  0  0  0  0  0  0
   70.6010   42.6540   -4.3520 C   0  0  0  0  0  0  0  0  0  0  0  0
   69.8330   42.9320   -5.2700 O   0  0  0  0  0  0  0  0  0  0  0  0
   70.2850   41.5480   -3.4170 C   0  0  0  0  0  0  0  0  0  0  0  0
   69.1100   40.8540   -3.6380 O   0  0  0  0  0  0  0  0  0  0  0  0
   69.7670   40.0710   -0.7140 C   0  0  0  0  0  0  0  0  0  0  0  0
   69.6100   39.0540    0.2320 C   0  0  0  0  0  0  0  0  0  0  0  0
   70.6390   38.1320    0.4790 C   0  0  0  0  0  0  0  0  0  0  0  0
   70.4160   37.0410    1.4950 C   0  0  0  0  0  0  0  0  0  0  0  0
   70.3710   35.7930    0.9480 F   0  0  0  0  0  0  0  0  0  0  0  0
   73.1418   37.1425    1.0384 H   0  0  0  0  0  0  0  0  0  0  0  0
   72.7414   36.3073   -0.5006 H   0  0  0  0  0  0  0  0  0  0  0  0
   73.8904   37.6880   -0.5006 H   0  0  0  0  0  0  0  0  0  0  0  0
   72.9259   39.3573   -1.7560 H   0  0  0  0  0  0  0  0  0  0  0  0
   74.5075   43.3641   -1.9977 H   0  0  0  0  0  0  0  0  0  0  0  0
   75.1881   45.2611   -3.4689 H   0  0  0  0  0  0  0  0  0  0  0  0
   73.7264   45.9583   -5.3680 H   0  0  0  0  0  0  0  0  0  0  0  0
   70.5650   44.6810   -6.0570 H   0  0  0  0  0  0  0  0  0  0  0  0
   69.1380   39.9400   -3.8440 H   0  0  0  0  0  0  0  0  0  0  0  0
   68.9493   40.7867   -0.8845 H   0  0  0  0  0  0  0  0  0  0  0  0
   68.6660   38.9751    0.7912 H   0  0  0  0  0  0  0  0  0  0  0  0
   71.2374   37.0720    2.2259 H   0  0  0  0  0  0  0  0  0  0  0  0
   69.4373   37.2267    1.9615 H   0  0  0  0  0  0  0  0  0  0  0  0
  1  2  1  0
  2  3  2  0
  3  4  1  0
  4  5  1  0
  5  6  1  0
  6  7  1  0
  7  8  2  0
  8  9  1  0
  9 10  2  0
 10 11  1  0
 11 12  1  0
 11 13  2  0
 13 14  1  0
 14 15  2  0
 14 16  1  0
 16 17  1  0
  4 18  2  0
 18 19  1  0
 19 20  2  0
 20 21  1  0
 21 22  1  0
 20  2  1  0
 16  5  2  0
 13  7  1  0
  1 23  1  0
  1 24  1  0
  1 25  1  0
  3 26  1  0
  8 27  1  0
  9 28  1  0
 10 29  1  0
 12 30  1  0
 17 31  1  0
 18 32  1  0
 19 33  1  0
 21 34  1  0
 21 35  1  0
M  END
>  <meeko>  (2) 
{"is_sidechain": [false], "free_energy": -7.782, "intermolecular_energy": -9.141, "internal_energy": -0.167}

$$$$
cand_037_out
     RDKit          3D

 35 37  0  0  0  0  0  0  0  0999 V2000
   68.8530   39.0870    0.0270 C   0  0  0  0  0  0  0  0  0  0  0  0
   70.2920   38.8940   -0.3640 C   0  0  0  0  0  0  0  0  0  0  0  0
   70.9000   39.8370   -1.2130 C   0  0  0  0  0  0  0  0  0  0  0  0
   72.2380   39.7110   -1.6160 C   0  0  0  0  0  0  0  0  0  0  0  0
   72.8320   40.7140   -2.5260 C   0  0  0  0  0  0  0  0  0  0  0  0
   73.9230   41.3700   -1.9680 O   0  0  0  0  0  0  0  0  0  0  0  0
   74.5710   42.3270   -2.7060 C   0  0  0  0  0  0  0  0  0  0  0  0
   75.6530   42.9700   -2.1010 C   0  0  0  0  0  0  0  0  0  0  0  0
   76.3560   43.9540   -2.7990 C   0  0  0  0  0  0  0  0  0  0  0  0
   75.9800   44.2950   -4.1000 C   0  0  0  0  0  0  0  0  0  0  0  0
   74.9010   43.6520   -4.7010 C   0  0  0  0  0  0  0  0  0  0  0  0
   74.5870   44.0340   -5.9770 O   0  0  0  0  0  0  0  0  0  0  0  0
   74.1960   42.6680   -4.0020 C   0  0  0  0  0  0  0  0  0  0  0  0
   73.0560   41.9680   -4.5970 C   0  0  0  0  0  0  0  0  0  0  0  0
   72.6690   42.2060   -5.7380 O   0  0  0  0  0  0  0  0  0  0  0  0
   72.3720   40.9470   -3.7690 C   0  0  0  0  0  0  0  0  0  0  0  0
   71.3050   40.2820   -4.3460 O   0  0  0  0  0  0  0  0  0  0  0  0
   72.9630   38.6010   -1.1720 C   0  0  0  0  0  0  0  0  0  0  0  0
   72.3710   37.6490   -0.3380 C   0  0  0  0  0  0  0  0  0  0  0  0
   71.0320   37.7740    0.0660 C   0  0  0  0  0  0  0  0  0  0  0  0
   70.4430   36.7320    0.9820 C   0  0  0  0  0  0  0  0  0  0  0  0
   71.3820   35.9980    1.6440 F   0  0  0  0  0  0  0  0  0  0  0  0
   68.7694   39.0982    1.1238 H   0  0  0  0  0  0  0  0  0  0  0  0
   68.4878   40.0422   -0.3784 H   0  0  0  0  0  0  0  0  0  0  0  0
   68.2490   38.2618   -0.3784 H   0  0  0  0  0  0  0  0  0  0  0  0
   70.3113   40.6949   -1.5699 H   0  0  0  0  0  0  0  0  0  0  0  0
   75.9509   42.7018   -1.0766 H   0  0  0  0  0  0  0  0  0  0  0  0
   77.2079   44.4617   -2.3231 H   0  0  0  0  0  0  0  0  0  0  0  0
   76.5351   45.0700   -4.6489 H   0  0  0  0  0  0  0  0  0  0  0  0
   74.9840   43.6000   -6.7060 H   0  0  0  0  0  0  0  0  0  0  0  0
   71.3620   39.3610   -4.5120 H   0  0  0  0  0  0  0  0  0  0  0  0
   74.0108   38.4758   -1.4826 H   0  0  0  0  0  0  0  0  0  0  0  0
   72.9629   36.7885    0.0073 H   0  0  0  0  0  0  0  0  0  0  0  0
   69.8098   37.2391    1.7249 H   0  0  0  0  0  0  0  0  0  0  0  0
   69.8704   36.0343    0.3533 H   0  0  0  0  0  0  0  0  0  0  0  0
  1  2  1  0
  2  3  2  0
  3  4  1  0
  4  5  1  0
  5  6  1  0
  6  7  1  0
  7  8  2  0
  8  9  1  0
  9 10  2  0
 10 11  1  0
 11 12  1  0
 11 13  2  0
 13 14  1  0
 14 15  2  0
 14 16  1  0
 16 17  1  0
  4 18  2  0
 18 19  1  0
 19 20  2  0
 20 21  1  0
 21 22  1  0
 20  2  1  0
 16  5  2  0
 13  7  1  0
  1 23  1  0
  1 24  1  0
  1 25  1  0
  3 26  1  0
  8 27  1  0
  9 28  1  0
 10 29  1  0
 12 30  1  0
 17 31  1  0
 18 32  1  0
 19 33  1  0
 21 34  1  0
 21 35  1  0
M  END
>  <meeko>  (3) 
{"is_sidechain": [false], "free_energy": -7.771, "intermolecular_energy": -9.052, "internal_energy": -0.243}

$$$$
cand_037_out
     RDKit          3D

 35 37  0  0  0  0  0  0  0  0999 V2000
   72.9070   38.1120   -0.2800 C   0  0  0  0  0  0  0  0  0  0  0  0
   71.4900   38.6140   -0.3320 C   0  0  0  0  0  0  0  0  0  0  0  0
   71.1480   39.5930   -1.2820 C   0  0  0  0  0  0  0  0  0  0  0  0
   69.8440   40.1030   -1.3780 C   0  0  0  0  0  0  0  0  0  0  0  0
   69.5330   41.1470   -2.3780 C   0  0  0  0  0  0  0  0  0  0  0  0
   70.5870   42.0300   -2.5840 O   0  0  0  0  0  0  0  0  0  0  0  0
   70.4320   43.0480   -3.4890 C   0  0  0  0  0  0  0  0  0  0  0  0
   71.5110   43.9200   -3.6530 C   0  0  0  0  0  0  0  0  0  0  0  0
   71.4190   44.9770   -4.5600 C   0  0  0  0  0  0  0  0  0  0  0  0
   70.2520   45.1640   -5.3040 C   0  0  0  0  0  0  0  0  0  0  0  0
   69.1780   44.2930   -5.1390 C   0  0  0  0  0  0  0  0  0  0  0  0
   68.0660   44.5330   -5.8980 O   0  0  0  0  0  0  0  0  0  0  0  0
   69.2690   43.2350   -4.2300 C   0  0  0  0  0  0  0  0  0  0  0  0
   68.1630   42.2970   -4.0250 C   0  0  0  0  0  0  0  0  0  0  0  0
   67.1080   42.3910   -4.6460 O   0  0  0  0  0  0  0  0  0  0  0  0
   68.3580   41.2140   -3.0330 C   0  0  0  0  0  0  0  0  0  0  0  0
   67.3130   40.3260   -2.8580 O   0  0  0  0  0  0  0  0  0  0  0  0
   68.8790   39.6310   -0.4830 C   0  0  0  0  0  0  0  0  0  0  0  0
   69.2050   38.6660    0.4740 C   0  0  0  0  0  0  0  0  0  0  0  0
   70.5090   38.1560    0.5710 C   0  0  0  0  0  0  0  0  0  0  0  0
   70.8080   37.1030    1.6080 C   0  0  0  0  0  0  0  0  0  0  0  0
   70.7050   35.8300    1.1320 F   0  0  0  0  0  0  0  0  0  0  0  0
   73.2186   38.0016    0.7691 H   0  0  0  0  0  0  0  0  0  0  0  0
   72.9694   37.1371   -0.7856 H   0  0  0  0  0  0  0  0  0  0  0  0
   73.5692   38.8302   -0.7856 H   0  0  0  0  0  0  0  0  0  0  0  0
   71.9222   39.9685   -1.9672 H   0  0  0  0  0  0  0  0  0  0  0  0
   72.4313   43.7739   -3.0685 H   0  0  0  0  0  0  0  0  0  0  0  0
   72.2679   45.6645   -4.6891 H   0  0  0  0  0  0  0  0  0  0  0  0
   70.1813   45.9973   -6.0186 H   0  0  0  0  0  0  0  0  0  0  0  0
   67.6930   43.8450   -6.4140 H   0  0  0  0  0  0  0  0  0  0  0  0
   66.4360   40.5910   -3.0550 H   0  0  0  0  0  0  0  0  0  0  0  0
   67.8525   40.0233   -0.5326 H   0  0  0  0  0  0  0  0  0  0  0  0
   68.4279   38.3007    1.1615 H   0  0  0  0  0  0  0  0  0  0  0  0
   71.8336   37.2562    1.9748 H   0  0  0  0  0  0  0  0  0  0  0  0
   70.0600   37.2125    2.4071 H   0  0  0  0  0  0  0  0  0  0  0  0
  1  2  1  0
  2  3  2  0
  3  4  1  0
  4  5  1  0
  5  6  1  0
  6  7  1  0
  7  8  2  0
  8  9  1  0
  9 10  2  0
 10 11  1  0
 11 12  1  0
 11 13  2  0
 13 14  1  0
 14 15  2  0
 14 16  1  0
 16 17  1  0
  4 18  2  0
 18 19  1  0
 19 20  2  0
 20 21  1  0
 21 22  1  0
 20  2  1  0
 16  5  2  0
 13  7  1  0
  1 23  1  0
  1 24  1  0
  1 25  1  0
  3 26  1  0
  8 27  1  0
  9 28  1  0
 10 29  1  0
 12 30  1  0
 17 31  1  0
 18 32  1  0
 19 33  1  0
 21 34  1  0
 21 35  1  0
M  END
>  <meeko>  (4) 
{"is_sidechain": [false], "free_energy": -7.741, "intermolecular_energy": -9.203, "internal_energy": -0.058}

$$$$
cand_037_out
     RDKit          3D

 35 37  0  0  0  0  0  0  0  0999 V2000
   74.7330   45.2680   -3.3400 C   0  0  0  0  0  0  0  0  0  0  0  0
   74.5650   43.8190   -2.9720 C   0  0  0  0  0  0  0  0  0  0  0  0
   73.2650   43.2940   -2.8480 C   0  0  0  0  0  0  0  0  0  0  0  0
   73.0430   41.9520   -2.5050 C   0  0  0  0  0  0  0  0  0  0  0  0
   71.6610   41.4460   -2.3660 C   0  0  0  0  0  0  0  0  0  0  0  0
   71.4780   40.6830   -1.2180 O   0  0  0  0  0  0  0  0  0  0  0  0
   70.2390   40.1520   -0.9650 C   0  0  0  0  0  0  0  0  0  0  0  0
   70.1040   39.3800    0.1910 C   0  0  0  0  0  0  0  0  0  0  0  0
   68.8690   38.8120    0.5080 C   0  0  0  0  0  0  0  0  0  0  0  0
   67.7690   39.0140   -0.3280 C   0  0  0  0  0  0  0  0  0  0  0  0
   67.9060   39.7850   -1.4800 C   0  0  0  0  0  0  0  0  0  0  0  0
   66.7890   39.9430   -2.2530 O   0  0  0  0  0  0  0  0  0  0  0  0
   69.1430   40.3530   -1.7980 C   0  0  0  0  0  0  0  0  0  0  0  0
   69.3300   41.1680   -2.9990 C   0  0  0  0  0  0  0  0  0  0  0  0
   68.4100   41.3980   -3.7800 O   0  0  0  0  0  0  0  0  0  0  0  0
   70.6830   41.7190   -3.2500 C   0  0  0  0  0  0  0  0  0  0  0  0
   70.8450   42.4990   -4.3790 O   0  0  0  0  0  0  0  0  0  0  0  0
   74.1530   41.1360   -2.2620 C   0  0  0  0  0  0  0  0  0  0  0  0
   75.4500   41.6450   -2.3690 C   0  0  0  0  0  0  0  0  0  0  0  0
   75.6730   42.9880   -2.7120 C   0  0  0  0  0  0  0  0  0  0  0  0
   77.0910   43.4870   -2.8350 C   0  0  0  0  0  0  0  0  0  0  0  0
   77.6200   43.3130   -4.0790 F   0  0  0  0  0  0  0  0  0  0  0  0
   74.8032   45.8732   -2.4241 H   0  0  0  0  0  0  0  0  0  0  0  0
   75.6515   45.3917   -3.9325 H   0  0  0  0  0  0  0  0  0  0  0  0
   73.8672   45.5986   -3.9325 H   0  0  0  0  0  0  0  0  0  0  0  0
   72.4016   43.9524   -3.0244 H   0  0  0  0  0  0  0  0  0  0  0  0
   70.9696   39.2198    0.8506 H   0  0  0  0  0  0  0  0  0  0  0  0
   68.7621   38.2039    1.4184 H   0  0  0  0  0  0  0  0  0  0  0  0
   66.7964   38.5653   -0.0774 H   0  0  0  0  0  0  0  0  0  0  0  0
   66.8080   40.5200   -2.9910 H   0  0  0  0  0  0  0  0  0  0  0  0
   71.5030   43.1660   -4.3970 H   0  0  0  0  0  0  0  0  0  0  0  0
   74.0032   40.0824   -1.9837 H   0  0  0  0  0  0  0  0  0  0  0  0
   76.3088   40.9837   -2.1817 H   0  0  0  0  0  0  0  0  0  0  0  0
   77.1046   44.5609   -2.5974 H   0  0  0  0  0  0  0  0  0  0  0  0
   77.7040   42.8988   -2.1362 H   0  0  0  0  0  0  0  0  0  0  0  0
  1  2  1  0
  2  3  2  0
  3  4  1  0
  4  5  1  0
  5  6  1  0
  6  7  1  0
  7  8  2  0
  8  9  1  0
  9 10  2  0
 10 11  1  0
 11 12  1  0
 11 13  2  0
 13 14  1  0
 14 15  2  0
 14 16  1  0
 16 17  1  0
  4 18  2  0
 18 19  1  0
 19 20  2  0
 20 21  1  0
 21 22  1  0
 20  2  1  0
 16  5  2  0
 13  7  1  0
  1 23  1  0
  1 24  1  0
  1 25  1  0
  3 26  1  0
  8 27  1  0
  9 28  1  0
 10 29  1  0
 12 30  1  0
 17 31  1  0
 18 32  1  0
 19 33  1  0
 21 34  1  0
 21 35  1  0
M  END
>  <meeko>  (5) 
{"is_sidechain": [false], "free_energy": -7.715, "intermolecular_energy": -9.137, "internal_energy": -0.092}

$$$$
cand_037_out
     RDKit          3D

 35 37  0  0  0  0  0  0  0  0999 V2000
   73.6840   45.9060   -3.2540 C   0  0  0  0  0  0  0  0  0  0  0  0
   73.0280   44.6790   -3.8260 C   0  0  0  0  0  0  0  0  0  0  0  0
   72.8430   43.5560   -2.9980 C   0  0  0  0  0  0  0  0  0  0  0  0
   72.2410   42.3820   -3.4740 C   0  0  0  0  0  0  0  0  0  0  0  0
   72.0840   41.2180   -2.5750 C   0  0  0  0  0  0  0  0  0  0  0  0
   70.7830   41.0670   -2.1090 O   0  0  0  0  0  0  0  0  0  0  0  0
   70.4970   40.0240   -1.2660 C   0  0  0  0  0  0  0  0  0  0  0  0
   69.1810   39.9180   -0.8110 C   0  0  0  0  0  0  0  0  0  0  0  0
   68.8240   38.8780    0.0490 C   0  0  0  0  0  0  0  0  0  0  0  0
   69.7780   37.9440    0.4540 C   0  0  0  0  0  0  0  0  0  0  0  0
   71.0900   38.0500   -0.0020 C   0  0  0  0  0  0  0  0  0  0  0  0
   71.9740   37.1010    0.4330 O   0  0  0  0  0  0  0  0  0  0  0  0
   71.4490   39.0920   -0.8620 C   0  0  0  0  0  0  0  0  0  0  0  0
   72.8160   39.2410   -1.3630 C   0  0  0  0  0  0  0  0  0  0  0  0
   73.7100   38.4560   -1.0590 O   0  0  0  0  0  0  0  0  0  0  0  0
   73.0940   40.3850   -2.2640 C   0  0  0  0  0  0  0  0  0  0  0  0
   74.3850   40.5080   -2.7430 O   0  0  0  0  0  0  0  0  0  0  0  0
   71.8410   42.3360   -4.8130 C   0  0  0  0  0  0  0  0  0  0  0  0
   72.0280   43.4380   -5.6510 C   0  0  0  0  0  0  0  0  0  0  0  0
   72.6310   44.6130   -5.1770 C   0  0  0  0  0  0  0  0  0  0  0  0
   72.7940   45.7830   -6.1140 C   0  0  0  0  0  0  0  0  0  0  0  0
   73.8150   45.6260   -7.0040 F   0  0  0  0  0  0  0  0  0  0  0  0
   73.6580   45.8573   -2.1554 H   0  0  0  0  0  0  0  0  0  0  0  0
   74.7289   45.9555   -3.5942 H   0  0  0  0  0  0  0  0  0  0  0  0
   73.1448   46.8024   -3.5942 H   0  0  0  0  0  0  0  0  0  0  0  0
   73.1789   43.6001   -1.9515 H   0  0  0  0  0  0  0  0  0  0  0  0
   68.4270   40.6528   -1.1297 H   0  0  0  0  0  0  0  0  0  0  0  0
   67.7877   38.7946    0.4083 H   0  0  0  0  0  0  0  0  0  0  0  0
   69.4947   37.1255    1.1321 H   0  0  0  0  0  0  0  0  0  0  0  0
   72.8630   37.3370    0.6120 H   0  0  0  0  0  0  0  0  0  0  0  0
   74.8030   41.3460   -2.7510 H   0  0  0  0  0  0  0  0  0  0  0  0
   71.3743   41.4227   -5.2106 H   0  0  0  0  0  0  0  0  0  0  0  0
   71.6974   43.3837   -6.6987 H   0  0  0  0  0  0  0  0  0  0  0  0
   71.8577   45.9121   -6.6767 H   0  0  0  0  0  0  0  0  0  0  0  0
   73.0331   46.6620   -5.4973 H   0  0  0  0  0  0  0  0  0  0  0  0
  1  2  1  0
  2  3  2  0
  3  4  1  0
  4  5  1  0
  5  6  1  0
  6  7  1  0
  7  8  2  0
  8  9  1  0
  9 10  2  0
 10 11  1  0
 11 12  1  0
 11 13  2  0
 13 14  1  0
 14 15  2  0
 14 16  1  0
 16 17  1  0
  4 18  2  0
 18 19  1  0
 19 20  2  0
 20 21  1  0
 21 22  1  0
 20  2  1  0
 16  5  2  0
 13  7  1  0
  1 23  1  0
  1 24  1  0
  1 25  1  0
  3 26  1  0
  8 27  1  0
  9 28  1  0
 10 29  1  0
 12 30  1  0
 17 31  1  0
 18 32  1  0
 19 33  1  0
 21 34  1  0
 21 35  1  0
M  END
>  <meeko>  (6) 
{"is_sidechain": [false], "free_energy": -7.633, "intermolecular_energy": -8.729, "internal_energy": -0.404}

$$$$
cand_037_out
     RDKit          3D

 35 37  0  0  0  0  0  0  0  0999 V2000
   75.3480   44.0260   -2.9300 C   0  0  0  0  0  0  0  0  0  0  0  0
   74.2690   43.1760   -3.5440 C   0  0  0  0  0  0  0  0  0  0  0  0
   73.5120   42.3290   -2.7130 C   0  0  0  0  0  0  0  0  0  0  0  0
   72.4960   41.5100   -3.2270 C   0  0  0  0  0  0  0  0  0  0  0  0
   71.7380   40.6200   -2.3210 C   0  0  0  0  0  0  0  0  0  0  0  0
   72.5140   39.5900   -1.8020 O   0  0  0  0  0  0  0  0  0  0  0  0
   71.9350   38.6900   -0.9440 C   0  0  0  0  0  0  0  0  0  0  0  0
   72.7470   37.6640   -0.4580 C   0  0  0  0  0  0  0  0  0  0  0  0
   72.2200   36.7160    0.4200 C   0  0  0  0  0  0  0  0  0  0  0  0
   70.8820   36.7920    0.8130 C   0  0  0  0  0  0  0  0  0  0  0  0
   70.0740   37.8170    0.3290 C   0  0  0  0  0  0  0  0  0  0  0  0
   68.7740   37.8330    0.7550 O   0  0  0  0  0  0  0  0  0  0  0  0
   70.6020   38.7660   -0.5520 C   0  0  0  0  0  0  0  0  0  0  0  0
   69.7870   39.8590   -1.0860 C   0  0  0  0  0  0  0  0  0  0  0  0
   68.6050   39.9980   -0.7820 O   0  0  0  0  0  0  0  0  0  0  0  0
   70.4400   40.8080   -2.0180 C   0  0  0  0  0  0  0  0  0  0  0  0
   69.6650   41.8440   -2.5050 O   0  0  0  0  0  0  0  0  0  0  0  0
   72.2570   41.5320   -4.6040 C   0  0  0  0  0  0  0  0  0  0  0  0
   73.0080   42.3590   -5.4450 C   0  0  0  0  0  0  0  0  0  0  0  0
   74.0260   43.1780   -4.9320 C   0  0  0  0  0  0  0  0  0  0  0  0
   74.7960   44.0670   -5.8760 C   0  0  0  0  0  0  0  0  0  0  0  0
   74.3440   45.3530   -5.8980 F   0  0  0  0  0  0  0  0  0  0  0  0
   75.2785   43.9712   -1.8336 H   0  0  0  0  0  0  0  0  0  0  0  0
   76.3330   43.6586   -3.2538 H   0  0  0  0  0  0  0  0  0  0  0  0
   75.2214   45.0696   -3.2538 H   0  0  0  0  0  0  0  0  0  0  0  0
   73.7224   42.3089   -1.6335 H   0  0  0  0  0  0  0  0  0  0  0  0
   73.8010   37.6028   -0.7667 H   0  0  0  0  0  0  0  0  0  0  0  0
   72.8596   35.9073    0.8033 H   0  0  0  0  0  0  0  0  0  0  0  0
   70.4673   36.0431    1.5038 H   0  0  0  0  0  0  0  0  0  0  0  0
   68.4960   37.2500    1.4330 H   0  0  0  0  0  0  0  0  0  0  0  0
   68.8770   41.6580   -2.9770 H   0  0  0  0  0  0  0  0  0  0  0  0
   71.4702   40.8923   -5.0303 H   0  0  0  0  0  0  0  0  0  0  0  0
   72.7979   42.3679   -6.5247 H   0  0  0  0  0  0  0  0  0  0  0  0
   75.8514   44.0735   -5.5661 H   0  0  0  0  0  0  0  0  0  0  0  0
   74.6627   43.6584   -6.8886 H   0  0  0  0  0  0  0  0  0  0  0  0
  1  2  1  0
  2  3  2  0
  3  4  1  0
  4  5  1  0
  5  6  1  0
  6  7  1  0
  7  8  2  0
  8  9  1  0
  9 10  2  0
 10 11  1  0
 11 12  1  0
 11 13  2  0
 13 14  1  0
 14 15  2  0
 14 16  1  0
 16 17  1  0
  4 18  2  0
 18 19  1  0
 19 20  2  0
 20 21  1  0
 21 22  1  0
 20  2  1  0
 16  5  2  0
 13  7  1  0
  1 23  1  0
  1 24  1  0
  1 25  1  0
  3 26  1  0
  8 27  1  0
  9 28  1  0
 10 29  1  0
 12 30  1  0
 17 31  1  0
 18 32  1  0
 19 33  1  0
 21 34  1  0
 21 35  1  0
M  END
>  <meeko>  (7) 
{"is_sidechain": [false], "free_energy": -7.572, "intermolecular_energy": -8.674, "internal_energy": -0.388}

$$$$
cand_037_out
     RDKit          3D

 35 37  0  0  0  0  0  0  0  0999 V2000
   72.5640   39.4040    0.2530 C   0  0  0  0  0  0  0  0  0  0  0  0
   71.0900   39.3710   -0.0470 C   0  0  0  0  0  0  0  0  0  0  0  0
   70.5370   40.3780   -0.8590 C   0  0  0  0  0  0  0  0  0  0  0  0
   69.1700   40.4030   -1.1720 C   0  0  0  0  0  0  0  0  0  0  0  0
   68.6260   41.4920   -2.0120 C   0  0  0  0  0  0  0  0  0  0  0  0
   67.7080   42.2880   -1.3380 O   0  0  0  0  0  0  0  0  0  0  0  0
   67.1260   43.3370   -2.0010 C   0  0  0  0  0  0  0  0  0  0  0  0
   66.1990   44.1020   -1.2900 C   0  0  0  0  0  0  0  0  0  0  0  0
   65.5710   45.1850   -1.9060 C   0  0  0  0  0  0  0  0  0  0  0  0
   65.8690   45.5070   -3.2320 C   0  0  0  0  0  0  0  0  0  0  0  0
   66.7940   44.7440   -3.9400 C   0  0  0  0  0  0  0  0  0  0  0  0
   67.0400   45.1130   -5.2330 O   0  0  0  0  0  0  0  0  0  0  0  0
   67.4220   43.6580   -3.3230 C   0  0  0  0  0  0  0  0  0  0  0  0
   68.4000   42.8290   -4.0300 C   0  0  0  0  0  0  0  0  0  0  0  0
   68.7200   43.0520   -5.1950 O   0  0  0  0  0  0  0  0  0  0  0  0
   69.0030   41.6970   -3.2880 C   0  0  0  0  0  0  0  0  0  0  0  0
   69.9360   40.9300   -3.9620 O   0  0  0  0  0  0  0  0  0  0  0  0
   68.3470   39.4070   -0.6360 C   0  0  0  0  0  0  0  0  0  0  0  0
   68.8790   38.4060    0.1810 C   0  0  0  0  0  0  0  0  0  0  0  0
   70.2470   38.3800    0.4950 C   0  0  0  0  0  0  0  0  0  0  0  0
   70.7780   37.2700    1.3660 C   0  0  0  0  0  0  0  0  0  0  0  0
   70.6620   36.0350    0.7990 F   0  0  0  0  0  0  0  0  0  0  0  0
   72.7165   39.4074    1.3424 H   0  0  0  0  0  0  0  0  0  0  0  0
   73.0467   38.5164   -0.1820 H   0  0  0  0  0  0  0  0  0  0  0  0
   73.0065   40.3123   -0.1820 H   0  0  0  0  0  0  0  0  0  0  0  0
   71.1931   41.1654   -1.2584 H   0  0  0  0  0  0  0  0  0  0  0  0
   65.9641   43.8510   -0.2451 H   0  0  0  0  0  0  0  0  0  0  0  0
   64.8397   45.7865   -1.3462 H   0  0  0  0  0  0  0  0  0  0  0  0
   65.3739   46.3617   -3.7161 H   0  0  0  0  0  0  0  0  0  0  0  0
   67.1570   46.0180   -5.4480 H   0  0  0  0  0  0  0  0  0  0  0  0
   70.4320   41.3050   -4.6630 H   0  0  0  0  0  0  0  0  0  0  0  0
   67.2700   39.4118   -0.8599 H   0  0  0  0  0  0  0  0  0  0  0  0
   68.2158   37.6265    0.5842 H   0  0  0  0  0  0  0  0  0  0  0  0
   71.8421   37.4630    1.5670 H   0  0  0  0  0  0  0  0  0  0  0  0
   70.1760   37.2629    2.2866 H   0  0  0  0  0  0  0  0  0  0  0  0
  1  2  1  0
  2  3  2  0
  3  4  1  0
  4  5  1  0
  5  6  1  0
  6  7  1  0
  7  8  2  0
  8  9  1  0
  9 10  2  0
 10 11  1  0
 11 12  1  0
 11 13  2  0
 13 14  1  0
 14 15  2  0
 14 16  1  0
 16 17  1  0
  4 18  2  0
 18 19  1  0
 19 20  2  0
 20 21  1  0
 21 22  1  0
 20  2  1  0
 16  5  2  0
 13  7  1  0
  1 23  1  0
  1 24  1  0
  1 25  1  0
  3 26  1  0
  8 27  1  0
  9 28  1  0
 10 29  1  0
 12 30  1  0
 17 31  1  0
 18 32  1  0
 19 33  1  0
 21 34  1  0
 21 35  1  0
M  END
>  <meeko>  (8) 
{"is_sidechain": [false], "free_energy": -7.572, "intermolecular_energy": -8.783, "internal_energy": -0.278}

$$$$
cand_037_out
     RDKit          3D

 35 37  0  0  0  0  0  0  0  0999 V2000
   73.3550   42.5230   -6.3230 C   0  0  0  0  0  0  0  0  0  0  0  0
   73.7140   42.3290   -4.8750 C   0  0  0  0  0  0  0  0  0  0  0  0
   72.9070   41.4970   -4.0770 C   0  0  0  0  0  0  0  0  0  0  0  0
   73.1870   41.2800   -2.7200 C   0  0  0  0  0  0  0  0  0  0  0  0
   72.3010   40.4140   -1.9140 C   0  0  0  0  0  0  0  0  0  0  0  0
   70.9630   40.7820   -1.9980 O   0  0  0  0  0  0  0  0  0  0  0  0
   70.0310   40.0600   -1.2980 C   0  0  0  0  0  0  0  0  0  0  0  0
   68.7010   40.4740   -1.4010 C   0  0  0  0  0  0  0  0  0  0  0  0
   67.7020   39.7820   -0.7140 C   0  0  0  0  0  0  0  0  0  0  0  0
   68.0300   38.6760    0.0730 C   0  0  0  0  0  0  0  0  0  0  0  0
   69.3560   38.2640    0.1730 C   0  0  0  0  0  0  0  0  0  0  0  0
   69.6080   37.1740    0.9600 O   0  0  0  0  0  0  0  0  0  0  0  0
   70.3570   38.9590   -0.5130 C   0  0  0  0  0  0  0  0  0  0  0  0
   71.7630   38.5600   -0.4350 C   0  0  0  0  0  0  0  0  0  0  0  0
   72.1300   37.5950    0.2300 O   0  0  0  0  0  0  0  0  0  0  0  0
   72.7470   39.3670   -1.1940 C   0  0  0  0  0  0  0  0  0  0  0  0
   74.0710   38.9740   -1.1250 O   0  0  0  0  0  0  0  0  0  0  0  0
   74.2880   41.9330   -2.1570 C   0  0  0  0  0  0  0  0  0  0  0  0
   75.0940   42.7710   -2.9330 C   0  0  0  0  0  0  0  0  0  0  0  0
   74.8130   42.9900   -4.2900 C   0  0  0  0  0  0  0  0  0  0  0  0
   75.7220   43.8880   -5.0910 C   0  0  0  0  0  0  0  0  0  0  0  0
   76.6310   43.2070   -5.8440 F   0  0  0  0  0  0  0  0  0  0  0  0
   72.3893   43.0449   -6.3946 H   0  0  0  0  0  0  0  0  0  0  0  0
   74.1336   43.1231   -6.8166 H   0  0  0  0  0  0  0  0  0  0  0  0
   73.2796   41.5428   -6.8166 H   0  0  0  0  0  0  0  0  0  0  0  0
   72.0339   41.0040   -4.5293 H   0  0  0  0  0  0  0  0  0  0  0  0
   68.4412   41.3437   -2.0223 H   0  0  0  0  0  0  0  0  0  0  0  0
   66.6545   40.1085   -0.7927 H   0  0  0  0  0  0  0  0  0  0  0  0
   67.2417   38.1311    0.6131 H   0  0  0  0  0  0  0  0  0  0  0  0
   68.9350   36.5400    1.1110 H   0  0  0  0  0  0  0  0  0  0  0  0
   74.3560   38.4110   -0.4320 H   0  0  0  0  0  0  0  0  0  0  0  0
   74.5223   41.7857   -1.0924 H   0  0  0  0  0  0  0  0  0  0  0  0
   75.9617   43.2662   -2.4727 H   0  0  0  0  0  0  0  0  0  0  0  0
   75.1028   44.5011   -5.7624 H   0  0  0  0  0  0  0  0  0  0  0  0
   76.2886   44.4992   -4.3731 H   0  0  0  0  0  0  0  0  0  0  0  0
  1  2  1  0
  2  3  2  0
  3  4  1  0
  4  5  1  0
  5  6  1  0
  6  7  1  0
  7  8  2  0
  8  9  1  0
  9 10  2  0
 10 11  1  0
 11 12  1  0
 11 13  2  0
 13 14  1  0
 14 15  2  0
 14 16  1  0
 16 17  1  0
  4 18  2  0
 18 19  1  0
 19 20  2  0
 20 21  1  0
 21 22  1  0
 20  2  1  0
 16  5  2  0
 13  7  1  0
  1 23  1  0
  1 24  1  0
  1 25  1  0
  3 26  1  0
  8 27  1  0
  9 28  1  0
 10 29  1  0
 12 30  1  0
 17 31  1  0
 18 32  1  0
 19 33  1  0
 21 34  1  0
 21 35  1  0
M  END
>  <meeko>  (9) 
{"is_sidechain": [false], "free_energy": -7.553, "intermolecular_energy": -8.784, "internal_energy": -0.255}

$$$$
