cand_013_out
     RDKit          3D

 50 53  0  0  0  0  0  0  0  0999 V2000
   77.6780   45.9910   -8.2470 C   0  0  0  0  0  0  0  0  0  0  0  0
   76.6260   45.1750   -7.6470 N   0  0  0  0  0  0  0  0  0  0  0  0
   77.1740   43.8780   -7.1840 C   0  0  0  0  0  0  0  0  0  0  0  0
   76.1080   42.9990   -6.4880 C   0  0  0  0  0  0  0  0  0  0  0  0
   75.5060   43.7400   -5.3540 N   0  0  0  0  0  0  0  0  0  0  0  0
   74.6250   42.9590   -4.5880 C   0  0  0  0  0  0  0  0  0  0  0  0
   73.4840   42.3610   -5.1440 C   0  0  0  0  0  0  0  0  0  0  0  0
   72.6200   41.5830   -4.3690 C   0  0  0  0  0  0  0  0  0  0  0  0
   72.8760   41.3700   -3.0110 C   0  0  0  0  0  0  0  0  0  0  0  0
   71.9660   40.5740   -2.1610 C   0  0  0  0  0  0  0  0  0  0  0  0
   72.6010   39.4990   -1.5500 O   0  0  0  0  0  0  0  0  0  0  0  0
   71.8710   38.6730   -0.7350 C   0  0  0  0  0  0  0  0  0  0  0  0
   72.5510   37.6130   -0.1330 C   0  0  0  0  0  0  0  0  0  0  0  0
   71.8650   36.7350    0.7090 C   0  0  0  0  0  0  0  0  0  0  0  0
   70.5020   36.9150    0.9490 C   0  0  0  0  0  0  0  0  0  0  0  0
   69.8260   37.9740    0.3490 C   0  0  0  0  0  0  0  0  0  0  0  0
   68.4910   38.0920    0.6260 O   0  0  0  0  0  0  0  0  0  0  0  0
   70.5120   38.8530   -0.4940 C   0  0  0  0  0  0  0  0  0  0  0  0
   69.8390   39.9770   -1.1460 C   0  0  0  0  0  0  0  0  0  0  0  0
   68.6410   40.1990   -0.9910 O   0  0  0  0  0  0  0  0  0  0  0  0
   70.6580   40.8540   -2.0150 C   0  0  0  0  0  0  0  0  0  0  0  0
   70.0100   41.9030   -2.6390 O   0  0  0  0  0  0  0  0  0  0  0  0
   74.0110   41.9730   -2.4500 C   0  0  0  0  0  0  0  0  0  0  0  0
   74.8910   42.7610   -3.2230 C   0  0  0  0  0  0  0  0  0  0  0  0
   76.1030   43.3840   -2.5740 C   0  0  0  0  0  0  0  0  0  0  0  0
   76.2240   43.0480   -1.2530 F   0  0  0  0  0  0  0  0  0  0  0  0
   76.0890   44.7490   -2.5850 F   0  0  0  0  0  0  0  0  0  0  0  0
   77.2850   43.0040   -3.1400 F   0  0  0  0  0  0  0  0  0  0  0  0
   74.9270   45.0310   -5.7950 C   0  0  0  0  0  0  0  0  0  0  0  0
   76.0110   45.8810   -6.4980 C   0  0  0  0  0  0  0  0  0  0  0  0
   78.2788   46.4570   -7.4521 H   0  0  0  0  0  0  0  0  0  0  0  0
   78.3243   45.3556   -8.8704 H   0  0  0  0  0  0  0  0  0  0  0  0
   77.2233   46.7750   -8.8704 H   0  0  0  0  0  0  0  0  0  0  0  0
   75.9150   45.0050   -8.3590 H   0  0  0  0  0  0  0  0  0  0  0  0
   77.5691   43.3316   -8.0531 H   0  0  0  0  0  0  0  0  0  0  0  0
   77.9630   44.0921   -6.4480 H   0  0  0  0  0  0  0  0  0  0  0  0
   75.3217   42.7376   -7.2115 H   0  0  0  0  0  0  0  0  0  0  0  0
   76.5846   42.0826   -6.1099 H   0  0  0  0  0  0  0  0  0  0  0  0
   73.2651   42.5077   -6.2120 H   0  0  0  0  0  0  0  0  0  0  0  0
   71.7292   41.1334   -4.8320 H   0  0  0  0  0  0  0  0  0  0  0  0
   73.6252   37.4695   -0.3214 H   0  0  0  0  0  0  0  0  0  0  0  0
   72.4002   35.8996    1.1841 H   0  0  0  0  0  0  0  0  0  0  0  0
   69.9628   36.2215    1.6110 H   0  0  0  0  0  0  0  0  0  0  0  0
   67.8570   37.9220   -0.0430 H   0  0  0  0  0  0  0  0  0  0  0  0
   70.4610   42.4210   -3.2770 H   0  0  0  0  0  0  0  0  0  0  0  0
   74.2210   41.8282   -1.3800 H   0  0  0  0  0  0  0  0  0  0  0  0
   74.1015   44.8399   -6.4965 H   0  0  0  0  0  0  0  0  0  0  0  0
   74.5504   45.5776   -4.9178 H   0  0  0  0  0  0  0  0  0  0  0  0
   75.5500   46.8115   -6.8609 H   0  0  0  0  0  0  0  0  0  0  0  0
   76.8056   46.0839   -5.7649 H   0  0  0  0  0  0  0  0  0  0  0  0
  1  2  1  0
  2  3  1  0
  3  4  1  0
  4  5  1  0
  5  6  1  0
  6  7  2  0
  7  8  1  0
  8  9  2  0
  9 10  1  0
 10 11  1  0
 11 12  1  0
 12 13  2  0
 13 14  1  0
 14 15  2  0
 15 16  1  0
 16 17  1  0
 16 18  2  0
 18 19  1  0
 19 20  2  0
 19 21  1  0
 21 22  1  0
  9 23  1  0
 23 24  2  0
 24 25  1  0
 25 26  1  0
 25 27  1  0
 25 28  1  0
  5 29  1  0
 29 30  1  0
 30  2  1  0
 24  6  1  0
 21 10  2  0
 18 12  1  0
  1 31  1  0
  1 32  1  0
  1 33  1  0
  2 34  1  0
  3 35  1  0
  3 36  1  0
  4 37  1  0
  4 38  1  0
  7 39  1  0
  8 40  1  0
 13 41  1  0
 14 42  1  0
 15 43  1  0
 17 44  1  0
 22 45  1  0
 23 46  1  0
 29 47  1  0
 29 48  1  0
 30 49  1  0
 30 50  1  0
M  CHG  1   2   1
M  END
>  <meeko>  (1) 
{"is_sidechain": [false], "free_energy": -8.229, "intermolecular_energy": -10.154, "internal_energy": -0.593}

$$$$
cand_013_out
     RDKit          3D

 50 53  0  0  0  0  0  0  0  0999 V2000
   77.3430   46.2240   -8.3010 C   0  0  0  0  0  0  0  0  0  0  0  0
   76.3710   45.3230   -7.6850 N   0  0  0  0  0  0  0  0  0  0  0  0
   77.0360   44.0850   -7.2150 C   0  0  0  0  0  0  0  0  0  0  0  0
   76.0580   43.1210   -6.5030 C   0  0  0  0  0  0  0  0  0  0  0  0
   75.4000   43.8160   -5.3710 N   0  0  0  0  0  0  0  0  0  0  0  0
   74.5970   42.9670   -4.5920 C   0  0  0  0  0  0  0  0  0  0  0  0
   73.4740   42.3130   -5.1190 C   0  0  0  0  0  0  0  0  0  0  0  0
   72.6890   41.4670   -4.3310 C   0  0  0  0  0  0  0  0  0  0  0  0
   73.0090   41.2420   -2.9890 C   0  0  0  0  0  0  0  0  0  0  0  0
   72.1820   40.3750   -2.1240 C   0  0  0  0  0  0  0  0  0  0  0  0
   70.8380   40.7320   -2.1280 O   0  0  0  0  0  0  0  0  0  0  0  0
   69.9570   40.0100   -1.3640 C   0  0  0  0  0  0  0  0  0  0  0  0
   68.6170   40.3960   -1.4080 C   0  0  0  0  0  0  0  0  0  0  0  0
   67.6680   39.7020   -0.6520 C   0  0  0  0  0  0  0  0  0  0  0  0
   68.0590   38.6250    0.1450 C   0  0  0  0  0  0  0  0  0  0  0  0
   69.3970   38.2420    0.1860 C   0  0  0  0  0  0  0  0  0  0  0  0
   69.7120   37.1790    0.9890 O   0  0  0  0  0  0  0  0  0  0  0  0
   70.3460   38.9360   -0.5690 C   0  0  0  0  0  0  0  0  0  0  0  0
   71.7620   38.5660   -0.5540 C   0  0  0  0  0  0  0  0  0  0  0  0
   72.1860   37.6360    0.1270 O   0  0  0  0  0  0  0  0  0  0  0  0
   72.6860   39.3610   -1.3960 C   0  0  0  0  0  0  0  0  0  0  0  0
   74.0240   39.0150   -1.3610 O   0  0  0  0  0  0  0  0  0  0  0  0
   74.1260   41.9000   -2.4560 C   0  0  0  0  0  0  0  0  0  0  0  0
   74.9260   42.7570   -3.2420 C   0  0  0  0  0  0  0  0  0  0  0  0
   76.1230   43.4390   -2.6250 C   0  0  0  0  0  0  0  0  0  0  0  0
   76.2950   43.1100   -1.3070 F   0  0  0  0  0  0  0  0  0  0  0  0
   76.0420   44.8020   -2.6330 F   0  0  0  0  0  0  0  0  0  0  0  0
   77.3070   43.1170   -3.2210 F   0  0  0  0  0  0  0  0  0  0  0  0
   74.7050   45.0460   -5.8190 C   0  0  0  0  0  0  0  0  0  0  0  0
   75.7040   45.9830   -6.5380 C   0  0  0  0  0  0  0  0  0  0  0  0
   77.9074   46.7472   -7.5151 H   0  0  0  0  0  0  0  0  0  0  0  0
   78.0371   45.6428   -8.9258 H   0  0  0  0  0  0  0  0  0  0  0  0
   76.8160   46.9602   -8.9258 H   0  0  0  0  0  0  0  0  0  0  0  0
   75.6730   45.0840   -8.3900 H   0  0  0  0  0  0  0  0  0  0  0  0
   77.4723   43.5678   -8.0823 H   0  0  0  0  0  0  0  0  0  0  0  0
   77.8078   44.3758   -6.4872 H   0  0  0  0  0  0  0  0  0  0  0  0
   75.2933   42.7833   -7.2180 H   0  0  0  0  0  0  0  0  0  0  0  0
   76.6174   42.2545   -6.1205 H   0  0  0  0  0  0  0  0  0  0  0  0
   73.2055   42.4691   -6.1742 H   0  0  0  0  0  0  0  0  0  0  0  0
   71.8103   40.9731   -4.7713 H   0  0  0  0  0  0  0  0  0  0  0  0
   68.3081   41.2445   -2.0362 H   0  0  0  0  0  0  0  0  0  0  0  0
   66.6111   40.0052   -0.6852 H   0  0  0  0  0  0  0  0  0  0  0  0
   67.3114   38.0797    0.7397 H   0  0  0  0  0  0  0  0  0  0  0  0
   69.3170   36.3430    0.8340 H   0  0  0  0  0  0  0  0  0  0  0  0
   74.6780   39.6510   -1.5740 H   0  0  0  0  0  0  0  0  0  0  0  0
   74.3857   41.7446   -1.3985 H   0  0  0  0  0  0  0  0  0  0  0  0
   73.8951   44.7753   -6.5124 H   0  0  0  0  0  0  0  0  0  0  0  0
   74.2872   45.5651   -4.9438 H   0  0  0  0  0  0  0  0  0  0  0  0
   75.1593   46.8651   -6.9057 H   0  0  0  0  0  0  0  0  0  0  0  0
   76.4823   46.2637   -5.8131 H   0  0  0  0  0  0  0  0  0  0  0  0
  1  2  1  0
  2  3  1  0
  3  4  1  0
  4  5  1  0
  5  6  1  0
  6  7  2  0
  7  8  1  0
  8  9  2  0
  9 10  1  0
 10 11  1  0
 11 12  1  0
 12 13  2  0
 13 14  1  0
 14 15  2  0
 15 16  1  0
 16 17  1  0
 16 18  2  0
 18 19  1  0
 19 20  2  0
 19 21  1  0
 21 22  1  0
  9 23  1  0
 23 24  2  0
 24 25  1  0
 25 26  1  0
 25 27  1  0
 25 28  1  0
  5 29  1  0
 29 30  1  0
 30  2  1  0
 24  6  1  0
 21 10  2  0
 18 12  1  0
  1 31  1  0
  1 32  1  0
  1 33  1  0
  2 34  1  0
  3 35  1  0
  3 36  1  0
  4 37  1  0
  4 38  1  0
  7 39  1  0
  8 40  1  0
 13 41  1  0
 14 42  1  0
 15 43  1  0
 17 44  1  0
 22 45  1  0
 23 46  1  0
 29 47  1  0
 29 48  1  0
 30 49  1  0
 30 50  1  0
M  CHG  1   2   1
M  END
>  <meeko>  (2) 
{"is_sidechain": [false], "free_energy": -8.21, "intermolecular_energy": -10.188, "internal_energy": -0.534}

$$$$
cand_013_out
     RDKit          3D

 50 53  0  0  0  0  0  0  0  0999 V2000
   78.4750   47.6600   -4.9850 C   0  0  0  0  0  0  0  0  0  0  0  0
   77.1470   47.0650   -4.8500 N   0  0  0  0  0  0  0  0  0  0  0  0
   77.1580   45.6590   -5.3180 C   0  0  0  0  0  0  0  0  0  0  0  0
   75.7860   44.9660   -5.1430 C   0  0  0  0  0  0  0  0  0  0  0  0
   75.3650   45.0350   -3.7240 N   0  0  0  0  0  0  0  0  0  0  0  0
   74.1920   44.3080   -3.4590 C   0  0  0  0  0  0  0  0  0  0  0  0
   72.9220   44.7890   -3.8130 C   0  0  0  0  0  0  0  0  0  0  0  0
   71.7660   44.0520   -3.5470 C   0  0  0  0  0  0  0  0  0  0  0  0
   71.8430   42.8030   -2.9240 C   0  0  0  0  0  0  0  0  0  0  0  0
   70.6360   42.0130   -2.6050 C   0  0  0  0  0  0  0  0  0  0  0  0
   70.7920   41.2190   -1.4740 O   0  0  0  0  0  0  0  0  0  0  0  0
   69.7460   40.4300   -1.0680 C   0  0  0  0  0  0  0  0  0  0  0  0
   69.9430   39.6590    0.0780 C   0  0  0  0  0  0  0  0  0  0  0  0
   68.9180   38.8330    0.5460 C   0  0  0  0  0  0  0  0  0  0  0  0
   67.6990   38.7780   -0.1320 C   0  0  0  0  0  0  0  0  0  0  0  0
   67.5050   39.5490   -1.2750 C   0  0  0  0  0  0  0  0  0  0  0  0
   66.2870   39.4470   -1.8910 O   0  0  0  0  0  0  0  0  0  0  0  0
   68.5310   40.3750   -1.7430 C   0  0  0  0  0  0  0  0  0  0  0  0
   68.3690   41.2000   -2.9410 C   0  0  0  0  0  0  0  0  0  0  0  0
   67.3290   41.2020   -3.5950 O   0  0  0  0  0  0  0  0  0  0  0  0
   69.5140   42.0470   -3.3490 C   0  0  0  0  0  0  0  0  0  0  0  0
   69.3570   42.8100   -4.4910 O   0  0  0  0  0  0  0  0  0  0  0  0
   73.1100   42.3230   -2.5610 C   0  0  0  0  0  0  0  0  0  0  0  0
   74.2850   43.0580   -2.8240 C   0  0  0  0  0  0  0  0  0  0  0  0
   75.6260   42.4970   -2.4200 C   0  0  0  0  0  0  0  0  0  0  0  0
   75.5280   41.2530   -1.8560 F   0  0  0  0  0  0  0  0  0  0  0  0
   76.2770   43.2500   -1.4850 F   0  0  0  0  0  0  0  0  0  0  0  0
   76.4930   42.3390   -3.4620 F   0  0  0  0  0  0  0  0  0  0  0  0
   75.3210   46.4340   -3.2370 C   0  0  0  0  0  0  0  0  0  0  0  0
   76.7010   47.1040   -3.4380 C   0  0  0  0  0  0  0  0  0  0  0  0
   78.8956   47.8485   -3.9862 H   0  0  0  0  0  0  0  0  0  0  0  0
   79.1317   46.9701   -5.5352 H   0  0  0  0  0  0  0  0  0  0  0  0
   78.3972   48.6093   -5.5352 H   0  0  0  0  0  0  0  0  0  0  0  0
   76.5010   47.6070   -5.4240 H   0  0  0  0  0  0  0  0  0  0  0  0
   77.4273   45.6442   -6.3844 H   0  0  0  0  0  0  0  0  0  0  0  0
   77.8904   45.1094   -4.7085 H   0  0  0  0  0  0  0  0  0  0  0  0
   75.0383   45.4730   -5.7706 H   0  0  0  0  0  0  0  0  0  0  0  0
   75.8709   43.9118   -5.4453 H   0  0  0  0  0  0  0  0  0  0  0  0
   72.8354   45.7664   -4.3101 H   0  0  0  0  0  0  0  0  0  0  0  0
   70.7842   44.4588   -3.8308 H   0  0  0  0  0  0  0  0  0  0  0  0
   70.9037   39.7014    0.6121 H   0  0  0  0  0  0  0  0  0  0  0  0
   69.0717   38.2252    1.4499 H   0  0  0  0  0  0  0  0  0  0  0  0
   66.8928   38.1265    0.2362 H   0  0  0  0  0  0  0  0  0  0  0  0
   65.6020   40.0500   -1.6760 H   0  0  0  0  0  0  0  0  0  0  0  0
   69.9290   42.6830   -5.2220 H   0  0  0  0  0  0  0  0  0  0  0  0
   73.1895   41.3479   -2.0581 H   0  0  0  0  0  0  0  0  0  0  0  0
   74.5587   46.9926   -3.7999 H   0  0  0  0  0  0  0  0  0  0  0  0
   75.0687   46.4375   -2.1663 H   0  0  0  0  0  0  0  0  0  0  0  0
   76.6339   48.1541   -3.1175 H   0  0  0  0  0  0  0  0  0  0  0  0
   77.4354   46.5460   -2.8386 H   0  0  0  0  0  0  0  0  0  0  0  0
  1  2  1  0
  2  3  1  0
  3  4  1  0
  4  5  1  0
  5  6  1  0
  6  7  2  0
  7  8  1  0
  8  9  2  0
  9 10  1  0
 10 11  1  0
 11 12  1  0
 12 13  2  0
 13 14  1  0
 14 15  2  0
 15 16  1  0
 16 17  1  0
 16 18  2  0
 18 19  1  0
 19 20  2  0
 19 21  1  0
 21 22  1  0
  9 23  1  0
 23 24  2  0
 24 25  1  0
 25 26  1  0
 25 27  1  0
 25 28  1  0
  5 29  1  0
 29 30  1  0
 30  2  1  0
 24  6  1  0
 21 10  2  0
 18 12  1  0
  1 31  1  0
  1 32  1  0
  1 33  1  0
  2 34  1  0
  3 35  1  0
  3 36  1  0
  4 37  1  0
  4 38  1  0
  7 39  1  0
  8 40  1  0
 13 41  1  0
 14 42  1  0
 15 43  1  0
 17 44  1  0
 22 45  1  0
 23 46  1  0
 29 47  1  0
 29 48  1  0
 30 49  1  0
 30 50  1  0
M  CHG  1   2   1
M  END
>  <meeko>  (3) 
{"is_sidechain": [false], "free_energy": -8.025, "intermolecular_energy": -10.231, "internal_energy": -0.263}

$$$$
cand_013_out
     RDKit          3D

 50 53  0  0  0  0  0  0  0  0999 V2000
   69.0830   47.9460   -8.4720 C   0  0  0  0  0  0  0  0  0  0  0  0
   69.3980   46.7170   -7.7480 N   0  0  0  0  0  0  0  0  0  0  0  0
   70.0870   47.0260   -6.4740 C   0  0  0  0  0  0  0  0  0  0  0  0
   70.3920   45.7580   -5.6420 C   0  0  0  0  0  0  0  0  0  0  0  0
   69.1380   45.0120   -5.3830 N   0  0  0  0  0  0  0  0  0  0  0  0
   69.3130   43.9190   -4.5180 C   0  0  0  0  0  0  0  0  0  0  0  0
   70.2430   42.9020   -4.7810 C   0  0  0  0  0  0  0  0  0  0  0  0
   70.4080   41.8240   -3.9070 C   0  0  0  0  0  0  0  0  0  0  0  0
   69.6510   41.7330   -2.7360 C   0  0  0  0  0  0  0  0  0  0  0  0
   69.7850   40.5910   -1.8070 C   0  0  0  0  0  0  0  0  0  0  0  0
   71.0840   40.1020   -1.7370 O   0  0  0  0  0  0  0  0  0  0  0  0
   71.3490   39.0370   -0.9130 C   0  0  0  0  0  0  0  0  0  0  0  0
   72.6690   38.5870   -0.8650 C   0  0  0  0  0  0  0  0  0  0  0  0
   73.0060   37.5060   -0.0460 C   0  0  0  0  0  0  0  0  0  0  0  0
   72.0240   36.8770    0.7220 C   0  0  0  0  0  0  0  0  0  0  0  0
   70.7090   37.3300    0.6730 C   0  0  0  0  0  0  0  0  0  0  0  0
   69.7980   36.6680    1.4510 O   0  0  0  0  0  0  0  0  0  0  0  0
   70.3720   38.4110   -0.1460 C   0  0  0  0  0  0  0  0  0  0  0  0
   69.0010   38.9160   -0.2290 C   0  0  0  0  0  0  0  0  0  0  0  0
   68.0810   38.4130    0.4110 O   0  0  0  0  0  0  0  0  0  0  0  0
   68.7490   40.0710   -1.1220 C   0  0  0  0  0  0  0  0  0  0  0  0
   67.4490   40.5310   -1.2050 O   0  0  0  0  0  0  0  0  0  0  0  0
   68.7150   42.7430   -2.4730 C   0  0  0  0  0  0  0  0  0  0  0  0
   68.5390   43.8370   -3.3480 C   0  0  0  0  0  0  0  0  0  0  0  0
   67.5220   44.9020   -3.0190 C   0  0  0  0  0  0  0  0  0  0  0  0
   66.8930   44.6790   -1.8230 F   0  0  0  0  0  0  0  0  0  0  0  0
   66.5100   44.9940   -3.9310 F   0  0  0  0  0  0  0  0  0  0  0  0
   68.0550   46.1530   -2.9030 F   0  0  0  0  0  0  0  0  0  0  0  0
   68.4400   44.6670   -6.6440 C   0  0  0  0  0  0  0  0  0  0  0  0
   68.1620   45.9520   -7.4590 C   0  0  0  0  0  0  0  0  0  0  0  0
   68.8763   48.7524   -7.7530 H   0  0  0  0  0  0  0  0  0  0  0  0
   69.9378   48.2285   -9.1041 H   0  0  0  0  0  0  0  0  0  0  0  0
   68.1977   47.7825   -9.1041 H   0  0  0  0  0  0  0  0  0  0  0  0
   70.0130   46.1540   -8.3360 H   0  0  0  0  0  0  0  0  0  0  0  0
   71.0351   47.5357   -6.7005 H   0  0  0  0  0  0  0  0  0  0  0  0
   69.4171   47.6633   -5.8781 H   0  0  0  0  0  0  0  0  0  0  0  0
   71.0904   45.1157   -6.1985 H   0  0  0  0  0  0  0  0  0  0  0  0
   70.8428   46.0534   -4.6831 H   0  0  0  0  0  0  0  0  0  0  0  0
   70.8547   42.9542   -5.6937 H   0  0  0  0  0  0  0  0  0  0  0  0
   71.1414   41.0390   -4.1434 H   0  0  0  0  0  0  0  0  0  0  0  0
   73.4425   39.0821   -1.4705 H   0  0  0  0  0  0  0  0  0  0  0  0
   74.0461   37.1502   -0.0063 H   0  0  0  0  0  0  0  0  0  0  0  0
   72.2894   36.0247    1.3648 H   0  0  0  0  0  0  0  0  0  0  0  0
   69.0290   36.2990    1.0600 H   0  0  0  0  0  0  0  0  0  0  0  0
   67.1010   40.8070   -2.0300 H   0  0  0  0  0  0  0  0  0  0  0  0
   68.1020   42.6816   -1.5617 H   0  0  0  0  0  0  0  0  0  0  0  0
   69.0711   43.9884   -7.2366 H   0  0  0  0  0  0  0  0  0  0  0  0
   67.4855   44.1742   -6.4071 H   0  0  0  0  0  0  0  0  0  0  0  0
   67.6899   45.6706   -8.4119 H   0  0  0  0  0  0  0  0  0  0  0  0
   67.5032   46.5948   -6.8567 H   0  0  0  0  0  0  0  0  0  0  0  0
  1  2  1  0
  2  3  1  0
  3  4  1  0
  4  5  1  0
  5  6  1  0
  6  7  2  0
  7  8  1  0
  8  9  2  0
  9 10  1  0
 10 11  1  0
 11 12  1  0
 12 13  2  0
 13 14  1  0
 14 15  2  0
 15 16  1  0
 16 17  1  0
 16 18  2  0
 18 19  1  0
 19 20  2  0
 19 21  1  0
 21 22  1  0
  9 23  1  0
 23 24  2  0
 24 25  1  0
 25 26  1  0
 25 27  1  0
 25 28  1  0
  5 29  1  0
 29 30  1  0
 30  2  1  0
 24  6  1  0
 21 10  2  0
 18 12  1  0
  1 31  1  0
  1 32  1  0
  1 33  1  0
  2 34  1  0
  3 35  1  0
  3 36  1  0
  4 37  1  0
  4 38  1  0
  7 39  1  0
  8 40  1  0
 13 41  1  0
 14 42  1  0
 15 43  1  0
 17 44  1  0
 22 45  1  0
 23 46  1  0
 29 47  1  0
 29 48  1  0
 30 49  1  0
 30 50  1  0
M  CHG  1   2   1
M  END
>  <meeko>  (4) 
{"is_sidechain": [false], "free_energy": -8.015, "intermolecular_energy": -10.212, "internal_energy": -0.27}

$$$$
cand_013_out
     RDKit          3D

 50 53  0  0  0  0  0  0  0  0999 V2000
   67.6110   47.5350   -8.6890 C   0  0  0  0  0  0  0  0  0  0  0  0
   68.3510   46.4620   -8.0280 N   0  0  0  0  0  0  0  0  0  0  0  0
   68.9600   46.9490   -6.7690 C   0  0  0  0  0  0  0  0  0  0  0  0
   69.7090   45.8330   -6.0010 C   0  0  0  0  0  0  0  0  0  0  0  0
   68.7860   44.7060   -5.7270 N   0  0  0  0  0  0  0  0  0  0  0  0
   69.3550   43.7110   -4.9150 C   0  0  0  0  0  0  0  0  0  0  0  0
   70.5600   43.0750   -5.2500 C   0  0  0  0  0  0  0  0  0  0  0  0
   71.1150   42.0910   -4.4280 C   0  0  0  0  0  0  0  0  0  0  0  0
   70.4850   41.7160   -3.2380 C   0  0  0  0  0  0  0  0  0  0  0  0
   71.0350   40.6590   -2.3630 C   0  0  0  0  0  0  0  0  0  0  0  0
   70.0690   40.0740   -1.5510 O   0  0  0  0  0  0  0  0  0  0  0  0
   70.4450   39.0790   -0.6860 C   0  0  0  0  0  0  0  0  0  0  0  0
   69.4420   38.5120    0.1010 C   0  0  0  0  0  0  0  0  0  0  0  0
   69.7570   37.4930    1.0040 C   0  0  0  0  0  0  0  0  0  0  0  0
   71.0740   37.0440    1.1200 C   0  0  0  0  0  0  0  0  0  0  0  0
   72.0720   37.6110    0.3330 C   0  0  0  0  0  0  0  0  0  0  0  0
   73.3410   37.1240    0.4980 O   0  0  0  0  0  0  0  0  0  0  0  0
   71.7570   38.6300   -0.5700 C   0  0  0  0  0  0  0  0  0  0  0  0
   72.7770   39.2540   -1.4140 C   0  0  0  0  0  0  0  0  0  0  0  0
   73.9580   38.9180   -1.3650 O   0  0  0  0  0  0  0  0  0  0  0  0
   72.3370   40.3200   -2.3430 C   0  0  0  0  0  0  0  0  0  0  0  0
   73.3110   40.9150   -3.1240 O   0  0  0  0  0  0  0  0  0  0  0  0
   69.2770   42.3430   -2.9040 C   0  0  0  0  0  0  0  0  0  0  0  0
   68.7060   43.3390   -3.7260 C   0  0  0  0  0  0  0  0  0  0  0  0
   67.4060   43.9890   -3.3210 C   0  0  0  0  0  0  0  0  0  0  0  0
   66.9190   43.5020   -2.1370 F   0  0  0  0  0  0  0  0  0  0  0  0
   66.3940   43.7970   -4.2170 F   0  0  0  0  0  0  0  0  0  0  0  0
   67.5020   45.3370   -3.1280 F   0  0  0  0  0  0  0  0  0  0  0  0
   68.1810   44.1820   -6.9750 C   0  0  0  0  0  0  0  0  0  0  0  0
   67.4540   45.3220   -7.7250 C   0  0  0  0  0  0  0  0  0  0  0  0
   67.1590   48.1903   -7.9299 H   0  0  0  0  0  0  0  0  0  0  0  0
   68.2979   48.1210   -9.3173 H   0  0  0  0  0  0  0  0  0  0  0  0
   66.8191   47.1012   -9.3173 H   0  0  0  0  0  0  0  0  0  0  0  0
   69.0880   46.1520   -8.6620 H   0  0  0  0  0  0  0  0  0  0  0  0
   69.6732   47.7511   -7.0096 H   0  0  0  0  0  0  0  0  0  0  0  0
   68.1466   47.3107   -6.1228 H   0  0  0  0  0  0  0  0  0  0  0  0
   70.5529   45.4745   -6.6088 H   0  0  0  0  0  0  0  0  0  0  0  0
   70.0833   46.2359   -5.0483 H   0  0  0  0  0  0  0  0  0  0  0  0
   71.0781   43.3568   -6.1785 H   0  0  0  0  0  0  0  0  0  0  0  0
   72.0580   41.6061   -4.7205 H   0  0  0  0  0  0  0  0  0  0  0  0
   68.4046   38.8666    0.0108 H   0  0  0  0  0  0  0  0  0  0  0  0
   68.9668   37.0443    1.6239 H   0  0  0  0  0  0  0  0  0  0  0  0
   71.3223   36.2434    1.8323 H   0  0  0  0  0  0  0  0  0  0  0  0
   74.0250   37.6910    0.7980 H   0  0  0  0  0  0  0  0  0  0  0  0
   73.3340   41.8470   -3.2150 H   0  0  0  0  0  0  0  0  0  0  0  0
   68.7603   42.0517   -1.9776 H   0  0  0  0  0  0  0  0  0  0  0  0
   68.9717   43.7682   -7.6181 H   0  0  0  0  0  0  0  0  0  0  0  0
   67.4564   43.3935   -6.7235 H   0  0  0  0  0  0  0  0  0  0  0  0
   67.0559   44.9250   -8.6704 H   0  0  0  0  0  0  0  0  0  0  0  0
   66.6498   45.6927   -7.0725 H   0  0  0  0  0  0  0  0  0  0  0  0
  1  2  1  0
  2  3  1  0
  3  4  1  0
  4  5  1  0
  5  6  1  0
  6  7  2  0
  7  8  1  0
  8  9  2  0
  9 10  1  0
 10 11  1  0
 11 12  1  0
 12 13  2  0
 13 14  1  0
 14 15  2  0
 15 16  1  0
 16 17  1  0
 16 18  2  0
 18 19  1  0
 19 20  2  0
 19 21  1  0
 21 22  1  0
  9 23  1  0
 23 24  2  0
 24 25  1  0
 25 26  1  0
 25 27  1  0
 25 28  1  0
  5 29  1  0
 29 30  1  0
 30  2  1  0
 24  6  1  0
 21 10  2  0
 18 12  1  0
  1 31  1  0
  1 32  1  0
  1 33  1  0
  2 34  1  0
  3 35  1  0
  3 36  1  0
  4 37  1  0
  4 38  1  0
  7 39  1  0
  8 40  1  0
 13 41  1  0
 14 42  1  0
 15 43  1  0
 17 44  1  0
 22 45  1  0
 23 46  1  0
 29 47  1  0
 29 48  1  0
 30 49  1  0
 30 50  1  0
M  CHG  1   2   1
M  END
>  <meeko>  (5) 
{"is_sidechain": [false], "free_energy": -7.902, "intermolecular_energy": -10.107, "internal_energy": -0.235}

$$$$
cand_013_out
     RDKit          3D

 50 53  0  0  0  0  0  0  0  0999 V2000
   66.4850   49.1540   -6.7680 C   0  0  0  0  0  0  0  0  0  0  0  0
   66.6090   48.0720   -5.7930 N   0  0  0  0  0  0  0  0  0  0  0  0
   66.3150   46.7650   -6.4270 C   0  0  0  0  0  0  0  0  0  0  0  0
   66.4880   45.5800   -5.4490 C   0  0  0  0  0  0  0  0  0  0  0  0
   67.8600   45.5850   -4.8890 N   0  0  0  0  0  0  0  0  0  0  0  0
   68.1380   44.4600   -4.0940 C   0  0  0  0  0  0  0  0  0  0  0  0
   67.4150   44.1760   -2.9260 C   0  0  0  0  0  0  0  0  0  0  0  0
   67.7010   43.0500   -2.1500 C   0  0  0  0  0  0  0  0  0  0  0  0
   68.7170   42.1660   -2.5240 C   0  0  0  0  0  0  0  0  0  0  0  0
   69.0600   40.9820   -1.7080 C   0  0  0  0  0  0  0  0  0  0  0  0
   70.4290   40.7450   -1.6490 O   0  0  0  0  0  0  0  0  0  0  0  0
   70.8860   39.6720   -0.9260 C   0  0  0  0  0  0  0  0  0  0  0  0
   72.2670   39.4800   -0.8840 C   0  0  0  0  0  0  0  0  0  0  0  0
   72.7980   38.4050   -0.1660 C   0  0  0  0  0  0  0  0  0  0  0  0
   71.9490   37.5250    0.5080 C   0  0  0  0  0  0  0  0  0  0  0  0
   70.5720   37.7210    0.4650 C   0  0  0  0  0  0  0  0  0  0  0  0
   69.7980   36.8210    1.1460 O   0  0  0  0  0  0  0  0  0  0  0  0
   70.0400   38.7950   -0.2540 C   0  0  0  0  0  0  0  0  0  0  0  0
   68.5980   39.0350   -0.3260 C   0  0  0  0  0  0  0  0  0  0  0  0
   67.7870   38.3030    0.2340 O   0  0  0  0  0  0  0  0  0  0  0  0
   68.1380   40.2060   -1.1080 C   0  0  0  0  0  0  0  0  0  0  0  0
   66.7740   40.4150   -1.1840 O   0  0  0  0  0  0  0  0  0  0  0  0
   69.4480   42.4510   -3.6860 C   0  0  0  0  0  0  0  0  0  0  0  0
   69.1680   43.5850   -4.4780 C   0  0  0  0  0  0  0  0  0  0  0  0
   69.9790   43.8470   -5.7240 C   0  0  0  0  0  0  0  0  0  0  0  0
   70.9970   42.9460   -5.8880 F   0  0  0  0  0  0  0  0  0  0  0  0
   70.5900   45.0670   -5.7340 F   0  0  0  0  0  0  0  0  0  0  0  0
   69.2540   43.7660   -6.8770 F   0  0  0  0  0  0  0  0  0  0  0  0
   68.1710   46.8740   -4.2250 C   0  0  0  0  0  0  0  0  0  0  0  0
   67.9760   48.0390   -5.2230 C   0  0  0  0  0  0  0  0  0  0  0  0
   66.3751   50.1127   -6.2399 H   0  0  0  0  0  0  0  0  0  0  0  0
   67.3856   49.1840   -7.3989 H   0  0  0  0  0  0  0  0  0  0  0  0
   65.6010   48.9795   -7.3989 H   0  0  0  0  0  0  0  0  0  0  0  0
   65.9350   48.2430   -5.0460 H   0  0  0  0  0  0  0  0  0  0  0  0
   65.2765   46.7745   -6.7895 H   0  0  0  0  0  0  0  0  0  0  0  0
   67.0299   46.6251   -7.2512 H   0  0  0  0  0  0  0  0  0  0  0  0
   65.7594   45.6734   -4.6302 H   0  0  0  0  0  0  0  0  0  0  0  0
   66.3207   44.6367   -5.9895 H   0  0  0  0  0  0  0  0  0  0  0  0
   66.6064   44.8537   -2.6147 H   0  0  0  0  0  0  0  0  0  0  0  0
   67.1208   42.8572   -1.2356 H   0  0  0  0  0  0  0  0  0  0  0  0
   72.9364   40.1730   -1.4147 H   0  0  0  0  0  0  0  0  0  0  0  0
   73.8868   38.2519   -0.1318 H   0  0  0  0  0  0  0  0  0  0  0  0
   72.3678   36.6785    1.0719 H   0  0  0  0  0  0  0  0  0  0  0  0
   69.1420   36.3290    0.6920 H   0  0  0  0  0  0  0  0  0  0  0  0
   66.2880   40.0830   -1.9130 H   0  0  0  0  0  0  0  0  0  0  0  0
   70.2603   41.7735   -3.9880 H   0  0  0  0  0  0  0  0  0  0  0  0
   67.4988   47.0133   -3.3655 H   0  0  0  0  0  0  0  0  0  0  0  0
   69.2158   46.8621   -3.8810 H   0  0  0  0  0  0  0  0  0  0  0  0
   68.1632   48.9879   -4.6991 H   0  0  0  0  0  0  0  0  0  0  0  0
   68.6820   47.8907   -6.0534 H   0  0  0  0  0  0  0  0  0  0  0  0
  1  2  1  0
  2  3  1  0
  3  4  1  0
  4  5  1  0
  5  6  1  0
  6  7  2  0
  7  8  1  0
  8  9  2  0
  9 10  1  0
 10 11  1  0
 11 12  1  0
 12 13  2  0
 13 14  1  0
 14 15  2  0
 15 16  1  0
 16 17  1  0
 16 18  2  0
 18 19  1  0
 19 20  2  0
 19 21  1  0
 21 22  1  0
  9 23  1  0
 23 24  2  0
 24 25  1  0
 25 26  1  0
 25 27  1  0
 25 28  1  0
  5 29  1  0
 29 30  1  0
 30  2  1  0
 24  6  1  0
 21 10  2  0
 18 12  1  0
  1 31  1  0
  1 32  1  0
  1 33  1  0
  2 34  1  0
  3 35  1  0
  3 36  1  0
  4 37  1  0
  4 38  1  0
  7 39  1  0
  8 40  1  0
 13 41  1  0
 14 42  1  0
 15 43  1  0
 17 44  1  0
 22 45  1  0
 23 46  1  0
 29 47  1  0
 29 48  1  0
 30 49  1  0
 30 50  1  0
M  CHG  1   2   1
M  END
>  <meeko>  (6) 
{"is_sidechain": [false], "free_energy": -7.685, "intermolecular_energy": -9.662, "internal_energy": -0.412}

$$$$
cand_013_out
     RDKit          3D

 50 53  0  0  0  0  0  0  0  0999 V2000
   76.7920   48.4920   -6.4170 C   0  0  0  0  0  0  0  0  0  0  0  0
   75.8450   47.6800   -5.6560 N   0  0  0  0  0  0  0  0  0  0  0  0
   75.2610   46.6220   -6.5130 C   0  0  0  0  0  0  0  0  0  0  0  0
   74.2920   45.6980   -5.7370 C   0  0  0  0  0  0  0  0  0  0  0  0
   74.9920   45.0960   -4.5770 N   0  0  0  0  0  0  0  0  0  0  0  0
   74.2180   44.1390   -3.9000 C   0  0  0  0  0  0  0  0  0  0  0  0
   72.9940   44.4630   -3.2950 C   0  0  0  0  0  0  0  0  0  0  0  0
   72.2340   43.4980   -2.6290 C   0  0  0  0  0  0  0  0  0  0  0  0
   72.6710   42.1720   -2.5560 C   0  0  0  0  0  0  0  0  0  0  0  0
   71.9020   41.1360   -1.8360 C   0  0  0  0  0  0  0  0  0  0  0  0
   72.7040   40.1130   -1.3430 O   0  0  0  0  0  0  0  0  0  0  0  0
   72.1160   39.0810   -0.6560 C   0  0  0  0  0  0  0  0  0  0  0  0
   72.9600   38.0830   -0.1690 C   0  0  0  0  0  0  0  0  0  0  0  0
   72.4250   37.0040    0.5400 C   0  0  0  0  0  0  0  0  0  0  0  0
   71.0490   36.9240    0.7600 C   0  0  0  0  0  0  0  0  0  0  0  0
   70.2090   37.9220    0.2730 C   0  0  0  0  0  0  0  0  0  0  0  0
   68.8710   37.7810    0.5240 O   0  0  0  0  0  0  0  0  0  0  0  0
   70.7440   39.0010   -0.4350 C   0  0  0  0  0  0  0  0  0  0  0  0
   69.8970   40.0710   -0.9650 C   0  0  0  0  0  0  0  0  0  0  0  0
   68.6770   40.0690   -0.8190 O   0  0  0  0  0  0  0  0  0  0  0  0
   70.5630   41.1740   -1.6960 C   0  0  0  0  0  0  0  0  0  0  0  0
   69.7530   42.1700   -2.2060 O   0  0  0  0  0  0  0  0  0  0  0  0
   73.8970   41.8460   -3.1520 C   0  0  0  0  0  0  0  0  0  0  0  0
   74.6740   42.8120   -3.8270 C   0  0  0  0  0  0  0  0  0  0  0  0
   75.9840   42.4110   -4.4590 C   0  0  0  0  0  0  0  0  0  0  0  0
   75.9990   42.6100   -5.8140 F   0  0  0  0  0  0  0  0  0  0  0  0
   76.2880   41.0890   -4.3000 F   0  0  0  0  0  0  0  0  0  0  0  0
   77.0570   43.1140   -3.9930 F   0  0  0  0  0  0  0  0  0  0  0  0
   75.5640   46.1350   -3.6880 C   0  0  0  0  0  0  0  0  0  0  0  0
   76.5160   47.0500   -4.4940 C   0  0  0  0  0  0  0  0  0  0  0  0
   77.4396   49.0473   -5.7226 H   0  0  0  0  0  0  0  0  0  0  0  0
   77.4092   47.8382   -7.0506 H   0  0  0  0  0  0  0  0  0  0  0  0
   76.2400   49.2018   -7.0506 H   0  0  0  0  0  0  0  0  0  0  0  0
   75.1010   48.2940   -5.3240 H   0  0  0  0  0  0  0  0  0  0  0  0
   74.7096   47.0995   -7.3364 H   0  0  0  0  0  0  0  0  0  0  0  0
   76.0880   46.0004   -6.8867 H   0  0  0  0  0  0  0  0  0  0  0  0
   73.4337   46.2863   -5.3803 H   0  0  0  0  0  0  0  0  0  0  0  0
   73.9412   44.8973   -6.4047 H   0  0  0  0  0  0  0  0  0  0  0  0
   72.6252   45.4981   -3.3461 H   0  0  0  0  0  0  0  0  0  0  0  0
   71.2824   43.7845   -2.1574 H   0  0  0  0  0  0  0  0  0  0  0  0
   74.0444   38.1451   -0.3426 H   0  0  0  0  0  0  0  0  0  0  0  0
   73.0894   36.2165    0.9253 H   0  0  0  0  0  0  0  0  0  0  0  0
   70.6288   36.0738    1.3173 H   0  0  0  0  0  0  0  0  0  0  0  0
   68.5620   37.7440    1.4080 H   0  0  0  0  0  0  0  0  0  0  0  0
   69.1170   41.9670   -2.8640 H   0  0  0  0  0  0  0  0  0  0  0  0
   74.2632   40.8105   -3.0922 H   0  0  0  0  0  0  0  0  0  0  0  0
   74.7497   46.7399   -3.2626 H   0  0  0  0  0  0  0  0  0  0  0  0
   76.1276   45.6490   -2.8780 H   0  0  0  0  0  0  0  0  0  0  0  0
   76.8904   47.8428   -3.8297 H   0  0  0  0  0  0  0  0  0  0  0  0
   77.3359   46.4254   -4.8783 H   0  0  0  0  0  0  0  0  0  0  0  0
  1  2  1  0
  2  3  1  0
  3  4  1  0
  4  5  1  0
  5  6  1  0
  6  7  2  0
  7  8  1  0
  8  9  2  0
  9 10  1  0
 10 11  1  0
 11 12  1  0
 12 13  2  0
 13 14  1  0
 14 15  2  0
 15 16  1  0
 16 17  1  0
 16 18  2  0
 18 19  1  0
 19 20  2  0
 19 21  1  0
 21 22  1  0
  9 23  1  0
 23 24  2  0
 24 25  1  0
 25 26  1  0
 25 27  1  0
 25 28  1  0
  5 29  1  0
 29 30  1  0
 30  2  1  0
 24  6  1  0
 21 10  2  0
 18 12  1  0
  1 31  1  0
  1 32  1  0
  1 33  1  0
  2 34  1  0
  3 35  1  0
  3 36  1  0
  4 37  1  0
  4 38  1  0
  7 39  1  0
  8 40  1  0
 13 41  1  0
 14 42  1  0
 15 43  1  0
 17 44  1  0
 22 45  1  0
 23 46  1  0
 29 47  1  0
 29 48  1  0
 30 49  1  0
 30 50  1  0
M  CHG  1   2   1
M  END
>  <meeko>  (7) 
{"is_sidechain": [false], "free_energy": -7.631, "intermolecular_energy": -9.745, "internal_energy": -0.263}

$$$$
cand_013_out
     RDKit          3D

 50 53  0  0  0  0  0  0  0  0999 V2000
   73.8290   49.8160   -6.9700 C   0  0  0  0  0  0  0  0  0  0  0  0
   73.2810   48.5950   -6.3850 N   0  0  0  0  0  0  0  0  0  0  0  0
   74.0530   47.4120   -6.8320 C   0  0  0  0  0  0  0  0  0  0  0  0
   73.5460   46.0970   -6.1930 C   0  0  0  0  0  0  0  0  0  0  0  0
   73.5810   46.2080   -4.7160 N   0  0  0  0  0  0  0  0  0  0  0  0
   73.2640   45.0060   -4.0620 C   0  0  0  0  0  0  0  0  0  0  0  0
   71.9790   44.4450   -4.1190 C   0  0  0  0  0  0  0  0  0  0  0  0
   71.6810   43.2450   -3.4670 C   0  0  0  0  0  0  0  0  0  0  0  0
   72.6630   42.5640   -2.7420 C   0  0  0  0  0  0  0  0  0  0  0  0
   72.3700   41.3080   -2.0210 C   0  0  0  0  0  0  0  0  0  0  0  0
   71.0360   41.2010   -1.6420 O   0  0  0  0  0  0  0  0  0  0  0  0
   70.6280   40.0840   -0.9600 C   0  0  0  0  0  0  0  0  0  0  0  0
   69.2790   40.0130   -0.6110 C   0  0  0  0  0  0  0  0  0  0  0  0
   68.7970   38.9020    0.0850 C   0  0  0  0  0  0  0  0  0  0  0  0
   69.6630   37.8630    0.4310 C   0  0  0  0  0  0  0  0  0  0  0  0
   71.0090   37.9360    0.0810 C   0  0  0  0  0  0  0  0  0  0  0  0
   71.8020   36.8850    0.4520 O   0  0  0  0  0  0  0  0  0  0  0  0
   71.4900   39.0480   -0.6150 C   0  0  0  0  0  0  0  0  0  0  0  0
   72.8980   39.1650   -1.0010 C   0  0  0  0  0  0  0  0  0  0  0  0
   73.7230   38.2970   -0.7270 O   0  0  0  0  0  0  0  0  0  0  0  0
   73.3050   40.3800   -1.7430 C   0  0  0  0  0  0  0  0  0  0  0  0
   74.6390   40.4890   -2.0890 O   0  0  0  0  0  0  0  0  0  0  0  0
   73.9460   43.1260   -2.6760 C   0  0  0  0  0  0  0  0  0  0  0  0
   74.2590   44.3370   -3.3300 C   0  0  0  0  0  0  0  0  0  0  0  0
   75.6560   44.9000   -3.2350 C   0  0  0  0  0  0  0  0  0  0  0  0
   76.3040   44.9090   -4.4410 F   0  0  0  0  0  0  0  0  0  0  0  0
   76.4770   44.1920   -2.4060 F   0  0  0  0  0  0  0  0  0  0  0  0
   75.6980   46.1960   -2.8090 F   0  0  0  0  0  0  0  0  0  0  0  0
   72.7950   47.3710   -4.2390 C   0  0  0  0  0  0  0  0  0  0  0  0
   73.3150   48.6670   -4.9050 C   0  0  0  0  0  0  0  0  0  0  0  0
   74.1367   50.5015   -6.1666 H   0  0  0  0  0  0  0  0  0  0  0  0
   74.7009   49.5653   -7.5920 H   0  0  0  0  0  0  0  0  0  0  0  0
   73.0621   50.3008   -7.5920 H   0  0  0  0  0  0  0  0  0  0  0  0
   72.3140   48.5040   -6.6960 H   0  0  0  0  0  0  0  0  0  0  0  0
   73.9684   47.3283   -7.9255 H   0  0  0  0  0  0  0  0  0  0  0  0
   75.0970   47.5558   -6.5167 H   0  0  0  0  0  0  0  0  0  0  0  0
   72.5131   45.9070   -6.5201 H   0  0  0  0  0  0  0  0  0  0  0  0
   74.1948   45.2669   -6.5093 H   0  0  0  0  0  0  0  0  0  0  0  0
   71.1907   44.9597   -4.6880 H   0  0  0  0  0  0  0  0  0  0  0  0
   70.6630   42.8323   -3.5251 H   0  0  0  0  0  0  0  0  0  0  0  0
   68.5959   40.8309   -0.8836 H   0  0  0  0  0  0  0  0  0  0  0  0
   67.7336   38.8456    0.3609 H   0  0  0  0  0  0  0  0  0  0  0  0
   69.2829   36.9883    0.9791 H   0  0  0  0  0  0  0  0  0  0  0  0
   72.4870   37.0140    1.0790 H   0  0  0  0  0  0  0  0  0  0  0  0
   75.3030   40.3750   -1.4370 H   0  0  0  0  0  0  0  0  0  0  0  0
   74.7283   42.6100   -2.1000 H   0  0  0  0  0  0  0  0  0  0  0  0
   71.7360   47.2269   -4.4991 H   0  0  0  0  0  0  0  0  0  0  0  0
   72.9015   47.4569   -3.1475 H   0  0  0  0  0  0  0  0  0  0  0  0
   72.6870   49.5087   -4.5778 H   0  0  0  0  0  0  0  0  0  0  0  0
   74.3630   48.8034   -4.6000 H   0  0  0  0  0  0  0  0  0  0  0  0
  1  2  1  0
  2  3  1  0
  3  4  1  0
  4  5  1  0
  5  6  1  0
  6  7  2  0
  7  8  1  0
  8  9  2  0
  9 10  1  0
 10 11  1  0
 11 12  1  0
 12 13  2  0
 13 14  1  0
 14 15  2  0
 15 16  1  0
 16 17  1  0
 16 18  2  0
 18 19  1  0
 19 20  2  0
 19 21  1  0
 21 22  1  0
  9 23  1  0
 23 24  2  0
 24 25  1  0
 25 26  1  0
 25 27  1  0
 25 28  1  0
  5 29  1  0
 29 30  1  0
 30  2  1  0
 24  6  1  0
 21 10  2  0
 18 12  1  0
  1 31  1  0
  1 32  1  0
  1 33  1  0
  2 34  1  0
  3 35  1  0
  3 36  1  0
  4 37  1  0
  4 38  1  0
  7 39  1  0
  8 40  1  0
 13 41  1  0
 14 42  1  0
 15 43  1  0
 17 44  1  0
 22 45  1  0
 23 46  1  0
 29 47  1  0
 29 48  1  0
 30 49  1  0
 30 50  1  0
M  CHG  1   2   1
M  END
>  <meeko>  (8) 
{"is_sidechain": [false], "free_energy": -7.534, "intermolecular_energy": -9.724, "internal_energy": -0.164}

$$$$
cand_013_out
     RDKit          3D

 50 53  0  0  0  0  0  0  0  0999 V2000
   74.6470   49.2020   -7.9460 C   0  0  0  0  0  0  0  0  0  0  0  0
   74.2070   48.2880   -6.8950 N   0  0  0  0  0  0  0  0  0  0  0  0
   73.1590   47.3730   -7.4070 C   0  0  0  0  0  0  0  0  0  0  0  0
   72.6990   46.3450   -6.3460 C   0  0  0  0  0  0  0  0  0  0  0  0
   73.8650   45.5730   -5.8550 N   0  0  0  0  0  0  0  0  0  0  0  0
   73.5100   44.5270   -4.9870 C   0  0  0  0  0  0  0  0  0  0  0  0
   72.9760   44.7660   -3.7120 C   0  0  0  0  0  0  0  0  0  0  0  0
   72.6230   43.7140   -2.8630 C   0  0  0  0  0  0  0  0  0  0  0  0
   72.7870   42.3860   -3.2670 C   0  0  0  0  0  0  0  0  0  0  0  0
   72.4480   41.2530   -2.3800 C   0  0  0  0  0  0  0  0  0  0  0  0
   71.0890   41.1790   -2.0950 O   0  0  0  0  0  0  0  0  0  0  0  0
   70.6360   40.1740   -1.2780 C   0  0  0  0  0  0  0  0  0  0  0  0
   69.2640   40.1310   -1.0280 C   0  0  0  0  0  0  0  0  0  0  0  0
   68.7380   39.1320   -0.2040 C   0  0  0  0  0  0  0  0  0  0  0  0
   69.5830   38.1810    0.3690 C   0  0  0  0  0  0  0  0  0  0  0  0
   70.9510   38.2260    0.1170 C   0  0  0  0  0  0  0  0  0  0  0  0
   71.7210   37.2630    0.7110 O   0  0  0  0  0  0  0  0  0  0  0  0
   71.4770   39.2240   -0.7070 C   0  0  0  0  0  0  0  0  0  0  0  0
   72.9100   39.3080   -0.9950 C   0  0  0  0  0  0  0  0  0  0  0  0
   73.7180   38.5120   -0.5240 O   0  0  0  0  0  0  0  0  0  0  0  0
   73.3650   40.4010   -1.8870 C   0  0  0  0  0  0  0  0  0  0  0  0
   74.7220   40.4810   -2.1410 O   0  0  0  0  0  0  0  0  0  0  0  0
   73.3280   42.1430   -4.5370 C   0  0  0  0  0  0  0  0  0  0  0  0
   73.6880   43.1970   -5.4030 C   0  0  0  0  0  0  0  0  0  0  0  0
   74.2620   42.8850   -6.7640 C   0  0  0  0  0  0  0  0  0  0  0  0
   75.2800   41.9700   -6.7090 F   0  0  0  0  0  0  0  0  0  0  0  0
   74.8050   43.9690   -7.3920 F   0  0  0  0  0  0  0  0  0  0  0  0
   73.3570   42.3470   -7.6320 F   0  0  0  0  0  0  0  0  0  0  0  0
   74.9190   46.4640   -5.3130 C   0  0  0  0  0  0  0  0  0  0  0  0
   75.3470   47.4870   -6.3910 C   0  0  0  0  0  0  0  0  0  0  0  0
   75.0811   50.1038   -7.4896 H   0  0  0  0  0  0  0  0  0  0  0  0
   75.4049   48.7057   -8.5699 H   0  0  0  0  0  0  0  0  0  0  0  0
   73.7864   49.4848   -8.5699 H   0  0  0  0  0  0  0  0  0  0  0  0
   73.8230   48.8470   -6.1330 H   0  0  0  0  0  0  0  0  0  0  0  0
   72.2900   47.9712   -7.7184 H   0  0  0  0  0  0  0  0  0  0  0  0
   73.5881   46.8127   -8.2508 H   0  0  0  0  0  0  0  0  0  0  0  0
   72.2310   46.8748   -5.5033 H   0  0  0  0  0  0  0  0  0  0  0  0
   71.9724   45.6552   -6.8002 H   0  0  0  0  0  0  0  0  0  0  0  0
   72.8323   45.8028   -3.3738 H   0  0  0  0  0  0  0  0  0  0  0  0
   72.2118   43.9331   -1.8665 H   0  0  0  0  0  0  0  0  0  0  0  0
   68.5978   40.8816   -1.4784 H   0  0  0  0  0  0  0  0  0  0  0  0
   67.6564   39.0955   -0.0070 H   0  0  0  0  0  0  0  0  0  0  0  0
   69.1684   37.3966    1.0192 H   0  0  0  0  0  0  0  0  0  0  0  0
   72.1010   36.5810    0.1920 H   0  0  0  0  0  0  0  0  0  0  0  0
   75.1470   41.3160   -2.1570 H   0  0  0  0  0  0  0  0  0  0  0  0
   73.4756   41.1041   -4.8669 H   0  0  0  0  0  0  0  0  0  0  0  0
   74.5280   47.0002   -4.4357 H   0  0  0  0  0  0  0  0  0  0  0  0
   75.7901   45.8593   -5.0206 H   0  0  0  0  0  0  0  0  0  0  0  0
   76.0921   48.1687   -5.9549 H   0  0  0  0  0  0  0  0  0  0  0  0
   75.7627   46.9247   -7.2401 H   0  0  0  0  0  0  0  0  0  0  0  0
  1  2  1  0
  2  3  1  0
  3  4  1  0
  4  5  1  0
  5  6  1  0
  6  7  2  0
  7  8  1  0
  8  9  2  0
  9 10  1  0
 10 11  1  0
 11 12  1  0
 12 13  2  0
 13 14  1  0
 14 15  2  0
 15 16  1  0
 16 17  1  0
 16 18  2  0
 18 19  1  0
 19 20  2  0
 19 21  1  0
 21 22  1  0
  9 23  1  0
 23 24  2  0
 24 25  1  0
 25 26  1  0
 25 27  1  0
 25 28  1  0
  5 29  1  0
 29 30  1  0
 30  2  1  0
 24  6  1  0
 21 10  2  0
 18 12  1  0
  1 31  1  0
  1 32  1  0
  1 33  1  0
  2 34  1  0
  3 35  1  0
  3 36  1  0
  4 37  1  0
  4 38  1  0
  7 39  1  0
  8 40  1  0
 13 41  1  0
 14 42  1  0
 15 43  1  0
 17 44  1  0
 22 45  1  0
 23 46  1  0
 29 47  1  0
 29 48  1  0
 30 49  1  0
 30 50  1  0
M  CHG  1   2   1
M  END
>  <meeko>  (9) 
{"is_sidechain": [false], "free_energy": -7.445, "intermolecular_energy": -9.623, "internal_energy": -0.156}

$$$$
