cand_045_out
     RDKit          3D

 35 37  0  0  0  0  0  0  0  0999 V2000
   70.6490   36.8460    1.4460 C   0  0  0  0  0  0  0  0  0  0  0  0
   70.3680   37.9380    0.4500 C   0  0  0  0  0  0  0  0  0  0  0  0
   69.1090   38.5560    0.4490 C   0  0  0  0  0  0  0  0  0  0  0  0
   68.8100   39.5750   -0.4620 C   0  0  0  0  0  0  0  0  0  0  0  0
   69.7590   39.9960   -1.3990 C   0  0  0  0  0  0  0  0  0  0  0  0
   69.4770   41.0880   -2.3560 C   0  0  0  0  0  0  0  0  0  0  0  0
   70.5480   41.9610   -2.5100 O   0  0  0  0  0  0  0  0  0  0  0  0
   70.4250   43.0170   -3.3750 C   0  0  0  0  0  0  0  0  0  0  0  0
   71.5210   43.8720   -3.4910 C   0  0  0  0  0  0  0  0  0  0  0  0
   71.4620   44.9680   -4.3550 C   0  0  0  0  0  0  0  0  0  0  0  0
   70.3070   45.2090   -5.1010 C   0  0  0  0  0  0  0  0  0  0  0  0
   69.2130   44.3540   -4.9830 C   0  0  0  0  0  0  0  0  0  0  0  0
   68.1140   44.6480   -5.7430 O   0  0  0  0  0  0  0  0  0  0  0  0
   69.2740   43.2580   -4.1190 C   0  0  0  0  0  0  0  0  0  0  0  0
   68.1490   42.3350   -3.9650 C   0  0  0  0  0  0  0  0  0  0  0  0
   67.1000   42.4760   -4.5920 O   0  0  0  0  0  0  0  0  0  0  0  0
   68.3120   41.2060   -3.0200 C   0  0  0  0  0  0  0  0  0  0  0  0
   67.2480   40.3310   -2.8960 O   0  0  0  0  0  0  0  0  0  0  0  0
   71.0220   39.3850   -1.3900 C   0  0  0  0  0  0  0  0  0  0  0  0
   71.3400   38.3600   -0.4780 C   0  0  0  0  0  0  0  0  0  0  0  0
   72.7120   37.7340   -0.5220 C   0  0  0  0  0  0  0  0  0  0  0  0
   73.5480   38.1790    0.4610 F   0  0  0  0  0  0  0  0  0  0  0  0
   70.5464   37.2448    2.4660 H   0  0  0  0  0  0  0  0  0  0  0  0
   69.9332   36.0236    1.3001 H   0  0  0  0  0  0  0  0  0  0  0  0
   71.6728   36.4712    1.3001 H   0  0  0  0  0  0  0  0  0  0  0  0
   68.3465   38.2353    1.1741 H   0  0  0  0  0  0  0  0  0  0  0  0
   67.8181   40.0500   -0.4410 H   0  0  0  0  0  0  0  0  0  0  0  0
   72.4310   43.6833   -2.9026 H   0  0  0  0  0  0  0  0  0  0  0  0
   72.3265   45.6418   -4.4476 H   0  0  0  0  0  0  0  0  0  0  0  0
   70.2605   46.0725   -5.7809 H   0  0  0  0  0  0  0  0  0  0  0  0
   67.6480   45.4480   -5.6020 H   0  0  0  0  0  0  0  0  0  0  0  0
   66.3700   40.6560   -2.9110 H   0  0  0  0  0  0  0  0  0  0  0  0
   71.7826   39.7147   -2.1131 H   0  0  0  0  0  0  0  0  0  0  0  0
   72.6006   36.6447   -0.4169 H   0  0  0  0  0  0  0  0  0  0  0  0
   73.1651   38.0177   -1.4834 H   0  0  0  0  0  0  0  0  0  0  0  0
  1  2  1  0
  2  3  2  0
  3  4  1  0
  4  5  2  0
  5  6  1  0
  6  7  1  0
  7  8  1  0
  8  9  2  0
  9 10  1  0
 10 11  2  0
 11 12  1  0
 12 13  1  0
 12 14  2  0
 14 15  1  0
 15 16  2  0
 15 17  1  0
 17 18  1  0
  5 19  1  0
 19 20  2  0
 20 21  1  0
 21 22  1  0
 20  2  1  0
 17  6  2  0
 14  8  1  0
  1 23  1  0
  1 24  1  0
  1 25  1  0
  3 26  1  0
  4 27  1  0
  9 28  1  0
 10 29  1  0
 11 30  1  0
 13 31  1  0
 18 32  1  0
 19 33  1  0
 21 34  1  0
 21 35  1  0
M  END
>  <meeko>  (1) 
{"is_sidechain": [false], "free_energy": -7.877, "intermolecular_energy": -9.258, "internal_energy": -0.123}

$$$$
cand_045_out
     RDKit          3D

 35 37  0  0  0  0  0  0  0  0999 V2000
   73.4010   45.5200   -5.9950 C   0  0  0  0  0  0  0  0  0  0  0  0
   73.1390   44.3650   -5.0680 C   0  0  0  0  0  0  0  0  0  0  0  0
   72.7780   44.6220   -3.7380 C   0  0  0  0  0  0  0  0  0  0  0  0
   72.5270   43.5750   -2.8470 C   0  0  0  0  0  0  0  0  0  0  0  0
   72.6370   42.2430   -3.2590 C   0  0  0  0  0  0  0  0  0  0  0  0
   72.3530   41.1170   -2.3440 C   0  0  0  0  0  0  0  0  0  0  0  0
   71.0060   41.0150   -2.0160 O   0  0  0  0  0  0  0  0  0  0  0  0
   70.6010   40.0080   -1.1780 C   0  0  0  0  0  0  0  0  0  0  0  0
   69.2420   39.9480   -0.8690 C   0  0  0  0  0  0  0  0  0  0  0  0
   68.7630   38.9470   -0.0220 C   0  0  0  0  0  0  0  0  0  0  0  0
   69.6420   38.0070    0.5170 C   0  0  0  0  0  0  0  0  0  0  0  0
   70.9990   38.0680    0.2070 C   0  0  0  0  0  0  0  0  0  0  0  0
   71.8050   37.1150    0.7680 O   0  0  0  0  0  0  0  0  0  0  0  0
   71.4780   39.0700   -0.6420 C   0  0  0  0  0  0  0  0  0  0  0  0
   72.8940   39.1700   -0.9940 C   0  0  0  0  0  0  0  0  0  0  0  0
   73.7300   38.3750   -0.5650 O   0  0  0  0  0  0  0  0  0  0  0  0
   73.3000   40.2710   -1.8970 C   0  0  0  0  0  0  0  0  0  0  0  0
   74.6390   40.3460   -2.2360 O   0  0  0  0  0  0  0  0  0  0  0  0
   72.9880   41.9870   -4.5940 C   0  0  0  0  0  0  0  0  0  0  0  0
   73.2410   43.0290   -5.5050 C   0  0  0  0  0  0  0  0  0  0  0  0
   73.6230   42.6920   -6.9250 C   0  0  0  0  0  0  0  0  0  0  0  0
   74.9260   42.3130   -7.0670 F   0  0  0  0  0  0  0  0  0  0  0  0
   73.6063   46.4250   -5.4043 H   0  0  0  0  0  0  0  0  0  0  0  0
   74.2701   45.2912   -6.6293 H   0  0  0  0  0  0  0  0  0  0  0  0
   72.5183   45.6886   -6.6293 H   0  0  0  0  0  0  0  0  0  0  0  0
   72.6911   45.6622   -3.3909 H   0  0  0  0  0  0  0  0  0  0  0  0
   72.2396   43.8012   -1.8096 H   0  0  0  0  0  0  0  0  0  0  0  0
   68.5481   40.6891   -1.2925 H   0  0  0  0  0  0  0  0  0  0  0  0
   67.6912   38.8993    0.2208 H   0  0  0  0  0  0  0  0  0  0  0  0
   69.2643   37.2192    1.1854 H   0  0  0  0  0  0  0  0  0  0  0  0
   72.6370   37.3560    1.1240 H   0  0  0  0  0  0  0  0  0  0  0  0
   75.2040   39.6170   -2.0730 H   0  0  0  0  0  0  0  0  0  0  0  0
   73.0673   40.9447   -4.9367 H   0  0  0  0  0  0  0  0  0  0  0  0
   72.9819   41.8678   -7.2709 H   0  0  0  0  0  0  0  0  0  0  0  0
   73.4876   43.6071   -7.5202 H   0  0  0  0  0  0  0  0  0  0  0  0
  1  2  1  0
  2  3  2  0
  3  4  1  0
  4  5  2  0
  5  6  1  0
  6  7  1  0
  7  8  1  0
  8  9  2  0
  9 10  1  0
 10 11  2  0
 11 12  1  0
 12 13  1  0
 12 14  2  0
 14 15  1  0
 15 16  2  0
 15 17  1  0
 17 18  1  0
  5 19  1  0
 19 20  2  0
 20 21  1  0
 21 22  1  0
 20  2  1  0
 17  6  2  0
 14  8  1  0
  1 23  1  0
  1 24  1  0
  1 25  1  0
  3 26  1  0
  4 27  1  0
  9 28  1  0
 10 29  1  0
 11 30  1  0
 13 31  1  0
 18 32  1  0
 19 33  1  0
 21 34  1  0
 21 35  1  0
M  END
>  <meeko>  (2) 
{"is_sidechain": [false], "free_energy": -7.808, "intermolecular_energy": -8.932, "internal_energy": -0.369}

$$$$
cand_045_out
     RDKit          3D

 35 37  0  0  0  0  0  0  0  0999 V2000
   71.6080   36.7130    0.5020 C   0  0  0  0  0  0  0  0  0  0  0  0
   71.6160   37.9330   -0.3770 C   0  0  0  0  0  0  0  0  0  0  0  0
   72.5860   38.0470   -1.3830 C   0  0  0  0  0  0  0  0  0  0  0  0
   72.6250   39.1670   -2.2200 C   0  0  0  0  0  0  0  0  0  0  0  0
   71.7000   40.2050   -2.0680 C   0  0  0  0  0  0  0  0  0  0  0  0
   71.7030   41.3880   -2.9550 C   0  0  0  0  0  0  0  0  0  0  0  0
   72.8320   42.1820   -2.7920 O   0  0  0  0  0  0  0  0  0  0  0  0
   72.9660   43.3110   -3.5600 C   0  0  0  0  0  0  0  0  0  0  0  0
   74.1110   44.0820   -3.3570 C   0  0  0  0  0  0  0  0  0  0  0  0
   74.3100   45.2440   -4.1050 C   0  0  0  0  0  0  0  0  0  0  0  0
   73.3640   45.6350   -5.0550 C   0  0  0  0  0  0  0  0  0  0  0  0
   72.2230   44.8630   -5.2560 C   0  0  0  0  0  0  0  0  0  0  0  0
   71.3380   45.3020   -6.2030 O   0  0  0  0  0  0  0  0  0  0  0  0
   72.0240   43.7000   -4.5070 C   0  0  0  0  0  0  0  0  0  0  0  0
   70.8400   42.8600   -4.6870 C   0  0  0  0  0  0  0  0  0  0  0  0
   69.9660   43.1330   -5.5080 O   0  0  0  0  0  0  0  0  0  0  0  0
   70.7230   41.6500   -3.8400 C   0  0  0  0  0  0  0  0  0  0  0  0
   69.6070   40.8550   -4.0300 O   0  0  0  0  0  0  0  0  0  0  0  0
   70.7230   40.0850   -1.0680 C   0  0  0  0  0  0  0  0  0  0  0  0
   70.6680   38.9640   -0.2190 C   0  0  0  0  0  0  0  0  0  0  0  0
   69.5990   38.8950    0.8440 C   0  0  0  0  0  0  0  0  0  0  0  0
   68.4820   38.2150    0.4540 F   0  0  0  0  0  0  0  0  0  0  0  0
   71.6100   37.0217    1.5578 H   0  0  0  0  0  0  0  0  0  0  0  0
   70.7059   36.1183    0.2956 H   0  0  0  0  0  0  0  0  0  0  0  0
   72.5022   36.1065    0.2956 H   0  0  0  0  0  0  0  0  0  0  0  0
   73.3266   37.2446   -1.5158 H   0  0  0  0  0  0  0  0  0  0  0  0
   73.3915   39.2321   -3.0063 H   0  0  0  0  0  0  0  0  0  0  0  0
   74.8561   43.7747   -2.6084 H   0  0  0  0  0  0  0  0  0  0  0  0
   75.2127   45.8521   -3.9459 H   0  0  0  0  0  0  0  0  0  0  0  0
   73.5201   46.5512   -5.6434 H   0  0  0  0  0  0  0  0  0  0  0  0
   70.4220   45.1320   -6.1020 H   0  0  0  0  0  0  0  0  0  0  0  0
   69.0620   40.9850   -4.7810 H   0  0  0  0  0  0  0  0  0  0  0  0
   69.9811   40.8877   -0.9445 H   0  0  0  0  0  0  0  0  0  0  0  0
   70.0199   38.3938    1.7281 H   0  0  0  0  0  0  0  0  0  0  0  0
   69.2888   39.9288    1.0562 H   0  0  0  0  0  0  0  0  0  0  0  0
  1  2  1  0
  2  3  2  0
  3  4  1  0
  4  5  2  0
  5  6  1  0
  6  7  1  0
  7  8  1  0
  8  9  2  0
  9 10  1  0
 10 11  2  0
 11 12  1  0
 12 13  1  0
 12 14  2  0
 14 15  1  0
 15 16  2  0
 15 17  1  0
 17 18  1  0
  5 19  1  0
 19 20  2  0
 20 21  1  0
 21 22  1  0
 20  2  1  0
 17  6  2  0
 14  8  1  0
  1 23  1  0
  1 24  1  0
  1 25  1  0
  3 26  1  0
  4 27  1  0
  9 28  1  0
 10 29  1  0
 11 30  1  0
 13 31  1  0
 18 32  1  0
 19 33  1  0
 21 34  1  0
 21 35  1  0
M  END
>  <meeko>  (3) 
{"is_sidechain": [false], "free_energy": -7.8, "intermolecular_energy": -8.95, "internal_energy": -0.34}

$$$$
cand_045_out
     RDKit          3D

 35 37  0  0  0  0  0  0  0  0999 V2000
   70.3790   37.0940    1.6890 C   0  0  0  0  0  0  0  0  0  0  0  0
   70.5590   38.1510    0.6340 C   0  0  0  0  0  0  0  0  0  0  0  0
   69.5100   39.0440    0.3730 C   0  0  0  0  0  0  0  0  0  0  0  0
   69.6400   40.0400   -0.6000 C   0  0  0  0  0  0  0  0  0  0  0  0
   70.8190   40.1640   -1.3420 C   0  0  0  0  0  0  0  0  0  0  0  0
   70.9920   41.2240   -2.3590 C   0  0  0  0  0  0  0  0  0  0  0  0
   72.2000   41.8990   -2.2350 O   0  0  0  0  0  0  0  0  0  0  0  0
   72.4930   42.9050   -3.1200 C   0  0  0  0  0  0  0  0  0  0  0  0
   73.7140   43.5600   -2.9520 C   0  0  0  0  0  0  0  0  0  0  0  0
   74.0740   44.5940   -3.8190 C   0  0  0  0  0  0  0  0  0  0  0  0
   73.2140   44.9720   -4.8530 C   0  0  0  0  0  0  0  0  0  0  0  0
   71.9970   44.3150   -5.0170 C   0  0  0  0  0  0  0  0  0  0  0  0
   71.2030   44.7350   -6.0500 O   0  0  0  0  0  0  0  0  0  0  0  0
   71.6370   43.2810   -4.1500 C   0  0  0  0  0  0  0  0  0  0  0  0
   70.3690   42.5650   -4.2880 C   0  0  0  0  0  0  0  0  0  0  0  0
   69.5620   42.8350   -5.1760 O   0  0  0  0  0  0  0  0  0  0  0  0
   70.0800   41.4870   -3.3140 C   0  0  0  0  0  0  0  0  0  0  0  0
   68.8860   40.8070   -3.4640 O   0  0  0  0  0  0  0  0  0  0  0  0
   71.8720   39.2770   -1.0720 C   0  0  0  0  0  0  0  0  0  0  0  0
   71.7590   38.2710   -0.0940 C   0  0  0  0  0  0  0  0  0  0  0  0
   72.9230   37.3410    0.1460 C   0  0  0  0  0  0  0  0  0  0  0  0
   72.6590   36.0400   -0.1730 F   0  0  0  0  0  0  0  0  0  0  0  0
   70.4572   37.5534    2.6854 H   0  0  0  0  0  0  0  0  0  0  0  0
   69.3887   36.6286    1.5765 H   0  0  0  0  0  0  0  0  0  0  0  0
   71.1595   36.3270    1.5765 H   0  0  0  0  0  0  0  0  0  0  0  0
   68.5720   38.9600    0.9414 H   0  0  0  0  0  0  0  0  0  0  0  0
   68.8060   40.7333   -0.7837 H   0  0  0  0  0  0  0  0  0  0  0  0
   74.3915   43.2623   -2.1382 H   0  0  0  0  0  0  0  0  0  0  0  0
   75.0358   45.1114   -3.6876 H   0  0  0  0  0  0  0  0  0  0  0  0
   73.4973   45.7865   -5.5359 H   0  0  0  0  0  0  0  0  0  0  0  0
   71.3360   44.3920   -6.9120 H   0  0  0  0  0  0  0  0  0  0  0  0
   68.7750   39.9640   -3.0710 H   0  0  0  0  0  0  0  0  0  0  0  0
   72.8099   39.3701   -1.6391 H   0  0  0  0  0  0  0  0  0  0  0  0
   73.7724   37.6829   -0.4636 H   0  0  0  0  0  0  0  0  0  0  0  0
   73.1420   37.3704    1.2236 H   0  0  0  0  0  0  0  0  0  0  0  0
  1  2  1  0
  2  3  2  0
  3  4  1  0
  4  5  2  0
  5  6  1  0
  6  7  1  0
  7  8  1  0
  8  9  2  0
  9 10  1  0
 10 11  2  0
 11 12  1  0
 12 13  1  0
 12 14  2  0
 14 15  1  0
 15 16  2  0
 15 17  1  0
 17 18  1  0
  5 19  1  0
 19 20  2  0
 20 21  1  0
 21 22  1  0
 20  2  1  0
 17  6  2  0
 14  8  1  0
  1 23  1  0
  1 24  1  0
  1 25  1  0
  3 26  1  0
  4 27  1  0
  9 28  1  0
 10 29  1  0
 11 30  1  0
 13 31  1  0
 18 32  1  0
 19 33  1  0
 21 34  1  0
 21 35  1  0
M  END
>  <meeko>  (4) 
{"is_sidechain": [false], "free_energy": -7.798, "intermolecular_energy": -9.17, "internal_energy": -0.119}

$$$$
cand_045_out
     RDKit          3D

 35 37  0  0  0  0  0  0  0  0999 V2000
   70.6140   36.5920    1.0540 C   0  0  0  0  0  0  0  0  0  0  0  0
   71.2180   37.6540    0.1770 C   0  0  0  0  0  0  0  0  0  0  0  0
   72.5600   37.5400   -0.2110 C   0  0  0  0  0  0  0  0  0  0  0  0
   73.1570   38.5070   -1.0260 C   0  0  0  0  0  0  0  0  0  0  0  0
   72.4290   39.6180   -1.4670 C   0  0  0  0  0  0  0  0  0  0  0  0
   73.0280   40.6420   -2.3500 C   0  0  0  0  0  0  0  0  0  0  0  0
   74.1440   41.2520   -1.7890 O   0  0  0  0  0  0  0  0  0  0  0  0
   74.8020   42.2190   -2.5040 C   0  0  0  0  0  0  0  0  0  0  0  0
   75.9110   42.8110   -1.8990 C   0  0  0  0  0  0  0  0  0  0  0  0
   76.6270   43.8020   -2.5730 C   0  0  0  0  0  0  0  0  0  0  0  0
   76.2340   44.2020   -3.8520 C   0  0  0  0  0  0  0  0  0  0  0  0
   75.1260   43.6100   -4.4540 C   0  0  0  0  0  0  0  0  0  0  0  0
   74.7960   44.0480   -5.7070 O   0  0  0  0  0  0  0  0  0  0  0  0
   74.4100   42.6170   -3.7790 C   0  0  0  0  0  0  0  0  0  0  0  0
   73.2420   41.9690   -4.3750 C   0  0  0  0  0  0  0  0  0  0  0  0
   72.8370   42.2620   -5.4980 O   0  0  0  0  0  0  0  0  0  0  0  0
   72.5510   40.9320   -3.5740 C   0  0  0  0  0  0  0  0  0  0  0  0
   71.4570   40.3150   -4.1540 O   0  0  0  0  0  0  0  0  0  0  0  0
   71.0820   39.7250   -1.0870 C   0  0  0  0  0  0  0  0  0  0  0  0
   70.4660   38.7590   -0.2690 C   0  0  0  0  0  0  0  0  0  0  0  0
   69.0170   38.9320    0.1140 C   0  0  0  0  0  0  0  0  0  0  0  0
   68.2100   39.2670   -0.9340 F   0  0  0  0  0  0  0  0  0  0  0  0
   70.7657   36.8588    2.1103 H   0  0  0  0  0  0  0  0  0  0  0  0
   69.5365   36.5143    0.8466 H   0  0  0  0  0  0  0  0  0  0  0  0
   71.0980   35.6262    0.8466 H   0  0  0  0  0  0  0  0  0  0  0  0
   73.1519   36.6779    0.1303 H   0  0  0  0  0  0  0  0  0  0  0  0
   74.2098   38.3932   -1.3236 H   0  0  0  0  0  0  0  0  0  0  0  0
   76.2211   42.4971   -0.8914 H   0  0  0  0  0  0  0  0  0  0  0  0
   77.5017   44.2683   -2.0961 H   0  0  0  0  0  0  0  0  0  0  0  0
   76.7982   44.9829   -4.3829 H   0  0  0  0  0  0  0  0  0  0  0  0
   73.9370   44.3820   -5.8750 H   0  0  0  0  0  0  0  0  0  0  0  0
   71.4560   39.3860   -4.2790 H   0  0  0  0  0  0  0  0  0  0  0  0
   70.4929   40.5854   -1.4372 H   0  0  0  0  0  0  0  0  0  0  0  0
   68.6554   37.9856    0.5423 H   0  0  0  0  0  0  0  0  0  0  0  0
   68.9712   39.7624    0.8339 H   0  0  0  0  0  0  0  0  0  0  0  0
  1  2  1  0
  2  3  2  0
  3  4  1  0
  4  5  2  0
  5  6  1  0
  6  7  1  0
  7  8  1  0
  8  9  2  0
  9 10  1  0
 10 11  2  0
 11 12  1  0
 12 13  1  0
 12 14  2  0
 14 15  1  0
 15 16  2  0
 15 17  1  0
 17 18  1  0
  5 19  1  0
 19 20  2  0
 20 21  1  0
 21 22  1  0
 20  2  1  0
 17  6  2  0
 14  8  1  0
  1 23  1  0
  1 24  1  0
  1 25  1  0
  3 26  1  0
  4 27  1  0
  9 28  1  0
 10 29  1  0
 11 30  1  0
 13 31  1  0
 18 32  1  0
 19 33  1  0
 21 34  1  0
 21 35  1  0
M  END
>  <meeko>  (5) 
{"is_sidechain": [false], "free_energy": -7.787, "intermolecular_energy": -9.044, "internal_energy": -0.231}

$$$$
cand_045_out
     RDKit          3D

 35 37  0  0  0  0  0  0  0  0999 V2000
   75.9130   45.1210   -3.4120 C   0  0  0  0  0  0  0  0  0  0  0  0
   74.6600   44.3240   -3.1700 C   0  0  0  0  0  0  0  0  0  0  0  0
   73.4140   44.9060   -3.4430 C   0  0  0  0  0  0  0  0  0  0  0  0
   72.2280   44.1980   -3.2290 C   0  0  0  0  0  0  0  0  0  0  0  0
   72.2560   42.8920   -2.7300 C   0  0  0  0  0  0  0  0  0  0  0  0
   71.0180   42.1110   -2.5190 C   0  0  0  0  0  0  0  0  0  0  0  0
   71.0820   41.2880   -1.4010 O   0  0  0  0  0  0  0  0  0  0  0  0
   69.9980   40.5110   -1.0840 C   0  0  0  0  0  0  0  0  0  0  0  0
   70.1100   39.6950    0.0420 C   0  0  0  0  0  0  0  0  0  0  0  0
   69.0420   38.8790    0.4200 C   0  0  0  0  0  0  0  0  0  0  0  0
   67.8620   38.8790   -0.3270 C   0  0  0  0  0  0  0  0  0  0  0  0
   67.7520   39.6960   -1.4500 C   0  0  0  0  0  0  0  0  0  0  0  0
   66.5690   39.6490   -2.1350 O   0  0  0  0  0  0  0  0  0  0  0  0
   68.8220   40.5120   -1.8280 C   0  0  0  0  0  0  0  0  0  0  0  0
   68.7480   41.3850   -3.0000 C   0  0  0  0  0  0  0  0  0  0  0  0
   67.7420   41.4470   -3.7040 O   0  0  0  0  0  0  0  0  0  0  0  0
   69.9390   42.2080   -3.3170 C   0  0  0  0  0  0  0  0  0  0  0  0
   69.8510   43.0420   -4.4180 O   0  0  0  0  0  0  0  0  0  0  0  0
   73.5040   42.3060   -2.4670 C   0  0  0  0  0  0  0  0  0  0  0  0
   74.7080   43.0040   -2.6790 C   0  0  0  0  0  0  0  0  0  0  0  0
   76.0190   42.3250   -2.3700 C   0  0  0  0  0  0  0  0  0  0  0  0
   76.3850   42.4100   -1.0590 F   0  0  0  0  0  0  0  0  0  0  0  0
   76.3591   45.4047   -2.4474 H   0  0  0  0  0  0  0  0  0  0  0  0
   76.6300   44.5126   -3.9828 H   0  0  0  0  0  0  0  0  0  0  0  0
   75.6660   46.0283   -3.9828 H   0  0  0  0  0  0  0  0  0  0  0  0
   73.3692   45.9343   -3.8311 H   0  0  0  0  0  0  0  0  0  0  0  0
   71.2622   44.6733   -3.4556 H   0  0  0  0  0  0  0  0  0  0  0  0
   71.0388   39.6945    0.6314 H   0  0  0  0  0  0  0  0  0  0  0  0
   69.1301   38.2351    1.3075 H   0  0  0  0  0  0  0  0  0  0  0  0
   67.0212   38.2352   -0.0293 H   0  0  0  0  0  0  0  0  0  0  0  0
   65.9010   39.0470   -1.8740 H   0  0  0  0  0  0  0  0  0  0  0  0
   69.1420   43.6490   -4.4900 H   0  0  0  0  0  0  0  0  0  0  0  0
   73.5422   41.2750   -2.0855 H   0  0  0  0  0  0  0  0  0  0  0  0
   75.9309   41.2617   -2.6377 H   0  0  0  0  0  0  0  0  0  0  0  0
   76.7943   42.8422   -2.9543 H   0  0  0  0  0  0  0  0  0  0  0  0
  1  2  1  0
  2  3  2  0
  3  4  1  0
  4  5  2  0
  5  6  1  0
  6  7  1  0
  7  8  1  0
  8  9  2  0
  9 10  1  0
 10 11  2  0
 11 12  1  0
 12 13  1  0
 12 14  2  0
 14 15  1  0
 15 16  2  0
 15 17  1  0
 17 18  1  0
  5 19  1  0
 19 20  2  0
 20 21  1  0
 21 22  1  0
 20  2  1  0
 17  6  2  0
 14  8  1  0
  1 23  1  0
  1 24  1  0
  1 25  1  0
  3 26  1  0
  4 27  1  0
  9 28  1  0
 10 29  1  0
 11 30  1  0
 13 31  1  0
 18 32  1  0
 19 33  1  0
 21 34  1  0
 21 35  1  0
M  END
>  <meeko>  (6) 
{"is_sidechain": [false], "free_energy": -7.779, "intermolecular_energy": -9.237, "internal_energy": -0.029}

$$$$
cand_045_out
     RDKit          3D

 35 37  0  0  0  0  0  0  0  0999 V2000
   72.9500   45.6470   -6.1400 C   0  0  0  0  0  0  0  0  0  0  0  0
   72.7470   44.5010   -5.1870 C   0  0  0  0  0  0  0  0  0  0  0  0
   72.0740   43.3530   -5.6280 C   0  0  0  0  0  0  0  0  0  0  0  0
   71.8660   42.2680   -4.7710 C   0  0  0  0  0  0  0  0  0  0  0  0
   72.3170   42.3060   -3.4480 C   0  0  0  0  0  0  0  0  0  0  0  0
   72.1330   41.1630   -2.5280 C   0  0  0  0  0  0  0  0  0  0  0  0
   70.8210   41.0310   -2.0880 O   0  0  0  0  0  0  0  0  0  0  0  0
   70.5070   40.0050   -1.2330 C   0  0  0  0  0  0  0  0  0  0  0  0
   69.1810   39.9160   -0.8110 C   0  0  0  0  0  0  0  0  0  0  0  0
   68.7940   38.8950    0.0600 C   0  0  0  0  0  0  0  0  0  0  0  0
   69.7330   37.9650    0.5090 C   0  0  0  0  0  0  0  0  0  0  0  0
   71.0570   38.0560    0.0850 C   0  0  0  0  0  0  0  0  0  0  0  0
   71.9250   37.1120    0.5620 O   0  0  0  0  0  0  0  0  0  0  0  0
   71.4430   39.0780   -0.7870 C   0  0  0  0  0  0  0  0  0  0  0  0
   72.8220   39.2100   -1.2570 C   0  0  0  0  0  0  0  0  0  0  0  0
   73.7060   38.4260   -0.9120 O   0  0  0  0  0  0  0  0  0  0  0  0
   73.1290   40.3300   -2.1760 C   0  0  0  0  0  0  0  0  0  0  0  0
   74.4330   40.4350   -2.6260 O   0  0  0  0  0  0  0  0  0  0  0  0
   73.0000   43.4510   -3.0100 C   0  0  0  0  0  0  0  0  0  0  0  0
   73.2200   44.5510   -3.8600 C   0  0  0  0  0  0  0  0  0  0  0  0
   73.9530   45.7590   -3.3300 C   0  0  0  0  0  0  0  0  0  0  0  0
   73.1280   46.7720   -2.9380 F   0  0  0  0  0  0  0  0  0  0  0  0
   73.1141   46.5733   -5.5699 H   0  0  0  0  0  0  0  0  0  0  0  0
   73.8266   45.4462   -6.7735 H   0  0  0  0  0  0  0  0  0  0  0  0
   72.0578   45.7595   -6.7735 H   0  0  0  0  0  0  0  0  0  0  0  0
   71.7043   43.3051   -6.6629 H   0  0  0  0  0  0  0  0  0  0  0  0
   71.3418   41.3747   -5.1416 H   0  0  0  0  0  0  0  0  0  0  0  0
   68.4406   40.6491   -1.1637 H   0  0  0  0  0  0  0  0  0  0  0  0
   67.7479   38.8237    0.3925 H   0  0  0  0  0  0  0  0  0  0  0  0
   69.4283   37.1619    1.1962 H   0  0  0  0  0  0  0  0  0  0  0  0
   72.2840   36.4700   -0.0190 H   0  0  0  0  0  0  0  0  0  0  0  0
   74.7240   39.9080   -3.3440 H   0  0  0  0  0  0  0  0  0  0  0  0
   73.3730   43.4898   -1.9759 H   0  0  0  0  0  0  0  0  0  0  0  0
   74.5559   45.4473   -2.4644 H   0  0  0  0  0  0  0  0  0  0  0  0
   74.5706   46.1474   -4.1533 H   0  0  0  0  0  0  0  0  0  0  0  0
  1  2  1  0
  2  3  2  0
  3  4  1  0
  4  5  2  0
  5  6  1  0
  6  7  1  0
  7  8  1  0
  8  9  2  0
  9 10  1  0
 10 11  2  0
 11 12  1  0
 12 13  1  0
 12 14  2  0
 14 15  1  0
 15 16  2  0
 15 17  1  0
 17 18  1  0
  5 19  1  0
 19 20  2  0
 20 21  1  0
 21 22  1  0
 20  2  1  0
 17  6  2  0
 14  8  1  0
  1 23  1  0
  1 24  1  0
  1 25  1  0
  3 26  1  0
  4 27  1  0
  9 28  1  0
 10 29  1  0
 11 30  1  0
 13 31  1  0
 18 32  1  0
 19 33  1  0
 21 34  1  0
 21 35  1  0
M  END
>  <meeko>  (7) 
{"is_sidechain": [false], "free_energy": -7.746, "intermolecular_energy": -8.827, "internal_energy": -0.4}

$$$$
cand_045_out
     RDKit          3D

 35 37  0  0  0  0  0  0  0  0999 V2000
   75.4070   44.0690   -5.5010 C   0  0  0  0  0  0  0  0  0  0  0  0
   74.5240   43.2060   -4.6400 C   0  0  0  0  0  0  0  0  0  0  0  0
   73.4420   42.5350   -5.2260 C   0  0  0  0  0  0  0  0  0  0  0  0
   72.5990   41.7260   -4.4580 C   0  0  0  0  0  0  0  0  0  0  0  0
   72.8120   41.5720   -3.0840 C   0  0  0  0  0  0  0  0  0  0  0  0
   71.9510   40.7020   -2.2540 C   0  0  0  0  0  0  0  0  0  0  0  0
   72.6450   39.6400   -1.6870 O   0  0  0  0  0  0  0  0  0  0  0  0
   71.9670   38.7560   -0.8860 C   0  0  0  0  0  0  0  0  0  0  0  0
   72.7020   37.7000   -0.3440 C   0  0  0  0  0  0  0  0  0  0  0  0
   72.0730   36.7650    0.4800 C   0  0  0  0  0  0  0  0  0  0  0  0
   70.7110   36.8840    0.7620 C   0  0  0  0  0  0  0  0  0  0  0  0
   69.9800   37.9400    0.2200 C   0  0  0  0  0  0  0  0  0  0  0  0
   68.6500   37.9980    0.5370 O   0  0  0  0  0  0  0  0  0  0  0  0
   70.6100   38.8760   -0.6050 C   0  0  0  0  0  0  0  0  0  0  0  0
   69.8800   39.9990   -1.1930 C   0  0  0  0  0  0  0  0  0  0  0  0
   68.6810   40.1760   -0.9870 O   0  0  0  0  0  0  0  0  0  0  0  0
   70.6400   40.9330   -2.0570 C   0  0  0  0  0  0  0  0  0  0  0  0
   69.9430   41.9990   -2.5950 O   0  0  0  0  0  0  0  0  0  0  0  0
   73.9020   42.2360   -2.5010 C   0  0  0  0  0  0  0  0  0  0  0  0
   74.7620   43.0520   -3.2600 C   0  0  0  0  0  0  0  0  0  0  0  0
   75.9130   43.7470   -2.5760 C   0  0  0  0  0  0  0  0  0  0  0  0
   76.2550   43.1910   -1.3780 F   0  0  0  0  0  0  0  0  0  0  0  0
   76.0463   44.6939   -4.8601 H   0  0  0  0  0  0  0  0  0  0  0  0
   76.0377   43.4296   -6.1361 H   0  0  0  0  0  0  0  0  0  0  0  0
   74.7822   44.7142   -6.1361 H   0  0  0  0  0  0  0  0  0  0  0  0
   73.2536   42.6463   -6.3040 H   0  0  0  0  0  0  0  0  0  0  0  0
   71.7587   41.2047   -4.9397 H   0  0  0  0  0  0  0  0  0  0  0  0
   73.7752   37.6049   -0.5659 H   0  0  0  0  0  0  0  0  0  0  0  0
   72.6516   35.9330    0.9078 H   0  0  0  0  0  0  0  0  0  0  0  0
   70.2157   36.1462    1.4104 H   0  0  0  0  0  0  0  0  0  0  0  0
   68.3820   38.3400    1.3670 H   0  0  0  0  0  0  0  0  0  0  0  0
   69.8310   42.0650   -3.5220 H   0  0  0  0  0  0  0  0  0  0  0  0
   74.0892   42.1159   -1.4237 H   0  0  0  0  0  0  0  0  0  0  0  0
   76.7884   43.7055   -3.2408 H   0  0  0  0  0  0  0  0  0  0  0  0
   75.5902   44.7785   -2.3715 H   0  0  0  0  0  0  0  0  0  0  0  0
  1  2  1  0
  2  3  2  0
  3  4  1  0
  4  5  2  0
  5  6  1  0
  6  7  1  0
  7  8  1  0
  8  9  2  0
  9 10  1  0
 10 11  2  0
 11 12  1  0
 12 13  1  0
 12 14  2  0
 14 15  1  0
 15 16  2  0
 15 17  1  0
 17 18  1  0
  5 19  1  0
 19 20  2  0
 20 21  1  0
 21 22  1  0
 20  2  1  0
 17  6  2  0
 14  8  1  0
  1 23  1  0
  1 24  1  0
  1 25  1  0
  3 26  1  0
  4 27  1  0
  9 28  1  0
 10 29  1  0
 11 30  1  0
 13 31  1  0
 18 32  1  0
 19 33  1  0
 21 34  1  0
 21 35  1  0
M  END
>  <meeko>  (8) 
{"is_sidechain": [false], "free_energy": -7.731, "intermolecular_energy": -8.894, "internal_energy": -0.315}

$$$$
cand_045_out
     RDKit          3D

 35 37  0  0  0  0  0  0  0  0999 V2000
   75.6210   43.7600   -5.3390 C   0  0  0  0  0  0  0  0  0  0  0  0
   74.7420   42.9030   -4.4700 C   0  0  0  0  0  0  0  0  0  0  0  0
   73.5910   42.3220   -5.0210 C   0  0  0  0  0  0  0  0  0  0  0  0
   72.7490   41.5200   -4.2450 C   0  0  0  0  0  0  0  0  0  0  0  0
   73.0310   41.2850   -2.8950 C   0  0  0  0  0  0  0  0  0  0  0  0
   72.1710   40.4200   -2.0580 C   0  0  0  0  0  0  0  0  0  0  0  0
   70.8320   40.7910   -2.0960 O   0  0  0  0  0  0  0  0  0  0  0  0
   69.9220   40.0690   -1.3690 C   0  0  0  0  0  0  0  0  0  0  0  0
   68.5910   40.4820   -1.4310 C   0  0  0  0  0  0  0  0  0  0  0  0
   67.6120   39.7900   -0.7140 C   0  0  0  0  0  0  0  0  0  0  0  0
   67.9650   38.6850    0.0640 C   0  0  0  0  0  0  0  0  0  0  0  0
   69.2950   38.2750    0.1230 C   0  0  0  0  0  0  0  0  0  0  0  0
   69.5710   37.1850    0.9030 O   0  0  0  0  0  0  0  0  0  0  0  0
   70.2730   38.9680   -0.5940 C   0  0  0  0  0  0  0  0  0  0  0  0
   71.6810   38.5700   -0.5610 C   0  0  0  0  0  0  0  0  0  0  0  0
   72.0690   37.6050    0.0950 O   0  0  0  0  0  0  0  0  0  0  0  0
   72.6400   39.3730   -1.3540 C   0  0  0  0  0  0  0  0  0  0  0  0
   73.9650   38.9780   -1.3270 O   0  0  0  0  0  0  0  0  0  0  0  0
   74.1890   41.8580   -2.3470 C   0  0  0  0  0  0  0  0  0  0  0  0
   75.0490   42.6660   -3.1150 C   0  0  0  0  0  0  0  0  0  0  0  0
   76.2740   43.2630   -2.4680 C   0  0  0  0  0  0  0  0  0  0  0  0
   76.3370   43.0570   -1.1210 F   0  0  0  0  0  0  0  0  0  0  0  0
   76.2643   44.3872   -4.7044 H   0  0  0  0  0  0  0  0  0  0  0  0
   76.2478   43.1167   -5.9741 H   0  0  0  0  0  0  0  0  0  0  0  0
   74.9938   44.4029   -5.9741 H   0  0  0  0  0  0  0  0  0  0  0  0
   73.3471   42.4997   -6.0788 H   0  0  0  0  0  0  0  0  0  0  0  0
   71.8552   41.0689   -4.7007 H   0  0  0  0  0  0  0  0  0  0  0  0
   68.3126   41.3519   -2.0440 H   0  0  0  0  0  0  0  0  0  0  0  0
   66.5624   40.1155   -0.7621 H   0  0  0  0  0  0  0  0  0  0  0  0
   67.1945   38.1398    0.6288 H   0  0  0  0  0  0  0  0  0  0  0  0
   70.4380   36.8300    0.9220 H   0  0  0  0  0  0  0  0  0  0  0  0
   74.3420   38.5560   -2.0730 H   0  0  0  0  0  0  0  0  0  0  0  0
   74.4309   41.6710   -1.2903 H   0  0  0  0  0  0  0  0  0  0  0  0
   77.1652   42.8135   -2.9303 H   0  0  0  0  0  0  0  0  0  0  0  0
   76.2236   44.3505   -2.6254 H   0  0  0  0  0  0  0  0  0  0  0  0
  1  2  1  0
  2  3  2  0
  3  4  1  0
  4  5  2  0
  5  6  1  0
  6  7  1  0
  7  8  1  0
  8  9  2  0
  9 10  1  0
 10 11  2  0
 11 12  1  0
 12 13  1  0
 12 14  2  0
 14 15  1  0
 15 16  2  0
 15 17  1  0
 17 18  1  0
  5 19  1  0
 19 20  2  0
 20 21  1  0
 21 22  1  0
 20  2  1  0
 17  6  2  0
 14  8  1  0
  1 23  1  0
  1 24  1  0
  1 25  1  0
  3 26  1  0
  4 27  1  0
  9 28  1  0
 10 29  1  0
 11 30  1  0
 13 31  1  0
 18 32  1  0
 19 33  1  0
 21 34  1  0
 21 35  1  0
M  END
>  <meeko>  (9) 
{"is_sidechain": [false], "free_energy": -7.722, "intermolecular_energy": -9.043, "internal_energy": -0.156}

$$$$
