cand_056_out
     RDKit          3D

 50 53  0  0  0  0  0  0  0  0999 V2000
   74.5120   49.1820   -5.7020 C   0  0  0  0  0  0  0  0  0  0  0  0
   74.0860   47.8720   -5.2100 N   0  0  0  0  0  0  0  0  0  0  0  0
   74.8920   46.7960   -5.8330 C   0  0  0  0  0  0  0  0  0  0  0  0
   74.5150   45.3930   -5.3010 C   0  0  0  0  0  0  0  0  0  0  0  0
   74.6620   45.3580   -3.8270 N   0  0  0  0  0  0  0  0  0  0  0  0
   74.4660   44.0810   -3.2730 C   0  0  0  0  0  0  0  0  0  0  0  0
   73.1820   43.5210   -3.1300 C   0  0  0  0  0  0  0  0  0  0  0  0
   72.9860   42.2430   -2.5860 C   0  0  0  0  0  0  0  0  0  0  0  0
   71.6350   41.6680   -2.4210 C   0  0  0  0  0  0  0  0  0  0  0  0
   71.5120   40.8920   -1.2750 O   0  0  0  0  0  0  0  0  0  0  0  0
   70.3060   40.3000   -1.0010 C   0  0  0  0  0  0  0  0  0  0  0  0
   70.2240   39.5410    0.1680 C   0  0  0  0  0  0  0  0  0  0  0  0
   69.0250   38.9100    0.5050 C   0  0  0  0  0  0  0  0  0  0  0  0
   67.9100   39.0360   -0.3260 C   0  0  0  0  0  0  0  0  0  0  0  0
   67.9950   39.7920   -1.4910 C   0  0  0  0  0  0  0  0  0  0  0  0
   66.8660   39.8730   -2.2590 O   0  0  0  0  0  0  0  0  0  0  0  0
   69.1940   40.4250   -1.8280 C   0  0  0  0  0  0  0  0  0  0  0  0
   69.3260   41.2290   -3.0440 C   0  0  0  0  0  0  0  0  0  0  0  0
   68.3930   41.3810   -3.8290 O   0  0  0  0  0  0  0  0  0  0  0  0
   70.6390   41.8640   -3.3060 C   0  0  0  0  0  0  0  0  0  0  0  0
   70.7580   42.6110   -4.4620 O   0  0  0  0  0  0  0  0  0  0  0  0
   74.1060   41.5230   -2.1580 C   0  0  0  0  0  0  0  0  0  0  0  0
   75.3870   42.0630   -2.2870 C   0  0  0  0  0  0  0  0  0  0  0  0
   75.5810   43.3400   -2.8440 C   0  0  0  0  0  0  0  0  0  0  0  0
   76.9770   43.8990   -2.9760 C   0  0  0  0  0  0  0  0  0  0  0  0
   77.9320   43.0540   -2.4760 F   0  0  0  0  0  0  0  0  0  0  0  0
   77.1640   45.0710   -2.3020 F   0  0  0  0  0  0  0  0  0  0  0  0
   77.3580   44.1300   -4.2660 F   0  0  0  0  0  0  0  0  0  0  0  0
   73.8450   46.4090   -3.1760 C   0  0  0  0  0  0  0  0  0  0  0  0
   74.2300   47.7990   -3.7380 C   0  0  0  0  0  0  0  0  0  0  0  0
   74.7267   49.8421   -4.8487 H   0  0  0  0  0  0  0  0  0  0  0  0
   75.4190   49.0668   -6.3137 H   0  0  0  0  0  0  0  0  0  0  0  0
   73.7107   49.6223   -6.3137 H   0  0  0  0  0  0  0  0  0  0  0  0
   73.1040   47.7480   -5.4600 H   0  0  0  0  0  0  0  0  0  0  0  0
   74.7286   46.8170   -6.9206 H   0  0  0  0  0  0  0  0  0  0  0  0
   75.9469   46.9781   -5.5801 H   0  0  0  0  0  0  0  0  0  0  0  0
   73.4720   45.1691   -5.5692 H   0  0  0  0  0  0  0  0  0  0  0  0
   75.1828   44.6432   -5.7501 H   0  0  0  0  0  0  0  0  0  0  0  0
   72.3067   44.1029   -3.4545 H   0  0  0  0  0  0  0  0  0  0  0  0
   71.1025   39.4403    0.8223 H   0  0  0  0  0  0  0  0  0  0  0  0
   68.9587   38.3128    1.4264 H   0  0  0  0  0  0  0  0  0  0  0  0
   66.9658   38.5383   -0.0600 H   0  0  0  0  0  0  0  0  0  0  0  0
   66.0480   39.5600   -1.9240 H   0  0  0  0  0  0  0  0  0  0  0  0
   71.3540   43.3340   -4.4950 H   0  0  0  0  0  0  0  0  0  0  0  0
   73.9767   40.5238   -1.7165 H   0  0  0  0  0  0  0  0  0  0  0  0
   76.2571   41.4815   -1.9482 H   0  0  0  0  0  0  0  0  0  0  0  0
   72.7799   46.2178   -3.3737 H   0  0  0  0  0  0  0  0  0  0  0  0
   74.0306   46.3925   -2.0919 H   0  0  0  0  0  0  0  0  0  0  0  0
   73.5778   48.5579   -3.2811 H   0  0  0  0  0  0  0  0  0  0  0  0
   75.2878   47.9779   -3.4951 H   0  0  0  0  0  0  0  0  0  0  0  0
  1  2  1  0
  2  3  1  0
  3  4  1  0
  4  5  1  0
  5  6  1  0
  6  7  2  0
  7  8  1  0
  8  9  1  0
  9 10  1  0
 10 11  1  0
 11 12  2  0
 12 13  1  0
 13 14  2  0
 14 15  1  0
 15 16  1  0
 15 17  2  0
 17 18  1  0
 18 19  2  0
 18 20  1  0
 20 21  1  0
  8 22  2  0
 22 23  1  0
 23 24  2  0
 24 25  1  0
 25 26  1  0
 25 27  1  0
 25 28  1  0
  5 29  1  0
 29 30  1  0
 30  2  1  0
 24  6  1  0
 20  9  2  0
 17 11  1  0
  1 31  1  0
  1 32  1  0
  1 33  1  0
  2 34  1  0
  3 35  1  0
  3 36  1  0
  4 37  1  0
  4 38  1  0
  7 39  1  0
 12 40  1  0
 13 41  1  0
 14 42  1  0
 16 43  1  0
 21 44  1  0
 22 45  1  0
 23 46  1  0
 29 47  1  0
 29 48  1  0
 30 49  1  0
 30 50  1  0
M  CHG  1   2   1
M  END
>  <meeko>  (1) 
{"is_sidechain": [false], "free_energy": -8.022, "intermolecular_energy": -9.897, "internal_energy": -0.373}

$$$$
cand_056_out
     RDKit          3D

 50 53  0  0  0  0  0  0  0  0999 V2000
   75.5380   49.4230   -2.0800 C   0  0  0  0  0  0  0  0  0  0  0  0
   75.0510   48.0560   -2.2600 N   0  0  0  0  0  0  0  0  0  0  0  0
   73.7750   48.0540   -3.0130 C   0  0  0  0  0  0  0  0  0  0  0  0
   73.2480   46.6230   -3.2770 C   0  0  0  0  0  0  0  0  0  0  0  0
   74.2730   45.8360   -4.0020 N   0  0  0  0  0  0  0  0  0  0  0  0
   73.8280   44.5620   -4.3990 C   0  0  0  0  0  0  0  0  0  0  0  0
   73.4250   43.5900   -3.4640 C   0  0  0  0  0  0  0  0  0  0  0  0
   72.9710   42.3230   -3.8600 C   0  0  0  0  0  0  0  0  0  0  0  0
   72.5680   41.3000   -2.8740 C   0  0  0  0  0  0  0  0  0  0  0  0
   71.2000   41.2910   -2.6310 O   0  0  0  0  0  0  0  0  0  0  0  0
   70.6920   40.3860   -1.7340 C   0  0  0  0  0  0  0  0  0  0  0  0
   69.3100   40.4030   -1.5320 C   0  0  0  0  0  0  0  0  0  0  0  0
   68.7280   39.5090   -0.6310 C   0  0  0  0  0  0  0  0  0  0  0  0
   69.5260   38.6000    0.0680 C   0  0  0  0  0  0  0  0  0  0  0  0
   70.9030   38.5860   -0.1360 C   0  0  0  0  0  0  0  0  0  0  0  0
   71.6250   37.6720    0.5820 O   0  0  0  0  0  0  0  0  0  0  0  0
   71.4860   39.4800   -1.0380 C   0  0  0  0  0  0  0  0  0  0  0  0
   72.9290   39.4990   -1.2800 C   0  0  0  0  0  0  0  0  0  0  0  0
   73.6980   38.7360   -0.6990 O   0  0  0  0  0  0  0  0  0  0  0  0
   73.4450   40.4810   -2.2620 C   0  0  0  0  0  0  0  0  0  0  0  0
   74.8100   40.5000   -2.4750 O   0  0  0  0  0  0  0  0  0  0  0  0
   72.9420   42.0240   -5.2260 C   0  0  0  0  0  0  0  0  0  0  0  0
   73.3410   42.9730   -6.1680 C   0  0  0  0  0  0  0  0  0  0  0  0
   73.7850   44.2470   -5.7680 C   0  0  0  0  0  0  0  0  0  0  0  0
   74.2080   45.2570   -6.8070 C   0  0  0  0  0  0  0  0  0  0  0  0
   74.2830   44.7190   -8.0640 F   0  0  0  0  0  0  0  0  0  0  0  0
   75.4440   45.7900   -6.5830 F   0  0  0  0  0  0  0  0  0  0  0  0
   73.3490   46.3110   -6.9320 F   0  0  0  0  0  0  0  0  0  0  0  0
   75.5550   45.8000   -3.2580 C   0  0  0  0  0  0  0  0  0  0  0  0
   76.0500   47.2420   -2.9920 C   0  0  0  0  0  0  0  0  0  0  0  0
   75.6173   49.6455   -1.0057 H   0  0  0  0  0  0  0  0  0  0  0  0
   76.5276   49.5245   -2.5495 H   0  0  0  0  0  0  0  0  0  0  0  0
   74.8355   50.1273   -2.5495 H   0  0  0  0  0  0  0  0  0  0  0  0
   74.9000   47.6530   -1.3350 H   0  0  0  0  0  0  0  0  0  0  0  0
   73.0214   48.6065   -2.4326 H   0  0  0  0  0  0  0  0  0  0  0  0
   73.9602   48.5284   -3.9880 H   0  0  0  0  0  0  0  0  0  0  0  0
   73.0232   46.1339   -2.3177 H   0  0  0  0  0  0  0  0  0  0  0  0
   72.3347   46.6794   -3.8875 H   0  0  0  0  0  0  0  0  0  0  0  0
   73.4673   43.8309   -2.3915 H   0  0  0  0  0  0  0  0  0  0  0  0
   68.6814   41.1192   -2.0816 H   0  0  0  0  0  0  0  0  0  0  0  0
   67.6397   39.5205   -0.4714 H   0  0  0  0  0  0  0  0  0  0  0  0
   69.0671   37.8966    0.7783 H   0  0  0  0  0  0  0  0  0  0  0  0
   72.0540   36.9640    0.1410 H   0  0  0  0  0  0  0  0  0  0  0  0
   75.3810   40.8600   -1.8250 H   0  0  0  0  0  0  0  0  0  0  0  0
   72.6019   41.0328   -5.5604 H   0  0  0  0  0  0  0  0  0  0  0  0
   73.3080   42.7217   -7.2384 H   0  0  0  0  0  0  0  0  0  0  0  0
   75.4057   45.2828   -2.2987 H   0  0  0  0  0  0  0  0  0  0  0  0
   76.3062   45.2637   -3.8564 H   0  0  0  0  0  0  0  0  0  0  0  0
   76.9727   47.1943   -2.3950 H   0  0  0  0  0  0  0  0  0  0  0  0
   76.2248   47.7218   -3.9663 H   0  0  0  0  0  0  0  0  0  0  0  0
  1  2  1  0
  2  3  1  0
  3  4  1  0
  4  5  1  0
  5  6  1  0
  6  7  2  0
  7  8  1  0
  8  9  1  0
  9 10  1  0
 10 11  1  0
 11 12  2  0
 12 13  1  0
 13 14  2  0
 14 15  1  0
 15 16  1  0
 15 17  2  0
 17 18  1  0
 18 19  2  0
 18 20  1  0
 20 21  1  0
  8 22  2  0
 22 23  1  0
 23 24  2  0
 24 25  1  0
 25 26  1  0
 25 27  1  0
 25 28  1  0
  5 29  1  0
 29 30  1  0
 30  2  1  0
 24  6  1  0
 20  9  2  0
 17 11  1  0
  1 31  1  0
  1 32  1  0
  1 33  1  0
  2 34  1  0
  3 35  1  0
  3 36  1  0
  4 37  1  0
  4 38  1  0
  7 39  1  0
 12 40  1  0
 13 41  1  0
 14 42  1  0
 16 43  1  0
 21 44  1  0
 22 45  1  0
 23 46  1  0
 29 47  1  0
 29 48  1  0
 30 49  1  0
 30 50  1  0
M  CHG  1   2   1
M  END
>  <meeko>  (2) 
{"is_sidechain": [false], "free_energy": -8.016, "intermolecular_energy": -9.48, "internal_energy": -0.783}

$$$$
cand_056_out
     RDKit          3D

 50 53  0  0  0  0  0  0  0  0999 V2000
   65.7540   45.1400   -6.7120 C   0  0  0  0  0  0  0  0  0  0  0  0
   66.8590   44.4990   -6.0010 N   0  0  0  0  0  0  0  0  0  0  0  0
   68.0900   44.5200   -6.8260 C   0  0  0  0  0  0  0  0  0  0  0  0
   69.3040   43.9020   -6.0910 C   0  0  0  0  0  0  0  0  0  0  0  0
   69.5310   44.6110   -4.8100 N   0  0  0  0  0  0  0  0  0  0  0  0
   70.6960   44.1990   -4.1390 C   0  0  0  0  0  0  0  0  0  0  0  0
   70.7660   42.9700   -3.4550 C   0  0  0  0  0  0  0  0  0  0  0  0
   71.9310   42.5550   -2.7940 C   0  0  0  0  0  0  0  0  0  0  0  0
   71.9920   41.2730   -2.0620 C   0  0  0  0  0  0  0  0  0  0  0  0
   70.7750   40.9130   -1.4950 O   0  0  0  0  0  0  0  0  0  0  0  0
   70.6930   39.7420   -0.7880 C   0  0  0  0  0  0  0  0  0  0  0  0
   69.4480   39.4130   -0.2490 C   0  0  0  0  0  0  0  0  0  0  0  0
   69.2970   38.2350    0.4850 C   0  0  0  0  0  0  0  0  0  0  0  0
   70.3890   37.3850    0.6790 C   0  0  0  0  0  0  0  0  0  0  0  0
   71.6290   37.7160    0.1400 C   0  0  0  0  0  0  0  0  0  0  0  0
   72.6550   36.8410    0.3690 O   0  0  0  0  0  0  0  0  0  0  0  0
   71.7810   38.8950   -0.5940 C   0  0  0  0  0  0  0  0  0  0  0  0
   73.0670   39.2800   -1.1760 C   0  0  0  0  0  0  0  0  0  0  0  0
   74.0750   38.5890   -1.0440 O   0  0  0  0  0  0  0  0  0  0  0  0
   73.1200   40.5460   -1.9440 C   0  0  0  0  0  0  0  0  0  0  0  0
   74.3410   40.9070   -2.4800 O   0  0  0  0  0  0  0  0  0  0  0  0
   73.0410   43.4050   -2.8030 C   0  0  0  0  0  0  0  0  0  0  0  0
   72.9900   44.6290   -3.4720 C   0  0  0  0  0  0  0  0  0  0  0  0
   71.8240   45.0390   -4.1450 C   0  0  0  0  0  0  0  0  0  0  0  0
   71.7960   46.3660   -4.8630 C   0  0  0  0  0  0  0  0  0  0  0  0
   72.9410   47.0920   -4.6720 F   0  0  0  0  0  0  0  0  0  0  0  0
   70.7890   47.1910   -4.4500 F   0  0  0  0  0  0  0  0  0  0  0  0
   71.6750   46.2570   -6.2180 F   0  0  0  0  0  0  0  0  0  0  0  0
   68.3220   44.5830   -3.9530 C   0  0  0  0  0  0  0  0  0  0  0  0
   67.1210   45.1910   -4.7170 C   0  0  0  0  0  0  0  0  0  0  0  0
   65.0406   45.5538   -5.9841 H   0  0  0  0  0  0  0  0  0  0  0  0
   66.1457   45.9511   -7.3434 H   0  0  0  0  0  0  0  0  0  0  0  0
   65.2443   44.3973   -7.3434 H   0  0  0  0  0  0  0  0  0  0  0  0
   66.5930   43.5310   -5.8150 H   0  0  0  0  0  0  0  0  0  0  0  0
   67.9070   43.9487   -7.7480 H   0  0  0  0  0  0  0  0  0  0  0  0
   68.3296   45.5712   -7.0439 H   0  0  0  0  0  0  0  0  0  0  0  0
   69.1061   42.8389   -5.8896 H   0  0  0  0  0  0  0  0  0  0  0  0
   70.1989   43.9999   -6.7231 H   0  0  0  0  0  0  0  0  0  0  0  0
   69.8812   42.3167   -3.4388 H   0  0  0  0  0  0  0  0  0  0  0  0
   68.5874   40.0807   -0.4023 H   0  0  0  0  0  0  0  0  0  0  0  0
   68.3167   37.9756    0.9113 H   0  0  0  0  0  0  0  0  0  0  0  0
   70.2690   36.4564    1.2563 H   0  0  0  0  0  0  0  0  0  0  0  0
   73.5190   37.0420    0.0660 H   0  0  0  0  0  0  0  0  0  0  0  0
   74.7140   40.4050   -3.1780 H   0  0  0  0  0  0  0  0  0  0  0  0
   73.9612   43.1070   -2.2791 H   0  0  0  0  0  0  0  0  0  0  0  0
   73.8745   45.2830   -3.4732 H   0  0  0  0  0  0  0  0  0  0  0  0
   68.0920   43.5424   -3.6805 H   0  0  0  0  0  0  0  0  0  0  0  0
   68.5089   45.1727   -3.0434 H   0  0  0  0  0  0  0  0  0  0  0  0
   66.2243   45.1135   -4.0846 H   0  0  0  0  0  0  0  0  0  0  0  0
   67.3645   46.2393   -4.9447 H   0  0  0  0  0  0  0  0  0  0  0  0
  1  2  1  0
  2  3  1  0
  3  4  1  0
  4  5  1  0
  5  6  1  0
  6  7  2  0
  7  8  1  0
  8  9  1  0
  9 10  1  0
 10 11  1  0
 11 12  2  0
 12 13  1  0
 13 14  2  0
 14 15  1  0
 15 16  1  0
 15 17  2  0
 17 18  1  0
 18 19  2  0
 18 20  1  0
 20 21  1  0
  8 22  2  0
 22 23  1  0
 23 24  2  0
 24 25  1  0
 25 26  1  0
 25 27  1  0
 25 28  1  0
  5 29  1  0
 29 30  1  0
 30  2  1  0
 24  6  1  0
 20  9  2  0
 17 11  1  0
  1 31  1  0
  1 32  1  0
  1 33  1  0
  2 34  1  0
  3 35  1  0
  3 36  1  0
  4 37  1  0
  4 38  1  0
  7 39  1  0
 12 40  1  0
 13 41  1  0
 14 42  1  0
 16 43  1  0
 21 44  1  0
 22 45  1  0
 23 46  1  0
 29 47  1  0
 29 48  1  0
 30 49  1  0
 30 50  1  0
M  CHG  1   2   1
M  END
>  <meeko>  (3) 
{"is_sidechain": [false], "free_energy": -7.912, "intermolecular_energy": -9.845, "internal_energy": -0.29}

$$$$
cand_056_out
     RDKit          3D

 50 53  0  0  0  0  0  0  0  0999 V2000
   75.1080   45.6350   -6.1800 C   0  0  0  0  0  0  0  0  0  0  0  0
   74.1360   44.8370   -5.4330 N   0  0  0  0  0  0  0  0  0  0  0  0
   73.1200   45.7130   -4.8030 C   0  0  0  0  0  0  0  0  0  0  0  0
   72.0350   44.9100   -4.0470 C   0  0  0  0  0  0  0  0  0  0  0  0
   71.3850   43.9500   -4.9700 N   0  0  0  0  0  0  0  0  0  0  0  0
   70.2960   43.2690   -4.3980 C   0  0  0  0  0  0  0  0  0  0  0  0
   70.4740   42.2400   -3.4540 C   0  0  0  0  0  0  0  0  0  0  0  0
   69.3880   41.5670   -2.8760 C   0  0  0  0  0  0  0  0  0  0  0  0
   69.5820   40.4750   -1.8990 C   0  0  0  0  0  0  0  0  0  0  0  0
   70.8850   39.9930   -1.8780 O   0  0  0  0  0  0  0  0  0  0  0  0
   71.2020   38.9770   -1.0130 C   0  0  0  0  0  0  0  0  0  0  0  0
   72.5260   38.5350   -1.0140 C   0  0  0  0  0  0  0  0  0  0  0  0
   72.9150   37.5010   -0.1590 C   0  0  0  0  0  0  0  0  0  0  0  0
   71.9810   36.9110    0.6960 C   0  0  0  0  0  0  0  0  0  0  0  0
   70.6620   37.3540    0.6950 C   0  0  0  0  0  0  0  0  0  0  0  0
   69.7990   36.7320    1.5550 O   0  0  0  0  0  0  0  0  0  0  0  0
   70.2720   38.3890   -0.1610 C   0  0  0  0  0  0  0  0  0  0  0  0
   68.8960   38.8840   -0.1940 C   0  0  0  0  0  0  0  0  0  0  0  0
   68.0150   38.4110    0.5220 O   0  0  0  0  0  0  0  0  0  0  0  0
   68.5880   39.9890   -1.1310 C   0  0  0  0  0  0  0  0  0  0  0  0
   67.2830   40.4420   -1.1650 O   0  0  0  0  0  0  0  0  0  0  0  0
   68.0960   41.9250   -3.2730 C   0  0  0  0  0  0  0  0  0  0  0  0
   67.8980   42.9390   -4.2110 C   0  0  0  0  0  0  0  0  0  0  0  0
   68.9900   43.6210   -4.7810 C   0  0  0  0  0  0  0  0  0  0  0  0
   68.7490   44.7170   -5.7910 C   0  0  0  0  0  0  0  0  0  0  0  0
   67.4170   44.9600   -5.9950 F   0  0  0  0  0  0  0  0  0  0  0  0
   69.2450   44.4380   -7.0310 F   0  0  0  0  0  0  0  0  0  0  0  0
   69.2720   45.9240   -5.4280 F   0  0  0  0  0  0  0  0  0  0  0  0
   72.3770   43.0430   -5.5960 C   0  0  0  0  0  0  0  0  0  0  0  0
   73.4590   43.8720   -6.3300 C   0  0  0  0  0  0  0  0  0  0  0  0
   75.7610   46.1711   -5.4756 H   0  0  0  0  0  0  0  0  0  0  0  0
   75.7169   44.9728   -6.8131 H   0  0  0  0  0  0  0  0  0  0  0  0
   74.5771   46.3612   -6.8131 H   0  0  0  0  0  0  0  0  0  0  0  0
   74.6400   44.3270   -4.7070 H   0  0  0  0  0  0  0  0  0  0  0  0
   73.6241   46.3828   -4.0908 H   0  0  0  0  0  0  0  0  0  0  0  0
   72.6213   46.2779   -5.6044 H   0  0  0  0  0  0  0  0  0  0  0  0
   72.5008   44.3594   -3.2164 H   0  0  0  0  0  0  0  0  0  0  0  0
   71.2779   45.6044   -3.6537 H   0  0  0  0  0  0  0  0  0  0  0  0
   71.4954   41.9554   -3.1610 H   0  0  0  0  0  0  0  0  0  0  0  0
   73.2617   39.0000   -1.6867 H   0  0  0  0  0  0  0  0  0  0  0  0
   73.9578   37.1510   -0.1590 H   0  0  0  0  0  0  0  0  0  0  0  0
   72.2880   36.0971    1.3693 H   0  0  0  0  0  0  0  0  0  0  0  0
   69.5060   37.1760    2.3270 H   0  0  0  0  0  0  0  0  0  0  0  0
   66.7060   40.2620   -0.4490 H   0  0  0  0  0  0  0  0  0  0  0  0
   67.2287   41.4031   -2.8424 H   0  0  0  0  0  0  0  0  0  0  0  0
   66.8743   43.2093   -4.5093 H   0  0  0  0  0  0  0  0  0  0  0  0
   72.8534   42.4299   -4.8168 H   0  0  0  0  0  0  0  0  0  0  0  0
   71.8660   42.3920   -6.3206 H   0  0  0  0  0  0  0  0  0  0  0  0
   74.2122   43.1841   -6.7418 H   0  0  0  0  0  0  0  0  0  0  0  0
   72.9600   44.4459   -7.1247 H   0  0  0  0  0  0  0  0  0  0  0  0
  1  2  1  0
  2  3  1  0
  3  4  1  0
  4  5  1  0
  5  6  1  0
  6  7  2  0
  7  8  1  0
  8  9  1  0
  9 10  1  0
 10 11  1  0
 11 12  2  0
 12 13  1  0
 13 14  2  0
 14 15  1  0
 15 16  1  0
 15 17  2  0
 17 18  1  0
 18 19  2  0
 18 20  1  0
 20 21  1  0
  8 22  2  0
 22 23  1  0
 23 24  2  0
 24 25  1  0
 25 26  1  0
 25 27  1  0
 25 28  1  0
  5 29  1  0
 29 30  1  0
 30  2  1  0
 24  6  1  0
 20  9  2  0
 17 11  1  0
  1 31  1  0
  1 32  1  0
  1 33  1  0
  2 34  1  0
  3 35  1  0
  3 36  1  0
  4 37  1  0
  4 38  1  0
  7 39  1  0
 12 40  1  0
 13 41  1  0
 14 42  1  0
 16 43  1  0
 21 44  1  0
 22 45  1  0
 23 46  1  0
 29 47  1  0
 29 48  1  0
 30 49  1  0
 30 50  1  0
M  CHG  1   2   1
M  END
>  <meeko>  (4) 
{"is_sidechain": [false], "free_energy": -7.881, "intermolecular_energy": -9.987, "internal_energy": -0.11}

$$$$
cand_056_out
     RDKit          3D

 50 53  0  0  0  0  0  0  0  0999 V2000
   78.5900   42.9470   -7.8650 C   0  0  0  0  0  0  0  0  0  0  0  0
   77.5010   42.6820   -6.9250 N   0  0  0  0  0  0  0  0  0  0  0  0
   77.6350   43.5360   -5.7210 C   0  0  0  0  0  0  0  0  0  0  0  0
   76.4730   43.3320   -4.7200 C   0  0  0  0  0  0  0  0  0  0  0  0
   75.1790   43.5910   -5.3930 N   0  0  0  0  0  0  0  0  0  0  0  0
   74.0750   43.5560   -4.5220 C   0  0  0  0  0  0  0  0  0  0  0  0
   73.7770   42.4220   -3.7430 C   0  0  0  0  0  0  0  0  0  0  0  0
   72.6820   42.3900   -2.8670 C   0  0  0  0  0  0  0  0  0  0  0  0
   72.3640   41.1900   -2.0660 C   0  0  0  0  0  0  0  0  0  0  0  0
   71.0160   41.0980   -1.7410 O   0  0  0  0  0  0  0  0  0  0  0  0
   70.5860   40.0280   -0.9990 C   0  0  0  0  0  0  0  0  0  0  0  0
   69.2210   39.9680   -0.7080 C   0  0  0  0  0  0  0  0  0  0  0  0
   68.7170   38.9060    0.0460 C   0  0  0  0  0  0  0  0  0  0  0  0
   69.5750   37.9060    0.5080 C   0  0  0  0  0  0  0  0  0  0  0  0
   70.9350   37.9680    0.2170 C   0  0  0  0  0  0  0  0  0  0  0  0
   71.7180   36.9570    0.7020 O   0  0  0  0  0  0  0  0  0  0  0  0
   71.4400   39.0310   -0.5380 C   0  0  0  0  0  0  0  0  0  0  0  0
   72.8620   39.1360   -0.8650 C   0  0  0  0  0  0  0  0  0  0  0  0
   73.6810   38.2990   -0.4890 O   0  0  0  0  0  0  0  0  0  0  0  0
   73.2940   40.2970   -1.6770 C   0  0  0  0  0  0  0  0  0  0  0  0
   74.6410   40.3940   -1.9710 O   0  0  0  0  0  0  0  0  0  0  0  0
   71.8580   43.5170   -2.7900 C   0  0  0  0  0  0  0  0  0  0  0  0
   72.1340   44.6500   -3.5580 C   0  0  0  0  0  0  0  0  0  0  0  0
   73.2400   44.6840   -4.4270 C   0  0  0  0  0  0  0  0  0  0  0  0
   73.5180   45.9220   -5.2440 C   0  0  0  0  0  0  0  0  0  0  0  0
   72.6550   46.9460   -4.9590 F   0  0  0  0  0  0  0  0  0  0  0  0
   73.3960   45.7300   -6.5900 F   0  0  0  0  0  0  0  0  0  0  0  0
   74.7610   46.4490   -5.0400 F   0  0  0  0  0  0  0  0  0  0  0  0
   75.0060   42.7310   -6.5880 C   0  0  0  0  0  0  0  0  0  0  0  0
   76.1900   42.9420   -7.5630 C   0  0  0  0  0  0  0  0  0  0  0  0
   79.5105   43.1710   -7.3060 H   0  0  0  0  0  0  0  0  0  0  0  0
   78.7516   42.0620   -8.4979 H   0  0  0  0  0  0  0  0  0  0  0  0
   78.3268   43.8073   -8.4979 H   0  0  0  0  0  0  0  0  0  0  0  0
   77.5550   41.7000   -6.6510 H   0  0  0  0  0  0  0  0  0  0  0  0
   78.5818   43.2907   -5.2177 H   0  0  0  0  0  0  0  0  0  0  0  0
   77.6132   44.5853   -6.0504 H   0  0  0  0  0  0  0  0  0  0  0  0
   76.4899   42.2973   -4.3470 H   0  0  0  0  0  0  0  0  0  0  0  0
   76.5912   44.0313   -3.8792 H   0  0  0  0  0  0  0  0  0  0  0  0
   74.4220   41.5346   -3.8237 H   0  0  0  0  0  0  0  0  0  0  0  0
   68.5447   40.7555   -1.0719 H   0  0  0  0  0  0  0  0  0  0  0  0
   67.6425   38.8572    0.2763 H   0  0  0  0  0  0  0  0  0  0  0  0
   69.1767   37.0698    1.1014 H   0  0  0  0  0  0  0  0  0  0  0  0
   71.3390   36.2850    1.2330 H   0  0  0  0  0  0  0  0  0  0  0  0
   75.2440   40.6830   -1.3140 H   0  0  0  0  0  0  0  0  0  0  0  0
   70.9860   43.5110   -2.1195 H   0  0  0  0  0  0  0  0  0  0  0  0
   71.4770   45.5290   -3.4825 H   0  0  0  0  0  0  0  0  0  0  0  0
   74.9727   41.6764   -6.2770 H   0  0  0  0  0  0  0  0  0  0  0  0
   74.0669   42.9983   -7.0945 H   0  0  0  0  0  0  0  0  0  0  0  0
   76.0708   42.2583   -8.4164 H   0  0  0  0  0  0  0  0  0  0  0  0
   76.1763   43.9941   -7.8839 H   0  0  0  0  0  0  0  0  0  0  0  0
  1  2  1  0
  2  3  1  0
  3  4  1  0
  4  5  1  0
  5  6  1  0
  6  7  2  0
  7  8  1  0
  8  9  1  0
  9 10  1  0
 10 11  1  0
 11 12  2  0
 12 13  1  0
 13 14  2  0
 14 15  1  0
 15 16  1  0
 15 17  2  0
 17 18  1  0
 18 19  2  0
 18 20  1  0
 20 21  1  0
  8 22  2  0
 22 23  1  0
 23 24  2  0
 24 25  1  0
 25 26  1  0
 25 27  1  0
 25 28  1  0
  5 29  1  0
 29 30  1  0
 30  2  1  0
 24  6  1  0
 20  9  2  0
 17 11  1  0
  1 31  1  0
  1 32  1  0
  1 33  1  0
  2 34  1  0
  3 35  1  0
  3 36  1  0
  4 37  1  0
  4 38  1  0
  7 39  1  0
 12 40  1  0
 13 41  1  0
 14 42  1  0
 16 43  1  0
 21 44  1  0
 22 45  1  0
 23 46  1  0
 29 47  1  0
 29 48  1  0
 30 49  1  0
 30 50  1  0
M  CHG  1   2   1
M  END
>  <meeko>  (5) 
{"is_sidechain": [false], "free_energy": -7.797, "intermolecular_energy": -9.703, "internal_energy": -0.291}

$$$$
cand_056_out
     RDKit          3D

 50 53  0  0  0  0  0  0  0  0999 V2000
   72.0240   48.2530   -5.9970 C   0  0  0  0  0  0  0  0  0  0  0  0
   72.1400   47.0090   -5.2370 N   0  0  0  0  0  0  0  0  0  0  0  0
   72.6500   45.9180   -6.1010 C   0  0  0  0  0  0  0  0  0  0  0  0
   72.8430   44.5930   -5.3260 C   0  0  0  0  0  0  0  0  0  0  0  0
   73.7560   44.8100   -4.1790 N   0  0  0  0  0  0  0  0  0  0  0  0
   74.0920   43.6270   -3.4960 C   0  0  0  0  0  0  0  0  0  0  0  0
   73.1130   42.8040   -2.9070 C   0  0  0  0  0  0  0  0  0  0  0  0
   73.4460   41.6200   -2.2340 C   0  0  0  0  0  0  0  0  0  0  0  0
   72.4150   40.7700   -1.6020 C   0  0  0  0  0  0  0  0  0  0  0  0
   72.9350   39.6010   -1.0600 O   0  0  0  0  0  0  0  0  0  0  0  0
   72.0840   38.7220   -0.4410 C   0  0  0  0  0  0  0  0  0  0  0  0
   72.6520   37.5680    0.1030 C   0  0  0  0  0  0  0  0  0  0  0  0
   71.8410   36.6300    0.7450 C   0  0  0  0  0  0  0  0  0  0  0  0
   70.4640   36.8450    0.8440 C   0  0  0  0  0  0  0  0  0  0  0  0
   69.9010   37.9970    0.3010 C   0  0  0  0  0  0  0  0  0  0  0  0
   68.5470   38.1440    0.4310 O   0  0  0  0  0  0  0  0  0  0  0  0
   70.7130   38.9360   -0.3420 C   0  0  0  0  0  0  0  0  0  0  0  0
   70.1610   40.1580   -0.9270 C   0  0  0  0  0  0  0  0  0  0  0  0
   68.9600   40.4160   -0.8880 O   0  0  0  0  0  0  0  0  0  0  0  0
   71.1080   41.0930   -1.5790 C   0  0  0  0  0  0  0  0  0  0  0  0
   70.5770   42.2380   -2.1400 O   0  0  0  0  0  0  0  0  0  0  0  0
   74.7960   41.2680   -2.1340 C   0  0  0  0  0  0  0  0  0  0  0  0
   75.7820   42.0730   -2.7080 C   0  0  0  0  0  0  0  0  0  0  0  0
   75.4440   43.2550   -3.3930 C   0  0  0  0  0  0  0  0  0  0  0  0
   76.5290   44.1060   -4.0060 C   0  0  0  0  0  0  0  0  0  0  0  0
   77.7720   43.5460   -3.8780 F   0  0  0  0  0  0  0  0  0  0  0  0
   76.6440   45.3420   -3.4380 F   0  0  0  0  0  0  0  0  0  0  0  0
   76.3770   44.3090   -5.3470 F   0  0  0  0  0  0  0  0  0  0  0  0
   73.2580   45.8800   -3.2830 C   0  0  0  0  0  0  0  0  0  0  0  0
   73.0570   47.1880   -4.0860 C   0  0  0  0  0  0  0  0  0  0  0  0
   71.9449   49.1015   -5.3015 H   0  0  0  0  0  0  0  0  0  0  0  0
   72.9142   48.3800   -6.6306 H   0  0  0  0  0  0  0  0  0  0  0  0
   71.1257   48.2132   -6.6306 H   0  0  0  0  0  0  0  0  0  0  0  0
   71.2110   46.7630   -4.8940 H   0  0  0  0  0  0  0  0  0  0  0  0
   71.9319   45.7486   -6.9169 H   0  0  0  0  0  0  0  0  0  0  0  0
   73.6327   46.2272   -6.4865 H   0  0  0  0  0  0  0  0  0  0  0  0
   71.8687   44.2415   -4.9556 H   0  0  0  0  0  0  0  0  0  0  0  0
   73.2781   43.8392   -5.9986 H   0  0  0  0  0  0  0  0  0  0  0  0
   72.0555   43.0988   -2.9770 H   0  0  0  0  0  0  0  0  0  0  0  0
   73.7361   37.3983    0.0259 H   0  0  0  0  0  0  0  0  0  0  0  0
   72.2869   35.7203    1.1735 H   0  0  0  0  0  0  0  0  0  0  0  0
   69.8258   36.1056    1.3500 H   0  0  0  0  0  0  0  0  0  0  0  0
   68.0180   37.4110    0.6800 H   0  0  0  0  0  0  0  0  0  0  0  0
   70.7050   42.4170   -3.0520 H   0  0  0  0  0  0  0  0  0  0  0  0
   75.0830   40.3505   -1.5994 H   0  0  0  0  0  0  0  0  0  0  0  0
   76.8386   41.7789   -2.6235 H   0  0  0  0  0  0  0  0  0  0  0  0
   72.2982   45.5706   -2.8436 H   0  0  0  0  0  0  0  0  0  0  0  0
   73.9934   46.0549   -2.4839 H   0  0  0  0  0  0  0  0  0  0  0  0
   72.6378   47.9530   -3.4159 H   0  0  0  0  0  0  0  0  0  0  0  0
   74.0370   47.4925   -4.4820 H   0  0  0  0  0  0  0  0  0  0  0  0
  1  2  1  0
  2  3  1  0
  3  4  1  0
  4  5  1  0
  5  6  1  0
  6  7  2  0
  7  8  1  0
  8  9  1  0
  9 10  1  0
 10 11  1  0
 11 12  2  0
 12 13  1  0
 13 14  2  0
 14 15  1  0
 15 16  1  0
 15 17  2  0
 17 18  1  0
 18 19  2  0
 18 20  1  0
 20 21  1  0
  8 22  2  0
 22 23  1  0
 23 24  2  0
 24 25  1  0
 25 26  1  0
 25 27  1  0
 25 28  1  0
  5 29  1  0
 29 30  1  0
 30  2  1  0
 24  6  1  0
 20  9  2  0
 17 11  1  0
  1 31  1  0
  1 32  1  0
  1 33  1  0
  2 34  1  0
  3 35  1  0
  3 36  1  0
  4 37  1  0
  4 38  1  0
  7 39  1  0
 12 40  1  0
 13 41  1  0
 14 42  1  0
 16 43  1  0
 21 44  1  0
 22 45  1  0
 23 46  1  0
 29 47  1  0
 29 48  1  0
 30 49  1  0
 30 50  1  0
M  CHG  1   2   1
M  END
>  <meeko>  (6) 
{"is_sidechain": [false], "free_energy": -7.743, "intermolecular_energy": -9.789, "internal_energy": -0.137}

$$$$
cand_056_out
     RDKit          3D

 50 53  0  0  0  0  0  0  0  0999 V2000
   66.3660   46.0880   -7.2340 C   0  0  0  0  0  0  0  0  0  0  0  0
   67.1870   45.2780   -6.3340 N   0  0  0  0  0  0  0  0  0  0  0  0
   68.3580   44.7260   -7.0550 C   0  0  0  0  0  0  0  0  0  0  0  0
   69.2880   43.9060   -6.1280 C   0  0  0  0  0  0  0  0  0  0  0  0
   69.7340   44.7470   -4.9920 N   0  0  0  0  0  0  0  0  0  0  0  0
   70.6880   44.1210   -4.1700 C   0  0  0  0  0  0  0  0  0  0  0  0
   70.3840   42.9690   -3.4210 C   0  0  0  0  0  0  0  0  0  0  0  0
   71.3380   42.3390   -2.6090 C   0  0  0  0  0  0  0  0  0  0  0  0
   71.0080   41.1400   -1.8100 C   0  0  0  0  0  0  0  0  0  0  0  0
   72.1080   40.3250   -1.5760 O   0  0  0  0  0  0  0  0  0  0  0  0
   71.9400   39.1780   -0.8440 C   0  0  0  0  0  0  0  0  0  0  0  0
   73.0750   38.3970   -0.6210 C   0  0  0  0  0  0  0  0  0  0  0  0
   72.9720   37.2140    0.1150 C   0  0  0  0  0  0  0  0  0  0  0  0
   71.7360   36.8130    0.6260 C   0  0  0  0  0  0  0  0  0  0  0  0
   70.6060   37.5940    0.4020 C   0  0  0  0  0  0  0  0  0  0  0  0
   69.4280   37.1420    0.9300 O   0  0  0  0  0  0  0  0  0  0  0  0
   70.7090   38.7770   -0.3340 C   0  0  0  0  0  0  0  0  0  0  0  0
   69.5450   39.6260   -0.5940 C   0  0  0  0  0  0  0  0  0  0  0  0
   68.4230   39.3370   -0.1830 O   0  0  0  0  0  0  0  0  0  0  0  0
   69.7630   40.8640   -1.3770 C   0  0  0  0  0  0  0  0  0  0  0  0
   68.6560   41.6530   -1.6290 O   0  0  0  0  0  0  0  0  0  0  0  0
   72.6190   42.8940   -2.5340 C   0  0  0  0  0  0  0  0  0  0  0  0
   72.9390   44.0390   -3.2660 C   0  0  0  0  0  0  0  0  0  0  0  0
   71.9830   44.6620   -4.0890 C   0  0  0  0  0  0  0  0  0  0  0  0
   72.3550   45.8980   -4.8730 C   0  0  0  0  0  0  0  0  0  0  0  0
   73.6630   46.2610   -4.6920 F   0  0  0  0  0  0  0  0  0  0  0  0
   71.6360   47.0040   -4.5260 F   0  0  0  0  0  0  0  0  0  0  0  0
   72.2180   45.7550   -6.2230 F   0  0  0  0  0  0  0  0  0  0  0  0
   68.5810   45.2930   -4.2370 C   0  0  0  0  0  0  0  0  0  0  0  0
   67.6590   46.0920   -5.1890 C   0  0  0  0  0  0  0  0  0  0  0  0
   65.7060   46.7391   -6.6420 H   0  0  0  0  0  0  0  0  0  0  0  0
   67.0181   46.7063   -7.8684 H   0  0  0  0  0  0  0  0  0  0  0  0
   65.7565   45.4276   -7.8684 H   0  0  0  0  0  0  0  0  0  0  0  0
   66.6100   44.5110   -5.9880 H   0  0  0  0  0  0  0  0  0  0  0  0
   67.9992   44.0722   -7.8636 H   0  0  0  0  0  0  0  0  0  0  0  0
   68.9390   45.5726   -7.4496 H   0  0  0  0  0  0  0  0  0  0  0  0
   68.7416   43.0324   -5.7430 H   0  0  0  0  0  0  0  0  0  0  0  0
   70.1667   43.5718   -6.6991 H   0  0  0  0  0  0  0  0  0  0  0  0
   69.3681   42.5504   -3.4741 H   0  0  0  0  0  0  0  0  0  0  0  0
   74.0488   38.7123   -1.0240 H   0  0  0  0  0  0  0  0  0  0  0  0
   73.8657   36.5977    0.2922 H   0  0  0  0  0  0  0  0  0  0  0  0
   71.6555   35.8811    1.2048 H   0  0  0  0  0  0  0  0  0  0  0  0
   69.1460   37.4420    1.7720 H   0  0  0  0  0  0  0  0  0  0  0  0
   68.5340   42.0340   -2.4760 H   0  0  0  0  0  0  0  0  0  0  0  0
   73.3805   42.4250   -1.8935 H   0  0  0  0  0  0  0  0  0  0  0  0
   73.9530   44.4600   -3.1983 H   0  0  0  0  0  0  0  0  0  0  0  0
   68.0128   44.4643   -3.7893 H   0  0  0  0  0  0  0  0  0  0  0  0
   68.9503   45.9612   -3.4451 H   0  0  0  0  0  0  0  0  0  0  0  0
   66.7848   46.4435   -4.6214 H   0  0  0  0  0  0  0  0  0  0  0  0
   68.2421   46.9327   -5.5931 H   0  0  0  0  0  0  0  0  0  0  0  0
  1  2  1  0
  2  3  1  0
  3  4  1  0
  4  5  1  0
  5  6  1  0
  6  7  2  0
  7  8  1  0
  8  9  1  0
  9 10  1  0
 10 11  1  0
 11 12  2  0
 12 13  1  0
 13 14  2  0
 14 15  1  0
 15 16  1  0
 15 17  2  0
 17 18  1  0
 18 19  2  0
 18 20  1  0
 20 21  1  0
  8 22  2  0
 22 23  1  0
 23 24  2  0
 24 25  1  0
 25 26  1  0
 25 27  1  0
 25 28  1  0
  5 29  1  0
 29 30  1  0
 30  2  1  0
 24  6  1  0
 20  9  2  0
 17 11  1  0
  1 31  1  0
  1 32  1  0
  1 33  1  0
  2 34  1  0
  3 35  1  0
  3 36  1  0
  4 37  1  0
  4 38  1  0
  7 39  1  0
 12 40  1  0
 13 41  1  0
 14 42  1  0
 16 43  1  0
 21 44  1  0
 22 45  1  0
 23 46  1  0
 29 47  1  0
 29 48  1  0
 30 49  1  0
 30 50  1  0
M  CHG  1   2   1
M  END
>  <meeko>  (7) 
{"is_sidechain": [false], "free_energy": -7.741, "intermolecular_energy": -9.638, "internal_energy": -0.285}

$$$$
cand_056_out
     RDKit          3D

 50 53  0  0  0  0  0  0  0  0999 V2000
   75.6800   48.8750   -2.3390 C   0  0  0  0  0  0  0  0  0  0  0  0
   75.0630   47.5560   -2.4670 N   0  0  0  0  0  0  0  0  0  0  0  0
   73.8480   47.6300   -3.3130 C   0  0  0  0  0  0  0  0  0  0  0  0
   73.1910   46.2450   -3.5240 C   0  0  0  0  0  0  0  0  0  0  0  0
   74.1730   45.3070   -4.1160 N   0  0  0  0  0  0  0  0  0  0  0  0
   73.6220   44.0600   -4.4630 C   0  0  0  0  0  0  0  0  0  0  0  0
   72.9470   43.2580   -3.5240 C   0  0  0  0  0  0  0  0  0  0  0  0
   72.3880   42.0190   -3.8720 C   0  0  0  0  0  0  0  0  0  0  0  0
   71.6970   41.1730   -2.8770 C   0  0  0  0  0  0  0  0  0  0  0  0
   72.5120   40.1750   -2.3560 O   0  0  0  0  0  0  0  0  0  0  0  0
   71.9930   39.3180   -1.4200 C   0  0  0  0  0  0  0  0  0  0  0  0
   72.8510   38.3400   -0.9130 C   0  0  0  0  0  0  0  0  0  0  0  0
   72.3860   37.4330    0.0420 C   0  0  0  0  0  0  0  0  0  0  0  0
   71.0640   37.5040    0.4900 C   0  0  0  0  0  0  0  0  0  0  0  0
   70.2110   38.4800   -0.0180 C   0  0  0  0  0  0  0  0  0  0  0  0
   68.9300   38.4920    0.4620 O   0  0  0  0  0  0  0  0  0  0  0  0
   70.6770   39.3870   -0.9730 C   0  0  0  0  0  0  0  0  0  0  0  0
   69.8130   40.4270   -1.5330 C   0  0  0  0  0  0  0  0  0  0  0  0
   68.6370   40.5500   -1.1960 O   0  0  0  0  0  0  0  0  0  0  0  0
   70.4060   41.3440   -2.5340 C   0  0  0  0  0  0  0  0  0  0  0  0
   69.5800   42.3150   -3.0670 O   0  0  0  0  0  0  0  0  0  0  0  0
   72.5320   41.5710   -5.1890 C   0  0  0  0  0  0  0  0  0  0  0  0
   73.2010   42.3500   -6.1330 C   0  0  0  0  0  0  0  0  0  0  0  0
   73.7500   43.5980   -5.7840 C   0  0  0  0  0  0  0  0  0  0  0  0
   74.4670   44.4230   -6.8260 C   0  0  0  0  0  0  0  0  0  0  0  0
   74.4540   43.8360   -8.0630 F   0  0  0  0  0  0  0  0  0  0  0  0
   75.7890   44.6240   -6.5510 F   0  0  0  0  0  0  0  0  0  0  0  0
   73.9200   45.6580   -7.0220 F   0  0  0  0  0  0  0  0  0  0  0  0
   75.3890   45.1940   -3.2760 C   0  0  0  0  0  0  0  0  0  0  0  0
   76.0160   46.5930   -3.0670 C   0  0  0  0  0  0  0  0  0  0  0  0
   75.7963   49.1236   -1.2738 H   0  0  0  0  0  0  0  0  0  0  0  0
   76.6675   48.8664   -2.8234 H   0  0  0  0  0  0  0  0  0  0  0  0
   75.0405   49.6275   -2.8234 H   0  0  0  0  0  0  0  0  0  0  0  0
   74.8060   47.2380   -1.5320 H   0  0  0  0  0  0  0  0  0  0  0  0
   73.1196   48.2963   -2.8277 H   0  0  0  0  0  0  0  0  0  0  0  0
   74.1490   48.0123   -4.2995 H   0  0  0  0  0  0  0  0  0  0  0  0
   72.8491   45.8519   -2.5552 H   0  0  0  0  0  0  0  0  0  0  0  0
   72.3339   46.3503   -4.2054 H   0  0  0  0  0  0  0  0  0  0  0  0
   72.8549   43.6129   -2.4869 H   0  0  0  0  0  0  0  0  0  0  0  0
   73.8916   38.2839   -1.2652 H   0  0  0  0  0  0  0  0  0  0  0  0
   73.0610   36.6620    0.4419 H   0  0  0  0  0  0  0  0  0  0  0  0
   70.6982   36.7900    1.2426 H   0  0  0  0  0  0  0  0  0  0  0  0
   68.5960   37.7470    0.9230 H   0  0  0  0  0  0  0  0  0  0  0  0
   69.8730   43.2040   -3.1190 H   0  0  0  0  0  0  0  0  0  0  0  0
   72.1144   40.5967   -5.4827 H   0  0  0  0  0  0  0  0  0  0  0  0
   73.3010   41.9836   -7.1653 H   0  0  0  0  0  0  0  0  0  0  0  0
   75.1193   44.7655   -2.2994 H   0  0  0  0  0  0  0  0  0  0  0  0
   76.1178   44.5418   -3.7795 H   0  0  0  0  0  0  0  0  0  0  0  0
   76.8852   46.4943   -2.4001 H   0  0  0  0  0  0  0  0  0  0  0  0
   76.3070   46.9807   -4.0544 H   0  0  0  0  0  0  0  0  0  0  0  0
  1  2  1  0
  2  3  1  0
  3  4  1  0
  4  5  1  0
  5  6  1  0
  6  7  2  0
  7  8  1  0
  8  9  1  0
  9 10  1  0
 10 11  1  0
 11 12  2  0
 12 13  1  0
 13 14  2  0
 14 15  1  0
 15 16  1  0
 15 17  2  0
 17 18  1  0
 18 19  2  0
 18 20  1  0
 20 21  1  0
  8 22  2  0
 22 23  1  0
 23 24  2  0
 24 25  1  0
 25 26  1  0
 25 27  1  0
 25 28  1  0
  5 29  1  0
 29 30  1  0
 30  2  1  0
 24  6  1  0
 20  9  2  0
 17 11  1  0
  1 31  1  0
  1 32  1  0
  1 33  1  0
  2 34  1  0
  3 35  1  0
  3 36  1  0
  4 37  1  0
  4 38  1  0
  7 39  1  0
 12 40  1  0
 13 41  1  0
 14 42  1  0
 16 43  1  0
 21 44  1  0
 22 45  1  0
 23 46  1  0
 29 47  1  0
 29 48  1  0
 30 49  1  0
 30 50  1  0
M  CHG  1   2   1
M  END
>  <meeko>  (8) 
{"is_sidechain": [false], "free_energy": -7.717, "intermolecular_energy": -9.087, "internal_energy": -0.807}

$$$$
