cand_043_out
     RDKit          3D

 44 46  0  0  0  0  0  0  0  0999 V2000
   75.7310   41.7860   -2.7180 C   0  0  0  0  0  0  0  0  0  0  0  0
   74.5030   42.6440   -2.8780 C   0  0  0  0  0  0  0  0  0  0  0  0
   73.2700   41.9800   -2.6620 C   0  0  0  0  0  0  0  0  0  0  0  0
   72.0350   42.6290   -2.7650 C   0  0  0  0  0  0  0  0  0  0  0  0
   70.7790   41.8760   -2.5630 C   0  0  0  0  0  0  0  0  0  0  0  0
   70.7940   41.1000   -1.4090 O   0  0  0  0  0  0  0  0  0  0  0  0
   69.6900   40.3490   -1.1010 C   0  0  0  0  0  0  0  0  0  0  0  0
   69.7540   39.5740    0.0580 C   0  0  0  0  0  0  0  0  0  0  0  0
   68.6620   38.7860    0.4310 C   0  0  0  0  0  0  0  0  0  0  0  0
   67.5080   38.7730   -0.3540 C   0  0  0  0  0  0  0  0  0  0  0  0
   67.4470   39.5460   -1.5100 C   0  0  0  0  0  0  0  0  0  0  0  0
   66.2870   39.4860   -2.2330 O   0  0  0  0  0  0  0  0  0  0  0  0
   68.5400   40.3340   -1.8840 C   0  0  0  0  0  0  0  0  0  0  0  0
   68.5170   41.1610   -3.0910 C   0  0  0  0  0  0  0  0  0  0  0  0
   67.5350   41.2080   -3.8290 O   0  0  0  0  0  0  0  0  0  0  0  0
   69.7290   41.9530   -3.4020 C   0  0  0  0  0  0  0  0  0  0  0  0
   69.6910   42.7400   -4.5380 O   0  0  0  0  0  0  0  0  0  0  0  0
   72.0440   43.9750   -3.1060 C   0  0  0  0  0  0  0  0  0  0  0  0
   73.2520   44.6550   -3.3080 C   0  0  0  0  0  0  0  0  0  0  0  0
   74.5150   44.0300   -3.1830 C   0  0  0  0  0  0  0  0  0  0  0  0
   75.7970   44.8750   -3.4200 C   0  0  0  0  0  0  0  0  0  0  0  0
   76.4640   44.5900   -4.7850 C   0  0  0  0  0  0  0  0  0  0  0  0
   76.9130   44.6070   -2.3690 C   0  0  0  0  0  0  0  0  0  0  0  0
   75.4440   46.3730   -3.3090 C   0  0  0  0  0  0  0  0  0  0  0  0
   75.9396   41.6403   -1.6478 H   0  0  0  0  0  0  0  0  0  0  0  0
   75.5606   40.8094   -3.1947 H   0  0  0  0  0  0  0  0  0  0  0  0
   76.5894   42.2819   -3.1947 H   0  0  0  0  0  0  0  0  0  0  0  0
   73.2845   40.9111   -2.4029 H   0  0  0  0  0  0  0  0  0  0  0  0
   70.6631   39.5835    0.6772 H   0  0  0  0  0  0  0  0  0  0  0  0
   68.7119   38.1752    1.3444 H   0  0  0  0  0  0  0  0  0  0  0  0
   66.6483   38.1530   -0.0597 H   0  0  0  0  0  0  0  0  0  0  0  0
   65.9750   38.6620   -2.5510 H   0  0  0  0  0  0  0  0  0  0  0  0
   70.3710   43.3650   -4.6960 H   0  0  0  0  0  0  0  0  0  0  0  0
   71.0915   44.5136   -3.2188 H   0  0  0  0  0  0  0  0  0  0  0  0
   73.2170   45.7214   -3.5755 H   0  0  0  0  0  0  0  0  0  0  0  0
   77.4644   44.1626   -4.6221 H   0  0  0  0  0  0  0  0  0  0  0  0
   75.8482   43.8764   -5.3521 H   0  0  0  0  0  0  0  0  0  0  0  0
   76.5540   45.5282   -5.3521 H   0  0  0  0  0  0  0  0  0  0  0  0
   76.4949   44.7074   -1.3565 H   0  0  0  0  0  0  0  0  0  0  0  0
   77.3067   43.5888   -2.5038 H   0  0  0  0  0  0  0  0  0  0  0  0
   77.7262   45.3354   -2.5038 H   0  0  0  0  0  0  0  0  0  0  0  0
   75.3772   46.6563   -2.2482 H   0  0  0  0  0  0  0  0  0  0  0  0
   76.2258   46.9713   -3.7998 H   0  0  0  0  0  0  0  0  0  0  0  0
   74.4774   46.5593   -3.7998 H   0  0  0  0  0  0  0  0  0  0  0  0
  1  2  1  0
  2  3  2  0
  3  4  1  0
  4  5  1  0
  5  6  1  0
  6  7  1  0
  7  8  2  0
  8  9  1  0
  9 10  2  0
 10 11  1  0
 11 12  1  0
 11 13  2  0
 13 14  1  0
 14 15  2  0
 14 16  1  0
 16 17  1  0
  4 18  2  0
 18 19  1  0
 19 20  2  0
 20 21  1  0
 21 22  1  0
 21 23  1  0
 21 24  1  0
 20  2  1  0
 16  5  2  0
 13  7  1  0
  1 25  1  0
  1 26  1  0
  1 27  1  0
  3 28  1  0
  8 29  1  0
  9 30  1  0
 10 31  1  0
 12 32  1  0
 17 33  1  0
 18 34  1  0
 19 35  1  0
 22 36  1  0
 22 37  1  0
 22 38  1  0
 23 39  1  0
 23 40  1  0
 23 41  1  0
 24 42  1  0
 24 43  1  0
 24 44  1  0
M  END
>  <meeko>  (1) 
{"is_sidechain": [false], "free_energy": -8.086, "intermolecular_energy": -9.504, "internal_energy": 0.09}

$$$$
cand_043_out
     RDKit          3D

 44 46  0  0  0  0  0  0  0  0999 V2000
   70.3280   41.8450   -0.5790 C   0  0  0  0  0  0  0  0  0  0  0  0
   71.3280   40.8850   -1.1710 C   0  0  0  0  0  0  0  0  0  0  0  0
   72.2750   41.4670   -2.0510 C   0  0  0  0  0  0  0  0  0  0  0  0
   73.2750   40.7200   -2.6820 C   0  0  0  0  0  0  0  0  0  0  0  0
   74.2150   41.3760   -3.6170 C   0  0  0  0  0  0  0  0  0  0  0  0
   73.6150   41.7450   -4.8160 O   0  0  0  0  0  0  0  0  0  0  0  0
   74.3750   42.3630   -5.7750 C   0  0  0  0  0  0  0  0  0  0  0  0
   73.7350   42.7020   -6.9680 C   0  0  0  0  0  0  0  0  0  0  0  0
   74.4510   43.3360   -7.9860 C   0  0  0  0  0  0  0  0  0  0  0  0
   75.8050   43.6300   -7.8120 C   0  0  0  0  0  0  0  0  0  0  0  0
   76.4410   43.2900   -6.6210 C   0  0  0  0  0  0  0  0  0  0  0  0
   77.7680   43.6060   -6.5160 O   0  0  0  0  0  0  0  0  0  0  0  0
   75.7240   42.6550   -5.6020 C   0  0  0  0  0  0  0  0  0  0  0  0
   76.3540   42.2800   -4.3360 C   0  0  0  0  0  0  0  0  0  0  0  0
   77.5390   42.5120   -4.1040 O   0  0  0  0  0  0  0  0  0  0  0  0
   75.5090   41.6050   -3.3240 C   0  0  0  0  0  0  0  0  0  0  0  0
   76.1110   41.2670   -2.1260 O   0  0  0  0  0  0  0  0  0  0  0  0
   73.3130   39.3550   -2.4310 C   0  0  0  0  0  0  0  0  0  0  0  0
   72.3970   38.7630   -1.5540 C   0  0  0  0  0  0  0  0  0  0  0  0
   71.3920   39.4980   -0.8800 C   0  0  0  0  0  0  0  0  0  0  0  0
   70.4290   38.7480    0.0800 C   0  0  0  0  0  0  0  0  0  0  0  0
   68.9390   38.9720   -0.2630 C   0  0  0  0  0  0  0  0  0  0  0  0
   70.5670   39.1960    1.5640 C   0  0  0  0  0  0  0  0  0  0  0  0
   70.7560   37.2400    0.0490 C   0  0  0  0  0  0  0  0  0  0  0  0
   70.3786   41.7964    0.5188 H   0  0  0  0  0  0  0  0  0  0  0  0
   70.5598   42.8675   -0.9119 H   0  0  0  0  0  0  0  0  0  0  0  0
   69.3158   41.5717   -0.9119 H   0  0  0  0  0  0  0  0  0  0  0  0
   72.2212   42.5484   -2.2451 H   0  0  0  0  0  0  0  0  0  0  0  0
   72.6686   42.4703   -7.1063 H   0  0  0  0  0  0  0  0  0  0  0  0
   73.9474   43.6042   -8.9265 H   0  0  0  0  0  0  0  0  0  0  0  0
   76.3680   44.1293   -8.6143 H   0  0  0  0  0  0  0  0  0  0  0  0
   78.0250   44.4740   -6.2740 H   0  0  0  0  0  0  0  0  0  0  0  0
   75.7380   40.5970   -1.5880 H   0  0  0  0  0  0  0  0  0  0  0  0
   74.0717   38.7318   -2.9271 H   0  0  0  0  0  0  0  0  0  0  0  0
   72.4607   37.6786   -1.3807 H   0  0  0  0  0  0  0  0  0  0  0  0
   68.3578   39.0594    0.6668 H   0  0  0  0  0  0  0  0  0  0  0  0
   68.8328   39.8962   -0.8500 H   0  0  0  0  0  0  0  0  0  0  0  0
   68.5658   38.1199   -0.8500 H   0  0  0  0  0  0  0  0  0  0  0  0
   70.3084   38.3564    2.2260 H   0  0  0  0  0  0  0  0  0  0  0  0
   71.6034   39.5097    1.7574 H   0  0  0  0  0  0  0  0  0  0  0  0
   69.8867   40.0385    1.7574 H   0  0  0  0  0  0  0  0  0  0  0  0
   70.8381   36.8614    1.0785 H   0  0  0  0  0  0  0  0  0  0  0  0
   69.9537   36.7016   -0.4768 H   0  0  0  0  0  0  0  0  0  0  0  0
   71.7092   37.0822   -0.4768 H   0  0  0  0  0  0  0  0  0  0  0  0
  1  2  1  0
  2  3  2  0
  3  4  1  0
  4  5  1  0
  5  6  1  0
  6  7  1  0
  7  8  2  0
  8  9  1  0
  9 10  2  0
 10 11  1  0
 11 12  1  0
 11 13  2  0
 13 14  1  0
 14 15  2  0
 14 16  1  0
 16 17  1  0
  4 18  2  0
 18 19  1  0
 19 20  2  0
 20 21  1  0
 21 22  1  0
 21 23  1  0
 21 24  1  0
 20  2  1  0
 16  5  2  0
 13  7  1  0
  1 25  1  0
  1 26  1  0
  1 27  1  0
  3 28  1  0
  8 29  1  0
  9 30  1  0
 10 31  1  0
 12 32  1  0
 17 33  1  0
 18 34  1  0
 19 35  1  0
 22 36  1  0
 22 37  1  0
 22 38  1  0
 23 39  1  0
 23 40  1  0
 23 41  1  0
 24 42  1  0
 24 43  1  0
 24 44  1  0
M  END
>  <meeko>  (2) 
{"is_sidechain": [false], "free_energy": -8.085, "intermolecular_energy": -9.179, "internal_energy": -0.234}

$$$$
cand_043_out
     RDKit          3D

 44 46  0  0  0  0  0  0  0  0999 V2000
   73.4580   45.8990   -3.3570 C   0  0  0  0  0  0  0  0  0  0  0  0
   73.5550   44.3960   -3.3150 C   0  0  0  0  0  0  0  0  0  0  0  0
   72.3390   43.7200   -3.0490 C   0  0  0  0  0  0  0  0  0  0  0  0
   72.2510   42.3250   -2.9790 C   0  0  0  0  0  0  0  0  0  0  0  0
   70.9600   41.6760   -2.6630 C   0  0  0  0  0  0  0  0  0  0  0  0
   71.0140   40.9010   -1.5090 O   0  0  0  0  0  0  0  0  0  0  0  0
   69.8840   40.2410   -1.1010 C   0  0  0  0  0  0  0  0  0  0  0  0
   69.9870   39.4640    0.0530 C   0  0  0  0  0  0  0  0  0  0  0  0
   68.8720   38.7670    0.5250 C   0  0  0  0  0  0  0  0  0  0  0  0
   67.6570   38.8470   -0.1560 C   0  0  0  0  0  0  0  0  0  0  0  0
   67.5560   39.6230   -1.3070 C   0  0  0  0  0  0  0  0  0  0  0  0
   66.3360   39.6570   -1.9260 O   0  0  0  0  0  0  0  0  0  0  0  0
   68.6720   40.3190   -1.7800 C   0  0  0  0  0  0  0  0  0  0  0  0
   68.6100   41.1460   -2.9860 C   0  0  0  0  0  0  0  0  0  0  0  0
   67.5740   41.2720   -3.6360 O   0  0  0  0  0  0  0  0  0  0  0  0
   69.8500   41.8380   -3.4080 C   0  0  0  0  0  0  0  0  0  0  0  0
   69.7770   42.6260   -4.5410 O   0  0  0  0  0  0  0  0  0  0  0  0
   73.4180   41.5970   -3.1700 C   0  0  0  0  0  0  0  0  0  0  0  0
   74.6270   42.2460   -3.4510 C   0  0  0  0  0  0  0  0  0  0  0  0
   74.7400   43.6520   -3.5540 C   0  0  0  0  0  0  0  0  0  0  0  0
   76.1270   44.2730   -3.8770 C   0  0  0  0  0  0  0  0  0  0  0  0
   76.7040   45.1030   -2.7080 C   0  0  0  0  0  0  0  0  0  0  0  0
   76.0950   45.2540   -5.0840 C   0  0  0  0  0  0  0  0  0  0  0  0
   77.1090   43.1460   -4.2570 C   0  0  0  0  0  0  0  0  0  0  0  0
   73.4325   46.2936   -2.3305 H   0  0  0  0  0  0  0  0  0  0  0  0
   74.3316   46.3082   -3.8856 H   0  0  0  0  0  0  0  0  0  0  0  0
   72.5390   46.1925   -3.8856 H   0  0  0  0  0  0  0  0  0  0  0  0
   71.4275   44.3152   -2.8912 H   0  0  0  0  0  0  0  0  0  0  0  0
   70.9446   39.4002    0.5905 H   0  0  0  0  0  0  0  0  0  0  0  0
   68.9522   38.1542    1.4350 H   0  0  0  0  0  0  0  0  0  0  0  0
   66.7799   38.2974    0.2163 H   0  0  0  0  0  0  0  0  0  0  0  0
   65.5730   39.9030   -1.4420 H   0  0  0  0  0  0  0  0  0  0  0  0
   69.1850   43.3520   -4.5690 H   0  0  0  0  0  0  0  0  0  0  0  0
   73.3927   40.4995   -3.0999 H   0  0  0  0  0  0  0  0  0  0  0  0
   75.5294   41.6345   -3.5982 H   0  0  0  0  0  0  0  0  0  0  0  0
   76.3931   44.6558   -1.7523 H   0  0  0  0  0  0  0  0  0  0  0  0
   77.8022   45.1093   -2.7698 H   0  0  0  0  0  0  0  0  0  0  0  0
   76.3273   46.1347   -2.7698 H   0  0  0  0  0  0  0  0  0  0  0  0
   76.0612   46.2894   -4.7142 H   0  0  0  0  0  0  0  0  0  0  0  0
   76.9982   45.1124   -5.6956 H   0  0  0  0  0  0  0  0  0  0  0  0
   75.2029   45.0538   -5.6956 H   0  0  0  0  0  0  0  0  0  0  0  0
   77.5103   42.6854   -3.3422 H   0  0  0  0  0  0  0  0  0  0  0  0
   76.5814   42.3844   -4.8499 H   0  0  0  0  0  0  0  0  0  0  0  0
   77.9357   43.5644   -4.8499 H   0  0  0  0  0  0  0  0  0  0  0  0
  1  2  1  0
  2  3  2  0
  3  4  1  0
  4  5  1  0
  5  6  1  0
  6  7  1  0
  7  8  2  0
  8  9  1  0
  9 10  2  0
 10 11  1  0
 11 12  1  0
 11 13  2  0
 13 14  1  0
 14 15  2  0
 14 16  1  0
 16 17  1  0
  4 18  2  0
 18 19  1  0
 19 20  2  0
 20 21  1  0
 21 22  1  0
 21 23  1  0
 21 24  1  0
 20  2  1  0
 16  5  2  0
 13  7  1  0
  1 25  1  0
  1 26  1  0
  1 27  1  0
  3 28  1  0
  8 29  1  0
  9 30  1  0
 10 31  1  0
 12 32  1  0
 17 33  1  0
 18 34  1  0
 19 35  1  0
 22 36  1  0
 22 37  1  0
 22 38  1  0
 23 39  1  0
 23 40  1  0
 23 41  1  0
 24 42  1  0
 24 43  1  0
 24 44  1  0
M  END
>  <meeko>  (3) 
{"is_sidechain": [false], "free_energy": -7.987, "intermolecular_energy": -9.209, "internal_energy": -0.089}

$$$$
cand_043_out
     RDKit          3D

 44 46  0  0  0  0  0  0  0  0999 V2000
   76.6150   42.8160   -2.0300 C   0  0  0  0  0  0  0  0  0  0  0  0
   75.3930   42.4730   -2.8420 C   0  0  0  0  0  0  0  0  0  0  0  0
   74.3950   41.7410   -2.1500 C   0  0  0  0  0  0  0  0  0  0  0  0
   73.1970   41.3450   -2.7530 C   0  0  0  0  0  0  0  0  0  0  0  0
   72.2070   40.5530   -1.9920 C   0  0  0  0  0  0  0  0  0  0  0  0
   72.7780   39.4740   -1.3240 O   0  0  0  0  0  0  0  0  0  0  0  0
   71.9710   38.6540   -0.5790 C   0  0  0  0  0  0  0  0  0  0  0  0
   72.5820   37.5760    0.0610 C   0  0  0  0  0  0  0  0  0  0  0  0
   71.8180   36.7020    0.8380 C   0  0  0  0  0  0  0  0  0  0  0  0
   70.4440   36.9060    0.9740 C   0  0  0  0  0  0  0  0  0  0  0  0
   69.8350   37.9830    0.3340 C   0  0  0  0  0  0  0  0  0  0  0  0
   68.4860   38.1240    0.5090 O   0  0  0  0  0  0  0  0  0  0  0  0
   70.6010   38.8560   -0.4450 C   0  0  0  0  0  0  0  0  0  0  0  0
   70.0020   39.9990   -1.1340 C   0  0  0  0  0  0  0  0  0  0  0  0
   68.8000   40.2490   -1.0570 O   0  0  0  0  0  0  0  0  0  0  0  0
   70.8980   40.8600   -1.9400 C   0  0  0  0  0  0  0  0  0  0  0  0
   70.3230   41.9450   -2.5770 O   0  0  0  0  0  0  0  0  0  0  0  0
   73.0050   41.6840   -4.0860 C   0  0  0  0  0  0  0  0  0  0  0  0
   73.9710   42.4210   -4.7830 C   0  0  0  0  0  0  0  0  0  0  0  0
   75.1800   42.8580   -4.1910 C   0  0  0  0  0  0  0  0  0  0  0  0
   76.1830   43.6770   -5.0480 C   0  0  0  0  0  0  0  0  0  0  0  0
   77.5620   42.9920   -5.1840 C   0  0  0  0  0  0  0  0  0  0  0  0
   76.4940   45.0820   -4.4570 C   0  0  0  0  0  0  0  0  0  0  0  0
   75.5750   43.9180   -6.4460 C   0  0  0  0  0  0  0  0  0  0  0  0
   76.3743   42.7484   -0.9588 H   0  0  0  0  0  0  0  0  0  0  0  0
   77.4241   42.1103   -2.2692 H   0  0  0  0  0  0  0  0  0  0  0  0
   76.9387   43.8397   -2.2692 H   0  0  0  0  0  0  0  0  0  0  0  0
   74.5700   41.4741   -1.0973 H   0  0  0  0  0  0  0  0  0  0  0  0
   73.6647   37.4141   -0.0460 H   0  0  0  0  0  0  0  0  0  0  0  0
   72.2998   35.8520    1.3433 H   0  0  0  0  0  0  0  0  0  0  0  0
   69.8428   36.2172    1.5857 H   0  0  0  0  0  0  0  0  0  0  0  0
   68.0460   38.8790    0.1710 H   0  0  0  0  0  0  0  0  0  0  0  0
   69.8350   41.8180   -3.3660 H   0  0  0  0  0  0  0  0  0  0  0  0
   72.0844   41.3704   -4.6000 H   0  0  0  0  0  0  0  0  0  0  0  0
   73.7815   42.6712   -5.8373 H   0  0  0  0  0  0  0  0  0  0  0  0
   77.9708   42.7889   -4.1832 H   0  0  0  0  0  0  0  0  0  0  0  0
   77.4487   42.0454   -5.7328 H   0  0  0  0  0  0  0  0  0  0  0  0
   78.2478   43.6542   -5.7328 H   0  0  0  0  0  0  0  0  0  0  0  0
   76.4822   45.0285   -3.3584 H   0  0  0  0  0  0  0  0  0  0  0  0
   77.4868   45.4114   -4.7974 H   0  0  0  0  0  0  0  0  0  0  0  0
   75.7330   45.7996   -4.7974 H   0  0  0  0  0  0  0  0  0  0  0  0
   74.5573   44.3214   -6.3386 H   0  0  0  0  0  0  0  0  0  0  0  0
   76.1981   44.6371   -6.9979 H   0  0  0  0  0  0  0  0  0  0  0  0
   75.5362   42.9672   -6.9979 H   0  0  0  0  0  0  0  0  0  0  0  0
  1  2  1  0
  2  3  2  0
  3  4  1  0
  4  5  1  0
  5  6  1  0
  6  7  1  0
  7  8  2  0
  8  9  1  0
  9 10  2  0
 10 11  1  0
 11 12  1  0
 11 13  2  0
 13 14  1  0
 14 15  2  0
 14 16  1  0
 16 17  1  0
  4 18  2  0
 18 19  1  0
 19 20  2  0
 20 21  1  0
 21 22  1  0
 21 23  1  0
 21 24  1  0
 20  2  1  0
 16  5  2  0
 13  7  1  0
  1 25  1  0
  1 26  1  0
  1 27  1  0
  3 28  1  0
  8 29  1  0
  9 30  1  0
 10 31  1  0
 12 32  1  0
 17 33  1  0
 18 34  1  0
 19 35  1  0
 22 36  1  0
 22 37  1  0
 22 38  1  0
 23 39  1  0
 23 40  1  0
 23 41  1  0
 24 42  1  0
 24 43  1  0
 24 44  1  0
M  END
>  <meeko>  (4) 
{"is_sidechain": [false], "free_energy": -7.902, "intermolecular_energy": -9.148, "internal_energy": -0.05}

$$$$
cand_043_out
     RDKit          3D

 44 46  0  0  0  0  0  0  0  0999 V2000
   73.3420   42.3970   -6.3530 C   0  0  0  0  0  0  0  0  0  0  0  0
   73.7250   42.3550   -4.8960 C   0  0  0  0  0  0  0  0  0  0  0  0
   72.9450   41.4880   -4.0910 C   0  0  0  0  0  0  0  0  0  0  0  0
   73.1700   41.3250   -2.7210 C   0  0  0  0  0  0  0  0  0  0  0  0
   72.3000   40.4320   -1.9240 C   0  0  0  0  0  0  0  0  0  0  0  0
   70.9590   40.7960   -1.9770 O   0  0  0  0  0  0  0  0  0  0  0  0
   70.0430   40.0510   -1.2810 C   0  0  0  0  0  0  0  0  0  0  0  0
   68.7110   40.4610   -1.3500 C   0  0  0  0  0  0  0  0  0  0  0  0
   67.7250   39.7450   -0.6660 C   0  0  0  0  0  0  0  0  0  0  0  0
   68.0710   38.6210    0.0860 C   0  0  0  0  0  0  0  0  0  0  0  0
   69.4010   38.2140    0.1530 C   0  0  0  0  0  0  0  0  0  0  0  0
   69.6710   37.1050    0.9070 O   0  0  0  0  0  0  0  0  0  0  0  0
   70.3870   38.9320   -0.5300 C   0  0  0  0  0  0  0  0  0  0  0  0
   71.7960   38.5380   -0.4870 C   0  0  0  0  0  0  0  0  0  0  0  0
   72.1780   37.5570    0.1470 O   0  0  0  0  0  0  0  0  0  0  0  0
   72.7640   39.3690   -1.2400 C   0  0  0  0  0  0  0  0  0  0  0  0
   74.0900   38.9810   -1.2010 O   0  0  0  0  0  0  0  0  0  0  0  0
   74.1960   42.0640   -2.1460 C   0  0  0  0  0  0  0  0  0  0  0  0
   74.9890   42.9140   -2.9260 C   0  0  0  0  0  0  0  0  0  0  0  0
   74.8020   43.0770   -4.3190 C   0  0  0  0  0  0  0  0  0  0  0  0
   75.7420   44.0390   -5.0960 C   0  0  0  0  0  0  0  0  0  0  0  0
   74.9850   45.2010   -5.7780 C   0  0  0  0  0  0  0  0  0  0  0  0
   76.5210   43.3420   -6.2470 C   0  0  0  0  0  0  0  0  0  0  0  0
   76.8050   44.5990   -4.1270 C   0  0  0  0  0  0  0  0  0  0  0  0
   72.2522   42.5165   -6.4423 H   0  0  0  0  0  0  0  0  0  0  0  0
   73.8451   43.2454   -6.8401 H   0  0  0  0  0  0  0  0  0  0  0  0
   73.6492   41.4598   -6.8401 H   0  0  0  0  0  0  0  0  0  0  0  0
   72.1296   40.9204   -4.5632 H   0  0  0  0  0  0  0  0  0  0  0  0
   68.4375   41.3468   -1.9421 H   0  0  0  0  0  0  0  0  0  0  0  0
   66.6747   40.0675   -0.7202 H   0  0  0  0  0  0  0  0  0  0  0  0
   67.2946   38.0579    0.6246 H   0  0  0  0  0  0  0  0  0  0  0  0
   69.2760   37.0050    1.7510 H   0  0  0  0  0  0  0  0  0  0  0  0
   74.4430   38.4550   -1.8910 H   0  0  0  0  0  0  0  0  0  0  0  0
   74.3875   41.9804   -1.0660 H   0  0  0  0  0  0  0  0  0  0  0  0
   75.7934   43.4805   -2.4340 H   0  0  0  0  0  0  0  0  0  0  0  0
   74.5556   45.8602   -5.0092 H   0  0  0  0  0  0  0  0  0  0  0  0
   75.6828   45.7752   -6.4051 H   0  0  0  0  0  0  0  0  0  0  0  0
   74.1778   44.7947   -6.4051 H   0  0  0  0  0  0  0  0  0  0  0  0
   77.2769   42.6657   -5.8212 H   0  0  0  0  0  0  0  0  0  0  0  0
   75.8198   42.7643   -6.8671 H   0  0  0  0  0  0  0  0  0  0  0  0
   77.0175   44.1029   -6.8671 H   0  0  0  0  0  0  0  0  0  0  0  0
   76.4815   44.4286   -3.0896 H   0  0  0  0  0  0  0  0  0  0  0  0
   77.7641   44.0891   -4.3004 H   0  0  0  0  0  0  0  0  0  0  0  0
   76.9269   45.6784   -4.3004 H   0  0  0  0  0  0  0  0  0  0  0  0
  1  2  1  0
  2  3  2  0
  3  4  1  0
  4  5  1  0
  5  6  1  0
  6  7  1  0
  7  8  2  0
  8  9  1  0
  9 10  2  0
 10 11  1  0
 11 12  1  0
 11 13  2  0
 13 14  1  0
 14 15  2  0
 14 16  1  0
 16 17  1  0
  4 18  2  0
 18 19  1  0
 19 20  2  0
 20 21  1  0
 21 22  1  0
 21 23  1  0
 21 24  1  0
 20  2  1  0
 16  5  2  0
 13  7  1  0
  1 25  1  0
  1 26  1  0
  1 27  1  0
  3 28  1  0
  8 29  1  0
  9 30  1  0
 10 31  1  0
 12 32  1  0
 17 33  1  0
 18 34  1  0
 19 35  1  0
 22 36  1  0
 22 37  1  0
 22 38  1  0
 23 39  1  0
 23 40  1  0
 23 41  1  0
 24 42  1  0
 24 43  1  0
 24 44  1  0
M  END
>  <meeko>  (5) 
{"is_sidechain": [false], "free_energy": -7.896, "intermolecular_energy": -9.039, "internal_energy": -0.152}

$$$$
cand_043_out
     RDKit          3D

 44 46  0  0  0  0  0  0  0  0999 V2000
   76.3750   43.2100   -2.1340 C   0  0  0  0  0  0  0  0  0  0  0  0
   75.2030   42.6760   -2.9170 C   0  0  0  0  0  0  0  0  0  0  0  0
   74.3050   41.8630   -2.1810 C   0  0  0  0  0  0  0  0  0  0  0  0
   73.1640   41.2920   -2.7530 C   0  0  0  0  0  0  0  0  0  0  0  0
   72.2820   40.4230   -1.9440 C   0  0  0  0  0  0  0  0  0  0  0  0
   70.9440   40.7980   -2.0130 O   0  0  0  0  0  0  0  0  0  0  0  0
   70.0160   40.0760   -1.3080 C   0  0  0  0  0  0  0  0  0  0  0  0
   68.6880   40.4960   -1.3940 C   0  0  0  0  0  0  0  0  0  0  0  0
   67.6920   39.8030   -0.7020 C   0  0  0  0  0  0  0  0  0  0  0  0
   68.0230   38.6920    0.0750 C   0  0  0  0  0  0  0  0  0  0  0  0
   69.3490   38.2750    0.1600 C   0  0  0  0  0  0  0  0  0  0  0  0
   69.6040   37.1800    0.9390 O   0  0  0  0  0  0  0  0  0  0  0  0
   70.3460   38.9690   -0.5320 C   0  0  0  0  0  0  0  0  0  0  0  0
   71.7510   38.5650   -0.4700 C   0  0  0  0  0  0  0  0  0  0  0  0
   72.1200   37.5930    0.1870 O   0  0  0  0  0  0  0  0  0  0  0  0
   72.7310   39.3710   -1.2340 C   0  0  0  0  0  0  0  0  0  0  0  0
   74.0530   38.9720   -1.1780 O   0  0  0  0  0  0  0  0  0  0  0  0
   72.9290   41.5340   -4.1000 C   0  0  0  0  0  0  0  0  0  0  0  0
   73.7950   42.3480   -4.8410 C   0  0  0  0  0  0  0  0  0  0  0  0
   74.9410   42.9610   -4.2820 C   0  0  0  0  0  0  0  0  0  0  0  0
   75.8340   43.8520   -5.1890 C   0  0  0  0  0  0  0  0  0  0  0  0
   77.2800   43.3230   -5.3210 C   0  0  0  0  0  0  0  0  0  0  0  0
   75.9900   45.3070   -4.6600 C   0  0  0  0  0  0  0  0  0  0  0  0
   75.1850   43.9640   -6.5850 C   0  0  0  0  0  0  0  0  0  0  0  0
   76.1698   43.1165   -1.0574 H   0  0  0  0  0  0  0  0  0  0  0  0
   77.2776   42.6343   -2.3866 H   0  0  0  0  0  0  0  0  0  0  0  0
   76.5329   44.2689   -2.3866 H   0  0  0  0  0  0  0  0  0  0  0  0
   74.5140   41.6738   -1.1177 H   0  0  0  0  0  0  0  0  0  0  0  0
   68.4259   41.3717   -2.0060 H   0  0  0  0  0  0  0  0  0  0  0  0
   66.6450   40.1335   -0.7696 H   0  0  0  0  0  0  0  0  0  0  0  0
   67.2379   38.1467    0.6193 H   0  0  0  0  0  0  0  0  0  0  0  0
   69.8140   37.2890    1.8460 H   0  0  0  0  0  0  0  0  0  0  0  0
   74.5850   39.2170   -0.4470 H   0  0  0  0  0  0  0  0  0  0  0  0
   72.0540   41.0819   -4.5899 H   0  0  0  0  0  0  0  0  0  0  0  0
   73.5743   42.5183   -5.9051 H   0  0  0  0  0  0  0  0  0  0  0  0
   77.7063   43.1671   -4.3190 H   0  0  0  0  0  0  0  0  0  0  0  0
   77.2729   42.3692   -5.8690 H   0  0  0  0  0  0  0  0  0  0  0  0
   77.8901   44.0562   -5.8690 H   0  0  0  0  0  0  0  0  0  0  0  0
   75.9892   45.2993   -3.5600 H   0  0  0  0  0  0  0  0  0  0  0  0
   76.9386   45.7294   -5.0230 H   0  0  0  0  0  0  0  0  0  0  0  0
   75.1525   45.9209   -5.0230 H   0  0  0  0  0  0  0  0  0  0  0  0
   74.1065   44.1501   -6.4741 H   0  0  0  0  0  0  0  0  0  0  0  0
   75.6457   44.7959   -7.1379 H   0  0  0  0  0  0  0  0  0  0  0  0
   75.3402   43.0258   -7.1379 H   0  0  0  0  0  0  0  0  0  0  0  0
  1  2  1  0
  2  3  2  0
  3  4  1  0
  4  5  1  0
  5  6  1  0
  6  7  1  0
  7  8  2  0
  8  9  1  0
  9 10  2  0
 10 11  1  0
 11 12  1  0
 11 13  2  0
 13 14  1  0
 14 15  2  0
 14 16  1  0
 16 17  1  0
  4 18  2  0
 18 19  1  0
 19 20  2  0
 20 21  1  0
 21 22  1  0
 21 23  1  0
 21 24  1  0
 20  2  1  0
 16  5  2  0
 13  7  1  0
  1 25  1  0
  1 26  1  0
  1 27  1  0
  3 28  1  0
  8 29  1  0
  9 30  1  0
 10 31  1  0
 12 32  1  0
 17 33  1  0
 18 34  1  0
 19 35  1  0
 22 36  1  0
 22 37  1  0
 22 38  1  0
 23 39  1  0
 23 40  1  0
 23 41  1  0
 24 42  1  0
 24 43  1  0
 24 44  1  0
M  END
>  <meeko>  (6) 
{"is_sidechain": [false], "free_energy": -7.875, "intermolecular_energy": -9.14, "internal_energy": -0.026}

$$$$
cand_043_out
     RDKit          3D

 44 46  0  0  0  0  0  0  0  0999 V2000
   73.6520   42.4290   -6.4230 C   0  0  0  0  0  0  0  0  0  0  0  0
   73.9230   42.4280   -4.9410 C   0  0  0  0  0  0  0  0  0  0  0  0
   73.0480   41.6250   -4.1670 C   0  0  0  0  0  0  0  0  0  0  0  0
   73.1620   41.5080   -2.7780 C   0  0  0  0  0  0  0  0  0  0  0  0
   72.1980   40.6830   -2.0190 C   0  0  0  0  0  0  0  0  0  0  0  0
   72.7950   39.5960   -1.3900 O   0  0  0  0  0  0  0  0  0  0  0  0
   72.0130   38.7460   -0.6510 C   0  0  0  0  0  0  0  0  0  0  0  0
   72.6510   37.6610   -0.0500 C   0  0  0  0  0  0  0  0  0  0  0  0
   71.9130   36.7570    0.7190 C   0  0  0  0  0  0  0  0  0  0  0  0
   70.5390   36.9390    0.8860 C   0  0  0  0  0  0  0  0  0  0  0  0
   69.9040   38.0230    0.2840 C   0  0  0  0  0  0  0  0  0  0  0  0
   68.5570   38.1420    0.4880 O   0  0  0  0  0  0  0  0  0  0  0  0
   70.6430   38.9260   -0.4860 C   0  0  0  0  0  0  0  0  0  0  0  0
   70.0160   40.0780   -1.1350 C   0  0  0  0  0  0  0  0  0  0  0  0
   68.8130   40.3100   -1.0290 O   0  0  0  0  0  0  0  0  0  0  0  0
   70.8850   40.9720   -1.9350 C   0  0  0  0  0  0  0  0  0  0  0  0
   70.2850   42.0630   -2.5330 O   0  0  0  0  0  0  0  0  0  0  0  0
   74.1740   42.2260   -2.1540 C   0  0  0  0  0  0  0  0  0  0  0  0
   75.0590   43.0120   -2.9010 C   0  0  0  0  0  0  0  0  0  0  0  0
   74.9850   43.1270   -4.3100 C   0  0  0  0  0  0  0  0  0  0  0  0
   76.0210   44.0190   -5.0460 C   0  0  0  0  0  0  0  0  0  0  0  0
   75.3660   45.1570   -5.8620 C   0  0  0  0  0  0  0  0  0  0  0  0
   76.8830   43.2370   -6.0780 C   0  0  0  0  0  0  0  0  0  0  0  0
   77.0050   44.6090   -4.0150 C   0  0  0  0  0  0  0  0  0  0  0  0
   72.5659   42.4330   -6.5971 H   0  0  0  0  0  0  0  0  0  0  0  0
   74.0994   43.3255   -6.8770 H   0  0  0  0  0  0  0  0  0  0  0  0
   74.0928   41.5292   -6.8770 H   0  0  0  0  0  0  0  0  0  0  0  0
   72.2472   41.0717   -4.6794 H   0  0  0  0  0  0  0  0  0  0  0  0
   73.7336   37.5170   -0.1811 H   0  0  0  0  0  0  0  0  0  0  0  0
   72.4154   35.9010    1.1933 H   0  0  0  0  0  0  0  0  0  0  0  0
   69.9587   36.2276    1.4920 H   0  0  0  0  0  0  0  0  0  0  0  0
   68.0520   37.3910    0.7310 H   0  0  0  0  0  0  0  0  0  0  0  0
   70.5320   42.3160   -3.4010 H   0  0  0  0  0  0  0  0  0  0  0  0
   74.2812   42.1764   -1.0604 H   0  0  0  0  0  0  0  0  0  0  0  0
   75.8473   43.5651   -2.3694 H   0  0  0  0  0  0  0  0  0  0  0  0
   74.9376   45.9013   -5.1747 H   0  0  0  0  0  0  0  0  0  0  0  0
   76.1256   45.6377   -6.4960 H   0  0  0  0  0  0  0  0  0  0  0  0
   74.5688   44.7417   -6.4960 H   0  0  0  0  0  0  0  0  0  0  0  0
   77.5958   42.5904   -5.5453 H   0  0  0  0  0  0  0  0  0  0  0  0
   76.2279   42.6186   -6.7093 H   0  0  0  0  0  0  0  0  0  0  0  0
   77.4349   43.9490   -6.7093 H   0  0  0  0  0  0  0  0  0  0  0  0
   76.6444   44.3928   -2.9985 H   0  0  0  0  0  0  0  0  0  0  0  0
   77.9980   44.1572   -4.1556 H   0  0  0  0  0  0  0  0  0  0  0  0
   77.0743   45.6978   -4.1556 H   0  0  0  0  0  0  0  0  0  0  0  0
  1  2  1  0
  2  3  2  0
  3  4  1  0
  4  5  1  0
  5  6  1  0
  6  7  1  0
  7  8  2  0
  8  9  1  0
  9 10  2  0
 10 11  1  0
 11 12  1  0
 11 13  2  0
 13 14  1  0
 14 15  2  0
 14 16  1  0
 16 17  1  0
  4 18  2  0
 18 19  1  0
 19 20  2  0
 20 21  1  0
 21 22  1  0
 21 23  1  0
 21 24  1  0
 20  2  1  0
 16  5  2  0
 13  7  1  0
  1 25  1  0
  1 26  1  0
  1 27  1  0
  3 28  1  0
  8 29  1  0
  9 30  1  0
 10 31  1  0
 12 32  1  0
 17 33  1  0
 18 34  1  0
 19 35  1  0
 22 36  1  0
 22 37  1  0
 22 38  1  0
 23 39  1  0
 23 40  1  0
 23 41  1  0
 24 42  1  0
 24 43  1  0
 24 44  1  0
M  END
>  <meeko>  (7) 
{"is_sidechain": [false], "free_energy": -7.819, "intermolecular_energy": -8.947, "internal_energy": -0.154}

$$$$
cand_043_out
     RDKit          3D

 44 46  0  0  0  0  0  0  0  0999 V2000
   71.2190   43.4800   -5.5600 C   0  0  0  0  0  0  0  0  0  0  0  0
   69.9900   43.1180   -4.7670 C   0  0  0  0  0  0  0  0  0  0  0  0
   70.1750   42.0950   -3.8030 C   0  0  0  0  0  0  0  0  0  0  0  0
   69.1400   41.6410   -2.9780 C   0  0  0  0  0  0  0  0  0  0  0  0
   69.3830   40.5460   -2.0150 C   0  0  0  0  0  0  0  0  0  0  0  0
   70.7130   40.1400   -1.9820 O   0  0  0  0  0  0  0  0  0  0  0  0
   71.0760   39.1300   -1.1290 C   0  0  0  0  0  0  0  0  0  0  0  0
   72.4180   38.7450   -1.1400 C   0  0  0  0  0  0  0  0  0  0  0  0
   72.8550   37.7220   -0.2940 C   0  0  0  0  0  0  0  0  0  0  0  0
   71.9540   37.0860    0.5590 C   0  0  0  0  0  0  0  0  0  0  0  0
   70.6150   37.4720    0.5680 C   0  0  0  0  0  0  0  0  0  0  0  0
   69.7860   36.8060    1.4280 O   0  0  0  0  0  0  0  0  0  0  0  0
   70.1770   38.4940   -0.2790 C   0  0  0  0  0  0  0  0  0  0  0  0
   68.7810   38.9300   -0.3020 C   0  0  0  0  0  0  0  0  0  0  0  0
   67.9290   38.4230    0.4250 O   0  0  0  0  0  0  0  0  0  0  0  0
   68.4170   40.0160   -1.2410 C   0  0  0  0  0  0  0  0  0  0  0  0
   67.0970   40.4280   -1.2450 O   0  0  0  0  0  0  0  0  0  0  0  0
   67.8890   42.2220   -3.1380 C   0  0  0  0  0  0  0  0  0  0  0  0
   67.6900   43.2450   -4.0730 C   0  0  0  0  0  0  0  0  0  0  0  0
   68.7240   43.7430   -4.9000 C   0  0  0  0  0  0  0  0  0  0  0  0
   68.4010   44.8870   -5.9010 C   0  0  0  0  0  0  0  0  0  0  0  0
   69.4880   45.9850   -5.9340 C   0  0  0  0  0  0  0  0  0  0  0  0
   67.0830   45.6430   -5.5660 C   0  0  0  0  0  0  0  0  0  0  0  0
   68.2130   44.2880   -7.3100 C   0  0  0  0  0  0  0  0  0  0  0  0
   72.0416   43.7223   -4.8711 H   0  0  0  0  0  0  0  0  0  0  0  0
   71.5101   42.6294   -6.1939 H   0  0  0  0  0  0  0  0  0  0  0  0
   71.0025   44.3525   -6.1939 H   0  0  0  0  0  0  0  0  0  0  0  0
   71.1713   41.6403   -3.6995 H   0  0  0  0  0  0  0  0  0  0  0  0
   73.1297   39.2457   -1.8129 H   0  0  0  0  0  0  0  0  0  0  0  0
   73.9121   37.4179   -0.3011 H   0  0  0  0  0  0  0  0  0  0  0  0
   72.2996   36.2807    1.2239 H   0  0  0  0  0  0  0  0  0  0  0  0
   70.1430   36.3450    2.1620 H   0  0  0  0  0  0  0  0  0  0  0  0
   66.8830   41.3090   -1.4810 H   0  0  0  0  0  0  0  0  0  0  0  0
   67.0452   41.8748   -2.5236 H   0  0  0  0  0  0  0  0  0  0  0  0
   66.6846   43.6810   -4.1688 H   0  0  0  0  0  0  0  0  0  0  0  0
   69.7615   46.2613   -4.9050 H   0  0  0  0  0  0  0  0  0  0  0  0
   70.3764   45.6058   -6.4603 H   0  0  0  0  0  0  0  0  0  0  0  0
   69.0998   46.8695   -6.4603 H   0  0  0  0  0  0  0  0  0  0  0  0
   66.9661   45.7101   -4.4743 H   0  0  0  0  0  0  0  0  0  0  0  0
   67.1224   46.6558   -5.9934 H   0  0  0  0  0  0  0  0  0  0  0  0
   66.2287   45.0976   -5.9934 H   0  0  0  0  0  0  0  0  0  0  0  0
   67.8846   43.2418   -7.2228 H   0  0  0  0  0  0  0  0  0  0  0  0
   67.4532   44.8665   -7.8560 H   0  0  0  0  0  0  0  0  0  0  0  0
   69.1671   44.3286   -7.8560 H   0  0  0  0  0  0  0  0  0  0  0  0
  1  2  1  0
  2  3  2  0
  3  4  1  0
  4  5  1  0
  5  6  1  0
  6  7  1  0
  7  8  2  0
  8  9  1  0
  9 10  2  0
 10 11  1  0
 11 12  1  0
 11 13  2  0
 13 14  1  0
 14 15  2  0
 14 16  1  0
 16 17  1  0
  4 18  2  0
 18 19  1  0
 19 20  2  0
 20 21  1  0
 21 22  1  0
 21 23  1  0
 21 24  1  0
 20  2  1  0
 16  5  2  0
 13  7  1  0
  1 25  1  0
  1 26  1  0
  1 27  1  0
  3 28  1  0
  8 29  1  0
  9 30  1  0
 10 31  1  0
 12 32  1  0
 17 33  1  0
 18 34  1  0
 19 35  1  0
 22 36  1  0
 22 37  1  0
 22 38  1  0
 23 39  1  0
 23 40  1  0
 23 41  1  0
 24 42  1  0
 24 43  1  0
 24 44  1  0
M  END
>  <meeko>  (8) 
{"is_sidechain": [false], "free_energy": -7.71, "intermolecular_energy": -9.41, "internal_energy": 0.437}

$$$$
cand_043_out
     RDKit          3D

 44 46  0  0  0  0  0  0  0  0999 V2000
   73.6420   46.0970   -3.2390 C   0  0  0  0  0  0  0  0  0  0  0  0
   73.5310   44.7550   -3.9140 C   0  0  0  0  0  0  0  0  0  0  0  0
   73.1070   43.6920   -3.0780 C   0  0  0  0  0  0  0  0  0  0  0  0
   72.9460   42.3840   -3.5450 C   0  0  0  0  0  0  0  0  0  0  0  0
   72.5340   41.3080   -2.6180 C   0  0  0  0  0  0  0  0  0  0  0  0
   71.1610   41.2800   -2.3990 O   0  0  0  0  0  0  0  0  0  0  0  0
   70.6430   40.3300   -1.5570 C   0  0  0  0  0  0  0  0  0  0  0  0
   69.2630   40.3490   -1.3540 C   0  0  0  0  0  0  0  0  0  0  0  0
   68.6700   39.4070   -0.5100 C   0  0  0  0  0  0  0  0  0  0  0  0
   69.4560   38.4490    0.1320 C   0  0  0  0  0  0  0  0  0  0  0  0
   70.8340   38.4320   -0.0720 C   0  0  0  0  0  0  0  0  0  0  0  0
   71.5450   37.4670    0.5870 O   0  0  0  0  0  0  0  0  0  0  0  0
   71.4270   39.3750   -0.9160 C   0  0  0  0  0  0  0  0  0  0  0  0
   72.8700   39.3940   -1.1580 C   0  0  0  0  0  0  0  0  0  0  0  0
   73.6280   38.5780   -0.6360 O   0  0  0  0  0  0  0  0  0  0  0  0
   73.4000   40.4390   -2.0640 C   0  0  0  0  0  0  0  0  0  0  0  0
   74.7640   40.4390   -2.2940 O   0  0  0  0  0  0  0  0  0  0  0  0
   73.2330   42.1380   -4.8820 C   0  0  0  0  0  0  0  0  0  0  0  0
   73.6380   43.1770   -5.7290 C   0  0  0  0  0  0  0  0  0  0  0  0
   73.7820   44.5150   -5.2900 C   0  0  0  0  0  0  0  0  0  0  0  0
   74.2290   45.5960   -6.3120 C   0  0  0  0  0  0  0  0  0  0  0  0
   75.4340   46.4300   -5.8190 C   0  0  0  0  0  0  0  0  0  0  0  0
   73.1220   46.6440   -6.6240 C   0  0  0  0  0  0  0  0  0  0  0  0
   74.5740   44.9140   -7.6520 C   0  0  0  0  0  0  0  0  0  0  0  0
   73.6307   45.9605   -2.1476 H   0  0  0  0  0  0  0  0  0  0  0  0
   74.5833   46.5812   -3.5383 H   0  0  0  0  0  0  0  0  0  0  0  0
   72.7931   46.7293   -3.5383 H   0  0  0  0  0  0  0  0  0  0  0  0
   72.8962   43.9045   -2.0195 H   0  0  0  0  0  0  0  0  0  0  0  0
   68.6426   41.1048   -1.8579 H   0  0  0  0  0  0  0  0  0  0  0  0
   67.5816   39.4203   -0.3511 H   0  0  0  0  0  0  0  0  0  0  0  0
   68.9883   37.7088    0.7978 H   0  0  0  0  0  0  0  0  0  0  0  0
   71.1030   36.7220    0.9440 H   0  0  0  0  0  0  0  0  0  0  0  0
   75.1520   41.1240   -2.8010 H   0  0  0  0  0  0  0  0  0  0  0  0
   73.1411   41.1164   -5.2793 H   0  0  0  0  0  0  0  0  0  0  0  0
   73.8538   42.9431   -6.7820 H   0  0  0  0  0  0  0  0  0  0  0  0
   75.4478   46.4396   -4.7191 H   0  0  0  0  0  0  0  0  0  0  0  0
   76.3669   45.9834   -6.1936 H   0  0  0  0  0  0  0  0  0  0  0  0
   75.3446   47.4604   -6.1936 H   0  0  0  0  0  0  0  0  0  0  0  0
   72.7101   47.0339   -5.6815 H   0  0  0  0  0  0  0  0  0  0  0  0
   73.5541   47.4717   -7.2055 H   0  0  0  0  0  0  0  0  0  0  0  0
   72.3192   46.1673   -7.2055 H   0  0  0  0  0  0  0  0  0  0  0  0
   75.0626   43.9480   -7.4567 H   0  0  0  0  0  0  0  0  0  0  0  0
   73.6512   44.7484   -8.2274 H   0  0  0  0  0  0  0  0  0  0  0  0
   75.2541   45.5592   -8.2274 H   0  0  0  0  0  0  0  0  0  0  0  0
  1  2  1  0
  2  3  2  0
  3  4  1  0
  4  5  1  0
  5  6  1  0
  6  7  1  0
  7  8  2  0
  8  9  1  0
  9 10  2  0
 10 11  1  0
 11 12  1  0
 11 13  2  0
 13 14  1  0
 14 15  2  0
 14 16  1  0
 16 17  1  0
  4 18  2  0
 18 19  1  0
 19 20  2  0
 20 21  1  0
 21 22  1  0
 21 23  1  0
 21 24  1  0
 20  2  1  0
 16  5  2  0
 13  7  1  0
  1 25  1  0
  1 26  1  0
  1 27  1  0
  3 28  1  0
  8 29  1  0
  9 30  1  0
 10 31  1  0
 12 32  1  0
 17 33  1  0
 18 34  1  0
 19 35  1  0
 22 36  1  0
 22 37  1  0
 22 38  1  0
 23 39  1  0
 23 40  1  0
 23 41  1  0
 24 42  1  0
 24 43  1  0
 24 44  1  0
M  END
>  <meeko>  (9) 
{"is_sidechain": [false], "free_energy": -7.575, "intermolecular_energy": -8.579, "internal_energy": -0.235}

$$$$
