cand_036_out
     RDKit          3D

 35 37  0  0  0  0  0  0  0  0999 V2000
   70.3290   36.9690    1.6240 C   0  0  0  0  0  0  0  0  0  0  0  0
   70.5180   38.0410    0.5860 C   0  0  0  0  0  0  0  0  0  0  0  0
   69.5780   39.0760    0.4880 C   0  0  0  0  0  0  0  0  0  0  0  0
   69.7210   40.0880   -0.4650 C   0  0  0  0  0  0  0  0  0  0  0  0
   70.8040   40.0880   -1.3500 C   0  0  0  0  0  0  0  0  0  0  0  0
   70.9930   41.1610   -2.3490 C   0  0  0  0  0  0  0  0  0  0  0  0
   72.2040   41.8270   -2.2030 O   0  0  0  0  0  0  0  0  0  0  0  0
   72.5090   42.8480   -3.0660 C   0  0  0  0  0  0  0  0  0  0  0  0
   73.7290   43.4990   -2.8740 C   0  0  0  0  0  0  0  0  0  0  0  0
   74.1010   44.5470   -3.7200 C   0  0  0  0  0  0  0  0  0  0  0  0
   73.2540   44.9420   -4.7570 C   0  0  0  0  0  0  0  0  0  0  0  0
   72.0380   44.2910   -4.9480 C   0  0  0  0  0  0  0  0  0  0  0  0
   71.2580   44.7290   -5.9820 O   0  0  0  0  0  0  0  0  0  0  0  0
   71.6660   43.2430   -4.1000 C   0  0  0  0  0  0  0  0  0  0  0  0
   70.3970   42.5330   -4.2650 C   0  0  0  0  0  0  0  0  0  0  0  0
   69.6020   42.8190   -5.1580 O   0  0  0  0  0  0  0  0  0  0  0  0
   70.0930   41.4430   -3.3090 C   0  0  0  0  0  0  0  0  0  0  0  0
   68.8980   40.7700   -3.4820 O   0  0  0  0  0  0  0  0  0  0  0  0
   71.7500   39.0560   -1.2440 C   0  0  0  0  0  0  0  0  0  0  0  0
   71.6210   38.0320   -0.2890 C   0  0  0  0  0  0  0  0  0  0  0  0
   72.6610   36.9470   -0.2280 C   0  0  0  0  0  0  0  0  0  0  0  0
   70.4072   37.4125    2.6276 H   0  0  0  0  0  0  0  0  0  0  0  0
   69.3363   36.5112    1.5018 H   0  0  0  0  0  0  0  0  0  0  0  0
   71.1053   36.1993    1.5018 H   0  0  0  0  0  0  0  0  0  0  0  0
   68.7157   39.0919    1.1708 H   0  0  0  0  0  0  0  0  0  0  0  0
   68.9737   40.8933   -0.5197 H   0  0  0  0  0  0  0  0  0  0  0  0
   74.3968   43.1872   -2.0574 H   0  0  0  0  0  0  0  0  0  0  0  0
   75.0617   45.0610   -3.5688 H   0  0  0  0  0  0  0  0  0  0  0  0
   73.5470   45.7671   -5.4229 H   0  0  0  0  0  0  0  0  0  0  0  0
   70.8080   45.5480   -5.9160 H   0  0  0  0  0  0  0  0  0  0  0  0
   68.3790   40.5380   -2.7380 H   0  0  0  0  0  0  0  0  0  0  0  0
   72.6137   39.0483   -1.9251 H   0  0  0  0  0  0  0  0  0  0  0  0
   72.8854   36.7129    0.8231 H   0  0  0  0  0  0  0  0  0  0  0  0
   72.2807   36.0458   -0.7312 H   0  0  0  0  0  0  0  0  0  0  0  0
   73.5775   37.2888   -0.7312 H   0  0  0  0  0  0  0  0  0  0  0  0
  1  2  1  0
  2  3  2  0
  3  4  1  0
  4  5  2  0
  5  6  1  0
  6  7  1  0
  7  8  1  0
  8  9  2  0
  9 10  1  0
 10 11  2  0
 11 12  1  0
 12 13  1  0
 12 14  2  0
 14 15  1  0
 15 16  2  0
 15 17  1  0
 17 18  1  0
  5 19  1  0
 19 20  2  0
 20 21  1  0
 20  2  1  0
 17  6  2  0
 14  8  1  0
  1 22  1  0
  1 23  1  0
  1 24  1  0
  3 25  1  0
  4 26  1  0
  9 27  1  0
 10 28  1  0
 11 29  1  0
 13 30  1  0
 18 31  1  0
 19 32  1  0
 21 33  1  0
 21 34  1  0
 21 35  1  0
M  END
>  <meeko>  (1) 
{"is_sidechain": [false], "free_energy": -7.987, "intermolecular_energy": -8.921, "internal_energy": -0.174}

$$$$
cand_036_out
     RDKit          3D

 35 37  0  0  0  0  0  0  0  0999 V2000
   70.5410   36.5530    1.1330 C   0  0  0  0  0  0  0  0  0  0  0  0
   71.1370   37.6030    0.2360 C   0  0  0  0  0  0  0  0  0  0  0  0
   72.4710   37.4790   -0.1750 C   0  0  0  0  0  0  0  0  0  0  0  0
   73.0580   38.4350   -1.0070 C   0  0  0  0  0  0  0  0  0  0  0  0
   72.3290   39.5450   -1.4450 C   0  0  0  0  0  0  0  0  0  0  0  0
   72.9180   40.5570   -2.3480 C   0  0  0  0  0  0  0  0  0  0  0  0
   74.0770   41.1270   -1.8360 O   0  0  0  0  0  0  0  0  0  0  0  0
   74.7280   42.0830   -2.5730 C   0  0  0  0  0  0  0  0  0  0  0  0
   75.8800   42.6400   -2.0140 C   0  0  0  0  0  0  0  0  0  0  0  0
   76.5910   43.6170   -2.7140 C   0  0  0  0  0  0  0  0  0  0  0  0
   76.1520   44.0370   -3.9710 C   0  0  0  0  0  0  0  0  0  0  0  0
   75.0030   43.4800   -4.5260 C   0  0  0  0  0  0  0  0  0  0  0  0
   74.6290   43.9370   -5.7600 O   0  0  0  0  0  0  0  0  0  0  0  0
   74.2900   42.5030   -3.8260 C   0  0  0  0  0  0  0  0  0  0  0  0
   73.0780   41.8920   -4.3730 C   0  0  0  0  0  0  0  0  0  0  0  0
   72.6320   42.2050   -5.4750 O   0  0  0  0  0  0  0  0  0  0  0  0
   72.3930   40.8710   -3.5470 C   0  0  0  0  0  0  0  0  0  0  0  0
   71.2560   40.2920   -4.0790 O   0  0  0  0  0  0  0  0  0  0  0  0
   70.9900   39.6630   -1.0410 C   0  0  0  0  0  0  0  0  0  0  0  0
   70.3840   38.7080   -0.2050 C   0  0  0  0  0  0  0  0  0  0  0  0
   68.9480   38.8920    0.2030 C   0  0  0  0  0  0  0  0  0  0  0  0
   70.7010   36.8349    2.1842 H   0  0  0  0  0  0  0  0  0  0  0  0
   69.4620   36.4715    0.9354 H   0  0  0  0  0  0  0  0  0  0  0  0
   71.0241   35.5847    0.9354 H   0  0  0  0  0  0  0  0  0  0  0  0
   73.0643   36.6164    0.1625 H   0  0  0  0  0  0  0  0  0  0  0  0
   74.1052   38.3134   -1.3211 H   0  0  0  0  0  0  0  0  0  0  0  0
   76.2269   42.3097   -1.0238 H   0  0  0  0  0  0  0  0  0  0  0  0
   77.4985   44.0564   -2.2743 H   0  0  0  0  0  0  0  0  0  0  0  0
   76.7128   44.8065   -4.5218 H   0  0  0  0  0  0  0  0  0  0  0  0
   73.7610   43.7780   -6.0760 H   0  0  0  0  0  0  0  0  0  0  0  0
   71.3270   39.5220   -4.6100 H   0  0  0  0  0  0  0  0  0  0  0  0
   70.3996   40.5242   -1.3870 H   0  0  0  0  0  0  0  0  0  0  0  0
   68.8770   38.9011    1.3007 H   0  0  0  0  0  0  0  0  0  0  0  0
   68.5726   39.8456   -0.1966 H   0  0  0  0  0  0  0  0  0  0  0  0
   68.3443   38.0639   -0.1966 H   0  0  0  0  0  0  0  0  0  0  0  0
  1  2  1  0
  2  3  2  0
  3  4  1  0
  4  5  2  0
  5  6  1  0
  6  7  1  0
  7  8  1  0
  8  9  2  0
  9 10  1  0
 10 11  2  0
 11 12  1  0
 12 13  1  0
 12 14  2  0
 14 15  1  0
 15 16  2  0
 15 17  1  0
 17 18  1  0
  5 19  1  0
 19 20  2  0
 20 21  1  0
 20  2  1  0
 17  6  2  0
 14  8  1  0
  1 22  1  0
  1 23  1  0
  1 24  1  0
  3 25  1  0
  4 26  1  0
  9 27  1  0
 10 28  1  0
 11 29  1  0
 13 30  1  0
 18 31  1  0
 19 32  1  0
 21 33  1  0
 21 34  1  0
 21 35  1  0
M  END
>  <meeko>  (2) 
{"is_sidechain": [false], "free_energy": -7.841, "intermolecular_energy": -8.827, "internal_energy": -0.104}

$$$$
cand_036_out
     RDKit          3D

 35 37  0  0  0  0  0  0  0  0999 V2000
   73.5050   45.5120   -5.9260 C   0  0  0  0  0  0  0  0  0  0  0  0
   73.2060   44.3550   -5.0130 C   0  0  0  0  0  0  0  0  0  0  0  0
   72.8380   44.6050   -3.6850 C   0  0  0  0  0  0  0  0  0  0  0  0
   72.5540   43.5540   -2.8090 C   0  0  0  0  0  0  0  0  0  0  0  0
   72.6370   42.2250   -3.2360 C   0  0  0  0  0  0  0  0  0  0  0  0
   72.3160   41.0960   -2.3370 C   0  0  0  0  0  0  0  0  0  0  0  0
   70.9630   41.0230   -2.0260 O   0  0  0  0  0  0  0  0  0  0  0  0
   70.5250   40.0200   -1.1990 C   0  0  0  0  0  0  0  0  0  0  0  0
   69.1620   39.9930   -0.9010 C   0  0  0  0  0  0  0  0  0  0  0  0
   68.6510   38.9970   -0.0660 C   0  0  0  0  0  0  0  0  0  0  0  0
   69.5020   38.0280    0.4700 C   0  0  0  0  0  0  0  0  0  0  0  0
   70.8620   38.0570    0.1710 C   0  0  0  0  0  0  0  0  0  0  0  0
   71.6390   37.0790    0.7290 O   0  0  0  0  0  0  0  0  0  0  0  0
   71.3730   39.0550   -0.6640 C   0  0  0  0  0  0  0  0  0  0  0  0
   72.7960   39.1220   -1.0030 C   0  0  0  0  0  0  0  0  0  0  0  0
   73.6060   38.3020   -0.5760 O   0  0  0  0  0  0  0  0  0  0  0  0
   73.2370   40.2230   -1.8900 C   0  0  0  0  0  0  0  0  0  0  0  0
   74.5800   40.2690   -2.2140 O   0  0  0  0  0  0  0  0  0  0  0  0
   72.9970   41.9770   -4.5700 C   0  0  0  0  0  0  0  0  0  0  0  0
   73.2850   43.0230   -5.4640 C   0  0  0  0  0  0  0  0  0  0  0  0
   73.6730   42.6960   -6.8800 C   0  0  0  0  0  0  0  0  0  0  0  0
   73.7354   46.4037   -5.3245 H   0  0  0  0  0  0  0  0  0  0  0  0
   74.3687   45.2646   -6.5607 H   0  0  0  0  0  0  0  0  0  0  0  0
   72.6296   45.7140   -6.5607 H   0  0  0  0  0  0  0  0  0  0  0  0
   72.7716   45.6429   -3.3267 H   0  0  0  0  0  0  0  0  0  0  0  0
   72.2618   43.7746   -1.7717 H   0  0  0  0  0  0  0  0  0  0  0  0
   68.4908   40.7554   -1.3233 H   0  0  0  0  0  0  0  0  0  0  0  0
   67.5768   38.9757    0.1698 H   0  0  0  0  0  0  0  0  0  0  0  0
   69.0989   37.2433    1.1271 H   0  0  0  0  0  0  0  0  0  0  0  0
   71.3680   36.6620    1.5230 H   0  0  0  0  0  0  0  0  0  0  0  0
   74.9100   39.7470   -2.9200 H   0  0  0  0  0  0  0  0  0  0  0  0
   73.0552   40.9375   -4.9249 H   0  0  0  0  0  0  0  0  0  0  0  0
   74.5141   41.9871   -6.8753 H   0  0  0  0  0  0  0  0  0  0  0  0
   72.8155   42.2441   -7.4001 H   0  0  0  0  0  0  0  0  0  0  0  0
   73.9731   43.6176   -7.4001 H   0  0  0  0  0  0  0  0  0  0  0  0
  1  2  1  0
  2  3  2  0
  3  4  1  0
  4  5  2  0
  5  6  1  0
  6  7  1  0
  7  8  1  0
  8  9  2  0
  9 10  1  0
 10 11  2  0
 11 12  1  0
 12 13  1  0
 12 14  2  0
 14 15  1  0
 15 16  2  0
 15 17  1  0
 17 18  1  0
  5 19  1  0
 19 20  2  0
 20 21  1  0
 20  2  1  0
 17  6  2  0
 14  8  1  0
  1 22  1  0
  1 23  1  0
  1 24  1  0
  3 25  1  0
  4 26  1  0
  9 27  1  0
 10 28  1  0
 11 29  1  0
 13 30  1  0
 18 31  1  0
 19 32  1  0
 21 33  1  0
 21 34  1  0
 21 35  1  0
M  END
>  <meeko>  (3) 
{"is_sidechain": [false], "free_energy": -7.836, "intermolecular_energy": -8.684, "internal_energy": -0.242}

$$$$
cand_036_out
     RDKit          3D

 35 37  0  0  0  0  0  0  0  0999 V2000
   77.1820   43.4970   -2.7920 C   0  0  0  0  0  0  0  0  0  0  0  0
   75.7640   43.0010   -2.7140 C   0  0  0  0  0  0  0  0  0  0  0  0
   75.5210   41.6640   -2.3700 C   0  0  0  0  0  0  0  0  0  0  0  0
   74.2180   41.1690   -2.2880 C   0  0  0  0  0  0  0  0  0  0  0  0
   73.1210   41.9950   -2.5550 C   0  0  0  0  0  0  0  0  0  0  0  0
   71.7310   41.5030   -2.4490 C   0  0  0  0  0  0  0  0  0  0  0  0
   71.5080   40.7600   -1.2960 O   0  0  0  0  0  0  0  0  0  0  0  0
   70.2580   40.2410   -1.0710 C   0  0  0  0  0  0  0  0  0  0  0  0
   70.0840   39.4880    0.0900 C   0  0  0  0  0  0  0  0  0  0  0  0
   68.8350   38.9340    0.3800 C   0  0  0  0  0  0  0  0  0  0  0  0
   67.7620   39.1330   -0.4910 C   0  0  0  0  0  0  0  0  0  0  0  0
   67.9390   39.8850   -1.6500 C   0  0  0  0  0  0  0  0  0  0  0  0
   66.8470   40.0410   -2.4590 O   0  0  0  0  0  0  0  0  0  0  0  0
   69.1890   40.4390   -1.9400 C   0  0  0  0  0  0  0  0  0  0  0  0
   69.4180   41.2350   -3.1470 C   0  0  0  0  0  0  0  0  0  0  0  0
   68.5220   41.4590   -3.9580 O   0  0  0  0  0  0  0  0  0  0  0  0
   70.7820   41.7710   -3.3650 C   0  0  0  0  0  0  0  0  0  0  0  0
   70.9830   42.5320   -4.5010 O   0  0  0  0  0  0  0  0  0  0  0  0
   73.3660   43.3370   -2.8890 C   0  0  0  0  0  0  0  0  0  0  0  0
   74.6720   43.8510   -2.9740 C   0  0  0  0  0  0  0  0  0  0  0  0
   74.8720   45.2940   -3.3450 C   0  0  0  0  0  0  0  0  0  0  0  0
   77.5784   43.6357   -1.7753 H   0  0  0  0  0  0  0  0  0  0  0  0
   77.7988   42.7612   -3.3289 H   0  0  0  0  0  0  0  0  0  0  0  0
   77.2057   44.4568   -3.3289 H   0  0  0  0  0  0  0  0  0  0  0  0
   76.3691   40.9951   -2.1616 H   0  0  0  0  0  0  0  0  0  0  0  0
   74.0522   40.1176   -2.0103 H   0  0  0  0  0  0  0  0  0  0  0  0
   70.9291   39.3306    0.7763 H   0  0  0  0  0  0  0  0  0  0  0  0
   68.6966   38.3403    1.2956 H   0  0  0  0  0  0  0  0  0  0  0  0
   66.7785   38.6966   -0.2623 H   0  0  0  0  0  0  0  0  0  0  0  0
   65.9960   39.7970   -2.1500 H   0  0  0  0  0  0  0  0  0  0  0  0
   71.1510   43.4510   -4.4250 H   0  0  0  0  0  0  0  0  0  0  0  0
   72.5140   44.0033   -3.0893 H   0  0  0  0  0  0  0  0  0  0  0  0
   74.9559   45.8995   -2.4305 H   0  0  0  0  0  0  0  0  0  0  0  0
   75.7929   45.3959   -3.9380 H   0  0  0  0  0  0  0  0  0  0  0  0
   74.0136   45.6425   -3.9380 H   0  0  0  0  0  0  0  0  0  0  0  0
  1  2  1  0
  2  3  2  0
  3  4  1  0
  4  5  2  0
  5  6  1  0
  6  7  1  0
  7  8  1  0
  8  9  2  0
  9 10  1  0
 10 11  2  0
 11 12  1  0
 12 13  1  0
 12 14  2  0
 14 15  1  0
 15 16  2  0
 15 17  1  0
 17 18  1  0
  5 19  1  0
 19 20  2  0
 20 21  1  0
 20  2  1  0
 17  6  2  0
 14  8  1  0
  1 22  1  0
  1 23  1  0
  1 24  1  0
  3 25  1  0
  4 26  1  0
  9 27  1  0
 10 28  1  0
 11 29  1  0
 13 30  1  0
 18 31  1  0
 19 32  1  0
 21 33  1  0
 21 34  1  0
 21 35  1  0
M  END
>  <meeko>  (4) 
{"is_sidechain": [false], "free_energy": -7.834, "intermolecular_energy": -8.939, "internal_energy": 0.014}

$$$$
cand_036_out
     RDKit          3D

 35 37  0  0  0  0  0  0  0  0999 V2000
   73.4310   45.4600   -6.2100 C   0  0  0  0  0  0  0  0  0  0  0  0
   73.1390   44.3490   -5.2400 C   0  0  0  0  0  0  0  0  0  0  0  0
   72.7330   43.0990   -5.7270 C   0  0  0  0  0  0  0  0  0  0  0  0
   72.4530   42.0450   -4.8550 C   0  0  0  0  0  0  0  0  0  0  0  0
   72.5650   42.2130   -3.4710 C   0  0  0  0  0  0  0  0  0  0  0  0
   72.3010   41.1060   -2.5280 C   0  0  0  0  0  0  0  0  0  0  0  0
   70.9570   40.9920   -2.1920 O   0  0  0  0  0  0  0  0  0  0  0  0
   70.5700   40.0040   -1.3230 C   0  0  0  0  0  0  0  0  0  0  0  0
   69.2140   39.9360   -1.0020 C   0  0  0  0  0  0  0  0  0  0  0  0
   68.7540   38.9520   -0.1240 C   0  0  0  0  0  0  0  0  0  0  0  0
   69.6500   38.0350    0.4310 C   0  0  0  0  0  0  0  0  0  0  0  0
   71.0030   38.1050    0.1090 C   0  0  0  0  0  0  0  0  0  0  0  0
   71.8250   37.1770    0.6880 O   0  0  0  0  0  0  0  0  0  0  0  0
   71.4630   39.0910   -0.7690 C   0  0  0  0  0  0  0  0  0  0  0  0
   72.8760   39.2000   -1.1340 C   0  0  0  0  0  0  0  0  0  0  0  0
   73.7240   38.4270   -0.6910 O   0  0  0  0  0  0  0  0  0  0  0  0
   73.2620   40.2850   -2.0650 C   0  0  0  0  0  0  0  0  0  0  0  0
   74.5970   40.3700   -2.4130 O   0  0  0  0  0  0  0  0  0  0  0  0
   72.9820   43.4620   -2.9850 C   0  0  0  0  0  0  0  0  0  0  0  0
   73.2690   44.5330   -3.8490 C   0  0  0  0  0  0  0  0  0  0  0  0
   73.7040   45.8510   -3.2700 C   0  0  0  0  0  0  0  0  0  0  0  0
   73.6723   46.3781   -5.6542 H   0  0  0  0  0  0  0  0  0  0  0  0
   74.2858   45.1791   -6.8428 H   0  0  0  0  0  0  0  0  0  0  0  0
   72.5485   45.6357   -6.8428 H   0  0  0  0  0  0  0  0  0  0  0  0
   72.6335   42.9461   -6.8118 H   0  0  0  0  0  0  0  0  0  0  0  0
   72.1408   41.0715   -5.2611 H   0  0  0  0  0  0  0  0  0  0  0  0
   68.5078   40.6567   -1.4400 H   0  0  0  0  0  0  0  0  0  0  0  0
   67.6852   38.8990    0.1307 H   0  0  0  0  0  0  0  0  0  0  0  0
   69.2874   37.2590    1.1212 H   0  0  0  0  0  0  0  0  0  0  0  0
   72.1050   36.4290    0.1990 H   0  0  0  0  0  0  0  0  0  0  0  0
   75.2510   39.9990   -1.8540 H   0  0  0  0  0  0  0  0  0  0  0  0
   73.0870   43.6065   -1.8996 H   0  0  0  0  0  0  0  0  0  0  0  0
   73.6849   45.7932   -2.1717 H   0  0  0  0  0  0  0  0  0  0  0  0
   74.7255   46.0804   -3.6074 H   0  0  0  0  0  0  0  0  0  0  0  0
   73.0197   46.6434   -3.6074 H   0  0  0  0  0  0  0  0  0  0  0  0
  1  2  1  0
  2  3  2  0
  3  4  1  0
  4  5  2  0
  5  6  1  0
  6  7  1  0
  7  8  1  0
  8  9  2  0
  9 10  1  0
 10 11  2  0
 11 12  1  0
 12 13  1  0
 12 14  2  0
 14 15  1  0
 15 16  2  0
 15 17  1  0
 17 18  1  0
  5 19  1  0
 19 20  2  0
 20 21  1  0
 20  2  1  0
 17  6  2  0
 14  8  1  0
  1 22  1  0
  1 23  1  0
  1 24  1  0
  3 25  1  0
  4 26  1  0
  9 27  1  0
 10 28  1  0
 11 29  1  0
 13 30  1  0
 18 31  1  0
 19 32  1  0
 21 33  1  0
 21 34  1  0
 21 35  1  0
M  END
>  <meeko>  (5) 
{"is_sidechain": [false], "free_energy": -7.806, "intermolecular_energy": -8.575, "internal_energy": -0.317}

$$$$
cand_036_out
     RDKit          3D

 35 37  0  0  0  0  0  0  0  0999 V2000
   71.6970   36.7090    0.4850 C   0  0  0  0  0  0  0  0  0  0  0  0
   71.6810   37.9350   -0.3860 C   0  0  0  0  0  0  0  0  0  0  0  0
   72.6540   38.0830   -1.3840 C   0  0  0  0  0  0  0  0  0  0  0  0
   72.6690   39.2080   -2.2100 C   0  0  0  0  0  0  0  0  0  0  0  0
   71.7160   40.2200   -2.0580 C   0  0  0  0  0  0  0  0  0  0  0  0
   71.6940   41.4090   -2.9370 C   0  0  0  0  0  0  0  0  0  0  0  0
   72.8000   42.2310   -2.7600 O   0  0  0  0  0  0  0  0  0  0  0  0
   72.9070   43.3720   -3.5150 C   0  0  0  0  0  0  0  0  0  0  0  0
   74.0250   44.1760   -3.2940 C   0  0  0  0  0  0  0  0  0  0  0  0
   74.1960   45.3510   -4.0300 C   0  0  0  0  0  0  0  0  0  0  0  0
   73.2480   45.7200   -4.9870 C   0  0  0  0  0  0  0  0  0  0  0  0
   72.1330   44.9150   -5.2060 C   0  0  0  0  0  0  0  0  0  0  0  0
   71.2440   45.3360   -6.1580 O   0  0  0  0  0  0  0  0  0  0  0  0
   71.9620   43.7410   -4.4680 C   0  0  0  0  0  0  0  0  0  0  0  0
   70.8050   42.8670   -4.6660 C   0  0  0  0  0  0  0  0  0  0  0  0
   69.9320   43.1210   -5.4940 O   0  0  0  0  0  0  0  0  0  0  0  0
   70.7140   41.6490   -3.8280 C   0  0  0  0  0  0  0  0  0  0  0  0
   69.6240   40.8250   -4.0330 O   0  0  0  0  0  0  0  0  0  0  0  0
   70.7360   40.0660   -1.0650 C   0  0  0  0  0  0  0  0  0  0  0  0
   70.7060   38.9380   -0.2260 C   0  0  0  0  0  0  0  0  0  0  0  0
   69.6360   38.8320    0.8270 C   0  0  0  0  0  0  0  0  0  0  0  0
   71.6931   37.0107    1.5428 H   0  0  0  0  0  0  0  0  0  0  0  0
   70.8067   36.0981    0.2746 H   0  0  0  0  0  0  0  0  0  0  0  0
   72.6029   36.1215    0.2746 H   0  0  0  0  0  0  0  0  0  0  0  0
   73.4165   37.3016   -1.5181 H   0  0  0  0  0  0  0  0  0  0  0  0
   73.4395   39.2996   -2.9897 H   0  0  0  0  0  0  0  0  0  0  0  0
   74.7718   43.8850   -2.5405 H   0  0  0  0  0  0  0  0  0  0  0  0
   75.0774   45.9857   -3.8558 H   0  0  0  0  0  0  0  0  0  0  0  0
   73.3819   46.6451   -5.5669 H   0  0  0  0  0  0  0  0  0  0  0  0
   71.3590   45.0800   -7.0520 H   0  0  0  0  0  0  0  0  0  0  0  0
   68.9830   41.0480   -4.6800 H   0  0  0  0  0  0  0  0  0  0  0  0
   69.9721   40.8475   -0.9400 H   0  0  0  0  0  0  0  0  0  0  0  0
   70.0974   38.8777    1.8245 H   0  0  0  0  0  0  0  0  0  0  0  0
   68.9257   39.6642    0.7131 H   0  0  0  0  0  0  0  0  0  0  0  0
   69.1028   37.8766    0.7131 H   0  0  0  0  0  0  0  0  0  0  0  0
  1  2  1  0
  2  3  2  0
  3  4  1  0
  4  5  2  0
  5  6  1  0
  6  7  1  0
  7  8  1  0
  8  9  2  0
  9 10  1  0
 10 11  2  0
 11 12  1  0
 12 13  1  0
 12 14  2  0
 14 15  1  0
 15 16  2  0
 15 17  1  0
 17 18  1  0
  5 19  1  0
 19 20  2  0
 20 21  1  0
 20  2  1  0
 17  6  2  0
 14  8  1  0
  1 22  1  0
  1 23  1  0
  1 24  1  0
  3 25  1  0
  4 26  1  0
  9 27  1  0
 10 28  1  0
 11 29  1  0
 13 30  1  0
 18 31  1  0
 19 32  1  0
 21 33  1  0
 21 34  1  0
 21 35  1  0
M  END
>  <meeko>  (6) 
{"is_sidechain": [false], "free_energy": -7.79, "intermolecular_energy": -8.668, "internal_energy": -0.207}

$$$$
cand_036_out
     RDKit          3D

 35 37  0  0  0  0  0  0  0  0999 V2000
   74.8220   44.0030   -5.8600 C   0  0  0  0  0  0  0  0  0  0  0  0
   74.0250   43.1390   -4.9220 C   0  0  0  0  0  0  0  0  0  0  0  0
   73.0430   42.2850   -5.4420 C   0  0  0  0  0  0  0  0  0  0  0  0
   72.2830   41.4690   -4.6000 C   0  0  0  0  0  0  0  0  0  0  0  0
   72.4800   41.4900   -3.2160 C   0  0  0  0  0  0  0  0  0  0  0  0
   71.7080   40.6160   -2.3060 C   0  0  0  0  0  0  0  0  0  0  0  0
   72.4680   39.5760   -1.7850 O   0  0  0  0  0  0  0  0  0  0  0  0
   71.8750   38.6870   -0.9240 C   0  0  0  0  0  0  0  0  0  0  0  0
   72.6700   37.6490   -0.4360 C   0  0  0  0  0  0  0  0  0  0  0  0
   72.1280   36.7120    0.4460 C   0  0  0  0  0  0  0  0  0  0  0  0
   70.7920   36.8130    0.8410 C   0  0  0  0  0  0  0  0  0  0  0  0
   70.0010   37.8500    0.3530 C   0  0  0  0  0  0  0  0  0  0  0  0
   68.7020   37.8900    0.7800 O   0  0  0  0  0  0  0  0  0  0  0  0
   70.5430   38.7870   -0.5310 C   0  0  0  0  0  0  0  0  0  0  0  0
   69.7470   39.8920   -1.0670 C   0  0  0  0  0  0  0  0  0  0  0  0
   68.5670   40.0510   -0.7620 O   0  0  0  0  0  0  0  0  0  0  0  0
   70.4140   40.8270   -2.0030 C   0  0  0  0  0  0  0  0  0  0  0  0
   69.6560   41.8730   -2.4920 O   0  0  0  0  0  0  0  0  0  0  0  0
   73.4710   42.3390   -2.6980 C   0  0  0  0  0  0  0  0  0  0  0  0
   74.2450   43.1650   -3.5320 C   0  0  0  0  0  0  0  0  0  0  0  0
   75.2860   44.0610   -2.9190 C   0  0  0  0  0  0  0  0  0  0  0  0
   75.4549   44.6891   -5.2781 H   0  0  0  0  0  0  0  0  0  0  0  0
   75.4572   43.3670   -6.4940 H   0  0  0  0  0  0  0  0  0  0  0  0
   74.1369   44.5849   -6.4940 H   0  0  0  0  0  0  0  0  0  0  0  0
   72.8682   42.2567   -6.5276 H   0  0  0  0  0  0  0  0  0  0  0  0
   71.5212   40.8027   -5.0309 H   0  0  0  0  0  0  0  0  0  0  0  0
   73.7224   37.5691   -0.7458 H   0  0  0  0  0  0  0  0  0  0  0  0
   72.7540   35.8932    0.8303 H   0  0  0  0  0  0  0  0  0  0  0  0
   70.3656   36.0748    1.5362 H   0  0  0  0  0  0  0  0  0  0  0  0
   68.5100   37.8870    1.6970 H   0  0  0  0  0  0  0  0  0  0  0  0
   68.7670   41.9780   -2.2150 H   0  0  0  0  0  0  0  0  0  0  0  0
   73.6463   42.3584   -1.6122 H   0  0  0  0  0  0  0  0  0  0  0  0
   75.2194   44.0037   -1.8225 H   0  0  0  0  0  0  0  0  0  0  0  0
   76.2859   43.7366   -3.2431 H   0  0  0  0  0  0  0  0  0  0  0  0
   75.1141   45.0980   -3.2431 H   0  0  0  0  0  0  0  0  0  0  0  0
  1  2  1  0
  2  3  2  0
  3  4  1  0
  4  5  2  0
  5  6  1  0
  6  7  1  0
  7  8  1  0
  8  9  2  0
  9 10  1  0
 10 11  2  0
 11 12  1  0
 12 13  1  0
 12 14  2  0
 14 15  1  0
 15 16  2  0
 15 17  1  0
 17 18  1  0
  5 19  1  0
 19 20  2  0
 20 21  1  0
 20  2  1  0
 17  6  2  0
 14  8  1  0
  1 22  1  0
  1 23  1  0
  1 24  1  0
  3 25  1  0
  4 26  1  0
  9 27  1  0
 10 28  1  0
 11 29  1  0
 13 30  1  0
 18 31  1  0
 19 32  1  0
 21 33  1  0
 21 34  1  0
 21 35  1  0
M  END
>  <meeko>  (7) 
{"is_sidechain": [false], "free_energy": -7.698, "intermolecular_energy": -8.491, "internal_energy": -0.281}

$$$$
cand_036_out
     RDKit          3D

 35 37  0  0  0  0  0  0  0  0999 V2000
   75.5140   44.1990   -5.3390 C   0  0  0  0  0  0  0  0  0  0  0  0
   74.6270   43.2900   -4.5340 C   0  0  0  0  0  0  0  0  0  0  0  0
   74.7410   43.2770   -3.1380 C   0  0  0  0  0  0  0  0  0  0  0  0
   73.9330   42.4450   -2.3590 C   0  0  0  0  0  0  0  0  0  0  0  0
   72.9950   41.5970   -2.9550 C   0  0  0  0  0  0  0  0  0  0  0  0
   72.1100   40.7270   -2.1520 C   0  0  0  0  0  0  0  0  0  0  0  0
   72.7830   39.6530   -1.5820 O   0  0  0  0  0  0  0  0  0  0  0  0
   72.0800   38.7640   -0.8090 C   0  0  0  0  0  0  0  0  0  0  0  0
   72.7920   37.6920   -0.2690 C   0  0  0  0  0  0  0  0  0  0  0  0
   72.1370   36.7510    0.5290 C   0  0  0  0  0  0  0  0  0  0  0  0
   70.7710   36.8830    0.7870 C   0  0  0  0  0  0  0  0  0  0  0  0
   70.0630   37.9540    0.2460 C   0  0  0  0  0  0  0  0  0  0  0  0
   68.7280   38.0220    0.5390 O   0  0  0  0  0  0  0  0  0  0  0  0
   70.7190   38.8940   -0.5530 C   0  0  0  0  0  0  0  0  0  0  0  0
   70.0120   40.0330   -1.1400 C   0  0  0  0  0  0  0  0  0  0  0  0
   68.8110   40.2200   -0.9540 O   0  0  0  0  0  0  0  0  0  0  0  0
   70.7980   40.9680   -1.9780 C   0  0  0  0  0  0  0  0  0  0  0  0
   70.1230   42.0480   -2.5170 O   0  0  0  0  0  0  0  0  0  0  0  0
   72.8750   41.6180   -4.3540 C   0  0  0  0  0  0  0  0  0  0  0  0
   73.6790   42.4510   -5.1520 C   0  0  0  0  0  0  0  0  0  0  0  0
   73.5110   42.4240   -6.6460 C   0  0  0  0  0  0  0  0  0  0  0  0
   76.1180   44.8180   -4.6593 H   0  0  0  0  0  0  0  0  0  0  0  0
   76.1792   43.5947   -5.9733 H   0  0  0  0  0  0  0  0  0  0  0  0
   74.8936   44.8492   -5.9733 H   0  0  0  0  0  0  0  0  0  0  0  0
   75.4772   43.9312   -2.6480 H   0  0  0  0  0  0  0  0  0  0  0  0
   74.0361   42.4574   -1.2639 H   0  0  0  0  0  0  0  0  0  0  0  0
   73.8682   37.5881   -0.4716 H   0  0  0  0  0  0  0  0  0  0  0  0
   72.6976   35.9055    0.9544 H   0  0  0  0  0  0  0  0  0  0  0  0
   70.2550   36.1428    1.4162 H   0  0  0  0  0  0  0  0  0  0  0  0
   68.4370   38.4980    1.2910 H   0  0  0  0  0  0  0  0  0  0  0  0
   69.6310   41.9460   -3.3080 H   0  0  0  0  0  0  0  0  0  0  0  0
   72.1329   40.9660   -4.8380 H   0  0  0  0  0  0  0  0  0  0  0  0
   72.4527   42.2539   -6.8929 H   0  0  0  0  0  0  0  0  0  0  0  0
   73.8362   43.3859   -7.0690 H   0  0  0  0  0  0  0  0  0  0  0  0
   74.1212   41.6124   -7.0690 H   0  0  0  0  0  0  0  0  0  0  0  0
  1  2  1  0
  2  3  2  0
  3  4  1  0
  4  5  2  0
  5  6  1  0
  6  7  1  0
  7  8  1  0
  8  9  2  0
  9 10  1  0
 10 11  2  0
 11 12  1  0
 12 13  1  0
 12 14  2  0
 14 15  1  0
 15 16  2  0
 15 17  1  0
 17 18  1  0
  5 19  1  0
 19 20  2  0
 20 21  1  0
 20  2  1  0
 17  6  2  0
 14  8  1  0
  1 22  1  0
  1 23  1  0
  1 24  1  0
  3 25  1  0
  4 26  1  0
  9 27  1  0
 10 28  1  0
 11 29  1  0
 13 30  1  0
 18 31  1  0
 19 32  1  0
 21 33  1  0
 21 34  1  0
 21 35  1  0
M  END
>  <meeko>  (8) 
{"is_sidechain": [false], "free_energy": -7.673, "intermolecular_energy": -8.488, "internal_energy": -0.256}

$$$$
cand_036_out
     RDKit          3D

 35 37  0  0  0  0  0  0  0  0999 V2000
   71.8700   46.0490   -5.5100 C   0  0  0  0  0  0  0  0  0  0  0  0
   71.8570   44.7900   -4.6870 C   0  0  0  0  0  0  0  0  0  0  0  0
   72.7880   44.6370   -3.6510 C   0  0  0  0  0  0  0  0  0  0  0  0
   72.8050   43.4810   -2.8670 C   0  0  0  0  0  0  0  0  0  0  0  0
   71.8970   42.4440   -3.1020 C   0  0  0  0  0  0  0  0  0  0  0  0
   71.8760   41.2220   -2.2700 C   0  0  0  0  0  0  0  0  0  0  0  0
   70.6250   40.9610   -1.7260 O   0  0  0  0  0  0  0  0  0  0  0  0
   70.4640   39.8550   -0.9310 C   0  0  0  0  0  0  0  0  0  0  0  0
   69.1940   39.6390   -0.3930 C   0  0  0  0  0  0  0  0  0  0  0  0
   68.9630   38.5300    0.4240 C   0  0  0  0  0  0  0  0  0  0  0  0
   69.9990   37.6370    0.7020 C   0  0  0  0  0  0  0  0  0  0  0  0
   71.2650   37.8540    0.1640 C   0  0  0  0  0  0  0  0  0  0  0  0
   72.2350   36.9410    0.4760 O   0  0  0  0  0  0  0  0  0  0  0  0
   71.4970   38.9650   -0.6530 C   0  0  0  0  0  0  0  0  0  0  0  0
   72.8120   39.2300   -1.2380 C   0  0  0  0  0  0  0  0  0  0  0  0
   73.7720   38.4870   -1.0450 O   0  0  0  0  0  0  0  0  0  0  0  0
   72.9550   40.4390   -2.0820 C   0  0  0  0  0  0  0  0  0  0  0  0
   74.1970   40.6720   -2.6410 O   0  0  0  0  0  0  0  0  0  0  0  0
   70.9580   42.6030   -4.1350 C   0  0  0  0  0  0  0  0  0  0  0  0
   70.9270   43.7610   -4.9310 C   0  0  0  0  0  0  0  0  0  0  0  0
   69.9050   43.8720   -6.0290 C   0  0  0  0  0  0  0  0  0  0  0  0
   71.8790   46.9233   -4.8425 H   0  0  0  0  0  0  0  0  0  0  0  0
   72.7683   46.0629   -6.1447 H   0  0  0  0  0  0  0  0  0  0  0  0
   70.9721   46.0815   -6.1447 H   0  0  0  0  0  0  0  0  0  0  0  0
   73.5153   45.4380   -3.4524 H   0  0  0  0  0  0  0  0  0  0  0  0
   73.5413   43.3854   -2.0553 H   0  0  0  0  0  0  0  0  0  0  0  0
   68.3763   40.3413   -0.6123 H   0  0  0  0  0  0  0  0  0  0  0  0
   67.9628   38.3601    0.8491 H   0  0  0  0  0  0  0  0  0  0  0  0
   69.8158   36.7634    1.3449 H   0  0  0  0  0  0  0  0  0  0  0  0
   72.6190   36.4170   -0.1980 H   0  0  0  0  0  0  0  0  0  0  0  0
   74.6620   41.4610   -2.4370 H   0  0  0  0  0  0  0  0  0  0  0  0
   70.2291   41.8014   -4.3255 H   0  0  0  0  0  0  0  0  0  0  0  0
   68.9032   43.9808   -5.5878 H   0  0  0  0  0  0  0  0  0  0  0  0
   70.1292   44.7511   -6.6511 H   0  0  0  0  0  0  0  0  0  0  0  0
   69.9352   42.9653   -6.6511 H   0  0  0  0  0  0  0  0  0  0  0  0
  1  2  1  0
  2  3  2  0
  3  4  1  0
  4  5  2  0
  5  6  1  0
  6  7  1  0
  7  8  1  0
  8  9  2  0
  9 10  1  0
 10 11  2  0
 11 12  1  0
 12 13  1  0
 12 14  2  0
 14 15  1  0
 15 16  2  0
 15 17  1  0
 17 18  1  0
  5 19  1  0
 19 20  2  0
 20 21  1  0
 20  2  1  0
 17  6  2  0
 14  8  1  0
  1 22  1  0
  1 23  1  0
  1 24  1  0
  3 25  1  0
  4 26  1  0
  9 27  1  0
 10 28  1  0
 11 29  1  0
 13 30  1  0
 18 31  1  0
 19 32  1  0
 21 33  1  0
 21 34  1  0
 21 35  1  0
M  END
>  <meeko>  (9) 
{"is_sidechain": [false], "free_energy": -7.618, "intermolecular_energy": -8.548, "internal_energy": -0.134}

$$$$
