cand_020_out
     RDKit          3D

 50 53  0  0  0  0  0  0  0  0999 V2000
   68.2260   44.3370   -7.0300 C   0  0  0  0  0  0  0  0  0  0  0  0
   69.4370   44.5730   -6.1390 C   0  0  0  0  0  0  0  0  0  0  0  0
   69.5910   43.4930   -5.0910 C   0  0  0  0  0  0  0  0  0  0  0  0
   68.4590   43.0820   -4.3710 C   0  0  0  0  0  0  0  0  0  0  0  0
   68.5570   42.1030   -3.3810 C   0  0  0  0  0  0  0  0  0  0  0  0
   69.7900   41.5150   -3.0810 C   0  0  0  0  0  0  0  0  0  0  0  0
   69.8700   40.4570   -2.0500 C   0  0  0  0  0  0  0  0  0  0  0  0
   71.1330   39.8830   -1.9640 O   0  0  0  0  0  0  0  0  0  0  0  0
   71.3470   38.8860   -1.0470 C   0  0  0  0  0  0  0  0  0  0  0  0
   72.6330   38.3480   -0.9840 C   0  0  0  0  0  0  0  0  0  0  0  0
   72.9180   37.3290   -0.0730 C   0  0  0  0  0  0  0  0  0  0  0  0
   71.9190   36.8480    0.7750 C   0  0  0  0  0  0  0  0  0  0  0  0
   70.6360   37.3870    0.7110 C   0  0  0  0  0  0  0  0  0  0  0  0
   69.7050   36.8690    1.5680 O   0  0  0  0  0  0  0  0  0  0  0  0
   70.3510   38.4070   -0.2010 C   0  0  0  0  0  0  0  0  0  0  0  0
   69.0170   39.0010   -0.3010 C   0  0  0  0  0  0  0  0  0  0  0  0
   68.0840   38.6260    0.4060 O   0  0  0  0  0  0  0  0  0  0  0  0
   68.8210   40.0820   -1.2940 C   0  0  0  0  0  0  0  0  0  0  0  0
   67.5540   40.6260   -1.3880 O   0  0  0  0  0  0  0  0  0  0  0  0
   70.9200   41.9250   -3.8040 C   0  0  0  0  0  0  0  0  0  0  0  0
   70.8440   42.9180   -4.8000 C   0  0  0  0  0  0  0  0  0  0  0  0
   71.9850   43.3390   -5.5220 N   0  0  0  0  0  0  0  0  0  0  0  0
   72.7200   44.4280   -4.8600 C   0  0  0  0  0  0  0  0  0  0  0  0
   73.7750   44.9710   -5.8240 C   0  0  0  0  0  0  0  0  0  0  0  0
   74.7030   43.8560   -6.3080 C   0  0  0  0  0  0  0  0  0  0  0  0
   73.9020   42.6940   -6.8920 C   0  0  0  0  0  0  0  0  0  0  0  0
   72.8360   42.2030   -5.9110 C   0  0  0  0  0  0  0  0  0  0  0  0
   67.3383   44.1640   -6.4039 H   0  0  0  0  0  0  0  0  0  0  0  0
   68.0604   45.2198   -7.6651 H   0  0  0  0  0  0  0  0  0  0  0  0
   68.4040   43.4567   -7.6651 H   0  0  0  0  0  0  0  0  0  0  0  0
   70.3407   44.5905   -6.7659 H   0  0  0  0  0  0  0  0  0  0  0  0
   69.2936   45.5317   -5.6191 H   0  0  0  0  0  0  0  0  0  0  0  0
   67.4817   43.5372   -4.5896 H   0  0  0  0  0  0  0  0  0  0  0  0
   67.6564   41.7911   -2.8318 H   0  0  0  0  0  0  0  0  0  0  0  0
   73.4214   38.7263   -1.6513 H   0  0  0  0  0  0  0  0  0  0  0  0
   73.9316   36.9045   -0.0235 H   0  0  0  0  0  0  0  0  0  0  0  0
   72.1443   36.0450    1.4923 H   0  0  0  0  0  0  0  0  0  0  0  0
   69.9340   36.6970    2.4610 H   0  0  0  0  0  0  0  0  0  0  0  0
   67.1530   40.7380   -2.2270 H   0  0  0  0  0  0  0  0  0  0  0  0
   71.8921   41.4582   -3.5871 H   0  0  0  0  0  0  0  0  0  0  0  0
   72.0211   45.2322   -4.5863 H   0  0  0  0  0  0  0  0  0  0  0  0
   73.2070   44.0492   -3.9494 H   0  0  0  0  0  0  0  0  0  0  0  0
   73.2710   45.4213   -6.6919 H   0  0  0  0  0  0  0  0  0  0  0  0
   74.3784   45.7232   -5.2947 H   0  0  0  0  0  0  0  0  0  0  0  0
   75.3733   44.2565   -7.0828 H   0  0  0  0  0  0  0  0  0  0  0  0
   75.2841   43.4859   -5.4505 H   0  0  0  0  0  0  0  0  0  0  0  0
   73.4102   43.0276   -7.8176 H   0  0  0  0  0  0  0  0  0  0  0  0
   74.5942   41.8637   -7.0956 H   0  0  0  0  0  0  0  0  0  0  0  0
   72.2205   41.4285   -6.3920 H   0  0  0  0  0  0  0  0  0  0  0  0
   73.3189   41.7771   -5.0191 H   0  0  0  0  0  0  0  0  0  0  0  0
  1  2  1  0
  2  3  1  0
  3  4  2  0
  4  5  1  0
  5  6  2  0
  6  7  1  0
  7  8  1  0
  8  9  1  0
  9 10  2  0
 10 11  1  0
 11 12  2  0
 12 13  1  0
 13 14  1  0
 13 15  2  0
 15 16  1  0
 16 17  2  0
 16 18  1  0
 18 19  1  0
  6 20  1  0
 20 21  2  0
 21 22  1  0
 22 23  1  0
 23 24  1  0
 24 25  1  0
 25 26  1  0
 26 27  1  0
 21  3  1  0
 27 22  1  0
 18  7  2  0
 15  9  1  0
  1 28  1  0
  1 29  1  0
  1 30  1  0
  2 31  1  0
  2 32  1  0
  4 33  1  0
  5 34  1  0
 10 35  1  0
 11 36  1  0
 12 37  1  0
 14 38  1  0
 19 39  1  0
 20 40  1  0
 23 41  1  0
 23 42  1  0
 24 43  1  0
 24 44  1  0
 25 45  1  0
 25 46  1  0
 26 47  1  0
 26 48  1  0
 27 49  1  0
 27 50  1  0
M  END
>  <meeko>  (1) 
{"is_sidechain": [false], "free_energy": -8.383, "intermolecular_energy": -10.343, "internal_energy": -0.148}

$$$$
cand_020_out
     RDKit          3D

 50 53  0  0  0  0  0  0  0  0999 V2000
   74.8080   43.9850   -7.8270 C   0  0  0  0  0  0  0  0  0  0  0  0
   74.0040   44.6890   -6.7450 C   0  0  0  0  0  0  0  0  0  0  0  0
   73.5820   43.7420   -5.6430 C   0  0  0  0  0  0  0  0  0  0  0  0
   73.0030   42.5110   -5.9930 C   0  0  0  0  0  0  0  0  0  0  0  0
   72.5810   41.6140   -5.0110 C   0  0  0  0  0  0  0  0  0  0  0  0
   72.7200   41.9270   -3.6540 C   0  0  0  0  0  0  0  0  0  0  0  0
   72.2940   40.9510   -2.6270 C   0  0  0  0  0  0  0  0  0  0  0  0
   70.9200   40.9590   -2.4130 O   0  0  0  0  0  0  0  0  0  0  0  0
   70.3890   40.1010   -1.4850 C   0  0  0  0  0  0  0  0  0  0  0  0
   69.0050   40.1320   -1.3130 C   0  0  0  0  0  0  0  0  0  0  0  0
   68.3990   39.2850   -0.3820 C   0  0  0  0  0  0  0  0  0  0  0  0
   69.1770   38.4080    0.3770 C   0  0  0  0  0  0  0  0  0  0  0  0
   70.5580   38.3790    0.2030 C   0  0  0  0  0  0  0  0  0  0  0  0
   71.2600   37.4980    0.9790 O   0  0  0  0  0  0  0  0  0  0  0  0
   71.1640   39.2260   -0.7290 C   0  0  0  0  0  0  0  0  0  0  0  0
   72.6120   39.2290   -0.9420 C   0  0  0  0  0  0  0  0  0  0  0  0
   73.3640   38.4900   -0.3090 O   0  0  0  0  0  0  0  0  0  0  0  0
   73.1530   40.1590   -1.9600 C   0  0  0  0  0  0  0  0  0  0  0  0
   74.5240   40.1600   -2.1430 O   0  0  0  0  0  0  0  0  0  0  0  0
   73.3010   43.1560   -3.3070 C   0  0  0  0  0  0  0  0  0  0  0  0
   73.7240   44.0780   -4.2830 C   0  0  0  0  0  0  0  0  0  0  0  0
   74.3010   45.3210   -3.9330 N   0  0  0  0  0  0  0  0  0  0  0  0
   73.3710   46.2120   -3.2210 C   0  0  0  0  0  0  0  0  0  0  0  0
   74.0020   47.6000   -3.1090 C   0  0  0  0  0  0  0  0  0  0  0  0
   75.3690   47.5290   -2.4310 C   0  0  0  0  0  0  0  0  0  0  0  0
   76.2750   46.5160   -3.1300 C   0  0  0  0  0  0  0  0  0  0  0  0
   75.5940   45.1520   -3.2510 C   0  0  0  0  0  0  0  0  0  0  0  0
   75.5570   43.3292   -7.3591 H   0  0  0  0  0  0  0  0  0  0  0  0
   74.1326   43.3826   -8.4523 H   0  0  0  0  0  0  0  0  0  0  0  0
   75.3160   44.7340   -8.4523 H   0  0  0  0  0  0  0  0  0  0  0  0
   74.6204   45.4888   -6.3087 H   0  0  0  0  0  0  0  0  0  0  0  0
   73.0936   45.0955   -7.2096 H   0  0  0  0  0  0  0  0  0  0  0  0
   72.8807   42.2508   -7.0548 H   0  0  0  0  0  0  0  0  0  0  0  0
   72.1352   40.6526   -5.3060 H   0  0  0  0  0  0  0  0  0  0  0  0
   68.3914   40.8228   -1.9099 H   0  0  0  0  0  0  0  0  0  0  0  0
   67.3076   39.3088   -0.2465 H   0  0  0  0  0  0  0  0  0  0  0  0
   68.6997   37.7417    1.1106 H   0  0  0  0  0  0  0  0  0  0  0  0
   72.1860   37.4060    0.8640 H   0  0  0  0  0  0  0  0  0  0  0  0
   74.9050   39.6490   -2.8300 H   0  0  0  0  0  0  0  0  0  0  0  0
   73.4295   43.4059   -2.2435 H   0  0  0  0  0  0  0  0  0  0  0  0
   72.4253   46.2803   -3.7787 H   0  0  0  0  0  0  0  0  0  0  0  0
   73.1684   45.8128   -2.2162 H   0  0  0  0  0  0  0  0  0  0  0  0
   74.1226   48.0224   -4.1175 H   0  0  0  0  0  0  0  0  0  0  0  0
   73.3424   48.2358   -2.5002 H   0  0  0  0  0  0  0  0  0  0  0  0
   75.8418   48.5214   -2.4699 H   0  0  0  0  0  0  0  0  0  0  0  0
   75.2267   47.2106   -1.3878 H   0  0  0  0  0  0  0  0  0  0  0  0
   76.5166   46.8865   -4.1372 H   0  0  0  0  0  0  0  0  0  0  0  0
   77.1890   46.3957   -2.5299 H   0  0  0  0  0  0  0  0  0  0  0  0
   76.2322   44.4715   -3.8338 H   0  0  0  0  0  0  0  0  0  0  0  0
   75.4331   44.7267   -2.2494 H   0  0  0  0  0  0  0  0  0  0  0  0
  1  2  1  0
  2  3  1  0
  3  4  2  0
  4  5  1  0
  5  6  2  0
  6  7  1  0
  7  8  1  0
  8  9  1  0
  9 10  2  0
 10 11  1  0
 11 12  2  0
 12 13  1  0
 13 14  1  0
 13 15  2  0
 15 16  1  0
 16 17  2  0
 16 18  1  0
 18 19  1  0
  6 20  1  0
 20 21  2  0
 21 22  1  0
 22 23  1  0
 23 24  1  0
 24 25  1  0
 25 26  1  0
 26 27  1  0
 21  3  1  0
 27 22  1  0
 18  7  2  0
 15  9  1  0
  1 28  1  0
  1 29  1  0
  1 30  1  0
  2 31  1  0
  2 32  1  0
  4 33  1  0
  5 34  1  0
 10 35  1  0
 11 36  1  0
 12 37  1  0
 14 38  1  0
 19 39  1  0
 20 40  1  0
 23 41  1  0
 23 42  1  0
 24 43  1  0
 24 44  1  0
 25 45  1  0
 25 46  1  0
 26 47  1  0
 26 48  1  0
 27 49  1  0
 27 50  1  0
M  END
>  <meeko>  (2) 
{"is_sidechain": [false], "free_energy": -8.319, "intermolecular_energy": -9.511, "internal_energy": -0.902}

$$$$
cand_020_out
     RDKit          3D

 50 53  0  0  0  0  0  0  0  0999 V2000
   74.5110   43.1680   -7.7480 C   0  0  0  0  0  0  0  0  0  0  0  0
   74.0410   43.9710   -6.5450 C   0  0  0  0  0  0  0  0  0  0  0  0
   73.4210   43.0920   -5.4820 C   0  0  0  0  0  0  0  0  0  0  0  0
   72.1220   42.5990   -5.6830 C   0  0  0  0  0  0  0  0  0  0  0  0
   71.5030   41.8000   -4.7210 C   0  0  0  0  0  0  0  0  0  0  0  0
   72.1630   41.4800   -3.5290 C   0  0  0  0  0  0  0  0  0  0  0  0
   71.5020   40.6070   -2.5350 C   0  0  0  0  0  0  0  0  0  0  0  0
   72.3350   39.5960   -2.0670 O   0  0  0  0  0  0  0  0  0  0  0  0
   71.8480   38.7130   -1.1390 C   0  0  0  0  0  0  0  0  0  0  0  0
   72.7220   37.7240   -0.6860 C   0  0  0  0  0  0  0  0  0  0  0  0
   72.2890   36.7910    0.2590 C   0  0  0  0  0  0  0  0  0  0  0  0
   70.9840   36.8460    0.7510 C   0  0  0  0  0  0  0  0  0  0  0  0
   70.1140   37.8350    0.2980 C   0  0  0  0  0  0  0  0  0  0  0  0
   68.8500   37.8320    0.8210 O   0  0  0  0  0  0  0  0  0  0  0  0
   70.5470   38.7690   -0.6470 C   0  0  0  0  0  0  0  0  0  0  0  0
   69.6650   39.8230   -1.1500 C   0  0  0  0  0  0  0  0  0  0  0  0
   68.5010   39.9330   -0.7690 O   0  0  0  0  0  0  0  0  0  0  0  0
   70.2240   40.7680   -2.1440 C   0  0  0  0  0  0  0  0  0  0  0  0
   69.3770   41.7510   -2.6200 O   0  0  0  0  0  0  0  0  0  0  0  0
   73.4620   41.9710   -3.3310 C   0  0  0  0  0  0  0  0  0  0  0  0
   74.1000   42.7860   -4.2850 C   0  0  0  0  0  0  0  0  0  0  0  0
   75.4060   43.2900   -4.0810 N   0  0  0  0  0  0  0  0  0  0  0  0
   75.6290   43.7850   -2.7140 C   0  0  0  0  0  0  0  0  0  0  0  0
   76.9660   44.5230   -2.6660 C   0  0  0  0  0  0  0  0  0  0  0  0
   78.1060   43.6280   -3.1510 C   0  0  0  0  0  0  0  0  0  0  0  0
   77.7950   43.0440   -4.5280 C   0  0  0  0  0  0  0  0  0  0  0  0
   76.4350   42.3440   -4.5420 C   0  0  0  0  0  0  0  0  0  0  0  0
   75.0387   42.2664   -7.4035 H   0  0  0  0  0  0  0  0  0  0  0  0
   73.6420   42.8747   -8.3553 H   0  0  0  0  0  0  0  0  0  0  0  0
   75.1923   43.7821   -8.3553 H   0  0  0  0  0  0  0  0  0  0  0  0
   74.9037   44.4977   -6.1110 H   0  0  0  0  0  0  0  0  0  0  0  0
   73.2731   44.6794   -6.8893 H   0  0  0  0  0  0  0  0  0  0  0  0
   71.5852   42.8458   -6.6109 H   0  0  0  0  0  0  0  0  0  0  0  0
   70.4872   41.4182   -4.9011 H   0  0  0  0  0  0  0  0  0  0  0  0
   73.7508   37.6792   -1.0727 H   0  0  0  0  0  0  0  0  0  0  0  0
   72.9779   36.0113    0.6162 H   0  0  0  0  0  0  0  0  0  0  0  0
   70.6435   36.1103    1.4945 H   0  0  0  0  0  0  0  0  0  0  0  0
   68.4440   37.0220    1.0630 H   0  0  0  0  0  0  0  0  0  0  0  0
   69.6320   42.6520   -2.5730 H   0  0  0  0  0  0  0  0  0  0  0  0
   73.9966   41.7121   -2.4051 H   0  0  0  0  0  0  0  0  0  0  0  0
   74.8175   44.4726   -2.4335 H   0  0  0  0  0  0  0  0  0  0  0  0
   75.6446   42.9400   -2.0099 H   0  0  0  0  0  0  0  0  0  0  0  0
   76.9087   45.4127   -3.3104 H   0  0  0  0  0  0  0  0  0  0  0  0
   77.1681   44.8126   -1.6242 H   0  0  0  0  0  0  0  0  0  0  0  0
   79.0292   44.2229   -3.2126 H   0  0  0  0  0  0  0  0  0  0  0  0
   78.2287   42.7992   -2.4382 H   0  0  0  0  0  0  0  0  0  0  0  0
   77.7867   43.8575   -5.2684 H   0  0  0  0  0  0  0  0  0  0  0  0
   78.5693   42.3020   -4.7728 H   0  0  0  0  0  0  0  0  0  0  0  0
   76.2007   42.0132   -5.5646 H   0  0  0  0  0  0  0  0  0  0  0  0
   76.4602   41.4682   -3.8769 H   0  0  0  0  0  0  0  0  0  0  0  0
  1  2  1  0
  2  3  1  0
  3  4  2  0
  4  5  1  0
  5  6  2  0
  6  7  1  0
  7  8  1  0
  8  9  1  0
  9 10  2  0
 10 11  1  0
 11 12  2  0
 12 13  1  0
 13 14  1  0
 13 15  2  0
 15 16  1  0
 16 17  2  0
 16 18  1  0
 18 19  1  0
  6 20  1  0
 20 21  2  0
 21 22  1  0
 22 23  1  0
 23 24  1  0
 24 25  1  0
 25 26  1  0
 26 27  1  0
 21  3  1  0
 27 22  1  0
 18  7  2  0
 15  9  1  0
  1 28  1  0
  1 29  1  0
  1 30  1  0
  2 31  1  0
  2 32  1  0
  4 33  1  0
  5 34  1  0
 10 35  1  0
 11 36  1  0
 12 37  1  0
 14 38  1  0
 19 39  1  0
 20 40  1  0
 23 41  1  0
 23 42  1  0
 24 43  1  0
 24 44  1  0
 25 45  1  0
 25 46  1  0
 26 47  1  0
 26 48  1  0
 27 49  1  0
 27 50  1  0
M  END
>  <meeko>  (3) 
{"is_sidechain": [false], "free_energy": -8.183, "intermolecular_energy": -9.672, "internal_energy": -0.572}

$$$$
cand_020_out
     RDKit          3D

 50 53  0  0  0  0  0  0  0  0999 V2000
   72.2410   47.6390   -4.0920 C   0  0  0  0  0  0  0  0  0  0  0  0
   72.4630   46.4480   -5.0120 C   0  0  0  0  0  0  0  0  0  0  0  0
   72.3040   45.1310   -4.2840 C   0  0  0  0  0  0  0  0  0  0  0  0
   73.3870   44.6320   -3.5440 C   0  0  0  0  0  0  0  0  0  0  0  0
   73.2930   43.4120   -2.8720 C   0  0  0  0  0  0  0  0  0  0  0  0
   72.1170   42.6560   -2.9290 C   0  0  0  0  0  0  0  0  0  0  0  0
   72.0260   41.3800   -2.1870 C   0  0  0  0  0  0  0  0  0  0  0  0
   70.7540   41.1430   -1.6780 O   0  0  0  0  0  0  0  0  0  0  0  0
   70.5290   39.9930   -0.9660 C   0  0  0  0  0  0  0  0  0  0  0  0
   69.2340   39.7890   -0.4870 C   0  0  0  0  0  0  0  0  0  0  0  0
   68.9370   38.6380    0.2480 C   0  0  0  0  0  0  0  0  0  0  0  0
   69.9330   37.6930    0.5030 C   0  0  0  0  0  0  0  0  0  0  0  0
   71.2240   37.9000    0.0230 C   0  0  0  0  0  0  0  0  0  0  0  0
   72.1510   36.9360    0.3090 O   0  0  0  0  0  0  0  0  0  0  0  0
   71.5210   39.0510   -0.7130 C   0  0  0  0  0  0  0  0  0  0  0  0
   72.8640   39.3070   -1.2350 C   0  0  0  0  0  0  0  0  0  0  0  0
   73.7940   38.5260   -1.0470 O   0  0  0  0  0  0  0  0  0  0  0  0
   73.0720   40.5530   -2.0090 C   0  0  0  0  0  0  0  0  0  0  0  0
   74.3480   40.7890   -2.4860 O   0  0  0  0  0  0  0  0  0  0  0  0
   71.0350   43.1580   -3.6680 C   0  0  0  0  0  0  0  0  0  0  0  0
   71.1130   44.3820   -4.3600 C   0  0  0  0  0  0  0  0  0  0  0  0
   70.0260   44.8830   -5.1130 N   0  0  0  0  0  0  0  0  0  0  0  0
   69.4630   43.8940   -6.0460 C   0  0  0  0  0  0  0  0  0  0  0  0
   68.4720   44.5980   -6.9740 C   0  0  0  0  0  0  0  0  0  0  0  0
   67.3890   45.3220   -6.1740 C   0  0  0  0  0  0  0  0  0  0  0  0
   68.0090   46.2610   -5.1410 C   0  0  0  0  0  0  0  0  0  0  0  0
   69.0180   45.5270   -4.2560 C   0  0  0  0  0  0  0  0  0  0  0  0
   72.3024   47.3095   -3.0443 H   0  0  0  0  0  0  0  0  0  0  0  0
   73.0130   48.3989   -4.2832 H   0  0  0  0  0  0  0  0  0  0  0  0
   71.2471   48.0698   -4.2832 H   0  0  0  0  0  0  0  0  0  0  0  0
   71.7307   46.4912   -5.8316 H   0  0  0  0  0  0  0  0  0  0  0  0
   73.4928   46.5021   -5.3948 H   0  0  0  0  0  0  0  0  0  0  0  0
   74.3218   45.2095   -3.4928 H   0  0  0  0  0  0  0  0  0  0  0  0
   74.1514   43.0416   -2.2923 H   0  0  0  0  0  0  0  0  0  0  0  0
   68.4487   40.5327   -0.6876 H   0  0  0  0  0  0  0  0  0  0  0  0
   67.9169   38.4762    0.6263 H   0  0  0  0  0  0  0  0  0  0  0  0
   69.6985   36.7873    1.0816 H   0  0  0  0  0  0  0  0  0  0  0  0
   72.6240   36.5200   -0.3860 H   0  0  0  0  0  0  0  0  0  0  0  0
   74.8050   40.1180   -2.9550 H   0  0  0  0  0  0  0  0  0  0  0  0
   70.1002   42.5796   -3.7079 H   0  0  0  0  0  0  0  0  0  0  0  0
   70.2719   43.4454   -6.6413 H   0  0  0  0  0  0  0  0  0  0  0  0
   68.9486   43.1009   -5.4834 H   0  0  0  0  0  0  0  0  0  0  0  0
   69.0144   45.3307   -7.5896 H   0  0  0  0  0  0  0  0  0  0  0  0
   67.9898   43.8408   -7.6098 H   0  0  0  0  0  0  0  0  0  0  0  0
   66.7633   45.9079   -6.8634 H   0  0  0  0  0  0  0  0  0  0  0  0
   66.7816   44.5718   -5.6465 H   0  0  0  0  0  0  0  0  0  0  0  0
   68.5220   47.0811   -5.6648 H   0  0  0  0  0  0  0  0  0  0  0  0
   67.2046   46.6509   -4.4999 H   0  0  0  0  0  0  0  0  0  0  0  0
   69.5099   46.2451   -3.5835 H   0  0  0  0  0  0  0  0  0  0  0  0
   68.5003   44.7657   -3.6540 H   0  0  0  0  0  0  0  0  0  0  0  0
  1  2  1  0
  2  3  1  0
  3  4  2  0
  4  5  1  0
  5  6  2  0
  6  7  1  0
  7  8  1  0
  8  9  1  0
  9 10  2  0
 10 11  1  0
 11 12  2  0
 12 13  1  0
 13 14  1  0
 13 15  2  0
 15 16  1  0
 16 17  2  0
 16 18  1  0
 18 19  1  0
  6 20  1  0
 20 21  2  0
 21 22  1  0
 22 23  1  0
 23 24  1  0
 24 25  1  0
 25 26  1  0
 26 27  1  0
 21  3  1  0
 27 22  1  0
 18  7  2  0
 15  9  1  0
  1 28  1  0
  1 29  1  0
  1 30  1  0
  2 31  1  0
  2 32  1  0
  4 33  1  0
  5 34  1  0
 10 35  1  0
 11 36  1  0
 12 37  1  0
 14 38  1  0
 19 39  1  0
 20 40  1  0
 23 41  1  0
 23 42  1  0
 24 43  1  0
 24 44  1  0
 25 45  1  0
 25 46  1  0
 26 47  1  0
 26 48  1  0
 27 49  1  0
 27 50  1  0
M  END
>  <meeko>  (4) 
{"is_sidechain": [false], "free_energy": -8.096, "intermolecular_energy": -9.658, "internal_energy": -0.479}

$$$$
cand_020_out
     RDKit          3D

 50 53  0  0  0  0  0  0  0  0999 V2000
   70.4090   37.9290    0.1270 C   0  0  0  0  0  0  0  0  0  0  0  0
   70.7970   39.3640    0.4490 C   0  0  0  0  0  0  0  0  0  0  0  0
   71.6910   39.9630   -0.6130 C   0  0  0  0  0  0  0  0  0  0  0  0
   73.0070   39.4910   -0.7350 C   0  0  0  0  0  0  0  0  0  0  0  0
   73.8740   40.0280   -1.6890 C   0  0  0  0  0  0  0  0  0  0  0  0
   73.4500   41.0540   -2.5390 C   0  0  0  0  0  0  0  0  0  0  0  0
   74.3730   41.5900   -3.5630 C   0  0  0  0  0  0  0  0  0  0  0  0
   73.7310   41.9040   -4.7560 O   0  0  0  0  0  0  0  0  0  0  0  0
   74.4710   42.4110   -5.7930 C   0  0  0  0  0  0  0  0  0  0  0  0
   73.7840   42.7260   -6.9660 C   0  0  0  0  0  0  0  0  0  0  0  0
   74.4770   43.2440   -8.0620 C   0  0  0  0  0  0  0  0  0  0  0  0
   75.8570   43.4480   -7.9860 C   0  0  0  0  0  0  0  0  0  0  0  0
   76.5400   43.1330   -6.8140 C   0  0  0  0  0  0  0  0  0  0  0  0
   77.8890   43.3560   -6.8060 O   0  0  0  0  0  0  0  0  0  0  0  0
   75.8450   42.6140   -5.7170 C   0  0  0  0  0  0  0  0  0  0  0  0
   76.5240   42.2700   -4.4670 C   0  0  0  0  0  0  0  0  0  0  0  0
   77.7370   42.4140   -4.3250 O   0  0  0  0  0  0  0  0  0  0  0  0
   75.6960   41.7350   -3.3620 C   0  0  0  0  0  0  0  0  0  0  0  0
   76.3510   41.4020   -2.1910 O   0  0  0  0  0  0  0  0  0  0  0  0
   72.1330   41.5220   -2.4170 C   0  0  0  0  0  0  0  0  0  0  0  0
   71.2460   41.0010   -1.4560 C   0  0  0  0  0  0  0  0  0  0  0  0
   69.9220   41.4800   -1.3260 N   0  0  0  0  0  0  0  0  0  0  0  0
   69.8090   42.9330   -1.5270 C   0  0  0  0  0  0  0  0  0  0  0  0
   68.4030   43.3800   -1.1270 C   0  0  0  0  0  0  0  0  0  0  0  0
   67.3380   42.6040   -1.9020 C   0  0  0  0  0  0  0  0  0  0  0  0
   67.5480   41.0970   -1.7600 C   0  0  0  0  0  0  0  0  0  0  0  0
   68.9760   40.6960   -2.1370 C   0  0  0  0  0  0  0  0  0  0  0  0
   70.2582   37.3711    1.0630 H   0  0  0  0  0  0  0  0  0  0  0  0
   69.4771   37.9235   -0.4574 H   0  0  0  0  0  0  0  0  0  0  0  0
   71.2111   37.4546   -0.4574 H   0  0  0  0  0  0  0  0  0  0  0  0
   69.8823   39.9701    0.5259 H   0  0  0  0  0  0  0  0  0  0  0  0
   71.3537   39.3598    1.3977 H   0  0  0  0  0  0  0  0  0  0  0  0
   73.3599   38.6882   -0.0710 H   0  0  0  0  0  0  0  0  0  0  0  0
   74.9000   39.6402   -1.7725 H   0  0  0  0  0  0  0  0  0  0  0  0
   72.6974   42.5664   -7.0272 H   0  0  0  0  0  0  0  0  0  0  0  0
   73.9354   43.4919   -8.9868 H   0  0  0  0  0  0  0  0  0  0  0  0
   76.4025   43.8563   -8.8495 H   0  0  0  0  0  0  0  0  0  0  0  0
   78.3160   43.6190   -6.0140 H   0  0  0  0  0  0  0  0  0  0  0  0
   77.1890   41.7750   -2.0000 H   0  0  0  0  0  0  0  0  0  0  0  0
   71.7838   42.3181   -3.0910 H   0  0  0  0  0  0  0  0  0  0  0  0
   70.5526   43.4510   -0.9035 H   0  0  0  0  0  0  0  0  0  0  0  0
   69.9918   43.1785   -2.5835 H   0  0  0  0  0  0  0  0  0  0  0  0
   68.2629   43.2047   -0.0501 H   0  0  0  0  0  0  0  0  0  0  0  0
   68.2962   44.4494   -1.3615 H   0  0  0  0  0  0  0  0  0  0  0  0
   66.3444   42.8674   -1.5103 H   0  0  0  0  0  0  0  0  0  0  0  0
   67.4150   42.8702   -2.9665 H   0  0  0  0  0  0  0  0  0  0  0  0
   67.3577   40.8056   -0.7165 H   0  0  0  0  0  0  0  0  0  0  0  0
   66.8525   40.5841   -2.4406 H   0  0  0  0  0  0  0  0  0  0  0  0
   69.1222   39.6235   -1.9409 H   0  0  0  0  0  0  0  0  0  0  0  0
   69.1486   40.8935   -3.2053 H   0  0  0  0  0  0  0  0  0  0  0  0
  1  2  1  0
  2  3  1  0
  3  4  2  0
  4  5  1  0
  5  6  2  0
  6  7  1  0
  7  8  1  0
  8  9  1  0
  9 10  2  0
 10 11  1  0
 11 12  2  0
 12 13  1  0
 13 14  1  0
 13 15  2  0
 15 16  1  0
 16 17  2  0
 16 18  1  0
 18 19  1  0
  6 20  1  0
 20 21  2  0
 21 22  1  0
 22 23  1  0
 23 24  1  0
 24 25  1  0
 25 26  1  0
 26 27  1  0
 21  3  1  0
 27 22  1  0
 18  7  2  0
 15  9  1  0
  1 28  1  0
  1 29  1  0
  1 30  1  0
  2 31  1  0
  2 32  1  0
  4 33  1  0
  5 34  1  0
 10 35  1  0
 11 36  1  0
 12 37  1  0
 14 38  1  0
 19 39  1  0
 20 40  1  0
 23 41  1  0
 23 42  1  0
 24 43  1  0
 24 44  1  0
 25 45  1  0
 25 46  1  0
 26 47  1  0
 26 48  1  0
 27 49  1  0
 27 50  1  0
M  END
>  <meeko>  (5) 
{"is_sidechain": [false], "free_energy": -8.082, "intermolecular_energy": -9.722, "internal_energy": -0.397}

$$$$
cand_020_out
     RDKit          3D

 50 53  0  0  0  0  0  0  0  0999 V2000
   73.7840   45.8170   -6.4680 C   0  0  0  0  0  0  0  0  0  0  0  0
   74.4080   45.7420   -5.0830 C   0  0  0  0  0  0  0  0  0  0  0  0
   73.9460   44.5230   -4.3160 C   0  0  0  0  0  0  0  0  0  0  0  0
   72.7380   44.5890   -3.6040 C   0  0  0  0  0  0  0  0  0  0  0  0
   72.2810   43.4950   -2.8670 C   0  0  0  0  0  0  0  0  0  0  0  0
   73.0230   42.3100   -2.8160 C   0  0  0  0  0  0  0  0  0  0  0  0
   72.5090   41.1520   -2.0540 C   0  0  0  0  0  0  0  0  0  0  0  0
   71.1340   41.2080   -1.8510 O   0  0  0  0  0  0  0  0  0  0  0  0
   70.5250   40.1950   -1.1570 C   0  0  0  0  0  0  0  0  0  0  0  0
   69.1430   40.2840   -0.9900 C   0  0  0  0  0  0  0  0  0  0  0  0
   68.4600   39.2860   -0.2910 C   0  0  0  0  0  0  0  0  0  0  0  0
   69.1580   38.1990    0.2400 C   0  0  0  0  0  0  0  0  0  0  0  0
   70.5380   38.1130    0.0710 C   0  0  0  0  0  0  0  0  0  0  0  0
   71.1600   37.0240    0.6170 O   0  0  0  0  0  0  0  0  0  0  0  0
   71.2210   39.1120   -0.6290 C   0  0  0  0  0  0  0  0  0  0  0  0
   72.6700   39.0600   -0.8280 C   0  0  0  0  0  0  0  0  0  0  0  0
   73.3540   38.1390   -0.3860 O   0  0  0  0  0  0  0  0  0  0  0  0
   73.2960   40.1640   -1.5920 C   0  0  0  0  0  0  0  0  0  0  0  0
   74.6670   40.1090   -1.7630 O   0  0  0  0  0  0  0  0  0  0  0  0
   74.2290   42.2460   -3.5310 C   0  0  0  0  0  0  0  0  0  0  0  0
   74.7110   43.3410   -4.2730 C   0  0  0  0  0  0  0  0  0  0  0  0
   75.9310   43.2790   -4.9850 N   0  0  0  0  0  0  0  0  0  0  0  0
   77.0930   43.0080   -4.1230 C   0  0  0  0  0  0  0  0  0  0  0  0
   78.3710   43.2050   -4.9380 C   0  0  0  0  0  0  0  0  0  0  0  0
   78.3640   42.3310   -6.1920 C   0  0  0  0  0  0  0  0  0  0  0  0
   77.0940   42.5580   -7.0100 C   0  0  0  0  0  0  0  0  0  0  0  0
   75.8400   42.3850   -6.1510 C   0  0  0  0  0  0  0  0  0  0  0  0
   72.6959   45.9478   -6.3733 H   0  0  0  0  0  0  0  0  0  0  0  0
   74.2096   46.6705   -7.0162 H   0  0  0  0  0  0  0  0  0  0  0  0
   73.9952   44.8870   -7.0162 H   0  0  0  0  0  0  0  0  0  0  0  0
   75.5021   45.7009   -5.1887 H   0  0  0  0  0  0  0  0  0  0  0  0
   74.0945   46.6344   -4.5215 H   0  0  0  0  0  0  0  0  0  0  0  0
   72.1439   45.5145   -3.6271 H   0  0  0  0  0  0  0  0  0  0  0  0
   71.3285   43.5653   -2.3212 H   0  0  0  0  0  0  0  0  0  0  0  0
   68.5917   41.1391   -1.4083 H   0  0  0  0  0  0  0  0  0  0  0  0
   67.3703   39.3563   -0.1585 H   0  0  0  0  0  0  0  0  0  0  0  0
   68.6196   37.4132    0.7900 H   0  0  0  0  0  0  0  0  0  0  0  0
   71.6330   37.1090    1.4220 H   0  0  0  0  0  0  0  0  0  0  0  0
   75.1850   40.8820   -1.6520 H   0  0  0  0  0  0  0  0  0  0  0  0
   74.8138   41.3145   -3.5111 H   0  0  0  0  0  0  0  0  0  0  0  0
   77.0890   43.7015   -3.2692 H   0  0  0  0  0  0  0  0  0  0  0  0
   77.0458   41.9750   -3.7479 H   0  0  0  0  0  0  0  0  0  0  0  0
   78.4476   44.2610   -5.2365 H   0  0  0  0  0  0  0  0  0  0  0  0
   79.2305   42.9160   -4.3154 H   0  0  0  0  0  0  0  0  0  0  0  0
   79.2392   42.5809   -6.8096 H   0  0  0  0  0  0  0  0  0  0  0  0
   78.3986   41.2756   -5.8840 H   0  0  0  0  0  0  0  0  0  0  0  0
   77.1095   43.5788   -7.4196 H   0  0  0  0  0  0  0  0  0  0  0  0
   77.0652   41.8137   -7.8194 H   0  0  0  0  0  0  0  0  0  0  0  0
   74.9490   42.6408   -6.7433 H   0  0  0  0  0  0  0  0  0  0  0  0
   75.7616   41.3409   -5.8137 H   0  0  0  0  0  0  0  0  0  0  0  0
  1  2  1  0
  2  3  1  0
  3  4  2  0
  4  5  1  0
  5  6  2  0
  6  7  1  0
  7  8  1  0
  8  9  1  0
  9 10  2  0
 10 11  1  0
 11 12  2  0
 12 13  1  0
 13 14  1  0
 13 15  2  0
 15 16  1  0
 16 17  2  0
 16 18  1  0
 18 19  1  0
  6 20  1  0
 20 21  2  0
 21 22  1  0
 22 23  1  0
 23 24  1  0
 24 25  1  0
 25 26  1  0
 26 27  1  0
 21  3  1  0
 27 22  1  0
 18  7  2  0
 15  9  1  0
  1 28  1  0
  1 29  1  0
  1 30  1  0
  2 31  1  0
  2 32  1  0
  4 33  1  0
  5 34  1  0
 10 35  1  0
 11 36  1  0
 12 37  1  0
 14 38  1  0
 19 39  1  0
 20 40  1  0
 23 41  1  0
 23 42  1  0
 24 43  1  0
 24 44  1  0
 25 45  1  0
 25 46  1  0
 26 47  1  0
 26 48  1  0
 27 49  1  0
 27 50  1  0
M  END
>  <meeko>  (6) 
{"is_sidechain": [false], "free_energy": -8.079, "intermolecular_energy": -9.679, "internal_energy": -0.437}

$$$$
cand_020_out
     RDKit          3D

 50 53  0  0  0  0  0  0  0  0999 V2000
   67.4860   40.1090   -2.0990 C   0  0  0  0  0  0  0  0  0  0  0  0
   68.5670   40.0080   -1.0330 C   0  0  0  0  0  0  0  0  0  0  0  0
   69.8690   40.6330   -1.4820 C   0  0  0  0  0  0  0  0  0  0  0  0
   69.8320   41.8600   -2.1620 C   0  0  0  0  0  0  0  0  0  0  0  0
   71.0070   42.4640   -2.6130 C   0  0  0  0  0  0  0  0  0  0  0  0
   72.2480   41.8540   -2.4010 C   0  0  0  0  0  0  0  0  0  0  0  0
   73.4840   42.5240   -2.8590 C   0  0  0  0  0  0  0  0  0  0  0  0
   73.3800   43.9110   -2.8520 O   0  0  0  0  0  0  0  0  0  0  0  0
   74.4570   44.6580   -3.2550 C   0  0  0  0  0  0  0  0  0  0  0  0
   74.3140   46.0460   -3.2180 C   0  0  0  0  0  0  0  0  0  0  0  0
   75.3720   46.8660   -3.6160 C   0  0  0  0  0  0  0  0  0  0  0  0
   76.5720   46.3000   -4.0510 C   0  0  0  0  0  0  0  0  0  0  0  0
   76.7120   44.9150   -4.0860 C   0  0  0  0  0  0  0  0  0  0  0  0
   77.9120   44.4260   -4.5230 O   0  0  0  0  0  0  0  0  0  0  0  0
   75.6530   44.0940   -3.6870 C   0  0  0  0  0  0  0  0  0  0  0  0
   75.7580   42.6350   -3.7100 C   0  0  0  0  0  0  0  0  0  0  0  0
   76.7790   42.0620   -4.0850 O   0  0  0  0  0  0  0  0  0  0  0  0
   74.5820   41.8560   -3.2580 C   0  0  0  0  0  0  0  0  0  0  0  0
   74.6900   40.4780   -3.2960 O   0  0  0  0  0  0  0  0  0  0  0  0
   72.2830   40.6290   -1.7190 C   0  0  0  0  0  0  0  0  0  0  0  0
   71.1080   39.9990   -1.2650 C   0  0  0  0  0  0  0  0  0  0  0  0
   71.1430   38.7590   -0.5860 N   0  0  0  0  0  0  0  0  0  0  0  0
   72.3970   38.0180   -0.7940 C   0  0  0  0  0  0  0  0  0  0  0  0
   72.2370   36.6060   -0.2320 C   0  0  0  0  0  0  0  0  0  0  0  0
   71.8250   36.6430    1.2400 C   0  0  0  0  0  0  0  0  0  0  0  0
   70.5810   37.5090    1.4370 C   0  0  0  0  0  0  0  0  0  0  0  0
   70.7690   38.9000    0.8310 C   0  0  0  0  0  0  0  0  0  0  0  0
   66.5021   40.2009   -1.6159 H   0  0  0  0  0  0  0  0  0  0  0  0
   67.6708   40.9938   -2.7259 H   0  0  0  0  0  0  0  0  0  0  0  0
   67.5037   39.2053   -2.7259 H   0  0  0  0  0  0  0  0  0  0  0  0
   68.2199   40.5244   -0.1259 H   0  0  0  0  0  0  0  0  0  0  0  0
   68.7526   38.9413   -0.8388 H   0  0  0  0  0  0  0  0  0  0  0  0
   68.8648   42.3521   -2.3419 H   0  0  0  0  0  0  0  0  0  0  0  0
   70.9566   43.4283   -3.1398 H   0  0  0  0  0  0  0  0  0  0  0  0
   73.3691   46.4933   -2.8758 H   0  0  0  0  0  0  0  0  0  0  0  0
   75.2598   47.9599   -3.5867 H   0  0  0  0  0  0  0  0  0  0  0  0
   77.4046   46.9465   -4.3652 H   0  0  0  0  0  0  0  0  0  0  0  0
   78.5640   45.0130   -4.8570 H   0  0  0  0  0  0  0  0  0  0  0  0
   75.3880   40.0750   -3.7730 H   0  0  0  0  0  0  0  0  0  0  0  0
   73.2544   40.1472   -1.5337 H   0  0  0  0  0  0  0  0  0  0  0  0
   72.6199   37.9641   -1.8698 H   0  0  0  0  0  0  0  0  0  0  0  0
   73.2230   38.5320   -0.2806 H   0  0  0  0  0  0  0  0  0  0  0  0
   71.4646   36.0754   -0.8081 H   0  0  0  0  0  0  0  0  0  0  0  0
   73.2034   36.0867   -0.3114 H   0  0  0  0  0  0  0  0  0  0  0  0
   71.6084   35.6192    1.5791 H   0  0  0  0  0  0  0  0  0  0  0  0
   72.6502   37.0753    1.8250 H   0  0  0  0  0  0  0  0  0  0  0  0
   69.7237   37.0198    0.9515 H   0  0  0  0  0  0  0  0  0  0  0  0
   70.4051   37.6223    2.5169 H   0  0  0  0  0  0  0  0  0  0  0  0
   69.8295   39.4667    0.9098 H   0  0  0  0  0  0  0  0  0  0  0  0
   71.5613   39.4374    1.3728 H   0  0  0  0  0  0  0  0  0  0  0  0
  1  2  1  0
  2  3  1  0
  3  4  2  0
  4  5  1  0
  5  6  2  0
  6  7  1  0
  7  8  1  0
  8  9  1  0
  9 10  2  0
 10 11  1  0
 11 12  2  0
 12 13  1  0
 13 14  1  0
 13 15  2  0
 15 16  1  0
 16 17  2  0
 16 18  1  0
 18 19  1  0
  6 20  1  0
 20 21  2  0
 21 22  1  0
 22 23  1  0
 23 24  1  0
 24 25  1  0
 25 26  1  0
 26 27  1  0
 21  3  1  0
 27 22  1  0
 18  7  2  0
 15  9  1  0
  1 28  1  0
  1 29  1  0
  1 30  1  0
  2 31  1  0
  2 32  1  0
  4 33  1  0
  5 34  1  0
 10 35  1  0
 11 36  1  0
 12 37  1  0
 14 38  1  0
 19 39  1  0
 20 40  1  0
 23 41  1  0
 23 42  1  0
 24 43  1  0
 24 44  1  0
 25 45  1  0
 25 46  1  0
 26 47  1  0
 26 48  1  0
 27 49  1  0
 27 50  1  0
M  END
>  <meeko>  (7) 
{"is_sidechain": [false], "free_energy": -8.025, "intermolecular_energy": -10.002, "internal_energy": -0.048}

$$$$
cand_020_out
     RDKit          3D

 50 53  0  0  0  0  0  0  0  0999 V2000
   77.7460   43.2240   -4.3740 C   0  0  0  0  0  0  0  0  0  0  0  0
   77.1250   43.6920   -3.0670 C   0  0  0  0  0  0  0  0  0  0  0  0
   75.7090   43.1870   -2.8980 C   0  0  0  0  0  0  0  0  0  0  0  0
   75.5060   41.9110   -2.3480 C   0  0  0  0  0  0  0  0  0  0  0  0
   74.2180   41.3970   -2.1910 C   0  0  0  0  0  0  0  0  0  0  0  0
   73.1010   42.1400   -2.5860 C   0  0  0  0  0  0  0  0  0  0  0  0
   71.7430   41.5910   -2.3850 C   0  0  0  0  0  0  0  0  0  0  0  0
   71.6480   40.7890   -1.2530 O   0  0  0  0  0  0  0  0  0  0  0  0
   70.4420   40.2140   -0.9470 C   0  0  0  0  0  0  0  0  0  0  0  0
   70.3890   39.4290    0.2060 C   0  0  0  0  0  0  0  0  0  0  0  0
   69.1910   38.8130    0.5740 C   0  0  0  0  0  0  0  0  0  0  0  0
   68.0470   38.9810   -0.2080 C   0  0  0  0  0  0  0  0  0  0  0  0
   68.1030   39.7650   -1.3580 C   0  0  0  0  0  0  0  0  0  0  0  0
   66.9470   39.8870   -2.0790 O   0  0  0  0  0  0  0  0  0  0  0  0
   69.3010   40.3820   -1.7260 C   0  0  0  0  0  0  0  0  0  0  0  0
   69.4030   41.2130   -2.9260 C   0  0  0  0  0  0  0  0  0  0  0  0
   68.4430   41.4040   -3.6690 O   0  0  0  0  0  0  0  0  0  0  0  0
   70.7170   41.8300   -3.2240 C   0  0  0  0  0  0  0  0  0  0  0  0
   70.8040   42.6030   -4.3660 O   0  0  0  0  0  0  0  0  0  0  0  0
   73.3060   43.4160   -3.1330 C   0  0  0  0  0  0  0  0  0  0  0  0
   74.5970   43.9490   -3.3080 C   0  0  0  0  0  0  0  0  0  0  0  0
   74.8050   45.2310   -3.8680 N   0  0  0  0  0  0  0  0  0  0  0  0
   74.7040   45.2460   -5.3360 C   0  0  0  0  0  0  0  0  0  0  0  0
   75.1820   46.6030   -5.8520 C   0  0  0  0  0  0  0  0  0  0  0  0
   74.3960   47.7440   -5.2060 C   0  0  0  0  0  0  0  0  0  0  0  0
   74.4320   47.6390   -3.6830 C   0  0  0  0  0  0  0  0  0  0  0  0
   73.9790   46.2560   -3.2100 C   0  0  0  0  0  0  0  0  0  0  0  0
   78.6075   42.5748   -4.1588 H   0  0  0  0  0  0  0  0  0  0  0  0
   76.9993   42.6621   -4.9542 H   0  0  0  0  0  0  0  0  0  0  0  0
   78.0804   44.0966   -4.9542 H   0  0  0  0  0  0  0  0  0  0  0  0
   77.7362   43.3213   -2.2309 H   0  0  0  0  0  0  0  0  0  0  0  0
   77.0936   44.7915   -3.0809 H   0  0  0  0  0  0  0  0  0  0  0  0
   76.3727   41.3092   -2.0371 H   0  0  0  0  0  0  0  0  0  0  0  0
   74.0801   40.3977   -1.7523 H   0  0  0  0  0  0  0  0  0  0  0  0
   71.2894   39.2958    0.8237 H   0  0  0  0  0  0  0  0  0  0  0  0
   69.1487   38.1939    1.4823 H   0  0  0  0  0  0  0  0  0  0  0  0
   67.1038   38.4956    0.0831 H   0  0  0  0  0  0  0  0  0  0  0  0
   66.9180   39.6000   -2.9710 H   0  0  0  0  0  0  0  0  0  0  0  0
   70.7970   43.5380   -4.3010 H   0  0  0  0  0  0  0  0  0  0  0  0
   72.4342   44.0159   -3.4331 H   0  0  0  0  0  0  0  0  0  0  0  0
   75.3333   44.4483   -5.7575 H   0  0  0  0  0  0  0  0  0  0  0  0
   73.6599   45.0791   -5.6392 H   0  0  0  0  0  0  0  0  0  0  0  0
   76.2494   46.7222   -5.6145 H   0  0  0  0  0  0  0  0  0  0  0  0
   75.0221   46.6399   -6.9397 H   0  0  0  0  0  0  0  0  0  0  0  0
   74.8386   48.7037   -5.5111 H   0  0  0  0  0  0  0  0  0  0  0  0
   73.3490   47.6802   -5.5373 H   0  0  0  0  0  0  0  0  0  0  0  0
   75.4604   47.8173   -3.3358 H   0  0  0  0  0  0  0  0  0  0  0  0
   73.7448   48.3905   -3.2669 H   0  0  0  0  0  0  0  0  0  0  0  0
   74.0986   46.1817   -2.1190 H   0  0  0  0  0  0  0  0  0  0  0  0
   72.9207   46.1029   -3.4681 H   0  0  0  0  0  0  0  0  0  0  0  0
  1  2  1  0
  2  3  1  0
  3  4  2  0
  4  5  1  0
  5  6  2  0
  6  7  1  0
  7  8  1  0
  8  9  1  0
  9 10  2  0
 10 11  1  0
 11 12  2  0
 12 13  1  0
 13 14  1  0
 13 15  2  0
 15 16  1  0
 16 17  2  0
 16 18  1  0
 18 19  1  0
  6 20  1  0
 20 21  2  0
 21 22  1  0
 22 23  1  0
 23 24  1  0
 24 25  1  0
 25 26  1  0
 26 27  1  0
 21  3  1  0
 27 22  1  0
 18  7  2  0
 15  9  1  0
  1 28  1  0
  1 29  1  0
  1 30  1  0
  2 31  1  0
  2 32  1  0
  4 33  1  0
  5 34  1  0
 10 35  1  0
 11 36  1  0
 12 37  1  0
 14 38  1  0
 19 39  1  0
 20 40  1  0
 23 41  1  0
 23 42  1  0
 24 43  1  0
 24 44  1  0
 25 45  1  0
 25 46  1  0
 26 47  1  0
 26 48  1  0
 27 49  1  0
 27 50  1  0
M  END
>  <meeko>  (8) 
{"is_sidechain": [false], "free_energy": -7.939, "intermolecular_energy": -9.402, "internal_energy": -0.541}

$$$$
cand_020_out
     RDKit          3D

 50 53  0  0  0  0  0  0  0  0999 V2000
   77.1860   45.0340   -3.0270 C   0  0  0  0  0  0  0  0  0  0  0  0
   76.5610   44.0730   -4.0260 C   0  0  0  0  0  0  0  0  0  0  0  0
   75.4520   43.2510   -3.4070 C   0  0  0  0  0  0  0  0  0  0  0  0
   75.7860   42.0720   -2.7210 C   0  0  0  0  0  0  0  0  0  0  0  0
   74.7950   41.2720   -2.1500 C   0  0  0  0  0  0  0  0  0  0  0  0
   73.4460   41.6250   -2.2560 C   0  0  0  0  0  0  0  0  0  0  0  0
   72.4120   40.7800   -1.6190 C   0  0  0  0  0  0  0  0  0  0  0  0
   72.9400   39.6360   -1.0280 O   0  0  0  0  0  0  0  0  0  0  0  0
   72.0900   38.7630   -0.4010 C   0  0  0  0  0  0  0  0  0  0  0  0
   72.6640   37.6370    0.1910 C   0  0  0  0  0  0  0  0  0  0  0  0
   71.8540   36.7050    0.8460 C   0  0  0  0  0  0  0  0  0  0  0  0
   70.4730   36.8990    0.9090 C   0  0  0  0  0  0  0  0  0  0  0  0
   69.9030   38.0250    0.3180 C   0  0  0  0  0  0  0  0  0  0  0  0
   68.5450   38.1530    0.4160 O   0  0  0  0  0  0  0  0  0  0  0  0
   70.7130   38.9570   -0.3370 C   0  0  0  0  0  0  0  0  0  0  0  0
   70.1560   40.1520   -0.9710 C   0  0  0  0  0  0  0  0  0  0  0  0
   68.9500   40.3890   -0.9630 O   0  0  0  0  0  0  0  0  0  0  0  0
   71.1010   41.0820   -1.6310 C   0  0  0  0  0  0  0  0  0  0  0  0
   70.5600   42.2000   -2.2370 O   0  0  0  0  0  0  0  0  0  0  0  0
   73.1150   42.8040   -2.9400 C   0  0  0  0  0  0  0  0  0  0  0  0
   74.0980   43.6200   -3.5300 C   0  0  0  0  0  0  0  0  0  0  0  0
   73.7640   44.8040   -4.2280 N   0  0  0  0  0  0  0  0  0  0  0  0
   72.9370   44.5600   -5.4200 C   0  0  0  0  0  0  0  0  0  0  0  0
   72.8400   45.8540   -6.2290 C   0  0  0  0  0  0  0  0  0  0  0  0
   72.2980   46.9980   -5.3730 C   0  0  0  0  0  0  0  0  0  0  0  0
   73.1140   47.1550   -4.0910 C   0  0  0  0  0  0  0  0  0  0  0  0
   73.2160   45.8320   -3.3300 C   0  0  0  0  0  0  0  0  0  0  0  0
   76.9652   44.6945   -2.0042 H   0  0  0  0  0  0  0  0  0  0  0  0
   78.2754   45.0617   -3.1770 H   0  0  0  0  0  0  0  0  0  0  0  0
   76.7695   46.0410   -3.1770 H   0  0  0  0  0  0  0  0  0  0  0  0
   76.1474   44.6524   -4.8646 H   0  0  0  0  0  0  0  0  0  0  0  0
   77.3454   43.3815   -4.3674 H   0  0  0  0  0  0  0  0  0  0  0  0
   76.8416   41.7754   -2.6326 H   0  0  0  0  0  0  0  0  0  0  0  0
   75.0777   40.3554   -1.6116 H   0  0  0  0  0  0  0  0  0  0  0  0
   73.7521   37.4832    0.1422 H   0  0  0  0  0  0  0  0  0  0  0  0
   72.3055   35.8171    1.3126 H   0  0  0  0  0  0  0  0  0  0  0  0
   69.8361   36.1647    1.4240 H   0  0  0  0  0  0  0  0  0  0  0  0
   68.1670   38.5720    1.1650 H   0  0  0  0  0  0  0  0  0  0  0  0
   70.1220   42.1220   -3.0620 H   0  0  0  0  0  0  0  0  0  0  0  0
   72.0581   43.0988   -3.0173 H   0  0  0  0  0  0  0  0  0  0  0  0
   73.3988   43.7737   -6.0352 H   0  0  0  0  0  0  0  0  0  0  0  0
   71.9313   44.2346   -5.1156 H   0  0  0  0  0  0  0  0  0  0  0  0
   73.8409   46.1236   -6.5971 H   0  0  0  0  0  0  0  0  0  0  0  0
   72.1504   45.6896   -7.0701 H   0  0  0  0  0  0  0  0  0  0  0  0
   72.3488   47.9338   -5.9489 H   0  0  0  0  0  0  0  0  0  0  0  0
   71.2569   46.7699   -5.1007 H   0  0  0  0  0  0  0  0  0  0  0  0
   74.1265   47.4977   -4.3507 H   0  0  0  0  0  0  0  0  0  0  0  0
   72.6079   47.8880   -3.4456 H   0  0  0  0  0  0  0  0  0  0  0  0
   73.8806   45.9560   -2.4623 H   0  0  0  0  0  0  0  0  0  0  0  0
   72.2188   45.5266   -2.9803 H   0  0  0  0  0  0  0  0  0  0  0  0
  1  2  1  0
  2  3  1  0
  3  4  2  0
  4  5  1  0
  5  6  2  0
  6  7  1  0
  7  8  1  0
  8  9  1  0
  9 10  2  0
 10 11  1  0
 11 12  2  0
 12 13  1  0
 13 14  1  0
 13 15  2  0
 15 16  1  0
 16 17  2  0
 16 18  1  0
 18 19  1  0
  6 20  1  0
 20 21  2  0
 21 22  1  0
 22 23  1  0
 23 24  1  0
 24 25  1  0
 25 26  1  0
 26 27  1  0
 21  3  1  0
 27 22  1  0
 18  7  2  0
 15  9  1  0
  1 28  1  0
  1 29  1  0
  1 30  1  0
  2 31  1  0
  2 32  1  0
  4 33  1  0
  5 34  1  0
 10 35  1  0
 11 36  1  0
 12 37  1  0
 14 38  1  0
 19 39  1  0
 20 40  1  0
 23 41  1  0
 23 42  1  0
 24 43  1  0
 24 44  1  0
 25 45  1  0
 25 46  1  0
 26 47  1  0
 26 48  1  0
 27 49  1  0
 27 50  1  0
M  END
>  <meeko>  (9) 
{"is_sidechain": [false], "free_energy": -7.877, "intermolecular_energy": -9.56, "internal_energy": -0.308}

$$$$
