native_9IV_out
     RDKit          3D

 37 40  0  0  0  0  0  0  0  0999 V2000
   73.3840   39.0460   -1.6130 Cl  0  0  0  0  0  0  0  0  0  0  0  0
   72.2560   38.4410   -0.4570 C   0  0  0  0  0  0  0  0  0  0  0  0
   72.2790   37.0780   -0.1500 C   0  0  0  0  0  0  0  0  0  0  0  0
   71.3800   36.5560    0.7820 C   0  0  0  0  0  0  0  0  0  0  0  0
   70.4620   37.3950    1.4130 C   0  0  0  0  0  0  0  0  0  0  0  0
   70.4350   38.7570    1.1100 C   0  0  0  0  0  0  0  0  0  0  0  0
   71.3220   39.2790    0.1600 C   0  0  0  0  0  0  0  0  0  0  0  0
   71.3360   40.6280   -0.1230 O   0  0  0  0  0  0  0  0  0  0  0  0
   70.2460   41.1390   -0.7880 C   0  0  0  0  0  0  0  0  0  0  0  0
   69.4610   40.3820   -1.6590 C   0  0  0  0  0  0  0  0  0  0  0  0
   68.3870   40.9830   -2.3220 C   0  0  0  0  0  0  0  0  0  0  0  0
   68.0840   42.3380   -2.1290 C   0  0  0  0  0  0  0  0  0  0  0  0
   67.0060   42.8900   -2.8510 N   0  0  0  0  0  0  0  0  0  0  0  0
   67.0180   43.4240   -4.1490 C   0  0  0  0  0  0  0  0  0  0  0  0
   65.8260   43.8410   -4.6470 N   0  0  0  0  0  0  0  0  0  0  0  0
   65.7920   44.3700   -5.8870 C   0  0  0  0  0  0  0  0  0  0  0  0
   66.8150   44.5640   -6.7340 N   0  0  0  0  0  0  0  0  0  0  0  0
   67.9770   44.1690   -6.1930 C   0  0  0  0  0  0  0  0  0  0  0  0
   69.1930   44.2670   -6.8100 N   0  0  0  0  0  0  0  0  0  0  0  0
   70.1750   43.7990   -5.9750 C   0  0  0  0  0  0  0  0  0  0  0  0
   69.5700   43.3910   -4.8050 C   0  0  0  0  0  0  0  0  0  0  0  0
   68.1670   43.6080   -4.9390 C   0  0  0  0  0  0  0  0  0  0  0  0
   68.9100   43.0920   -1.2860 C   0  0  0  0  0  0  0  0  0  0  0  0
   69.9850   42.4980   -0.6190 C   0  0  0  0  0  0  0  0  0  0  0  0
   73.0059   36.4158   -0.6430 H   0  0  0  0  0  0  0  0  0  0  0  0
   71.3958   35.4819    1.0188 H   0  0  0  0  0  0  0  0  0  0  0  0
   69.7580   36.9826    2.1508 H   0  0  0  0  0  0  0  0  0  0  0  0
   69.7180   39.4198    1.6166 H   0  0  0  0  0  0  0  0  0  0  0  0
   69.6863   39.3179   -1.8229 H   0  0  0  0  0  0  0  0  0  0  0  0
   67.7695   40.3828   -3.0064 H   0  0  0  0  0  0  0  0  0  0  0  0
   66.1380   42.9030   -2.3870 H   0  0  0  0  0  0  0  0  0  0  0  0
   64.8015   44.6817   -6.2499 H   0  0  0  0  0  0  0  0  0  0  0  0
   69.3420   44.6210   -7.7160 H   0  0  0  0  0  0  0  0  0  0  0  0
   71.2513   43.7567   -6.1983 H   0  0  0  0  0  0  0  0  0  0  0  0
   70.0793   42.9724   -3.9245 H   0  0  0  0  0  0  0  0  0  0  0  0
   68.7103   44.1648   -1.1472 H   0  0  0  0  0  0  0  0  0  0  0  0
   70.6254   43.1031    0.0396 H   0  0  0  0  0  0  0  0  0  0  0  0
  1  2  1  0
  2  3  2  0
  3  4  1  0
  4  5  2  0
  5  6  1  0
  6  7  2  0
  7  8  1  0
  8  9  1  0
  9 10  2  0
 10 11  1  0
 11 12  2  0
 12 13  1  0
 13 14  1  0
 14 15  2  0
 15 16  1  0
 16 17  2  0
 17 18  1  0
 18 19  1  0
 19 20  1  0
 20 21  2  0
 21 22  1  0
 12 23  1  0
 23 24  2  0
  7  2  1  0
 24  9  1  0
 22 14  1  0
 22 18  2  0
  3 25  1  0
  4 26  1  0
  5 27  1  0
  6 28  1  0
 10 29  1  0
 11 30  1  0
 13 31  1  0
 16 32  1  0
 19 33  1  0
 20 34  1  0
 21 35  1  0
 23 36  1  0
 24 37  1  0
M  END
>  <meeko>  (1) 
{"is_sidechain": [false], "free_energy": -8.126, "intermolecular_energy": -10.026, "internal_energy": -0.653}

$$$$
native_9IV_out
     RDKit          3D

 37 40  0  0  0  0  0  0  0  0999 V2000
   73.3810   39.3710   -1.4690 Cl  0  0  0  0  0  0  0  0  0  0  0  0
   72.3010   38.5980   -0.3670 C   0  0  0  0  0  0  0  0  0  0  0  0
   72.4280   37.2230   -0.1610 C   0  0  0  0  0  0  0  0  0  0  0  0
   71.5710   36.5670    0.7250 C   0  0  0  0  0  0  0  0  0  0  0  0
   70.5900   37.2850    1.4100 C   0  0  0  0  0  0  0  0  0  0  0  0
   70.4600   38.6600    1.2070 C   0  0  0  0  0  0  0  0  0  0  0  0
   71.3050   39.3160    0.3030 C   0  0  0  0  0  0  0  0  0  0  0  0
   71.2160   40.6790    0.1190 O   0  0  0  0  0  0  0  0  0  0  0  0
   70.2280   41.1340   -0.7220 C   0  0  0  0  0  0  0  0  0  0  0  0
   69.5210   40.2990   -1.5890 C   0  0  0  0  0  0  0  0  0  0  0  0
   68.5520   40.8430   -2.4370 C   0  0  0  0  0  0  0  0  0  0  0  0
   68.2780   42.2180   -2.4340 C   0  0  0  0  0  0  0  0  0  0  0  0
   67.3090   42.7060   -3.3350 N   0  0  0  0  0  0  0  0  0  0  0  0
   67.5190   43.3330   -4.5740 C   0  0  0  0  0  0  0  0  0  0  0  0
   68.7700   43.2520   -5.0930 N   0  0  0  0  0  0  0  0  0  0  0  0
   69.0130   43.8310   -6.2860 C   0  0  0  0  0  0  0  0  0  0  0  0
   68.1560   44.4970   -7.0760 N   0  0  0  0  0  0  0  0  0  0  0  0
   66.9260   44.5260   -6.5420 C   0  0  0  0  0  0  0  0  0  0  0  0
   65.8400   45.1110   -7.1310 N   0  0  0  0  0  0  0  0  0  0  0  0
   64.7350   44.9410   -6.3360 C   0  0  0  0  0  0  0  0  0  0  0  0
   65.1290   44.2380   -5.2170 C   0  0  0  0  0  0  0  0  0  0  0  0
   66.5260   43.9810   -5.3310 C   0  0  0  0  0  0  0  0  0  0  0  0
   69.0270   43.0450   -1.5900 C   0  0  0  0  0  0  0  0  0  0  0  0
   69.9980   42.5080   -0.7390 C   0  0  0  0  0  0  0  0  0  0  0  0
   73.2036   36.6562   -0.6969 H   0  0  0  0  0  0  0  0  0  0  0  0
   71.6693   35.4829    0.8832 H   0  0  0  0  0  0  0  0  0  0  0  0
   69.9185   36.7671    2.1106 H   0  0  0  0  0  0  0  0  0  0  0  0
   69.6946   39.2277    1.7565 H   0  0  0  0  0  0  0  0  0  0  0  0
   69.7254   39.2183   -1.6048 H   0  0  0  0  0  0  0  0  0  0  0  0
   67.9956   40.1817   -3.1175 H   0  0  0  0  0  0  0  0  0  0  0  0
   66.3700   42.5940   -3.0620 H   0  0  0  0  0  0  0  0  0  0  0  0
   70.0443   43.7471   -6.6594 H   0  0  0  0  0  0  0  0  0  0  0  0
   65.8480   45.5830   -7.9950 H   0  0  0  0  0  0  0  0  0  0  0  0
   63.7182   45.3006   -6.5521 H   0  0  0  0  0  0  0  0  0  0  0  0
   64.4799   43.9302   -4.3840 H   0  0  0  0  0  0  0  0  0  0  0  0
   68.8500   44.1306   -1.5959 H   0  0  0  0  0  0  0  0  0  0  0  0
   70.5807   43.1709   -0.0825 H   0  0  0  0  0  0  0  0  0  0  0  0
  1  2  1  0
  2  3  2  0
  3  4  1  0
  4  5  2  0
  5  6  1  0
  6  7  2  0
  7  8  1  0
  8  9  1  0
  9 10  2  0
 10 11  1  0
 11 12  2  0
 12 13  1  0
 13 14  1  0
 14 15  2  0
 15 16  1  0
 16 17  2  0
 17 18  1  0
 18 19  1  0
 19 20  1  0
 20 21  2  0
 21 22  1  0
 12 23  1  0
 23 24  2  0
  7  2  1  0
 24  9  1  0
 22 14  1  0
 22 18  2  0
  3 25  1  0
  4 26  1  0
  5 27  1  0
  6 28  1  0
 10 29  1  0
 11 30  1  0
 13 31  1  0
 16 32  1  0
 19 33  1  0
 20 34  1  0
 21 35  1  0
 23 36  1  0
 24 37  1  0
M  END
>  <meeko>  (2) 
{"is_sidechain": [false], "free_energy": -7.814, "intermolecular_energy": -9.698, "internal_energy": -0.595}

$$$$
native_9IV_out
     RDKit          3D

 37 40  0  0  0  0  0  0  0  0999 V2000
   68.1010   43.3520   -2.5800 Cl  0  0  0  0  0  0  0  0  0  0  0  0
   68.2110   43.6830   -4.2690 C   0  0  0  0  0  0  0  0  0  0  0  0
   67.0440   43.6430   -5.0360 C   0  0  0  0  0  0  0  0  0  0  0  0
   67.0990   43.9080   -6.4060 C   0  0  0  0  0  0  0  0  0  0  0  0
   68.3170   44.2180   -7.0100 C   0  0  0  0  0  0  0  0  0  0  0  0
   69.4860   44.2590   -6.2480 C   0  0  0  0  0  0  0  0  0  0  0  0
   69.4370   43.9730   -4.8780 C   0  0  0  0  0  0  0  0  0  0  0  0
   70.5730   44.0480   -4.1020 O   0  0  0  0  0  0  0  0  0  0  0  0
   71.1180   42.8590   -3.6740 C   0  0  0  0  0  0  0  0  0  0  0  0
   70.9770   41.6610   -4.3750 C   0  0  0  0  0  0  0  0  0  0  0  0
   71.5340   40.4880   -3.8590 C   0  0  0  0  0  0  0  0  0  0  0  0
   72.2320   40.4930   -2.6430 C   0  0  0  0  0  0  0  0  0  0  0  0
   72.7440   39.2690   -2.1630 N   0  0  0  0  0  0  0  0  0  0  0  0
   72.2030   38.4350   -1.1720 C   0  0  0  0  0  0  0  0  0  0  0  0
   73.0300   37.4950   -0.6490 N   0  0  0  0  0  0  0  0  0  0  0  0
   72.5550   36.6790    0.3130 C   0  0  0  0  0  0  0  0  0  0  0  0
   71.3300   36.6680    0.8630 N   0  0  0  0  0  0  0  0  0  0  0  0
   70.5560   37.6310    0.3420 C   0  0  0  0  0  0  0  0  0  0  0  0
   69.2670   37.8800    0.7230 N   0  0  0  0  0  0  0  0  0  0  0  0
   68.7710   38.9440    0.0140 C   0  0  0  0  0  0  0  0  0  0  0  0
   69.7650   39.3780   -0.8380 C   0  0  0  0  0  0  0  0  0  0  0  0
   70.9010   38.5380   -0.6480 C   0  0  0  0  0  0  0  0  0  0  0  0
   72.3250   41.6950   -1.9330 C   0  0  0  0  0  0  0  0  0  0  0  0
   71.7710   42.8720   -2.4430 C   0  0  0  0  0  0  0  0  0  0  0  0
   66.0816   43.4027   -4.5606 H   0  0  0  0  0  0  0  0  0  0  0  0
   66.1801   43.8721   -7.0096 H   0  0  0  0  0  0  0  0  0  0  0  0
   68.3568   44.4306   -8.0885 H   0  0  0  0  0  0  0  0  0  0  0  0
   70.4444   44.5156   -6.7231 H   0  0  0  0  0  0  0  0  0  0  0  0
   70.4301   41.6400   -5.3292 H   0  0  0  0  0  0  0  0  0  0  0  0
   71.4231   39.5457   -4.4156 H   0  0  0  0  0  0  0  0  0  0  0  0
   73.5850   38.9620   -2.5730 H   0  0  0  0  0  0  0  0  0  0  0  0
   73.2602   35.9267    0.6961 H   0  0  0  0  0  0  0  0  0  0  0  0
   68.7690   37.3720    1.4040 H   0  0  0  0  0  0  0  0  0  0  0  0
   67.7627   39.3736    0.1079 H   0  0  0  0  0  0  0  0  0  0  0  0
   69.6938   40.2223   -1.5395 H   0  0  0  0  0  0  0  0  0  0  0  0
   72.8405   41.7136   -0.9615 H   0  0  0  0  0  0  0  0  0  0  0  0
   71.8504   43.8092   -1.8726 H   0  0  0  0  0  0  0  0  0  0  0  0
  1  2  1  0
  2  3  2  0
  3  4  1  0
  4  5  2  0
  5  6  1  0
  6  7  2  0
  7  8  1  0
  8  9  1  0
  9 10  2  0
 10 11  1  0
 11 12  2  0
 12 13  1  0
 13 14  1  0
 14 15  2  0
 15 16  1  0
 16 17  2  0
 17 18  1  0
 18 19  1  0
 19 20  1  0
 20 21  2  0
 21 22  1  0
 12 23  1  0
 23 24  2  0
  7  2  1  0
 24  9  1  0
 22 14  1  0
 22 18  2  0
  3 25  1  0
  4 26  1  0
  5 27  1  0
  6 28  1  0
 10 29  1  0
 11 30  1  0
 13 31  1  0
 16 32  1  0
 19 33  1  0
 20 34  1  0
 21 35  1  0
 23 36  1  0
 24 37  1  0
M  END
>  <meeko>  (3) 
{"is_sidechain": [false], "free_energy": -7.663, "intermolecular_energy": -9.446, "internal_energy": -0.662}

$$$$
native_9IV_out
     RDKit          3D

 37 40  0  0  0  0  0  0  0  0999 V2000
   72.7890   45.9380   -4.6470 Cl  0  0  0  0  0  0  0  0  0  0  0  0
   73.4320   44.8350   -5.8080 C   0  0  0  0  0  0  0  0  0  0  0  0
   74.4420   45.2800   -6.6640 C   0  0  0  0  0  0  0  0  0  0  0  0
   74.9850   44.4130   -7.6150 C   0  0  0  0  0  0  0  0  0  0  0  0
   74.5240   43.0990   -7.7060 C   0  0  0  0  0  0  0  0  0  0  0  0
   73.5150   42.6510   -6.8520 C   0  0  0  0  0  0  0  0  0  0  0  0
   72.9540   43.5250   -5.9130 C   0  0  0  0  0  0  0  0  0  0  0  0
   71.9860   43.0880   -5.0350 O   0  0  0  0  0  0  0  0  0  0  0  0
   72.3150   42.0330   -4.2160 C   0  0  0  0  0  0  0  0  0  0  0  0
   71.8820   40.7260   -4.4460 C   0  0  0  0  0  0  0  0  0  0  0  0
   72.2330   39.7130   -3.5500 C   0  0  0  0  0  0  0  0  0  0  0  0
   73.0120   39.9870   -2.4170 C   0  0  0  0  0  0  0  0  0  0  0  0
   73.3060   38.9250   -1.5360 N   0  0  0  0  0  0  0  0  0  0  0  0
   72.4150   38.2000   -0.7290 C   0  0  0  0  0  0  0  0  0  0  0  0
   72.9240   37.1270   -0.0730 N   0  0  0  0  0  0  0  0  0  0  0  0
   72.1070   36.4070    0.7220 C   0  0  0  0  0  0  0  0  0  0  0  0
   70.8060   36.6160    0.9810 N   0  0  0  0  0  0  0  0  0  0  0  0
   70.3520   37.7020    0.3400 C   0  0  0  0  0  0  0  0  0  0  0  0
   69.0730   38.1780    0.4320 N   0  0  0  0  0  0  0  0  0  0  0  0
   68.9460   39.3150   -0.3250 C   0  0  0  0  0  0  0  0  0  0  0  0
   70.1680   39.5650   -0.9120 C   0  0  0  0  0  0  0  0  0  0  0  0
   71.0670   38.5350   -0.5070 C   0  0  0  0  0  0  0  0  0  0  0  0
   73.4000   41.3110   -2.1790 C   0  0  0  0  0  0  0  0  0  0  0  0
   73.0530   42.3300   -3.0710 C   0  0  0  0  0  0  0  0  0  0  0  0
   74.8100   46.3139   -6.5892 H   0  0  0  0  0  0  0  0  0  0  0  0
   75.7764   44.7661   -8.2925 H   0  0  0  0  0  0  0  0  0  0  0  0
   74.9563   42.4155   -8.4516 H   0  0  0  0  0  0  0  0  0  0  0  0
   73.1607   41.6116   -6.9167 H   0  0  0  0  0  0  0  0  0  0  0  0
   71.2674   40.4947   -5.3285 H   0  0  0  0  0  0  0  0  0  0  0  0
   71.8926   38.6838   -3.7366 H   0  0  0  0  0  0  0  0  0  0  0  0
   74.2520   38.6600   -1.4810 H   0  0  0  0  0  0  0  0  0  0  0  0
   72.5634   35.5395    1.2211 H   0  0  0  0  0  0  0  0  0  0  0  0
   68.3510   37.7670    0.9610 H   0  0  0  0  0  0  0  0  0  0  0  0
   68.0337   39.9183   -0.4424 H   0  0  0  0  0  0  0  0  0  0  0  0
   70.4071   40.4094   -1.5752 H   0  0  0  0  0  0  0  0  0  0  0  0
   73.9850   41.5524   -1.2792 H   0  0  0  0  0  0  0  0  0  0  0  0
   73.3623   43.3662   -2.8695 H   0  0  0  0  0  0  0  0  0  0  0  0
  1  2  1  0
  2  3  2  0
  3  4  1  0
  4  5  2  0
  5  6  1  0
  6  7  2  0
  7  8  1  0
  8  9  1  0
  9 10  2  0
 10 11  1  0
 11 12  2  0
 12 13  1  0
 13 14  1  0
 14 15  2  0
 15 16  1  0
 16 17  2  0
 17 18  1  0
 18 19  1  0
 19 20  1  0
 20 21  2  0
 21 22  1  0
 12 23  1  0
 23 24  2  0
  7  2  1  0
 24  9  1  0
 22 14  1  0
 22 18  2  0
  3 25  1  0
  4 26  1  0
  5 27  1  0
  6 28  1  0
 10 29  1  0
 11 30  1  0
 13 31  1  0
 16 32  1  0
 19 33  1  0
 20 34  1  0
 21 35  1  0
 23 36  1  0
 24 37  1  0
M  END
>  <meeko>  (4) 
{"is_sidechain": [false], "free_energy": -7.597, "intermolecular_energy": -9.499, "internal_energy": -0.528}

$$$$
native_9IV_out
     RDKit          3D

 37 40  0  0  0  0  0  0  0  0999 V2000
   64.8890   44.6370   -4.4830 Cl  0  0  0  0  0  0  0  0  0  0  0  0
   66.2950   44.5200   -5.4760 C   0  0  0  0  0  0  0  0  0  0  0  0
   66.1350   44.5250   -6.8640 C   0  0  0  0  0  0  0  0  0  0  0  0
   67.2520   44.4320   -7.6970 C   0  0  0  0  0  0  0  0  0  0  0  0
   68.5300   44.3410   -7.1440 C   0  0  0  0  0  0  0  0  0  0  0  0
   68.6940   44.3360   -5.7580 C   0  0  0  0  0  0  0  0  0  0  0  0
   67.5740   44.4070   -4.9210 C   0  0  0  0  0  0  0  0  0  0  0  0
   67.7200   44.4440   -3.5510 O   0  0  0  0  0  0  0  0  0  0  0  0
   68.1510   43.2910   -2.9370 C   0  0  0  0  0  0  0  0  0  0  0  0
   67.7990   42.0150   -3.3790 C   0  0  0  0  0  0  0  0  0  0  0  0
   68.2530   40.8910   -2.6820 C   0  0  0  0  0  0  0  0  0  0  0  0
   69.0580   41.0240   -1.5420 C   0  0  0  0  0  0  0  0  0  0  0  0
   69.4570   39.8510   -0.8680 N   0  0  0  0  0  0  0  0  0  0  0  0
   70.7150   39.2280   -0.8870 C   0  0  0  0  0  0  0  0  0  0  0  0
   71.6510   39.7710   -1.7070 N   0  0  0  0  0  0  0  0  0  0  0  0
   72.8760   39.2110   -1.7490 C   0  0  0  0  0  0  0  0  0  0  0  0
   73.3300   38.1530   -1.0580 N   0  0  0  0  0  0  0  0  0  0  0  0
   72.3860   37.6680   -0.2390 C   0  0  0  0  0  0  0  0  0  0  0  0
   72.5650   36.6090    0.6080 N   0  0  0  0  0  0  0  0  0  0  0  0
   71.4150   36.3870    1.3220 C   0  0  0  0  0  0  0  0  0  0  0  0
   70.4850   37.3210    0.9170 C   0  0  0  0  0  0  0  0  0  0  0  0
   71.0880   38.1330   -0.0880 C   0  0  0  0  0  0  0  0  0  0  0  0
   69.3640   42.3120   -1.0880 C   0  0  0  0  0  0  0  0  0  0  0  0
   68.9140   43.4400   -1.7800 C   0  0  0  0  0  0  0  0  0  0  0  0
   65.1285   44.6023   -7.3009 H   0  0  0  0  0  0  0  0  0  0  0  0
   67.1244   44.4305   -8.7896 H   0  0  0  0  0  0  0  0  0  0  0  0
   69.4093   44.2731   -7.8014 H   0  0  0  0  0  0  0  0  0  0  0  0
   69.7028   44.2763   -5.3235 H   0  0  0  0  0  0  0  0  0  0  0  0
   67.1674   41.8940   -4.2714 H   0  0  0  0  0  0  0  0  0  0  0  0
   67.9741   39.8867   -3.0337 H   0  0  0  0  0  0  0  0  0  0  0  0
   68.7680   39.4160   -0.3150 H   0  0  0  0  0  0  0  0  0  0  0  0
   73.5952   39.6801   -2.4365 H   0  0  0  0  0  0  0  0  0  0  0  0
   73.3940   36.0850    0.6940 H   0  0  0  0  0  0  0  0  0  0  0  0
   71.2623   35.6052    2.0806 H   0  0  0  0  0  0  0  0  0  0  0  0
   69.4593   37.4218    1.3013 H   0  0  0  0  0  0  0  0  0  0  0  0
   69.9657   42.4381   -0.1758 H   0  0  0  0  0  0  0  0  0  0  0  0
   69.1622   44.4462   -1.4112 H   0  0  0  0  0  0  0  0  0  0  0  0
  1  2  1  0
  2  3  2  0
  3  4  1  0
  4  5  2  0
  5  6  1  0
  6  7  2  0
  7  8  1  0
  8  9  1  0
  9 10  2  0
 10 11  1  0
 11 12  2  0
 12 13  1  0
 13 14  1  0
 14 15  2  0
 15 16  1  0
 16 17  2  0
 17 18  1  0
 18 19  1  0
 19 20  1  0
 20 21  2  0
 21 22  1  0
 12 23  1  0
 23 24  2  0
  7  2  1  0
 24  9  1  0
 22 14  1  0
 22 18  2  0
  3 25  1  0
  4 26  1  0
  5 27  1  0
  6 28  1  0
 10 29  1  0
 11 30  1  0
 13 31  1  0
 16 32  1  0
 19 33  1  0
 20 34  1  0
 21 35  1  0
 23 36  1  0
 24 37  1  0
M  END
>  <meeko>  (5) 
{"is_sidechain": [false], "free_energy": -7.494, "intermolecular_energy": -9.237, "internal_energy": -0.661}

$$$$
native_9IV_out
     RDKit          3D

 37 40  0  0  0  0  0  0  0  0999 V2000
   68.1220   38.8550    0.0890 Cl  0  0  0  0  0  0  0  0  0  0  0  0
   69.7840   38.4690   -0.1660 C   0  0  0  0  0  0  0  0  0  0  0  0
   70.3760   37.4960    0.6440 C   0  0  0  0  0  0  0  0  0  0  0  0
   71.7190   37.1590    0.4620 C   0  0  0  0  0  0  0  0  0  0  0  0
   72.4700   37.7880   -0.5300 C   0  0  0  0  0  0  0  0  0  0  0  0
   71.8820   38.7610   -1.3410 C   0  0  0  0  0  0  0  0  0  0  0  0
   70.5420   39.1160   -1.1470 C   0  0  0  0  0  0  0  0  0  0  0  0
   69.9350   40.0450   -1.9640 O   0  0  0  0  0  0  0  0  0  0  0  0
   70.7310   41.0420   -2.4780 C   0  0  0  0  0  0  0  0  0  0  0  0
   70.9980   42.2310   -1.7970 C   0  0  0  0  0  0  0  0  0  0  0  0
   71.7930   43.2100   -2.3990 C   0  0  0  0  0  0  0  0  0  0  0  0
   72.3280   43.0200   -3.6810 C   0  0  0  0  0  0  0  0  0  0  0  0
   73.0960   44.0600   -4.2440 N   0  0  0  0  0  0  0  0  0  0  0  0
   74.3450   44.5410   -3.8180 C   0  0  0  0  0  0  0  0  0  0  0  0
   74.6240   45.8390   -4.0970 N   0  0  0  0  0  0  0  0  0  0  0  0
   75.8080   46.3460   -3.6970 C   0  0  0  0  0  0  0  0  0  0  0  0
   76.7900   45.7280   -3.0220 N   0  0  0  0  0  0  0  0  0  0  0  0
   76.4610   44.4590   -2.7390 C   0  0  0  0  0  0  0  0  0  0  0  0
   77.2520   43.5910   -2.0380 N   0  0  0  0  0  0  0  0  0  0  0  0
   76.6100   42.3860   -1.9030 C   0  0  0  0  0  0  0  0  0  0  0  0
   75.3890   42.4900   -2.5350 C   0  0  0  0  0  0  0  0  0  0  0  0
   75.2890   43.8020   -3.0840 C   0  0  0  0  0  0  0  0  0  0  0  0
   72.0130   41.8400   -4.3660 C   0  0  0  0  0  0  0  0  0  0  0  0
   71.2190   40.8570   -3.7700 C   0  0  0  0  0  0  0  0  0  0  0  0
   69.7842   36.9957    1.4247 H   0  0  0  0  0  0  0  0  0  0  0  0
   72.1852   36.3958    1.1025 H   0  0  0  0  0  0  0  0  0  0  0  0
   73.5265   37.5177   -0.6740 H   0  0  0  0  0  0  0  0  0  0  0  0
   72.4715   39.2481   -2.1317 H   0  0  0  0  0  0  0  0  0  0  0  0
   70.5845   42.3965   -0.7912 H   0  0  0  0  0  0  0  0  0  0  0  0
   72.0024   44.1448   -1.8583 H   0  0  0  0  0  0  0  0  0  0  0  0
   72.7090   44.5030   -5.0330 H   0  0  0  0  0  0  0  0  0  0  0  0
   75.9922   47.3989   -3.9567 H   0  0  0  0  0  0  0  0  0  0  0  0
   78.1460   43.7990   -1.6840 H   0  0  0  0  0  0  0  0  0  0  0  0
   76.9991   41.4975   -1.3843 H   0  0  0  0  0  0  0  0  0  0  0  0
   74.6265   41.7001   -2.6035 H   0  0  0  0  0  0  0  0  0  0  0  0
   72.3953   41.6851   -5.3857 H   0  0  0  0  0  0  0  0  0  0  0  0
   70.9788   39.9359   -4.3213 H   0  0  0  0  0  0  0  0  0  0  0  0
  1  2  1  0
  2  3  2  0
  3  4  1  0
  4  5  2  0
  5  6  1  0
  6  7  2  0
  7  8  1  0
  8  9  1  0
  9 10  2  0
 10 11  1  0
 11 12  2  0
 12 13  1  0
 13 14  1  0
 14 15  2  0
 15 16  1  0
 16 17  2  0
 17 18  1  0
 18 19  1  0
 19 20  1  0
 20 21  2  0
 21 22  1  0
 12 23  1  0
 23 24  2  0
  7  2  1  0
 24  9  1  0
 22 14  1  0
 22 18  2  0
  3 25  1  0
  4 26  1  0
  5 27  1  0
  6 28  1  0
 10 29  1  0
 11 30  1  0
 13 31  1  0
 16 32  1  0
 19 33  1  0
 20 34  1  0
 21 35  1  0
 23 36  1  0
 24 37  1  0
M  END
>  <meeko>  (6) 
{"is_sidechain": [false], "free_energy": -7.428, "intermolecular_energy": -9.224, "internal_energy": -0.593}

$$$$
native_9IV_out
     RDKit          3D

 37 40  0  0  0  0  0  0  0  0999 V2000
   68.1860   38.7280    0.1640 Cl  0  0  0  0  0  0  0  0  0  0  0  0
   69.8650   38.3650    0.0060 C   0  0  0  0  0  0  0  0  0  0  0  0
   70.3960   37.3180    0.7640 C   0  0  0  0  0  0  0  0  0  0  0  0
   71.7510   36.9970    0.6580 C   0  0  0  0  0  0  0  0  0  0  0  0
   72.5750   37.7170   -0.2080 C   0  0  0  0  0  0  0  0  0  0  0  0
   72.0470   38.7630   -0.9670 C   0  0  0  0  0  0  0  0  0  0  0  0
   70.6940   39.1000   -0.8470 C   0  0  0  0  0  0  0  0  0  0  0  0
   70.1480   40.1040   -1.6170 O   0  0  0  0  0  0  0  0  0  0  0  0
   71.0130   40.8300   -2.4030 C   0  0  0  0  0  0  0  0  0  0  0  0
   71.6900   41.9610   -1.9460 C   0  0  0  0  0  0  0  0  0  0  0  0
   72.5280   42.6640   -2.8150 C   0  0  0  0  0  0  0  0  0  0  0  0
   72.7010   42.2530   -4.1440 C   0  0  0  0  0  0  0  0  0  0  0  0
   73.5380   43.0230   -4.9780 N   0  0  0  0  0  0  0  0  0  0  0  0
   74.9340   42.9510   -5.1070 C   0  0  0  0  0  0  0  0  0  0  0  0
   75.4120   42.3000   -6.1970 N   0  0  0  0  0  0  0  0  0  0  0  0
   76.7470   42.2160   -6.3660 C   0  0  0  0  0  0  0  0  0  0  0  0
   77.7160   42.7160   -5.5830 N   0  0  0  0  0  0  0  0  0  0  0  0
   77.2020   43.3770   -4.5360 C   0  0  0  0  0  0  0  0  0  0  0  0
   77.9440   44.0160   -3.5820 N   0  0  0  0  0  0  0  0  0  0  0  0
   77.1120   44.6130   -2.6700 C   0  0  0  0  0  0  0  0  0  0  0  0
   75.8140   44.3450   -3.0510 C   0  0  0  0  0  0  0  0  0  0  0  0
   75.8600   43.5460   -4.2300 C   0  0  0  0  0  0  0  0  0  0  0  0
   71.9800   41.1420   -4.5970 C   0  0  0  0  0  0  0  0  0  0  0  0
   71.1390   40.4340   -3.7330 C   0  0  0  0  0  0  0  0  0  0  0  0
   69.7469   36.7468    1.4440 H   0  0  0  0  0  0  0  0  0  0  0  0
   72.1694   36.1754    1.2580 H   0  0  0  0  0  0  0  0  0  0  0  0
   73.6412   37.4602   -0.2927 H   0  0  0  0  0  0  0  0  0  0  0  0
   72.6941   39.3220   -1.6590 H   0  0  0  0  0  0  0  0  0  0  0  0
   71.5645   42.2976   -0.9063 H   0  0  0  0  0  0  0  0  0  0  0  0
   73.0608   43.5546   -2.4504 H   0  0  0  0  0  0  0  0  0  0  0  0
   73.0870   43.6950   -5.5390 H   0  0  0  0  0  0  0  0  0  0  0  0
   77.0849   41.6686   -7.2583 H   0  0  0  0  0  0  0  0  0  0  0  0
   78.9280   44.0430   -3.5530 H   0  0  0  0  0  0  0  0  0  0  0  0
   77.4236   45.1996   -1.7931 H   0  0  0  0  0  0  0  0  0  0  0  0
   74.9043   44.6874   -2.5360 H   0  0  0  0  0  0  0  0  0  0  0  0
   72.0762   40.8221   -5.6451 H   0  0  0  0  0  0  0  0  0  0  0  0
   70.5767   39.5641   -4.1033 H   0  0  0  0  0  0  0  0  0  0  0  0
  1  2  1  0
  2  3  2  0
  3  4  1  0
  4  5  2  0
  5  6  1  0
  6  7  2  0
  7  8  1  0
  8  9  1  0
  9 10  2  0
 10 11  1  0
 11 12  2  0
 12 13  1  0
 13 14  1  0
 14 15  2  0
 15 16  1  0
 16 17  2  0
 17 18  1  0
 18 19  1  0
 19 20  1  0
 20 21  2  0
 21 22  1  0
 12 23  1  0
 23 24  2  0
  7  2  1  0
 24  9  1  0
 22 14  1  0
 22 18  2  0
  3 25  1  0
  4 26  1  0
  5 27  1  0
  6 28  1  0
 10 29  1  0
 11 30  1  0
 13 31  1  0
 16 32  1  0
 19 33  1  0
 20 34  1  0
 21 35  1  0
 23 36  1  0
 24 37  1  0
M  END
>  <meeko>  (7) 
{"is_sidechain": [false], "free_energy": -7.347, "intermolecular_energy": -9.112, "internal_energy": -0.606}

$$$$
native_9IV_out
     RDKit          3D

 37 40  0  0  0  0  0  0  0  0999 V2000
   70.2980   44.3220   -5.0710 Cl  0  0  0  0  0  0  0  0  0  0  0  0
   68.6890   44.3820   -5.6890 C   0  0  0  0  0  0  0  0  0  0  0  0
   68.5010   44.3230   -7.0720 C   0  0  0  0  0  0  0  0  0  0  0  0
   67.2110   44.3690   -7.6050 C   0  0  0  0  0  0  0  0  0  0  0  0
   66.1070   44.4660   -6.7570 C   0  0  0  0  0  0  0  0  0  0  0  0
   66.2910   44.5250   -5.3740 C   0  0  0  0  0  0  0  0  0  0  0  0
   67.5840   44.5010   -4.8390 C   0  0  0  0  0  0  0  0  0  0  0  0
   67.7820   44.5180   -3.4750 O   0  0  0  0  0  0  0  0  0  0  0  0
   68.1920   43.3430   -2.8880 C   0  0  0  0  0  0  0  0  0  0  0  0
   67.7790   42.0850   -3.3310 C   0  0  0  0  0  0  0  0  0  0  0  0
   68.2150   40.9390   -2.6620 C   0  0  0  0  0  0  0  0  0  0  0  0
   69.0610   41.0290   -1.5480 C   0  0  0  0  0  0  0  0  0  0  0  0
   69.4400   39.8350   -0.8990 N   0  0  0  0  0  0  0  0  0  0  0  0
   70.7020   39.2200   -0.8880 C   0  0  0  0  0  0  0  0  0  0  0  0
   71.6490   39.7580   -1.6970 N   0  0  0  0  0  0  0  0  0  0  0  0
   72.8780   39.2060   -1.7100 C   0  0  0  0  0  0  0  0  0  0  0  0
   73.3260   38.1600   -0.9970 N   0  0  0  0  0  0  0  0  0  0  0  0
   72.3710   37.6790   -0.1880 C   0  0  0  0  0  0  0  0  0  0  0  0
   72.5410   36.6330    0.6760 N   0  0  0  0  0  0  0  0  0  0  0  0
   71.3790   36.4120    1.3710 C   0  0  0  0  0  0  0  0  0  0  0  0
   70.4510   37.3350    0.9370 C   0  0  0  0  0  0  0  0  0  0  0  0
   71.0670   38.1370   -0.0670 C   0  0  0  0  0  0  0  0  0  0  0  0
   69.4290   42.3000   -1.0910 C   0  0  0  0  0  0  0  0  0  0  0  0
   68.9960   43.4510   -1.7550 C   0  0  0  0  0  0  0  0  0  0  0  0
   69.3697   44.2403   -7.7417 H   0  0  0  0  0  0  0  0  0  0  0  0
   67.0650   44.3287   -8.6945 H   0  0  0  0  0  0  0  0  0  0  0  0
   65.0913   44.4960   -7.1782 H   0  0  0  0  0  0  0  0  0  0  0  0
   65.4200   44.5903   -4.7053 H   0  0  0  0  0  0  0  0  0  0  0  0
   67.1136   41.9968   -4.2025 H   0  0  0  0  0  0  0  0  0  0  0  0
   67.8891   39.9495   -3.0152 H   0  0  0  0  0  0  0  0  0  0  0  0
   68.7310   39.3760   -0.3930 H   0  0  0  0  0  0  0  0  0  0  0  0
   73.6064   39.6709   -2.3907 H   0  0  0  0  0  0  0  0  0  0  0  0
   73.3710   36.1150    0.7830 H   0  0  0  0  0  0  0  0  0  0  0  0
   71.2169   35.6384    2.1361 H   0  0  0  0  0  0  0  0  0  0  0  0
   69.4179   37.4346    1.3014 H   0  0  0  0  0  0  0  0  0  0  0  0
   70.0661   42.3938   -0.1992 H   0  0  0  0  0  0  0  0  0  0  0  0
   69.2902   44.4434   -1.3828 H   0  0  0  0  0  0  0  0  0  0  0  0
  1  2  1  0
  2  3  2  0
  3  4  1  0
  4  5  2  0
  5  6  1  0
  6  7  2  0
  7  8  1  0
  8  9  1  0
  9 10  2  0
 10 11  1  0
 11 12  2  0
 12 13  1  0
 13 14  1  0
 14 15  2  0
 15 16  1  0
 16 17  2  0
 17 18  1  0
 18 19  1  0
 19 20  1  0
 20 21  2  0
 21 22  1  0
 12 23  1  0
 23 24  2  0
  7  2  1  0
 24  9  1  0
 22 14  1  0
 22 18  2  0
  3 25  1  0
  4 26  1  0
  5 27  1  0
  6 28  1  0
 10 29  1  0
 11 30  1  0
 13 31  1  0
 16 32  1  0
 19 33  1  0
 20 34  1  0
 21 35  1  0
 23 36  1  0
 24 37  1  0
M  END
>  <meeko>  (8) 
{"is_sidechain": [false], "free_energy": -7.346, "intermolecular_energy": -9.245, "internal_energy": -0.471}

$$$$
native_9IV_out
     RDKit          3D

 37 40  0  0  0  0  0  0  0  0999 V2000
   73.3870   39.0370   -1.4270 Cl  0  0  0  0  0  0  0  0  0  0  0  0
   72.2420   38.3610   -0.3270 C   0  0  0  0  0  0  0  0  0  0  0  0
   72.2770   36.9850   -0.0890 C   0  0  0  0  0  0  0  0  0  0  0  0
   71.3650   36.4060    0.7970 C   0  0  0  0  0  0  0  0  0  0  0  0
   70.4220   37.2010    1.4490 C   0  0  0  0  0  0  0  0  0  0  0  0
   70.3850   38.5770    1.2140 C   0  0  0  0  0  0  0  0  0  0  0  0
   71.2840   39.1560    0.3100 C   0  0  0  0  0  0  0  0  0  0  0  0
   71.2880   40.5170    0.0960 O   0  0  0  0  0  0  0  0  0  0  0  0
   70.2730   41.0310   -0.6780 C   0  0  0  0  0  0  0  0  0  0  0  0
   69.5120   40.2530   -1.5510 C   0  0  0  0  0  0  0  0  0  0  0  0
   68.5190   40.8540   -2.3280 C   0  0  0  0  0  0  0  0  0  0  0  0
   68.2730   42.2320   -2.2480 C   0  0  0  0  0  0  0  0  0  0  0  0
   67.2770   42.7820   -3.0810 N   0  0  0  0  0  0  0  0  0  0  0  0
   66.6490   44.0330   -2.9690 C   0  0  0  0  0  0  0  0  0  0  0  0
   65.5170   44.0810   -2.2200 N   0  0  0  0  0  0  0  0  0  0  0  0
   64.8870   45.2640   -2.0770 C   0  0  0  0  0  0  0  0  0  0  0  0
   65.2380   46.4580   -2.5800 N   0  0  0  0  0  0  0  0  0  0  0  0
   66.3760   46.3720   -3.2850 C   0  0  0  0  0  0  0  0  0  0  0  0
   66.9920   47.4310   -3.8940 N   0  0  0  0  0  0  0  0  0  0  0  0
   68.1440   47.0060   -4.5070 C   0  0  0  0  0  0  0  0  0  0  0  0
   68.2600   45.6500   -4.2850 C   0  0  0  0  0  0  0  0  0  0  0  0
   67.1310   45.2330   -3.5210 C   0  0  0  0  0  0  0  0  0  0  0  0
   69.0760   43.0040   -1.4000 C   0  0  0  0  0  0  0  0  0  0  0  0
   70.0720   42.4090   -0.6200 C   0  0  0  0  0  0  0  0  0  0  0  0
   73.0225   36.3573   -0.5991 H   0  0  0  0  0  0  0  0  0  0  0  0
   71.3905   35.3218    0.9808 H   0  0  0  0  0  0  0  0  0  0  0  0
   69.7071   36.7436    2.1487 H   0  0  0  0  0  0  0  0  0  0  0  0
   69.6503   39.2055    1.7386 H   0  0  0  0  0  0  0  0  0  0  0  0
   69.6933   39.1707   -1.6271 H   0  0  0  0  0  0  0  0  0  0  0  0
   67.9204   40.2363   -3.0137 H   0  0  0  0  0  0  0  0  0  0  0  0
   66.9850   42.2190   -3.8340 H   0  0  0  0  0  0  0  0  0  0  0  0
   63.9689   45.2491   -1.4713 H   0  0  0  0  0  0  0  0  0  0  0  0
   66.6590   48.3570   -3.8940 H   0  0  0  0  0  0  0  0  0  0  0  0
   68.8478   47.6338   -5.0732 H   0  0  0  0  0  0  0  0  0  0  0  0
   69.0788   45.0044   -4.6354 H   0  0  0  0  0  0  0  0  0  0  0  0
   68.9214   44.0918   -1.3468 H   0  0  0  0  0  0  0  0  0  0  0  0
   70.6972   43.0286    0.0397 H   0  0  0  0  0  0  0  0  0  0  0  0
  1  2  1  0
  2  3  2  0
  3  4  1  0
  4  5  2  0
  5  6  1  0
  6  7  2  0
  7  8  1  0
  8  9  1  0
  9 10  2  0
 10 11  1  0
 11 12  2  0
 12 13  1  0
 13 14  1  0
 14 15  2  0
 15 16  1  0
 16 17  2  0
 17 18  1  0
 18 19  1  0
 19 20  1  0
 20 21  2  0
 21 22  1  0
 12 23  1  0
 23 24  2  0
  7  2  1  0
 24  9  1  0
 22 14  1  0
 22 18  2  0
  3 25  1  0
  4 26  1  0
  5 27  1  0
  6 28  1  0
 10 29  1  0
 11 30  1  0
 13 31  1  0
 16 32  1  0
 19 33  1  0
 20 34  1  0
 21 35  1  0
 23 36  1  0
 24 37  1  0
M  END
>  <meeko>  (9) 
{"is_sidechain": [false], "free_energy": -7.245, "intermolecular_energy": -8.873, "internal_energy": -0.718}

$$$$
