9IV_ttbk2_out
     RDKit          3D

 37 40  0  0  0  0  0  0  0  0999 V2000
   47.7870   27.6960  -12.1660 Cl  0  0  0  0  0  0  0  0  0  0  0  0
   47.1190   26.1940  -12.6880 C   0  0  0  0  0  0  0  0  0  0  0  0
   47.9780   25.1070  -12.8690 C   0  0  0  0  0  0  0  0  0  0  0  0
   47.4700   23.8760  -13.2910 C   0  0  0  0  0  0  0  0  0  0  0  0
   46.1020   23.7280  -13.5250 C   0  0  0  0  0  0  0  0  0  0  0  0
   45.2410   24.8120  -13.3450 C   0  0  0  0  0  0  0  0  0  0  0  0
   45.7510   26.0520  -12.9430 C   0  0  0  0  0  0  0  0  0  0  0  0
   44.9110   27.1210  -12.7230 O   0  0  0  0  0  0  0  0  0  0  0  0
   43.5760   26.9350  -13.0010 C   0  0  0  0  0  0  0  0  0  0  0  0
   43.0900   26.7210  -14.2920 C   0  0  0  0  0  0  0  0  0  0  0  0
   41.7160   26.5720  -14.4980 C   0  0  0  0  0  0  0  0  0  0  0  0
   40.8130   26.6360  -13.4270 C   0  0  0  0  0  0  0  0  0  0  0  0
   39.4360   26.5080  -13.7070 N   0  0  0  0  0  0  0  0  0  0  0  0
   38.6250   27.3630  -14.4700 C   0  0  0  0  0  0  0  0  0  0  0  0
   38.1480   28.4690  -13.8430 N   0  0  0  0  0  0  0  0  0  0  0  0
   37.3740   29.3230  -14.5400 C   0  0  0  0  0  0  0  0  0  0  0  0
   36.9980   29.2430  -15.8270 N   0  0  0  0  0  0  0  0  0  0  0  0
   37.5160   28.1550  -16.4170 C   0  0  0  0  0  0  0  0  0  0  0  0
   37.3290   27.8220  -17.7300 N   0  0  0  0  0  0  0  0  0  0  0  0
   38.0130   26.6690  -18.0170 C   0  0  0  0  0  0  0  0  0  0  0  0
   38.6450   26.2590  -16.8620 C   0  0  0  0  0  0  0  0  0  0  0  0
   38.3230   27.1900  -15.8320 C   0  0  0  0  0  0  0  0  0  0  0  0
   41.3140   26.8960  -12.1460 C   0  0  0  0  0  0  0  0  0  0  0  0
   42.6880   27.0460  -11.9330 C   0  0  0  0  0  0  0  0  0  0  0  0
   49.0555   25.2207  -12.6790 H   0  0  0  0  0  0  0  0  0  0  0  0
   48.1485   23.0229  -13.4389 H   0  0  0  0  0  0  0  0  0  0  0  0
   45.7021   22.7567  -13.8514 H   0  0  0  0  0  0  0  0  0  0  0  0
   44.1616   24.6917  -13.5191 H   0  0  0  0  0  0  0  0  0  0  0  0
   43.7852   26.6699  -15.1429 H   0  0  0  0  0  0  0  0  0  0  0  0
   41.3367   26.4018  -15.5164 H   0  0  0  0  0  0  0  0  0  0  0  0
   38.9890   25.7210  -13.3190 H   0  0  0  0  0  0  0  0  0  0  0  0
   37.0027   30.1969  -13.9847 H   0  0  0  0  0  0  0  0  0  0  0  0
   36.7850   28.3330  -18.3720 H   0  0  0  0  0  0  0  0  0  0  0  0
   38.0508   26.1623  -18.9926 H   0  0  0  0  0  0  0  0  0  0  0  0
   39.2846   25.3705  -16.7546 H   0  0  0  0  0  0  0  0  0  0  0  0
   40.6193   26.9833  -11.2976 H   0  0  0  0  0  0  0  0  0  0  0  0
   43.0680   27.2518  -10.9215 H   0  0  0  0  0  0  0  0  0  0  0  0
  1  2  1  0
  2  3  2  0
  3  4  1  0
  4  5  2  0
  5  6  1  0
  6  7  2  0
  7  8  1  0
  8  9  1  0
  9 10  2  0
 10 11  1  0
 11 12  2  0
 12 13  1  0
 13 14  1  0
 14 15  2  0
 15 16  1  0
 16 17  2  0
 17 18  1  0
 18 19  1  0
 19 20  1  0
 20 21  2  0
 21 22  1  0
 12 23  1  0
 23 24  2  0
  7  2  1  0
 24  9  1  0
 22 14  1  0
 22 18  2  0
  3 25  1  0
  4 26  1  0
  5 27  1  0
  6 28  1  0
 10 29  1  0
 11 30  1  0
 13 31  1  0
 16 32  1  0
 19 33  1  0
 20 34  1  0
 21 35  1  0
 23 36  1  0
 24 37  1  0
M  END
>  <meeko>  (1) 
{"is_sidechain": [false], "free_energy": -1.02, "intermolecular_energy": -1.258, "internal_energy": -0.387}

$$$$
9IV_ttbk2_out
     RDKit          3D

 37 40  0  0  0  0  0  0  0  0999 V2000
   47.5000   28.0190  -11.9450 Cl  0  0  0  0  0  0  0  0  0  0  0  0
   47.0700   26.4410  -12.4970 C   0  0  0  0  0  0  0  0  0  0  0  0
   48.0770   25.4810  -12.6270 C   0  0  0  0  0  0  0  0  0  0  0  0
   47.7620   24.1950  -13.0700 C   0  0  0  0  0  0  0  0  0  0  0  0
   46.4420   23.8640  -13.3760 C   0  0  0  0  0  0  0  0  0  0  0  0
   45.4330   24.8200  -13.2460 C   0  0  0  0  0  0  0  0  0  0  0  0
   45.7500   26.1170  -12.8230 C   0  0  0  0  0  0  0  0  0  0  0  0
   44.7610   27.0620  -12.6510 O   0  0  0  0  0  0  0  0  0  0  0  0
   43.5400   26.8020  -13.2290 C   0  0  0  0  0  0  0  0  0  0  0  0
   42.3300   26.9410  -12.5480 C   0  0  0  0  0  0  0  0  0  0  0  0
   41.1320   26.6270  -13.1950 C   0  0  0  0  0  0  0  0  0  0  0  0
   41.1230   26.1710  -14.5210 C   0  0  0  0  0  0  0  0  0  0  0  0
   39.8830   25.8430  -15.1060 N   0  0  0  0  0  0  0  0  0  0  0  0
   39.0090   26.6850  -15.8120 C   0  0  0  0  0  0  0  0  0  0  0  0
   38.7210   26.3290  -17.0900 N   0  0  0  0  0  0  0  0  0  0  0  0
   37.8790   27.1040  -17.8020 C   0  0  0  0  0  0  0  0  0  0  0  0
   37.2450   28.2210  -17.4090 N   0  0  0  0  0  0  0  0  0  0  0  0
   37.5320   28.5180  -16.1330 C   0  0  0  0  0  0  0  0  0  0  0  0
   37.0130   29.5840  -15.4500 N   0  0  0  0  0  0  0  0  0  0  0  0
   37.4890   29.5860  -14.1640 C   0  0  0  0  0  0  0  0  0  0  0  0
   38.3300   28.5010  -14.0280 C   0  0  0  0  0  0  0  0  0  0  0  0
   38.3760   27.8230  -15.2810 C   0  0  0  0  0  0  0  0  0  0  0  0
   42.3500   25.9950  -15.1730 C   0  0  0  0  0  0  0  0  0  0  0  0
   43.5520   26.3070  -14.5320 C   0  0  0  0  0  0  0  0  0  0  0  0
   49.1176   25.7384  -12.3804 H   0  0  0  0  0  0  0  0  0  0  0  0
   48.5561   23.4415  -13.1779 H   0  0  0  0  0  0  0  0  0  0  0  0
   46.1958   22.8486  -13.7201 H   0  0  0  0  0  0  0  0  0  0  0  0
   44.3904   24.5550  -13.4755 H   0  0  0  0  0  0  0  0  0  0  0  0
   42.3193   27.2960  -11.5069 H   0  0  0  0  0  0  0  0  0  0  0  0
   40.1802   26.7394  -12.6552 H   0  0  0  0  0  0  0  0  0  0  0  0
   39.5930   24.9070  -15.0060 H   0  0  0  0  0  0  0  0  0  0  0  0
   37.6867   26.7809  -18.8357 H   0  0  0  0  0  0  0  0  0  0  0  0
   36.3930   30.2500  -15.8250 H   0  0  0  0  0  0  0  0  0  0  0  0
   37.2444   30.3201  -13.3822 H   0  0  0  0  0  0  0  0  0  0  0  0
   38.8695   28.2105  -13.1145 H   0  0  0  0  0  0  0  0  0  0  0  0
   42.3678   25.6065  -16.2020 H   0  0  0  0  0  0  0  0  0  0  0  0
   44.5082   26.1619  -15.0561 H   0  0  0  0  0  0  0  0  0  0  0  0
  1  2  1  0
  2  3  2  0
  3  4  1  0
  4  5  2  0
  5  6  1  0
  6  7  2  0
  7  8  1  0
  8  9  1  0
  9 10  2  0
 10 11  1  0
 11 12  2  0
 12 13  1  0
 13 14  1  0
 14 15  2  0
 15 16  1  0
 16 17  2  0
 17 18  1  0
 18 19  1  0
 19 20  1  0
 20 21  2  0
 21 22  1  0
 12 23  1  0
 23 24  2  0
  7  2  1  0
 24  9  1  0
 22 14  1  0
 22 18  2  0
  3 25  1  0
  4 26  1  0
  5 27  1  0
  6 28  1  0
 10 29  1  0
 11 30  1  0
 13 31  1  0
 16 32  1  0
 19 33  1  0
 20 34  1  0
 21 35  1  0
 23 36  1  0
 24 37  1  0
M  END
>  <meeko>  (2) 
{"is_sidechain": [false], "free_energy": -0.386, "intermolecular_energy": -0.939, "internal_energy": 0.076}

$$$$
9IV_ttbk2_out
     RDKit          3D

 37 40  0  0  0  0  0  0  0  0999 V2000
   37.9650   29.0410  -14.2000 Cl  0  0  0  0  0  0  0  0  0  0  0  0
   38.0030   28.0410  -15.6050 C   0  0  0  0  0  0  0  0  0  0  0  0
   37.6620   28.6060  -16.8370 C   0  0  0  0  0  0  0  0  0  0  0  0
   37.6840   27.8240  -17.9940 C   0  0  0  0  0  0  0  0  0  0  0  0
   38.0530   26.4800  -17.9230 C   0  0  0  0  0  0  0  0  0  0  0  0
   38.3950   25.9130  -16.6940 C   0  0  0  0  0  0  0  0  0  0  0  0
   38.3530   26.6890  -15.5300 C   0  0  0  0  0  0  0  0  0  0  0  0
   38.7250   26.1560  -14.3150 O   0  0  0  0  0  0  0  0  0  0  0  0
   39.9610   26.5130  -13.8270 C   0  0  0  0  0  0  0  0  0  0  0  0
   40.1720   26.9140  -12.5070 C   0  0  0  0  0  0  0  0  0  0  0  0
   41.4530   27.2920  -12.0950 C   0  0  0  0  0  0  0  0  0  0  0  0
   42.5330   27.2780  -12.9880 C   0  0  0  0  0  0  0  0  0  0  0  0
   43.7940   27.7000  -12.5170 N   0  0  0  0  0  0  0  0  0  0  0  0
   45.0360   27.0680  -12.6850 C   0  0  0  0  0  0  0  0  0  0  0  0
   46.1330   27.7720  -12.3070 N   0  0  0  0  0  0  0  0  0  0  0  0
   47.3460   27.2000  -12.4410 C   0  0  0  0  0  0  0  0  0  0  0  0
   47.6400   25.9740  -12.9040 N   0  0  0  0  0  0  0  0  0  0  0  0
   46.5280   25.3020  -13.2370 C   0  0  0  0  0  0  0  0  0  0  0  0
   46.5100   24.0210  -13.7140 N   0  0  0  0  0  0  0  0  0  0  0  0
   45.2150   23.6240  -13.9290 C   0  0  0  0  0  0  0  0  0  0  0  0
   44.3930   24.6770  -13.5850 C   0  0  0  0  0  0  0  0  0  0  0  0
   45.2200   25.7560  -13.1570 C   0  0  0  0  0  0  0  0  0  0  0  0
   42.2940   26.9160  -14.3190 C   0  0  0  0  0  0  0  0  0  0  0  0
   41.0150   26.5360  -14.7380 C   0  0  0  0  0  0  0  0  0  0  0  0
   37.3763   29.6666  -16.8954 H   0  0  0  0  0  0  0  0  0  0  0  0
   37.4101   28.2680  -18.9624 H   0  0  0  0  0  0  0  0  0  0  0  0
   38.0744   25.8670  -18.8361 H   0  0  0  0  0  0  0  0  0  0  0  0
   38.6974   24.8567  -16.6405 H   0  0  0  0  0  0  0  0  0  0  0  0
   39.3343   26.9325  -11.7943 H   0  0  0  0  0  0  0  0  0  0  0  0
   41.6160   27.6055  -11.0533 H   0  0  0  0  0  0  0  0  0  0  0  0
   43.8040   28.5420  -12.0070 H   0  0  0  0  0  0  0  0  0  0  0  0
   48.2039   27.8152  -12.1320 H   0  0  0  0  0  0  0  0  0  0  0  0
   47.3070   23.4660  -13.8780 H   0  0  0  0  0  0  0  0  0  0  0  0
   44.8905   22.6434  -14.3073 H   0  0  0  0  0  0  0  0  0  0  0  0
   43.2940   24.6829  -13.6326 H   0  0  0  0  0  0  0  0  0  0  0  0
   43.1216   26.9306  -15.0435 H   0  0  0  0  0  0  0  0  0  0  0  0
   40.8410   26.2551  -15.7872 H   0  0  0  0  0  0  0  0  0  0  0  0
  1  2  1  0
  2  3  2  0
  3  4  1  0
  4  5  2  0
  5  6  1  0
  6  7  2  0
  7  8  1  0
  8  9  1  0
  9 10  2  0
 10 11  1  0
 11 12  2  0
 12 13  1  0
 13 14  1  0
 14 15  2  0
 15 16  1  0
 16 17  2  0
 17 18  1  0
 18 19  1  0
 19 20  1  0
 20 21  2  0
 21 22  1  0
 12 23  1  0
 23 24  2  0
  7  2  1  0
 24  9  1  0
 22 14  1  0
 22 18  2  0
  3 25  1  0
  4 26  1  0
  5 27  1  0
  6 28  1  0
 10 29  1  0
 11 30  1  0
 13 31  1  0
 16 32  1  0
 19 33  1  0
 20 34  1  0
 21 35  1  0
 23 36  1  0
 24 37  1  0
M  END
>  <meeko>  (3) 
{"is_sidechain": [false], "free_energy": 0.435, "intermolecular_energy": 0.091, "internal_energy": 0.059}

$$$$
9IV_ttbk2_out
     RDKit          3D

 37 40  0  0  0  0  0  0  0  0999 V2000
   37.7080   29.3560  -14.4240 Cl  0  0  0  0  0  0  0  0  0  0  0  0
   37.8940   28.2010  -15.6910 C   0  0  0  0  0  0  0  0  0  0  0  0
   37.6330   28.6010  -17.0040 C   0  0  0  0  0  0  0  0  0  0  0  0
   37.7750   27.6900  -18.0540 C   0  0  0  0  0  0  0  0  0  0  0  0
   38.1830   26.3820  -17.7940 C   0  0  0  0  0  0  0  0  0  0  0  0
   38.4450   25.9780  -16.4840 C   0  0  0  0  0  0  0  0  0  0  0  0
   38.2830   26.8830  -15.4270 C   0  0  0  0  0  0  0  0  0  0  0  0
   38.5750   26.5130  -14.1330 O   0  0  0  0  0  0  0  0  0  0  0  0
   39.8810   26.6540  -13.7220 C   0  0  0  0  0  0  0  0  0  0  0  0
   40.9720   26.4550  -14.5690 C   0  0  0  0  0  0  0  0  0  0  0  0
   42.2700   26.5860  -14.0680 C   0  0  0  0  0  0  0  0  0  0  0  0
   42.4970   26.9130  -12.7240 C   0  0  0  0  0  0  0  0  0  0  0  0
   43.8310   27.0000  -12.2750 N   0  0  0  0  0  0  0  0  0  0  0  0
   44.9260   26.2080  -12.6570 C   0  0  0  0  0  0  0  0  0  0  0  0
   44.6450   24.9630  -13.1170 N   0  0  0  0  0  0  0  0  0  0  0  0
   45.6650   24.1720  -13.5050 C   0  0  0  0  0  0  0  0  0  0  0  0
   46.9780   24.4540  -13.5130 N   0  0  0  0  0  0  0  0  0  0  0  0
   47.2090   25.7020  -13.0820 C   0  0  0  0  0  0  0  0  0  0  0  0
   48.4460   26.2800  -13.0050 N   0  0  0  0  0  0  0  0  0  0  0  0
   48.3290   27.5680  -12.5490 C   0  0  0  0  0  0  0  0  0  0  0  0
   46.9900   27.8130  -12.3290 C   0  0  0  0  0  0  0  0  0  0  0  0
   46.2690   26.6260  -12.6510 C   0  0  0  0  0  0  0  0  0  0  0  0
   41.3910   27.0640  -11.8790 C   0  0  0  0  0  0  0  0  0  0  0  0
   40.0900   26.9350  -12.3730 C   0  0  0  0  0  0  0  0  0  0  0  0
   37.3156   29.6336  -17.2113 H   0  0  0  0  0  0  0  0  0  0  0  0
   37.5647   28.0049  -19.0868 H   0  0  0  0  0  0  0  0  0  0  0  0
   38.2985   25.6677  -18.6225 H   0  0  0  0  0  0  0  0  0  0  0  0
   38.7785   24.9495  -16.2816 H   0  0  0  0  0  0  0  0  0  0  0  0
   40.8111   26.1963  -15.6260 H   0  0  0  0  0  0  0  0  0  0  0  0
   43.1274   26.4300  -14.7392 H   0  0  0  0  0  0  0  0  0  0  0  0
   44.0170   27.7030  -11.6110 H   0  0  0  0  0  0  0  0  0  0  0  0
   45.3869   23.1687  -13.8600 H   0  0  0  0  0  0  0  0  0  0  0  0
   49.2940   25.8380  -13.2400 H   0  0  0  0  0  0  0  0  0  0  0  0
   49.1541   28.2774  -12.3879 H   0  0  0  0  0  0  0  0  0  0  0  0
   46.5552   28.7570  -11.9689 H   0  0  0  0  0  0  0  0  0  0  0  0
   41.5479   27.2869  -10.8133 H   0  0  0  0  0  0  0  0  0  0  0  0
   39.2307   27.0553  -11.6969 H   0  0  0  0  0  0  0  0  0  0  0  0
  1  2  1  0
  2  3  2  0
  3  4  1  0
  4  5  2  0
  5  6  1  0
  6  7  2  0
  7  8  1  0
  8  9  1  0
  9 10  2  0
 10 11  1  0
 11 12  2  0
 12 13  1  0
 13 14  1  0
 14 15  2  0
 15 16  1  0
 16 17  2  0
 17 18  1  0
 18 19  1  0
 19 20  1  0
 20 21  2  0
 21 22  1  0
 12 23  1  0
 23 24  2  0
  7  2  1  0
 24  9  1  0
 22 14  1  0
 22 18  2  0
  3 25  1  0
  4 26  1  0
  5 27  1  0
  6 28  1  0
 10 29  1  0
 11 30  1  0
 13 31  1  0
 16 32  1  0
 19 33  1  0
 20 34  1  0
 21 35  1  0
 23 36  1  0
 24 37  1  0
M  END
>  <meeko>  (4) 
{"is_sidechain": [false], "free_energy": 0.554, "intermolecular_energy": 0.49, "internal_energy": -0.193}

$$$$
9IV_ttbk2_out
     RDKit          3D

 37 40  0  0  0  0  0  0  0  0999 V2000
   47.7320   28.0400  -10.6720 Cl  0  0  0  0  0  0  0  0  0  0  0  0
   48.1690   27.7110  -12.3080 C   0  0  0  0  0  0  0  0  0  0  0  0
   49.2000   28.4560  -12.8870 C   0  0  0  0  0  0  0  0  0  0  0  0
   49.5800   28.2150  -14.2090 C   0  0  0  0  0  0  0  0  0  0  0  0
   48.9350   27.2260  -14.9520 C   0  0  0  0  0  0  0  0  0  0  0  0
   47.9050   26.4790  -14.3780 C   0  0  0  0  0  0  0  0  0  0  0  0
   47.5080   26.7340  -13.0590 C   0  0  0  0  0  0  0  0  0  0  0  0
   46.5200   25.9800  -12.4640 O   0  0  0  0  0  0  0  0  0  0  0  0
   45.2870   25.9700  -13.0740 C   0  0  0  0  0  0  0  0  0  0  0  0
   44.8400   24.9160  -13.8710 C   0  0  0  0  0  0  0  0  0  0  0  0
   43.5860   24.9940  -14.4830 C   0  0  0  0  0  0  0  0  0  0  0  0
   42.7660   26.1180  -14.3110 C   0  0  0  0  0  0  0  0  0  0  0  0
   41.5250   26.1470  -14.9810 N   0  0  0  0  0  0  0  0  0  0  0  0
   40.4170   26.9650  -14.7120 C   0  0  0  0  0  0  0  0  0  0  0  0
   40.4280   27.6380  -13.5330 N   0  0  0  0  0  0  0  0  0  0  0  0
   39.3880   28.4430  -13.2380 C   0  0  0  0  0  0  0  0  0  0  0  0
   38.2990   28.6980  -13.9800 N   0  0  0  0  0  0  0  0  0  0  0  0
   38.3420   28.0400  -15.1480 C   0  0  0  0  0  0  0  0  0  0  0  0
   37.3840   28.1230  -16.1210 N   0  0  0  0  0  0  0  0  0  0  0  0
   37.7450   27.3490  -17.1940 C   0  0  0  0  0  0  0  0  0  0  0  0
   38.9560   26.7590  -16.8950 C   0  0  0  0  0  0  0  0  0  0  0  0
   39.3370   27.1800  -15.5880 C   0  0  0  0  0  0  0  0  0  0  0  0
   43.2500   27.1850  -13.5440 C   0  0  0  0  0  0  0  0  0  0  0  0
   44.5030   27.1140  -12.9290 C   0  0  0  0  0  0  0  0  0  0  0  0
   49.7126   29.2329  -12.3008 H   0  0  0  0  0  0  0  0  0  0  0  0
   50.3885   28.8054  -14.6648 H   0  0  0  0  0  0  0  0  0  0  0  0
   49.2386   27.0346  -15.9918 H   0  0  0  0  0  0  0  0  0  0  0  0
   47.4056   25.6910  -14.9607 H   0  0  0  0  0  0  0  0  0  0  0  0
   45.4717   24.0274  -14.0171 H   0  0  0  0  0  0  0  0  0  0  0  0
   43.2368   24.1601  -15.1097 H   0  0  0  0  0  0  0  0  0  0  0  0
   41.4240   25.5150  -15.7290 H   0  0  0  0  0  0  0  0  0  0  0  0
   39.4381   28.9559  -12.2662 H   0  0  0  0  0  0  0  0  0  0  0  0
   36.5600   28.6580  -16.0610 H   0  0  0  0  0  0  0  0  0  0  0  0
   37.1727   27.2216  -18.1247 H   0  0  0  0  0  0  0  0  0  0  0  0
   39.5262   26.0834  -17.5495 H   0  0  0  0  0  0  0  0  0  0  0  0
   42.6365   28.0901  -13.4241 H   0  0  0  0  0  0  0  0  0  0  0  0
   44.8707   27.9606  -12.3306 H   0  0  0  0  0  0  0  0  0  0  0  0
  1  2  1  0
  2  3  2  0
  3  4  1  0
  4  5  2  0
  5  6  1  0
  6  7  2  0
  7  8  1  0
  8  9  1  0
  9 10  2  0
 10 11  1  0
 11 12  2  0
 12 13  1  0
 13 14  1  0
 14 15  2  0
 15 16  1  0
 16 17  2  0
 17 18  1  0
 18 19  1  0
 19 20  1  0
 20 21  2  0
 21 22  1  0
 12 23  1  0
 23 24  2  0
  7  2  1  0
 24  9  1  0
 22 14  1  0
 22 18  2  0
  3 25  1  0
  4 26  1  0
  5 27  1  0
  6 28  1  0
 10 29  1  0
 11 30  1  0
 13 31  1  0
 16 32  1  0
 19 33  1  0
 20 34  1  0
 21 35  1  0
 23 36  1  0
 24 37  1  0
M  END
>  <meeko>  (5) 
{"is_sidechain": [false], "free_energy": 0.67, "intermolecular_energy": 0.597, "internal_energy": -0.157}

$$$$
9IV_ttbk2_out
     RDKit          3D

 37 40  0  0  0  0  0  0  0  0999 V2000
   48.1430   28.4250  -10.5990 Cl  0  0  0  0  0  0  0  0  0  0  0  0
   48.2730   27.9160  -12.2420 C   0  0  0  0  0  0  0  0  0  0  0  0
   49.4420   28.2180  -12.9450 C   0  0  0  0  0  0  0  0  0  0  0  0
   49.5800   27.8190  -14.2770 C   0  0  0  0  0  0  0  0  0  0  0  0
   48.5540   27.1130  -14.9050 C   0  0  0  0  0  0  0  0  0  0  0  0
   47.3840   26.8090  -14.2060 C   0  0  0  0  0  0  0  0  0  0  0  0
   47.2350   27.2260  -12.8770 C   0  0  0  0  0  0  0  0  0  0  0  0
   46.1050   26.9010  -12.1600 O   0  0  0  0  0  0  0  0  0  0  0  0
   44.9520   26.6760  -12.8770 C   0  0  0  0  0  0  0  0  0  0  0  0
   43.8610   27.5460  -12.8570 C   0  0  0  0  0  0  0  0  0  0  0  0
   42.7120   27.2320  -13.5880 C   0  0  0  0  0  0  0  0  0  0  0  0
   42.6350   26.0540  -14.3440 C   0  0  0  0  0  0  0  0  0  0  0  0
   41.4360   25.7820  -15.0350 N   0  0  0  0  0  0  0  0  0  0  0  0
   40.3460   26.6400  -15.2460 C   0  0  0  0  0  0  0  0  0  0  0  0
   39.7280   26.5540  -16.4520 N   0  0  0  0  0  0  0  0  0  0  0  0
   38.6690   27.3530  -16.6940 C   0  0  0  0  0  0  0  0  0  0  0  0
   38.1030   28.2530  -15.8740 N   0  0  0  0  0  0  0  0  0  0  0  0
   38.7230   28.2830  -14.6850 C   0  0  0  0  0  0  0  0  0  0  0  0
   38.3540   29.0830  -13.6390 N   0  0  0  0  0  0  0  0  0  0  0  0
   39.1760   28.8510  -12.5660 C   0  0  0  0  0  0  0  0  0  0  0  0
   40.0880   27.8860  -12.9390 C   0  0  0  0  0  0  0  0  0  0  0  0
   39.8180   27.5280  -14.2920 C   0  0  0  0  0  0  0  0  0  0  0  0
   43.7230   25.1720  -14.3170 C   0  0  0  0  0  0  0  0  0  0  0  0
   44.8750   25.4800  -13.5870 C   0  0  0  0  0  0  0  0  0  0  0  0
   50.2542   28.7702  -12.4496 H   0  0  0  0  0  0  0  0  0  0  0  0
   50.4988   28.0619  -14.8309 H   0  0  0  0  0  0  0  0  0  0  0  0
   48.6666   26.7953  -15.9521 H   0  0  0  0  0  0  0  0  0  0  0  0
   46.5800   26.2425  -14.6986 H   0  0  0  0  0  0  0  0  0  0  0  0
   43.9052   28.4744  -12.2687 H   0  0  0  0  0  0  0  0  0  0  0  0
   41.8542   27.9203  -13.5698 H   0  0  0  0  0  0  0  0  0  0  0  0
   41.3540   24.8780  -15.4170 H   0  0  0  0  0  0  0  0  0  0  0  0
   38.2108   27.2550  -17.6892 H   0  0  0  0  0  0  0  0  0  0  0  0
   37.6100   29.7280  -13.6530 H   0  0  0  0  0  0  0  0  0  0  0  0
   39.1183   29.3453  -11.5850 H   0  0  0  0  0  0  0  0  0  0  0  0
   40.8830   27.4669  -12.3047 H   0  0  0  0  0  0  0  0  0  0  0  0
   43.6704   24.2264  -14.8765 H   0  0  0  0  0  0  0  0  0  0  0  0
   45.7212   24.7773  -13.5733 H   0  0  0  0  0  0  0  0  0  0  0  0
  1  2  1  0
  2  3  2  0
  3  4  1  0
  4  5  2  0
  5  6  1  0
  6  7  2  0
  7  8  1  0
  8  9  1  0
  9 10  2  0
 10 11  1  0
 11 12  2  0
 12 13  1  0
 13 14  1  0
 14 15  2  0
 15 16  1  0
 16 17  2  0
 17 18  1  0
 18 19  1  0
 19 20  1  0
 20 21  2  0
 21 22  1  0
 12 23  1  0
 23 24  2  0
  7  2  1  0
 24  9  1  0
 22 14  1  0
 22 18  2  0
  3 25  1  0
  4 26  1  0
  5 27  1  0
  6 28  1  0
 10 29  1  0
 11 30  1  0
 13 31  1  0
 16 32  1  0
 19 33  1  0
 20 34  1  0
 21 35  1  0
 23 36  1  0
 24 37  1  0
M  END
>  <meeko>  (6) 
{"is_sidechain": [false], "free_energy": 1.189, "intermolecular_energy": -0.115, "internal_energy": 1.195}

$$$$
9IV_ttbk2_out
     RDKit          3D

 37 40  0  0  0  0  0  0  0  0999 V2000
   44.9650   27.8500  -14.7190 Cl  0  0  0  0  0  0  0  0  0  0  0  0
   45.9140   26.7790  -13.7540 C   0  0  0  0  0  0  0  0  0  0  0  0
   46.9220   27.3190  -12.9520 C   0  0  0  0  0  0  0  0  0  0  0  0
   47.7080   26.4800  -12.1580 C   0  0  0  0  0  0  0  0  0  0  0  0
   47.4830   25.1030  -12.1610 C   0  0  0  0  0  0  0  0  0  0  0  0
   46.4760   24.5600  -12.9610 C   0  0  0  0  0  0  0  0  0  0  0  0
   45.7010   25.3970  -13.7740 C   0  0  0  0  0  0  0  0  0  0  0  0
   44.6780   24.8830  -14.5400 O   0  0  0  0  0  0  0  0  0  0  0  0
   43.4020   25.3070  -14.2450 C   0  0  0  0  0  0  0  0  0  0  0  0
   42.2910   24.9730  -15.0190 C   0  0  0  0  0  0  0  0  0  0  0  0
   41.0310   25.4690  -14.6720 C   0  0  0  0  0  0  0  0  0  0  0  0
   40.8640   26.3000  -13.5560 C   0  0  0  0  0  0  0  0  0  0  0  0
   39.5710   26.7910  -13.2770 N   0  0  0  0  0  0  0  0  0  0  0  0
   38.7760   27.6330  -14.0710 C   0  0  0  0  0  0  0  0  0  0  0  0
   38.3160   28.7670  -13.4830 N   0  0  0  0  0  0  0  0  0  0  0  0
   37.5570   29.6100  -14.2120 C   0  0  0  0  0  0  0  0  0  0  0  0
   37.1830   29.4920  -15.4960 N   0  0  0  0  0  0  0  0  0  0  0  0
   37.6840   28.3760  -16.0460 C   0  0  0  0  0  0  0  0  0  0  0  0
   37.4940   28.0020  -17.3480 N   0  0  0  0  0  0  0  0  0  0  0  0
   38.1600   26.8280  -17.5940 C   0  0  0  0  0  0  0  0  0  0  0  0
   38.7820   26.4470  -16.4240 C   0  0  0  0  0  0  0  0  0  0  0  0
   38.4730   27.4190  -15.4270 C   0  0  0  0  0  0  0  0  0  0  0  0
   41.9970   26.6600  -12.8170 C   0  0  0  0  0  0  0  0  0  0  0  0
   43.2600   26.1680  -13.1580 C   0  0  0  0  0  0  0  0  0  0  0  0
   47.0971   28.4050  -12.9455 H   0  0  0  0  0  0  0  0  0  0  0  0
   48.5047   26.9054  -11.5301 H   0  0  0  0  0  0  0  0  0  0  0  0
   48.1000   24.4443  -11.5321 H   0  0  0  0  0  0  0  0  0  0  0  0
   46.2913   23.4757  -12.9529 H   0  0  0  0  0  0  0  0  0  0  0  0
   42.4057   24.3223  -15.8984 H   0  0  0  0  0  0  0  0  0  0  0  0
   40.1569   25.2029  -15.2845 H   0  0  0  0  0  0  0  0  0  0  0  0
   39.1780   26.5090  -12.4200 H   0  0  0  0  0  0  0  0  0  0  0  0
   37.1988   30.5085  -13.6882 H   0  0  0  0  0  0  0  0  0  0  0  0
   36.9610   28.4990  -18.0090 H   0  0  0  0  0  0  0  0  0  0  0  0
   38.1920   26.2881  -18.5519 H   0  0  0  0  0  0  0  0  0  0  0  0
   39.4060   25.5520  -16.2842 H   0  0  0  0  0  0  0  0  0  0  0  0
   41.8921   27.3384  -11.9575 H   0  0  0  0  0  0  0  0  0  0  0  0
   44.1417   26.4602  -12.5687 H   0  0  0  0  0  0  0  0  0  0  0  0
  1  2  1  0
  2  3  2  0
  3  4  1  0
  4  5  2  0
  5  6  1  0
  6  7  2  0
  7  8  1  0
  8  9  1  0
  9 10  2  0
 10 11  1  0
 11 12  2  0
 12 13  1  0
 13 14  1  0
 14 15  2  0
 15 16  1  0
 16 17  2  0
 17 18  1  0
 18 19  1  0
 19 20  1  0
 20 21  2  0
 21 22  1  0
 12 23  1  0
 23 24  2  0
  7  2  1  0
 24  9  1  0
 22 14  1  0
 22 18  2  0
  3 25  1  0
  4 26  1  0
  5 27  1  0
  6 28  1  0
 10 29  1  0
 11 30  1  0
 13 31  1  0
 16 32  1  0
 19 33  1  0
 20 34  1  0
 21 35  1  0
 23 36  1  0
 24 37  1  0
M  END
>  <meeko>  (7) 
{"is_sidechain": [false], "free_energy": 1.313, "intermolecular_energy": -0.213, "internal_energy": 1.446}

$$$$
9IV_ttbk2_out
     RDKit          3D

 37 40  0  0  0  0  0  0  0  0999 V2000
   48.7730   26.9360  -15.1930 Cl  0  0  0  0  0  0  0  0  0  0  0  0
   48.1900   27.2990  -13.6100 C   0  0  0  0  0  0  0  0  0  0  0  0
   48.9680   28.1110  -12.7820 C   0  0  0  0  0  0  0  0  0  0  0  0
   48.5250   28.4250  -11.4950 C   0  0  0  0  0  0  0  0  0  0  0  0
   47.3020   27.9330  -11.0370 C   0  0  0  0  0  0  0  0  0  0  0  0
   46.5220   27.1210  -11.8620 C   0  0  0  0  0  0  0  0  0  0  0  0
   46.9740   26.7880  -13.1450 C   0  0  0  0  0  0  0  0  0  0  0  0
   46.1990   26.0210  -13.9870 O   0  0  0  0  0  0  0  0  0  0  0  0
   44.8340   26.1300  -13.8540 C   0  0  0  0  0  0  0  0  0  0  0  0
   44.2240   27.0360  -12.9850 C   0  0  0  0  0  0  0  0  0  0  0  0
   42.8300   27.0660  -12.8830 C   0  0  0  0  0  0  0  0  0  0  0  0
   42.0310   26.1970  -13.6390 C   0  0  0  0  0  0  0  0  0  0  0  0
   40.6320   26.2570  -13.4670 N   0  0  0  0  0  0  0  0  0  0  0  0
   39.7410   27.2240  -13.9580 C   0  0  0  0  0  0  0  0  0  0  0  0
   39.4760   28.2770  -13.1440 N   0  0  0  0  0  0  0  0  0  0  0  0
   38.6330   29.2350  -13.5790 C   0  0  0  0  0  0  0  0  0  0  0  0
   37.9990   29.3090  -14.7610 N   0  0  0  0  0  0  0  0  0  0  0  0
   38.3140   28.2680  -15.5460 C   0  0  0  0  0  0  0  0  0  0  0  0
   37.8420   28.0850  -16.8170 N   0  0  0  0  0  0  0  0  0  0  0  0
   38.3760   26.9400  -17.3490 C   0  0  0  0  0  0  0  0  0  0  0  0
   39.2010   26.3810  -16.3960 C   0  0  0  0  0  0  0  0  0  0  0  0
   39.1570   27.2110  -15.2380 C   0  0  0  0  0  0  0  0  0  0  0  0
   42.6620   25.2650  -14.4720 C   0  0  0  0  0  0  0  0  0  0  0  0
   44.0560   25.2300  -14.5790 C   0  0  0  0  0  0  0  0  0  0  0  0
   49.9300   28.5035  -13.1434 H   0  0  0  0  0  0  0  0  0  0  0  0
   49.1408   29.0607  -10.8418 H   0  0  0  0  0  0  0  0  0  0  0  0
   46.9524   28.1853  -10.0250 H   0  0  0  0  0  0  0  0  0  0  0  0
   45.5528   26.7429  -11.5046 H   0  0  0  0  0  0  0  0  0  0  0  0
   44.8371   27.7231  -12.3833 H   0  0  0  0  0  0  0  0  0  0  0  0
   42.3526   27.7828  -12.1987 H   0  0  0  0  0  0  0  0  0  0  0  0
   40.2320   25.5310  -12.9360 H   0  0  0  0  0  0  0  0  0  0  0  0
   38.4400   30.0601  -12.8776 H   0  0  0  0  0  0  0  0  0  0  0  0
   37.2140   28.6850  -17.2800 H   0  0  0  0  0  0  0  0  0  0  0  0
   38.1814   26.5394  -18.3548 H   0  0  0  0  0  0  0  0  0  0  0  0
   39.7889   25.4582  -16.5093 H   0  0  0  0  0  0  0  0  0  0  0  0
   42.0543   24.5522  -15.0488 H   0  0  0  0  0  0  0  0  0  0  0  0
   44.5385   24.4914  -15.2360 H   0  0  0  0  0  0  0  0  0  0  0  0
  1  2  1  0
  2  3  2  0
  3  4  1  0
  4  5  2  0
  5  6  1  0
  6  7  2  0
  7  8  1  0
  8  9  1  0
  9 10  2  0
 10 11  1  0
 11 12  2  0
 12 13  1  0
 13 14  1  0
 14 15  2  0
 15 16  1  0
 16 17  2  0
 17 18  1  0
 18 19  1  0
 19 20  1  0
 20 21  2  0
 21 22  1  0
 12 23  1  0
 23 24  2  0
  7  2  1  0
 24  9  1  0
 22 14  1  0
 22 18  2  0
  3 25  1  0
  4 26  1  0
  5 27  1  0
  6 28  1  0
 10 29  1  0
 11 30  1  0
 13 31  1  0
 16 32  1  0
 19 33  1  0
 20 34  1  0
 21 35  1  0
 23 36  1  0
 24 37  1  0
M  END
>  <meeko>  (8) 
{"is_sidechain": [false], "free_energy": 1.612, "intermolecular_energy": 1.269, "internal_energy": 0.334}

$$$$
9IV_ttbk2_out
     RDKit          3D

 37 40  0  0  0  0  0  0  0  0999 V2000
   49.0760   27.1170  -14.9690 Cl  0  0  0  0  0  0  0  0  0  0  0  0
   48.3220   27.4420  -13.4520 C   0  0  0  0  0  0  0  0  0  0  0  0
   49.0070   28.2240  -12.5190 C   0  0  0  0  0  0  0  0  0  0  0  0
   48.4240   28.5080  -11.2820 C   0  0  0  0  0  0  0  0  0  0  0  0
   47.1550   28.0160  -10.9780 C   0  0  0  0  0  0  0  0  0  0  0  0
   46.4660   27.2340  -11.9080 C   0  0  0  0  0  0  0  0  0  0  0  0
   47.0580   26.9310  -13.1410 C   0  0  0  0  0  0  0  0  0  0  0  0
   46.3770   26.1940  -14.0850 O   0  0  0  0  0  0  0  0  0  0  0  0
   45.0020   26.2390  -14.0420 C   0  0  0  0  0  0  0  0  0  0  0  0
   44.2920   27.2770  -13.4370 C   0  0  0  0  0  0  0  0  0  0  0  0
   42.8960   27.2350  -13.4060 C   0  0  0  0  0  0  0  0  0  0  0  0
   42.1920   26.1630  -13.9730 C   0  0  0  0  0  0  0  0  0  0  0  0
   40.7850   26.1660  -13.8810 N   0  0  0  0  0  0  0  0  0  0  0  0
   39.8610   26.7120  -14.7860 C   0  0  0  0  0  0  0  0  0  0  0  0
   39.7140   26.0660  -15.9710 N   0  0  0  0  0  0  0  0  0  0  0  0
   38.8290   26.5500  -16.8650 C   0  0  0  0  0  0  0  0  0  0  0  0
   38.0270   27.6190  -16.7450 N   0  0  0  0  0  0  0  0  0  0  0  0
   38.1800   28.2090  -15.5500 C   0  0  0  0  0  0  0  0  0  0  0  0
   37.4780   29.3050  -15.1310 N   0  0  0  0  0  0  0  0  0  0  0  0
   37.8560   29.6380  -13.8550 C   0  0  0  0  0  0  0  0  0  0  0  0
   38.8210   28.7360  -13.4570 C   0  0  0  0  0  0  0  0  0  0  0  0
   39.0450   27.8300  -14.5350 C   0  0  0  0  0  0  0  0  0  0  0  0
   42.9220   25.1090  -14.5360 C   0  0  0  0  0  0  0  0  0  0  0  0
   44.3190   25.1450  -14.5700 C   0  0  0  0  0  0  0  0  0  0  0  0
   50.0063   28.6164  -12.7587 H   0  0  0  0  0  0  0  0  0  0  0  0
   48.9664   29.1205  -10.5467 H   0  0  0  0  0  0  0  0  0  0  0  0
   46.6961   28.2440  -10.0047 H   0  0  0  0  0  0  0  0  0  0  0  0
   45.4600   26.8566  -11.6725 H   0  0  0  0  0  0  0  0  0  0  0  0
   44.8293   28.1246  -12.9865 H   0  0  0  0  0  0  0  0  0  0  0  0
   42.3402   28.0559  -12.9293 H   0  0  0  0  0  0  0  0  0  0  0  0
   40.4030   25.7320  -13.0840 H   0  0  0  0  0  0  0  0  0  0  0  0
   38.7548   25.9984  -17.8138 H   0  0  0  0  0  0  0  0  0  0  0  0
   36.8030   29.7840  -15.6640 H   0  0  0  0  0  0  0  0  0  0  0  0
   37.4612   30.4729  -13.2575 H   0  0  0  0  0  0  0  0  0  0  0  0
   39.3279   28.7188  -12.4809 H   0  0  0  0  0  0  0  0  0  0  0  0
   42.3901   24.2428  -14.9563 H   0  0  0  0  0  0  0  0  0  0  0  0
   44.8796   24.3091  -15.0139 H   0  0  0  0  0  0  0  0  0  0  0  0
  1  2  1  0
  2  3  2  0
  3  4  1  0
  4  5  2  0
  5  6  1  0
  6  7  2  0
  7  8  1  0
  8  9  1  0
  9 10  2  0
 10 11  1  0
 11 12  2  0
 12 13  1  0
 13 14  1  0
 14 15  2  0
 15 16  1  0
 16 17  2  0
 17 18  1  0
 18 19  1  0
 19 20  1  0
 20 21  2  0
 21 22  1  0
 12 23  1  0
 23 24  2  0
  7  2  1  0
 24  9  1  0
 22 14  1  0
 22 18  2  0
  3 25  1  0
  4 26  1  0
  5 27  1  0
  6 28  1  0
 10 29  1  0
 11 30  1  0
 13 31  1  0
 16 32  1  0
 19 33  1  0
 20 34  1  0
 21 35  1  0
 23 36  1  0
 24 37  1  0
M  END
>  <meeko>  (9) 
{"is_sidechain": [false], "free_energy": 1.9, "intermolecular_energy": 1.79, "internal_energy": 0.168}

$$$$
