clorgyline_out
     RDKit          3D

 33 33  0  0  0  0  0  0  0  0999 V2000
   37.5790   26.8500  -18.2370 C   0  0  0  0  0  0  0  0  0  0  0  0
   38.2710   26.8750  -17.2560 C   0  0  0  0  0  0  0  0  0  0  0  0
   39.1220   26.9100  -16.0540 C   0  0  0  0  0  0  0  0  0  0  0  0
   38.4250   27.3040  -14.8160 N   0  0  2  0  0  0  0  0  0  0  0  0
   38.2510   28.7550  -14.7400 C   0  0  0  0  0  0  0  0  0  0  0  0
   39.0820   26.7510  -13.6190 C   0  0  0  0  0  0  0  0  0  0  0  0
   39.7030   27.8430  -12.7360 C   0  0  0  0  0  0  0  0  0  0  0  0
   41.1250   27.4830  -12.3070 C   0  0  0  0  0  0  0  0  0  0  0  0
   41.9590   27.4550  -13.4630 O   0  0  0  0  0  0  0  0  0  0  0  0
   43.1360   26.7590  -13.3920 C   0  0  0  0  0  0  0  0  0  0  0  0
   44.2410   27.1470  -12.6270 C   0  0  0  0  0  0  0  0  0  0  0  0
   45.4050   26.3690  -12.6230 C   0  0  0  0  0  0  0  0  0  0  0  0
   45.4700   25.2050  -13.3840 C   0  0  0  0  0  0  0  0  0  0  0  0
   46.9050   24.2570  -13.3730 Cl  0  0  0  0  0  0  0  0  0  0  0  0
   44.3820   24.8050  -14.1530 C   0  0  0  0  0  0  0  0  0  0  0  0
   43.2220   25.5820  -14.1570 C   0  0  0  0  0  0  0  0  0  0  0  0
   41.8920   25.0430  -15.1260 Cl  0  0  0  0  0  0  0  0  0  0  0  0
   36.9451   26.8271  -19.1357 H   0  0  0  0  0  0  0  0  0  0  0  0
   39.5446   25.9055  -15.9042 H   0  0  0  0  0  0  0  0  0  0  0  0
   39.8869   27.6789  -16.2376 H   0  0  0  0  0  0  0  0  0  0  0  0
   37.4900   26.8970  -14.8450 H   0  0  0  0  0  0  0  0  0  0  0  0
   38.2138   29.0651  -13.6853 H   0  0  0  0  0  0  0  0  0  0  0  0
   39.0960   29.2522  -15.2388 H   0  0  0  0  0  0  0  0  0  0  0  0
   37.3124   29.0384  -15.2388 H   0  0  0  0  0  0  0  0  0  0  0  0
   38.3348   26.2011  -13.0280 H   0  0  0  0  0  0  0  0  0  0  0  0
   39.8940   26.0902  -13.9567 H   0  0  0  0  0  0  0  0  0  0  0  0
   39.7293   28.7863  -13.3013 H   0  0  0  0  0  0  0  0  0  0  0  0
   39.0868   27.9430  -11.8303 H   0  0  0  0  0  0  0  0  0  0  0  0
   41.4997   28.2366  -11.5986 H   0  0  0  0  0  0  0  0  0  0  0  0
   41.1303   26.4979  -11.8176 H   0  0  0  0  0  0  0  0  0  0  0  0
   44.1952   28.0672  -12.0261 H   0  0  0  0  0  0  0  0  0  0  0  0
   46.2698   26.6780  -12.0175 H   0  0  0  0  0  0  0  0  0  0  0  0
   44.4351   23.8844  -14.7528 H   0  0  0  0  0  0  0  0  0  0  0  0
  1  2  3  0
  2  3  1  0
  3  4  1  0
  4  5  1  0
  4  6  1  0
  6  7  1  0
  7  8  1  0
  8  9  1  0
  9 10  1  0
 10 11  2  0
 11 12  1  0
 12 13  2  0
 13 14  1  0
 13 15  1  0
 15 16  2  0
 16 17  1  0
 16 10  1  0
  1 18  1  0
  3 19  1  0
  3 20  1  0
  4 21  1  6
  5 22  1  0
  5 23  1  0
  5 24  1  0
  6 25  1  0
  6 26  1  0
  7 27  1  0
  7 28  1  0
  8 29  1  0
  8 30  1  0
 11 31  1  0
 12 32  1  0
 15 33  1  0
M  CHG  1   4   1
M  END
>  <meeko>  (1) 
{"is_sidechain": [false], "free_energy": -5.745, "intermolecular_energy": -7.76, "internal_energy": -0.544}

$$$$
clorgyline_out
     RDKit          3D

 33 33  0  0  0  0  0  0  0  0999 V2000
   45.6740   24.3310  -13.4800 C   0  0  0  0  0  0  0  0  0  0  0  0
   44.6620   24.8610  -13.8520 C   0  0  0  0  0  0  0  0  0  0  0  0
   43.4190   25.5090  -14.3050 C   0  0  0  0  0  0  0  0  0  0  0  0
   43.2070   26.8700  -13.7810 N   0  0  2  0  0  0  0  0  0  0  0  0
   44.3300   27.7500  -14.1080 C   0  0  0  0  0  0  0  0  0  0  0  0
   42.8980   26.8600  -12.3400 C   0  0  0  0  0  0  0  0  0  0  0  0
   41.3930   26.9960  -12.0650 C   0  0  0  0  0  0  0  0  0  0  0  0
   40.8260   28.2880  -12.6510 C   0  0  0  0  0  0  0  0  0  0  0  0
   39.4520   28.0840  -12.9700 O   0  0  0  0  0  0  0  0  0  0  0  0
   39.1380   27.6750  -14.2380 C   0  0  0  0  0  0  0  0  0  0  0  0
   39.7580   26.6140  -14.9050 C   0  0  0  0  0  0  0  0  0  0  0  0
   39.3700   26.2740  -16.2060 C   0  0  0  0  0  0  0  0  0  0  0  0
   38.3630   26.9940  -16.8450 C   0  0  0  0  0  0  0  0  0  0  0  0
   37.8940   26.5690  -18.4450 Cl  0  0  0  0  0  0  0  0  0  0  0  0
   37.7370   28.0540  -16.1990 C   0  0  0  0  0  0  0  0  0  0  0  0
   38.1250   28.3920  -14.9010 C   0  0  0  0  0  0  0  0  0  0  0  0
   37.3150   29.7170  -14.1350 Cl  0  0  0  0  0  0  0  0  0  0  0  0
   46.6006   23.8457  -13.1394 H   0  0  0  0  0  0  0  0  0  0  0  0
   43.4424   25.5646  -15.4033 H   0  0  0  0  0  0  0  0  0  0  0  0
   42.5910   24.8957  -13.9199 H   0  0  0  0  0  0  0  0  0  0  0  0
   42.3850   27.2560  -14.2480 H   0  0  0  0  0  0  0  0  0  0  0  0
   44.7937   28.1133  -13.1790 H   0  0  0  0  0  0  0  0  0  0  0  0
   45.0741   27.1920  -14.6954 H   0  0  0  0  0  0  0  0  0  0  0  0
   43.9662   28.6059  -14.6954 H   0  0  0  0  0  0  0  0  0  0  0  0
   43.2520   25.9119  -11.9090 H   0  0  0  0  0  0  0  0  0  0  0  0
   43.4029   27.7232  -11.8818 H   0  0  0  0  0  0  0  0  0  0  0  0
   40.8694   26.1401  -12.5160 H   0  0  0  0  0  0  0  0  0  0  0  0
   41.2443   27.0195  -10.9754 H   0  0  0  0  0  0  0  0  0  0  0  0
   40.9178   29.0996  -11.9142 H   0  0  0  0  0  0  0  0  0  0  0  0
   41.3834   28.5626  -13.5587 H   0  0  0  0  0  0  0  0  0  0  0  0
   40.5546   26.0437  -14.4048 H   0  0  0  0  0  0  0  0  0  0  0  0
   39.8608   25.4372  -16.7246 H   0  0  0  0  0  0  0  0  0  0  0  0
   36.9428   28.6216  -16.7061 H   0  0  0  0  0  0  0  0  0  0  0  0
  1  2  3  0
  2  3  1  0
  3  4  1  0
  4  5  1  0
  4  6  1  0
  6  7  1  0
  7  8  1  0
  8  9  1  0
  9 10  1  0
 10 11  2  0
 11 12  1  0
 12 13  2  0
 13 14  1  0
 13 15  1  0
 15 16  2  0
 16 17  1  0
 16 10  1  0
  1 18  1  0
  3 19  1  0
  3 20  1  0
  4 21  1  6
  5 22  1  0
  5 23  1  0
  5 24  1  0
  6 25  1  0
  6 26  1  0
  7 27  1  0
  7 28  1  0
  8 29  1  0
  8 30  1  0
 11 31  1  0
 12 32  1  0
 15 33  1  0
M  CHG  1   4   1
M  END
>  <meeko>  (2) 
{"is_sidechain": [false], "free_energy": -5.596, "intermolecular_energy": -7.68, "internal_energy": -0.423}

$$$$
clorgyline_out
     RDKit          3D

 33 33  0  0  0  0  0  0  0  0999 V2000
   45.8490   24.3040  -13.4340 C   0  0  0  0  0  0  0  0  0  0  0  0
   44.8320   24.8310  -13.7940 C   0  0  0  0  0  0  0  0  0  0  0  0
   43.5810   25.4740  -14.2330 C   0  0  0  0  0  0  0  0  0  0  0  0
   43.3110   26.7840  -13.6120 N   0  0  2  0  0  0  0  0  0  0  0  0
   44.2830   27.7900  -14.0410 C   0  0  0  0  0  0  0  0  0  0  0  0
   43.2110   26.6830  -12.1460 C   0  0  0  0  0  0  0  0  0  0  0  0
   41.7810   26.9260  -11.6400 C   0  0  0  0  0  0  0  0  0  0  0  0
   41.0930   28.0520  -12.4100 C   0  0  0  0  0  0  0  0  0  0  0  0
   39.7150   27.7230  -12.5720 O   0  0  0  0  0  0  0  0  0  0  0  0
   39.2130   27.6590  -13.8450 C   0  0  0  0  0  0  0  0  0  0  0  0
   38.5260   28.7000  -14.4780 C   0  0  0  0  0  0  0  0  0  0  0  0
   38.0450   28.5370  -15.7820 C   0  0  0  0  0  0  0  0  0  0  0  0
   38.2450   27.3340  -16.4560 C   0  0  0  0  0  0  0  0  0  0  0  0
   37.6490   27.1450  -18.0580 Cl  0  0  0  0  0  0  0  0  0  0  0  0
   38.9240   26.2880  -15.8420 C   0  0  0  0  0  0  0  0  0  0  0  0
   39.4030   26.4510  -14.5400 C   0  0  0  0  0  0  0  0  0  0  0  0
   40.2430   25.1220  -13.8160 Cl  0  0  0  0  0  0  0  0  0  0  0  0
   46.7807   23.8212  -13.1042 H   0  0  0  0  0  0  0  0  0  0  0  0
   43.6324   25.6154  -15.3227 H   0  0  0  0  0  0  0  0  0  0  0  0
   42.7631   24.8078  -13.9213 H   0  0  0  0  0  0  0  0  0  0  0  0
   42.3970   27.0990  -13.9410 H   0  0  0  0  0  0  0  0  0  0  0  0
   44.7379   28.2608  -13.1570 H   0  0  0  0  0  0  0  0  0  0  0  0
   45.0668   27.3087  -14.6443 H   0  0  0  0  0  0  0  0  0  0  0  0
   43.7750   28.5568  -14.6443 H   0  0  0  0  0  0  0  0  0  0  0  0
   43.5284   25.6757  -11.8385 H   0  0  0  0  0  0  0  0  0  0  0  0
   43.8579   27.4590  -11.7108 H   0  0  0  0  0  0  0  0  0  0  0  0
   41.1974   26.0017  -11.7629 H   0  0  0  0  0  0  0  0  0  0  0  0
   41.8370   27.2189  -10.5812 H   0  0  0  0  0  0  0  0  0  0  0  0
   41.1847   28.9935  -11.8486 H   0  0  0  0  0  0  0  0  0  0  0  0
   41.5663   28.1743  -13.3954 H   0  0  0  0  0  0  0  0  0  0  0  0
   38.3632   29.6505  -13.9488 H   0  0  0  0  0  0  0  0  0  0  0  0
   37.5080   29.3602  -16.2759 H   0  0  0  0  0  0  0  0  0  0  0  0
   39.0828   25.3400  -16.3768 H   0  0  0  0  0  0  0  0  0  0  0  0
  1  2  3  0
  2  3  1  0
  3  4  1  0
  4  5  1  0
  4  6  1  0
  6  7  1  0
  7  8  1  0
  8  9  1  0
  9 10  1  0
 10 11  2  0
 11 12  1  0
 12 13  2  0
 13 14  1  0
 13 15  1  0
 15 16  2  0
 16 17  1  0
 16 10  1  0
  1 18  1  0
  3 19  1  0
  3 20  1  0
  4 21  1  6
  5 22  1  0
  5 23  1  0
  5 24  1  0
  6 25  1  0
  6 26  1  0
  7 27  1  0
  7 28  1  0
  8 29  1  0
  8 30  1  0
 11 31  1  0
 12 32  1  0
 15 33  1  0
M  CHG  1   4   1
M  END
>  <meeko>  (3) 
{"is_sidechain": [false], "free_energy": -5.078, "intermolecular_energy": -7.095, "internal_energy": -0.308}

$$$$
clorgyline_out
     RDKit          3D

 33 33  0  0  0  0  0  0  0  0999 V2000
   36.4400   29.2340  -14.7310 C   0  0  0  0  0  0  0  0  0  0  0  0
   37.6150   29.0110  -14.6200 C   0  0  0  0  0  0  0  0  0  0  0  0
   39.0550   28.7380  -14.4780 C   0  0  0  0  0  0  0  0  0  0  0  0
   39.4630   27.3720  -14.8540 N   0  0  2  0  0  0  0  0  0  0  0  0
   38.7290   26.8990  -16.0280 C   0  0  0  0  0  0  0  0  0  0  0  0
   39.3700   26.4410  -13.7160 C   0  0  0  0  0  0  0  0  0  0  0  0
   39.6100   27.1390  -12.3690 C   0  0  0  0  0  0  0  0  0  0  0  0
   41.1000   27.2790  -12.0620 C   0  0  0  0  0  0  0  0  0  0  0  0
   41.8330   27.1630  -13.2800 O   0  0  0  0  0  0  0  0  0  0  0  0
   43.0420   26.5210  -13.2470 C   0  0  0  0  0  0  0  0  0  0  0  0
   44.0430   26.7670  -12.3020 C   0  0  0  0  0  0  0  0  0  0  0  0
   45.2510   26.0610  -12.3530 C   0  0  0  0  0  0  0  0  0  0  0  0
   45.4630   25.1120  -13.3500 C   0  0  0  0  0  0  0  0  0  0  0  0
   46.9520   24.2510  -13.4050 Cl  0  0  0  0  0  0  0  0  0  0  0  0
   44.4810   24.8560  -14.3000 C   0  0  0  0  0  0  0  0  0  0  0  0
   43.2760   25.5610  -14.2480 C   0  0  0  0  0  0  0  0  0  0  0  0
   42.0800   25.2070  -15.4490 Cl  0  0  0  0  0  0  0  0  0  0  0  0
   35.3639   29.4382  -14.8327 H   0  0  0  0  0  0  0  0  0  0  0  0
   39.6027   29.4471  -15.1161 H   0  0  0  0  0  0  0  0  0  0  0  0
   39.2883   28.8487  -13.4087 H   0  0  0  0  0  0  0  0  0  0  0  0
   40.4490   27.4050  -15.1170 H   0  0  0  0  0  0  0  0  0  0  0  0
   37.8456   26.3297  -15.7033 H   0  0  0  0  0  0  0  0  0  0  0  0
   38.4083   27.7608  -16.6317 H   0  0  0  0  0  0  0  0  0  0  0  0
   39.3813   26.2509  -16.6317 H   0  0  0  0  0  0  0  0  0  0  0  0
   38.3658   25.9922  -13.7076 H   0  0  0  0  0  0  0  0  0  0  0  0
   40.1512   25.6769  -13.8423 H   0  0  0  0  0  0  0  0  0  0  0  0
   39.1571   28.1409  -12.4011 H   0  0  0  0  0  0  0  0  0  0  0  0
   39.1536   26.5249  -11.5787 H   0  0  0  0  0  0  0  0  0  0  0  0
   41.2929   28.2615  -11.6065 H   0  0  0  0  0  0  0  0  0  0  0  0
   41.4128   26.4912  -11.3610 H   0  0  0  0  0  0  0  0  0  0  0  0
   43.8806   27.5184  -11.5152 H   0  0  0  0  0  0  0  0  0  0  0  0
   46.0334   26.2561  -11.6048 H   0  0  0  0  0  0  0  0  0  0  0  0
   44.6512   24.1051  -15.0856 H   0  0  0  0  0  0  0  0  0  0  0  0
  1  2  3  0
  2  3  1  0
  3  4  1  0
  4  5  1  0
  4  6  1  0
  6  7  1  0
  7  8  1  0
  8  9  1  0
  9 10  1  0
 10 11  2  0
 11 12  1  0
 12 13  2  0
 13 14  1  0
 13 15  1  0
 15 16  2  0
 16 17  1  0
 16 10  1  0
  1 18  1  0
  3 19  1  0
  3 20  1  0
  4 21  1  6
  5 22  1  0
  5 23  1  0
  5 24  1  0
  6 25  1  0
  6 26  1  0
  7 27  1  0
  7 28  1  0
  8 29  1  0
  8 30  1  0
 11 31  1  0
 12 32  1  0
 15 33  1  0
M  CHG  1   4   1
M  END
>  <meeko>  (4) 
{"is_sidechain": [false], "free_energy": -4.908, "intermolecular_energy": -6.606, "internal_energy": -0.568}

$$$$
clorgyline_out
     RDKit          3D

 33 33  0  0  0  0  0  0  0  0999 V2000
   37.6200   26.5750  -17.9150 C   0  0  0  0  0  0  0  0  0  0  0  0
   38.1850   27.2580  -17.1040 C   0  0  0  0  0  0  0  0  0  0  0  0
   38.8760   28.0990  -16.1120 C   0  0  0  0  0  0  0  0  0  0  0  0
   38.2200   28.1640  -14.7940 N   0  0  2  0  0  0  0  0  0  0  0  0
   37.0370   29.0250  -14.8280 C   0  0  0  0  0  0  0  0  0  0  0  0
   39.1660   28.5460  -13.7310 C   0  0  0  0  0  0  0  0  0  0  0  0
   39.5480   27.3580  -12.8360 C   0  0  0  0  0  0  0  0  0  0  0  0
   40.1310   26.2020  -13.6480 C   0  0  0  0  0  0  0  0  0  0  0  0
   41.2300   26.6890  -14.4150 O   0  0  0  0  0  0  0  0  0  0  0  0
   42.4740   26.1760  -14.1600 C   0  0  0  0  0  0  0  0  0  0  0  0
   42.9290   24.9360  -14.6210 C   0  0  0  0  0  0  0  0  0  0  0  0
   44.2180   24.4950  -14.3030 C   0  0  0  0  0  0  0  0  0  0  0  0
   45.0540   25.2870  -13.5190 C   0  0  0  0  0  0  0  0  0  0  0  0
   46.6370   24.7340  -13.1320 Cl  0  0  0  0  0  0  0  0  0  0  0  0
   44.6180   26.5210  -13.0490 C   0  0  0  0  0  0  0  0  0  0  0  0
   43.3310   26.9600  -13.3670 C   0  0  0  0  0  0  0  0  0  0  0  0
   42.8320   28.5040  -12.7630 Cl  0  0  0  0  0  0  0  0  0  0  0  0
   37.1027   25.9497  -18.6575 H   0  0  0  0  0  0  0  0  0  0  0  0
   39.8903   27.6978  -15.9702 H   0  0  0  0  0  0  0  0  0  0  0  0
   38.8671   29.1230  -16.5136 H   0  0  0  0  0  0  0  0  0  0  0  0
   37.8940   27.2240  -14.5640 H   0  0  0  0  0  0  0  0  0  0  0  0
   36.7211   29.2549  -13.7997 H   0  0  0  0  0  0  0  0  0  0  0  0
   37.2789   29.9598  -15.3549 H   0  0  0  0  0  0  0  0  0  0  0  0
   36.2218   28.5074  -15.3549 H   0  0  0  0  0  0  0  0  0  0  0  0
   40.0788   28.9458  -14.1968 H   0  0  0  0  0  0  0  0  0  0  0  0
   38.6746   29.2996  -13.0982 H   0  0  0  0  0  0  0  0  0  0  0  0
   40.2966   27.6910  -12.1020 H   0  0  0  0  0  0  0  0  0  0  0  0
   38.6366   26.9994  -12.3352 H   0  0  0  0  0  0  0  0  0  0  0  0
   40.4768   25.4096  -12.9679 H   0  0  0  0  0  0  0  0  0  0  0  0
   39.3616   25.7891  -14.3169 H   0  0  0  0  0  0  0  0  0  0  0  0
   42.2705   24.3051  -15.2361 H   0  0  0  0  0  0  0  0  0  0  0  0
   44.5720   23.5213  -14.6726 H   0  0  0  0  0  0  0  0  0  0  0  0
   45.2809   27.1457  -12.4323 H   0  0  0  0  0  0  0  0  0  0  0  0
  1  2  3  0
  2  3  1  0
  3  4  1  0
  4  5  1  0
  4  6  1  0
  6  7  1  0
  7  8  1  0
  8  9  1  0
  9 10  1  0
 10 11  2  0
 11 12  1  0
 12 13  2  0
 13 14  1  0
 13 15  1  0
 15 16  2  0
 16 17  1  0
 16 10  1  0
  1 18  1  0
  3 19  1  0
  3 20  1  0
  4 21  1  1
  5 22  1  0
  5 23  1  0
  5 24  1  0
  6 25  1  0
  6 26  1  0
  7 27  1  0
  7 28  1  0
  8 29  1  0
  8 30  1  0
 11 31  1  0
 12 32  1  0
 15 33  1  0
M  CHG  1   4   1
M  END
>  <meeko>  (5) 
{"is_sidechain": [false], "free_energy": -4.736, "intermolecular_energy": -6.549, "internal_energy": -0.392}

$$$$
clorgyline_out
     RDKit          3D

 33 33  0  0  0  0  0  0  0  0999 V2000
   43.5620   28.1930  -13.2690 C   0  0  0  0  0  0  0  0  0  0  0  0
   44.4720   27.4380  -13.0620 C   0  0  0  0  0  0  0  0  0  0  0  0
   45.5880   26.5120  -12.8040 C   0  0  0  0  0  0  0  0  0  0  0  0
   45.3460   25.1200  -13.2260 N   0  0  2  0  0  0  0  0  0  0  0  0
   46.5610   24.3110  -13.1210 C   0  0  0  0  0  0  0  0  0  0  0  0
   44.7380   25.0550  -14.5670 C   0  0  0  0  0  0  0  0  0  0  0  0
   43.3290   24.4440  -14.5390 C   0  0  0  0  0  0  0  0  0  0  0  0
   42.2730   25.4350  -15.0260 C   0  0  0  0  0  0  0  0  0  0  0  0
   41.2420   25.5260  -14.0450 O   0  0  0  0  0  0  0  0  0  0  0  0
   40.2750   26.4810  -14.2130 C   0  0  0  0  0  0  0  0  0  0  0  0
   39.5460   26.6720  -15.3910 C   0  0  0  0  0  0  0  0  0  0  0  0
   38.5780   27.6810  -15.4670 C   0  0  0  0  0  0  0  0  0  0  0  0
   38.3390   28.5030  -14.3680 C   0  0  0  0  0  0  0  0  0  0  0  0
   37.1480   29.7400  -14.4720 Cl  0  0  0  0  0  0  0  0  0  0  0  0
   39.0550   28.3290  -13.1890 C   0  0  0  0  0  0  0  0  0  0  0  0
   40.0210   27.3230  -13.1150 C   0  0  0  0  0  0  0  0  0  0  0  0
   40.8860   27.1420  -11.6260 Cl  0  0  0  0  0  0  0  0  0  0  0  0
   42.7281   28.8849  -13.4587 H   0  0  0  0  0  0  0  0  0  0  0  0
   46.4726   26.8838  -13.3418 H   0  0  0  0  0  0  0  0  0  0  0  0
   45.7231   26.4859  -11.7126 H   0  0  0  0  0  0  0  0  0  0  0  0
   44.6650   24.7160  -12.5820 H   0  0  0  0  0  0  0  0  0  0  0  0
   46.8035   24.1495  -12.0603 H   0  0  0  0  0  0  0  0  0  0  0  0
   46.3986   23.3401  -13.6119 H   0  0  0  0  0  0  0  0  0  0  0  0
   47.3942   24.8353  -13.6119 H   0  0  0  0  0  0  0  0  0  0  0  0
   44.6736   26.0741  -14.9760 H   0  0  0  0  0  0  0  0  0  0  0  0
   45.3721   24.4102  -15.1932 H   0  0  0  0  0  0  0  0  0  0  0  0
   43.3122   23.5570  -15.1894 H   0  0  0  0  0  0  0  0  0  0  0  0
   43.0927   24.1750  -13.4989 H   0  0  0  0  0  0  0  0  0  0  0  0
   42.7329   26.4235  -15.1719 H   0  0  0  0  0  0  0  0  0  0  0  0
   41.8505   25.0917  -15.9819 H   0  0  0  0  0  0  0  0  0  0  0  0
   39.7338   26.0267  -16.2618 H   0  0  0  0  0  0  0  0  0  0  0  0
   38.0058   27.8247  -16.3954 H   0  0  0  0  0  0  0  0  0  0  0  0
   38.8624   28.9780  -12.3220 H   0  0  0  0  0  0  0  0  0  0  0  0
  1  2  3  0
  2  3  1  0
  3  4  1  0
  4  5  1  0
  4  6  1  0
  6  7  1  0
  7  8  1  0
  8  9  1  0
  9 10  1  0
 10 11  2  0
 11 12  1  0
 12 13  2  0
 13 14  1  0
 13 15  1  0
 15 16  2  0
 16 17  1  0
 16 10  1  0
  1 18  1  0
  3 19  1  0
  3 20  1  0
  4 21  1  1
  5 22  1  0
  5 23  1  0
  5 24  1  0
  6 25  1  0
  6 26  1  0
  7 27  1  0
  7 28  1  0
  8 29  1  0
  8 30  1  0
 11 31  1  0
 12 32  1  0
 15 33  1  0
M  CHG  1   4   1
M  END
>  <meeko>  (6) 
{"is_sidechain": [false], "free_energy": -4.732, "intermolecular_energy": -6.458, "internal_energy": -0.478}

$$$$
clorgyline_out
     RDKit          3D

 33 33  0  0  0  0  0  0  0  0999 V2000
   40.3260   26.8080  -11.7200 C   0  0  0  0  0  0  0  0  0  0  0  0
   39.9180   27.7560  -12.3340 C   0  0  0  0  0  0  0  0  0  0  0  0
   39.4220   28.9200  -13.0880 C   0  0  0  0  0  0  0  0  0  0  0  0
   38.7930   28.5950  -14.3810 N   0  0  2  0  0  0  0  0  0  0  0  0
   37.4730   29.2140  -14.5040 C   0  0  0  0  0  0  0  0  0  0  0  0
   38.7600   27.1420  -14.6230 C   0  0  0  0  0  0  0  0  0  0  0  0
   39.6990   26.7170  -15.7620 C   0  0  0  0  0  0  0  0  0  0  0  0
   40.8600   25.8660  -15.2490 C   0  0  0  0  0  0  0  0  0  0  0  0
   41.9160   26.7300  -14.8350 O   0  0  0  0  0  0  0  0  0  0  0  0
   43.0690   26.1600  -14.3660 C   0  0  0  0  0  0  0  0  0  0  0  0
   43.5030   24.8690  -14.6880 C   0  0  0  0  0  0  0  0  0  0  0  0
   44.6980   24.3720  -14.1530 C   0  0  0  0  0  0  0  0  0  0  0  0
   45.4590   25.1610  -13.2940 C   0  0  0  0  0  0  0  0  0  0  0  0
   46.9250   24.5400  -12.6410 Cl  0  0  0  0  0  0  0  0  0  0  0  0
   45.0430   26.4450  -12.9600 C   0  0  0  0  0  0  0  0  0  0  0  0
   43.8510   26.9390  -13.4940 C   0  0  0  0  0  0  0  0  0  0  0  0
   43.3730   28.5440  -13.0540 Cl  0  0  0  0  0  0  0  0  0  0  0  0
   40.6997   25.9397  -11.1576 H   0  0  0  0  0  0  0  0  0  0  0  0
   38.6779   29.4391  -12.4661 H   0  0  0  0  0  0  0  0  0  0  0  0
   40.3020   29.5387  -13.3179 H   0  0  0  0  0  0  0  0  0  0  0  0
   39.3760   28.9950  -15.1180 H   0  0  0  0  0  0  0  0  0  0  0  0
   37.0633   29.4061  -13.5014 H   0  0  0  0  0  0  0  0  0  0  0  0
   37.5630   30.1638  -15.0515 H   0  0  0  0  0  0  0  0  0  0  0  0
   36.8003   28.5374  -15.0515 H   0  0  0  0  0  0  0  0  0  0  0  0
   39.0645   26.6234  -13.7019 H   0  0  0  0  0  0  0  0  0  0  0  0
   37.7342   26.8738  -14.9160 H   0  0  0  0  0  0  0  0  0  0  0  0
   39.1262   26.1326  -16.4971 H   0  0  0  0  0  0  0  0  0  0  0  0
   40.1161   27.6260  -16.2201 H   0  0  0  0  0  0  0  0  0  0  0  0
   40.5240   25.2581  -14.3961 H   0  0  0  0  0  0  0  0  0  0  0  0
   41.2152   25.1984  -16.0478 H   0  0  0  0  0  0  0  0  0  0  0  0
   42.9030   24.2421  -15.3641 H   0  0  0  0  0  0  0  0  0  0  0  0
   45.0358   23.3576  -14.4115 H   0  0  0  0  0  0  0  0  0  0  0  0
   45.6470   27.0656  -12.2817 H   0  0  0  0  0  0  0  0  0  0  0  0
  1  2  3  0
  2  3  1  0
  3  4  1  0
  4  5  1  0
  4  6  1  0
  6  7  1  0
  7  8  1  0
  8  9  1  0
  9 10  1  0
 10 11  2  0
 11 12  1  0
 12 13  2  0
 13 14  1  0
 13 15  1  0
 15 16  2  0
 16 17  1  0
 16 10  1  0
  1 18  1  0
  3 19  1  0
  3 20  1  0
  4 21  1  6
  5 22  1  0
  5 23  1  0
  5 24  1  0
  6 25  1  0
  6 26  1  0
  7 27  1  0
  7 28  1  0
  8 29  1  0
  8 30  1  0
 11 31  1  0
 12 32  1  0
 15 33  1  0
M  CHG  1   4   1
M  END
>  <meeko>  (7) 
{"is_sidechain": [false], "free_energy": -4.553, "intermolecular_energy": -6.091, "internal_energy": -0.604}

$$$$
clorgyline_out
     RDKit          3D

 33 33  0  0  0  0  0  0  0  0999 V2000
   37.6890   29.1950  -14.7720 C   0  0  0  0  0  0  0  0  0  0  0  0
   38.5690   28.9680  -13.9870 C   0  0  0  0  0  0  0  0  0  0  0  0
   39.6460   28.6910  -13.0220 C   0  0  0  0  0  0  0  0  0  0  0  0
   39.5830   27.3600  -12.3910 N   0  0  2  0  0  0  0  0  0  0  0  0
   40.8240   27.0460  -11.6830 C   0  0  0  0  0  0  0  0  0  0  0  0
   39.2040   26.3150  -13.3580 C   0  0  0  0  0  0  0  0  0  0  0  0
   40.4150   25.5120  -13.8550 C   0  0  0  0  0  0  0  0  0  0  0  0
   40.9770   26.0840  -15.1560 C   0  0  0  0  0  0  0  0  0  0  0  0
   42.1210   26.8800  -14.8510 O   0  0  0  0  0  0  0  0  0  0  0  0
   43.2410   26.2470  -14.3830 C   0  0  0  0  0  0  0  0  0  0  0  0
   43.5900   24.9270  -14.6860 C   0  0  0  0  0  0  0  0  0  0  0  0
   44.7570   24.3660  -14.1540 C   0  0  0  0  0  0  0  0  0  0  0  0
   45.5750   25.1190  -13.3140 C   0  0  0  0  0  0  0  0  0  0  0  0
   47.0050   24.4190  -12.6640 Cl  0  0  0  0  0  0  0  0  0  0  0  0
   45.2420   26.4320  -13.0000 C   0  0  0  0  0  0  0  0  0  0  0  0
   44.0780   26.9910  -13.5310 C   0  0  0  0  0  0  0  0  0  0  0  0
   43.7050   28.6300  -13.1140 Cl  0  0  0  0  0  0  0  0  0  0  0  0
   36.8829   29.4029  -15.4910 H   0  0  0  0  0  0  0  0  0  0  0  0
   40.6078   28.7747  -13.5492 H   0  0  0  0  0  0  0  0  0  0  0  0
   39.5309   29.4244  -12.2103 H   0  0  0  0  0  0  0  0  0  0  0  0
   38.8420   27.3850  -11.6900 H   0  0  0  0  0  0  0  0  0  0  0  0
   40.6485   27.0904  -10.5980 H   0  0  0  0  0  0  0  0  0  0  0  0
   41.1581   26.0350  -11.9593 H   0  0  0  0  0  0  0  0  0  0  0  0
   41.5987   27.7764  -11.9593 H   0  0  0  0  0  0  0  0  0  0  0  0
   38.4970   25.6252  -12.8740 H   0  0  0  0  0  0  0  0  0  0  0  0
   38.7500   26.8114  -14.2283 H   0  0  0  0  0  0  0  0  0  0  0  0
   41.2004   25.5384  -13.0853 H   0  0  0  0  0  0  0  0  0  0  0  0
   40.0865   24.4800  -14.0477 H   0  0  0  0  0  0  0  0  0  0  0  0
   41.2667   25.2618  -15.8268 H   0  0  0  0  0  0  0  0  0  0  0  0
   40.2142   26.7006  -15.6539 H   0  0  0  0  0  0  0  0  0  0  0  0
   42.9449   24.3273  -15.3449 H   0  0  0  0  0  0  0  0  0  0  0  0
   45.0288   23.3288  -14.3995 H   0  0  0  0  0  0  0  0  0  0  0  0
   45.8904   27.0255  -12.3386 H   0  0  0  0  0  0  0  0  0  0  0  0
  1  2  3  0
  2  3  1  0
  3  4  1  0
  4  5  1  0
  4  6  1  0
  6  7  1  0
  7  8  1  0
  8  9  1  0
  9 10  1  0
 10 11  2  0
 11 12  1  0
 12 13  2  0
 13 14  1  0
 13 15  1  0
 15 16  2  0
 16 17  1  0
 16 10  1  0
  1 18  1  0
  3 19  1  0
  3 20  1  0
  4 21  1  1
  5 22  1  0
  5 23  1  0
  5 24  1  0
  6 25  1  0
  6 26  1  0
  7 27  1  0
  7 28  1  0
  8 29  1  0
  8 30  1  0
 11 31  1  0
 12 32  1  0
 15 33  1  0
M  CHG  1   4   1
M  END
>  <meeko>  (8) 
{"is_sidechain": [false], "free_energy": -4.412, "intermolecular_energy": -6.006, "internal_energy": -0.498}

$$$$
clorgyline_out
     RDKit          3D

 33 33  0  0  0  0  0  0  0  0999 V2000
   38.7450   29.6090  -13.8530 C   0  0  0  0  0  0  0  0  0  0  0  0
   38.2260   28.9460  -14.7090 C   0  0  0  0  0  0  0  0  0  0  0  0
   37.5880   28.1350  -15.7610 C   0  0  0  0  0  0  0  0  0  0  0  0
   38.5250   27.5180  -16.7170 N   0  0  2  0  0  0  0  0  0  0  0  0
   37.8230   26.9880  -17.8860 C   0  0  0  0  0  0  0  0  0  0  0  0
   39.3840   26.5120  -16.0690 C   0  0  0  0  0  0  0  0  0  0  0  0
   38.8760   26.1240  -14.6720 C   0  0  0  0  0  0  0  0  0  0  0  0
   40.0140   26.0650  -13.6540 C   0  0  0  0  0  0  0  0  0  0  0  0
   41.1330   26.7800  -14.1740 O   0  0  0  0  0  0  0  0  0  0  0  0
   42.3810   26.2500  -13.9840 C   0  0  0  0  0  0  0  0  0  0  0  0
   43.0920   25.5310  -14.9510 C   0  0  0  0  0  0  0  0  0  0  0  0
   44.3630   25.0230  -14.6610 C   0  0  0  0  0  0  0  0  0  0  0  0
   44.9270   25.2290  -13.4040 C   0  0  0  0  0  0  0  0  0  0  0  0
   46.4900   24.6000  -13.0570 Cl  0  0  0  0  0  0  0  0  0  0  0  0
   44.2350   25.9390  -12.4290 C   0  0  0  0  0  0  0  0  0  0  0  0
   42.9660   26.4440  -12.7200 C   0  0  0  0  0  0  0  0  0  0  0  0
   42.1430   27.3240  -11.4770 Cl  0  0  0  0  0  0  0  0  0  0  0  0
   39.2205   30.2164  -13.0688 H   0  0  0  0  0  0  0  0  0  0  0  0
   37.0163   27.3311  -15.2743 H   0  0  0  0  0  0  0  0  0  0  0  0
   36.9578   28.8228  -16.3439 H   0  0  0  0  0  0  0  0  0  0  0  0
   39.1490   28.2520  -17.0560 H   0  0  0  0  0  0  0  0  0  0  0  0
   36.9857   26.3558  -17.5554 H   0  0  0  0  0  0  0  0  0  0  0  0
   37.4366   27.8216  -18.4908 H   0  0  0  0  0  0  0  0  0  0  0  0
   38.5189   26.3880  -18.4908 H   0  0  0  0  0  0  0  0  0  0  0  0
   39.4100   25.6106  -16.6989 H   0  0  0  0  0  0  0  0  0  0  0  0
   40.3863   26.9501  -15.9528 H   0  0  0  0  0  0  0  0  0  0  0  0
   38.1392   26.8704  -14.3404 H   0  0  0  0  0  0  0  0  0  0  0  0
   38.4217   25.1243  -14.7373 H   0  0  0  0  0  0  0  0  0  0  0  0
   39.6887   26.5240  -12.7088 H   0  0  0  0  0  0  0  0  0  0  0  0
   40.2938   25.0179  -13.4664 H   0  0  0  0  0  0  0  0  0  0  0  0
   42.6495   25.3643  -15.9442 H   0  0  0  0  0  0  0  0  0  0  0  0
   44.9175   24.4603  -15.4264 H   0  0  0  0  0  0  0  0  0  0  0  0
   44.6831   26.1014  -11.4376 H   0  0  0  0  0  0  0  0  0  0  0  0
  1  2  3  0
  2  3  1  0
  3  4  1  0
  4  5  1  0
  4  6  1  0
  6  7  1  0
  7  8  1  0
  8  9  1  0
  9 10  1  0
 10 11  2  0
 11 12  1  0
 12 13  2  0
 13 14  1  0
 13 15  1  0
 15 16  2  0
 16 17  1  0
 16 10  1  0
  1 18  1  0
  3 19  1  0
  3 20  1  0
  4 21  1  6
  5 22  1  0
  5 23  1  0
  5 24  1  0
  6 25  1  0
  6 26  1  0
  7 27  1  0
  7 28  1  0
  8 29  1  0
  8 30  1  0
 11 31  1  0
 12 32  1  0
 15 33  1  0
M  CHG  1   4   1
M  END
>  <meeko>  (9) 
{"is_sidechain": [false], "free_energy": -4.306, "intermolecular_energy": -6.567, "internal_energy": 0.207}

$$$$
