isatin_out
     RDKit          3D

 16 17  0  0  0  0  0  0  0  0999 V2000
   37.6360   27.6170  -17.5940 O   0  0  0  0  0  0  0  0  0  0  0  0
   38.3180   27.5350  -16.5970 C   0  0  0  0  0  0  0  0  0  0  0  0
   39.4330   26.7480  -16.3870 N   0  0  0  0  0  0  0  0  0  0  0  0
   39.9410   26.9350  -15.1060 C   0  0  0  0  0  0  0  0  0  0  0  0
   41.0410   26.3200  -14.5460 C   0  0  0  0  0  0  0  0  0  0  0  0
   41.3700   26.6660  -13.2300 C   0  0  0  0  0  0  0  0  0  0  0  0
   40.6050   27.6060  -12.5080 C   0  0  0  0  0  0  0  0  0  0  0  0
   39.4930   28.2200  -13.0890 C   0  0  0  0  0  0  0  0  0  0  0  0
   39.1900   27.8630  -14.3880 C   0  0  0  0  0  0  0  0  0  0  0  0
   38.1100   28.3150  -15.2670 C   0  0  0  0  0  0  0  0  0  0  0  0
   37.2450   29.1190  -15.0100 O   0  0  0  0  0  0  0  0  0  0  0  0
   39.8170   26.1350  -17.0560 H   0  0  0  0  0  0  0  0  0  0  0  0
   41.6360   25.5871  -15.1107 H   0  0  0  0  0  0  0  0  0  0  0  0
   42.2412   26.1962  -12.7500 H   0  0  0  0  0  0  0  0  0  0  0  0
   40.8875   27.8584  -11.4753 H   0  0  0  0  0  0  0  0  0  0  0  0
   38.8869   28.9537  -12.5374 H   0  0  0  0  0  0  0  0  0  0  0  0
  1  2  2  0
  2  3  1  0
  3  4  1  0
  4  5  2  0
  5  6  1  0
  6  7  2  0
  7  8  1  0
  8  9  2  0
  9 10  1  0
 10 11  2  0
 10  2  1  0
  9  4  1  0
  3 12  1  0
  5 13  1  0
  6 14  1  0
  7 15  1  0
  8 16  1  0
M  END
>  <meeko>  (1) 
{"is_sidechain": [false], "free_energy": -8.299, "intermolecular_energy": -8.299, "internal_energy": 0.0}

$$$$
isatin_out
     RDKit          3D

 16 17  0  0  0  0  0  0  0  0999 V2000
   37.9910   27.5630  -15.3190 O   0  0  0  0  0  0  0  0  0  0  0  0
   39.1030   27.2880  -14.9260 C   0  0  0  0  0  0  0  0  0  0  0  0
   40.0600   26.5110  -15.5490 N   0  0  0  0  0  0  0  0  0  0  0  0
   41.2150   26.4310  -14.7760 C   0  0  0  0  0  0  0  0  0  0  0  0
   42.3730   25.7460  -15.0760 C   0  0  0  0  0  0  0  0  0  0  0  0
   43.4150   25.8070  -14.1440 C   0  0  0  0  0  0  0  0  0  0  0  0
   43.2830   26.5410  -12.9460 C   0  0  0  0  0  0  0  0  0  0  0  0
   42.1030   27.2300  -12.6570 C   0  0  0  0  0  0  0  0  0  0  0  0
   41.0910   27.1550  -13.5930 C   0  0  0  0  0  0  0  0  0  0  0  0
   39.7530   27.7510  -13.5910 C   0  0  0  0  0  0  0  0  0  0  0  0
   39.2650   28.4520  -12.7360 O   0  0  0  0  0  0  0  0  0  0  0  0
   39.9400   26.0720  -16.4220 H   0  0  0  0  0  0  0  0  0  0  0  0
   42.4739   25.1744  -16.0104 H   0  0  0  0  0  0  0  0  0  0  0  0
   44.3545   25.2729  -14.3490 H   0  0  0  0  0  0  0  0  0  0  0  0
   44.1190   26.5708  -12.2317 H   0  0  0  0  0  0  0  0  0  0  0  0
   41.9855   27.8056  -11.7270 H   0  0  0  0  0  0  0  0  0  0  0  0
  1  2  2  0
  2  3  1  0
  3  4  1  0
  4  5  2  0
  5  6  1  0
  6  7  2  0
  7  8  1  0
  8  9  2  0
  9 10  1  0
 10 11  2  0
 10  2  1  0
  9  4  1  0
  3 12  1  0
  5 13  1  0
  6 14  1  0
  7 15  1  0
  8 16  1  0
M  END
>  <meeko>  (2) 
{"is_sidechain": [false], "free_energy": -7.216, "intermolecular_energy": -7.216, "internal_energy": 0.0}

$$$$
isatin_out
     RDKit          3D

 16 17  0  0  0  0  0  0  0  0999 V2000
   37.2180   28.4590  -15.2920 O   0  0  0  0  0  0  0  0  0  0  0  0
   38.2790   28.0450  -14.8790 C   0  0  0  0  0  0  0  0  0  0  0  0
   38.9030   28.3410  -13.6830 N   0  0  0  0  0  0  0  0  0  0  0  0
   40.1130   27.6640  -13.5730 C   0  0  0  0  0  0  0  0  0  0  0  0
   41.0050   27.7140  -12.5220 C   0  0  0  0  0  0  0  0  0  0  0  0
   42.1680   26.9430  -12.6290 C   0  0  0  0  0  0  0  0  0  0  0  0
   42.4150   26.1470  -13.7670 C   0  0  0  0  0  0  0  0  0  0  0  0
   41.5020   26.1060  -14.8230 C   0  0  0  0  0  0  0  0  0  0  0  0
   40.3630   26.8760  -14.6930 C   0  0  0  0  0  0  0  0  0  0  0  0
   39.2300   27.0520  -15.6050 C   0  0  0  0  0  0  0  0  0  0  0  0
   39.0730   26.5350  -16.6850 O   0  0  0  0  0  0  0  0  0  0  0  0
   38.5390   28.9500  -13.0000 H   0  0  0  0  0  0  0  0  0  0  0  0
   40.8100   28.3350  -11.6353 H   0  0  0  0  0  0  0  0  0  0  0  0
   42.9030   26.9580  -11.8107 H   0  0  0  0  0  0  0  0  0  0  0  0
   43.3380   25.5513  -13.8234 H   0  0  0  0  0  0  0  0  0  0  0  0
   41.6816   25.4895  -15.7161 H   0  0  0  0  0  0  0  0  0  0  0  0
  1  2  2  0
  2  3  1  0
  3  4  1  0
  4  5  2  0
  5  6  1  0
  6  7  2  0
  7  8  1  0
  8  9  2  0
  9 10  1  0
 10 11  2  0
 10  2  1  0
  9  4  1  0
  3 12  1  0
  5 13  1  0
  6 14  1  0
  7 15  1  0
  8 16  1  0
M  END
>  <meeko>  (3) 
{"is_sidechain": [false], "free_energy": -7.193, "intermolecular_energy": -7.193, "internal_energy": 0.0}

$$$$
isatin_out
     RDKit          3D

 16 17  0  0  0  0  0  0  0  0999 V2000
   44.2310   24.9750  -14.5520 O   0  0  0  0  0  0  0  0  0  0  0  0
   43.1960   25.5820  -14.3930 C   0  0  0  0  0  0  0  0  0  0  0  0
   42.1070   25.6510  -15.2400 N   0  0  0  0  0  0  0  0  0  0  0  0
   41.1070   26.4540  -14.7010 C   0  0  0  0  0  0  0  0  0  0  0  0
   39.8830   26.7530  -15.2620 C   0  0  0  0  0  0  0  0  0  0  0  0
   39.0290   27.5880  -14.5330 C   0  0  0  0  0  0  0  0  0  0  0  0
   39.4070   28.1020  -13.2750 C   0  0  0  0  0  0  0  0  0  0  0  0
   40.6510   27.7910  -12.7200 C   0  0  0  0  0  0  0  0  0  0  0  0
   41.4750   26.9650  -13.4590 C   0  0  0  0  0  0  0  0  0  0  0  0
   42.8170   26.4580  -13.1650 C   0  0  0  0  0  0  0  0  0  0  0  0
   43.4820   26.6760  -12.1800 O   0  0  0  0  0  0  0  0  0  0  0  0
   42.0480   25.1940  -16.1110 H   0  0  0  0  0  0  0  0  0  0  0  0
   39.5899   26.3512  -16.2431 H   0  0  0  0  0  0  0  0  0  0  0  0
   38.0445   27.8484  -14.9487 H   0  0  0  0  0  0  0  0  0  0  0  0
   38.7142   28.7554  -12.7244 H   0  0  0  0  0  0  0  0  0  0  0  0
   40.9595   28.1855  -11.7406 H   0  0  0  0  0  0  0  0  0  0  0  0
  1  2  2  0
  2  3  1  0
  3  4  1  0
  4  5  2  0
  5  6  1  0
  6  7  2  0
  7  8  1  0
  8  9  2  0
  9 10  1  0
 10 11  2  0
 10  2  1  0
  9  4  1  0
  3 12  1  0
  5 13  1  0
  6 14  1  0
  7 15  1  0
  8 16  1  0
M  END
>  <meeko>  (4) 
{"is_sidechain": [false], "free_energy": -6.906, "intermolecular_energy": -6.906, "internal_energy": 0.0}

$$$$
isatin_out
     RDKit          3D

 16 17  0  0  0  0  0  0  0  0999 V2000
   37.7750   28.1060  -17.8200 O   0  0  0  0  0  0  0  0  0  0  0  0
   38.2340   27.9450  -16.7110 C   0  0  0  0  0  0  0  0  0  0  0  0
   38.2640   28.8430  -15.6610 N   0  0  0  0  0  0  0  0  0  0  0  0
   38.8790   28.2830  -14.5460 C   0  0  0  0  0  0  0  0  0  0  0  0
   39.0890   28.8800  -13.3210 C   0  0  0  0  0  0  0  0  0  0  0  0
   39.7330   28.1210  -12.3370 C   0  0  0  0  0  0  0  0  0  0  0  0
   40.1500   26.7970  -12.5930 C   0  0  0  0  0  0  0  0  0  0  0  0
   39.9310   26.2060  -13.8390 C   0  0  0  0  0  0  0  0  0  0  0  0
   39.2940   26.9760  -14.7910 C   0  0  0  0  0  0  0  0  0  0  0  0
   38.9220   26.6590  -16.1720 C   0  0  0  0  0  0  0  0  0  0  0  0
   39.1100   25.6200  -16.7600 O   0  0  0  0  0  0  0  0  0  0  0  0
   37.9000   29.7570  -15.6990 H   0  0  0  0  0  0  0  0  0  0  0  0
   38.7632   29.9122  -13.1248 H   0  0  0  0  0  0  0  0  0  0  0  0
   39.9173   28.5639  -11.3471 H   0  0  0  0  0  0  0  0  0  0  0  0
   40.6538   26.2236  -11.8010 H   0  0  0  0  0  0  0  0  0  0  0  0
   40.2511   25.1753  -14.0518 H   0  0  0  0  0  0  0  0  0  0  0  0
  1  2  2  0
  2  3  1  0
  3  4  1  0
  4  5  2  0
  5  6  1  0
  6  7  2  0
  7  8  1  0
  8  9  2  0
  9 10  1  0
 10 11  2  0
 10  2  1  0
  9  4  1  0
  3 12  1  0
  5 13  1  0
  6 14  1  0
  7 15  1  0
  8 16  1  0
M  END
>  <meeko>  (5) 
{"is_sidechain": [false], "free_energy": -6.892, "intermolecular_energy": -6.892, "internal_energy": 0.0}

$$$$
isatin_out
     RDKit          3D

 16 17  0  0  0  0  0  0  0  0999 V2000
   38.7880   28.3740  -13.5680 O   0  0  0  0  0  0  0  0  0  0  0  0
   39.8610   27.8150  -13.6070 C   0  0  0  0  0  0  0  0  0  0  0  0
   40.8970   27.8900  -12.6960 N   0  0  0  0  0  0  0  0  0  0  0  0
   41.9690   27.0980  -13.0950 C   0  0  0  0  0  0  0  0  0  0  0  0
   43.1690   26.9270  -12.4380 C   0  0  0  0  0  0  0  0  0  0  0  0
   44.1100   26.0760  -13.0300 C   0  0  0  0  0  0  0  0  0  0  0  0
   43.8370   25.4200  -14.2490 C   0  0  0  0  0  0  0  0  0  0  0  0
   42.6160   25.6030  -14.9010 C   0  0  0  0  0  0  0  0  0  0  0  0
   41.7060   26.4480  -14.2980 C   0  0  0  0  0  0  0  0  0  0  0  0
   40.3600   26.8450  -14.7170 C   0  0  0  0  0  0  0  0  0  0  0  0
   39.7690   26.4940  -15.7100 O   0  0  0  0  0  0  0  0  0  0  0  0
   40.8780   28.4330  -11.8740 H   0  0  0  0  0  0  0  0  0  0  0  0
   43.3786   27.4386  -11.4870 H   0  0  0  0  0  0  0  0  0  0  0  0
   45.0796   25.9159  -12.5359 H   0  0  0  0  0  0  0  0  0  0  0  0
   44.5950   24.7566  -14.6909 H   0  0  0  0  0  0  0  0  0  0  0  0
   42.3896   25.0972  -15.8512 H   0  0  0  0  0  0  0  0  0  0  0  0
  1  2  2  0
  2  3  1  0
  3  4  1  0
  4  5  2  0
  5  6  1  0
  6  7  2  0
  7  8  1  0
  8  9  2  0
  9 10  1  0
 10 11  2  0
 10  2  1  0
  9  4  1  0
  3 12  1  0
  5 13  1  0
  6 14  1  0
  7 15  1  0
  8 16  1  0
M  END
>  <meeko>  (6) 
{"is_sidechain": [false], "free_energy": -6.715, "intermolecular_energy": -6.715, "internal_energy": 0.0}

$$$$
isatin_out
     RDKit          3D

 16 17  0  0  0  0  0  0  0  0999 V2000
   42.6730   26.9180  -12.0130 O   0  0  0  0  0  0  0  0  0  0  0  0
   41.7320   27.1230  -12.7470 C   0  0  0  0  0  0  0  0  0  0  0  0
   40.7250   28.0580  -12.6040 N   0  0  0  0  0  0  0  0  0  0  0  0
   39.8230   27.9830  -13.6600 C   0  0  0  0  0  0  0  0  0  0  0  0
   38.6980   28.7560  -13.8530 C   0  0  0  0  0  0  0  0  0  0  0  0
   37.9320   28.5030  -14.9970 C   0  0  0  0  0  0  0  0  0  0  0  0
   38.3000   27.4960  -15.9140 C   0  0  0  0  0  0  0  0  0  0  0  0
   39.4430   26.7210  -15.7050 C   0  0  0  0  0  0  0  0  0  0  0  0
   40.1810   26.9910  -14.5700 C   0  0  0  0  0  0  0  0  0  0  0  0
   41.4090   26.3700  -14.0690 C   0  0  0  0  0  0  0  0  0  0  0  0
   42.0330   25.4690  -14.5780 O   0  0  0  0  0  0  0  0  0  0  0  0
   40.6560   28.6920  -11.8540 H   0  0  0  0  0  0  0  0  0  0  0  0
   38.4135   29.5406  -13.1364 H   0  0  0  0  0  0  0  0  0  0  0  0
   37.0272   29.0999  -15.1843 H   0  0  0  0  0  0  0  0  0  0  0  0
   37.6791   27.3190  -16.8046 H   0  0  0  0  0  0  0  0  0  0  0  0
   39.7412   25.9325  -16.4116 H   0  0  0  0  0  0  0  0  0  0  0  0
  1  2  2  0
  2  3  1  0
  3  4  1  0
  4  5  2  0
  5  6  1  0
  6  7  2  0
  7  8  1  0
  8  9  2  0
  9 10  1  0
 10 11  2  0
 10  2  1  0
  9  4  1  0
  3 12  1  0
  5 13  1  0
  6 14  1  0
  7 15  1  0
  8 16  1  0
M  END
>  <meeko>  (7) 
{"is_sidechain": [false], "free_energy": -6.65, "intermolecular_energy": -6.65, "internal_energy": 0.0}

$$$$
isatin_out
     RDKit          3D

 16 17  0  0  0  0  0  0  0  0999 V2000
   44.8720   25.8430  -13.7160 O   0  0  0  0  0  0  0  0  0  0  0  0
   43.7140   26.1960  -13.6820 C   0  0  0  0  0  0  0  0  0  0  0  0
   43.0540   26.8610  -12.6670 N   0  0  0  0  0  0  0  0  0  0  0  0
   41.7240   27.0900  -13.0050 C   0  0  0  0  0  0  0  0  0  0  0  0
   40.7670   27.7240  -12.2430 C   0  0  0  0  0  0  0  0  0  0  0  0
   39.4840   27.8430  -12.7900 C   0  0  0  0  0  0  0  0  0  0  0  0
   39.1860   27.3320  -14.0710 C   0  0  0  0  0  0  0  0  0  0  0  0
   40.1670   26.6920  -14.8320 C   0  0  0  0  0  0  0  0  0  0  0  0
   41.4240   26.5890  -14.2700 C   0  0  0  0  0  0  0  0  0  0  0  0
   42.6500   25.9860  -14.7960 C   0  0  0  0  0  0  0  0  0  0  0  0
   42.7990   25.4450  -15.8670 O   0  0  0  0  0  0  0  0  0  0  0  0
   43.4700   27.1360  -11.8180 H   0  0  0  0  0  0  0  0  0  0  0  0
   41.0019   28.1209  -11.2444 H   0  0  0  0  0  0  0  0  0  0  0  0
   38.6941   28.3438  -12.2109 H   0  0  0  0  0  0  0  0  0  0  0  0
   38.1686   27.4389  -14.4753 H   0  0  0  0  0  0  0  0  0  0  0  0
   39.9484   26.2890  -15.8319 H   0  0  0  0  0  0  0  0  0  0  0  0
  1  2  2  0
  2  3  1  0
  3  4  1  0
  4  5  2  0
  5  6  1  0
  6  7  2  0
  7  8  1  0
  8  9  2  0
  9 10  1  0
 10 11  2  0
 10  2  1  0
  9  4  1  0
  3 12  1  0
  5 13  1  0
  6 14  1  0
  7 15  1  0
  8 16  1  0
M  END
>  <meeko>  (8) 
{"is_sidechain": [false], "free_energy": -6.491, "intermolecular_energy": -6.491, "internal_energy": 0.0}

$$$$
isatin_out
     RDKit          3D

 16 17  0  0  0  0  0  0  0  0999 V2000
   39.1060   26.4790  -16.5700 O   0  0  0  0  0  0  0  0  0  0  0  0
   39.6400   26.5650  -15.4860 C   0  0  0  0  0  0  0  0  0  0  0  0
   39.0500   26.8070  -14.2610 N   0  0  0  0  0  0  0  0  0  0  0  0
   40.0020   26.8310  -13.2460 C   0  0  0  0  0  0  0  0  0  0  0  0
   39.7840   27.0450  -11.9020 C   0  0  0  0  0  0  0  0  0  0  0  0
   40.9010   27.0260  -11.0580 C   0  0  0  0  0  0  0  0  0  0  0  0
   42.1970   26.7960  -11.5670 C   0  0  0  0  0  0  0  0  0  0  0  0
   42.4020   26.5820  -12.9320 C   0  0  0  0  0  0  0  0  0  0  0  0
   41.2840   26.6050  -13.7420 C   0  0  0  0  0  0  0  0  0  0  0  0
   41.1600   26.4200  -15.1890 C   0  0  0  0  0  0  0  0  0  0  0  0
   42.0490   26.2010  -15.9780 O   0  0  0  0  0  0  0  0  0  0  0  0
   38.0840   26.9440  -14.1240 H   0  0  0  0  0  0  0  0  0  0  0  0
   38.7726   27.2236  -11.5081 H   0  0  0  0  0  0  0  0  0  0  0  0
   40.7660   27.1933   -9.9792 H   0  0  0  0  0  0  0  0  0  0  0  0
   43.0563   26.7851  -10.8803 H   0  0  0  0  0  0  0  0  0  0  0  0
   43.4069   26.4035  -13.3424 H   0  0  0  0  0  0  0  0  0  0  0  0
  1  2  2  0
  2  3  1  0
  3  4  1  0
  4  5  2  0
  5  6  1  0
  6  7  2  0
  7  8  1  0
  8  9  2  0
  9 10  1  0
 10 11  2  0
 10  2  1  0
  9  4  1  0
  3 12  1  0
  5 13  1  0
  6 14  1  0
  7 15  1  0
  8 16  1  0
M  END
>  <meeko>  (9) 
{"is_sidechain": [false], "free_energy": -5.756, "intermolecular_energy": -5.756, "internal_energy": 0.0}

$$$$
