kaempferol_out
     RDKit          3D

 31 33  0  0  0  0  0  0  0  0999 V2000
   38.7810   28.8040  -12.9050 O   0  0  0  0  0  0  0  0  0  0  0  0
   39.4480   28.1120  -13.6710 C   0  0  0  0  0  0  0  0  0  0  0  0
   40.7810   27.6120  -13.2670 C   0  0  0  0  0  0  0  0  0  0  0  0
   41.2210   27.9470  -11.9990 O   0  0  0  0  0  0  0  0  0  0  0  0
   41.4760   26.8550  -14.1370 C   0  0  0  0  0  0  0  0  0  0  0  0
   42.8090   26.2890  -13.8380 C   0  0  0  0  0  0  0  0  0  0  0  0
   43.6890   26.9080  -12.9360 C   0  0  0  0  0  0  0  0  0  0  0  0
   44.9550   26.3690  -12.6850 C   0  0  0  0  0  0  0  0  0  0  0  0
   45.3480   25.2100  -13.3440 C   0  0  0  0  0  0  0  0  0  0  0  0
   46.5720   24.6500  -13.1290 O   0  0  0  0  0  0  0  0  0  0  0  0
   44.5000   24.5850  -14.2470 C   0  0  0  0  0  0  0  0  0  0  0  0
   43.2350   25.1250  -14.4960 C   0  0  0  0  0  0  0  0  0  0  0  0
   41.0110   26.5030  -15.3990 O   0  0  0  0  0  0  0  0  0  0  0  0
   39.7820   26.9570  -15.8060 C   0  0  0  0  0  0  0  0  0  0  0  0
   39.3590   26.5900  -17.0820 C   0  0  0  0  0  0  0  0  0  0  0  0
   38.1190   27.0220  -17.5450 C   0  0  0  0  0  0  0  0  0  0  0  0
   37.7440   26.6410  -18.7990 O   0  0  0  0  0  0  0  0  0  0  0  0
   37.2930   27.8170  -16.7530 C   0  0  0  0  0  0  0  0  0  0  0  0
   37.7210   28.1810  -15.4790 C   0  0  0  0  0  0  0  0  0  0  0  0
   36.8710   28.9620  -14.7440 O   0  0  0  0  0  0  0  0  0  0  0  0
   38.9650   27.7510  -15.0050 C   0  0  0  0  0  0  0  0  0  0  0  0
   40.6030   28.0570  -11.3030 H   0  0  0  0  0  0  0  0  0  0  0  0
   43.3788   27.8287  -12.4201 H   0  0  0  0  0  0  0  0  0  0  0  0
   45.6343   26.8585  -11.9716 H   0  0  0  0  0  0  0  0  0  0  0  0
   46.8780   23.9620  -13.6880 H   0  0  0  0  0  0  0  0  0  0  0  0
   44.8216   23.6691  -14.7644 H   0  0  0  0  0  0  0  0  0  0  0  0
   42.5656   24.6318  -15.2162 H   0  0  0  0  0  0  0  0  0  0  0  0
   40.0003   25.9633  -17.7191 H   0  0  0  0  0  0  0  0  0  0  0  0
   36.8650   26.7850  -19.0880 H   0  0  0  0  0  0  0  0  0  0  0  0
   36.3154   28.1527  -17.1294 H   0  0  0  0  0  0  0  0  0  0  0  0
   37.1900   29.4310  -13.9990 H   0  0  0  0  0  0  0  0  0  0  0  0
  1  2  2  0
  2  3  1  0
  3  4  1  0
  3  5  2  0
  5  6  1  0
  6  7  2  0
  7  8  1  0
  8  9  2  0
  9 10  1  0
  9 11  1  0
 11 12  2  0
  5 13  1  0
 13 14  1  0
 14 15  2  0
 15 16  1  0
 16 17  1  0
 16 18  2  0
 18 19  1  0
 19 20  1  0
 19 21  2  0
 21  2  1  0
 12  6  1  0
 21 14  1  0
  4 22  1  0
  7 23  1  0
  8 24  1  0
 10 25  1  0
 11 26  1  0
 12 27  1  0
 15 28  1  0
 17 29  1  0
 18 30  1  0
 20 31  1  0
M  END
>  <meeko>  (1) 
{"is_sidechain": [false], "free_energy": -8.368, "intermolecular_energy": -9.835, "internal_energy": 0.195}

$$$$
kaempferol_out
     RDKit          3D

 31 33  0  0  0  0  0  0  0  0999 V2000
   38.8770   28.3380  -12.8030 O   0  0  0  0  0  0  0  0  0  0  0  0
   39.6080   27.7510  -13.5990 C   0  0  0  0  0  0  0  0  0  0  0  0
   40.9520   27.2890  -13.1870 C   0  0  0  0  0  0  0  0  0  0  0  0
   41.3290   27.5360  -11.8790 O   0  0  0  0  0  0  0  0  0  0  0  0
   41.7170   26.6480  -14.0900 C   0  0  0  0  0  0  0  0  0  0  0  0
   43.0690   26.1300  -13.7880 C   0  0  0  0  0  0  0  0  0  0  0  0
   43.8360   26.6370  -12.7280 C   0  0  0  0  0  0  0  0  0  0  0  0
   45.1220   26.1490  -12.4740 C   0  0  0  0  0  0  0  0  0  0  0  0
   45.6490   25.1540  -13.2880 C   0  0  0  0  0  0  0  0  0  0  0  0
   46.8970   24.6490  -13.0770 O   0  0  0  0  0  0  0  0  0  0  0  0
   44.9150   24.6430  -14.3490 C   0  0  0  0  0  0  0  0  0  0  0  0
   43.6300   25.1310  -14.6010 C   0  0  0  0  0  0  0  0  0  0  0  0
   41.3160   26.3830  -15.3950 O   0  0  0  0  0  0  0  0  0  0  0  0
   40.0790   26.8050  -15.8090 C   0  0  0  0  0  0  0  0  0  0  0  0
   39.7210   26.5280  -17.1280 C   0  0  0  0  0  0  0  0  0  0  0  0
   38.4760   26.9330  -17.6000 C   0  0  0  0  0  0  0  0  0  0  0  0
   38.1660   26.6420  -18.8950 O   0  0  0  0  0  0  0  0  0  0  0  0
   37.5800   27.6110  -16.7770 C   0  0  0  0  0  0  0  0  0  0  0  0
   37.9430   27.8850  -15.4600 C   0  0  0  0  0  0  0  0  0  0  0  0
   37.0250   28.5530  -14.6950 O   0  0  0  0  0  0  0  0  0  0  0  0
   39.1920   27.4820  -14.9760 C   0  0  0  0  0  0  0  0  0  0  0  0
   42.2320   27.6740  -11.6700 H   0  0  0  0  0  0  0  0  0  0  0  0
   43.4202   27.4291  -12.0880 H   0  0  0  0  0  0  0  0  0  0  0  0
   45.7115   26.5499  -11.6363 H   0  0  0  0  0  0  0  0  0  0  0  0
   47.0080   23.8730  -12.5630 H   0  0  0  0  0  0  0  0  0  0  0  0
   45.3428   23.8572  -14.9889 H   0  0  0  0  0  0  0  0  0  0  0  0
   43.0513   24.7284  -15.4454 H   0  0  0  0  0  0  0  0  0  0  0  0
   40.4175   25.9933  -17.7905 H   0  0  0  0  0  0  0  0  0  0  0  0
   38.4820   27.1900  -19.5860 H   0  0  0  0  0  0  0  0  0  0  0  0
   36.5988   27.9260  -17.1617 H   0  0  0  0  0  0  0  0  0  0  0  0
   36.1130   28.5000  -14.9040 H   0  0  0  0  0  0  0  0  0  0  0  0
  1  2  2  0
  2  3  1  0
  3  4  1  0
  3  5  2  0
  5  6  1  0
  6  7  2  0
  7  8  1  0
  8  9  2  0
  9 10  1  0
  9 11  1  0
 11 12  2  0
  5 13  1  0
 13 14  1  0
 14 15  2  0
 15 16  1  0
 16 17  1  0
 16 18  2  0
 18 19  1  0
 19 20  1  0
 19 21  2  0
 21  2  1  0
 12  6  1  0
 21 14  1  0
  4 22  1  0
  7 23  1  0
  8 24  1  0
 10 25  1  0
 11 26  1  0
 12 27  1  0
 15 28  1  0
 17 29  1  0
 18 30  1  0
 20 31  1  0
M  END
>  <meeko>  (2) 
{"is_sidechain": [false], "free_energy": -7.488, "intermolecular_energy": -8.849, "internal_energy": 0.243}

$$$$
