safinamide_out
     RDKit          3D

 42 43  0  0  0  0  0  0  0  0999 V2000
   39.0670   26.3460  -16.0330 C   0  0  0  0  0  0  0  0  0  0  0  0
   38.4300   27.6550  -16.4940 C   0  0  2  0  0  0  0  0  0  0  0  0
   37.3080   27.9970  -15.5820 N   0  0  0  0  0  0  0  0  0  0  0  0
   37.7340   28.9640  -14.5630 C   0  0  0  0  0  0  0  0  0  0  0  0
   38.8510   28.3860  -13.7270 C   0  0  0  0  0  0  0  0  0  0  0  0
   38.7870   27.0620  -13.2730 C   0  0  0  0  0  0  0  0  0  0  0  0
   39.8260   26.5130  -12.5130 C   0  0  0  0  0  0  0  0  0  0  0  0
   40.9470   27.2820  -12.2020 C   0  0  0  0  0  0  0  0  0  0  0  0
   42.0290   26.8740  -11.4730 O   0  0  0  0  0  0  0  0  0  0  0  0
   43.3050   27.3600  -11.8780 C   0  0  0  0  0  0  0  0  0  0  0  0
   43.9670   26.2900  -12.7110 C   0  0  0  0  0  0  0  0  0  0  0  0
   43.3750   25.8530  -13.9080 C   0  0  0  0  0  0  0  0  0  0  0  0
   43.9930   24.8740  -14.6920 C   0  0  0  0  0  0  0  0  0  0  0  0
   45.2100   24.3280  -14.2900 C   0  0  0  0  0  0  0  0  0  0  0  0
   45.8030   24.7700  -13.1130 C   0  0  0  0  0  0  0  0  0  0  0  0
   46.9770   24.2490  -12.7310 F   0  0  0  0  0  0  0  0  0  0  0  0
   45.1980   25.7440  -12.3250 C   0  0  0  0  0  0  0  0  0  0  0  0
   41.0190   28.5990  -12.6610 C   0  0  0  0  0  0  0  0  0  0  0  0
   39.9830   29.1490  -13.4200 C   0  0  0  0  0  0  0  0  0  0  0  0
   37.9080   27.4850  -17.9310 C   0  0  0  0  0  0  0  0  0  0  0  0
   38.7400   26.7880  -18.7640 N   0  0  0  0  0  0  0  0  0  0  0  0
   36.8480   27.9540  -18.3290 O   0  0  0  0  0  0  0  0  0  0  0  0
   39.0830   26.3132  -14.9336 H   0  0  0  0  0  0  0  0  0  0  0  0
   38.4809   25.4979  -16.4167 H   0  0  0  0  0  0  0  0  0  0  0  0
   40.0961   26.2839  -16.4167 H   0  0  0  0  0  0  0  0  0  0  0  0
   39.1739   28.4651  -16.4737 H   0  0  0  0  0  0  0  0  0  0  0  0
   36.9830   27.1490  -15.1200 H   0  0  0  0  0  0  0  0  0  0  0  0
   36.5590   28.4160  -16.1320 H   0  0  0  0  0  0  0  0  0  0  0  0
   38.0879   29.8805  -15.0578 H   0  0  0  0  0  0  0  0  0  0  0  0
   36.8800   29.1947  -13.9092 H   0  0  0  0  0  0  0  0  0  0  0  0
   37.9088   26.4462  -13.5171 H   0  0  0  0  0  0  0  0  0  0  0  0
   39.7583   25.4732  -12.1604 H   0  0  0  0  0  0  0  0  0  0  0  0
   43.1836   28.2762  -12.4746 H   0  0  0  0  0  0  0  0  0  0  0  0
   43.9215   27.5962  -10.9981 H   0  0  0  0  0  0  0  0  0  0  0  0
   42.4165   26.2851  -14.2313 H   0  0  0  0  0  0  0  0  0  0  0  0
   43.5189   24.5354  -15.6250 H   0  0  0  0  0  0  0  0  0  0  0  0
   45.6980   23.5530  -14.8993 H   0  0  0  0  0  0  0  0  0  0  0  0
   45.6857   26.0850  -11.3999 H   0  0  0  0  0  0  0  0  0  0  0  0
   41.9017   29.2104  -12.4222 H   0  0  0  0  0  0  0  0  0  0  0  0
   40.0576   30.1865  -13.7778 H   0  0  0  0  0  0  0  0  0  0  0  0
   39.5870   26.4210  -18.4200 H   0  0  0  0  0  0  0  0  0  0  0  0
   38.4930   26.6550  -19.7080 H   0  0  0  0  0  0  0  0  0  0  0  0
  1  2  1  0
  2  3  1  0
  3  4  1  0
  4  5  1  0
  5  6  2  0
  6  7  1  0
  7  8  2  0
  8  9  1  0
  9 10  1  0
 10 11  1  0
 11 12  2  0
 12 13  1  0
 13 14  2  0
 14 15  1  0
 15 16  1  0
 15 17  2  0
  8 18  1  0
 18 19  2  0
  2 20  1  0
 20 21  1  0
 20 22  2  0
 19  5  1  0
 17 11  1  0
  1 23  1  0
  1 24  1  0
  1 25  1  0
  2 26  1  6
  3 27  1  0
  3 28  1  0
  4 29  1  0
  4 30  1  0
  6 31  1  0
  7 32  1  0
 10 33  1  0
 10 34  1  0
 12 35  1  0
 13 36  1  0
 14 37  1  0
 17 38  1  0
 18 39  1  0
 19 40  1  0
 21 41  1  0
 21 42  1  0
M  CHG  1   3   1
M  END
>  <meeko>  (1) 
{"is_sidechain": [false], "free_energy": -4.989, "intermolecular_energy": -7.03, "internal_energy": 0.499}

$$$$
safinamide_out
     RDKit          3D

 42 43  0  0  0  0  0  0  0  0999 V2000
   39.3220   26.5360  -16.1210 C   0  0  0  0  0  0  0  0  0  0  0  0
   38.5180   27.7520  -16.5750 C   0  0  2  0  0  0  0  0  0  0  0  0
   37.4570   28.0340  -15.5740 N   0  0  0  0  0  0  0  0  0  0  0  0
   37.9140   29.0180  -14.5850 C   0  0  0  0  0  0  0  0  0  0  0  0
   38.9500   28.4010  -13.6750 C   0  0  0  0  0  0  0  0  0  0  0  0
   38.7960   27.0890  -13.2090 C   0  0  0  0  0  0  0  0  0  0  0  0
   39.7610   26.5040  -12.3800 C   0  0  0  0  0  0  0  0  0  0  0  0
   40.8960   27.2250  -12.0110 C   0  0  0  0  0  0  0  0  0  0  0  0
   41.9120   26.7780  -11.2120 O   0  0  0  0  0  0  0  0  0  0  0  0
   43.2310   27.2050  -11.5390 C   0  0  0  0  0  0  0  0  0  0  0  0
   43.7490   26.3110  -12.6380 C   0  0  0  0  0  0  0  0  0  0  0  0
   44.9430   25.5900  -12.4650 C   0  0  0  0  0  0  0  0  0  0  0  0
   45.4190   24.7480  -13.4740 C   0  0  0  0  0  0  0  0  0  0  0  0
   44.7020   24.6110  -14.6610 C   0  0  0  0  0  0  0  0  0  0  0  0
   43.5140   25.3130  -14.8270 C   0  0  0  0  0  0  0  0  0  0  0  0
   42.8220   25.1760  -15.9660 F   0  0  0  0  0  0  0  0  0  0  0  0
   43.0300   26.1540  -13.8300 C   0  0  0  0  0  0  0  0  0  0  0  0
   41.0580   28.5290  -12.4810 C   0  0  0  0  0  0  0  0  0  0  0  0
   40.0970   29.1150  -13.3090 C   0  0  0  0  0  0  0  0  0  0  0  0
   37.8850   27.4570  -17.9460 C   0  0  0  0  0  0  0  0  0  0  0  0
   38.6520   26.6890  -18.7780 N   0  0  0  0  0  0  0  0  0  0  0  0
   36.7940   27.8920  -18.2980 O   0  0  0  0  0  0  0  0  0  0  0  0
   39.3450   26.5012  -15.0218 H   0  0  0  0  0  0  0  0  0  0  0  0
   38.8509   25.6200  -16.5071 H   0  0  0  0  0  0  0  0  0  0  0  0
   40.3493   26.6107  -16.5071 H   0  0  0  0  0  0  0  0  0  0  0  0
   39.1760   28.6291  -16.6630 H   0  0  0  0  0  0  0  0  0  0  0  0
   37.2120   27.1690  -15.0950 H   0  0  0  0  0  0  0  0  0  0  0  0
   36.6460   28.4170  -16.0600 H   0  0  0  0  0  0  0  0  0  0  0  0
   38.3559   29.8795  -15.1071 H   0  0  0  0  0  0  0  0  0  0  0  0
   37.0549   29.3451  -13.9808 H   0  0  0  0  0  0  0  0  0  0  0  0
   37.9058   26.5110  -13.4979 H   0  0  0  0  0  0  0  0  0  0  0  0
   39.6235   25.4740  -12.0193 H   0  0  0  0  0  0  0  0  0  0  0  0
   43.2108   28.2490  -11.8849 H   0  0  0  0  0  0  0  0  0  0  0  0
   43.8836   27.1435  -10.6556 H   0  0  0  0  0  0  0  0  0  0  0  0
   45.5083   25.6893  -11.5266 H   0  0  0  0  0  0  0  0  0  0  0  0
   46.3586   24.1941  -13.3312 H   0  0  0  0  0  0  0  0  0  0  0  0
   45.0733   23.9526  -15.4602 H   0  0  0  0  0  0  0  0  0  0  0  0
   42.0837   26.6951  -13.9775 H   0  0  0  0  0  0  0  0  0  0  0  0
   41.9526   29.1022  -12.1963 H   0  0  0  0  0  0  0  0  0  0  0  0
   40.2425   30.1421  -13.6749 H   0  0  0  0  0  0  0  0  0  0  0  0
   39.5260   26.3520  -18.4710 H   0  0  0  0  0  0  0  0  0  0  0  0
   38.3320   26.4730  -19.6840 H   0  0  0  0  0  0  0  0  0  0  0  0
  1  2  1  0
  2  3  1  0
  3  4  1  0
  4  5  1  0
  5  6  2  0
  6  7  1  0
  7  8  2  0
  8  9  1  0
  9 10  1  0
 10 11  1  0
 11 12  2  0
 12 13  1  0
 13 14  2  0
 14 15  1  0
 15 16  1  0
 15 17  2  0
  8 18  1  0
 18 19  2  0
  2 20  1  0
 20 21  1  0
 20 22  2  0
 19  5  1  0
 17 11  1  0
  1 23  1  0
  1 24  1  0
  1 25  1  0
  2 26  1  6
  3 27  1  0
  3 28  1  0
  4 29  1  0
  4 30  1  0
  6 31  1  0
  7 32  1  0
 10 33  1  0
 10 34  1  0
 12 35  1  0
 13 36  1  0
 14 37  1  0
 17 38  1  0
 18 39  1  0
 19 40  1  0
 21 41  1  0
 21 42  1  0
M  CHG  1   3   1
M  END
>  <meeko>  (2) 
{"is_sidechain": [false], "free_energy": -4.894, "intermolecular_energy": -6.906, "internal_energy": 0.508}

$$$$
safinamide_out
     RDKit          3D

 42 43  0  0  0  0  0  0  0  0999 V2000
   38.1000   28.3920  -15.3250 C   0  0  0  0  0  0  0  0  0  0  0  0
   37.6240   27.1770  -16.1180 C   0  0  2  0  0  0  0  0  0  0  0  0
   38.3940   25.9830  -15.6870 N   0  0  0  0  0  0  0  0  0  0  0  0
   38.4730   25.9060  -14.2230 C   0  0  0  0  0  0  0  0  0  0  0  0
   39.8010   26.4420  -13.7430 C   0  0  0  0  0  0  0  0  0  0  0  0
   39.9460   26.9080  -12.4300 C   0  0  0  0  0  0  0  0  0  0  0  0
   41.1780   27.3900  -11.9710 C   0  0  0  0  0  0  0  0  0  0  0  0
   42.2830   27.4060  -12.8220 C   0  0  0  0  0  0  0  0  0  0  0  0
   43.5390   27.8460  -12.5060 O   0  0  0  0  0  0  0  0  0  0  0  0
   44.5160   27.8150  -13.5420 C   0  0  0  0  0  0  0  0  0  0  0  0
   45.3100   26.5410  -13.3930 C   0  0  0  0  0  0  0  0  0  0  0  0
   46.6420   26.5800  -12.9470 C   0  0  0  0  0  0  0  0  0  0  0  0
   47.3760   25.4010  -12.7910 C   0  0  0  0  0  0  0  0  0  0  0  0
   46.7840   24.1720  -13.0720 C   0  0  0  0  0  0  0  0  0  0  0  0
   45.4620   24.1310  -13.4990 C   0  0  0  0  0  0  0  0  0  0  0  0
   44.8910   22.9480  -13.7630 F   0  0  0  0  0  0  0  0  0  0  0  0
   44.7210   25.2980  -13.6580 C   0  0  0  0  0  0  0  0  0  0  0  0
   42.1450   26.9340  -14.1280 C   0  0  0  0  0  0  0  0  0  0  0  0
   40.9160   26.4520  -14.5880 C   0  0  0  0  0  0  0  0  0  0  0  0
   37.8440   27.4340  -17.6190 C   0  0  0  0  0  0  0  0  0  0  0  0
   37.8400   26.3100  -18.3990 N   0  0  0  0  0  0  0  0  0  0  0  0
   38.0410   28.5450  -18.0960 O   0  0  0  0  0  0  0  0  0  0  0  0
   38.0178   28.1823  -14.2483 H   0  0  0  0  0  0  0  0  0  0  0  0
   39.1488   28.6069  -15.5777 H   0  0  0  0  0  0  0  0  0  0  0  0
   37.4763   29.2621  -15.5777 H   0  0  0  0  0  0  0  0  0  0  0  0
   36.5533   27.0026  -15.9355 H   0  0  0  0  0  0  0  0  0  0  0  0
   39.3380   26.0390  -16.0680 H   0  0  0  0  0  0  0  0  0  0  0  0
   37.9180   25.1480  -16.0290 H   0  0  0  0  0  0  0  0  0  0  0  0
   37.6601   26.5027  -13.7834 H   0  0  0  0  0  0  0  0  0  0  0  0
   38.3773   24.8548  -13.9133 H   0  0  0  0  0  0  0  0  0  0  0  0
   39.0809   26.8951  -11.7507 H   0  0  0  0  0  0  0  0  0  0  0  0
   41.2744   27.7564  -10.9383 H   0  0  0  0  0  0  0  0  0  0  0  0
   44.0203   27.8337  -14.5238 H   0  0  0  0  0  0  0  0  0  0  0  0
   45.1787   28.6900  -13.4699 H   0  0  0  0  0  0  0  0  0  0  0  0
   47.1116   27.5481  -12.7184 H   0  0  0  0  0  0  0  0  0  0  0  0
   48.4199   25.4436  -12.4467 H   0  0  0  0  0  0  0  0  0  0  0  0
   47.3583   23.2409  -12.9569 H   0  0  0  0  0  0  0  0  0  0  0  0
   43.6741   25.2445  -13.9913 H   0  0  0  0  0  0  0  0  0  0  0  0
   43.0133   26.9413  -14.8033 H   0  0  0  0  0  0  0  0  0  0  0  0
   40.8252   26.0790  -15.6188 H   0  0  0  0  0  0  0  0  0  0  0  0
   37.6800   25.4280  -17.9910 H   0  0  0  0  0  0  0  0  0  0  0  0
   37.9980   26.3830  -19.3680 H   0  0  0  0  0  0  0  0  0  0  0  0
  1  2  1  0
  2  3  1  0
  3  4  1  0
  4  5  1  0
  5  6  2  0
  6  7  1  0
  7  8  2  0
  8  9  1  0
  9 10  1  0
 10 11  1  0
 11 12  2  0
 12 13  1  0
 13 14  2  0
 14 15  1  0
 15 16  1  0
 15 17  2  0
  8 18  1  0
 18 19  2  0
  2 20  1  0
 20 21  1  0
 20 22  2  0
 19  5  1  0
 17 11  1  0
  1 23  1  0
  1 24  1  0
  1 25  1  0
  2 26  1  6
  3 27  1  0
  3 28  1  0
  4 29  1  0
  4 30  1  0
  6 31  1  0
  7 32  1  0
 10 33  1  0
 10 34  1  0
 12 35  1  0
 13 36  1  0
 14 37  1  0
 17 38  1  0
 18 39  1  0
 19 40  1  0
 21 41  1  0
 21 42  1  0
M  CHG  1   3   1
M  END
>  <meeko>  (3) 
{"is_sidechain": [false], "free_energy": -4.241, "intermolecular_energy": -5.888, "internal_energy": 0.41}

$$$$
safinamide_out
     RDKit          3D

 42 43  0  0  0  0  0  0  0  0999 V2000
   45.1810   24.2090  -13.3780 C   0  0  0  0  0  0  0  0  0  0  0  0
   44.8140   25.1430  -14.5280 C   0  0  2  0  0  0  0  0  0  0  0  0
   45.0740   26.5470  -14.1170 N   0  0  0  0  0  0  0  0  0  0  0  0
   44.7210   26.7570  -12.7080 C   0  0  0  0  0  0  0  0  0  0  0  0
   43.2550   27.0970  -12.5820 C   0  0  0  0  0  0  0  0  0  0  0  0
   42.4710   26.5030  -11.5850 C   0  0  0  0  0  0  0  0  0  0  0  0
   41.1150   26.8270  -11.4500 C   0  0  0  0  0  0  0  0  0  0  0  0
   40.5290   27.7550  -12.3090 C   0  0  0  0  0  0  0  0  0  0  0  0
   39.2240   28.1620  -12.2900 O   0  0  0  0  0  0  0  0  0  0  0  0
   38.7650   28.9250  -13.4020 C   0  0  0  0  0  0  0  0  0  0  0  0
   38.6690   28.0010  -14.5900 C   0  0  0  0  0  0  0  0  0  0  0  0
   39.0880   26.6640  -14.4890 C   0  0  0  0  0  0  0  0  0  0  0  0
   38.9850   25.8000  -15.5820 C   0  0  0  0  0  0  0  0  0  0  0  0
   38.4550   26.2620  -16.7850 C   0  0  0  0  0  0  0  0  0  0  0  0
   38.0270   27.5800  -16.8820 C   0  0  0  0  0  0  0  0  0  0  0  0
   37.5110   28.0210  -18.0380 F   0  0  0  0  0  0  0  0  0  0  0  0
   38.1240   28.4500  -15.8010 C   0  0  0  0  0  0  0  0  0  0  0  0
   41.3100   28.3570  -13.2990 C   0  0  0  0  0  0  0  0  0  0  0  0
   42.6630   28.0360  -13.4340 C   0  0  0  0  0  0  0  0  0  0  0  0
   43.3250   24.9620  -14.8710 C   0  0  0  0  0  0  0  0  0  0  0  0
   42.8810   25.7240  -15.9170 N   0  0  0  0  0  0  0  0  0  0  0  0
   42.5700   24.2220  -14.2510 O   0  0  0  0  0  0  0  0  0  0  0  0
   44.9834   24.7119  -12.4199 H   0  0  0  0  0  0  0  0  0  0  0  0
   44.5761   23.2925  -13.4427 H   0  0  0  0  0  0  0  0  0  0  0  0
   46.2480   23.9494  -13.4427 H   0  0  0  0  0  0  0  0  0  0  0  0
   45.4206   24.9065  -15.4146 H   0  0  0  0  0  0  0  0  0  0  0  0
   44.5170   27.1730  -14.6970 H   0  0  0  0  0  0  0  0  0  0  0  0
   46.0690   26.7400  -14.2340 H   0  0  0  0  0  0  0  0  0  0  0  0
   44.9310   25.8386  -12.1402 H   0  0  0  0  0  0  0  0  0  0  0  0
   45.3180   27.5903  -12.3091 H   0  0  0  0  0  0  0  0  0  0  0  0
   42.9258   25.7729  -10.8994 H   0  0  0  0  0  0  0  0  0  0  0  0
   40.5116   26.3482  -10.6647 H   0  0  0  0  0  0  0  0  0  0  0  0
   37.7759   29.3519  -13.1796 H   0  0  0  0  0  0  0  0  0  0  0  0
   39.4606   29.7504  -13.6137 H   0  0  0  0  0  0  0  0  0  0  0  0
   39.5015   26.2935  -13.5394 H   0  0  0  0  0  0  0  0  0  0  0  0
   39.3218   24.7566  -15.4930 H   0  0  0  0  0  0  0  0  0  0  0  0
   38.3761   25.5884  -17.6510 H   0  0  0  0  0  0  0  0  0  0  0  0
   37.7737   29.4884  -15.8962 H   0  0  0  0  0  0  0  0  0  0  0  0
   40.8546   29.0916  -13.9794 H   0  0  0  0  0  0  0  0  0  0  0  0
   43.2660   28.5239  -14.2140 H   0  0  0  0  0  0  0  0  0  0  0  0
   43.5080   26.3110  -16.3990 H   0  0  0  0  0  0  0  0  0  0  0  0
   41.9350   25.6870  -16.1870 H   0  0  0  0  0  0  0  0  0  0  0  0
  1  2  1  0
  2  3  1  0
  3  4  1  0
  4  5  1  0
  5  6  2  0
  6  7  1  0
  7  8  2  0
  8  9  1  0
  9 10  1  0
 10 11  1  0
 11 12  2  0
 12 13  1  0
 13 14  2  0
 14 15  1  0
 15 16  1  0
 15 17  2  0
  8 18  1  0
 18 19  2  0
  2 20  1  0
 20 21  1  0
 20 22  2  0
 19  5  1  0
 17 11  1  0
  1 23  1  0
  1 24  1  0
  1 25  1  0
  2 26  1  6
  3 27  1  0
  3 28  1  0
  4 29  1  0
  4 30  1  0
  6 31  1  0
  7 32  1  0
 10 33  1  0
 10 34  1  0
 12 35  1  0
 13 36  1  0
 14 37  1  0
 17 38  1  0
 18 39  1  0
 19 40  1  0
 21 41  1  0
 21 42  1  0
M  CHG  1   3   1
M  END
>  <meeko>  (4) 
{"is_sidechain": [false], "free_energy": -4.075, "intermolecular_energy": -6.067, "internal_energy": 0.824}

$$$$
safinamide_out
     RDKit          3D

 42 43  0  0  0  0  0  0  0  0999 V2000
   38.3060   27.5200  -17.5980 C   0  0  0  0  0  0  0  0  0  0  0  0
   38.6250   27.3860  -16.1110 C   0  0  2  0  0  0  0  0  0  0  0  0
   38.2320   26.0310  -15.6490 N   0  0  0  0  0  0  0  0  0  0  0  0
   38.3950   25.9010  -14.1970 C   0  0  0  0  0  0  0  0  0  0  0  0
   39.7320   26.4580  -13.7690 C   0  0  0  0  0  0  0  0  0  0  0  0
   39.8980   27.0070  -12.4910 C   0  0  0  0  0  0  0  0  0  0  0  0
   41.1390   27.5090  -12.0810 C   0  0  0  0  0  0  0  0  0  0  0  0
   42.2320   27.4630  -12.9460 C   0  0  0  0  0  0  0  0  0  0  0  0
   43.4950   27.9140  -12.6760 O   0  0  0  0  0  0  0  0  0  0  0  0
   44.4580   27.8100  -13.7200 C   0  0  0  0  0  0  0  0  0  0  0  0
   45.2750   26.5650  -13.4760 C   0  0  0  0  0  0  0  0  0  0  0  0
   46.5730   26.6580  -12.9470 C   0  0  0  0  0  0  0  0  0  0  0  0
   47.3270   25.5070  -12.7030 C   0  0  0  0  0  0  0  0  0  0  0  0
   46.7880   24.2520  -12.9780 C   0  0  0  0  0  0  0  0  0  0  0  0
   45.4980   24.1580  -13.4880 C   0  0  0  0  0  0  0  0  0  0  0  0
   44.9780   22.9510  -13.7460 F   0  0  0  0  0  0  0  0  0  0  0  0
   44.7380   25.2970  -13.7350 C   0  0  0  0  0  0  0  0  0  0  0  0
   42.0740   26.9080  -14.2170 C   0  0  0  0  0  0  0  0  0  0  0  0
   40.8360   26.4060  -14.6280 C   0  0  0  0  0  0  0  0  0  0  0  0
   37.8450   28.4570  -15.3280 C   0  0  0  0  0  0  0  0  0  0  0  0
   38.6140   29.4650  -14.8150 N   0  0  0  0  0  0  0  0  0  0  0  0
   36.6340   28.4150  -15.1410 O   0  0  0  0  0  0  0  0  0  0  0  0
   37.2981   27.9434  -17.7201 H   0  0  0  0  0  0  0  0  0  0  0  0
   39.0429   28.1846  -18.0726 H   0  0  0  0  0  0  0  0  0  0  0  0
   38.3472   26.5285  -18.0726 H   0  0  0  0  0  0  0  0  0  0  0  0
   39.7026   27.5278  -15.9417 H   0  0  0  0  0  0  0  0  0  0  0  0
   38.8170   25.3370  -16.1130 H   0  0  0  0  0  0  0  0  0  0  0  0
   37.2490   25.8820  -15.8790 H   0  0  0  0  0  0  0  0  0  0  0  0
   37.5915   26.4557  -13.6903 H   0  0  0  0  0  0  0  0  0  0  0  0
   38.3466   24.8363  -13.9248 H   0  0  0  0  0  0  0  0  0  0  0  0
   39.0424   27.0442  -11.8007 H   0  0  0  0  0  0  0  0  0  0  0  0
   41.2521   27.9402  -11.0754 H   0  0  0  0  0  0  0  0  0  0  0  0
   43.9487   27.7380  -14.6923 H   0  0  0  0  0  0  0  0  0  0  0  0
   45.1073   28.6978  -13.7318 H   0  0  0  0  0  0  0  0  0  0  0  0
   47.0001   27.6466  -12.7226 H   0  0  0  0  0  0  0  0  0  0  0  0
   48.3448   25.5917  -12.2943 H   0  0  0  0  0  0  0  0  0  0  0  0
   47.3785   23.3426  -12.7930 H   0  0  0  0  0  0  0  0  0  0  0  0
   43.7169   25.2021  -14.1331 H   0  0  0  0  0  0  0  0  0  0  0  0
   42.9331   26.8653  -14.9026 H   0  0  0  0  0  0  0  0  0  0  0  0
   40.7287   25.9680  -15.6313 H   0  0  0  0  0  0  0  0  0  0  0  0
   39.5850   29.4760  -14.9790 H   0  0  0  0  0  0  0  0  0  0  0  0
   38.1980   30.1790  -14.2790 H   0  0  0  0  0  0  0  0  0  0  0  0
  1  2  1  0
  2  3  1  0
  3  4  1  0
  4  5  1  0
  5  6  2  0
  6  7  1  0
  7  8  2  0
  8  9  1  0
  9 10  1  0
 10 11  1  0
 11 12  2  0
 12 13  1  0
 13 14  2  0
 14 15  1  0
 15 16  1  0
 15 17  2  0
  8 18  1  0
 18 19  2  0
  2 20  1  0
 20 21  1  0
 20 22  2  0
 19  5  1  0
 17 11  1  0
  1 23  1  0
  1 24  1  0
  1 25  1  0
  2 26  1  6
  3 27  1  0
  3 28  1  0
  4 29  1  0
  4 30  1  0
  6 31  1  0
  7 32  1  0
 10 33  1  0
 10 34  1  0
 12 35  1  0
 13 36  1  0
 14 37  1  0
 17 38  1  0
 18 39  1  0
 19 40  1  0
 21 41  1  0
 21 42  1  0
M  CHG  1   3   1
M  END
>  <meeko>  (5) 
{"is_sidechain": [false], "free_energy": -3.828, "intermolecular_energy": -5.79, "internal_energy": 0.894}

$$$$
safinamide_out
     RDKit          3D

 42 43  0  0  0  0  0  0  0  0999 V2000
   38.2630   28.8800  -15.0600 C   0  0  0  0  0  0  0  0  0  0  0  0
   37.9750   27.4550  -15.5230 C   0  0  2  0  0  0  0  0  0  0  0  0
   38.9060   26.5230  -14.8370 N   0  0  0  0  0  0  0  0  0  0  0  0
   39.6340   27.2030  -13.7600 C   0  0  0  0  0  0  0  0  0  0  0  0
   41.1040   26.8630  -13.8270 C   0  0  0  0  0  0  0  0  0  0  0  0
   41.5790   25.9430  -14.7710 C   0  0  0  0  0  0  0  0  0  0  0  0
   42.9430   25.6360  -14.8510 C   0  0  0  0  0  0  0  0  0  0  0  0
   43.8500   26.2520  -13.9910 C   0  0  0  0  0  0  0  0  0  0  0  0
   45.2020   26.0480  -13.9610 O   0  0  0  0  0  0  0  0  0  0  0  0
   45.8480   26.1660  -12.6980 C   0  0  0  0  0  0  0  0  0  0  0  0
   47.1450   26.9090  -12.9080 C   0  0  0  0  0  0  0  0  0  0  0  0
   47.7580   27.5860  -11.8400 C   0  0  0  0  0  0  0  0  0  0  0  0
   48.9680   28.2610  -12.0260 C   0  0  0  0  0  0  0  0  0  0  0  0
   49.5800   28.2590  -13.2780 C   0  0  0  0  0  0  0  0  0  0  0  0
   48.9810   27.5770  -14.3300 C   0  0  0  0  0  0  0  0  0  0  0  0
   49.5740   27.5690  -15.5320 F   0  0  0  0  0  0  0  0  0  0  0  0
   47.7770   26.9010  -14.1580 C   0  0  0  0  0  0  0  0  0  0  0  0
   43.3820   27.1770  -13.0550 C   0  0  0  0  0  0  0  0  0  0  0  0
   42.0220   27.4850  -12.9730 C   0  0  0  0  0  0  0  0  0  0  0  0
   38.1700   27.3690  -17.0470 C   0  0  0  0  0  0  0  0  0  0  0  0
   38.6270   26.1610  -17.4990 N   0  0  0  0  0  0  0  0  0  0  0  0
   37.9690   28.3060  -17.8120 O   0  0  0  0  0  0  0  0  0  0  0  0
   38.2699   28.9140  -13.9605 H   0  0  0  0  0  0  0  0  0  0  0  0
   39.2437   29.1988  -15.4428 H   0  0  0  0  0  0  0  0  0  0  0  0
   37.4830   29.5546  -15.4428 H   0  0  0  0  0  0  0  0  0  0  0  0
   36.9392   27.1796  -15.2756 H   0  0  0  0  0  0  0  0  0  0  0  0
   39.5760   26.1610  -15.5150 H   0  0  0  0  0  0  0  0  0  0  0  0
   38.3610   25.7620  -14.4300 H   0  0  0  0  0  0  0  0  0  0  0  0
   39.5076   28.2905  -13.8665 H   0  0  0  0  0  0  0  0  0  0  0  0
   39.2331   26.8709  -12.7910 H   0  0  0  0  0  0  0  0  0  0  0  0
   40.8715   25.4557  -15.4580 H   0  0  0  0  0  0  0  0  0  0  0  0
   43.2991   24.9073  -15.5941 H   0  0  0  0  0  0  0  0  0  0  0  0
   45.2061   26.7243  -12.0006 H   0  0  0  0  0  0  0  0  0  0  0  0
   46.0413   25.1705  -12.2720 H   0  0  0  0  0  0  0  0  0  0  0  0
   47.2814   27.5848  -10.8486 H   0  0  0  0  0  0  0  0  0  0  0  0
   49.4365   28.7931  -11.1850 H   0  0  0  0  0  0  0  0  0  0  0  0
   50.5293   28.7929  -13.4321 H   0  0  0  0  0  0  0  0  0  0  0  0
   47.3225   26.3614  -15.0019 H   0  0  0  0  0  0  0  0  0  0  0  0
   44.0927   27.6687  -12.3745 H   0  0  0  0  0  0  0  0  0  0  0  0
   41.6708   28.2199  -12.2337 H   0  0  0  0  0  0  0  0  0  0  0  0
   38.7810   25.4240  -16.8640 H   0  0  0  0  0  0  0  0  0  0  0  0
   38.8020   26.0290  -18.4590 H   0  0  0  0  0  0  0  0  0  0  0  0
  1  2  1  0
  2  3  1  0
  3  4  1  0
  4  5  1  0
  5  6  2  0
  6  7  1  0
  7  8  2  0
  8  9  1  0
  9 10  1  0
 10 11  1  0
 11 12  2  0
 12 13  1  0
 13 14  2  0
 14 15  1  0
 15 16  1  0
 15 17  2  0
  8 18  1  0
 18 19  2  0
  2 20  1  0
 20 21  1  0
 20 22  2  0
 19  5  1  0
 17 11  1  0
  1 23  1  0
  1 24  1  0
  1 25  1  0
  2 26  1  6
  3 27  1  0
  3 28  1  0
  4 29  1  0
  4 30  1  0
  6 31  1  0
  7 32  1  0
 10 33  1  0
 10 34  1  0
 12 35  1  0
 13 36  1  0
 14 37  1  0
 17 38  1  0
 18 39  1  0
 19 40  1  0
 21 41  1  0
 21 42  1  0
M  CHG  1   3   1
M  END
>  <meeko>  (6) 
{"is_sidechain": [false], "free_energy": -3.805, "intermolecular_energy": -4.089, "internal_energy": -0.775}

$$$$
safinamide_out
     RDKit          3D

 42 43  0  0  0  0  0  0  0  0999 V2000
   38.4050   28.5870  -15.1290 C   0  0  0  0  0  0  0  0  0  0  0  0
   37.9540   27.2640  -15.7420 C   0  0  2  0  0  0  0  0  0  0  0  0
   38.8150   26.1700  -15.2260 N   0  0  0  0  0  0  0  0  0  0  0  0
   39.0800   26.3390  -13.7930 C   0  0  0  0  0  0  0  0  0  0  0  0
   40.5660   26.4640  -13.5470 C   0  0  0  0  0  0  0  0  0  0  0  0
   41.4830   26.1360  -14.5540 C   0  0  0  0  0  0  0  0  0  0  0  0
   42.8600   26.2670  -14.3400 C   0  0  0  0  0  0  0  0  0  0  0  0
   43.3370   26.7340  -13.1150 C   0  0  0  0  0  0  0  0  0  0  0  0
   44.6490   26.9100  -12.7730 O   0  0  0  0  0  0  0  0  0  0  0  0
   45.6240   26.2730  -13.5930 C   0  0  0  0  0  0  0  0  0  0  0  0
   46.9620   26.9040  -13.2990 C   0  0  0  0  0  0  0  0  0  0  0  0
   47.9140   27.0650  -14.3200 C   0  0  0  0  0  0  0  0  0  0  0  0
   49.1480   27.6650  -14.0550 C   0  0  0  0  0  0  0  0  0  0  0  0
   49.4400   28.1170  -12.7700 C   0  0  0  0  0  0  0  0  0  0  0  0
   48.4940   27.9710  -11.7630 C   0  0  0  0  0  0  0  0  0  0  0  0
   48.7730   28.4120  -10.5280 F   0  0  0  0  0  0  0  0  0  0  0  0
   47.2620   27.3760  -12.0140 C   0  0  0  0  0  0  0  0  0  0  0  0
   42.4250   27.0710  -12.1120 C   0  0  0  0  0  0  0  0  0  0  0  0
   41.0500   26.9420  -12.3240 C   0  0  0  0  0  0  0  0  0  0  0  0
   38.0700   27.3500  -17.2740 C   0  0  0  0  0  0  0  0  0  0  0  0
   38.2830   26.1520  -17.9000 N   0  0  0  0  0  0  0  0  0  0  0  0
   38.0110   28.4010  -17.9020 O   0  0  0  0  0  0  0  0  0  0  0  0
   38.3789   28.5106  -14.0320 H   0  0  0  0  0  0  0  0  0  0  0  0
   39.4307   28.8122  -15.4566 H   0  0  0  0  0  0  0  0  0  0  0  0
   37.7304   29.3918  -15.4566 H   0  0  0  0  0  0  0  0  0  0  0  0
   36.9077   27.0595  -15.4708 H   0  0  0  0  0  0  0  0  0  0  0  0
   39.7010   26.1760  -15.7310 H   0  0  0  0  0  0  0  0  0  0  0  0
   38.3300   25.2830  -15.3630 H   0  0  0  0  0  0  0  0  0  0  0  0
   38.5749   27.2483  -13.4351 H   0  0  0  0  0  0  0  0  0  0  0  0
   38.6998   25.4599  -13.2521 H   0  0  0  0  0  0  0  0  0  0  0  0
   41.1164   25.7710  -15.5248 H   0  0  0  0  0  0  0  0  0  0  0  0
   43.5675   26.0012  -15.1393 H   0  0  0  0  0  0  0  0  0  0  0  0
   45.6597   25.1977  -13.3641 H   0  0  0  0  0  0  0  0  0  0  0  0
   45.3687   26.3946  -14.6560 H   0  0  0  0  0  0  0  0  0  0  0  0
   47.6857   26.7154  -15.3377 H   0  0  0  0  0  0  0  0  0  0  0  0
   49.8882   27.7803  -14.8605 H   0  0  0  0  0  0  0  0  0  0  0  0
   50.4116   28.5856  -12.5544 H   0  0  0  0  0  0  0  0  0  0  0  0
   46.5239   27.2760  -11.2046 H   0  0  0  0  0  0  0  0  0  0  0  0
   42.7935   27.4421  -11.1443 H   0  0  0  0  0  0  0  0  0  0  0  0
   40.3448   27.2174  -11.5260 H   0  0  0  0  0  0  0  0  0  0  0  0
   38.3260   25.3210  -17.3730 H   0  0  0  0  0  0  0  0  0  0  0  0
   38.3940   26.1200  -18.8780 H   0  0  0  0  0  0  0  0  0  0  0  0
  1  2  1  0
  2  3  1  0
  3  4  1  0
  4  5  1  0
  5  6  2  0
  6  7  1  0
  7  8  2  0
  8  9  1  0
  9 10  1  0
 10 11  1  0
 11 12  2  0
 12 13  1  0
 13 14  2  0
 14 15  1  0
 15 16  1  0
 15 17  2  0
  8 18  1  0
 18 19  2  0
  2 20  1  0
 20 21  1  0
 20 22  2  0
 19  5  1  0
 17 11  1  0
  1 23  1  0
  1 24  1  0
  1 25  1  0
  2 26  1  6
  3 27  1  0
  3 28  1  0
  4 29  1  0
  4 30  1  0
  6 31  1  0
  7 32  1  0
 10 33  1  0
 10 34  1  0
 12 35  1  0
 13 36  1  0
 14 37  1  0
 17 38  1  0
 18 39  1  0
 19 40  1  0
 21 41  1  0
 21 42  1  0
M  CHG  1   3   1
M  END
>  <meeko>  (7) 
{"is_sidechain": [false], "free_energy": -3.046, "intermolecular_energy": -3.218, "internal_energy": -0.575}

$$$$
safinamide_out
     RDKit          3D

 42 43  0  0  0  0  0  0  0  0999 V2000
   46.3320   27.0860  -12.1640 C   0  0  0  0  0  0  0  0  0  0  0  0
   46.5600   26.2520  -13.4230 C   0  0  2  0  0  0  0  0  0  0  0  0
   45.6600   26.7410  -14.4990 N   0  0  0  0  0  0  0  0  0  0  0  0
   44.7830   27.8100  -14.0080 C   0  0  0  0  0  0  0  0  0  0  0  0
   43.3970   27.2690  -13.7440 C   0  0  0  0  0  0  0  0  0  0  0  0
   42.8730   26.2410  -14.5380 C   0  0  0  0  0  0  0  0  0  0  0  0
   41.5960   25.7210  -14.2880 C   0  0  0  0  0  0  0  0  0  0  0  0
   40.8310   26.2230  -13.2360 C   0  0  0  0  0  0  0  0  0  0  0  0
   39.5770   25.8090  -12.8820 O   0  0  0  0  0  0  0  0  0  0  0  0
   38.7460   25.2960  -13.9190 C   0  0  0  0  0  0  0  0  0  0  0  0
   38.4980   26.4080  -14.9090 C   0  0  0  0  0  0  0  0  0  0  0  0
   38.3270   27.7300  -14.4660 C   0  0  0  0  0  0  0  0  0  0  0  0
   38.1150   28.7650  -15.3810 C   0  0  0  0  0  0  0  0  0  0  0  0
   38.0790   28.4900  -16.7460 C   0  0  0  0  0  0  0  0  0  0  0  0
   38.2620   27.1840  -17.1860 C   0  0  0  0  0  0  0  0  0  0  0  0
   38.2340   26.9220  -18.4990 F   0  0  0  0  0  0  0  0  0  0  0  0
   38.4750   26.1460  -16.2850 C   0  0  0  0  0  0  0  0  0  0  0  0
   41.3540   27.2410  -12.4370 C   0  0  0  0  0  0  0  0  0  0  0  0
   42.6280   27.7600  -12.6830 C   0  0  0  0  0  0  0  0  0  0  0  0
   46.2580   24.7750  -13.1130 C   0  0  0  0  0  0  0  0  0  0  0  0
   47.3280   23.9320  -13.2460 N   0  0  0  0  0  0  0  0  0  0  0  0
   45.1480   24.3600  -12.8010 O   0  0  0  0  0  0  0  0  0  0  0  0
   46.5027   26.4616  -11.2746 H   0  0  0  0  0  0  0  0  0  0  0  0
   47.0309   27.9354  -12.1553 H   0  0  0  0  0  0  0  0  0  0  0  0
   45.2982   27.4617  -12.1553 H   0  0  0  0  0  0  0  0  0  0  0  0
   47.6049   26.3447  -13.7541 H   0  0  0  0  0  0  0  0  0  0  0  0
   45.0870   25.9670  -14.8320 H   0  0  0  0  0  0  0  0  0  0  0  0
   46.2330   27.1150  -15.2550 H   0  0  0  0  0  0  0  0  0  0  0  0
   45.1969   28.2195  -13.0747 H   0  0  0  0  0  0  0  0  0  0  0  0
   44.7202   28.6007  -14.7701 H   0  0  0  0  0  0  0  0  0  0  0  0
   43.4712   25.8369  -15.3680 H   0  0  0  0  0  0  0  0  0  0  0  0
   41.1967   24.9159  -14.9224 H   0  0  0  0  0  0  0  0  0  0  0  0
   39.2491   24.4555  -14.4195 H   0  0  0  0  0  0  0  0  0  0  0  0
   37.7940   24.9345  -13.5030 H   0  0  0  0  0  0  0  0  0  0  0  0
   38.3602   27.9527  -13.3893 H   0  0  0  0  0  0  0  0  0  0  0  0
   37.9767   29.7960  -15.0234 H   0  0  0  0  0  0  0  0  0  0  0  0
   37.9071   29.2999  -17.4702 H   0  0  0  0  0  0  0  0  0  0  0  0
   38.6253   25.1202  -16.6526 H   0  0  0  0  0  0  0  0  0  0  0  0
   40.7563   27.6394  -11.6039 H   0  0  0  0  0  0  0  0  0  0  0  0
   43.0280   28.5578  -12.0399 H   0  0  0  0  0  0  0  0  0  0  0  0
   48.2090   24.2910  -13.4990 H   0  0  0  0  0  0  0  0  0  0  0  0
   47.2160   22.9660  -13.0910 H   0  0  0  0  0  0  0  0  0  0  0  0
  1  2  1  0
  2  3  1  0
  3  4  1  0
  4  5  1  0
  5  6  2  0
  6  7  1  0
  7  8  2  0
  8  9  1  0
  9 10  1  0
 10 11  1  0
 11 12  2  0
 12 13  1  0
 13 14  2  0
 14 15  1  0
 15 16  1  0
 15 17  2  0
  8 18  1  0
 18 19  2  0
  2 20  1  0
 20 21  1  0
 20 22  2  0
 19  5  1  0
 17 11  1  0
  1 23  1  0
  1 24  1  0
  1 25  1  0
  2 26  1  6
  3 27  1  0
  3 28  1  0
  4 29  1  0
  4 30  1  0
  6 31  1  0
  7 32  1  0
 10 33  1  0
 10 34  1  0
 12 35  1  0
 13 36  1  0
 14 37  1  0
 17 38  1  0
 18 39  1  0
 19 40  1  0
 21 41  1  0
 21 42  1  0
M  CHG  1   3   1
M  END
>  <meeko>  (8) 
{"is_sidechain": [false], "free_energy": -2.96, "intermolecular_energy": -3.136, "internal_energy": -0.536}

$$$$
safinamide_out
     RDKit          3D

 42 43  0  0  0  0  0  0  0  0999 V2000
   46.6370   24.9520  -12.6650 C   0  0  0  0  0  0  0  0  0  0  0  0
   46.3330   26.4230  -12.9360 C   0  0  2  0  0  0  0  0  0  0  0  0
   45.9670   26.5890  -14.3660 N   0  0  0  0  0  0  0  0  0  0  0  0
   45.0080   27.6860  -14.5400 C   0  0  0  0  0  0  0  0  0  0  0  0
   43.6480   27.2790  -14.0230 C   0  0  0  0  0  0  0  0  0  0  0  0
   43.0040   28.0400  -13.0400 C   0  0  0  0  0  0  0  0  0  0  0  0
   41.7360   27.6790  -12.5690 C   0  0  0  0  0  0  0  0  0  0  0  0
   41.0940   26.5530  -13.0810 C   0  0  0  0  0  0  0  0  0  0  0  0
   39.8620   26.0890  -12.7140 O   0  0  0  0  0  0  0  0  0  0  0  0
   39.0800   25.4550  -13.7220 C   0  0  0  0  0  0  0  0  0  0  0  0
   38.6760   26.5070  -14.7250 C   0  0  0  0  0  0  0  0  0  0  0  0
   38.3220   27.7990  -14.2990 C   0  0  0  0  0  0  0  0  0  0  0  0
   37.9630   28.7810  -15.2260 C   0  0  0  0  0  0  0  0  0  0  0  0
   37.9620   28.4850  -16.5870 C   0  0  0  0  0  0  0  0  0  0  0  0
   38.3250   27.2120  -17.0100 C   0  0  0  0  0  0  0  0  0  0  0  0
   38.3300   26.9300  -18.3200 F   0  0  0  0  0  0  0  0  0  0  0  0
   38.6840   26.2260  -16.0970 C   0  0  0  0  0  0  0  0  0  0  0  0
   41.7290   25.7960  -14.0680 C   0  0  0  0  0  0  0  0  0  0  0  0
   42.9940   26.1550  -14.5400 C   0  0  0  0  0  0  0  0  0  0  0  0
   47.5770   27.2660  -12.6080 C   0  0  0  0  0  0  0  0  0  0  0  0
   48.5210   27.3030  -13.5980 N   0  0  0  0  0  0  0  0  0  0  0  0
   47.7450   27.8420  -11.5390 O   0  0  0  0  0  0  0  0  0  0  0  0
   46.6728   24.7790  -11.5793 H   0  0  0  0  0  0  0  0  0  0  0  0
   45.8491   24.3267  -13.1102 H   0  0  0  0  0  0  0  0  0  0  0  0
   47.6082   24.6902  -13.1102 H   0  0  0  0  0  0  0  0  0  0  0  0
   45.4950   26.7574  -12.3067 H   0  0  0  0  0  0  0  0  0  0  0  0
   45.5490   25.7240  -14.7060 H   0  0  0  0  0  0  0  0  0  0  0  0
   46.8120   26.8110  -14.8930 H   0  0  0  0  0  0  0  0  0  0  0  0
   45.3593   28.5672  -13.9831 H   0  0  0  0  0  0  0  0  0  0  0  0
   44.9275   27.9250  -15.6107 H   0  0  0  0  0  0  0  0  0  0  0  0
   43.5006   28.9329  -12.6325 H   0  0  0  0  0  0  0  0  0  0  0  0
   41.2455   28.2853  -11.7933 H   0  0  0  0  0  0  0  0  0  0  0  0
   39.6732   24.6731  -14.2188 H   0  0  0  0  0  0  0  0  0  0  0  0
   38.1893   24.9864  -13.2781 H   0  0  0  0  0  0  0  0  0  0  0  0
   38.3277   28.0393  -13.2256 H   0  0  0  0  0  0  0  0  0  0  0  0
   37.6814   29.7869  -14.8812 H   0  0  0  0  0  0  0  0  0  0  0  0
   37.6762   29.2527  -17.3211 H   0  0  0  0  0  0  0  0  0  0  0  0
   38.9740   25.2262  -16.4523 H   0  0  0  0  0  0  0  0  0  0  0  0
   41.2275   24.9071  -14.4784 H   0  0  0  0  0  0  0  0  0  0  0  0
   43.4782   25.5513  -15.3217 H   0  0  0  0  0  0  0  0  0  0  0  0
   48.3620   26.8310  -14.4470 H   0  0  0  0  0  0  0  0  0  0  0  0
   49.3600   27.8000  -13.4600 H   0  0  0  0  0  0  0  0  0  0  0  0
  1  2  1  0
  2  3  1  0
  3  4  1  0
  4  5  1  0
  5  6  2  0
  6  7  1  0
  7  8  2  0
  8  9  1  0
  9 10  1  0
 10 11  1  0
 11 12  2  0
 12 13  1  0
 13 14  2  0
 14 15  1  0
 15 16  1  0
 15 17  2  0
  8 18  1  0
 18 19  2  0
  2 20  1  0
 20 21  1  0
 20 22  2  0
 19  5  1  0
 17 11  1  0
  1 23  1  0
  1 24  1  0
  1 25  1  0
  2 26  1  1
  3 27  1  0
  3 28  1  0
  4 29  1  0
  4 30  1  0
  6 31  1  0
  7 32  1  0
 10 33  1  0
 10 34  1  0
 12 35  1  0
 13 36  1  0
 14 37  1  0
 17 38  1  0
 18 39  1  0
 19 40  1  0
 21 41  1  0
 21 42  1  0
M  CHG  1   3   1
M  END
>  <meeko>  (9) 
{"is_sidechain": [false], "free_energy": -2.744, "intermolecular_energy": -2.732, "internal_energy": -0.636}

$$$$
