9IV_ttbk1_out
     RDKit          3D

 37 40  0  0  0  0  0  0  0  0999 V2000
   46.8250  159.8230   31.1860 Cl  0  0  0  0  0  0  0  0  0  0  0  0
   48.2210  160.5410   31.8990 C   0  0  0  0  0  0  0  0  0  0  0  0
   48.1200  161.0570   33.1940 C   0  0  0  0  0  0  0  0  0  0  0  0
   49.2330  161.6450   33.8010 C   0  0  0  0  0  0  0  0  0  0  0  0
   50.4470  161.7110   33.1190 C   0  0  0  0  0  0  0  0  0  0  0  0
   50.5530  161.1960   31.8250 C   0  0  0  0  0  0  0  0  0  0  0  0
   49.4330  160.6270   31.2060 C   0  0  0  0  0  0  0  0  0  0  0  0
   49.5290  160.0780   29.9460 O   0  0  0  0  0  0  0  0  0  0  0  0
   50.2560  158.9160   29.8230 C   0  0  0  0  0  0  0  0  0  0  0  0
   51.6040  158.8960   29.4650 C   0  0  0  0  0  0  0  0  0  0  0  0
   52.2660  157.6720   29.3300 C   0  0  0  0  0  0  0  0  0  0  0  0
   51.5960  156.4600   29.5470 C   0  0  0  0  0  0  0  0  0  0  0  0
   52.3130  155.2590   29.3650 N   0  0  0  0  0  0  0  0  0  0  0  0
   52.3410  154.4310   28.2320 C   0  0  0  0  0  0  0  0  0  0  0  0
   51.9990  153.1310   28.4190 N   0  0  0  0  0  0  0  0  0  0  0  0
   52.0020  152.3030   27.3550 C   0  0  0  0  0  0  0  0  0  0  0  0
   52.2950  152.5930   26.0780 N   0  0  0  0  0  0  0  0  0  0  0  0
   52.5960  153.8910   25.9310 C   0  0  0  0  0  0  0  0  0  0  0  0
   52.9120  154.4840   24.7400 N   0  0  0  0  0  0  0  0  0  0  0  0
   53.1400  155.8230   24.9350 C   0  0  0  0  0  0  0  0  0  0  0  0
   52.9690  156.0840   26.2780 C   0  0  0  0  0  0  0  0  0  0  0  0
   52.6370  154.8580   26.9240 C   0  0  0  0  0  0  0  0  0  0  0  0
   50.2320  156.4990   29.8620 C   0  0  0  0  0  0  0  0  0  0  0  0
   49.5640  157.7190   29.9980 C   0  0  0  0  0  0  0  0  0  0  0  0
   47.1642  161.0003   33.7355 H   0  0  0  0  0  0  0  0  0  0  0  0
   49.1510  162.0562   34.8180 H   0  0  0  0  0  0  0  0  0  0  0  0
   51.3231  162.1695   33.6008 H   0  0  0  0  0  0  0  0  0  0  0  0
   51.5148  161.2373   31.2929 H   0  0  0  0  0  0  0  0  0  0  0  0
   52.1435  159.8385   29.2898 H   0  0  0  0  0  0  0  0  0  0  0  0
   53.3294  157.6599   29.0491 H   0  0  0  0  0  0  0  0  0  0  0  0
   52.8620  154.9650   30.1280 H   0  0  0  0  0  0  0  0  0  0  0  0
   51.7297  151.2571   27.5596 H   0  0  0  0  0  0  0  0  0  0  0  0
   52.9670  154.0210   23.8730 H   0  0  0  0  0  0  0  0  0  0  0  0
   53.4103  156.5555   24.1602 H   0  0  0  0  0  0  0  0  0  0  0  0
   53.0709  157.0652   26.7647 H   0  0  0  0  0  0  0  0  0  0  0  0
   49.6799  155.5583   30.0041 H   0  0  0  0  0  0  0  0  0  0  0  0
   48.4918  157.7345   30.2432 H   0  0  0  0  0  0  0  0  0  0  0  0
  1  2  1  0
  2  3  2  0
  3  4  1  0
  4  5  2  0
  5  6  1  0
  6  7  2  0
  7  8  1  0
  8  9  1  0
  9 10  2  0
 10 11  1  0
 11 12  2  0
 12 13  1  0
 13 14  1  0
 14 15  2  0
 15 16  1  0
 16 17  2  0
 17 18  1  0
 18 19  1  0
 19 20  1  0
 20 21  2  0
 21 22  1  0
 12 23  1  0
 23 24  2  0
  7  2  1  0
 24  9  1  0
 22 14  1  0
 22 18  2  0
  3 25  1  0
  4 26  1  0
  5 27  1  0
  6 28  1  0
 10 29  1  0
 11 30  1  0
 13 31  1  0
 16 32  1  0
 19 33  1  0
 20 34  1  0
 21 35  1  0
 23 36  1  0
 24 37  1  0
M  END
>  <meeko>  (1) 
{"is_sidechain": [false], "free_energy": -10.571, "intermolecular_energy": -13.043, "internal_energy": -0.81}

$$$$
9IV_ttbk1_out
     RDKit          3D

 37 40  0  0  0  0  0  0  0  0999 V2000
   52.1900  161.4160   31.4960 Cl  0  0  0  0  0  0  0  0  0  0  0  0
   50.5450  161.1360   31.9330 C   0  0  0  0  0  0  0  0  0  0  0  0
   50.1060  161.5600   33.1900 C   0  0  0  0  0  0  0  0  0  0  0  0
   48.7800  161.3500   33.5740 C   0  0  0  0  0  0  0  0  0  0  0  0
   47.8900  160.7220   32.7020 C   0  0  0  0  0  0  0  0  0  0  0  0
   48.3250  160.2980   31.4450 C   0  0  0  0  0  0  0  0  0  0  0  0
   49.6600  160.4880   31.0660 C   0  0  0  0  0  0  0  0  0  0  0  0
   50.0960  160.1120   29.8140 O   0  0  0  0  0  0  0  0  0  0  0  0
   50.5780  158.8300   29.6790 C   0  0  0  0  0  0  0  0  0  0  0  0
   49.8130  157.6960   29.9550 C   0  0  0  0  0  0  0  0  0  0  0  0
   50.3840  156.4270   29.8240 C   0  0  0  0  0  0  0  0  0  0  0  0
   51.7180  156.2730   29.4200 C   0  0  0  0  0  0  0  0  0  0  0  0
   52.2430  154.9660   29.3360 N   0  0  0  0  0  0  0  0  0  0  0  0
   52.2840  154.1210   28.2160 C   0  0  0  0  0  0  0  0  0  0  0  0
   51.9180  152.8290   28.4150 N   0  0  0  0  0  0  0  0  0  0  0  0
   51.9330  151.9840   27.3640 C   0  0  0  0  0  0  0  0  0  0  0  0
   52.2600  152.2500   26.0900 N   0  0  0  0  0  0  0  0  0  0  0  0
   52.5840  153.5420   25.9310 C   0  0  0  0  0  0  0  0  0  0  0  0
   52.9360  154.1120   24.7390 N   0  0  0  0  0  0  0  0  0  0  0  0
   53.1800  155.4490   24.9190 C   0  0  0  0  0  0  0  0  0  0  0  0
   52.9830  155.7340   26.2540 C   0  0  0  0  0  0  0  0  0  0  0  0
   52.6170  154.5230   26.9100 C   0  0  0  0  0  0  0  0  0  0  0  0
   52.4820  157.4230   29.1910 C   0  0  0  0  0  0  0  0  0  0  0  0
   51.9170  158.6950   29.3200 C   0  0  0  0  0  0  0  0  0  0  0  0
   50.8050  162.0592   33.8771 H   0  0  0  0  0  0  0  0  0  0  0  0
   48.4365  161.6802   34.5655 H   0  0  0  0  0  0  0  0  0  0  0  0
   46.8449  160.5609   33.0052 H   0  0  0  0  0  0  0  0  0  0  0  0
   47.6198  159.8150   30.7526 H   0  0  0  0  0  0  0  0  0  0  0  0
   48.7655  157.8003   30.2742 H   0  0  0  0  0  0  0  0  0  0  0  0
   49.7776  155.5353   30.0412 H   0  0  0  0  0  0  0  0  0  0  0  0
   52.6270  154.6020   30.1660 H   0  0  0  0  0  0  0  0  0  0  0  0
   51.6402  150.9455   27.5781 H   0  0  0  0  0  0  0  0  0  0  0  0
   53.0050  153.6350   23.8800 H   0  0  0  0  0  0  0  0  0  0  0  0
   53.4789  156.1652   24.1394 H   0  0  0  0  0  0  0  0  0  0  0  0
   53.0895  156.7208   26.7282 H   0  0  0  0  0  0  0  0  0  0  0  0
   53.5399  157.3247   28.9061 H   0  0  0  0  0  0  0  0  0  0  0  0
   52.5302  159.5899   29.1379 H   0  0  0  0  0  0  0  0  0  0  0  0
  1  2  1  0
  2  3  2  0
  3  4  1  0
  4  5  2  0
  5  6  1  0
  6  7  2  0
  7  8  1  0
  8  9  1  0
  9 10  2  0
 10 11  1  0
 11 12  2  0
 12 13  1  0
 13 14  1  0
 14 15  2  0
 15 16  1  0
 16 17  2  0
 17 18  1  0
 18 19  1  0
 19 20  1  0
 20 21  2  0
 21 22  1  0
 12 23  1  0
 23 24  2  0
  7  2  1  0
 24  9  1  0
 22 14  1  0
 22 18  2  0
  3 25  1  0
  4 26  1  0
  5 27  1  0
  6 28  1  0
 10 29  1  0
 11 30  1  0
 13 31  1  0
 16 32  1  0
 19 33  1  0
 20 34  1  0
 21 35  1  0
 23 36  1  0
 24 37  1  0
M  END
>  <meeko>  (2) 
{"is_sidechain": [false], "free_energy": -10.534, "intermolecular_energy": -13.219, "internal_energy": -0.588}

$$$$
9IV_ttbk1_out
     RDKit          3D

 37 40  0  0  0  0  0  0  0  0999 V2000
   52.1580  161.3700   30.7300 Cl  0  0  0  0  0  0  0  0  0  0  0  0
   50.6890  160.4710   30.6360 C   0  0  0  0  0  0  0  0  0  0  0  0
   49.4810  161.1370   30.8600 C   0  0  0  0  0  0  0  0  0  0  0  0
   48.2740  160.4390   30.7900 C   0  0  0  0  0  0  0  0  0  0  0  0
   48.2710  159.0760   30.4910 C   0  0  0  0  0  0  0  0  0  0  0  0
   49.4750  158.4070   30.2670 C   0  0  0  0  0  0  0  0  0  0  0  0
   50.6880  159.1000   30.3570 C   0  0  0  0  0  0  0  0  0  0  0  0
   51.8830  158.4640   30.1000 O   0  0  0  0  0  0  0  0  0  0  0  0
   51.8360  157.3450   29.3010 C   0  0  0  0  0  0  0  0  0  0  0  0
   51.1130  156.1990   29.6350 C   0  0  0  0  0  0  0  0  0  0  0  0
   51.1410  155.0910   28.7850 C   0  0  0  0  0  0  0  0  0  0  0  0
   51.8870  155.1070   27.5980 C   0  0  0  0  0  0  0  0  0  0  0  0
   51.8960  153.9450   26.8000 N   0  0  0  0  0  0  0  0  0  0  0  0
   52.7850  153.6130   25.7650 C   0  0  0  0  0  0  0  0  0  0  0  0
   53.3390  154.6490   25.0840 N   0  0  0  0  0  0  0  0  0  0  0  0
   54.2060  154.3770   24.0880 C   0  0  0  0  0  0  0  0  0  0  0  0
   54.6310  153.1770   23.6610 N   0  0  0  0  0  0  0  0  0  0  0  0
   54.0850  152.1850   24.3800 C   0  0  0  0  0  0  0  0  0  0  0  0
   54.3490  150.8560   24.1930 N   0  0  0  0  0  0  0  0  0  0  0  0
   53.6500  150.1120   25.1080 C   0  0  0  0  0  0  0  0  0  0  0  0
   52.9240  150.9850   25.8900 C   0  0  0  0  0  0  0  0  0  0  0  0
   53.1820  152.3080   25.4250 C   0  0  0  0  0  0  0  0  0  0  0  0
   52.6410  156.2490   27.3010 C   0  0  0  0  0  0  0  0  0  0  0  0
   52.6180  157.3610   28.1470 C   0  0  0  0  0  0  0  0  0  0  0  0
   49.4812  162.2123   31.0917 H   0  0  0  0  0  0  0  0  0  0  0  0
   47.3244  160.9640   30.9707 H   0  0  0  0  0  0  0  0  0  0  0  0
   47.3188  158.5285   30.4318 H   0  0  0  0  0  0  0  0  0  0  0  0
   49.4709  157.3352   30.0197 H   0  0  0  0  0  0  0  0  0  0  0  0
   50.5238  156.1684   30.5634 H   0  0  0  0  0  0  0  0  0  0  0  0
   50.5680  154.1906   29.0514 H   0  0  0  0  0  0  0  0  0  0  0  0
   51.1920  153.2840   26.9920 H   0  0  0  0  0  0  0  0  0  0  0  0
   54.6174  155.2487   23.5580 H   0  0  0  0  0  0  0  0  0  0  0  0
   54.9500  150.4890   23.5060 H   0  0  0  0  0  0  0  0  0  0  0  0
   53.6656  149.0161   25.2014 H   0  0  0  0  0  0  0  0  0  0  0  0
   52.2628  150.7097   26.7248 H   0  0  0  0  0  0  0  0  0  0  0  0
   53.2587  156.2710   26.3911 H   0  0  0  0  0  0  0  0  0  0  0  0
   53.2177  158.2500   27.9021 H   0  0  0  0  0  0  0  0  0  0  0  0
  1  2  1  0
  2  3  2  0
  3  4  1  0
  4  5  2  0
  5  6  1  0
  6  7  2  0
  7  8  1  0
  8  9  1  0
  9 10  2  0
 10 11  1  0
 11 12  2  0
 12 13  1  0
 13 14  1  0
 14 15  2  0
 15 16  1  0
 16 17  2  0
 17 18  1  0
 18 19  1  0
 19 20  1  0
 20 21  2  0
 21 22  1  0
 12 23  1  0
 23 24  2  0
  7  2  1  0
 24  9  1  0
 22 14  1  0
 22 18  2  0
  3 25  1  0
  4 26  1  0
  5 27  1  0
  6 28  1  0
 10 29  1  0
 11 30  1  0
 13 31  1  0
 16 32  1  0
 19 33  1  0
 20 34  1  0
 21 35  1  0
 23 36  1  0
 24 37  1  0
M  END
>  <meeko>  (3) 
{"is_sidechain": [false], "free_energy": -9.901, "intermolecular_energy": -13.691, "internal_energy": 0.664}

$$$$
9IV_ttbk1_out
     RDKit          3D

 37 40  0  0  0  0  0  0  0  0999 V2000
   52.3070  161.1080   30.5870 Cl  0  0  0  0  0  0  0  0  0  0  0  0
   50.7940  160.2800   30.5550 C   0  0  0  0  0  0  0  0  0  0  0  0
   49.6270  161.0110   30.7920 C   0  0  0  0  0  0  0  0  0  0  0  0
   48.3860  160.3710   30.7720 C   0  0  0  0  0  0  0  0  0  0  0  0
   48.3080  159.0030   30.5090 C   0  0  0  0  0  0  0  0  0  0  0  0
   49.4720  158.2700   30.2710 C   0  0  0  0  0  0  0  0  0  0  0  0
   50.7190  158.9050   30.3120 C   0  0  0  0  0  0  0  0  0  0  0  0
   51.8740  158.2050   30.0400 O   0  0  0  0  0  0  0  0  0  0  0  0
   51.7540  157.0780   29.2600 C   0  0  0  0  0  0  0  0  0  0  0  0
   51.0010  155.9660   29.6390 C   0  0  0  0  0  0  0  0  0  0  0  0
   50.9530  154.8450   28.8050 C   0  0  0  0  0  0  0  0  0  0  0  0
   51.6520  154.8170   27.5900 C   0  0  0  0  0  0  0  0  0  0  0  0
   51.5860  153.6450   26.8090 N   0  0  0  0  0  0  0  0  0  0  0  0
   52.6290  153.0040   26.1220 C   0  0  0  0  0  0  0  0  0  0  0  0
   52.6710  151.6490   26.2050 N   0  0  0  0  0  0  0  0  0  0  0  0
   53.6500  150.9920   25.5520 C   0  0  0  0  0  0  0  0  0  0  0  0
   54.6260  151.5040   24.7860 N   0  0  0  0  0  0  0  0  0  0  0  0
   54.5300  152.8390   24.7040 C   0  0  0  0  0  0  0  0  0  0  0  0
   55.3690  153.6340   23.9740 N   0  0  0  0  0  0  0  0  0  0  0  0
   54.9800  154.9440   24.0840 C   0  0  0  0  0  0  0  0  0  0  0  0
   53.8720  154.9830   24.9050 C   0  0  0  0  0  0  0  0  0  0  0  0
   53.5860  153.6490   25.3180 C   0  0  0  0  0  0  0  0  0  0  0  0
   52.4380  155.9240   27.2480 C   0  0  0  0  0  0  0  0  0  0  0  0
   52.4900  157.0480   28.0770 C   0  0  0  0  0  0  0  0  0  0  0  0
   49.6858  162.0906   30.9943 H   0  0  0  0  0  0  0  0  0  0  0  0
   47.4684  160.9464   30.9639 H   0  0  0  0  0  0  0  0  0  0  0  0
   47.3290  158.5019   30.4892 H   0  0  0  0  0  0  0  0  0  0  0  0
   49.4094  157.1940   30.0513 H   0  0  0  0  0  0  0  0  0  0  0  0
   50.4477  155.9714   30.5897 H   0  0  0  0  0  0  0  0  0  0  0  0
   50.3573  153.9710   29.1069 H   0  0  0  0  0  0  0  0  0  0  0  0
   50.6990  153.2240   26.7370 H   0  0  0  0  0  0  0  0  0  0  0  0
   53.6490  149.8974   25.6606 H   0  0  0  0  0  0  0  0  0  0  0  0
   56.1370  153.3140   23.4480 H   0  0  0  0  0  0  0  0  0  0  0  0
   55.4638  155.8077   23.6044 H   0  0  0  0  0  0  0  0  0  0  0  0
   53.3090  155.8839   25.1904 H   0  0  0  0  0  0  0  0  0  0  0  0
   53.0216  155.9089   26.3157 H   0  0  0  0  0  0  0  0  0  0  0  0
   53.1126  157.9100   27.7954 H   0  0  0  0  0  0  0  0  0  0  0  0
  1  2  1  0
  2  3  2  0
  3  4  1  0
  4  5  2  0
  5  6  1  0
  6  7  2  0
  7  8  1  0
  8  9  1  0
  9 10  2  0
 10 11  1  0
 11 12  2  0
 12 13  1  0
 13 14  1  0
 14 15  2  0
 15 16  1  0
 16 17  2  0
 17 18  1  0
 18 19  1  0
 19 20  1  0
 20 21  2  0
 21 22  1  0
 12 23  1  0
 23 24  2  0
  7  2  1  0
 24  9  1  0
 22 14  1  0
 22 18  2  0
  3 25  1  0
  4 26  1  0
  5 27  1  0
  6 28  1  0
 10 29  1  0
 11 30  1  0
 13 31  1  0
 16 32  1  0
 19 33  1  0
 20 34  1  0
 21 35  1  0
 23 36  1  0
 24 37  1  0
M  END
>  <meeko>  (4) 
{"is_sidechain": [false], "free_energy": -9.898, "intermolecular_energy": -13.907, "internal_energy": 0.885}

$$$$
9IV_ttbk1_out
     RDKit          3D

 37 40  0  0  0  0  0  0  0  0999 V2000
   48.8760  161.1560   29.1990 Cl  0  0  0  0  0  0  0  0  0  0  0  0
   49.0560  160.9410   30.9010 C   0  0  0  0  0  0  0  0  0  0  0  0
   49.4230  162.0410   31.6790 C   0  0  0  0  0  0  0  0  0  0  0  0
   49.5760  161.9010   33.0600 C   0  0  0  0  0  0  0  0  0  0  0  0
   49.3560  160.6640   33.6660 C   0  0  0  0  0  0  0  0  0  0  0  0
   48.9880  159.5620   32.8920 C   0  0  0  0  0  0  0  0  0  0  0  0
   48.8550  159.6950   31.5040 C   0  0  0  0  0  0  0  0  0  0  0  0
   48.4540  158.6280   30.7300 O   0  0  0  0  0  0  0  0  0  0  0  0
   49.4450  157.8450   30.1840 C   0  0  0  0  0  0  0  0  0  0  0  0
   49.2530  156.5060   29.8370 C   0  0  0  0  0  0  0  0  0  0  0  0
   50.3190  155.7670   29.3160 C   0  0  0  0  0  0  0  0  0  0  0  0
   51.5820  156.3480   29.1350 C   0  0  0  0  0  0  0  0  0  0  0  0
   52.6220  155.5390   28.6320 N   0  0  0  0  0  0  0  0  0  0  0  0
   52.9740  155.3160   27.2920 C   0  0  0  0  0  0  0  0  0  0  0  0
   53.3420  156.4050   26.5700 N   0  0  0  0  0  0  0  0  0  0  0  0
   53.6980  156.2360   25.2810 C   0  0  0  0  0  0  0  0  0  0  0  0
   53.7550  155.0930   24.5780 N   0  0  0  0  0  0  0  0  0  0  0  0
   53.4150  154.0400   25.3360 C   0  0  0  0  0  0  0  0  0  0  0  0
   53.4050  152.7440   24.9010 N   0  0  0  0  0  0  0  0  0  0  0  0
   53.0360  151.9130   25.9290 C   0  0  0  0  0  0  0  0  0  0  0  0
   52.8030  152.6990   27.0380 C   0  0  0  0  0  0  0  0  0  0  0  0
   53.0270  154.0570   26.6670 C   0  0  0  0  0  0  0  0  0  0  0  0
   51.7670  157.6790   29.5290 C   0  0  0  0  0  0  0  0  0  0  0  0
   50.7050  158.4240   30.0520 C   0  0  0  0  0  0  0  0  0  0  0  0
   49.5917  163.0186   31.2037 H   0  0  0  0  0  0  0  0  0  0  0  0
   49.8704  162.7673   33.6707 H   0  0  0  0  0  0  0  0  0  0  0  0
   49.4726  160.5568   34.7545 H   0  0  0  0  0  0  0  0  0  0  0  0
   48.8026  158.5897   33.3719 H   0  0  0  0  0  0  0  0  0  0  0  0
   48.2681  156.0353   29.9729 H   0  0  0  0  0  0  0  0  0  0  0  0
   50.1644  154.7125   29.0436 H   0  0  0  0  0  0  0  0  0  0  0  0
   53.1690  155.0730   29.3050 H   0  0  0  0  0  0  0  0  0  0  0  0
   53.9771  157.1497   24.7359 H   0  0  0  0  0  0  0  0  0  0  0  0
   53.6290  152.4500   23.9890 H   0  0  0  0  0  0  0  0  0  0  0  0
   52.9429  150.8181   25.8777 H   0  0  0  0  0  0  0  0  0  0  0  0
   52.4983  152.3414   28.0326 H   0  0  0  0  0  0  0  0  0  0  0  0
   52.7586  158.1438   29.4260 H   0  0  0  0  0  0  0  0  0  0  0  0
   50.8650  159.4680   30.3593 H   0  0  0  0  0  0  0  0  0  0  0  0
  1  2  1  0
  2  3  2  0
  3  4  1  0
  4  5  2  0
  5  6  1  0
  6  7  2  0
  7  8  1  0
  8  9  1  0
  9 10  2  0
 10 11  1  0
 11 12  2  0
 12 13  1  0
 13 14  1  0
 14 15  2  0
 15 16  1  0
 16 17  2  0
 17 18  1  0
 18 19  1  0
 19 20  1  0
 20 21  2  0
 21 22  1  0
 12 23  1  0
 23 24  2  0
  7  2  1  0
 24  9  1  0
 22 14  1  0
 22 18  2  0
  3 25  1  0
  4 26  1  0
  5 27  1  0
  6 28  1  0
 10 29  1  0
 11 30  1  0
 13 31  1  0
 16 32  1  0
 19 33  1  0
 20 34  1  0
 21 35  1  0
 23 36  1  0
 24 37  1  0
M  END
>  <meeko>  (5) 
{"is_sidechain": [false], "free_energy": -9.322, "intermolecular_energy": -11.946, "internal_energy": -0.365}

$$$$
9IV_ttbk1_out
     RDKit          3D

 37 40  0  0  0  0  0  0  0  0999 V2000
   54.8220  153.9070   23.3750 Cl  0  0  0  0  0  0  0  0  0  0  0  0
   54.0260  152.7530   24.3810 C   0  0  0  0  0  0  0  0  0  0  0  0
   54.5290  151.4510   24.4320 C   0  0  0  0  0  0  0  0  0  0  0  0
   53.9080  150.4930   25.2370 C   0  0  0  0  0  0  0  0  0  0  0  0
   52.7890  150.8370   25.9960 C   0  0  0  0  0  0  0  0  0  0  0  0
   52.2840  152.1370   25.9490 C   0  0  0  0  0  0  0  0  0  0  0  0
   52.8920  153.0940   25.1260 C   0  0  0  0  0  0  0  0  0  0  0  0
   52.4310  154.3920   25.0960 O   0  0  0  0  0  0  0  0  0  0  0  0
   52.3660  155.0600   26.2970 C   0  0  0  0  0  0  0  0  0  0  0  0
   51.6250  154.5990   27.3860 C   0  0  0  0  0  0  0  0  0  0  0  0
   51.5840  155.3500   28.5630 C   0  0  0  0  0  0  0  0  0  0  0  0
   52.2740  156.5660   28.6700 C   0  0  0  0  0  0  0  0  0  0  0  0
   52.1670  157.2910   29.8750 N   0  0  0  0  0  0  0  0  0  0  0  0
   51.5770  158.5480   30.0790 C   0  0  0  0  0  0  0  0  0  0  0  0
   52.4070  159.6210   30.0570 N   0  0  0  0  0  0  0  0  0  0  0  0
   51.8820  160.8490   30.2380 C   0  0  0  0  0  0  0  0  0  0  0  0
   50.5950  161.1810   30.4330 N   0  0  0  0  0  0  0  0  0  0  0  0
   49.8060  160.0980   30.4150 C   0  0  0  0  0  0  0  0  0  0  0  0
   48.4470  160.1260   30.5600 N   0  0  0  0  0  0  0  0  0  0  0  0
   47.9440  158.8530   30.4680 C   0  0  0  0  0  0  0  0  0  0  0  0
   49.0060  157.9980   30.2640 C   0  0  0  0  0  0  0  0  0  0  0  0
   50.1990  158.7790   30.2430 C   0  0  0  0  0  0  0  0  0  0  0  0
   52.9760  157.0340   27.5530 C   0  0  0  0  0  0  0  0  0  0  0  0
   53.0210  156.2870   26.3720 C   0  0  0  0  0  0  0  0  0  0  0  0
   55.4143  151.1799   23.8381 H   0  0  0  0  0  0  0  0  0  0  0  0
   54.3016  149.4664   25.2725 H   0  0  0  0  0  0  0  0  0  0  0  0
   52.3041  150.0822   26.6325 H   0  0  0  0  0  0  0  0  0  0  0  0
   51.4093  152.4101   26.5576 H   0  0  0  0  0  0  0  0  0  0  0  0
   51.0757  153.6484   27.3178 H   0  0  0  0  0  0  0  0  0  0  0  0
   51.0009  154.9815   29.4199 H   0  0  0  0  0  0  0  0  0  0  0  0
   52.5540  156.8620   30.6720 H   0  0  0  0  0  0  0  0  0  0  0  0
   52.5973  161.6845   30.2243 H   0  0  0  0  0  0  0  0  0  0  0  0
   47.9090  160.9370   30.7090 H   0  0  0  0  0  0  0  0  0  0  0  0
   46.8847  158.5663   30.5434 H   0  0  0  0  0  0  0  0  0  0  0  0
   48.9441  156.9068   30.1395 H   0  0  0  0  0  0  0  0  0  0  0  0
   53.4983  158.0007   27.6050 H   0  0  0  0  0  0  0  0  0  0  0  0
   53.5742  156.6687   25.5012 H   0  0  0  0  0  0  0  0  0  0  0  0
  1  2  1  0
  2  3  2  0
  3  4  1  0
  4  5  2  0
  5  6  1  0
  6  7  2  0
  7  8  1  0
  8  9  1  0
  9 10  2  0
 10 11  1  0
 11 12  2  0
 12 13  1  0
 13 14  1  0
 14 15  2  0
 15 16  1  0
 16 17  2  0
 17 18  1  0
 18 19  1  0
 19 20  1  0
 20 21  2  0
 21 22  1  0
 12 23  1  0
 23 24  2  0
  7  2  1  0
 24  9  1  0
 22 14  1  0
 22 18  2  0
  3 25  1  0
  4 26  1  0
  5 27  1  0
  6 28  1  0
 10 29  1  0
 11 30  1  0
 13 31  1  0
 16 32  1  0
 19 33  1  0
 20 34  1  0
 21 35  1  0
 23 36  1  0
 24 37  1  0
M  END
>  <meeko>  (6) 
{"is_sidechain": [false], "free_energy": -9.177, "intermolecular_energy": -11.823, "internal_energy": -0.31}

$$$$
9IV_ttbk1_out
     RDKit          3D

 37 40  0  0  0  0  0  0  0  0999 V2000
   53.0130  151.1720   25.8490 Cl  0  0  0  0  0  0  0  0  0  0  0  0
   53.5950  152.7040   25.3120 C   0  0  0  0  0  0  0  0  0  0  0  0
   54.3880  152.7530   24.1620 C   0  0  0  0  0  0  0  0  0  0  0  0
   54.8740  153.9780   23.6990 C   0  0  0  0  0  0  0  0  0  0  0  0
   54.5640  155.1550   24.3810 C   0  0  0  0  0  0  0  0  0  0  0  0
   53.7720  155.1110   25.5290 C   0  0  0  0  0  0  0  0  0  0  0  0
   53.3010  153.8820   26.0070 C   0  0  0  0  0  0  0  0  0  0  0  0
   52.4860  153.8240   27.1170 O   0  0  0  0  0  0  0  0  0  0  0  0
   52.2580  155.0030   27.7880 C   0  0  0  0  0  0  0  0  0  0  0  0
   52.8440  156.2150   27.4190 C   0  0  0  0  0  0  0  0  0  0  0  0
   52.5870  157.3640   28.1710 C   0  0  0  0  0  0  0  0  0  0  0  0
   51.7490  157.3220   29.2940 C   0  0  0  0  0  0  0  0  0  0  0  0
   51.5550  158.5110   30.0270 N   0  0  0  0  0  0  0  0  0  0  0  0
   50.3440  159.0720   30.4610 C   0  0  0  0  0  0  0  0  0  0  0  0
   49.2090  158.4170   30.1080 N   0  0  0  0  0  0  0  0  0  0  0  0
   48.0230  158.9150   30.5110 C   0  0  0  0  0  0  0  0  0  0  0  0
   47.7910  160.0070   31.2560 N   0  0  0  0  0  0  0  0  0  0  0  0
   48.9380  160.6070   31.6090 C   0  0  0  0  0  0  0  0  0  0  0  0
   49.0190  161.7270   32.3890 N   0  0  0  0  0  0  0  0  0  0  0  0
   50.3350  162.0640   32.5810 C   0  0  0  0  0  0  0  0  0  0  0  0
   51.1050  161.1400   31.9060 C   0  0  0  0  0  0  0  0  0  0  0  0
   50.2250  160.2160   31.2710 C   0  0  0  0  0  0  0  0  0  0  0  0
   51.2060  156.0890   29.6750 C   0  0  0  0  0  0  0  0  0  0  0  0
   51.4590  154.9350   28.9270 C   0  0  0  0  0  0  0  0  0  0  0  0
   54.6296  151.8261   23.6211 H   0  0  0  0  0  0  0  0  0  0  0  0
   55.5014  154.0147   22.7962 H   0  0  0  0  0  0  0  0  0  0  0  0
   54.9446  156.1193   24.0131 H   0  0  0  0  0  0  0  0  0  0  0  0
   53.5178  156.0412   26.0582 H   0  0  0  0  0  0  0  0  0  0  0  0
   53.5046  156.2651   26.5409 H   0  0  0  0  0  0  0  0  0  0  0  0
   53.0499  158.3175   27.8770 H   0  0  0  0  0  0  0  0  0  0  0  0
   52.3710  159.0100   30.2630 H   0  0  0  0  0  0  0  0  0  0  0  0
   47.1325  158.3555   30.1884 H   0  0  0  0  0  0  0  0  0  0  0  0
   48.2500  162.2180   32.7570 H   0  0  0  0  0  0  0  0  0  0  0  0
   50.7084  162.9167   33.1671 H   0  0  0  0  0  0  0  0  0  0  0  0
   52.2040  161.1198   31.8650 H   0  0  0  0  0  0  0  0  0  0  0  0
   50.5733  156.0274   30.5727 H   0  0  0  0  0  0  0  0  0  0  0  0
   51.0267  153.9726   29.2383 H   0  0  0  0  0  0  0  0  0  0  0  0
  1  2  1  0
  2  3  2  0
  3  4  1  0
  4  5  2  0
  5  6  1  0
  6  7  2  0
  7  8  1  0
  8  9  1  0
  9 10  2  0
 10 11  1  0
 11 12  2  0
 12 13  1  0
 13 14  1  0
 14 15  2  0
 15 16  1  0
 16 17  2  0
 17 18  1  0
 18 19  1  0
 19 20  1  0
 20 21  2  0
 21 22  1  0
 12 23  1  0
 23 24  2  0
  7  2  1  0
 24  9  1  0
 22 14  1  0
 22 18  2  0
  3 25  1  0
  4 26  1  0
  5 27  1  0
  6 28  1  0
 10 29  1  0
 11 30  1  0
 13 31  1  0
 16 32  1  0
 19 33  1  0
 20 34  1  0
 21 35  1  0
 23 36  1  0
 24 37  1  0
M  END
>  <meeko>  (7) 
{"is_sidechain": [false], "free_energy": -9.074, "intermolecular_energy": -13.238, "internal_energy": 1.233}

$$$$
9IV_ttbk1_out
     RDKit          3D

 37 40  0  0  0  0  0  0  0  0999 V2000
   52.2040  150.9190   26.7020 Cl  0  0  0  0  0  0  0  0  0  0  0  0
   52.9510  152.1390   25.7370 C   0  0  0  0  0  0  0  0  0  0  0  0
   53.8430  151.7460   24.7360 C   0  0  0  0  0  0  0  0  0  0  0  0
   54.4630  152.7090   23.9370 C   0  0  0  0  0  0  0  0  0  0  0  0
   54.1890  154.0620   24.1320 C   0  0  0  0  0  0  0  0  0  0  0  0
   53.2980  154.4590   25.1310 C   0  0  0  0  0  0  0  0  0  0  0  0
   52.6910  153.4970   25.9480 C   0  0  0  0  0  0  0  0  0  0  0  0
   51.7790  153.8670   26.9120 O   0  0  0  0  0  0  0  0  0  0  0  0
   51.9930  155.0690   27.5470 C   0  0  0  0  0  0  0  0  0  0  0  0
   52.6410  156.1460   26.9410 C   0  0  0  0  0  0  0  0  0  0  0  0
   52.8490  157.3240   27.6630 C   0  0  0  0  0  0  0  0  0  0  0  0
   52.4170  157.4440   28.9910 C   0  0  0  0  0  0  0  0  0  0  0  0
   52.6840  158.6490   29.6730 N   0  0  0  0  0  0  0  0  0  0  0  0
   51.7690  159.5050   30.3070 C   0  0  0  0  0  0  0  0  0  0  0  0
   52.2650  160.6680   30.8010 N   0  0  0  0  0  0  0  0  0  0  0  0
   51.4210  161.5250   31.4080 C   0  0  0  0  0  0  0  0  0  0  0  0
   50.0970  161.3950   31.5940 N   0  0  0  0  0  0  0  0  0  0  0  0
   49.6430  160.2490   31.0650 C   0  0  0  0  0  0  0  0  0  0  0  0
   48.3330  159.8560   31.0770 N   0  0  0  0  0  0  0  0  0  0  0  0
   48.2060  158.6520   30.4320 C   0  0  0  0  0  0  0  0  0  0  0  0
   49.4600  158.2720   30.0050 C   0  0  0  0  0  0  0  0  0  0  0  0
   50.3860  159.2750   30.4160 C   0  0  0  0  0  0  0  0  0  0  0  0
   51.8070  156.3380   29.5970 C   0  0  0  0  0  0  0  0  0  0  0  0
   51.5970  155.1560   28.8800 C   0  0  0  0  0  0  0  0  0  0  0  0
   54.0568  150.6787   24.5774 H   0  0  0  0  0  0  0  0  0  0  0  0
   55.1689  152.3994   23.1523 H   0  0  0  0  0  0  0  0  0  0  0  0
   54.6755  154.8178   23.4979 H   0  0  0  0  0  0  0  0  0  0  0  0
   53.0731  155.5259   25.2761 H   0  0  0  0  0  0  0  0  0  0  0  0
   52.9865  156.0680   25.8996 H   0  0  0  0  0  0  0  0  0  0  0  0
   53.3600  158.1708   27.1815 H   0  0  0  0  0  0  0  0  0  0  0  0
   53.6280  158.9240   29.7090 H   0  0  0  0  0  0  0  0  0  0  0  0
   51.8732  162.4476   31.8009 H   0  0  0  0  0  0  0  0  0  0  0  0
   47.5940  160.3600   31.4870 H   0  0  0  0  0  0  0  0  0  0  0  0
   47.2717  158.0910   30.2826 H   0  0  0  0  0  0  0  0  0  0  0  0
   49.7034  157.3565   29.4458 H   0  0  0  0  0  0  0  0  0  0  0  0
   51.4897  156.4001   30.6484 H   0  0  0  0  0  0  0  0  0  0  0  0
   51.1188  154.2943   29.3687 H   0  0  0  0  0  0  0  0  0  0  0  0
  1  2  1  0
  2  3  2  0
  3  4  1  0
  4  5  2  0
  5  6  1  0
  6  7  2  0
  7  8  1  0
  8  9  1  0
  9 10  2  0
 10 11  1  0
 11 12  2  0
 12 13  1  0
 13 14  1  0
 14 15  2  0
 15 16  1  0
 16 17  2  0
 17 18  1  0
 18 19  1  0
 19 20  1  0
 20 21  2  0
 21 22  1  0
 12 23  1  0
 23 24  2  0
  7  2  1  0
 24  9  1  0
 22 14  1  0
 22 18  2  0
  3 25  1  0
  4 26  1  0
  5 27  1  0
  6 28  1  0
 10 29  1  0
 11 30  1  0
 13 31  1  0
 16 32  1  0
 19 33  1  0
 20 34  1  0
 21 35  1  0
 23 36  1  0
 24 37  1  0
M  END
>  <meeko>  (8) 
{"is_sidechain": [false], "free_energy": -8.724, "intermolecular_energy": -12.693, "internal_energy": 1.12}

$$$$
9IV_ttbk1_out
     RDKit          3D

 37 40  0  0  0  0  0  0  0  0999 V2000
   52.2580  151.9990   26.8360 Cl  0  0  0  0  0  0  0  0  0  0  0  0
   52.7660  153.5480   26.2720 C   0  0  0  0  0  0  0  0  0  0  0  0
   53.1210  153.6860   24.9280 C   0  0  0  0  0  0  0  0  0  0  0  0
   53.5360  154.9270   24.4390 C   0  0  0  0  0  0  0  0  0  0  0  0
   53.5900  156.0310   25.2900 C   0  0  0  0  0  0  0  0  0  0  0  0
   53.2350  155.8970   26.6330 C   0  0  0  0  0  0  0  0  0  0  0  0
   52.8400  154.6490   27.1310 C   0  0  0  0  0  0  0  0  0  0  0  0
   52.4490  154.5070   28.4440 O   0  0  0  0  0  0  0  0  0  0  0  0
   51.6250  155.4810   28.9600 C   0  0  0  0  0  0  0  0  0  0  0  0
   50.2600  155.2870   29.1790 C   0  0  0  0  0  0  0  0  0  0  0  0
   49.4830  156.3360   29.6770 C   0  0  0  0  0  0  0  0  0  0  0  0
   50.0510  157.5860   29.9610 C   0  0  0  0  0  0  0  0  0  0  0  0
   49.2060  158.6120   30.4330 N   0  0  0  0  0  0  0  0  0  0  0  0
   49.5180  159.6440   31.3310 C   0  0  0  0  0  0  0  0  0  0  0  0
   48.6900  159.7950   32.3960 N   0  0  0  0  0  0  0  0  0  0  0  0
   48.9580  160.7680   33.2900 C   0  0  0  0  0  0  0  0  0  0  0  0
   49.9770  161.6420   33.2860 N   0  0  0  0  0  0  0  0  0  0  0  0
   50.7870  161.4390   32.2360 C   0  0  0  0  0  0  0  0  0  0  0  0
   51.9220  162.1570   31.9820 N   0  0  0  0  0  0  0  0  0  0  0  0
   52.5290  161.6790   30.8490 C   0  0  0  0  0  0  0  0  0  0  0  0
   51.7620  160.6380   30.3720 C   0  0  0  0  0  0  0  0  0  0  0  0
   50.6420  160.4860   31.2400 C   0  0  0  0  0  0  0  0  0  0  0  0
   51.4130  157.7750   29.6930 C   0  0  0  0  0  0  0  0  0  0  0  0
   52.1960  156.7300   29.1950 C   0  0  0  0  0  0  0  0  0  0  0  0
   53.0737  152.8174   24.2547 H   0  0  0  0  0  0  0  0  0  0  0  0
   53.8205  155.0338   23.3818 H   0  0  0  0  0  0  0  0  0  0  0  0
   53.9128  157.0084   24.9020 H   0  0  0  0  0  0  0  0  0  0  0  0
   53.2654  156.7711   27.3001 H   0  0  0  0  0  0  0  0  0  0  0  0
   49.7983  154.3128   28.9605 H   0  0  0  0  0  0  0  0  0  0  0  0
   48.4080  156.1786   29.8491 H   0  0  0  0  0  0  0  0  0  0  0  0
   48.2830  158.6020   30.0900 H   0  0  0  0  0  0  0  0  0  0  0  0
   48.2522  160.8570   34.1290 H   0  0  0  0  0  0  0  0  0  0  0  0
   52.2540  162.9050   32.5290 H   0  0  0  0  0  0  0  0  0  0  0  0
   53.4598  162.0579   30.4018 H   0  0  0  0  0  0  0  0  0  0  0  0
   51.9764  160.0319   29.4794 H   0  0  0  0  0  0  0  0  0  0  0  0
   51.8717  158.7578   29.8768 H   0  0  0  0  0  0  0  0  0  0  0  0
   53.2639  156.8937   28.9884 H   0  0  0  0  0  0  0  0  0  0  0  0
  1  2  1  0
  2  3  2  0
  3  4  1  0
  4  5  2  0
  5  6  1  0
  6  7  2  0
  7  8  1  0
  8  9  1  0
  9 10  2  0
 10 11  1  0
 11 12  2  0
 12 13  1  0
 13 14  1  0
 14 15  2  0
 15 16  1  0
 16 17  2  0
 17 18  1  0
 18 19  1  0
 19 20  1  0
 20 21  2  0
 21 22  1  0
 12 23  1  0
 23 24  2  0
  7  2  1  0
 24  9  1  0
 22 14  1  0
 22 18  2  0
  3 25  1  0
  4 26  1  0
  5 27  1  0
  6 28  1  0
 10 29  1  0
 11 30  1  0
 13 31  1  0
 16 32  1  0
 19 33  1  0
 20 34  1  0
 21 35  1  0
 23 36  1  0
 24 37  1  0
M  END
>  <meeko>  (9) 
{"is_sidechain": [false], "free_energy": -8.712, "intermolecular_energy": -12.207, "internal_energy": 0.648}

$$$$
