DTQ_out
     RDKit          3D

 37 39  0  0  0  0  0  0  0  0999 V2000
   54.2410  153.1230   24.2480 C   0  0  0  0  0  0  0  0  0  0  0  0
   53.1100  153.9870   24.2130 O   0  0  0  0  0  0  0  0  0  0  0  0
   52.9170  154.7720   25.3210 C   0  0  0  0  0  0  0  0  0  0  0  0
   52.3850  154.0750   26.4150 C   0  0  0  0  0  0  0  0  0  0  0  0
   52.1250  154.6850   27.6320 C   0  0  0  0  0  0  0  0  0  0  0  0
   51.5890  153.9550   28.6160 N   0  0  0  0  0  0  0  0  0  0  0  0
   51.3280  154.5860   29.7660 C   0  0  0  0  0  0  0  0  0  0  0  0
   51.5720  155.8720   30.0320 N   0  0  0  0  0  0  0  0  0  0  0  0
   52.1430  156.5830   29.0440 C   0  0  0  0  0  0  0  0  0  0  0  0
   52.4110  157.9300   29.3780 N   0  0  0  0  0  0  0  0  0  0  0  0
   51.4880  158.8510   29.9400 C   0  0  0  0  0  0  0  0  0  0  0  0
   51.8750  160.0990   30.4520 C   0  0  0  0  0  0  0  0  0  0  0  0
   50.9320  160.9500   31.0350 C   0  0  0  0  0  0  0  0  0  0  0  0
   49.6010  160.5560   31.1300 C   0  0  0  0  0  0  0  0  0  0  0  0
   49.2200  159.3080   30.6520 C   0  0  0  0  0  0  0  0  0  0  0  0
   47.9090  158.9550   30.7750 O   0  0  0  0  0  0  0  0  0  0  0  0
   50.1520  158.4510   30.0710 C   0  0  0  0  0  0  0  0  0  0  0  0
   52.4270  156.0420   27.7760 C   0  0  0  0  0  0  0  0  0  0  0  0
   52.9680  156.7550   26.6710 C   0  0  0  0  0  0  0  0  0  0  0  0
   53.2420  156.1260   25.4530 C   0  0  0  0  0  0  0  0  0  0  0  0
   53.8170  156.7610   24.3860 O   0  0  0  0  0  0  0  0  0  0  0  0
   55.2390  156.8130   24.3390 C   0  0  0  0  0  0  0  0  0  0  0  0
   54.5120  152.9160   25.2938 H   0  0  0  0  0  0  0  0  0  0  0  0
   53.9972  152.1790   23.7386 H   0  0  0  0  0  0  0  0  0  0  0  0
   55.0876  153.6065   23.7386 H   0  0  0  0  0  0  0  0  0  0  0  0
   52.1656  153.0029   26.3031 H   0  0  0  0  0  0  0  0  0  0  0  0
   50.8691  153.9897   30.5684 H   0  0  0  0  0  0  0  0  0  0  0  0
   53.3230  158.2600   29.2060 H   0  0  0  0  0  0  0  0  0  0  0  0
   52.9286  160.4098   30.3940 H   0  0  0  0  0  0  0  0  0  0  0  0
   51.2426  161.9328   31.4193 H   0  0  0  0  0  0  0  0  0  0  0  0
   48.8554  161.2278   31.5804 H   0  0  0  0  0  0  0  0  0  0  0  0
   47.6790  158.1340   31.1630 H   0  0  0  0  0  0  0  0  0  0  0  0
   49.8383  157.4587   29.7146 H   0  0  0  0  0  0  0  0  0  0  0  0
   53.1764  157.8298   26.7774 H   0  0  0  0  0  0  0  0  0  0  0  0
   55.6394  156.8276   25.3634 H   0  0  0  0  0  0  0  0  0  0  0  0
   55.6209  155.9282   23.8086 H   0  0  0  0  0  0  0  0  0  0  0  0
   55.5553  157.7233   23.8086 H   0  0  0  0  0  0  0  0  0  0  0  0
  1  2  1  0
  2  3  1  0
  3  4  2  0
  4  5  1  0
  5  6  2  0
  6  7  1  0
  7  8  2  0
  8  9  1  0
  9 10  1  0
 10 11  1  0
 11 12  2  0
 12 13  1  0
 13 14  2  0
 14 15  1  0
 15 16  1  0
 15 17  2  0
  9 18  2  0
 18 19  1  0
 19 20  2  0
 20 21  1  0
 21 22  1  0
 20  3  1  0
 18  5  1  0
 17 11  1  0
  1 23  1  0
  1 24  1  0
  1 25  1  0
  4 26  1  0
  7 27  1  0
 10 28  1  0
 12 29  1  0
 13 30  1  0
 14 31  1  0
 16 32  1  0
 17 33  1  0
 19 34  1  0
 22 35  1  0
 22 36  1  0
 22 37  1  0
M  END
>  <meeko>  (1) 
{"is_sidechain": [false], "free_energy": -8.585, "intermolecular_energy": -10.843, "internal_energy": -0.16}

$$$$
DTQ_out
     RDKit          3D

 37 39  0  0  0  0  0  0  0  0999 V2000
   54.6440  152.9500   24.6600 C   0  0  0  0  0  0  0  0  0  0  0  0
   53.4970  153.7660   24.4460 O   0  0  0  0  0  0  0  0  0  0  0  0
   53.1390  154.5870   25.4850 C   0  0  0  0  0  0  0  0  0  0  0  0
   52.6760  153.8930   26.6130 C   0  0  0  0  0  0  0  0  0  0  0  0
   52.2760  154.5390   27.7720 C   0  0  0  0  0  0  0  0  0  0  0  0
   51.8190  153.8040   28.7920 N   0  0  0  0  0  0  0  0  0  0  0  0
   51.4170  154.4650   29.8820 C   0  0  0  0  0  0  0  0  0  0  0  0
   51.4480  155.7890   30.0580 N   0  0  0  0  0  0  0  0  0  0  0  0
   51.9430  156.5100   29.0370 C   0  0  0  0  0  0  0  0  0  0  0  0
   51.9870  157.9020   29.2760 N   0  0  0  0  0  0  0  0  0  0  0  0
   51.0810  158.6410   30.0830 C   0  0  0  0  0  0  0  0  0  0  0  0
   49.7230  158.3090   30.2010 C   0  0  0  0  0  0  0  0  0  0  0  0
   48.8640  159.0950   30.9730 C   0  0  0  0  0  0  0  0  0  0  0  0
   49.3490  160.2300   31.6190 C   0  0  0  0  0  0  0  0  0  0  0  0
   50.6860  160.5790   31.4780 C   0  0  0  0  0  0  0  0  0  0  0  0
   51.1180  161.7040   32.1160 O   0  0  0  0  0  0  0  0  0  0  0  0
   51.5500  159.8030   30.7090 C   0  0  0  0  0  0  0  0  0  0  0  0
   52.3600  155.9330   27.8220 C   0  0  0  0  0  0  0  0  0  0  0  0
   52.8280  156.6420   26.6830 C   0  0  0  0  0  0  0  0  0  0  0  0
   53.2460  155.9800   25.5250 C   0  0  0  0  0  0  0  0  0  0  0  0
   53.7600  156.6220   24.4310 O   0  0  0  0  0  0  0  0  0  0  0  0
   55.1700  156.8160   24.3830 C   0  0  0  0  0  0  0  0  0  0  0  0
   54.8124  152.8302   25.7404 H   0  0  0  0  0  0  0  0  0  0  0  0
   54.4822  151.9628   24.2025 H   0  0  0  0  0  0  0  0  0  0  0  0
   55.5235  153.4265   24.2025 H   0  0  0  0  0  0  0  0  0  0  0  0
   52.6287  152.7946   26.5761 H   0  0  0  0  0  0  0  0  0  0  0  0
   51.0232  153.8615   30.7131 H   0  0  0  0  0  0  0  0  0  0  0  0
   52.7130  158.4070   28.8440 H   0  0  0  0  0  0  0  0  0  0  0  0
   49.3313  157.4222   29.6812 H   0  0  0  0  0  0  0  0  0  0  0  0
   47.8041  158.8175   31.0708 H   0  0  0  0  0  0  0  0  0  0  0  0
   48.6780  160.8454   32.2363 H   0  0  0  0  0  0  0  0  0  0  0  0
   51.9120  162.1210   31.8450 H   0  0  0  0  0  0  0  0  0  0  0  0
   52.6019  160.1030   30.5931 H   0  0  0  0  0  0  0  0  0  0  0  0
   52.8623  157.7410   26.7133 H   0  0  0  0  0  0  0  0  0  0  0  0
   55.5677  156.8707   25.4071 H   0  0  0  0  0  0  0  0  0  0  0  0
   55.6381  155.9738   23.8524 H   0  0  0  0  0  0  0  0  0  0  0  0
   55.3933  157.7533   23.8524 H   0  0  0  0  0  0  0  0  0  0  0  0
  1  2  1  0
  2  3  1  0
  3  4  2  0
  4  5  1  0
  5  6  2  0
  6  7  1  0
  7  8  2  0
  8  9  1  0
  9 10  1  0
 10 11  1  0
 11 12  2  0
 12 13  1  0
 13 14  2  0
 14 15  1  0
 15 16  1  0
 15 17  2  0
  9 18  2  0
 18 19  1  0
 19 20  2  0
 20 21  1  0
 21 22  1  0
 20  3  1  0
 18  5  1  0
 17 11  1  0
  1 23  1  0
  1 24  1  0
  1 25  1  0
  4 26  1  0
  7 27  1  0
 10 28  1  0
 12 29  1  0
 13 30  1  0
 14 31  1  0
 16 32  1  0
 17 33  1  0
 19 34  1  0
 22 35  1  0
 22 36  1  0
 22 37  1  0
M  END
>  <meeko>  (2) 
{"is_sidechain": [false], "free_energy": -8.476, "intermolecular_energy": -10.645, "internal_energy": -0.221}

$$$$
DTQ_out
     RDKit          3D

 37 39  0  0  0  0  0  0  0  0999 V2000
   48.4630  161.6810   33.1450 C   0  0  0  0  0  0  0  0  0  0  0  0
   49.3250  161.9730   32.0510 O   0  0  0  0  0  0  0  0  0  0  0  0
   49.9300  160.8960   31.4550 C   0  0  0  0  0  0  0  0  0  0  0  0
   49.0480  159.8410   31.1780 C   0  0  0  0  0  0  0  0  0  0  0  0
   49.4600  158.6670   30.5680 C   0  0  0  0  0  0  0  0  0  0  0  0
   48.5600  157.6970   30.3670 N   0  0  0  0  0  0  0  0  0  0  0  0
   49.0020  156.5690   29.8010 C   0  0  0  0  0  0  0  0  0  0  0  0
   50.2520  156.3260   29.3980 N   0  0  0  0  0  0  0  0  0  0  0  0
   51.1360  157.3240   29.5760 C   0  0  0  0  0  0  0  0  0  0  0  0
   52.4380  157.0380   29.1080 N   0  0  0  0  0  0  0  0  0  0  0  0
   52.7650  156.2310   27.9850 C   0  0  0  0  0  0  0  0  0  0  0  0
   52.9800  156.7620   26.7050 C   0  0  0  0  0  0  0  0  0  0  0  0
   53.2550  155.9190   25.6240 C   0  0  0  0  0  0  0  0  0  0  0  0
   53.2970  154.5400   25.8080 C   0  0  0  0  0  0  0  0  0  0  0  0
   53.0530  154.0090   27.0690 C   0  0  0  0  0  0  0  0  0  0  0  0
   53.0920  152.6530   27.2040 O   0  0  0  0  0  0  0  0  0  0  0  0
   52.7760  154.8400   28.1520 C   0  0  0  0  0  0  0  0  0  0  0  0
   50.8010  158.5430   30.1970 C   0  0  0  0  0  0  0  0  0  0  0  0
   51.7010  159.6080   30.4740 C   0  0  0  0  0  0  0  0  0  0  0  0
   51.2720  160.7960   31.0740 C   0  0  0  0  0  0  0  0  0  0  0  0
   52.0920  161.8670   31.3020 O   0  0  0  0  0  0  0  0  0  0  0  0
   53.3020  161.9410   30.5550 C   0  0  0  0  0  0  0  0  0  0  0  0
   48.9960  161.8616   34.0901 H   0  0  0  0  0  0  0  0  0  0  0  0
   47.5752  162.3285   33.0952 H   0  0  0  0  0  0  0  0  0  0  0  0
   48.1515  160.6272   33.0952 H   0  0  0  0  0  0  0  0  0  0  0  0
   47.9892  159.9498   31.4555 H   0  0  0  0  0  0  0  0  0  0  0  0
   48.2662  155.7648   29.6533 H   0  0  0  0  0  0  0  0  0  0  0  0
   53.1890  157.4340   29.6060 H   0  0  0  0  0  0  0  0  0  0  0  0
   52.9319  157.8500   26.5503 H   0  0  0  0  0  0  0  0  0  0  0  0
   53.4384  156.3461   24.6270 H   0  0  0  0  0  0  0  0  0  0  0  0
   53.5218  153.8749   24.9611 H   0  0  0  0  0  0  0  0  0  0  0  0
   53.8440  152.1750   26.9150 H   0  0  0  0  0  0  0  0  0  0  0  0
   52.5656  154.4036   29.1396 H   0  0  0  0  0  0  0  0  0  0  0  0
   52.7627  159.4946   30.2094 H   0  0  0  0  0  0  0  0  0  0  0  0
   54.1566  161.9933   31.2456 H   0  0  0  0  0  0  0  0  0  0  0  0
   53.3969  161.0470   29.9212 H   0  0  0  0  0  0  0  0  0  0  0  0
   53.2872  162.8399   29.9212 H   0  0  0  0  0  0  0  0  0  0  0  0
  1  2  1  0
  2  3  1  0
  3  4  2  0
  4  5  1  0
  5  6  2  0
  6  7  1  0
  7  8  2  0
  8  9  1  0
  9 10  1  0
 10 11  1  0
 11 12  2  0
 12 13  1  0
 13 14  2  0
 14 15  1  0
 15 16  1  0
 15 17  2  0
  9 18  2  0
 18 19  1  0
 19 20  2  0
 20 21  1  0
 21 22  1  0
 20  3  1  0
 18  5  1  0
 17 11  1  0
  1 23  1  0
  1 24  1  0
  1 25  1  0
  4 26  1  0
  7 27  1  0
 10 28  1  0
 12 29  1  0
 13 30  1  0
 14 31  1  0
 16 32  1  0
 17 33  1  0
 19 34  1  0
 22 35  1  0
 22 36  1  0
 22 37  1  0
M  END
>  <meeko>  (3) 
{"is_sidechain": [false], "free_energy": -8.258, "intermolecular_energy": -10.29, "internal_energy": -0.301}

$$$$
DTQ_out
     RDKit          3D

 37 39  0  0  0  0  0  0  0  0999 V2000
   54.4550  149.9740   24.7190 C   0  0  0  0  0  0  0  0  0  0  0  0
   53.7310  151.0950   24.2220 O   0  0  0  0  0  0  0  0  0  0  0  0
   53.4030  152.0570   25.1420 C   0  0  0  0  0  0  0  0  0  0  0  0
   53.7910  153.3500   24.7630 C   0  0  0  0  0  0  0  0  0  0  0  0
   53.5410  154.4630   25.5510 C   0  0  0  0  0  0  0  0  0  0  0  0
   53.9720  155.6580   25.1300 N   0  0  0  0  0  0  0  0  0  0  0  0
   53.7360  156.7030   25.9300 C   0  0  0  0  0  0  0  0  0  0  0  0
   53.0930  156.6700   27.1000 N   0  0  0  0  0  0  0  0  0  0  0  0
   52.6370  155.4680   27.4920 C   0  0  0  0  0  0  0  0  0  0  0  0
   51.9360  155.4830   28.7200 N   0  0  0  0  0  0  0  0  0  0  0  0
   51.3370  156.6190   29.3250 C   0  0  0  0  0  0  0  0  0  0  0  0
   49.9900  156.6520   29.7140 C   0  0  0  0  0  0  0  0  0  0  0  0
   49.4370  157.8110   30.2650 C   0  0  0  0  0  0  0  0  0  0  0  0
   50.2190  158.9530   30.4150 C   0  0  0  0  0  0  0  0  0  0  0  0
   51.5460  158.9340   30.0020 C   0  0  0  0  0  0  0  0  0  0  0  0
   52.2740  160.0770   30.1550 O   0  0  0  0  0  0  0  0  0  0  0  0
   52.1050  157.7840   29.4500 C   0  0  0  0  0  0  0  0  0  0  0  0
   52.8580  154.2870   26.7570 C   0  0  0  0  0  0  0  0  0  0  0  0
   52.4620  152.9790   27.1470 C   0  0  0  0  0  0  0  0  0  0  0  0
   52.7030  151.8650   26.3370 C   0  0  0  0  0  0  0  0  0  0  0  0
   52.2840  150.6000   26.6480 O   0  0  0  0  0  0  0  0  0  0  0  0
   51.5160  150.4330   27.8350 C   0  0  0  0  0  0  0  0  0  0  0  0
   54.4450  149.9894   25.8188 H   0  0  0  0  0  0  0  0  0  0  0  0
   53.9851  149.0460   24.3610 H   0  0  0  0  0  0  0  0  0  0  0  0
   55.4941  150.0206   24.3610 H   0  0  0  0  0  0  0  0  0  0  0  0
   54.3133  153.4864   23.8046 H   0  0  0  0  0  0  0  0  0  0  0  0
   54.1064  157.6823   25.5926 H   0  0  0  0  0  0  0  0  0  0  0  0
   51.8560  154.6270   29.1990 H   0  0  0  0  0  0  0  0  0  0  0  0
   49.3631  155.7575   29.5842 H   0  0  0  0  0  0  0  0  0  0  0  0
   48.3832  157.8210   30.5804 H   0  0  0  0  0  0  0  0  0  0  0  0
   49.7896  159.8641   30.8573 H   0  0  0  0  0  0  0  0  0  0  0  0
   52.2410  160.5480   30.9650 H   0  0  0  0  0  0  0  0  0  0  0  0
   53.1516  157.7904   29.1115 H   0  0  0  0  0  0  0  0  0  0  0  0
   51.9523  152.8393   28.1117 H   0  0  0  0  0  0  0  0  0  0  0  0
   52.1632  150.5737   28.7133 H   0  0  0  0  0  0  0  0  0  0  0  0
   50.7049  151.1757   27.8544 H   0  0  0  0  0  0  0  0  0  0  0  0
   51.0866  149.4205   27.8544 H   0  0  0  0  0  0  0  0  0  0  0  0
  1  2  1  0
  2  3  1  0
  3  4  2  0
  4  5  1  0
  5  6  2  0
  6  7  1  0
  7  8  2  0
  8  9  1  0
  9 10  1  0
 10 11  1  0
 11 12  2  0
 12 13  1  0
 13 14  2  0
 14 15  1  0
 15 16  1  0
 15 17  2  0
  9 18  2  0
 18 19  1  0
 19 20  2  0
 20 21  1  0
 21 22  1  0
 20  3  1  0
 18  5  1  0
 17 11  1  0
  1 23  1  0
  1 24  1  0
  1 25  1  0
  4 26  1  0
  7 27  1  0
 10 28  1  0
 12 29  1  0
 13 30  1  0
 14 31  1  0
 16 32  1  0
 17 33  1  0
 19 34  1  0
 22 35  1  0
 22 36  1  0
 22 37  1  0
M  END
>  <meeko>  (4) 
{"is_sidechain": [false], "free_energy": -7.776, "intermolecular_energy": -10.505, "internal_energy": 0.523}

$$$$
DTQ_out
     RDKit          3D

 37 39  0  0  0  0  0  0  0  0999 V2000
   49.6790  161.4090   33.0580 C   0  0  0  0  0  0  0  0  0  0  0  0
   49.3360  161.2470   31.6860 O   0  0  0  0  0  0  0  0  0  0  0  0
   49.7350  160.0720   31.1010 C   0  0  0  0  0  0  0  0  0  0  0  0
   51.0620  160.0940   30.6480 C   0  0  0  0  0  0  0  0  0  0  0  0
   51.6590  159.0020   30.0370 C   0  0  0  0  0  0  0  0  0  0  0  0
   52.9200  159.1170   29.6070 N   0  0  0  0  0  0  0  0  0  0  0  0
   53.4510  158.0510   28.9990 C   0  0  0  0  0  0  0  0  0  0  0  0
   52.8490  156.8760   28.7980 N   0  0  0  0  0  0  0  0  0  0  0  0
   51.5930  156.7670   29.2680 C   0  0  0  0  0  0  0  0  0  0  0  0
   51.0040  155.4990   29.0620 N   0  0  0  0  0  0  0  0  0  0  0  0
   51.4550  154.5050   28.1520 C   0  0  0  0  0  0  0  0  0  0  0  0
   51.6700  153.1720   28.5280 C   0  0  0  0  0  0  0  0  0  0  0  0
   52.1580  152.2430   27.6040 C   0  0  0  0  0  0  0  0  0  0  0  0
   52.4520  152.6420   26.3040 C   0  0  0  0  0  0  0  0  0  0  0  0
   52.2700  153.9700   25.9370 C   0  0  0  0  0  0  0  0  0  0  0  0
   52.5810  154.3220   24.6570 O   0  0  0  0  0  0  0  0  0  0  0  0
   51.7860  154.9030   26.8500 C   0  0  0  0  0  0  0  0  0  0  0  0
   50.9120  157.8310   29.8890 C   0  0  0  0  0  0  0  0  0  0  0  0
   49.5660  157.8020   30.3460 C   0  0  0  0  0  0  0  0  0  0  0  0
   48.9790  158.9030   30.9760 C   0  0  0  0  0  0  0  0  0  0  0  0
   47.7090  158.8940   31.4840 O   0  0  0  0  0  0  0  0  0  0  0  0
   46.8190  159.9170   31.0490 C   0  0  0  0  0  0  0  0  0  0  0  0
   48.8635  161.0238   33.6878 H   0  0  0  0  0  0  0  0  0  0  0  0
   50.6028  160.8521   33.2732 H   0  0  0  0  0  0  0  0  0  0  0  0
   49.8357  162.4763   33.2732 H   0  0  0  0  0  0  0  0  0  0  0  0
   51.6518  161.0127   30.7826 H   0  0  0  0  0  0  0  0  0  0  0  0
   54.4821  158.1515   28.6291 H   0  0  0  0  0  0  0  0  0  0  0  0
   50.2080  155.2840   29.5990 H   0  0  0  0  0  0  0  0  0  0  0  0
   51.4530  152.8541   29.5585 H   0  0  0  0  0  0  0  0  0  0  0  0
   52.3096  151.1959   27.9051 H   0  0  0  0  0  0  0  0  0  0  0  0
   52.8259  151.9113   25.5717 H   0  0  0  0  0  0  0  0  0  0  0  0
   53.0330  155.1260   24.4890 H   0  0  0  0  0  0  0  0  0  0  0  0
   51.6633  155.9538   26.5488 H   0  0  0  0  0  0  0  0  0  0  0  0
   48.9706  156.8887   30.1999 H   0  0  0  0  0  0  0  0  0  0  0  0
   46.3819  160.4194   31.9245 H   0  0  0  0  0  0  0  0  0  0  0  0
   47.3714  160.6504   30.4432 H   0  0  0  0  0  0  0  0  0  0  0  0
   46.0162  159.4714   30.4432 H   0  0  0  0  0  0  0  0  0  0  0  0
  1  2  1  0
  2  3  1  0
  3  4  2  0
  4  5  1  0
  5  6  2  0
  6  7  1  0
  7  8  2  0
  8  9  1  0
  9 10  1  0
 10 11  1  0
 11 12  2  0
 12 13  1  0
 13 14  2  0
 14 15  1  0
 15 16  1  0
 15 17  2  0
  9 18  2  0
 18 19  1  0
 19 20  2  0
 20 21  1  0
 21 22  1  0
 20  3  1  0
 18  5  1  0
 17 11  1  0
  1 23  1  0
  1 24  1  0
  1 25  1  0
  4 26  1  0
  7 27  1  0
 10 28  1  0
 12 29  1  0
 13 30  1  0
 14 31  1  0
 16 32  1  0
 17 33  1  0
 19 34  1  0
 22 35  1  0
 22 36  1  0
 22 37  1  0
M  END
>  <meeko>  (5) 
{"is_sidechain": [false], "free_energy": -6.969, "intermolecular_energy": -9.232, "internal_energy": 0.269}

$$$$
DTQ_out
     RDKit          3D

 37 39  0  0  0  0  0  0  0  0999 V2000
   53.6590  148.3120   24.4840 C   0  0  0  0  0  0  0  0  0  0  0  0
   54.6050  149.2960   24.8900 O   0  0  0  0  0  0  0  0  0  0  0  0
   54.1060  150.5520   25.1230 C   0  0  0  0  0  0  0  0  0  0  0  0
   54.8350  151.5700   24.4920 C   0  0  0  0  0  0  0  0  0  0  0  0
   54.4870  152.9080   24.5940 C   0  0  0  0  0  0  0  0  0  0  0  0
   55.2540  153.8190   23.9850 N   0  0  0  0  0  0  0  0  0  0  0  0
   54.9010  155.1010   24.1300 C   0  0  0  0  0  0  0  0  0  0  0  0
   53.8440  155.5560   24.8070 N   0  0  0  0  0  0  0  0  0  0  0  0
   53.0640  154.6250   25.3830 C   0  0  0  0  0  0  0  0  0  0  0  0
   51.9400  155.1470   26.0630 N   0  0  0  0  0  0  0  0  0  0  0  0
   51.9230  155.6350   27.3960 C   0  0  0  0  0  0  0  0  0  0  0  0
   51.1260  155.0700   28.4020 C   0  0  0  0  0  0  0  0  0  0  0  0
   51.1120  155.6170   29.6880 C   0  0  0  0  0  0  0  0  0  0  0  0
   51.8780  156.7440   29.9760 C   0  0  0  0  0  0  0  0  0  0  0  0
   52.6450  157.3240   28.9730 C   0  0  0  0  0  0  0  0  0  0  0  0
   53.3710  158.4330   29.2920 O   0  0  0  0  0  0  0  0  0  0  0  0
   52.6640  156.7880   27.6870 C   0  0  0  0  0  0  0  0  0  0  0  0
   53.3540  153.2470   25.3370 C   0  0  0  0  0  0  0  0  0  0  0  0
   52.6090  152.2200   25.9790 C   0  0  0  0  0  0  0  0  0  0  0  0
   52.9590  150.8720   25.8550 C   0  0  0  0  0  0  0  0  0  0  0  0
   52.2340  149.8510   26.4060 O   0  0  0  0  0  0  0  0  0  0  0  0
   51.4770  150.1360   27.5780 C   0  0  0  0  0  0  0  0  0  0  0  0
   53.2105  147.8455   25.3735 H   0  0  0  0  0  0  0  0  0  0  0  0
   52.8704  148.7877   23.8824 H   0  0  0  0  0  0  0  0  0  0  0  0
   54.1654  147.5428   23.8824 H   0  0  0  0  0  0  0  0  0  0  0  0
   55.7164  151.2966   23.8934 H   0  0  0  0  0  0  0  0  0  0  0  0
   55.5425  155.8518   23.6454 H   0  0  0  0  0  0  0  0  0  0  0  0
   51.0910  155.1760   25.5660 H   0  0  0  0  0  0  0  0  0  0  0  0
   50.5068  154.1891   28.1771 H   0  0  0  0  0  0  0  0  0  0  0  0
   50.4951  155.1568   30.4739 H   0  0  0  0  0  0  0  0  0  0  0  0
   51.8758  157.1716   30.9895 H   0  0  0  0  0  0  0  0  0  0  0  0
   53.2600  159.2230   28.8010 H   0  0  0  0  0  0  0  0  0  0  0  0
   53.2614  157.2705   26.8994 H   0  0  0  0  0  0  0  0  0  0  0  0
   51.7351  152.4930   26.5887 H   0  0  0  0  0  0  0  0  0  0  0  0
   52.0809  149.9086   28.4689 H   0  0  0  0  0  0  0  0  0  0  0  0
   51.1991  151.2003   27.5852 H   0  0  0  0  0  0  0  0  0  0  0  0
   50.5662  149.5192   27.5852 H   0  0  0  0  0  0  0  0  0  0  0  0
  1  2  1  0
  2  3  1  0
  3  4  2  0
  4  5  1  0
  5  6  2  0
  6  7  1  0
  7  8  2  0
  8  9  1  0
  9 10  1  0
 10 11  1  0
 11 12  2  0
 12 13  1  0
 13 14  2  0
 14 15  1  0
 15 16  1  0
 15 17  2  0
  9 18  2  0
 18 19  1  0
 19 20  2  0
 20 21  1  0
 21 22  1  0
 20  3  1  0
 18  5  1  0
 17 11  1  0
  1 23  1  0
  1 24  1  0
  1 25  1  0
  4 26  1  0
  7 27  1  0
 10 28  1  0
 12 29  1  0
 13 30  1  0
 14 31  1  0
 16 32  1  0
 17 33  1  0
 19 34  1  0
 22 35  1  0
 22 36  1  0
 22 37  1  0
M  END
>  <meeko>  (6) 
{"is_sidechain": [false], "free_energy": -6.584, "intermolecular_energy": -8.412, "internal_energy": -0.065}

$$$$
DTQ_out
     RDKit          3D

 37 39  0  0  0  0  0  0  0  0999 V2000
   51.0000  159.1420   29.4680 C   0  0  0  0  0  0  0  0  0  0  0  0
   52.1200  158.2860   29.6710 O   0  0  0  0  0  0  0  0  0  0  0  0
   52.1960  157.1880   28.8520 C   0  0  0  0  0  0  0  0  0  0  0  0
   53.0260  157.3780   27.7380 C   0  0  0  0  0  0  0  0  0  0  0  0
   53.2450  156.3860   26.7940 C   0  0  0  0  0  0  0  0  0  0  0  0
   54.0270  156.6580   25.7440 N   0  0  0  0  0  0  0  0  0  0  0  0
   54.1920  155.6840   24.8430 C   0  0  0  0  0  0  0  0  0  0  0  0
   53.6650  154.4580   24.9020 N   0  0  0  0  0  0  0  0  0  0  0  0
   52.9100  154.1900   25.9810 C   0  0  0  0  0  0  0  0  0  0  0  0
   52.3980  152.8730   26.0200 N   0  0  0  0  0  0  0  0  0  0  0  0
   53.0870  151.6960   25.6220 C   0  0  0  0  0  0  0  0  0  0  0  0
   54.3420  151.7250   24.9960 C   0  0  0  0  0  0  0  0  0  0  0  0
   54.9570  150.5390   24.5850 C   0  0  0  0  0  0  0  0  0  0  0  0
   54.3170  149.3180   24.7770 C   0  0  0  0  0  0  0  0  0  0  0  0
   53.0600  149.2890   25.3690 C   0  0  0  0  0  0  0  0  0  0  0  0
   52.4620  148.0740   25.5280 O   0  0  0  0  0  0  0  0  0  0  0  0
   52.4370  150.4650   25.7800 C   0  0  0  0  0  0  0  0  0  0  0  0
   52.6290  155.1450   26.9780 C   0  0  0  0  0  0  0  0  0  0  0  0
   51.7870  154.9460   28.1050 C   0  0  0  0  0  0  0  0  0  0  0  0
   51.5870  155.9470   29.0600 C   0  0  0  0  0  0  0  0  0  0  0  0
   50.8340  155.7760   30.1890 O   0  0  0  0  0  0  0  0  0  0  0  0
   49.4570  156.1330   30.1230 C   0  0  0  0  0  0  0  0  0  0  0  0
   50.5942  159.4521   30.4422 H   0  0  0  0  0  0  0  0  0  0  0  0
   51.3158  160.0311   28.9025 H   0  0  0  0  0  0  0  0  0  0  0  0
   50.2250  158.6039   28.9025 H   0  0  0  0  0  0  0  0  0  0  0  0
   53.5223  158.3510   27.6079 H   0  0  0  0  0  0  0  0  0  0  0  0
   54.8213  155.9141   23.9706 H   0  0  0  0  0  0  0  0  0  0  0  0
   51.4790  152.7600   26.3530 H   0  0  0  0  0  0  0  0  0  0  0  0
   54.8458  152.6882   24.8273 H   0  0  0  0  0  0  0  0  0  0  0  0
   55.9482  150.5707   24.1091 H   0  0  0  0  0  0  0  0  0  0  0  0
   54.8027  148.3825   24.4624 H   0  0  0  0  0  0  0  0  0  0  0  0
   52.8710  147.4170   26.0560 H   0  0  0  0  0  0  0  0  0  0  0  0
   51.4336  150.4272   26.2291 H   0  0  0  0  0  0  0  0  0  0  0  0
   51.2789  153.9783   28.2294 H   0  0  0  0  0  0  0  0  0  0  0  0
   49.0559  156.2370   31.1420 H   0  0  0  0  0  0  0  0  0  0  0  0
   49.3511  157.0883   29.5880 H   0  0  0  0  0  0  0  0  0  0  0  0
   48.9003  155.3495   29.5880 H   0  0  0  0  0  0  0  0  0  0  0  0
  1  2  1  0
  2  3  1  0
  3  4  2  0
  4  5  1  0
  5  6  2  0
  6  7  1  0
  7  8  2  0
  8  9  1  0
  9 10  1  0
 10 11  1  0
 11 12  2  0
 12 13  1  0
 13 14  2  0
 14 15  1  0
 15 16  1  0
 15 17  2  0
  9 18  2  0
 18 19  1  0
 19 20  2  0
 20 21  1  0
 21 22  1  0
 20  3  1  0
 18  5  1  0
 17 11  1  0
  1 23  1  0
  1 24  1  0
  1 25  1  0
  4 26  1  0
  7 27  1  0
 10 28  1  0
 12 29  1  0
 13 30  1  0
 14 31  1  0
 16 32  1  0
 17 33  1  0
 19 34  1  0
 22 35  1  0
 22 36  1  0
 22 37  1  0
M  END
>  <meeko>  (7) 
{"is_sidechain": [false], "free_energy": -6.446, "intermolecular_energy": -8.531, "internal_energy": 0.229}

$$$$
DTQ_out
     RDKit          3D

 37 39  0  0  0  0  0  0  0  0999 V2000
   48.1060  160.6910   31.0830 C   0  0  0  0  0  0  0  0  0  0  0  0
   49.2180  160.0350   31.6820 O   0  0  0  0  0  0  0  0  0  0  0  0
   50.0170  159.3090   30.8350 C   0  0  0  0  0  0  0  0  0  0  0  0
   49.5610  158.0010   30.6180 C   0  0  0  0  0  0  0  0  0  0  0  0
   50.2210  157.1110   29.7860 C   0  0  0  0  0  0  0  0  0  0  0  0
   49.7350  155.8710   29.6560 N   0  0  0  0  0  0  0  0  0  0  0  0
   50.4160  155.0340   28.8670 C   0  0  0  0  0  0  0  0  0  0  0  0
   51.5230  155.3230   28.1780 N   0  0  0  0  0  0  0  0  0  0  0  0
   51.9780  156.5840   28.2920 C   0  0  0  0  0  0  0  0  0  0  0  0
   53.1330  156.8560   27.5240 N   0  0  0  0  0  0  0  0  0  0  0  0
   53.6130  156.0830   26.4340 C   0  0  0  0  0  0  0  0  0  0  0  0
   54.2560  156.6500   25.3240 C   0  0  0  0  0  0  0  0  0  0  0  0
   54.6700  155.8480   24.2570 C   0  0  0  0  0  0  0  0  0  0  0  0
   54.4280  154.4770   24.2790 C   0  0  0  0  0  0  0  0  0  0  0  0
   53.7630  153.9170   25.3630 C   0  0  0  0  0  0  0  0  0  0  0  0
   53.5350  152.5730   25.3400 O   0  0  0  0  0  0  0  0  0  0  0  0
   53.3450  154.7070   26.4310 C   0  0  0  0  0  0  0  0  0  0  0  0
   51.3730  157.5450   29.1240 C   0  0  0  0  0  0  0  0  0  0  0  0
   51.8410  158.8690   29.3400 C   0  0  0  0  0  0  0  0  0  0  0  0
   51.1580  159.7650   30.1670 C   0  0  0  0  0  0  0  0  0  0  0  0
   51.5410  161.0660   30.3530 O   0  0  0  0  0  0  0  0  0  0  0  0
   52.4890  161.3330   31.3810 C   0  0  0  0  0  0  0  0  0  0  0  0
   47.4436  161.0818   31.8695 H   0  0  0  0  0  0  0  0  0  0  0  0
   48.4638  161.5227   30.4583 H   0  0  0  0  0  0  0  0  0  0  0  0
   47.5511  159.9755   30.4583 H   0  0  0  0  0  0  0  0  0  0  0  0
   48.6445  157.6688   31.1276 H   0  0  0  0  0  0  0  0  0  0  0  0
   50.0274  154.0089   28.7765 H   0  0  0  0  0  0  0  0  0  0  0  0
   53.6510  157.6570   27.7660 H   0  0  0  0  0  0  0  0  0  0  0  0
   54.4359  157.7347   25.2930 H   0  0  0  0  0  0  0  0  0  0  0  0
   55.1878  156.3006   23.3985 H   0  0  0  0  0  0  0  0  0  0  0  0
   54.7607  153.8420   23.4446 H   0  0  0  0  0  0  0  0  0  0  0  0
   54.0720  151.9980   25.8490 H   0  0  0  0  0  0  0  0  0  0  0  0
   52.8040  154.2508   27.2731 H   0  0  0  0  0  0  0  0  0  0  0  0
   52.7657  159.1976   28.8430 H   0  0  0  0  0  0  0  0  0  0  0  0
   52.0123  161.1987   32.3632 H   0  0  0  0  0  0  0  0  0  0  0  0
   53.3371  160.6388   31.2870 H   0  0  0  0  0  0  0  0  0  0  0  0
   52.8501  162.3678   31.2870 H   0  0  0  0  0  0  0  0  0  0  0  0
  1  2  1  0
  2  3  1  0
  3  4  2  0
  4  5  1  0
  5  6  2  0
  6  7  1  0
  7  8  2  0
  8  9  1  0
  9 10  1  0
 10 11  1  0
 11 12  2  0
 12 13  1  0
 13 14  2  0
 14 15  1  0
 15 16  1  0
 15 17  2  0
  9 18  2  0
 18 19  1  0
 19 20  2  0
 20 21  1  0
 21 22  1  0
 20  3  1  0
 18  5  1  0
 17 11  1  0
  1 23  1  0
  1 24  1  0
  1 25  1  0
  4 26  1  0
  7 27  1  0
 10 28  1  0
 12 29  1  0
 13 30  1  0
 14 31  1  0
 16 32  1  0
 17 33  1  0
 19 34  1  0
 22 35  1  0
 22 36  1  0
 22 37  1  0
M  END
>  <meeko>  (8) 
{"is_sidechain": [false], "free_energy": -6.258, "intermolecular_energy": -8.519, "internal_energy": 0.454}

$$$$
DTQ_out
     RDKit          3D

 37 39  0  0  0  0  0  0  0  0999 V2000
   51.4320  154.4940   30.1400 C   0  0  0  0  0  0  0  0  0  0  0  0
   50.9980  155.3680   29.1030 O   0  0  0  0  0  0  0  0  0  0  0  0
   51.0900  156.7100   29.3690 C   0  0  0  0  0  0  0  0  0  0  0  0
   50.0190  157.2050   30.1270 C   0  0  0  0  0  0  0  0  0  0  0  0
   49.9300  158.5350   30.5100 C   0  0  0  0  0  0  0  0  0  0  0  0
   48.8590  158.9320   31.2070 N   0  0  0  0  0  0  0  0  0  0  0  0
   48.7970  160.2270   31.5340 C   0  0  0  0  0  0  0  0  0  0  0  0
   49.7120  161.1570   31.2490 N   0  0  0  0  0  0  0  0  0  0  0  0
   50.7970  160.7340   30.5790 C   0  0  0  0  0  0  0  0  0  0  0  0
   51.7540  161.7430   30.3240 N   0  0  0  0  0  0  0  0  0  0  0  0
   53.0800  161.7840   30.8290 C   0  0  0  0  0  0  0  0  0  0  0  0
   53.4080  161.3990   32.1370 C   0  0  0  0  0  0  0  0  0  0  0  0
   54.7240  161.5010   32.5990 C   0  0  0  0  0  0  0  0  0  0  0  0
   55.7180  162.0050   31.7660 C   0  0  0  0  0  0  0  0  0  0  0  0
   55.3910  162.4160   30.4790 C   0  0  0  0  0  0  0  0  0  0  0  0
   56.3920  162.9150   29.7000 O   0  0  0  0  0  0  0  0  0  0  0  0
   54.0830  162.3210   30.0110 C   0  0  0  0  0  0  0  0  0  0  0  0
   50.9590  159.4050   30.1430 C   0  0  0  0  0  0  0  0  0  0  0  0
   52.0480  158.9090   29.3750 C   0  0  0  0  0  0  0  0  0  0  0  0
   52.1370  157.5630   29.0080 C   0  0  0  0  0  0  0  0  0  0  0  0
   53.1970  157.0350   28.3230 O   0  0  0  0  0  0  0  0  0  0  0  0
   52.9660  156.5990   26.9870 C   0  0  0  0  0  0  0  0  0  0  0  0
   51.2078  154.9454   31.1177 H   0  0  0  0  0  0  0  0  0  0  0  0
   50.9073  153.5313   30.0517 H   0  0  0  0  0  0  0  0  0  0  0  0
   52.5161  154.3302   30.0517 H   0  0  0  0  0  0  0  0  0  0  0  0
   49.2196  156.5125   30.4291 H   0  0  0  0  0  0  0  0  0  0  0  0
   47.9078  160.5578   32.0907 H   0  0  0  0  0  0  0  0  0  0  0  0
   51.4750  162.4860   29.7420 H   0  0  0  0  0  0  0  0  0  0  0  0
   52.6237  161.0136   32.8051 H   0  0  0  0  0  0  0  0  0  0  0  0
   54.9735  161.1825   33.6219 H   0  0  0  0  0  0  0  0  0  0  0  0
   56.7557  162.0777   32.1235 H   0  0  0  0  0  0  0  0  0  0  0  0
   57.2740  162.6250   29.8270 H   0  0  0  0  0  0  0  0  0  0  0  0
   53.8365  162.6683   28.9968 H   0  0  0  0  0  0  0  0  0  0  0  0
   52.8417  159.6030   29.0612 H   0  0  0  0  0  0  0  0  0  0  0  0
   52.4511  155.6271   27.0023 H   0  0  0  0  0  0  0  0  0  0  0  0
   52.3406  157.3371   26.4634 H   0  0  0  0  0  0  0  0  0  0  0  0
   53.9279  156.4961   26.4634 H   0  0  0  0  0  0  0  0  0  0  0  0
  1  2  1  0
  2  3  1  0
  3  4  2  0
  4  5  1  0
  5  6  2  0
  6  7  1  0
  7  8  2  0
  8  9  1  0
  9 10  1  0
 10 11  1  0
 11 12  2  0
 12 13  1  0
 13 14  2  0
 14 15  1  0
 15 16  1  0
 15 17  2  0
  9 18  2  0
 18 19  1  0
 19 20  2  0
 20 21  1  0
 21 22  1  0
 20  3  1  0
 18  5  1  0
 17 11  1  0
  1 23  1  0
  1 24  1  0
  1 25  1  0
  4 26  1  0
  7 27  1  0
 10 28  1  0
 12 29  1  0
 13 30  1  0
 14 31  1  0
 16 32  1  0
 17 33  1  0
 19 34  1  0
 22 35  1  0
 22 36  1  0
 22 37  1  0
M  END
>  <meeko>  (9) 
{"is_sidechain": [false], "free_energy": -6.218, "intermolecular_energy": -7.531, "internal_energy": -0.483}

$$$$
