isatin_out
     RDKit          3D

 16 17  0  0  0  0  0  0  0  0999 V2000
   50.9760  154.7430   28.2050 O   0  0  0  0  0  0  0  0  0  0  0  0
   51.6390  154.2080   27.3440 C   0  0  0  0  0  0  0  0  0  0  0  0
   52.1570  154.7690   26.1940 N   0  0  0  0  0  0  0  0  0  0  0  0
   52.8650  153.8260   25.4550 C   0  0  0  0  0  0  0  0  0  0  0  0
   53.5160  154.0220   24.2560 C   0  0  0  0  0  0  0  0  0  0  0  0
   54.1680  152.9200   23.6900 C   0  0  0  0  0  0  0  0  0  0  0  0
   54.1570  151.6590   24.3250 C   0  0  0  0  0  0  0  0  0  0  0  0
   53.4930  151.4770   25.5400 C   0  0  0  0  0  0  0  0  0  0  0  0
   52.8580  152.5790   26.0760 C   0  0  0  0  0  0  0  0  0  0  0  0
   52.0870  152.7190   27.3130 C   0  0  0  0  0  0  0  0  0  0  0  0
   51.8520  151.8600   28.1310 O   0  0  0  0  0  0  0  0  0  0  0  0
   52.0410  155.7110   25.9310 H   0  0  0  0  0  0  0  0  0  0  0  0
   53.5230  155.0055   23.7633 H   0  0  0  0  0  0  0  0  0  0  0  0
   54.6983  153.0386   22.7336 H   0  0  0  0  0  0  0  0  0  0  0  0
   54.6774  150.8102   23.8573 H   0  0  0  0  0  0  0  0  0  0  0  0
   53.4768  150.5006   26.0464 H   0  0  0  0  0  0  0  0  0  0  0  0
  1  2  2  0
  2  3  1  0
  3  4  1  0
  4  5  2  0
  5  6  1  0
  6  7  2  0
  7  8  1  0
  8  9  2  0
  9 10  1  0
 10 11  2  0
 10  2  1  0
  9  4  1  0
  3 12  1  0
  5 13  1  0
  6 14  1  0
  7 15  1  0
  8 16  1  0
M  END
>  <meeko>  (1) 
{"is_sidechain": [false], "free_energy": -7.324, "intermolecular_energy": -7.324, "internal_energy": 0.0}

$$$$
isatin_out
     RDKit          3D

 16 17  0  0  0  0  0  0  0  0999 V2000
   54.4340  150.4470   24.8060 O   0  0  0  0  0  0  0  0  0  0  0  0
   54.2520  151.6330   24.9720 C   0  0  0  0  0  0  0  0  0  0  0  0
   54.9010  152.6890   24.3630 N   0  0  0  0  0  0  0  0  0  0  0  0
   54.4060  153.9070   24.8200 C   0  0  0  0  0  0  0  0  0  0  0  0
   54.8120  155.1680   24.4390 C   0  0  0  0  0  0  0  0  0  0  0  0
   54.1670  156.2580   25.0350 C   0  0  0  0  0  0  0  0  0  0  0  0
   53.1430  156.0700   25.9880 C   0  0  0  0  0  0  0  0  0  0  0  0
   52.7440  154.7860   26.3640 C   0  0  0  0  0  0  0  0  0  0  0  0
   53.3950  153.7280   25.7610 C   0  0  0  0  0  0  0  0  0  0  0  0
   53.2170  152.2850   25.9330 C   0  0  0  0  0  0  0  0  0  0  0  0
   52.4330  151.7260   26.6630 O   0  0  0  0  0  0  0  0  0  0  0  0
   55.6190  152.5930   23.6960 H   0  0  0  0  0  0  0  0  0  0  0  0
   55.6107  155.3119   23.6965 H   0  0  0  0  0  0  0  0  0  0  0  0
   54.4636  157.2797   24.7555 H   0  0  0  0  0  0  0  0  0  0  0  0
   52.6536  156.9454   26.4398 H   0  0  0  0  0  0  0  0  0  0  0  0
   51.9481  154.6247   27.1060 H   0  0  0  0  0  0  0  0  0  0  0  0
  1  2  2  0
  2  3  1  0
  3  4  1  0
  4  5  2  0
  5  6  1  0
  6  7  2  0
  7  8  1  0
  8  9  2  0
  9 10  1  0
 10 11  2  0
 10  2  1  0
  9  4  1  0
  3 12  1  0
  5 13  1  0
  6 14  1  0
  7 15  1  0
  8 16  1  0
M  END
>  <meeko>  (2) 
{"is_sidechain": [false], "free_energy": -7.207, "intermolecular_energy": -7.207, "internal_energy": 0.0}

$$$$
isatin_out
     RDKit          3D

 16 17  0  0  0  0  0  0  0  0999 V2000
   51.8880  154.0840   28.9650 O   0  0  0  0  0  0  0  0  0  0  0  0
   52.3580  153.7620   27.8970 C   0  0  0  0  0  0  0  0  0  0  0  0
   52.6690  152.4930   27.4490 N   0  0  0  0  0  0  0  0  0  0  0  0
   53.1930  152.5350   26.1600 C   0  0  0  0  0  0  0  0  0  0  0  0
   53.6140  151.4680   25.3950 C   0  0  0  0  0  0  0  0  0  0  0  0
   54.1090  151.7490   24.1170 C   0  0  0  0  0  0  0  0  0  0  0  0
   54.1730  153.0730   23.6330 C   0  0  0  0  0  0  0  0  0  0  0  0
   53.7430  154.1430   24.4200 C   0  0  0  0  0  0  0  0  0  0  0  0
   53.2590  153.8400   25.6770 C   0  0  0  0  0  0  0  0  0  0  0  0
   52.7400  154.7160   26.7290 C   0  0  0  0  0  0  0  0  0  0  0  0
   52.6330  155.9190   26.6930 O   0  0  0  0  0  0  0  0  0  0  0  0
   52.5380  151.6690   27.9720 H   0  0  0  0  0  0  0  0  0  0  0  0
   53.5627  150.4368   25.7744 H   0  0  0  0  0  0  0  0  0  0  0  0
   54.4545  150.9230   23.4780 H   0  0  0  0  0  0  0  0  0  0  0  0
   54.5663  153.2643   22.6237 H   0  0  0  0  0  0  0  0  0  0  0  0
   53.7878  155.1798   24.0553 H   0  0  0  0  0  0  0  0  0  0  0  0
  1  2  2  0
  2  3  1  0
  3  4  1  0
  4  5  2  0
  5  6  1  0
  6  7  2  0
  7  8  1  0
  8  9  2  0
  9 10  1  0
 10 11  2  0
 10  2  1  0
  9  4  1  0
  3 12  1  0
  5 13  1  0
  6 14  1  0
  7 15  1  0
  8 16  1  0
M  END
>  <meeko>  (3) 
{"is_sidechain": [false], "free_energy": -7.002, "intermolecular_energy": -7.002, "internal_energy": 0.0}

$$$$
isatin_out
     RDKit          3D

 16 17  0  0  0  0  0  0  0  0999 V2000
   52.1680  150.9270   26.6830 O   0  0  0  0  0  0  0  0  0  0  0  0
   52.6400  151.9740   26.2980 C   0  0  0  0  0  0  0  0  0  0  0  0
   52.2090  153.2570   26.5740 N   0  0  0  0  0  0  0  0  0  0  0  0
   53.0160  154.1990   25.9450 C   0  0  0  0  0  0  0  0  0  0  0  0
   52.8900  155.5720   25.9910 C   0  0  0  0  0  0  0  0  0  0  0  0
   53.8250  156.3280   25.2760 C   0  0  0  0  0  0  0  0  0  0  0  0
   54.8550  155.7080   24.5370 C   0  0  0  0  0  0  0  0  0  0  0  0
   54.9700  154.3170   24.5000 C   0  0  0  0  0  0  0  0  0  0  0  0
   54.0360  153.5940   25.2140 C   0  0  0  0  0  0  0  0  0  0  0  0
   53.8820  152.1470   25.3770 C   0  0  0  0  0  0  0  0  0  0  0  0
   54.5720  151.2780   24.8980 O   0  0  0  0  0  0  0  0  0  0  0  0
   51.4320  153.4750   27.1390 H   0  0  0  0  0  0  0  0  0  0  0  0
   52.0860  156.0533   26.5672 H   0  0  0  0  0  0  0  0  0  0  0  0
   53.7561  157.4258   25.2901 H   0  0  0  0  0  0  0  0  0  0  0  0
   55.5758  156.3279   23.9836 H   0  0  0  0  0  0  0  0  0  0  0  0
   55.7679  153.8204   23.9284 H   0  0  0  0  0  0  0  0  0  0  0  0
  1  2  2  0
  2  3  1  0
  3  4  1  0
  4  5  2  0
  5  6  1  0
  6  7  2  0
  7  8  1  0
  8  9  2  0
  9 10  1  0
 10 11  2  0
 10  2  1  0
  9  4  1  0
  3 12  1  0
  5 13  1  0
  6 14  1  0
  7 15  1  0
  8 16  1  0
M  END
>  <meeko>  (4) 
{"is_sidechain": [false], "free_energy": -6.962, "intermolecular_energy": -6.962, "internal_energy": 0.0}

$$$$
isatin_out
     RDKit          3D

 16 17  0  0  0  0  0  0  0  0999 V2000
   54.0900  150.6860   24.7390 O   0  0  0  0  0  0  0  0  0  0  0  0
   53.8460  151.7990   25.1480 C   0  0  0  0  0  0  0  0  0  0  0  0
   53.3780  152.1670   26.3940 N   0  0  0  0  0  0  0  0  0  0  0  0
   53.2230  153.5470   26.4800 C   0  0  0  0  0  0  0  0  0  0  0  0
   52.7770  154.2700   27.5660 C   0  0  0  0  0  0  0  0  0  0  0  0
   52.7010  155.6610   27.4240 C   0  0  0  0  0  0  0  0  0  0  0  0
   53.0670  156.2940   26.2170 C   0  0  0  0  0  0  0  0  0  0  0  0
   53.5160  155.5460   25.1260 C   0  0  0  0  0  0  0  0  0  0  0  0
   53.5820  154.1780   25.2910 C   0  0  0  0  0  0  0  0  0  0  0  0
   54.0030  153.1300   24.3590 C   0  0  0  0  0  0  0  0  0  0  0  0
   54.3880  153.2740   23.2220 O   0  0  0  0  0  0  0  0  0  0  0  0
   53.1790  151.5350   27.1230 H   0  0  0  0  0  0  0  0  0  0  0  0
   52.4924  153.7742   28.5058 H   0  0  0  0  0  0  0  0  0  0  0  0
   52.3495  156.2715   28.2688 H   0  0  0  0  0  0  0  0  0  0  0  0
   52.9980  157.3887   26.1344 H   0  0  0  0  0  0  0  0  0  0  0  0
   53.8037  156.0258   24.1789 H   0  0  0  0  0  0  0  0  0  0  0  0
  1  2  2  0
  2  3  1  0
  3  4  1  0
  4  5  2  0
  5  6  1  0
  6  7  2  0
  7  8  1  0
  8  9  2  0
  9 10  1  0
 10 11  2  0
 10  2  1  0
  9  4  1  0
  3 12  1  0
  5 13  1  0
  6 14  1  0
  7 15  1  0
  8 16  1  0
M  END
>  <meeko>  (5) 
{"is_sidechain": [false], "free_energy": -6.858, "intermolecular_energy": -6.858, "internal_energy": 0.0}

$$$$
isatin_out
     RDKit          3D

 16 17  0  0  0  0  0  0  0  0999 V2000
   51.8900  151.5740   27.3880 O   0  0  0  0  0  0  0  0  0  0  0  0
   52.4170  152.5250   26.8550 C   0  0  0  0  0  0  0  0  0  0  0  0
   53.4480  152.5260   25.9360 N   0  0  0  0  0  0  0  0  0  0  0  0
   53.7760  153.8240   25.5580 C   0  0  0  0  0  0  0  0  0  0  0  0
   54.7510  154.2120   24.6640 C   0  0  0  0  0  0  0  0  0  0  0  0
   54.9060  155.5840   24.4350 C   0  0  0  0  0  0  0  0  0  0  0  0
   54.0940  156.5310   25.0960 C   0  0  0  0  0  0  0  0  0  0  0  0
   53.1110  156.1220   26.0000 C   0  0  0  0  0  0  0  0  0  0  0  0
   52.9780  154.7640   26.2070 C   0  0  0  0  0  0  0  0  0  0  0  0
   52.0600  154.0230   27.0740 C   0  0  0  0  0  0  0  0  0  0  0  0
   51.2100  154.4810   27.8010 O   0  0  0  0  0  0  0  0  0  0  0  0
   53.8910  151.7160   25.5940 H   0  0  0  0  0  0  0  0  0  0  0  0
   55.3826  153.4721   24.1506 H   0  0  0  0  0  0  0  0  0  0  0  0
   55.6739  155.9305   23.7277 H   0  0  0  0  0  0  0  0  0  0  0  0
   54.2371  157.6033   24.8968 H   0  0  0  0  0  0  0  0  0  0  0  0
   52.4721  156.8489   26.5230 H   0  0  0  0  0  0  0  0  0  0  0  0
  1  2  2  0
  2  3  1  0
  3  4  1  0
  4  5  2  0
  5  6  1  0
  6  7  2  0
  7  8  1  0
  8  9  2  0
  9 10  1  0
 10 11  2  0
 10  2  1  0
  9  4  1  0
  3 12  1  0
  5 13  1  0
  6 14  1  0
  7 15  1  0
  8 16  1  0
M  END
>  <meeko>  (6) 
{"is_sidechain": [false], "free_energy": -6.829, "intermolecular_energy": -6.829, "internal_energy": 0.0}

$$$$
isatin_out
     RDKit          3D

 16 17  0  0  0  0  0  0  0  0999 V2000
   53.4240  161.5040   30.4830 O   0  0  0  0  0  0  0  0  0  0  0  0
   52.3110  161.2060   30.8560 C   0  0  0  0  0  0  0  0  0  0  0  0
   51.5020  161.8780   31.7510 N   0  0  0  0  0  0  0  0  0  0  0  0
   50.2900  161.2160   31.9200 C   0  0  0  0  0  0  0  0  0  0  0  0
   49.2400  161.5900   32.7320 C   0  0  0  0  0  0  0  0  0  0  0  0
   48.1100  160.7640   32.7440 C   0  0  0  0  0  0  0  0  0  0  0  0
   48.0500  159.5960   31.9540 C   0  0  0  0  0  0  0  0  0  0  0  0
   49.1220  159.2310   31.1360 C   0  0  0  0  0  0  0  0  0  0  0  0
   50.2240  160.0610   31.1430 C   0  0  0  0  0  0  0  0  0  0  0  0
   51.4890  159.9620   30.4120 C   0  0  0  0  0  0  0  0  0  0  0  0
   51.8180  159.0990   29.6330 O   0  0  0  0  0  0  0  0  0  0  0  0
   51.7500  162.7140   32.2090 H   0  0  0  0  0  0  0  0  0  0  0  0
   49.2886  162.5014   33.3460 H   0  0  0  0  0  0  0  0  0  0  0  0
   47.2533  161.0300   33.3806 H   0  0  0  0  0  0  0  0  0  0  0  0
   47.1488  158.9659   31.9827 H   0  0  0  0  0  0  0  0  0  0  0  0
   49.0890  158.3237   30.5150 H   0  0  0  0  0  0  0  0  0  0  0  0
  1  2  2  0
  2  3  1  0
  3  4  1  0
  4  5  2  0
  5  6  1  0
  6  7  2  0
  7  8  1  0
  8  9  2  0
  9 10  1  0
 10 11  2  0
 10  2  1  0
  9  4  1  0
  3 12  1  0
  5 13  1  0
  6 14  1  0
  7 15  1  0
  8 16  1  0
M  END
>  <meeko>  (7) 
{"is_sidechain": [false], "free_energy": -6.814, "intermolecular_energy": -6.814, "internal_energy": 0.0}

$$$$
isatin_out
     RDKit          3D

 16 17  0  0  0  0  0  0  0  0999 V2000
   53.0430  156.8390   28.8930 O   0  0  0  0  0  0  0  0  0  0  0  0
   52.2010  157.5740   29.3580 C   0  0  0  0  0  0  0  0  0  0  0  0
   52.3040  158.9240   29.6330 N   0  0  0  0  0  0  0  0  0  0  0  0
   51.1150  159.4160   30.1630 C   0  0  0  0  0  0  0  0  0  0  0  0
   50.8490  160.7100   30.5560 C   0  0  0  0  0  0  0  0  0  0  0  0
   49.5730  160.9780   31.0650 C   0  0  0  0  0  0  0  0  0  0  0  0
   48.6000  159.9620   31.1700 C   0  0  0  0  0  0  0  0  0  0  0  0
   48.8850  158.6550   30.7670 C   0  0  0  0  0  0  0  0  0  0  0  0
   50.1500  158.4170   30.2690 C   0  0  0  0  0  0  0  0  0  0  0  0
   50.7550  157.1800   29.7720 C   0  0  0  0  0  0  0  0  0  0  0  0
   50.2370  156.0900   29.7000 O   0  0  0  0  0  0  0  0  0  0  0  0
   53.1120  159.4650   29.4760 H   0  0  0  0  0  0  0  0  0  0  0  0
   51.6092  161.5007   30.4729 H   0  0  0  0  0  0  0  0  0  0  0  0
   49.3244  161.9994   31.3890 H   0  0  0  0  0  0  0  0  0  0  0  0
   47.6053  160.2016   31.5739 H   0  0  0  0  0  0  0  0  0  0  0  0
   48.1360  157.8530   30.8431 H   0  0  0  0  0  0  0  0  0  0  0  0
  1  2  2  0
  2  3  1  0
  3  4  1  0
  4  5  2  0
  5  6  1  0
  6  7  2  0
  7  8  1  0
  8  9  2  0
  9 10  1  0
 10 11  2  0
 10  2  1  0
  9  4  1  0
  3 12  1  0
  5 13  1  0
  6 14  1  0
  7 15  1  0
  8 16  1  0
M  END
>  <meeko>  (8) 
{"is_sidechain": [false], "free_energy": -6.782, "intermolecular_energy": -6.782, "internal_energy": 0.0}

$$$$
isatin_out
     RDKit          3D

 16 17  0  0  0  0  0  0  0  0999 V2000
   52.3920  158.5680   29.2690 O   0  0  0  0  0  0  0  0  0  0  0  0
   51.5190  159.0670   29.9430 C   0  0  0  0  0  0  0  0  0  0  0  0
   50.2750  158.5500   30.2490 N   0  0  0  0  0  0  0  0  0  0  0  0
   49.5550  159.4280   31.0530 C   0  0  0  0  0  0  0  0  0  0  0  0
   48.2830  159.2490   31.5530 C   0  0  0  0  0  0  0  0  0  0  0  0
   47.7540  160.2740   32.3460 C   0  0  0  0  0  0  0  0  0  0  0  0
   48.4970  161.4420   32.6230 C   0  0  0  0  0  0  0  0  0  0  0  0
   49.7850  161.6070   32.1090 C   0  0  0  0  0  0  0  0  0  0  0  0
   50.2830  160.5830   31.3300 C   0  0  0  0  0  0  0  0  0  0  0  0
   51.5760  160.4490   30.6550 C   0  0  0  0  0  0  0  0  0  0  0  0
   52.4870  161.2430   30.6540 O   0  0  0  0  0  0  0  0  0  0  0  0
   49.9430  157.6760   29.9380 H   0  0  0  0  0  0  0  0  0  0  0  0
   47.7067  158.3372   31.3375 H   0  0  0  0  0  0  0  0  0  0  0  0
   46.7408  160.1675   32.7609 H   0  0  0  0  0  0  0  0  0  0  0  0
   48.0566  162.2308   33.2506 H   0  0  0  0  0  0  0  0  0  0  0  0
   50.3753  162.5118   32.3158 H   0  0  0  0  0  0  0  0  0  0  0  0
  1  2  2  0
  2  3  1  0
  3  4  1  0
  4  5  2  0
  5  6  1  0
  6  7  2  0
  7  8  1  0
  8  9  2  0
  9 10  1  0
 10 11  2  0
 10  2  1  0
  9  4  1  0
  3 12  1  0
  5 13  1  0
  6 14  1  0
  7 15  1  0
  8 16  1  0
M  END
>  <meeko>  (9) 
{"is_sidechain": [false], "free_energy": -6.774, "intermolecular_energy": -6.774, "internal_energy": 0.0}

$$$$
