VP7_out
     RDKit          3D

 45 48  0  0  0  0  0  0  0  0999 V2000
   50.3950  161.0730   29.6100 C   0  0  0  0  0  0  0  0  0  0  0  0
   51.4240  160.3070   30.4390 C   0  0  0  0  0  0  0  0  0  0  0  0
   51.1180  160.4350   31.9300 C   0  0  0  0  0  0  0  0  0  0  0  0
   52.7060  160.8900   30.2090 O   0  0  0  0  0  0  0  0  0  0  0  0
   51.4620  158.8920   30.0390 C   0  0  0  0  0  0  0  0  0  0  0  0
   51.4930  157.7390   29.7030 C   0  0  0  0  0  0  0  0  0  0  0  0
   51.5360  156.3660   29.3010 C   0  0  0  0  0  0  0  0  0  0  0  0
   50.8390  155.4070   30.0320 C   0  0  0  0  0  0  0  0  0  0  0  0
   50.8710  154.0600   29.6610 C   0  0  0  0  0  0  0  0  0  0  0  0
   51.6250  153.7150   28.5320 C   0  0  0  0  0  0  0  0  0  0  0  0
   51.8330  152.4890   27.9600 N   0  0  0  0  0  0  0  0  0  0  0  0
   52.6590  152.5790   26.8610 C   0  0  0  0  0  0  0  0  0  0  0  0
   52.9820  153.9240   26.6930 C   0  0  0  0  0  0  0  0  0  0  0  0
   52.3300  154.6410   27.7700 C   0  0  0  0  0  0  0  0  0  0  0  0
   52.2820  155.9960   28.1750 C   0  0  0  0  0  0  0  0  0  0  0  0
   53.8190  154.4950   25.6270 C   0  0  0  0  0  0  0  0  0  0  0  0
   53.6030  155.8140   25.4130 N   0  0  0  0  0  0  0  0  0  0  0  0
   54.3420  156.4330   24.4970 C   0  0  0  0  0  0  0  0  0  0  0  0
   54.0970  157.7730   24.2780 N   0  0  0  0  0  0  0  0  0  0  0  0
   55.2650  155.8440   23.7440 N   0  0  0  0  0  0  0  0  0  0  0  0
   55.4550  154.5330   23.9660 C   0  0  0  0  0  0  0  0  0  0  0  0
   54.7530  153.7830   24.8950 C   0  0  0  0  0  0  0  0  0  0  0  0
   55.0390  152.3210   25.0330 C   0  0  0  0  0  0  0  0  0  0  0  0
   53.7810  151.4830   24.8540 C   0  0  0  0  0  0  0  0  0  0  0  0
   53.0170  151.3140   26.1560 C   0  0  0  0  0  0  0  0  0  0  0  0
   49.6964  161.5930   30.2820 H   0  0  0  0  0  0  0  0  0  0  0  0
   50.9100  161.8093   28.9755 H   0  0  0  0  0  0  0  0  0  0  0  0
   49.8374  160.3684   28.9755 H   0  0  0  0  0  0  0  0  0  0  0  0
   51.9785  160.0751   32.5131 H   0  0  0  0  0  0  0  0  0  0  0  0
   50.9241  161.4896   32.1753 H   0  0  0  0  0  0  0  0  0  0  0  0
   50.2310  159.8325   32.1753 H   0  0  0  0  0  0  0  0  0  0  0  0
   53.2400  160.8260   31.0170 H   0  0  0  0  0  0  0  0  0  0  0  0
   50.2558  155.7138   30.9128 H   0  0  0  0  0  0  0  0  0  0  0  0
   50.3236  153.2979   30.2351 H   0  0  0  0  0  0  0  0  0  0  0  0
   51.4430  151.6480   28.2920 H   0  0  0  0  0  0  0  0  0  0  0  0
   52.8313  156.7596   27.6047 H   0  0  0  0  0  0  0  0  0  0  0  0
   53.1710  158.0960   24.1840 H   0  0  0  0  0  0  0  0  0  0  0  0
   54.8480  158.4070   24.2170 H   0  0  0  0  0  0  0  0  0  0  0  0
   56.2219  154.0189   23.3681 H   0  0  0  0  0  0  0  0  0  0  0  0
   55.7745  152.0278   24.2694 H   0  0  0  0  0  0  0  0  0  0  0  0
   55.4299  152.1417   26.0455 H   0  0  0  0  0  0  0  0  0  0  0  0
   53.1270  151.9772   24.1205 H   0  0  0  0  0  0  0  0  0  0  0  0
   54.0856  150.4843   24.5079 H   0  0  0  0  0  0  0  0  0  0  0  0
   52.0844  150.7746   25.9338 H   0  0  0  0  0  0  0  0  0  0  0  0
   53.6929  150.7721   26.8339 H   0  0  0  0  0  0  0  0  0  0  0  0
  1  2  1  0
  2  3  1  0
  2  4  1  0
  2  5  1  0
  5  6  3  0
  6  7  1  0
  7  8  2  0
  8  9  1  0
  9 10  2  0
 10 11  1  0
 11 12  1  0
 12 13  2  0
 13 14  1  0
 14 15  2  0
 13 16  1  0
 16 17  2  0
 17 18  1  0
 18 19  1  0
 18 20  2  0
 20 21  1  0
 21 22  2  0
 22 23  1  0
 23 24  1  0
 24 25  1  0
 15  7  1  0
 22 16  1  0
 14 10  1  0
 25 12  1  0
  1 26  1  0
  1 27  1  0
  1 28  1  0
  3 29  1  0
  3 30  1  0
  3 31  1  0
  4 32  1  0
  8 33  1  0
  9 34  1  0
 11 35  1  0
 15 36  1  0
 19 37  1  0
 19 38  1  0
 21 39  1  0
 23 40  1  0
 23 41  1  0
 24 42  1  0
 24 43  1  0
 25 44  1  0
 25 45  1  0
M  END
>  <meeko>  (1) 
{"is_sidechain": [false], "free_energy": -6.059, "intermolecular_energy": -8.185, "internal_energy": 0.7}

$$$$
VP7_out
     RDKit          3D

 45 48  0  0  0  0  0  0  0  0999 V2000
   53.0110  154.7250   24.4430 C   0  0  0  0  0  0  0  0  0  0  0  0
   53.8390  155.3640   25.5560 C   0  0  0  0  0  0  0  0  0  0  0  0
   54.7250  156.4760   24.9990 C   0  0  0  0  0  0  0  0  0  0  0  0
   54.6950  154.3640   26.1070 O   0  0  0  0  0  0  0  0  0  0  0  0
   52.9640  155.8840   26.6190 C   0  0  0  0  0  0  0  0  0  0  0  0
   52.2440  156.3010   27.4860 C   0  0  0  0  0  0  0  0  0  0  0  0
   51.3880  156.8030   28.5170 C   0  0  0  0  0  0  0  0  0  0  0  0
   50.2540  156.0850   28.8880 C   0  0  0  0  0  0  0  0  0  0  0  0
   49.4010  156.5590   29.8880 C   0  0  0  0  0  0  0  0  0  0  0  0
   49.7300  157.7760   30.4990 C   0  0  0  0  0  0  0  0  0  0  0  0
   49.0770  158.4650   31.4860 N   0  0  0  0  0  0  0  0  0  0  0  0
   49.7280  159.6390   31.7960 C   0  0  0  0  0  0  0  0  0  0  0  0
   50.8680  159.7050   30.9990 C   0  0  0  0  0  0  0  0  0  0  0  0
   50.8560  158.5220   30.1640 C   0  0  0  0  0  0  0  0  0  0  0  0
   51.6960  158.0160   29.1440 C   0  0  0  0  0  0  0  0  0  0  0  0
   51.8810  160.7720   31.0100 C   0  0  0  0  0  0  0  0  0  0  0  0
   53.0780  160.3900   30.5080 N   0  0  0  0  0  0  0  0  0  0  0  0
   54.0490  161.2970   30.4350 C   0  0  0  0  0  0  0  0  0  0  0  0
   55.2690  160.8880   29.9380 N   0  0  0  0  0  0  0  0  0  0  0  0
   53.9430  162.5550   30.8510 N   0  0  0  0  0  0  0  0  0  0  0  0
   52.7490  162.9090   31.3550 C   0  0  0  0  0  0  0  0  0  0  0  0
   51.6630  162.0570   31.4760 C   0  0  0  0  0  0  0  0  0  0  0  0
   50.3900  162.5630   32.0770 C   0  0  0  0  0  0  0  0  0  0  0  0
   49.9520  161.7090   33.2630 C   0  0  0  0  0  0  0  0  0  0  0  0
   49.1090  160.5240   32.8270 C   0  0  0  0  0  0  0  0  0  0  0  0
   52.2139  154.1099   24.8860 H   0  0  0  0  0  0  0  0  0  0  0  0
   52.5627  155.5135   23.8207 H   0  0  0  0  0  0  0  0  0  0  0  0
   53.6601  154.0914   23.8207 H   0  0  0  0  0  0  0  0  0  0  0  0
   55.1735  157.0389   25.8309 H   0  0  0  0  0  0  0  0  0  0  0  0
   55.5223  156.0354   24.3824 H   0  0  0  0  0  0  0  0  0  0  0  0
   54.1174  157.1548   24.3824 H   0  0  0  0  0  0  0  0  0  0  0  0
   54.7880  153.6340   25.4740 H   0  0  0  0  0  0  0  0  0  0  0  0
   50.0268  155.1323   28.3873 H   0  0  0  0  0  0  0  0  0  0  0  0
   48.5034  155.9968   30.1849 H   0  0  0  0  0  0  0  0  0  0  0  0
   48.2460  158.1600   31.9190 H   0  0  0  0  0  0  0  0  0  0  0  0
   52.5930  158.5771   28.8431 H   0  0  0  0  0  0  0  0  0  0  0  0
   55.5210  161.1050   29.0110 H   0  0  0  0  0  0  0  0  0  0  0  0
   55.8870  160.3770   30.5100 H   0  0  0  0  0  0  0  0  0  0  0  0
   52.6249  163.9476   31.6953 H   0  0  0  0  0  0  0  0  0  0  0  0
   50.5427  163.5974   32.4187 H   0  0  0  0  0  0  0  0  0  0  0  0
   49.6037  162.5156   31.3092 H   0  0  0  0  0  0  0  0  0  0  0  0
   50.8470  161.3366   33.7828 H   0  0  0  0  0  0  0  0  0  0  0  0
   49.3399  162.3367   33.9273 H   0  0  0  0  0  0  0  0  0  0  0  0
   48.8987  159.9122   33.7166 H   0  0  0  0  0  0  0  0  0  0  0  0
   48.2093  160.9497   32.3586 H   0  0  0  0  0  0  0  0  0  0  0  0
  1  2  1  0
  2  3  1  0
  2  4  1  0
  2  5  1  0
  5  6  3  0
  6  7  1  0
  7  8  2  0
  8  9  1  0
  9 10  2  0
 10 11  1  0
 11 12  1  0
 12 13  2  0
 13 14  1  0
 14 15  2  0
 13 16  1  0
 16 17  2  0
 17 18  1  0
 18 19  1  0
 18 20  2  0
 20 21  1  0
 21 22  2  0
 22 23  1  0
 23 24  1  0
 24 25  1  0
 15  7  1  0
 22 16  1  0
 14 10  1  0
 25 12  1  0
  1 26  1  0
  1 27  1  0
  1 28  1  0
  3 29  1  0
  3 30  1  0
  3 31  1  0
  4 32  1  0
  8 33  1  0
  9 34  1  0
 11 35  1  0
 15 36  1  0
 19 37  1  0
 19 38  1  0
 21 39  1  0
 23 40  1  0
 23 41  1  0
 24 42  1  0
 24 43  1  0
 25 44  1  0
 25 45  1  0
M  END
>  <meeko>  (2) 
{"is_sidechain": [false], "free_energy": -3.62, "intermolecular_energy": -4.898, "internal_energy": 0.709}

$$$$
VP7_out
     RDKit          3D

 45 48  0  0  0  0  0  0  0  0999 V2000
   53.9210  161.6640   30.8880 C   0  0  0  0  0  0  0  0  0  0  0  0
   52.4270  161.4880   30.6240 C   0  0  0  0  0  0  0  0  0  0  0  0
   51.9540  162.4520   29.5380 C   0  0  0  0  0  0  0  0  0  0  0  0
   51.7200  161.8070   31.8220 O   0  0  0  0  0  0  0  0  0  0  0  0
   52.1280  160.0970   30.2470 C   0  0  0  0  0  0  0  0  0  0  0  0
   51.8900  158.9590   29.9460 C   0  0  0  0  0  0  0  0  0  0  0  0
   51.6130  157.6020   29.5860 C   0  0  0  0  0  0  0  0  0  0  0  0
   50.6720  156.8710   30.3070 C   0  0  0  0  0  0  0  0  0  0  0  0
   50.3880  155.5430   29.9770 C   0  0  0  0  0  0  0  0  0  0  0  0
   51.0830  154.9800   28.8990 C   0  0  0  0  0  0  0  0  0  0  0  0
   51.0090  153.7180   28.3730 N   0  0  0  0  0  0  0  0  0  0  0  0
   51.8780  153.5610   27.3160 C   0  0  0  0  0  0  0  0  0  0  0  0
   52.5270  154.7790   27.1260 C   0  0  0  0  0  0  0  0  0  0  0  0
   52.0250  155.6750   28.1480 C   0  0  0  0  0  0  0  0  0  0  0  0
   52.2930  157.0170   28.5110 C   0  0  0  0  0  0  0  0  0  0  0  0
   53.5230  155.0860   26.0890 C   0  0  0  0  0  0  0  0  0  0  0  0
   53.6280  156.4060   25.8100 N   0  0  0  0  0  0  0  0  0  0  0  0
   54.5340  156.7900   24.9140 C   0  0  0  0  0  0  0  0  0  0  0  0
   54.6160  158.1370   24.6270 N   0  0  0  0  0  0  0  0  0  0  0  0
   55.3310  155.9670   24.2410 N   0  0  0  0  0  0  0  0  0  0  0  0
   55.2010  154.6600   24.5270 C   0  0  0  0  0  0  0  0  0  0  0  0
   54.3010  154.1410   25.4430 C   0  0  0  0  0  0  0  0  0  0  0  0
   54.2350  152.6620   25.6570 C   0  0  0  0  0  0  0  0  0  0  0  0
   52.8080  152.1380   25.4190 C   0  0  0  0  0  0  0  0  0  0  0  0
   51.9440  152.2190   26.6660 C   0  0  0  0  0  0  0  0  0  0  0  0
   54.1016  161.6853   31.9729 H   0  0  0  0  0  0  0  0  0  0  0  0
   54.4738  160.8248   30.4406 H   0  0  0  0  0  0  0  0  0  0  0  0
   54.2636  162.6087   30.4406 H   0  0  0  0  0  0  0  0  0  0  0  0
   51.5156  163.3455   30.0064 H   0  0  0  0  0  0  0  0  0  0  0  0
   52.8092  162.7480   28.9127 H   0  0  0  0  0  0  0  0  0  0  0  0
   51.1966  161.9568   28.9127 H   0  0  0  0  0  0  0  0  0  0  0  0
   51.7520  161.0490   32.4280 H   0  0  0  0  0  0  0  0  0  0  0  0
   50.1450  157.3455   31.1479 H   0  0  0  0  0  0  0  0  0  0  0  0
   49.6458  154.9611   30.5431 H   0  0  0  0  0  0  0  0  0  0  0  0
   50.4100  153.0110   28.7080 H   0  0  0  0  0  0  0  0  0  0  0  0
   53.0362  157.6006   27.9479 H   0  0  0  0  0  0  0  0  0  0  0  0
   53.9780  158.5470   23.9990 H   0  0  0  0  0  0  0  0  0  0  0  0
   55.3140  158.6890   25.0500 H   0  0  0  0  0  0  0  0  0  0  0  0
   55.8554  153.9529   23.9962 H   0  0  0  0  0  0  0  0  0  0  0  0
   54.9229  152.1654   24.9569 H   0  0  0  0  0  0  0  0  0  0  0  0
   54.5219  152.4432   26.6961 H   0  0  0  0  0  0  0  0  0  0  0  0
   52.3394  152.7384   24.6253 H   0  0  0  0  0  0  0  0  0  0  0  0
   52.8839  151.0786   25.1327 H   0  0  0  0  0  0  0  0  0  0  0  0
   50.9206  151.9260   26.3888 H   0  0  0  0  0  0  0  0  0  0  0  0
   52.4129  151.5496   27.4022 H   0  0  0  0  0  0  0  0  0  0  0  0
  1  2  1  0
  2  3  1  0
  2  4  1  0
  2  5  1  0
  5  6  3  0
  6  7  1  0
  7  8  2  0
  8  9  1  0
  9 10  2  0
 10 11  1  0
 11 12  1  0
 12 13  2  0
 13 14  1  0
 14 15  2  0
 13 16  1  0
 16 17  2  0
 17 18  1  0
 18 19  1  0
 18 20  2  0
 20 21  1  0
 21 22  2  0
 22 23  1  0
 23 24  1  0
 24 25  1  0
 15  7  1  0
 22 16  1  0
 14 10  1  0
 25 12  1  0
  1 26  1  0
  1 27  1  0
  1 28  1  0
  3 29  1  0
  3 30  1  0
  3 31  1  0
  4 32  1  0
  8 33  1  0
  9 34  1  0
 11 35  1  0
 15 36  1  0
 19 37  1  0
 19 38  1  0
 21 39  1  0
 23 40  1  0
 23 41  1  0
 24 42  1  0
 24 43  1  0
 25 44  1  0
 25 45  1  0
M  END
>  <meeko>  (3) 
{"is_sidechain": [false], "free_energy": -3.225, "intermolecular_energy": -4.353, "internal_energy": 0.696}

$$$$
