
 OpenBabel09242623453D

 84 89  0  0  0  0  0  0  0  0999 V2000
   24.5260   35.3410  -18.8620 P   0  0  2  0  0  0  0  0  0  0  0  0
   23.7150   34.1340  -18.4350 O   0  0  0  0  0  0  0  0  0  0  0  0
   25.6520   35.9380  -18.1090 O   0  5  0  0  0  0  0  0  0  0  0  0
   23.4420   36.4520  -19.1040 O   0  0  0  0  0  0  0  0  0  0  0  0
   22.0840   36.0870  -19.2980 C   0  0  0  0  0  0  0  0  0  0  0  0
   21.1890   37.0890  -18.5640 C   0  0  1  0  0  0  0  0  0  0  0  0
   19.8440   36.8320  -18.9740 O   0  0  0  0  0  0  0  0  0  0  0  0
   21.2280   36.8730  -17.0360 C   0  0  1  0  0  0  0  0  0  0  0  0
   21.3870   38.1070  -16.3300 O   0  0  0  0  0  0  0  0  0  0  0  0
   19.8780   36.2470  -16.7340 C   0  0  1  0  0  0  0  0  0  0  0  0
   19.3440   36.6250  -15.5130 O   0  0  0  0  0  0  0  0  0  0  0  0
   18.9940   36.8070  -17.8200 C   0  0  2  0  0  0  0  0  0  0  0  0
   17.8380   35.9740  -18.2090 N   0  0  0  0  0  0  0  0  0  0  0  0
   17.6490   34.6140  -18.2770 C   0  0  0  0  0  0  0  0  0  0  0  0
   16.3770   34.3610  -18.7610 N   0  0  0  0  0  0  0  0  0  0  0  0
   15.8300   35.5670  -19.0440 C   0  0  0  0  0  0  0  0  0  0  0  0
   14.6140   35.9280  -19.6110 C   0  0  0  0  0  0  0  0  0  0  0  0
   13.7770   34.9850  -20.0980 N   0  0  0  0  0  0  0  0  0  0  0  0
   14.3480   37.2620  -19.7660 N   0  0  0  0  0  0  0  0  0  0  0  0
   15.2080   38.2530  -19.3960 C   0  0  0  0  0  0  0  0  0  0  0  0
   16.4400   37.9260  -18.8490 N   0  0  0  0  0  0  0  0  0  0  0  0
   16.7160   36.5770  -18.6670 C   0  0  0  0  0  0  0  0  0  0  0  0
   33.8590   33.1960  -17.8800 N   0  0  0  0  0  0  0  0  0  0  0  0
   35.0780   33.7890  -17.9440 C   0  0  0  0  0  0  0  0  0  0  0  0
   35.2520   34.4500  -18.9180 O   0  0  0  0  0  0  0  0  0  0  0  0
   36.0250   33.6480  -16.9400 N   0  0  0  0  0  0  0  0  0  0  0  0
   35.7300   32.8220  -15.8340 C   0  0  0  0  0  0  0  0  0  0  0  0
   36.5430   32.6100  -14.8790 O   0  0  0  0  0  0  0  0  0  0  0  0
   34.5000   32.1870  -15.8170 C   0  0  0  0  0  0  0  0  0  0  0  0
   34.1760   31.3420  -14.7850 N   0  0  0  0  0  0  0  0  0  0  0  0
   32.8760   30.8680  -14.6560 C   0  0  0  0  0  0  0  0  0  0  0  0
   32.5150   30.3930  -13.3860 C   0  0  0  0  0  0  0  0  0  0  0  0
   31.1840   30.3370  -13.0130 C   0  0  0  0  0  0  0  0  0  0  0  0
   30.8720   29.5740  -11.7310 C   0  0  0  0  0  0  0  0  0  0  0  0
   30.1630   30.7540  -13.9070 C   0  0  0  0  0  0  0  0  0  0  0  0
   28.7330   30.5990  -13.5030 C   0  0  0  0  0  0  0  0  0  0  0  0
   30.4830   31.2560  -15.1950 C   0  0  0  0  0  0  0  0  0  0  0  0
   31.8810   31.2900  -15.5590 C   0  0  0  0  0  0  0  0  0  0  0  0
   32.3140   31.8300  -16.7580 N   0  0  0  0  0  0  0  0  0  0  0  0
   33.5540   32.4110  -16.8160 C   0  0  0  0  0  0  0  0  0  0  0  0
   31.3090   32.0890  -17.8230 C   0  0  0  0  0  0  0  0  0  0  0  0
   30.8600   33.5260  -17.8540 C   0  0  2  0  0  0  0  0  0  0  0  0
   30.4400   33.7530  -16.5420 O   0  0  0  0  0  0  0  0  0  0  0  0
   29.7380   33.5350  -18.9090 C   0  0  2  0  0  0  0  0  0  0  0  0
   30.2820   33.0130  -20.1390 O   0  0  0  0  0  0  0  0  0  0  0  0
   29.1980   34.8870  -19.2820 C   0  0  2  0  0  0  0  0  0  0  0  0
   28.9020   35.6470  -18.1420 O   0  0  0  0  0  0  0  0  0  0  0  0
   27.9050   34.6360  -20.0670 C   0  0  0  0  0  0  0  0  0  0  0  0
   27.4150   35.8970  -20.3880 O   0  0  0  0  0  0  0  0  0  0  0  0
   26.0470   36.0170  -21.1600 P   0  0  1  0  0  0  0  0  0  0  0  0
   25.8630   37.5290  -21.2350 O   0  0  0  0  0  0  0  0  0  0  0  0
   26.2860   35.4000  -22.5710 O   0  5  0  0  0  0  0  0  0  0  0  0
   25.0070   35.1470  -20.3740 O   0  0  0  0  0  0  0  0  0  0  0  0
   21.9174   35.1045  -18.9083 H   0  0  0  0  0  0  0  0  0  0  0  0
   21.8534   36.0940  -20.3428 H   0  0  0  0  0  0  0  0  0  0  0  0
   21.5254   38.0790  -18.7912 H   0  0  0  0  0  0  0  0  0  0  0  0
   22.0542   36.2658  -16.7300 H   0  0  0  0  0  0  0  0  0  0  0  0
   20.6634   38.7091  -16.5642 H   0  0  0  0  0  0  0  0  0  0  0  0
   19.9613   35.1809  -16.6961 H   0  0  0  0  0  0  0  0  0  0  0  0
   19.2445   37.5896  -15.4883 H   0  0  0  0  0  0  0  0  0  0  0  0
   18.5933   37.7346  -17.4680 H   0  0  0  0  0  0  0  0  0  0  0  0
   18.3428   33.8980  -18.0105 H   0  0  0  0  0  0  0  0  0  0  0  0
   13.9862   34.0307  -19.9761 H   0  0  0  0  0  0  0  0  0  0  0  0
   12.9581   35.2524  -20.5746 H   0  0  0  0  0  0  0  0  0  0  0  0
   14.9435   39.2425  -19.5224 H   0  0  0  0  0  0  0  0  0  0  0  0
   36.8889   34.1165  -16.9980 H   0  0  0  0  0  0  0  0  0  0  0  0
   33.2463   30.0838  -12.7267 H   0  0  0  0  0  0  0  0  0  0  0  0
   31.7831   29.3614  -11.2118 H   0  0  0  0  0  0  0  0  0  0  0  0
   30.3771   28.6568  -11.9733 H   0  0  0  0  0  0  0  0  0  0  0  0
   30.2367   30.1682  -11.1079 H   0  0  0  0  0  0  0  0  0  0  0  0
   28.6838   30.2105  -12.5072 H   0  0  0  0  0  0  0  0  0  0  0  0
   28.2440   29.9238  -14.1738 H   0  0  0  0  0  0  0  0  0  0  0  0
   28.2470   31.5516  -13.5386 H   0  0  0  0  0  0  0  0  0  0  0  0
   29.7495   31.5825  -15.8434 H   0  0  0  0  0  0  0  0  0  0  0  0
   30.4562   31.4666  -17.6490 H   0  0  0  0  0  0  0  0  0  0  0  0
   31.7689   31.8714  -18.7643 H   0  0  0  0  0  0  0  0  0  0  0  0
   31.5660   34.2848  -18.1198 H   0  0  0  0  0  0  0  0  0  0  0  0
   29.7984   33.0722  -16.2855 H   0  0  0  0  0  0  0  0  0  0  0  0
   28.9445   32.9694  -18.4669 H   0  0  0  0  0  0  0  0  0  0  0  0
   30.9901   33.5969  -20.4529 H   0  0  0  0  0  0  0  0  0  0  0  0
   29.9215   35.4294  -19.8540 H   0  0  0  0  0  0  0  0  0  0  0  0
   28.2462   35.1784  -17.6023 H   0  0  0  0  0  0  0  0  0  0  0  0
   27.1994   34.1027  -19.4648 H   0  0  0  0  0  0  0  0  0  0  0  0
   28.0795   34.0435  -20.9407 H   0  0  0  0  0  0  0  0  0  0  0  0
  1  2  2  1  0  0  0
  3  1  1  0  0  0  0
  4  1  1  0  0  0  0
  5  4  1  0  0  0  0
  5 54  1  0  0  0  0
  5 55  1  0  0  0  0
  6  5  1  0  0  0  0
  6 56  1  6  0  0  0
  7  6  1  0  0  0  0
  8  6  1  0  0  0  0
  8  9  1  0  0  0  0
  8 57  1  1  0  0  0
  9 58  1  0  0  0  0
 10  8  1  0  0  0  0
 10 11  1  0  0  0  0
 10 59  1  6  0  0  0
 11 60  1  0  0  0  0
 12 10  1  0  0  0  0
 12  7  1  0  0  0  0
 12 13  1  0  0  0  0
 12 61  1  1  0  0  0
 14 13  1  0  0  0  0
 14 62  1  0  0  0  0
 15 14  2  0  0  0  0
 16 15  1  0  0  0  0
 17 16  2  0  0  0  0
 18 17  1  0  0  0  0
 18 63  1  0  0  0  0
 18 64  1  0  0  0  0
 19 17  1  0  0  0  0
 20 19  2  0  0  0  0
 20 65  1  0  0  0  0
 21 20  1  0  0  0  0
 22 16  1  0  0  0  0
 22 21  2  0  0  0  0
 22 13  1  0  0  0  0
 24 23  1  0  0  0  0
 25 24  2  0  0  0  0
 26 24  1  0  0  0  0
 26 66  1  0  0  0  0
 27 26  1  0  0  0  0
 28 27  2  0  0  0  0
 29 27  1  0  0  0  0
 30 29  2  0  0  0  0
 31 30  1  0  0  0  0
 32 31  2  0  0  0  0
 32 67  1  0  0  0  0
 33 32  1  0  0  0  0
 34 33  1  0  0  0  0
 34 68  1  0  0  0  0
 34 69  1  0  0  0  0
 34 70  1  0  0  0  0
 35 33  2  0  0  0  0
 36 35  1  0  0  0  0
 36 71  1  0  0  0  0
 36 72  1  0  0  0  0
 36 73  1  0  0  0  0
 37 35  1  0  0  0  0
 37 74  1  0  0  0  0
 38 37  2  0  0  0  0
 38 31  1  0  0  0  0
 39 38  1  0  0  0  0
 40 39  1  0  0  0  0
 40 29  1  0  0  0  0
 40 23  2  0  0  0  0
 41 39  1  0  0  0  0
 41 75  1  0  0  0  0
 41 76  1  0  0  0  0
 42 41  1  0  0  0  0
 42 43  1  0  0  0  0
 42 77  1  6  0  0  0
 43 78  1  0  0  0  0
 44 42  1  0  0  0  0
 44 45  1  0  0  0  0
 44 79  1  1  0  0  0
 45 80  1  0  0  0  0
 46 44  1  0  0  0  0
 46 47  1  0  0  0  0
 46 81  1  6  0  0  0
 47 82  1  0  0  0  0
 48 46  1  0  0  0  0
 48 83  1  0  0  0  0
 48 84  1  0  0  0  0
 49 48  1  0  0  0  0
 50 49  1  0  0  0  0
 50 51  2  6  0  0  0
 52 50  1  0  0  0  0
 53 50  1  0  0  0  0
 53  1  1  0  0  0  0
M  CHG  2   3  -1  52  -1
M  END
$$$$
