HRM_from_2Z5X
     RDKit          3D

 16 18  0  0  0  0  0  0  0  0999 V2000
   37.9770   27.0500  -17.7610 C   0  0  0  0  0  0  0  0  0  0  0  0
   38.2180   27.4840  -16.3270 C   0  0  0  0  0  0  0  0  0  0  0  0
   37.3130   28.3190  -15.7820 N   0  0  0  0  0  0  0  0  0  0  0  0
   37.4270   28.8250  -14.5370 C   0  0  0  0  0  0  0  0  0  0  0  0
   38.5280   28.4870  -13.7520 C   0  0  0  0  0  0  0  0  0  0  0  0
   39.5060   27.6500  -14.3040 C   0  0  0  0  0  0  0  0  0  0  0  0
   39.3440   27.1250  -15.6030 C   0  0  0  0  0  0  0  0  0  0  0  0
   40.4290   26.3750  -15.8550 N   0  0  0  0  0  0  0  0  0  0  0  0
   41.2340   26.3960  -14.7790 C   0  0  0  0  0  0  0  0  0  0  0  0
   42.4500   25.7810  -14.5650 C   0  0  0  0  0  0  0  0  0  0  0  0
   40.6940   27.1720  -13.7850 C   0  0  0  0  0  0  0  0  0  0  0  0
   41.3130   27.3740  -12.5100 C   0  0  0  0  0  0  0  0  0  0  0  0
   42.5570   26.7670  -12.2850 C   0  0  0  0  0  0  0  0  0  0  0  0
   43.0880   25.9660  -13.3350 C   0  0  0  0  0  0  0  0  0  0  0  0
   44.3000   25.3650  -13.1470 O   0  0  0  0  0  0  0  0  0  0  0  0
   44.9390   24.7660  -14.3200 C   0  0  0  0  0  0  0  0  0  0  0  0
  2  1  1  0
  3  2  2  0
  4  3  1  0
  5  4  2  0
  6  5  1  0
  7  6  2  0
  7  2  1  0
  8  7  1  0
  9  8  1  0
 10  9  2  0
 11  9  1  0
 11  6  1  0
 12 11  2  0
 13 12  1  0
 14 13  2  0
 14 10  1  0
 15 14  1  0
 16 15  1  0
M  END
$$$$
