03_receptors/7Q8V/native_9IV.pdb
 OpenBabel08202615273D

 37 40  0  0  1  0  0  0  0  0999 V2000
   71.8820   39.5830   -1.4440 N   0  0  0  0  0  0  0  0  0  0  0  0
   66.7570   44.6920   -7.5380 C   0  0  0  0  0  0  0  0  0  0  0  0
   72.2530   36.4570    1.1230 N   0  0  0  0  0  0  0  0  0  0  0  0
   68.8030   44.0650   -6.4440 C   0  0  0  0  0  0  0  0  0  0  0  0
   68.2110   44.2980   -5.2060 C   0  0  0  0  0  0  0  0  0  0  0  0
   68.9770   43.1860   -3.1800 C   0  0  0  0  0  0  0  0  0  0  0  0
   66.0850   44.8230   -3.6080 Cl  0  0  0  0  0  0  0  0  0  0  0  0
   66.8750   44.6870   -5.1480 C   0  0  0  0  0  0  0  0  0  0  0  0
   68.0660   44.2570   -7.6040 C   0  0  0  0  0  0  0  0  0  0  0  0
   66.1520   44.9050   -6.3110 C   0  0  0  0  0  0  0  0  0  0  0  0
   68.9540   44.3020   -4.0320 O   0  0  0  0  0  0  0  0  0  0  0  0
   68.2250   42.0420   -3.4170 C   0  0  0  0  0  0  0  0  0  0  0  0
   68.4000   40.9270   -2.6150 C   0  0  0  0  0  0  0  0  0  0  0  0
   69.3190   40.9530   -1.5640 C   0  0  0  0  0  0  0  0  0  0  0  0
   70.0250   42.1210   -1.3050 C   0  0  0  0  0  0  0  0  0  0  0  0
   69.8600   43.2310   -2.1130 C   0  0  0  0  0  0  0  0  0  0  0  0
   69.6370   39.7970   -0.8240 N   0  0  0  0  0  0  0  0  0  0  0  0
   70.8470   39.1790   -0.6780 C   0  0  0  0  0  0  0  0  0  0  0  0
   71.0010   38.1120    0.2610 C   0  0  1  0  0  0  0  0  0  0  0  0
   70.1620   37.2860    1.0660 C   0  0  0  0  0  0  0  0  0  0  0  0
   70.9550   36.3020    1.5710 C   0  0  0  0  0  0  0  0  0  0  0  0
   72.2870   37.5420    0.2950 C   0  0  0  0  0  0  0  0  0  0  0  0
   73.3330   37.9270   -0.4470 N   0  0  0  0  0  0  0  0  0  0  0  0
   73.0450   38.9360   -1.2790 C   0  0  0  0  0  0  0  0  0  0  0  0
   66.2271   44.8592   -8.4076 H   0  0  0  0  0  0  0  0  0  0  0  0
   69.7846   43.7512   -6.4989 H   0  0  0  0  0  0  0  0  0  0  0  0
   68.4992   44.0734   -8.5225 H   0  0  0  0  0  0  0  0  0  0  0  0
   65.1715   45.2232   -6.2624 H   0  0  0  0  0  0  0  0  0  0  0  0
   67.5388   42.0234   -4.1876 H   0  0  0  0  0  0  0  0  0  0  0  0
   67.8489   40.0732   -2.7947 H   0  0  0  0  0  0  0  0  0  0  0  0
   70.6761   42.1605   -0.5053 H   0  0  0  0  0  0  0  0  0  0  0  0
   70.3944   44.0928   -1.9214 H   0  0  0  0  0  0  0  0  0  0  0  0
   68.8849   39.3772   -0.3471 H   0  0  0  0  0  0  0  0  0  0  0  0
   70.2938   38.8838    0.4823 H   0  0  0  0  0  0  0  0  0  0  0  0
   69.1512   37.4102    1.2329 H   0  0  0  0  0  0  0  0  0  0  0  0
   70.6332   35.5484    2.1983 H   0  0  0  0  0  0  0  0  0  0  0  0
   73.8237   39.2596   -1.8739 H   0  0  0  0  0  0  0  0  0  0  0  0
  1 24  1  0  0  0  0
  1 18  2  0  0  0  0
  2 10  1  0  0  0  0
  2 25  1  0  0  0  0
  3 21  1  0  0  0  0
  4  5  2  0  0  0  0
  4 26  1  0  0  0  0
  5  8  1  0  0  0  0
  5 11  1  0  0  0  0
  6 16  1  0  0  0  0
  8  7  1  0  0  0  0
  9  2  2  0  0  0  0
  9  4  1  0  0  0  0
  9 27  1  0  0  0  0
 10  8  2  0  0  0  0
 10 28  1  0  0  0  0
 11  6  1  0  0  0  0
 12  6  2  0  0  0  0
 12 13  1  0  0  0  0
 12 29  1  0  0  0  0
 13 14  2  0  0  0  0
 13 30  1  0  0  0  0
 14 15  1  0  0  0  0
 14 17  1  0  0  0  0
 15 31  1  0  0  0  0
 16 15  2  0  0  0  0
 16 32  1  0  0  0  0
 17 18  1  0  0  0  0
 17 33  1  0  0  0  0
 18 19  1  0  0  0  0
 19 22  1  0  0  0  0
 19 20  1  0  0  0  0
 19 34  1  1  0  0  0
 20 21  2  0  0  0  0
 20 35  1  0  0  0  0
 21 36  1  0  0  0  0
 22  3  2  0  0  0  0
 23 22  1  0  0  0  0
 24 23  2  0  0  0  0
 24 37  1  0  0  0  0
M  END
$$$$
