cand_011_out
     RDKit          3D

 35 37  0  0  0  0  0  0  0  0999 V2000
   19.7230  -33.5060   35.8700 C   0  0  0  0  0  0  0  0  0  0  0  0
   19.6040  -32.3030   36.7660 C   0  0  0  0  0  0  0  0  0  0  0  0
   19.8650  -31.0300   36.2390 C   0  0  0  0  0  0  0  0  0  0  0  0
   19.7620  -29.8900   37.0390 C   0  0  0  0  0  0  0  0  0  0  0  0
   19.3970  -29.9890   38.3860 C   0  0  0  0  0  0  0  0  0  0  0  0
   19.2750  -28.7670   39.2090 C   0  0  0  0  0  0  0  0  0  0  0  0
   20.1720  -28.7370   40.2700 O   0  0  0  0  0  0  0  0  0  0  0  0
   20.1640  -27.6560   41.1140 C   0  0  0  0  0  0  0  0  0  0  0  0
   21.0900  -27.6600   42.1580 C   0  0  0  0  0  0  0  0  0  0  0  0
   21.1350  -26.5890   43.0540 C   0  0  0  0  0  0  0  0  0  0  0  0
   20.2520  -25.5170   42.9070 C   0  0  0  0  0  0  0  0  0  0  0  0
   19.3290  -25.5150   41.8650 C   0  0  0  0  0  0  0  0  0  0  0  0
   18.4950  -24.4350   41.7810 O   0  0  0  0  0  0  0  0  0  0  0  0
   19.2860  -26.5860   40.9680 C   0  0  0  0  0  0  0  0  0  0  0  0
   18.3310  -26.6240   39.8600 C   0  0  0  0  0  0  0  0  0  0  0  0
   17.5170  -25.7220   39.6680 O   0  0  0  0  0  0  0  0  0  0  0  0
   18.3730  -27.8000   38.9600 C   0  0  0  0  0  0  0  0  0  0  0  0
   17.4590  -27.8350   37.9230 O   0  0  0  0  0  0  0  0  0  0  0  0
   19.1200  -31.2610   38.9090 C   0  0  0  0  0  0  0  0  0  0  0  0
   19.2180  -32.4240   38.1180 C   0  0  0  0  0  0  0  0  0  0  0  0
   18.9140  -33.7700   38.7400 C   0  0  0  0  0  0  0  0  0  0  0  0
   17.8730  -34.4050   38.1320 F   0  0  0  0  0  0  0  0  0  0  0  0
   19.9580  -34.6460   38.6910 F   0  0  0  0  0  0  0  0  0  0  0  0
   18.5790  -33.6780   40.0580 F   0  0  0  0  0  0  0  0  0  0  0  0
   19.8128  -34.4137   36.4849 H   0  0  0  0  0  0  0  0  0  0  0  0
   18.8278  -33.5803   35.2351 H   0  0  0  0  0  0  0  0  0  0  0  0
   20.6154  -33.4035   35.2351 H   0  0  0  0  0  0  0  0  0  0  0  0
   20.1544  -30.9281   35.1826 H   0  0  0  0  0  0  0  0  0  0  0  0
   19.9706  -28.9013   36.6044 H   0  0  0  0  0  0  0  0  0  0  0  0
   21.7838  -28.5055   42.2753 H   0  0  0  0  0  0  0  0  0  0  0  0
   21.8663  -26.5901   43.8757 H   0  0  0  0  0  0  0  0  0  0  0  0
   20.2859  -24.6750   43.6140 H   0  0  0  0  0  0  0  0  0  0  0  0
   17.5810  -24.5340   41.9630 H   0  0  0  0  0  0  0  0  0  0  0  0
   17.7580  -27.9170   37.0390 H   0  0  0  0  0  0  0  0  0  0  0  0
   18.8187  -31.3533   39.9629 H   0  0  0  0  0  0  0  0  0  0  0  0
  1  2  1  0
  2  3  2  0
  3  4  1  0
  4  5  2  0
  5  6  1  0
  6  7  1  0
  7  8  1  0
  8  9  2  0
  9 10  1  0
 10 11  2  0
 11 12  1  0
 12 13  1  0
 12 14  2  0
 14 15  1  0
 15 16  2  0
 15 17  1  0
 17 18  1  0
  5 19  1  0
 19 20  2  0
 20 21  1  0
 21 22  1  0
 21 23  1  0
 21 24  1  0
 20  2  1  0
 17  6  2  0
 14  8  1  0
  1 25  1  0
  1 26  1  0
  1 27  1  0
  3 28  1  0
  4 29  1  0
  9 30  1  0
 10 31  1  0
 11 32  1  0
 13 33  1  0
 18 34  1  0
 19 35  1  0
M  END
>  <meeko>  (1) 
{"is_sidechain": [false], "free_energy": -8.429, "intermolecular_energy": -9.908, "internal_energy": -0.316}

$$$$
cand_011_out
     RDKit          3D

 35 37  0  0  0  0  0  0  0  0999 V2000
   19.0780  -25.2320   40.7960 C   0  0  0  0  0  0  0  0  0  0  0  0
   19.1470  -26.6050   40.1830 C   0  0  0  0  0  0  0  0  0  0  0  0
   18.1620  -26.9940   39.2630 C   0  0  0  0  0  0  0  0  0  0  0  0
   18.1960  -28.2580   38.6720 C   0  0  0  0  0  0  0  0  0  0  0  0
   19.2090  -29.1700   38.9830 C   0  0  0  0  0  0  0  0  0  0  0  0
   19.2350  -30.4960   38.3300 C   0  0  0  0  0  0  0  0  0  0  0  0
   18.8560  -31.5260   39.1820 O   0  0  0  0  0  0  0  0  0  0  0  0
   18.8370  -32.8110   38.7010 C   0  0  0  0  0  0  0  0  0  0  0  0
   18.4380  -33.8130   39.5860 C   0  0  0  0  0  0  0  0  0  0  0  0
   18.3970  -35.1430   39.1600 C   0  0  0  0  0  0  0  0  0  0  0  0
   18.7560  -35.4700   37.8510 C   0  0  0  0  0  0  0  0  0  0  0  0
   19.1540  -34.4680   36.9700 C   0  0  0  0  0  0  0  0  0  0  0  0
   19.4940  -34.8580   35.7030 O   0  0  0  0  0  0  0  0  0  0  0  0
   19.1940  -33.1370   37.3960 C   0  0  0  0  0  0  0  0  0  0  0  0
   19.6070  -32.0540   36.5020 C   0  0  0  0  0  0  0  0  0  0  0  0
   19.9450  -32.2620   35.3390 O   0  0  0  0  0  0  0  0  0  0  0  0
   19.6070  -30.6780   37.0490 C   0  0  0  0  0  0  0  0  0  0  0  0
   20.0100  -29.6620   36.2030 O   0  0  0  0  0  0  0  0  0  0  0  0
   20.2040  -28.7760   39.8900 C   0  0  0  0  0  0  0  0  0  0  0  0
   20.1890  -27.5030   40.4990 C   0  0  0  0  0  0  0  0  0  0  0  0
   21.2850  -27.1370   41.4760 C   0  0  0  0  0  0  0  0  0  0  0  0
   22.1260  -26.1830   40.9880 F   0  0  0  0  0  0  0  0  0  0  0  0
   20.8220  -26.6470   42.6610 F   0  0  0  0  0  0  0  0  0  0  0  0
   22.0730  -28.1990   41.8060 F   0  0  0  0  0  0  0  0  0  0  0  0
   19.0824  -25.3194   41.8925 H   0  0  0  0  0  0  0  0  0  0  0  0
   19.9476  -24.6415   40.4717 H   0  0  0  0  0  0  0  0  0  0  0  0
   18.1536  -24.7317   40.4717 H   0  0  0  0  0  0  0  0  0  0  0  0
   17.3533  -26.2946   39.0043 H   0  0  0  0  0  0  0  0  0  0  0  0
   17.4146  -28.5407   37.9512 H   0  0  0  0  0  0  0  0  0  0  0  0
   18.1561  -33.5562   40.6178 H   0  0  0  0  0  0  0  0  0  0  0  0
   18.0815  -35.9335   39.8568 H   0  0  0  0  0  0  0  0  0  0  0  0
   18.7245  -36.5174   37.5163 H   0  0  0  0  0  0  0  0  0  0  0  0
   19.6080  -34.2160   35.0300 H   0  0  0  0  0  0  0  0  0  0  0  0
   19.4710  -28.9050   36.0900 H   0  0  0  0  0  0  0  0  0  0  0  0
   21.0163  -29.4769   40.1326 H   0  0  0  0  0  0  0  0  0  0  0  0
  1  2  1  0
  2  3  2  0
  3  4  1  0
  4  5  2  0
  5  6  1  0
  6  7  1  0
  7  8  1  0
  8  9  2  0
  9 10  1  0
 10 11  2  0
 11 12  1  0
 12 13  1  0
 12 14  2  0
 14 15  1  0
 15 16  2  0
 15 17  1  0
 17 18  1  0
  5 19  1  0
 19 20  2  0
 20 21  1  0
 21 22  1  0
 21 23  1  0
 21 24  1  0
 20  2  1  0
 17  6  2  0
 14  8  1  0
  1 25  1  0
  1 26  1  0
  1 27  1  0
  3 28  1  0
  4 29  1  0
  9 30  1  0
 10 31  1  0
 11 32  1  0
 13 33  1  0
 18 34  1  0
 19 35  1  0
M  END
>  <meeko>  (2) 
{"is_sidechain": [false], "free_energy": -8.07, "intermolecular_energy": -9.424, "internal_energy": -0.377}

$$$$
cand_011_out
     RDKit          3D

 35 37  0  0  0  0  0  0  0  0999 V2000
   19.8290  -33.3120   35.3890 C   0  0  0  0  0  0  0  0  0  0  0  0
   19.6980  -32.0980   36.2690 C   0  0  0  0  0  0  0  0  0  0  0  0
   19.2930  -32.2610   37.6020 C   0  0  0  0  0  0  0  0  0  0  0  0
   19.1640  -31.1580   38.4500 C   0  0  0  0  0  0  0  0  0  0  0  0
   19.4330  -29.8650   37.9910 C   0  0  0  0  0  0  0  0  0  0  0  0
   19.3070  -28.7150   38.9120 C   0  0  0  0  0  0  0  0  0  0  0  0
   20.2220  -28.7580   39.9580 O   0  0  0  0  0  0  0  0  0  0  0  0
   20.2120  -27.7490   40.8880 C   0  0  0  0  0  0  0  0  0  0  0  0
   21.1560  -27.8230   41.9130 C   0  0  0  0  0  0  0  0  0  0  0  0
   21.2010  -26.8290   42.8920 C   0  0  0  0  0  0  0  0  0  0  0  0
   20.3010  -25.7610   42.8470 C   0  0  0  0  0  0  0  0  0  0  0  0
   19.3600  -25.6890   41.8230 C   0  0  0  0  0  0  0  0  0  0  0  0
   18.5100  -24.6180   41.8400 O   0  0  0  0  0  0  0  0  0  0  0  0
   19.3170  -26.6840   40.8420 C   0  0  0  0  0  0  0  0  0  0  0  0
   18.3440  -26.6470   39.7490 C   0  0  0  0  0  0  0  0  0  0  0  0
   17.5150  -25.7450   39.6450 O   0  0  0  0  0  0  0  0  0  0  0  0
   18.3870  -27.7450   38.7570 C   0  0  0  0  0  0  0  0  0  0  0  0
   17.4570  -27.7100   37.7350 O   0  0  0  0  0  0  0  0  0  0  0  0
   19.8540  -29.7040   36.6630 C   0  0  0  0  0  0  0  0  0  0  0  0
   19.9910  -30.8030   35.7900 C   0  0  0  0  0  0  0  0  0  0  0  0
   20.4410  -30.5660   34.3650 C   0  0  0  0  0  0  0  0  0  0  0  0
   21.5940  -31.2260   34.0630 F   0  0  0  0  0  0  0  0  0  0  0  0
   19.5340  -30.9650   33.4290 F   0  0  0  0  0  0  0  0  0  0  0  0
   20.6820  -29.2510   34.1000 F   0  0  0  0  0  0  0  0  0  0  0  0
   19.9260  -34.2106   36.0160 H   0  0  0  0  0  0  0  0  0  0  0  0
   18.9354  -33.4027   34.7539 H   0  0  0  0  0  0  0  0  0  0  0  0
   20.7213  -33.2100   34.7539 H   0  0  0  0  0  0  0  0  0  0  0  0
   19.0744  -33.2690   37.9843 H   0  0  0  0  0  0  0  0  0  0  0  0
   18.8467  -31.3089   39.4924 H   0  0  0  0  0  0  0  0  0  0  0  0
   21.8641  -28.6640   41.9495 H   0  0  0  0  0  0  0  0  0  0  0  0
   21.9456  -26.8865   43.6996 H   0  0  0  0  0  0  0  0  0  0  0  0
   20.3358  -24.9784   43.6192 H   0  0  0  0  0  0  0  0  0  0  0  0
   18.3080  -24.1930   42.6500 H   0  0  0  0  0  0  0  0  0  0  0  0
   17.7030  -27.9700   36.8690 H   0  0  0  0  0  0  0  0  0  0  0  0
   20.0834  -28.6940   36.2926 H   0  0  0  0  0  0  0  0  0  0  0  0
  1  2  1  0
  2  3  2  0
  3  4  1  0
  4  5  2  0
  5  6  1  0
  6  7  1  0
  7  8  1  0
  8  9  2  0
  9 10  1  0
 10 11  2  0
 11 12  1  0
 12 13  1  0
 12 14  2  0
 14 15  1  0
 15 16  2  0
 15 17  1  0
 17 18  1  0
  5 19  1  0
 19 20  2  0
 20 21  1  0
 21 22  1  0
 21 23  1  0
 21 24  1  0
 20  2  1  0
 17  6  2  0
 14  8  1  0
  1 25  1  0
  1 26  1  0
  1 27  1  0
  3 28  1  0
  4 29  1  0
  9 30  1  0
 10 31  1  0
 11 32  1  0
 13 33  1  0
 18 34  1  0
 19 35  1  0
M  END
>  <meeko>  (3) 
{"is_sidechain": [false], "free_energy": -8.008, "intermolecular_energy": -9.364, "internal_energy": -0.364}

$$$$
cand_011_out
     RDKit          3D

 35 37  0  0  0  0  0  0  0  0999 V2000
   19.7310  -24.6930   40.4480 C   0  0  0  0  0  0  0  0  0  0  0  0
   19.6580  -26.0630   39.8270 C   0  0  0  0  0  0  0  0  0  0  0  0
   20.0280  -27.1800   40.5900 C   0  0  0  0  0  0  0  0  0  0  0  0
   19.9690  -28.4660   40.0500 C   0  0  0  0  0  0  0  0  0  0  0  0
   19.5420  -28.6730   38.7340 C   0  0  0  0  0  0  0  0  0  0  0  0
   19.4700  -30.0450   38.1900 C   0  0  0  0  0  0  0  0  0  0  0  0
   19.0900  -30.9850   39.1400 O   0  0  0  0  0  0  0  0  0  0  0  0
   18.9850  -32.3010   38.7660 C   0  0  0  0  0  0  0  0  0  0  0  0
   18.5870  -33.2090   39.7480 C   0  0  0  0  0  0  0  0  0  0  0  0
   18.4610  -34.5640   39.4340 C   0  0  0  0  0  0  0  0  0  0  0  0
   18.7340  -35.0100   38.1380 C   0  0  0  0  0  0  0  0  0  0  0  0
   19.1310  -34.1020   37.1610 C   0  0  0  0  0  0  0  0  0  0  0  0
   19.3830  -34.6070   35.9150 O   0  0  0  0  0  0  0  0  0  0  0  0
   19.2560  -32.7460   37.4750 C   0  0  0  0  0  0  0  0  0  0  0  0
   19.6710  -31.7590   36.4780 C   0  0  0  0  0  0  0  0  0  0  0  0
   19.9360  -32.0740   35.3190 O   0  0  0  0  0  0  0  0  0  0  0  0
   19.7640  -30.3460   36.9110 C   0  0  0  0  0  0  0  0  0  0  0  0
   20.1690  -29.4210   35.9670 O   0  0  0  0  0  0  0  0  0  0  0  0
   19.1550  -27.5570   37.9760 C   0  0  0  0  0  0  0  0  0  0  0  0
   19.2070  -26.2500   38.5030 C   0  0  0  0  0  0  0  0  0  0  0  0
   18.7850  -25.0850   37.6350 C   0  0  0  0  0  0  0  0  0  0  0  0
   17.6520  -24.4770   38.0870 F   0  0  0  0  0  0  0  0  0  0  0  0
   19.7210  -24.0980   37.5470 F   0  0  0  0  0  0  0  0  0  0  0  0
   18.5240  -25.4530   36.3480 F   0  0  0  0  0  0  0  0  0  0  0  0
   19.7260  -24.7865   41.5440 H   0  0  0  0  0  0  0  0  0  0  0  0
   20.6570  -24.1937   40.1268 H   0  0  0  0  0  0  0  0  0  0  0  0
   18.8633  -24.0981   40.1268 H   0  0  0  0  0  0  0  0  0  0  0  0
   20.3689  -27.0411   41.6266 H   0  0  0  0  0  0  0  0  0  0  0  0
   20.2621  -29.3279   40.6674 H   0  0  0  0  0  0  0  0  0  0  0  0
   18.3728  -32.8579   40.7682 H   0  0  0  0  0  0  0  0  0  0  0  0
   18.1467  -35.2805   40.2072 H   0  0  0  0  0  0  0  0  0  0  0  0
   18.6352  -36.0772   37.8905 H   0  0  0  0  0  0  0  0  0  0  0  0
   20.1290  -34.3110   35.4320 H   0  0  0  0  0  0  0  0  0  0  0  0
   20.3010  -28.5270   36.2130 H   0  0  0  0  0  0  0  0  0  0  0  0
   18.8022  -27.7056   36.9448 H   0  0  0  0  0  0  0  0  0  0  0  0
  1  2  1  0
  2  3  2  0
  3  4  1  0
  4  5  2  0
  5  6  1  0
  6  7  1  0
  7  8  1  0
  8  9  2  0
  9 10  1  0
 10 11  2  0
 11 12  1  0
 12 13  1  0
 12 14  2  0
 14 15  1  0
 15 16  2  0
 15 17  1  0
 17 18  1  0
  5 19  1  0
 19 20  2  0
 20 21  1  0
 21 22  1  0
 21 23  1  0
 21 24  1  0
 20  2  1  0
 17  6  2  0
 14  8  1  0
  1 25  1  0
  1 26  1  0
  1 27  1  0
  3 28  1  0
  4 29  1  0
  9 30  1  0
 10 31  1  0
 11 32  1  0
 13 33  1  0
 18 34  1  0
 19 35  1  0
M  END
>  <meeko>  (4) 
{"is_sidechain": [false], "free_energy": -7.655, "intermolecular_energy": -9.273, "internal_energy": -0.041}

$$$$
cand_011_out
     RDKit          3D

 35 37  0  0  0  0  0  0  0  0999 V2000
   17.7560  -27.2530   36.6430 C   0  0  0  0  0  0  0  0  0  0  0  0
   18.6130  -27.2040   37.8800 C   0  0  0  0  0  0  0  0  0  0  0  0
   18.8960  -28.3950   38.5630 C   0  0  0  0  0  0  0  0  0  0  0  0
   19.6910  -28.3890   39.7110 C   0  0  0  0  0  0  0  0  0  0  0  0
   20.2210  -27.1950   40.2110 C   0  0  0  0  0  0  0  0  0  0  0  0
   21.0750  -27.2160   41.4170 C   0  0  0  0  0  0  0  0  0  0  0  0
   22.0510  -28.2040   41.3730 O   0  0  0  0  0  0  0  0  0  0  0  0
   22.9130  -28.3320   42.4330 C   0  0  0  0  0  0  0  0  0  0  0  0
   23.8870  -29.3270   42.3400 C   0  0  0  0  0  0  0  0  0  0  0  0
   24.7950  -29.5120   43.3850 C   0  0  0  0  0  0  0  0  0  0  0  0
   24.7280  -28.7030   44.5220 C   0  0  0  0  0  0  0  0  0  0  0  0
   23.7560  -27.7110   44.6110 C   0  0  0  0  0  0  0  0  0  0  0  0
   23.7460  -26.9560   45.7520 O   0  0  0  0  0  0  0  0  0  0  0  0
   22.8470  -27.5260   43.5650 C   0  0  0  0  0  0  0  0  0  0  0  0
   21.8100  -26.4950   43.6190 C   0  0  0  0  0  0  0  0  0  0  0  0
   21.6810  -25.7490   44.5880 O   0  0  0  0  0  0  0  0  0  0  0  0
   20.9030  -26.3750   42.4550 C   0  0  0  0  0  0  0  0  0  0  0  0
   19.9170  -25.4080   42.5190 O   0  0  0  0  0  0  0  0  0  0  0  0
   19.9520  -26.0060   39.5180 C   0  0  0  0  0  0  0  0  0  0  0  0
   19.1520  -25.9900   38.3560 C   0  0  0  0  0  0  0  0  0  0  0  0
   18.8900  -24.6740   37.6560 C   0  0  0  0  0  0  0  0  0  0  0  0
   19.7440  -23.6890   38.0540 F   0  0  0  0  0  0  0  0  0  0  0  0
   19.0110  -24.7400   36.3000 F   0  0  0  0  0  0  0  0  0  0  0  0
   17.6340  -24.1960   37.8850 F   0  0  0  0  0  0  0  0  0  0  0  0
   16.6967  -27.3136   36.9330 H   0  0  0  0  0  0  0  0  0  0  0  0
   17.9214  -26.3439   36.0461 H   0  0  0  0  0  0  0  0  0  0  0  0
   18.0239  -28.1373   36.0461 H   0  0  0  0  0  0  0  0  0  0  0  0
   18.4870  -29.3456   38.1902 H   0  0  0  0  0  0  0  0  0  0  0  0
   19.9033  -29.3359   40.2290 H   0  0  0  0  0  0  0  0  0  0  0  0
   23.9396  -29.9646   41.4452 H   0  0  0  0  0  0  0  0  0  0  0  0
   25.5637  -30.2955   43.3127 H   0  0  0  0  0  0  0  0  0  0  0  0
   25.4423  -28.8499   45.3455 H   0  0  0  0  0  0  0  0  0  0  0  0
   23.0210  -27.0100   46.3430 H   0  0  0  0  0  0  0  0  0  0  0  0
   20.0690  -24.5590   42.1530 H   0  0  0  0  0  0  0  0  0  0  0  0
   20.3756  -25.0614   39.8899 H   0  0  0  0  0  0  0  0  0  0  0  0
  1  2  1  0
  2  3  2  0
  3  4  1  0
  4  5  2  0
  5  6  1  0
  6  7  1  0
  7  8  1  0
  8  9  2  0
  9 10  1  0
 10 11  2  0
 11 12  1  0
 12 13  1  0
 12 14  2  0
 14 15  1  0
 15 16  2  0
 15 17  1  0
 17 18  1  0
  5 19  1  0
 19 20  2  0
 20 21  1  0
 21 22  1  0
 21 23  1  0
 21 24  1  0
 20  2  1  0
 17  6  2  0
 14  8  1  0
  1 25  1  0
  1 26  1  0
  1 27  1  0
  3 28  1  0
  4 29  1  0
  9 30  1  0
 10 31  1  0
 11 32  1  0
 13 33  1  0
 18 34  1  0
 19 35  1  0
M  END
>  <meeko>  (5) 
{"is_sidechain": [false], "free_energy": -7.235, "intermolecular_energy": -8.714, "internal_energy": -0.106}

$$$$
cand_011_out
     RDKit          3D

 35 37  0  0  0  0  0  0  0  0999 V2000
   19.2640  -25.6500   41.3060 C   0  0  0  0  0  0  0  0  0  0  0  0
   19.3260  -26.9130   40.4900 C   0  0  0  0  0  0  0  0  0  0  0  0
   18.3050  -27.1820   39.5670 C   0  0  0  0  0  0  0  0  0  0  0  0
   18.3300  -28.3410   38.7890 C   0  0  0  0  0  0  0  0  0  0  0  0
   19.3730  -29.2650   38.9120 C   0  0  0  0  0  0  0  0  0  0  0  0
   19.3880  -30.4760   38.0650 C   0  0  0  0  0  0  0  0  0  0  0  0
   19.9260  -30.2470   36.8040 O   0  0  0  0  0  0  0  0  0  0  0  0
   19.9980  -31.2900   35.9150 C   0  0  0  0  0  0  0  0  0  0  0  0
   20.5570  -31.0200   34.6650 C   0  0  0  0  0  0  0  0  0  0  0  0
   20.6610  -32.0370   33.7140 C   0  0  0  0  0  0  0  0  0  0  0  0
   20.2040  -33.3230   34.0120 C   0  0  0  0  0  0  0  0  0  0  0  0
   19.6470  -33.5900   35.2590 C   0  0  0  0  0  0  0  0  0  0  0  0
   19.2190  -34.8700   35.4830 O   0  0  0  0  0  0  0  0  0  0  0  0
   19.5440  -32.5720   36.2120 C   0  0  0  0  0  0  0  0  0  0  0  0
   18.9650  -32.8100   37.5340 C   0  0  0  0  0  0  0  0  0  0  0  0
   18.5340  -33.9120   37.8690 O   0  0  0  0  0  0  0  0  0  0  0  0
   18.9100  -31.6670   38.4730 C   0  0  0  0  0  0  0  0  0  0  0  0
   18.3500  -31.8960   39.7160 O   0  0  0  0  0  0  0  0  0  0  0  0
   20.4030  -28.9890   39.8230 C   0  0  0  0  0  0  0  0  0  0  0  0
   20.3970  -27.8240   40.6180 C   0  0  0  0  0  0  0  0  0  0  0  0
   21.5320  -27.5840   41.5890 C   0  0  0  0  0  0  0  0  0  0  0  0
   22.2770  -26.4900   41.2640 F   0  0  0  0  0  0  0  0  0  0  0  0
   21.1230  -27.3810   42.8730 F   0  0  0  0  0  0  0  0  0  0  0  0
   22.4060  -28.6280   41.6470 F   0  0  0  0  0  0  0  0  0  0  0  0
   19.2765  -25.9039   42.3762 H   0  0  0  0  0  0  0  0  0  0  0  0
   20.1322  -25.0174   41.0691 H   0  0  0  0  0  0  0  0  0  0  0  0
   18.3380  -25.1055   41.0691 H   0  0  0  0  0  0  0  0  0  0  0  0
   17.4736  -26.4706   39.4545 H   0  0  0  0  0  0  0  0  0  0  0  0
   17.5191  -28.5300   38.0701 H   0  0  0  0  0  0  0  0  0  0  0  0
   20.9153  -30.0070   34.4293 H   0  0  0  0  0  0  0  0  0  0  0  0
   21.1032  -31.8254   32.7293 H   0  0  0  0  0  0  0  0  0  0  0  0
   20.2843  -34.1236   33.2619 H   0  0  0  0  0  0  0  0  0  0  0  0
   19.8250  -35.5820   35.4270 H   0  0  0  0  0  0  0  0  0  0  0  0
   18.0670  -32.7580   39.9500 H   0  0  0  0  0  0  0  0  0  0  0  0
   21.2371  -29.6995   39.9200 H   0  0  0  0  0  0  0  0  0  0  0  0
  1  2  1  0
  2  3  2  0
  3  4  1  0
  4  5  2  0
  5  6  1  0
  6  7  1  0
  7  8  1  0
  8  9  2  0
  9 10  1  0
 10 11  2  0
 11 12  1  0
 12 13  1  0
 12 14  2  0
 14 15  1  0
 15 16  2  0
 15 17  1  0
 17 18  1  0
  5 19  1  0
 19 20  2  0
 20 21  1  0
 21 22  1  0
 21 23  1  0
 21 24  1  0
 20  2  1  0
 17  6  2  0
 14  8  1  0
  1 25  1  0
  1 26  1  0
  1 27  1  0
  3 28  1  0
  4 29  1  0
  9 30  1  0
 10 31  1  0
 11 32  1  0
 13 33  1  0
 18 34  1  0
 19 35  1  0
M  END
>  <meeko>  (6) 
{"is_sidechain": [false], "free_energy": -7.147, "intermolecular_energy": -8.268, "internal_energy": -0.448}

$$$$
cand_011_out
     RDKit          3D

 35 37  0  0  0  0  0  0  0  0999 V2000
   22.7520  -26.9310   45.2990 C   0  0  0  0  0  0  0  0  0  0  0  0
   22.1210  -26.9120   43.9330 C   0  0  0  0  0  0  0  0  0  0  0  0
   21.0060  -26.0920   43.7060 C   0  0  0  0  0  0  0  0  0  0  0  0
   20.3970  -26.0450   42.4500 C   0  0  0  0  0  0  0  0  0  0  0  0
   20.8810  -26.8160   41.3880 C   0  0  0  0  0  0  0  0  0  0  0  0
   20.2310  -26.7360   40.0630 C   0  0  0  0  0  0  0  0  0  0  0  0
   20.0350  -25.4280   39.6350 O   0  0  0  0  0  0  0  0  0  0  0  0
   19.4390  -25.2120   38.4180 C   0  0  0  0  0  0  0  0  0  0  0  0
   19.2750  -23.8840   38.0200 C   0  0  0  0  0  0  0  0  0  0  0  0
   18.6750  -23.5940   36.7930 C   0  0  0  0  0  0  0  0  0  0  0  0
   18.2380  -24.6310   35.9650 C   0  0  0  0  0  0  0  0  0  0  0  0
   18.4040  -25.9540   36.3640 C   0  0  0  0  0  0  0  0  0  0  0  0
   17.9520  -26.9190   35.5060 O   0  0  0  0  0  0  0  0  0  0  0  0
   19.0050  -26.2440   37.5920 C   0  0  0  0  0  0  0  0  0  0  0  0
   19.1970  -27.6210   38.0490 C   0  0  0  0  0  0  0  0  0  0  0  0
   18.8330  -28.5870   37.3820 O   0  0  0  0  0  0  0  0  0  0  0  0
   19.8530  -27.8210   39.3620 C   0  0  0  0  0  0  0  0  0  0  0  0
   20.0190  -29.1230   39.7930 O   0  0  0  0  0  0  0  0  0  0  0  0
   22.0060  -27.6230   41.6110 C   0  0  0  0  0  0  0  0  0  0  0  0
   22.6370  -27.6850   42.8710 C   0  0  0  0  0  0  0  0  0  0  0  0
   23.8420  -28.5810   43.0520 C   0  0  0  0  0  0  0  0  0  0  0  0
   24.9700  -27.8840   43.3700 F   0  0  0  0  0  0  0  0  0  0  0  0
   23.6940  -29.5090   44.0400 F   0  0  0  0  0  0  0  0  0  0  0  0
   24.1450  -29.2920   41.9290 F   0  0  0  0  0  0  0  0  0  0  0  0
   21.9648  -26.9073   46.0669 H   0  0  0  0  0  0  0  0  0  0  0  0
   23.3492  -27.8475   45.4143 H   0  0  0  0  0  0  0  0  0  0  0  0
   23.4033  -26.0521   45.4143 H   0  0  0  0  0  0  0  0  0  0  0  0
   20.6064  -25.4786   44.5270 H   0  0  0  0  0  0  0  0  0  0  0  0
   19.5250  -25.3929   42.2938 H   0  0  0  0  0  0  0  0  0  0  0  0
   19.6180  -23.0672   38.6721 H   0  0  0  0  0  0  0  0  0  0  0  0
   18.5462  -22.5480   36.4780 H   0  0  0  0  0  0  0  0  0  0  0  0
   17.7635  -24.4022   34.9993 H   0  0  0  0  0  0  0  0  0  0  0  0
   17.9810  -27.8210   35.7580 H   0  0  0  0  0  0  0  0  0  0  0  0
   19.2840  -29.6080   40.1150 H   0  0  0  0  0  0  0  0  0  0  0  0
   22.4070  -28.2236   40.7813 H   0  0  0  0  0  0  0  0  0  0  0  0
  1  2  1  0
  2  3  2  0
  3  4  1  0
  4  5  2  0
  5  6  1  0
  6  7  1  0
  7  8  1  0
  8  9  2  0
  9 10  1  0
 10 11  2  0
 11 12  1  0
 12 13  1  0
 12 14  2  0
 14 15  1  0
 15 16  2  0
 15 17  1  0
 17 18  1  0
  5 19  1  0
 19 20  2  0
 20 21  1  0
 21 22  1  0
 21 23  1  0
 21 24  1  0
 20  2  1  0
 17  6  2  0
 14  8  1  0
  1 25  1  0
  1 26  1  0
  1 27  1  0
  3 28  1  0
  4 29  1  0
  9 30  1  0
 10 31  1  0
 11 32  1  0
 13 33  1  0
 18 34  1  0
 19 35  1  0
M  END
>  <meeko>  (7) 
{"is_sidechain": [false], "free_energy": -7.098, "intermolecular_energy": -8.451, "internal_energy": -0.208}

$$$$
cand_011_out
     RDKit          3D

 35 37  0  0  0  0  0  0  0  0999 V2000
   20.9000  -21.5850   49.8500 C   0  0  0  0  0  0  0  0  0  0  0  0
   21.0690  -22.4790   48.6500 C   0  0  0  0  0  0  0  0  0  0  0  0
   20.6550  -23.8160   48.7300 C   0  0  0  0  0  0  0  0  0  0  0  0
   20.7920  -24.6740   47.6370 C   0  0  0  0  0  0  0  0  0  0  0  0
   21.3480  -24.2220   46.4360 C   0  0  0  0  0  0  0  0  0  0  0  0
   21.4650  -25.1430   45.2850 C   0  0  0  0  0  0  0  0  0  0  0  0
   22.6010  -25.9410   45.3450 O   0  0  0  0  0  0  0  0  0  0  0  0
   22.8320  -26.8420   44.3360 C   0  0  0  0  0  0  0  0  0  0  0  0
   23.9760  -27.6340   44.4430 C   0  0  0  0  0  0  0  0  0  0  0  0
   24.2710  -28.5710   43.4500 C   0  0  0  0  0  0  0  0  0  0  0  0
   23.4210  -28.7150   42.3500 C   0  0  0  0  0  0  0  0  0  0  0  0
   22.2800  -27.9240   42.2470 C   0  0  0  0  0  0  0  0  0  0  0  0
   21.4940  -28.1160   41.1440 O   0  0  0  0  0  0  0  0  0  0  0  0
   21.9860  -26.9870   43.2410 C   0  0  0  0  0  0  0  0  0  0  0  0
   20.7970  -26.1360   43.1700 C   0  0  0  0  0  0  0  0  0  0  0  0
   20.0060  -26.1980   42.2310 O   0  0  0  0  0  0  0  0  0  0  0  0
   20.5710  -25.1820   44.2790 C   0  0  0  0  0  0  0  0  0  0  0  0
   19.4540  -24.3720   44.1990 O   0  0  0  0  0  0  0  0  0  0  0  0
   21.7470  -22.8800   46.3500 C   0  0  0  0  0  0  0  0  0  0  0  0
   21.6170  -21.9970   47.4420 C   0  0  0  0  0  0  0  0  0  0  0  0
   22.0730  -20.5620   47.2920 C   0  0  0  0  0  0  0  0  0  0  0  0
   22.2950  -20.2160   45.9930 F   0  0  0  0  0  0  0  0  0  0  0  0
   21.1790  -19.6490   47.7680 F   0  0  0  0  0  0  0  0  0  0  0  0
   23.2380  -20.3070   47.9530 F   0  0  0  0  0  0  0  0  0  0  0  0
   21.0124  -22.1794   50.7688 H   0  0  0  0  0  0  0  0  0  0  0  0
   21.6646  -20.7945   49.8289 H   0  0  0  0  0  0  0  0  0  0  0  0
   19.8996  -21.1281   49.8289 H   0  0  0  0  0  0  0  0  0  0  0  0
   20.2168  -24.1938   49.6655 H   0  0  0  0  0  0  0  0  0  0  0  0
   20.4584  -25.7188   47.7216 H   0  0  0  0  0  0  0  0  0  0  0  0
   24.6450  -27.5205   45.3088 H   0  0  0  0  0  0  0  0  0  0  0  0
   25.1725  -29.1957   43.5338 H   0  0  0  0  0  0  0  0  0  0  0  0
   23.6531  -29.4520   41.5670 H   0  0  0  0  0  0  0  0  0  0  0  0
   21.8500  -27.9890   40.2870 H   0  0  0  0  0  0  0  0  0  0  0  0
   18.6330  -24.7330   43.9270 H   0  0  0  0  0  0  0  0  0  0  0  0
   22.1722  -22.5067   45.4067 H   0  0  0  0  0  0  0  0  0  0  0  0
  1  2  1  0
  2  3  2  0
  3  4  1  0
  4  5  2  0
  5  6  1  0
  6  7  1  0
  7  8  1  0
  8  9  2  0
  9 10  1  0
 10 11  2  0
 11 12  1  0
 12 13  1  0
 12 14  2  0
 14 15  1  0
 15 16  2  0
 15 17  1  0
 17 18  1  0
  5 19  1  0
 19 20  2  0
 20 21  1  0
 21 22  1  0
 21 23  1  0
 21 24  1  0
 20  2  1  0
 17  6  2  0
 14  8  1  0
  1 25  1  0
  1 26  1  0
  1 27  1  0
  3 28  1  0
  4 29  1  0
  9 30  1  0
 10 31  1  0
 11 32  1  0
 13 33  1  0
 18 34  1  0
 19 35  1  0
M  END
>  <meeko>  (8) 
{"is_sidechain": [false], "free_energy": -6.954, "intermolecular_energy": -8.103, "internal_energy": -0.386}

$$$$
cand_011_out
     RDKit          3D

 35 37  0  0  0  0  0  0  0  0999 V2000
   18.9880  -22.8330   47.5280 C   0  0  0  0  0  0  0  0  0  0  0  0
   19.1940  -23.3760   46.1390 C   0  0  0  0  0  0  0  0  0  0  0  0
   18.2780  -23.0420   45.1310 C   0  0  0  0  0  0  0  0  0  0  0  0
   18.4390  -23.5230   43.8300 C   0  0  0  0  0  0  0  0  0  0  0  0
   19.5150  -24.3520   43.5000 C   0  0  0  0  0  0  0  0  0  0  0  0
   19.6750  -24.8340   42.1120 C   0  0  0  0  0  0  0  0  0  0  0  0
   19.2560  -23.9070   41.1650 O   0  0  0  0  0  0  0  0  0  0  0  0
   19.3500  -24.2300   39.8350 C   0  0  0  0  0  0  0  0  0  0  0  0
   18.9320  -23.2640   38.9180 C   0  0  0  0  0  0  0  0  0  0  0  0
   19.0000  -23.5290   37.5480 C   0  0  0  0  0  0  0  0  0  0  0  0
   19.4860  -24.7580   37.0960 C   0  0  0  0  0  0  0  0  0  0  0  0
   19.9020  -25.7190   38.0130 C   0  0  0  0  0  0  0  0  0  0  0  0
   20.3650  -26.9010   37.5020 O   0  0  0  0  0  0  0  0  0  0  0  0
   19.8350  -25.4540   39.3840 C   0  0  0  0  0  0  0  0  0  0  0  0
   20.2620  -26.4370   40.3810 C   0  0  0  0  0  0  0  0  0  0  0  0
   20.6930  -27.5430   40.0630 O   0  0  0  0  0  0  0  0  0  0  0  0
   20.1580  -26.0540   41.8070 C   0  0  0  0  0  0  0  0  0  0  0  0
   20.5510  -26.9920   42.7430 O   0  0  0  0  0  0  0  0  0  0  0  0
   20.4410  -24.6730   44.5040 C   0  0  0  0  0  0  0  0  0  0  0  0
   20.2970  -24.1970   45.8240 C   0  0  0  0  0  0  0  0  0  0  0  0
   21.3240  -24.5840   46.8660 C   0  0  0  0  0  0  0  0  0  0  0  0
   22.3040  -25.3860   46.3630 F   0  0  0  0  0  0  0  0  0  0  0  0
   21.9710  -23.5190   47.4210 F   0  0  0  0  0  0  0  0  0  0  0  0
   20.7820  -25.2660   47.9130 F   0  0  0  0  0  0  0  0  0  0  0  0
   19.2772  -23.5954   48.2663 H   0  0  0  0  0  0  0  0  0  0  0  0
   19.6079  -21.9349   47.6663 H   0  0  0  0  0  0  0  0  0  0  0  0
   17.9284  -22.5720   47.6663 H   0  0  0  0  0  0  0  0  0  0  0  0
   17.4221  -22.3931   45.3682 H   0  0  0  0  0  0  0  0  0  0  0  0
   17.7095  -23.2459   43.0547 H   0  0  0  0  0  0  0  0  0  0  0  0
   18.5497  -22.2958   39.2735 H   0  0  0  0  0  0  0  0  0  0  0  0
   18.6704  -22.7689   36.8244 H   0  0  0  0  0  0  0  0  0  0  0  0
   19.5399  -24.9661   36.0172 H   0  0  0  0  0  0  0  0  0  0  0  0
   21.1370  -26.9110   36.9720 H   0  0  0  0  0  0  0  0  0  0  0  0
   21.0550  -26.7270   43.4880 H   0  0  0  0  0  0  0  0  0  0  0  0
   21.3011  -25.3121   44.2555 H   0  0  0  0  0  0  0  0  0  0  0  0
  1  2  1  0
  2  3  2  0
  3  4  1  0
  4  5  2  0
  5  6  1  0
  6  7  1  0
  7  8  1  0
  8  9  2  0
  9 10  1  0
 10 11  2  0
 11 12  1  0
 12 13  1  0
 12 14  2  0
 14 15  1  0
 15 16  2  0
 15 17  1  0
 17 18  1  0
  5 19  1  0
 19 20  2  0
 20 21  1  0
 21 22  1  0
 21 23  1  0
 21 24  1  0
 20  2  1  0
 17  6  2  0
 14  8  1  0
  1 25  1  0
  1 26  1  0
  1 27  1  0
  3 28  1  0
  4 29  1  0
  9 30  1  0
 10 31  1  0
 11 32  1  0
 13 33  1  0
 18 34  1  0
 19 35  1  0
M  END
>  <meeko>  (9) 
{"is_sidechain": [false], "free_energy": -6.81, "intermolecular_energy": -8.28, "internal_energy": -0.04}

$$$$
