cand_039_out
     RDKit          3D

 41 43  0  0  0  0  0  0  0  0999 V2000
   19.3090  -23.7920   39.8210 C   0  0  0  0  0  0  0  0  0  0  0  0
   18.9990  -24.8550   40.8660 C   0  0  0  0  0  0  0  0  0  0  0  0
   19.1150  -26.2520   40.3020 C   0  0  0  0  0  0  0  0  0  0  0  0
   18.3630  -26.5660   39.1570 C   0  0  0  0  0  0  0  0  0  0  0  0
   18.4270  -27.8350   38.5770 C   0  0  0  0  0  0  0  0  0  0  0  0
   19.2410  -28.8310   39.1250 C   0  0  0  0  0  0  0  0  0  0  0  0
   19.3120  -30.1620   38.4850 C   0  0  0  0  0  0  0  0  0  0  0  0
   18.9160  -31.1900   39.3320 O   0  0  0  0  0  0  0  0  0  0  0  0
   18.9340  -32.4790   38.8650 C   0  0  0  0  0  0  0  0  0  0  0  0
   18.5140  -33.4780   39.7430 C   0  0  0  0  0  0  0  0  0  0  0  0
   18.5100  -34.8130   39.3300 C   0  0  0  0  0  0  0  0  0  0  0  0
   18.9260  -35.1470   38.0400 C   0  0  0  0  0  0  0  0  0  0  0  0
   19.3440  -34.1490   37.1650 C   0  0  0  0  0  0  0  0  0  0  0  0
   19.7380  -34.5460   35.9170 O   0  0  0  0  0  0  0  0  0  0  0  0
   19.3470  -32.8130   37.5780 C   0  0  0  0  0  0  0  0  0  0  0  0
   19.7800  -31.7330   36.6910 C   0  0  0  0  0  0  0  0  0  0  0  0
   20.1660  -31.9490   35.5440 O   0  0  0  0  0  0  0  0  0  0  0  0
   19.7380  -30.3510   37.2220 C   0  0  0  0  0  0  0  0  0  0  0  0
   20.1610  -29.3400   36.3800 O   0  0  0  0  0  0  0  0  0  0  0  0
   20.0050  -28.5130   40.2570 C   0  0  0  0  0  0  0  0  0  0  0  0
   19.9590  -27.2360   40.8530 C   0  0  0  0  0  0  0  0  0  0  0  0
   20.8030  -27.0010   42.0860 C   0  0  0  0  0  0  0  0  0  0  0  0
   22.1830  -27.6300   41.9580 C   0  0  0  0  0  0  0  0  0  0  0  0
   19.5829  -22.8527   40.3236 H   0  0  0  0  0  0  0  0  0  0  0  0
   20.1462  -24.1291   39.1922 H   0  0  0  0  0  0  0  0  0  0  0  0
   18.4218  -23.6262   39.1922 H   0  0  0  0  0  0  0  0  0  0  0  0
   19.7067  -24.7491   41.7014 H   0  0  0  0  0  0  0  0  0  0  0  0
   17.9621  -24.7089   41.2029 H   0  0  0  0  0  0  0  0  0  0  0  0
   17.7130  -25.7994   38.7100 H   0  0  0  0  0  0  0  0  0  0  0  0
   17.8303  -28.0533   37.6790 H   0  0  0  0  0  0  0  0  0  0  0  0
   18.1862  -33.2153   40.7596 H   0  0  0  0  0  0  0  0  0  0  0  0
   18.1788  -35.6013   40.0220 H   0  0  0  0  0  0  0  0  0  0  0  0
   18.9234  -36.1980   37.7155 H   0  0  0  0  0  0  0  0  0  0  0  0
   20.4790  -35.1110   35.8180 H   0  0  0  0  0  0  0  0  0  0  0  0
   19.9300  -28.4510   36.5620 H   0  0  0  0  0  0  0  0  0  0  0  0
   20.6594  -29.2823   40.6928 H   0  0  0  0  0  0  0  0  0  0  0  0
   20.9187  -25.9175   42.2365 H   0  0  0  0  0  0  0  0  0  0  0  0
   20.2936  -27.4683   42.9417 H   0  0  0  0  0  0  0  0  0  0  0  0
   22.5948  -27.8177   42.9606 H   0  0  0  0  0  0  0  0  0  0  0  0
   22.1033  -28.5807   41.4105 H   0  0  0  0  0  0  0  0  0  0  0  0
   22.8483  -26.9462   41.4105 H   0  0  0  0  0  0  0  0  0  0  0  0
  1  2  1  0
  2  3  1  0
  3  4  2  0
  4  5  1  0
  5  6  2  0
  6  7  1  0
  7  8  1  0
  8  9  1  0
  9 10  2  0
 10 11  1  0
 11 12  2  0
 12 13  1  0
 13 14  1  0
 13 15  2  0
 15 16  1  0
 16 17  2  0
 16 18  1  0
 18 19  1  0
  6 20  1  0
 20 21  2  0
 21 22  1  0
 22 23  1  0
 21  3  1  0
 18  7  2  0
 15  9  1  0
  1 24  1  0
  1 25  1  0
  1 26  1  0
  2 27  1  0
  2 28  1  0
  4 29  1  0
  5 30  1  0
 10 31  1  0
 11 32  1  0
 12 33  1  0
 14 34  1  0
 19 35  1  0
 20 36  1  0
 22 37  1  0
 22 38  1  0
 23 39  1  0
 23 40  1  0
 23 41  1  0
M  END
>  <meeko>  (1) 
{"is_sidechain": [false], "free_energy": -7.95, "intermolecular_energy": -9.809, "internal_energy": -0.477}

$$$$
cand_039_out
     RDKit          3D

 41 43  0  0  0  0  0  0  0  0999 V2000
   20.0740  -32.8200   33.9240 C   0  0  0  0  0  0  0  0  0  0  0  0
   19.8350  -33.3170   35.3430 C   0  0  0  0  0  0  0  0  0  0  0  0
   19.6900  -32.1770   36.3240 C   0  0  0  0  0  0  0  0  0  0  0  0
   19.9470  -30.8730   35.8640 C   0  0  0  0  0  0  0  0  0  0  0  0
   19.8250  -29.7710   36.7130 C   0  0  0  0  0  0  0  0  0  0  0  0
   19.4470  -29.9370   38.0480 C   0  0  0  0  0  0  0  0  0  0  0  0
   19.3030  -28.7560   38.9270 C   0  0  0  0  0  0  0  0  0  0  0  0
   20.1960  -28.7630   39.9920 O   0  0  0  0  0  0  0  0  0  0  0  0
   20.1700  -27.7240   40.8870 C   0  0  0  0  0  0  0  0  0  0  0  0
   21.0940  -27.7640   41.9310 C   0  0  0  0  0  0  0  0  0  0  0  0
   21.1200  -26.7370   42.8780 C   0  0  0  0  0  0  0  0  0  0  0  0
   20.2220  -25.6730   42.7810 C   0  0  0  0  0  0  0  0  0  0  0  0
   19.3010  -25.6350   41.7380 C   0  0  0  0  0  0  0  0  0  0  0  0
   18.4510  -24.5650   41.7010 O   0  0  0  0  0  0  0  0  0  0  0  0
   19.2760  -26.6620   40.7890 C   0  0  0  0  0  0  0  0  0  0  0  0
   18.3240  -26.6620   39.6770 C   0  0  0  0  0  0  0  0  0  0  0  0
   17.4990  -25.7630   39.5280 O   0  0  0  0  0  0  0  0  0  0  0  0
   18.3860  -27.7920   38.7220 C   0  0  0  0  0  0  0  0  0  0  0  0
   17.4730  -27.7880   37.6840 O   0  0  0  0  0  0  0  0  0  0  0  0
   19.1730  -31.2340   38.5030 C   0  0  0  0  0  0  0  0  0  0  0  0
   19.2850  -32.3590   37.6600 C   0  0  0  0  0  0  0  0  0  0  0  0
   18.9910  -33.7190   38.2540 C   0  0  0  0  0  0  0  0  0  0  0  0
   18.6200  -33.6270   39.7270 C   0  0  0  0  0  0  0  0  0  0  0  0
   20.5505  -31.8291   33.9579 H   0  0  0  0  0  0  0  0  0  0  0  0
   20.7315  -33.5251   33.3944 H   0  0  0  0  0  0  0  0  0  0  0  0
   19.1127  -32.7466   33.3944 H   0  0  0  0  0  0  0  0  0  0  0  0
   18.9141  -33.9184   35.3585 H   0  0  0  0  0  0  0  0  0  0  0  0
   20.7064  -33.9167   35.6447 H   0  0  0  0  0  0  0  0  0  0  0  0
   20.2492  -30.7185   34.8177 H   0  0  0  0  0  0  0  0  0  0  0  0
   20.0287  -28.7614   36.3267 H   0  0  0  0  0  0  0  0  0  0  0  0
   21.8013  -28.6029   42.0087 H   0  0  0  0  0  0  0  0  0  0  0  0
   21.8492  -26.7671   43.7011 H   0  0  0  0  0  0  0  0  0  0  0  0
   20.2420  -24.8656   43.5277 H   0  0  0  0  0  0  0  0  0  0  0  0
   17.5240  -24.7020   41.7030 H   0  0  0  0  0  0  0  0  0  0  0  0
   17.7100  -27.4250   36.8530 H   0  0  0  0  0  0  0  0  0  0  0  0
   18.8615  -31.3787   39.5480 H   0  0  0  0  0  0  0  0  0  0  0  0
   18.1538  -34.1737   37.7042 H   0  0  0  0  0  0  0  0  0  0  0  0
   19.9006  -34.3317   38.1693 H   0  0  0  0  0  0  0  0  0  0  0  0
   19.5049  -33.8465   40.3424 H   0  0  0  0  0  0  0  0  0  0  0  0
   18.2596  -32.6123   39.9517 H   0  0  0  0  0  0  0  0  0  0  0  0
   17.8273  -34.3558   39.9517 H   0  0  0  0  0  0  0  0  0  0  0  0
  1  2  1  0
  2  3  1  0
  3  4  2  0
  4  5  1  0
  5  6  2  0
  6  7  1  0
  7  8  1  0
  8  9  1  0
  9 10  2  0
 10 11  1  0
 11 12  2  0
 12 13  1  0
 13 14  1  0
 13 15  2  0
 15 16  1  0
 16 17  2  0
 16 18  1  0
 18 19  1  0
  6 20  1  0
 20 21  2  0
 21 22  1  0
 22 23  1  0
 21  3  1  0
 18  7  2  0
 15  9  1  0
  1 24  1  0
  1 25  1  0
  1 26  1  0
  2 27  1  0
  2 28  1  0
  4 29  1  0
  5 30  1  0
 10 31  1  0
 11 32  1  0
 12 33  1  0
 14 34  1  0
 19 35  1  0
 20 36  1  0
 22 37  1  0
 22 38  1  0
 23 39  1  0
 23 40  1  0
 23 41  1  0
M  END
>  <meeko>  (2) 
{"is_sidechain": [false], "free_energy": -7.726, "intermolecular_energy": -9.524, "internal_energy": -0.486}

$$$$
cand_039_out
     RDKit          3D

 41 43  0  0  0  0  0  0  0  0999 V2000
   18.7510  -34.8480   36.8790 C   0  0  0  0  0  0  0  0  0  0  0  0
   19.6130  -33.7830   36.2160 C   0  0  0  0  0  0  0  0  0  0  0  0
   19.5240  -32.4560   36.9340 C   0  0  0  0  0  0  0  0  0  0  0  0
   19.0020  -32.4450   38.2390 C   0  0  0  0  0  0  0  0  0  0  0  0
   18.8970  -31.2560   38.9650 C   0  0  0  0  0  0  0  0  0  0  0  0
   19.3070  -30.0420   38.4080 C   0  0  0  0  0  0  0  0  0  0  0  0
   19.2080  -28.7960   39.1990 C   0  0  0  0  0  0  0  0  0  0  0  0
   20.1030  -28.7600   40.2620 O   0  0  0  0  0  0  0  0  0  0  0  0
   20.1180  -27.6590   41.0800 C   0  0  0  0  0  0  0  0  0  0  0  0
   21.0430  -27.6590   42.1240 C   0  0  0  0  0  0  0  0  0  0  0  0
   21.1090  -26.5680   42.9960 C   0  0  0  0  0  0  0  0  0  0  0  0
   20.2500  -25.4810   42.8220 C   0  0  0  0  0  0  0  0  0  0  0  0
   19.3280  -25.4850   41.7790 C   0  0  0  0  0  0  0  0  0  0  0  0
   18.5180  -24.3880   41.6670 O   0  0  0  0  0  0  0  0  0  0  0  0
   19.2630  -26.5750   40.9060 C   0  0  0  0  0  0  0  0  0  0  0  0
   18.3090  -26.6190   39.7980 C   0  0  0  0  0  0  0  0  0  0  0  0
   17.5170  -25.7040   39.5850 O   0  0  0  0  0  0  0  0  0  0  0  0
   18.3260  -27.8170   38.9260 C   0  0  0  0  0  0  0  0  0  0  0  0
   17.4120  -27.8530   37.8910 O   0  0  0  0  0  0  0  0  0  0  0  0
   19.8440  -30.0540   37.1130 C   0  0  0  0  0  0  0  0  0  0  0  0
   19.9640  -31.2440   36.3660 C   0  0  0  0  0  0  0  0  0  0  0  0
   20.5340  -31.1480   34.9690 C   0  0  0  0  0  0  0  0  0  0  0  0
   20.1370  -29.8480   34.2820 C   0  0  0  0  0  0  0  0  0  0  0  0
   18.8276  -34.7534   37.9723 H   0  0  0  0  0  0  0  0  0  0  0  0
   17.7031  -34.7151   36.5719 H   0  0  0  0  0  0  0  0  0  0  0  0
   19.0994  -35.8452   36.5719 H   0  0  0  0  0  0  0  0  0  0  0  0
   20.6601  -34.1199   36.2206 H   0  0  0  0  0  0  0  0  0  0  0  0
   19.2462  -33.6393   35.1890 H   0  0  0  0  0  0  0  0  0  0  0  0
   18.6705  -33.3888   38.6965 H   0  0  0  0  0  0  0  0  0  0  0  0
   18.4873  -31.2758   39.9857 H   0  0  0  0  0  0  0  0  0  0  0  0
   21.7193  -28.5157   42.2610 H   0  0  0  0  0  0  0  0  0  0  0  0
   21.8381  -26.5660   43.8196 H   0  0  0  0  0  0  0  0  0  0  0  0
   20.3018  -24.6227   43.5081 H   0  0  0  0  0  0  0  0  0  0  0  0
   17.6000  -24.4650   41.8360 H   0  0  0  0  0  0  0  0  0  0  0  0
   17.6980  -27.7210   37.0080 H   0  0  0  0  0  0  0  0  0  0  0  0
   20.1817  -29.1071   36.6664 H   0  0  0  0  0  0  0  0  0  0  0  0
   21.6312  -31.1982   35.0283 H   0  0  0  0  0  0  0  0  0  0  0  0
   20.1303  -31.9832   34.3778 H   0  0  0  0  0  0  0  0  0  0  0  0
   19.9048  -29.0876   35.0422 H   0  0  0  0  0  0  0  0  0  0  0  0
   20.9687  -29.4964   33.6538 H   0  0  0  0  0  0  0  0  0  0  0  0
   19.2508  -30.0210   33.6538 H   0  0  0  0  0  0  0  0  0  0  0  0
  1  2  1  0
  2  3  1  0
  3  4  2  0
  4  5  1  0
  5  6  2  0
  6  7  1  0
  7  8  1  0
  8  9  1  0
  9 10  2  0
 10 11  1  0
 11 12  2  0
 12 13  1  0
 13 14  1  0
 13 15  2  0
 15 16  1  0
 16 17  2  0
 16 18  1  0
 18 19  1  0
  6 20  1  0
 20 21  2  0
 21 22  1  0
 22 23  1  0
 21  3  1  0
 18  7  2  0
 15  9  1  0
  1 24  1  0
  1 25  1  0
  1 26  1  0
  2 27  1  0
  2 28  1  0
  4 29  1  0
  5 30  1  0
 10 31  1  0
 11 32  1  0
 12 33  1  0
 14 34  1  0
 19 35  1  0
 20 36  1  0
 22 37  1  0
 22 38  1  0
 23 39  1  0
 23 40  1  0
 23 41  1  0
M  END
>  <meeko>  (3) 
{"is_sidechain": [false], "free_energy": -7.615, "intermolecular_energy": -9.305, "internal_energy": -0.568}

$$$$
cand_039_out
     RDKit          3D

 41 43  0  0  0  0  0  0  0  0999 V2000
   19.6240  -25.0090   42.5750 C   0  0  0  0  0  0  0  0  0  0  0  0
   19.4150  -24.8200   41.0790 C   0  0  0  0  0  0  0  0  0  0  0  0
   19.3810  -26.1390   40.3430 C   0  0  0  0  0  0  0  0  0  0  0  0
   20.0600  -27.2310   40.9110 C   0  0  0  0  0  0  0  0  0  0  0  0
   20.0640  -28.4820   40.2900 C   0  0  0  0  0  0  0  0  0  0  0  0
   19.3930  -28.6800   39.0800 C   0  0  0  0  0  0  0  0  0  0  0  0
   19.3910  -30.0170   38.4480 C   0  0  0  0  0  0  0  0  0  0  0  0
   18.9870  -31.0240   39.3180 O   0  0  0  0  0  0  0  0  0  0  0  0
   18.9380  -32.3160   38.8600 C   0  0  0  0  0  0  0  0  0  0  0  0
   18.5120  -33.2920   39.7610 C   0  0  0  0  0  0  0  0  0  0  0  0
   18.4420  -34.6280   39.3590 C   0  0  0  0  0  0  0  0  0  0  0  0
   18.7990  -34.9870   38.0580 C   0  0  0  0  0  0  0  0  0  0  0  0
   19.2240  -34.0110   37.1610 C   0  0  0  0  0  0  0  0  0  0  0  0
   19.5580  -34.4310   35.9030 O   0  0  0  0  0  0  0  0  0  0  0  0
   19.2930  -32.6740   37.5620 C   0  0  0  0  0  0  0  0  0  0  0  0
   19.7350  -31.6170   36.6520 C   0  0  0  0  0  0  0  0  0  0  0  0
   20.0720  -31.8550   35.4940 O   0  0  0  0  0  0  0  0  0  0  0  0
   19.7640  -30.2310   37.1730 C   0  0  0  0  0  0  0  0  0  0  0  0
   20.1960  -29.2430   36.3080 O   0  0  0  0  0  0  0  0  0  0  0  0
   18.7000  -27.5970   38.5210 C   0  0  0  0  0  0  0  0  0  0  0  0
   18.6790  -26.3280   39.1360 C   0  0  0  0  0  0  0  0  0  0  0  0
   17.9230  -25.2180   38.4400 C   0  0  0  0  0  0  0  0  0  0  0  0
   18.7410  -24.5900   37.3210 C   0  0  0  0  0  0  0  0  0  0  0  0
   18.9184  -24.3709   43.1273 H   0  0  0  0  0  0  0  0  0  0  0  0
   19.4499  -26.0625   42.8393 H   0  0  0  0  0  0  0  0  0  0  0  0
   20.6547  -24.7302   42.8393 H   0  0  0  0  0  0  0  0  0  0  0  0
   18.4607  -24.2976   40.9166 H   0  0  0  0  0  0  0  0  0  0  0  0
   20.2599  -24.2338   40.6885 H   0  0  0  0  0  0  0  0  0  0  0  0
   20.5977  -27.0979   41.8614 H   0  0  0  0  0  0  0  0  0  0  0  0
   20.6009  -29.3202   40.7581 H   0  0  0  0  0  0  0  0  0  0  0  0
   18.2316  -33.0100   40.7866 H   0  0  0  0  0  0  0  0  0  0  0  0
   18.1051  -35.3982   40.0685 H   0  0  0  0  0  0  0  0  0  0  0  0
   18.7446  -36.0393   37.7422 H   0  0  0  0  0  0  0  0  0  0  0  0
   18.9130  -34.8370   35.3580 H   0  0  0  0  0  0  0  0  0  0  0  0
   21.1130  -29.1040   36.1760 H   0  0  0  0  0  0  0  0  0  0  0  0
   18.1569  -27.7412   37.5753 H   0  0  0  0  0  0  0  0  0  0  0  0
   16.9964  -25.6310   38.0146 H   0  0  0  0  0  0  0  0  0  0  0  0
   17.7042  -24.4365   39.1826 H   0  0  0  0  0  0  0  0  0  0  0  0
   19.5430  -23.9743   37.7542 H   0  0  0  0  0  0  0  0  0  0  0  0
   19.1826  -25.3833   36.7000 H   0  0  0  0  0  0  0  0  0  0  0  0
   18.0887  -23.9585   36.7000 H   0  0  0  0  0  0  0  0  0  0  0  0
  1  2  1  0
  2  3  1  0
  3  4  2  0
  4  5  1  0
  5  6  2  0
  6  7  1  0
  7  8  1  0
  8  9  1  0
  9 10  2  0
 10 11  1  0
 11 12  2  0
 12 13  1  0
 13 14  1  0
 13 15  2  0
 15 16  1  0
 16 17  2  0
 16 18  1  0
 18 19  1  0
  6 20  1  0
 20 21  2  0
 21 22  1  0
 22 23  1  0
 21  3  1  0
 18  7  2  0
 15  9  1  0
  1 24  1  0
  1 25  1  0
  1 26  1  0
  2 27  1  0
  2 28  1  0
  4 29  1  0
  5 30  1  0
 10 31  1  0
 11 32  1  0
 12 33  1  0
 14 34  1  0
 19 35  1  0
 20 36  1  0
 22 37  1  0
 22 38  1  0
 23 39  1  0
 23 40  1  0
 23 41  1  0
M  END
>  <meeko>  (4) 
{"is_sidechain": [false], "free_energy": -7.23, "intermolecular_energy": -8.96, "internal_energy": -0.439}

$$$$
cand_039_out
     RDKit          3D

 41 43  0  0  0  0  0  0  0  0999 V2000
   19.7420  -23.8330   40.9010 C   0  0  0  0  0  0  0  0  0  0  0  0
   19.0160  -25.0370   41.4830 C   0  0  0  0  0  0  0  0  0  0  0  0
   19.1930  -26.2710   40.6280 C   0  0  0  0  0  0  0  0  0  0  0  0
   18.4310  -26.3730   39.4510 C   0  0  0  0  0  0  0  0  0  0  0  0
   18.5480  -27.4810   38.6090 C   0  0  0  0  0  0  0  0  0  0  0  0
   19.4270  -28.5230   38.9180 C   0  0  0  0  0  0  0  0  0  0  0  0
   19.5540  -29.6780   38.0040 C   0  0  0  0  0  0  0  0  0  0  0  0
   19.8660  -29.3030   36.7020 O   0  0  0  0  0  0  0  0  0  0  0  0
   20.0130  -30.2780   35.7480 C   0  0  0  0  0  0  0  0  0  0  0  0
   20.3420  -29.8590   34.4590 C   0  0  0  0  0  0  0  0  0  0  0  0
   20.5040  -30.8010   33.4400 C   0  0  0  0  0  0  0  0  0  0  0  0
   20.3370  -32.1600   33.7110 C   0  0  0  0  0  0  0  0  0  0  0  0
   20.0090  -32.5760   34.9980 C   0  0  0  0  0  0  0  0  0  0  0  0
   19.8610  -33.9210   35.1940 O   0  0  0  0  0  0  0  0  0  0  0  0
   19.8480  -31.6330   36.0180 C   0  0  0  0  0  0  0  0  0  0  0  0
   19.5030  -32.0270   37.3840 C   0  0  0  0  0  0  0  0  0  0  0  0
   19.3330  -33.2040   37.6990 O   0  0  0  0  0  0  0  0  0  0  0  0
   19.3630  -30.9520   38.3930 C   0  0  0  0  0  0  0  0  0  0  0  0
   19.0240  -31.3350   39.6770 O   0  0  0  0  0  0  0  0  0  0  0  0
   20.2010  -28.4140   40.0820 C   0  0  0  0  0  0  0  0  0  0  0  0
   20.1010  -27.3010   40.9420 C   0  0  0  0  0  0  0  0  0  0  0  0
   20.9610  -27.2890   42.1860 C   0  0  0  0  0  0  0  0  0  0  0  0
   22.3950  -27.7030   41.8890 C   0  0  0  0  0  0  0  0  0  0  0  0
   20.1218  -23.2032   41.7190 H   0  0  0  0  0  0  0  0  0  0  0  0
   20.5837  -24.1765   40.2816 H   0  0  0  0  0  0  0  0  0  0  0  0
   19.0454  -23.2489   40.2816 H   0  0  0  0  0  0  0  0  0  0  0  0
   19.4145  -25.2407   42.4878 H   0  0  0  0  0  0  0  0  0  0  0  0
   17.9423  -24.8010   41.5218 H   0  0  0  0  0  0  0  0  0  0  0  0
   17.7307  -25.5663   39.1888 H   0  0  0  0  0  0  0  0  0  0  0  0
   17.9418  -27.5343   37.6926 H   0  0  0  0  0  0  0  0  0  0  0  0
   20.4738  -28.7881   34.2449 H   0  0  0  0  0  0  0  0  0  0  0  0
   20.7634  -30.4713   32.4231 H   0  0  0  0  0  0  0  0  0  0  0  0
   20.4645  -32.9013   32.9084 H   0  0  0  0  0  0  0  0  0  0  0  0
   19.2040  -34.3940   34.7220 H   0  0  0  0  0  0  0  0  0  0  0  0
   18.9540  -32.2440   39.8920 H   0  0  0  0  0  0  0  0  0  0  0  0
   20.9067  -29.2201   40.3316 H   0  0  0  0  0  0  0  0  0  0  0  0
   20.9642  -26.2724   42.6062 H   0  0  0  0  0  0  0  0  0  0  0  0
   20.5384  -28.0119   42.8994 H   0  0  0  0  0  0  0  0  0  0  0  0
   22.9350  -27.8589   42.8346 H   0  0  0  0  0  0  0  0  0  0  0  0
   22.3942  -28.6376   41.3089 H   0  0  0  0  0  0  0  0  0  0  0  0
   22.8924  -26.9118   41.3089 H   0  0  0  0  0  0  0  0  0  0  0  0
  1  2  1  0
  2  3  1  0
  3  4  2  0
  4  5  1  0
  5  6  2  0
  6  7  1  0
  7  8  1  0
  8  9  1  0
  9 10  2  0
 10 11  1  0
 11 12  2  0
 12 13  1  0
 13 14  1  0
 13 15  2  0
 15 16  1  0
 16 17  2  0
 16 18  1  0
 18 19  1  0
  6 20  1  0
 20 21  2  0
 21 22  1  0
 22 23  1  0
 21  3  1  0
 18  7  2  0
 15  9  1  0
  1 24  1  0
  1 25  1  0
  1 26  1  0
  2 27  1  0
  2 28  1  0
  4 29  1  0
  5 30  1  0
 10 31  1  0
 11 32  1  0
 12 33  1  0
 14 34  1  0
 19 35  1  0
 20 36  1  0
 22 37  1  0
 22 38  1  0
 23 39  1  0
 23 40  1  0
 23 41  1  0
M  END
>  <meeko>  (5) 
{"is_sidechain": [false], "free_energy": -7.174, "intermolecular_energy": -8.834, "internal_energy": -0.495}

$$$$
cand_039_out
     RDKit          3D

 41 43  0  0  0  0  0  0  0  0999 V2000
   18.7630  -27.5950   35.2840 C   0  0  0  0  0  0  0  0  0  0  0  0
   17.9350  -27.2160   36.5040 C   0  0  0  0  0  0  0  0  0  0  0  0
   18.7750  -27.1530   37.7590 C   0  0  0  0  0  0  0  0  0  0  0  0
   18.9360  -28.3320   38.5060 C   0  0  0  0  0  0  0  0  0  0  0  0
   19.7050  -28.3490   39.6720 C   0  0  0  0  0  0  0  0  0  0  0  0
   20.3340  -27.1880   40.1290 C   0  0  0  0  0  0  0  0  0  0  0  0
   21.1620  -27.2300   41.3540 C   0  0  0  0  0  0  0  0  0  0  0  0
   22.1340  -28.2230   41.3140 O   0  0  0  0  0  0  0  0  0  0  0  0
   22.9730  -28.3730   42.3880 C   0  0  0  0  0  0  0  0  0  0  0  0
   23.9440  -29.3710   42.2990 C   0  0  0  0  0  0  0  0  0  0  0  0
   24.8300  -29.5780   43.3590 C   0  0  0  0  0  0  0  0  0  0  0  0
   24.7440  -28.7880   44.5070 C   0  0  0  0  0  0  0  0  0  0  0  0
   23.7740  -27.7930   44.5940 C   0  0  0  0  0  0  0  0  0  0  0  0
   23.7460  -27.0560   45.7450 O   0  0  0  0  0  0  0  0  0  0  0  0
   22.8890  -27.5850   43.5320 C   0  0  0  0  0  0  0  0  0  0  0  0
   21.8550  -26.5510   43.5820 C   0  0  0  0  0  0  0  0  0  0  0  0
   21.7120  -25.8200   44.5610 O   0  0  0  0  0  0  0  0  0  0  0  0
   20.9720  -26.4070   42.4010 C   0  0  0  0  0  0  0  0  0  0  0  0
   19.9910  -25.4350   42.4650 O   0  0  0  0  0  0  0  0  0  0  0  0
   20.1890  -26.0150   39.3750 C   0  0  0  0  0  0  0  0  0  0  0  0
   19.4220  -25.9790   38.1930 C   0  0  0  0  0  0  0  0  0  0  0  0
   19.3080  -24.6580   37.4640 C   0  0  0  0  0  0  0  0  0  0  0  0
   19.2820  -23.4790   38.4270 C   0  0  0  0  0  0  0  0  0  0  0  0
   19.7181  -28.0322   35.6105 H   0  0  0  0  0  0  0  0  0  0  0  0
   18.2108  -28.3300   34.6800 H   0  0  0  0  0  0  0  0  0  0  0  0
   18.9584  -26.6967   34.6800 H   0  0  0  0  0  0  0  0  0  0  0  0
   17.4789  -26.2300   36.3317 H   0  0  0  0  0  0  0  0  0  0  0  0
   17.1661  -27.9895   36.6474 H   0  0  0  0  0  0  0  0  0  0  0  0
   18.4481  -29.2577   38.1668 H   0  0  0  0  0  0  0  0  0  0  0  0
   19.8166  -29.2865   40.2365 H   0  0  0  0  0  0  0  0  0  0  0  0
   24.0118  -29.9942   41.3951 H   0  0  0  0  0  0  0  0  0  0  0  0
   25.5962  -30.3642   43.2892 H   0  0  0  0  0  0  0  0  0  0  0  0
   25.4417  -28.9515   45.3416 H   0  0  0  0  0  0  0  0  0  0  0  0
   22.9980  -27.0940   46.3080 H   0  0  0  0  0  0  0  0  0  0  0  0
   20.1800  -24.5590   42.1920 H   0  0  0  0  0  0  0  0  0  0  0  0
   20.6883  -25.0960   39.7158 H   0  0  0  0  0  0  0  0  0  0  0  0
   20.1705  -24.5480   36.7902 H   0  0  0  0  0  0  0  0  0  0  0  0
   18.3630  -24.6595   36.9011 H   0  0  0  0  0  0  0  0  0  0  0  0
   19.2902  -23.8509   39.4622 H   0  0  0  0  0  0  0  0  0  0  0  0
   20.1664  -22.8474   38.2573 H   0  0  0  0  0  0  0  0  0  0  0  0
   18.3706  -22.8870   38.2573 H   0  0  0  0  0  0  0  0  0  0  0  0
  1  2  1  0
  2  3  1  0
  3  4  2  0
  4  5  1  0
  5  6  2  0
  6  7  1  0
  7  8  1  0
  8  9  1  0
  9 10  2  0
 10 11  1  0
 11 12  2  0
 12 13  1  0
 13 14  1  0
 13 15  2  0
 15 16  1  0
 16 17  2  0
 16 18  1  0
 18 19  1  0
  6 20  1  0
 20 21  2  0
 21 22  1  0
 22 23  1  0
 21  3  1  0
 18  7  2  0
 15  9  1  0
  1 24  1  0
  1 25  1  0
  1 26  1  0
  2 27  1  0
  2 28  1  0
  4 29  1  0
  5 30  1  0
 10 31  1  0
 11 32  1  0
 12 33  1  0
 14 34  1  0
 19 35  1  0
 20 36  1  0
 22 37  1  0
 22 38  1  0
 23 39  1  0
 23 40  1  0
 23 41  1  0
M  END
>  <meeko>  (6) 
{"is_sidechain": [false], "free_energy": -7.058, "intermolecular_energy": -8.74, "internal_energy": -0.446}

$$$$
cand_039_out
     RDKit          3D

 41 43  0  0  0  0  0  0  0  0999 V2000
   25.2550  -30.0440   44.0120 C   0  0  0  0  0  0  0  0  0  0  0  0
   24.5990  -28.7990   44.5900 C   0  0  0  0  0  0  0  0  0  0  0  0
   23.5750  -28.2110   43.6470 C   0  0  0  0  0  0  0  0  0  0  0  0
   23.5100  -28.7230   42.3400 C   0  0  0  0  0  0  0  0  0  0  0  0
   22.5820  -28.2330   41.4170 C   0  0  0  0  0  0  0  0  0  0  0  0
   21.6950  -27.2130   41.7710 C   0  0  0  0  0  0  0  0  0  0  0  0
   20.7060  -26.7210   40.7870 C   0  0  0  0  0  0  0  0  0  0  0  0
   20.5920  -25.3360   40.7840 O   0  0  0  0  0  0  0  0  0  0  0  0
   19.7080  -24.7450   39.9170 C   0  0  0  0  0  0  0  0  0  0  0  0
   19.6370  -23.3530   39.9360 C   0  0  0  0  0  0  0  0  0  0  0  0
   18.7550  -22.6880   39.0790 C   0  0  0  0  0  0  0  0  0  0  0  0
   17.9460  -23.4170   38.2060 C   0  0  0  0  0  0  0  0  0  0  0  0
   18.0180  -24.8070   38.1890 C   0  0  0  0  0  0  0  0  0  0  0  0
   17.1980  -25.4580   37.3100 O   0  0  0  0  0  0  0  0  0  0  0  0
   18.9020  -25.4720   39.0450 C   0  0  0  0  0  0  0  0  0  0  0  0
   19.0090  -26.9310   39.0600 C   0  0  0  0  0  0  0  0  0  0  0  0
   18.3250  -27.6410   38.3260 O   0  0  0  0  0  0  0  0  0  0  0  0
   19.9810  -27.5370   39.9990 C   0  0  0  0  0  0  0  0  0  0  0  0
   20.0650  -28.9160   40.0140 O   0  0  0  0  0  0  0  0  0  0  0  0
   21.7470  -26.7130   43.0790 C   0  0  0  0  0  0  0  0  0  0  0  0
   22.6710  -27.1990   44.0270 C   0  0  0  0  0  0  0  0  0  0  0  0
   22.6640  -26.5770   45.4060 C   0  0  0  0  0  0  0  0  0  0  0  0
   21.9960  -25.2090   45.4070 C   0  0  0  0  0  0  0  0  0  0  0  0
   25.5968  -30.6927   44.8320 H   0  0  0  0  0  0  0  0  0  0  0  0
   24.5267  -30.5884   43.3930 H   0  0  0  0  0  0  0  0  0  0  0  0
   26.1159  -29.7511   43.3930 H   0  0  0  0  0  0  0  0  0  0  0  0
   24.1012  -29.0653   45.5341 H   0  0  0  0  0  0  0  0  0  0  0  0
   25.3835  -28.0455   44.7535 H   0  0  0  0  0  0  0  0  0  0  0  0
   24.2016  -29.5234   42.0381 H   0  0  0  0  0  0  0  0  0  0  0  0
   22.5495  -28.6546   40.4015 H   0  0  0  0  0  0  0  0  0  0  0  0
   20.2741  -22.7785   40.6244 H   0  0  0  0  0  0  0  0  0  0  0  0
   18.6986  -21.5895   39.0927 H   0  0  0  0  0  0  0  0  0  0  0  0
   17.2520  -22.8935   37.5319 H   0  0  0  0  0  0  0  0  0  0  0  0
   16.6320  -26.1400   37.6140 H   0  0  0  0  0  0  0  0  0  0  0  0
   20.0090  -29.3980   39.2120 H   0  0  0  0  0  0  0  0  0  0  0  0
   21.0466  -25.9181   43.3750 H   0  0  0  0  0  0  0  0  0  0  0  0
   22.1177  -27.2403   46.0928 H   0  0  0  0  0  0  0  0  0  0  0  0
   23.7080  -26.4474   45.7274 H   0  0  0  0  0  0  0  0  0  0  0  0
   21.8354  -24.8801   46.4443 H   0  0  0  0  0  0  0  0  0  0  0  0
   22.6420  -24.4851   44.8887 H   0  0  0  0  0  0  0  0  0  0  0  0
   21.0279  -25.2733   44.8887 H   0  0  0  0  0  0  0  0  0  0  0  0
  1  2  1  0
  2  3  1  0
  3  4  2  0
  4  5  1  0
  5  6  2  0
  6  7  1  0
  7  8  1  0
  8  9  1  0
  9 10  2  0
 10 11  1  0
 11 12  2  0
 12 13  1  0
 13 14  1  0
 13 15  2  0
 15 16  1  0
 16 17  2  0
 16 18  1  0
 18 19  1  0
  6 20  1  0
 20 21  2  0
 21 22  1  0
 22 23  1  0
 21  3  1  0
 18  7  2  0
 15  9  1  0
  1 24  1  0
  1 25  1  0
  1 26  1  0
  2 27  1  0
  2 28  1  0
  4 29  1  0
  5 30  1  0
 10 31  1  0
 11 32  1  0
 12 33  1  0
 14 34  1  0
 19 35  1  0
 20 36  1  0
 22 37  1  0
 22 38  1  0
 23 39  1  0
 23 40  1  0
 23 41  1  0
M  END
>  <meeko>  (7) 
{"is_sidechain": [false], "free_energy": -6.981, "intermolecular_energy": -8.831, "internal_energy": -0.26}

$$$$
cand_039_out
     RDKit          3D

 41 43  0  0  0  0  0  0  0  0999 V2000
   18.5330  -34.5440   39.3280 C   0  0  0  0  0  0  0  0  0  0  0  0
   19.2070  -33.9910   38.0800 C   0  0  0  0  0  0  0  0  0  0  0  0
   19.2660  -32.4810   38.0920 C   0  0  0  0  0  0  0  0  0  0  0  0
   18.9350  -31.8170   39.2850 C   0  0  0  0  0  0  0  0  0  0  0  0
   18.9760  -30.4230   39.3710 C   0  0  0  0  0  0  0  0  0  0  0  0
   19.3440  -29.6510   38.2660 C   0  0  0  0  0  0  0  0  0  0  0  0
   19.4020  -28.1770   38.3820 C   0  0  0  0  0  0  0  0  0  0  0  0
   18.6960  -27.5290   37.3760 O   0  0  0  0  0  0  0  0  0  0  0  0
   18.6670  -26.1580   37.3630 C   0  0  0  0  0  0  0  0  0  0  0  0
   17.9340  -25.5490   36.3440 C   0  0  0  0  0  0  0  0  0  0  0  0
   17.8650  -24.1550   36.2730 C   0  0  0  0  0  0  0  0  0  0  0  0
   18.5290  -23.3720   37.2200 C   0  0  0  0  0  0  0  0  0  0  0  0
   19.2600  -23.9830   38.2350 C   0  0  0  0  0  0  0  0  0  0  0  0
   19.8850  -23.1570   39.1280 O   0  0  0  0  0  0  0  0  0  0  0  0
   19.3280  -25.3770   38.3070 C   0  0  0  0  0  0  0  0  0  0  0  0
   20.0840  -26.0590   39.3580 C   0  0  0  0  0  0  0  0  0  0  0  0
   20.7000  -25.4380   40.2220 O   0  0  0  0  0  0  0  0  0  0  0  0
   20.0870  -27.5400   39.3500 C   0  0  0  0  0  0  0  0  0  0  0  0
   20.8160  -28.1730   40.3390 O   0  0  0  0  0  0  0  0  0  0  0  0
   19.6920  -30.3130   37.0810 C   0  0  0  0  0  0  0  0  0  0  0  0
   19.6630  -31.7190   36.9760 C   0  0  0  0  0  0  0  0  0  0  0  0
   20.0330  -32.3360   35.6450 C   0  0  0  0  0  0  0  0  0  0  0  0
   20.4310  -31.2820   34.6220 C   0  0  0  0  0  0  0  0  0  0  0  0
   19.0279  -34.1379   40.2225 H   0  0  0  0  0  0  0  0  0  0  0  0
   17.4723  -34.2525   39.3316 H   0  0  0  0  0  0  0  0  0  0  0  0
   18.6117  -35.6412   39.3316 H   0  0  0  0  0  0  0  0  0  0  0  0
   20.2320  -34.3863   38.0249 H   0  0  0  0  0  0  0  0  0  0  0  0
   18.6141  -34.3015   37.2070 H   0  0  0  0  0  0  0  0  0  0  0  0
   18.6385  -32.4045   40.1664 H   0  0  0  0  0  0  0  0  0  0  0  0
   18.7159  -29.9282   40.3184 H   0  0  0  0  0  0  0  0  0  0  0  0
   17.4112  -26.1651   35.5976 H   0  0  0  0  0  0  0  0  0  0  0  0
   17.2870  -23.6738   35.4703 H   0  0  0  0  0  0  0  0  0  0  0  0
   18.4744  -22.2748   37.1639 H   0  0  0  0  0  0  0  0  0  0  0  0
   19.4310  -22.4150   39.4770 H   0  0  0  0  0  0  0  0  0  0  0  0
   21.5250  -27.7260   40.7570 H   0  0  0  0  0  0  0  0  0  0  0  0
   19.9967  -29.7185   36.2071 H   0  0  0  0  0  0  0  0  0  0  0  0
   20.8785  -33.0236   35.7945 H   0  0  0  0  0  0  0  0  0  0  0  0
   19.1515  -32.8693   35.2597 H   0  0  0  0  0  0  0  0  0  0  0  0
   20.7732  -30.3758   35.1433 H   0  0  0  0  0  0  0  0  0  0  0  0
   21.2440  -31.6714   33.9916 H   0  0  0  0  0  0  0  0  0  0  0  0
   19.5635  -31.0369   33.9916 H   0  0  0  0  0  0  0  0  0  0  0  0
  1  2  1  0
  2  3  1  0
  3  4  2  0
  4  5  1  0
  5  6  2  0
  6  7  1  0
  7  8  1  0
  8  9  1  0
  9 10  2  0
 10 11  1  0
 11 12  2  0
 12 13  1  0
 13 14  1  0
 13 15  2  0
 15 16  1  0
 16 17  2  0
 16 18  1  0
 18 19  1  0
  6 20  1  0
 20 21  2  0
 21 22  1  0
 22 23  1  0
 21  3  1  0
 18  7  2  0
 15  9  1  0
  1 24  1  0
  1 25  1  0
  1 26  1  0
  2 27  1  0
  2 28  1  0
  4 29  1  0
  5 30  1  0
 10 31  1  0
 11 32  1  0
 12 33  1  0
 14 34  1  0
 19 35  1  0
 20 36  1  0
 22 37  1  0
 22 38  1  0
 23 39  1  0
 23 40  1  0
 23 41  1  0
M  END
>  <meeko>  (8) 
{"is_sidechain": [false], "free_energy": -6.871, "intermolecular_energy": -8.597, "internal_energy": -0.358}

$$$$
cand_039_out
     RDKit          3D

 41 43  0  0  0  0  0  0  0  0999 V2000
   20.0660  -24.9910   49.1000 C   0  0  0  0  0  0  0  0  0  0  0  0
   20.5520  -23.8540   48.2130 C   0  0  0  0  0  0  0  0  0  0  0  0
   20.4330  -24.1910   46.7450 C   0  0  0  0  0  0  0  0  0  0  0  0
   21.4660  -24.9370   46.1530 C   0  0  0  0  0  0  0  0  0  0  0  0
   21.4190  -25.2920   44.8030 C   0  0  0  0  0  0  0  0  0  0  0  0
   20.3400  -24.9090   44.0020 C   0  0  0  0  0  0  0  0  0  0  0  0
   20.2970  -25.3120   42.5800 C   0  0  0  0  0  0  0  0  0  0  0  0
   19.8850  -24.2840   41.7400 O   0  0  0  0  0  0  0  0  0  0  0  0
   19.8000  -24.5230   40.3910 C   0  0  0  0  0  0  0  0  0  0  0  0
   19.3980  -23.4580   39.5840 C   0  0  0  0  0  0  0  0  0  0  0  0
   19.2890  -23.6350   38.2020 C   0  0  0  0  0  0  0  0  0  0  0  0
   19.5810  -24.8740   37.6300 C   0  0  0  0  0  0  0  0  0  0  0  0
   19.9820  -25.9350   38.4380 C   0  0  0  0  0  0  0  0  0  0  0  0
   20.2530  -27.1200   37.8130 O   0  0  0  0  0  0  0  0  0  0  0  0
   20.0920  -25.7580   39.8210 C   0  0  0  0  0  0  0  0  0  0  0  0
   20.5100  -26.8450   40.7060 C   0  0  0  0  0  0  0  0  0  0  0  0
   20.7770  -27.9660   40.2780 O   0  0  0  0  0  0  0  0  0  0  0  0
   20.6020  -26.5520   42.1550 C   0  0  0  0  0  0  0  0  0  0  0  0
   20.9850  -27.5910   42.9830 O   0  0  0  0  0  0  0  0  0  0  0  0
   19.2990  -24.1800   44.5950 C   0  0  0  0  0  0  0  0  0  0  0  0
   19.3260  -23.8180   45.9570 C   0  0  0  0  0  0  0  0  0  0  0  0
   18.1660  -23.0100   46.4970 C   0  0  0  0  0  0  0  0  0  0  0  0
   16.9690  -23.0390   45.5570 C   0  0  0  0  0  0  0  0  0  0  0  0
   20.1865  -24.7091   50.1564 H   0  0  0  0  0  0  0  0  0  0  0  0
   19.0042  -25.1899   48.8924 H   0  0  0  0  0  0  0  0  0  0  0  0
   20.6560  -25.8959   48.8924 H   0  0  0  0  0  0  0  0  0  0  0  0
   19.9489  -22.9580   48.4217 H   0  0  0  0  0  0  0  0  0  0  0  0
   21.6148  -23.6791   48.4365 H   0  0  0  0  0  0  0  0  0  0  0  0
   22.3269  -25.2469   46.7635 H   0  0  0  0  0  0  0  0  0  0  0  0
   22.2400  -25.8792   44.3658 H   0  0  0  0  0  0  0  0  0  0  0  0
   19.1674  -22.4814   40.0346 H   0  0  0  0  0  0  0  0  0  0  0  0
   18.9726  -22.7965   37.5642 H   0  0  0  0  0  0  0  0  0  0  0  0
   19.4945  -25.0124   36.5422 H   0  0  0  0  0  0  0  0  0  0  0  0
   19.8510  -27.9110   38.1140 H   0  0  0  0  0  0  0  0  0  0  0  0
   20.3910  -28.2940   43.1570 H   0  0  0  0  0  0  0  0  0  0  0  0
   18.4371  -23.8823   43.9798 H   0  0  0  0  0  0  0  0  0  0  0  0
   17.8647  -23.4261   47.4697 H   0  0  0  0  0  0  0  0  0  0  0  0
   18.4954  -21.9654   46.5981 H   0  0  0  0  0  0  0  0  0  0  0  0
   16.0405  -23.0615   46.1463 H   0  0  0  0  0  0  0  0  0  0  0  0
   16.9790  -22.1403   44.9227 H   0  0  0  0  0  0  0  0  0  0  0  0
   17.0225  -23.9361   44.9227 H   0  0  0  0  0  0  0  0  0  0  0  0
  1  2  1  0
  2  3  1  0
  3  4  2  0
  4  5  1  0
  5  6  2  0
  6  7  1  0
  7  8  1  0
  8  9  1  0
  9 10  2  0
 10 11  1  0
 11 12  2  0
 12 13  1  0
 13 14  1  0
 13 15  2  0
 15 16  1  0
 16 17  2  0
 16 18  1  0
 18 19  1  0
  6 20  1  0
 20 21  2  0
 21 22  1  0
 22 23  1  0
 21  3  1  0
 18  7  2  0
 15  9  1  0
  1 24  1  0
  1 25  1  0
  1 26  1  0
  2 27  1  0
  2 28  1  0
  4 29  1  0
  5 30  1  0
 10 31  1  0
 11 32  1  0
 12 33  1  0
 14 34  1  0
 19 35  1  0
 20 36  1  0
 22 37  1  0
 22 38  1  0
 23 39  1  0
 23 40  1  0
 23 41  1  0
M  END
>  <meeko>  (9) 
{"is_sidechain": [false], "free_energy": -6.668, "intermolecular_energy": -8.41, "internal_energy": -0.294}

$$$$
