cand_044_out
     RDKit          3D

 41 43  0  0  0  0  0  0  0  0999 V2000
   18.9550  -23.1440   39.2650 C   0  0  0  0  0  0  0  0  0  0  0  0
   19.8000  -23.9810   40.2130 C   0  0  0  0  0  0  0  0  0  0  0  0
   18.9530  -25.0300   40.9370 C   0  0  0  0  0  0  0  0  0  0  0  0
   19.0910  -26.4000   40.3070 C   0  0  0  0  0  0  0  0  0  0  0  0
   18.1880  -26.7580   39.2930 C   0  0  0  0  0  0  0  0  0  0  0  0
   18.2490  -28.0120   38.6820 C   0  0  0  0  0  0  0  0  0  0  0  0
   19.2070  -28.9510   39.0750 C   0  0  0  0  0  0  0  0  0  0  0  0
   19.3110  -30.2770   38.4290 C   0  0  0  0  0  0  0  0  0  0  0  0
   18.8940  -31.3150   39.2570 O   0  0  0  0  0  0  0  0  0  0  0  0
   18.9320  -32.6000   38.7800 C   0  0  0  0  0  0  0  0  0  0  0  0
   18.5140  -33.6100   39.6470 C   0  0  0  0  0  0  0  0  0  0  0  0
   18.5280  -34.9410   39.2240 C   0  0  0  0  0  0  0  0  0  0  0  0
   18.9580  -35.2620   37.9360 C   0  0  0  0  0  0  0  0  0  0  0  0
   19.3750  -34.2510   37.0720 C   0  0  0  0  0  0  0  0  0  0  0  0
   19.7830  -34.6350   35.8240 O   0  0  0  0  0  0  0  0  0  0  0  0
   19.3610  -32.9200   37.4960 C   0  0  0  0  0  0  0  0  0  0  0  0
   19.7890  -31.8280   36.6200 C   0  0  0  0  0  0  0  0  0  0  0  0
   20.1750  -32.0290   35.4700 O   0  0  0  0  0  0  0  0  0  0  0  0
   19.7410  -30.4530   37.1660 C   0  0  0  0  0  0  0  0  0  0  0  0
   20.1330  -29.4280   36.3240 O   0  0  0  0  0  0  0  0  0  0  0  0
   20.1140  -28.5930   40.0850 C   0  0  0  0  0  0  0  0  0  0  0  0
   20.0670  -27.3320   40.7150 C   0  0  0  0  0  0  0  0  0  0  0  0
   21.0870  -27.0150   41.7840 C   0  0  0  0  0  0  0  0  0  0  0  0
   20.7420  -27.4890   43.0140 F   0  0  0  0  0  0  0  0  0  0  0  0
   22.3230  -27.5360   41.5310 F   0  0  0  0  0  0  0  0  0  0  0  0
   18.2920  -22.4873   39.8475 H   0  0  0  0  0  0  0  0  0  0  0  0
   19.6130  -22.5316   38.6310 H   0  0  0  0  0  0  0  0  0  0  0  0
   18.3489  -23.8078   38.6310 H   0  0  0  0  0  0  0  0  0  0  0  0
   20.5858  -24.4911   39.6365 H   0  0  0  0  0  0  0  0  0  0  0  0
   20.2410  -23.3118   40.9664 H   0  0  0  0  0  0  0  0  0  0  0  0
   19.2778  -25.0868   41.9864 H   0  0  0  0  0  0  0  0  0  0  0  0
   17.8984  -24.7260   40.8642 H   0  0  0  0  0  0  0  0  0  0  0  0
   17.4195  -26.0383   38.9746 H   0  0  0  0  0  0  0  0  0  0  0  0
   17.5358  -28.2636   37.8832 H   0  0  0  0  0  0  0  0  0  0  0  0
   18.1739  -33.3584   40.6624 H   0  0  0  0  0  0  0  0  0  0  0  0
   18.1994  -35.7377   39.9076 H   0  0  0  0  0  0  0  0  0  0  0  0
   18.9679  -36.3104   37.6033 H   0  0  0  0  0  0  0  0  0  0  0  0
   19.1480  -34.8470   35.1680 H   0  0  0  0  0  0  0  0  0  0  0  0
   20.1740  -28.5490   36.6430 H   0  0  0  0  0  0  0  0  0  0  0  0
   20.8830  -29.3164   40.3937 H   0  0  0  0  0  0  0  0  0  0  0  0
   21.1135  -25.9154   41.7723 H   0  0  0  0  0  0  0  0  0  0  0  0
  1  2  1  0
  2  3  1  0
  3  4  1  0
  4  5  2  0
  5  6  1  0
  6  7  2  0
  7  8  1  0
  8  9  1  0
  9 10  1  0
 10 11  2  0
 11 12  1  0
 12 13  2  0
 13 14  1  0
 14 15  1  0
 14 16  2  0
 16 17  1  0
 17 18  2  0
 17 19  1  0
 19 20  1  0
  7 21  1  0
 21 22  2  0
 22 23  1  0
 23 24  1  0
 23 25  1  0
 22  4  1  0
 19  8  2  0
 16 10  1  0
  1 26  1  0
  1 27  1  0
  1 28  1  0
  2 29  1  0
  2 30  1  0
  3 31  1  0
  3 32  1  0
  5 33  1  0
  6 34  1  0
 11 35  1  0
 12 36  1  0
 13 37  1  0
 15 38  1  0
 20 39  1  0
 21 40  1  0
 23 41  1  0
M  END
>  <meeko>  (1) 
{"is_sidechain": [false], "free_energy": -8.055, "intermolecular_energy": -10.409, "internal_energy": -0.753}

$$$$
cand_044_out
     RDKit          3D

 41 43  0  0  0  0  0  0  0  0999 V2000
   20.3480  -34.6410   33.8180 C   0  0  0  0  0  0  0  0  0  0  0  0
   19.7680  -33.4690   34.5940 C   0  0  0  0  0  0  0  0  0  0  0  0
   19.6560  -33.7880   36.0860 C   0  0  0  0  0  0  0  0  0  0  0  0
   19.5190  -32.5330   36.9220 C   0  0  0  0  0  0  0  0  0  0  0  0
   19.8400  -31.3010   36.3280 C   0  0  0  0  0  0  0  0  0  0  0  0
   19.7520  -30.1080   37.0490 C   0  0  0  0  0  0  0  0  0  0  0  0
   19.3530  -30.1110   38.3880 C   0  0  0  0  0  0  0  0  0  0  0  0
   19.2270  -28.8610   39.1680 C   0  0  0  0  0  0  0  0  0  0  0  0
   20.1290  -28.7910   40.2250 O   0  0  0  0  0  0  0  0  0  0  0  0
   20.1240  -27.6800   41.0280 C   0  0  0  0  0  0  0  0  0  0  0  0
   21.0390  -27.6560   42.0810 C   0  0  0  0  0  0  0  0  0  0  0  0
   21.0870  -26.5530   42.9370 C   0  0  0  0  0  0  0  0  0  0  0  0
   20.2230  -25.4750   42.7390 C   0  0  0  0  0  0  0  0  0  0  0  0
   19.3120  -25.5010   41.6860 C   0  0  0  0  0  0  0  0  0  0  0  0
   18.4950  -24.4120   41.5490 O   0  0  0  0  0  0  0  0  0  0  0  0
   19.2640  -26.6040   40.8310 C   0  0  0  0  0  0  0  0  0  0  0  0
   18.3220  -26.6720   39.7120 C   0  0  0  0  0  0  0  0  0  0  0  0
   17.5340  -25.7600   39.4690 O   0  0  0  0  0  0  0  0  0  0  0  0
   18.3480  -27.8880   38.8670 C   0  0  0  0  0  0  0  0  0  0  0  0
   17.4650  -27.9330   37.8040 O   0  0  0  0  0  0  0  0  0  0  0  0
   19.0270  -31.3410   38.9820 C   0  0  0  0  0  0  0  0  0  0  0  0
   19.1110  -32.5560   38.2720 C   0  0  0  0  0  0  0  0  0  0  0  0
   18.7300  -33.8380   38.9760 C   0  0  0  0  0  0  0  0  0  0  0  0
   19.6740  -34.8150   38.8640 F   0  0  0  0  0  0  0  0  0  0  0  0
   18.5280  -33.6840   40.3170 F   0  0  0  0  0  0  0  0  0  0  0  0
   20.7226  -35.3980   34.5228 H   0  0  0  0  0  0  0  0  0  0  0  0
   19.5655  -35.0848   33.1849 H   0  0  0  0  0  0  0  0  0  0  0  0
   21.1755  -34.2881   33.1849 H   0  0  0  0  0  0  0  0  0  0  0  0
   20.4221  -32.5943   34.4632 H   0  0  0  0  0  0  0  0  0  0  0  0
   18.7590  -33.2632   34.2073 H   0  0  0  0  0  0  0  0  0  0  0  0
   18.7721  -34.4223   36.2489 H   0  0  0  0  0  0  0  0  0  0  0  0
   20.5767  -34.3048   36.3946 H   0  0  0  0  0  0  0  0  0  0  0  0
   20.1660  -31.2755   35.2777 H   0  0  0  0  0  0  0  0  0  0  0  0
   19.9995  -29.1557   36.5573 H   0  0  0  0  0  0  0  0  0  0  0  0
   21.7216  -28.5044   42.2370 H   0  0  0  0  0  0  0  0  0  0  0  0
   21.8070  -26.5341   43.7684 H   0  0  0  0  0  0  0  0  0  0  0  0
   20.2615  -24.6067   43.4132 H   0  0  0  0  0  0  0  0  0  0  0  0
   18.6180  -23.8220   40.8310 H   0  0  0  0  0  0  0  0  0  0  0  0
   17.7340  -28.3010   36.9860 H   0  0  0  0  0  0  0  0  0  0  0  0
   18.6967  -31.3569   40.0311 H   0  0  0  0  0  0  0  0  0  0  0  0
   17.7976  -34.1240   38.4673 H   0  0  0  0  0  0  0  0  0  0  0  0
  1  2  1  0
  2  3  1  0
  3  4  1  0
  4  5  2  0
  5  6  1  0
  6  7  2  0
  7  8  1  0
  8  9  1  0
  9 10  1  0
 10 11  2  0
 11 12  1  0
 12 13  2  0
 13 14  1  0
 14 15  1  0
 14 16  2  0
 16 17  1  0
 17 18  2  0
 17 19  1  0
 19 20  1  0
  7 21  1  0
 21 22  2  0
 22 23  1  0
 23 24  1  0
 23 25  1  0
 22  4  1  0
 19  8  2  0
 16 10  1  0
  1 26  1  0
  1 27  1  0
  1 28  1  0
  2 29  1  0
  2 30  1  0
  3 31  1  0
  3 32  1  0
  5 33  1  0
  6 34  1  0
 11 35  1  0
 12 36  1  0
 13 37  1  0
 15 38  1  0
 20 39  1  0
 21 40  1  0
 23 41  1  0
M  END
>  <meeko>  (2) 
{"is_sidechain": [false], "free_energy": -8.051, "intermolecular_energy": -10.683, "internal_energy": -0.475}

$$$$
cand_044_out
     RDKit          3D

 41 43  0  0  0  0  0  0  0  0999 V2000
   19.6720  -35.4700   37.2530 C   0  0  0  0  0  0  0  0  0  0  0  0
   18.8390  -34.5030   36.4270 C   0  0  0  0  0  0  0  0  0  0  0  0
   19.6970  -33.3710   35.8590 C   0  0  0  0  0  0  0  0  0  0  0  0
   19.5910  -32.1100   36.6900 C   0  0  0  0  0  0  0  0  0  0  0  0
   19.1880  -32.2300   38.0300 C   0  0  0  0  0  0  0  0  0  0  0  0
   19.0530  -31.1050   38.8470 C   0  0  0  0  0  0  0  0  0  0  0  0
   19.3050  -29.8260   38.3450 C   0  0  0  0  0  0  0  0  0  0  0  0
   19.1940  -28.6190   39.1940 C   0  0  0  0  0  0  0  0  0  0  0  0
   20.1210  -28.6010   40.2300 O   0  0  0  0  0  0  0  0  0  0  0  0
   20.1320  -27.5340   41.0920 C   0  0  0  0  0  0  0  0  0  0  0  0
   21.0720  -27.5630   42.1220 C   0  0  0  0  0  0  0  0  0  0  0  0
   21.1370  -26.5070   43.0350 C   0  0  0  0  0  0  0  0  0  0  0  0
   20.2640  -25.4250   42.9160 C   0  0  0  0  0  0  0  0  0  0  0  0
   19.3260  -25.3990   41.8860 C   0  0  0  0  0  0  0  0  0  0  0  0
   18.5020  -24.3080   41.8280 O   0  0  0  0  0  0  0  0  0  0  0  0
   19.2620  -26.4550   40.9740 C   0  0  0  0  0  0  0  0  0  0  0  0
   18.2930  -26.4670   39.8770 C   0  0  0  0  0  0  0  0  0  0  0  0
   17.4960  -25.5480   39.7020 O   0  0  0  0  0  0  0  0  0  0  0  0
   18.3030  -27.6360   38.9670 C   0  0  0  0  0  0  0  0  0  0  0  0
   17.3940  -27.6290   37.9250 O   0  0  0  0  0  0  0  0  0  0  0  0
   19.7120  -29.7040   37.0080 C   0  0  0  0  0  0  0  0  0  0  0  0
   19.8520  -30.8270   36.1660 C   0  0  0  0  0  0  0  0  0  0  0  0
   20.3100  -30.6160   34.7410 C   0  0  0  0  0  0  0  0  0  0  0  0
   20.3400  -29.3040   34.3740 F   0  0  0  0  0  0  0  0  0  0  0  0
   21.5670  -31.0890   34.4960 F   0  0  0  0  0  0  0  0  0  0  0  0
   19.5051  -35.2763   38.3229 H   0  0  0  0  0  0  0  0  0  0  0  0
   19.3763  -36.5029   37.0169 H   0  0  0  0  0  0  0  0  0  0  0  0
   20.7373  -35.3305   37.0169 H   0  0  0  0  0  0  0  0  0  0  0  0
   18.3741  -35.0518   35.5947 H   0  0  0  0  0  0  0  0  0  0  0  0
   18.0721  -34.0615   37.0804 H   0  0  0  0  0  0  0  0  0  0  0  0
   20.7475  -33.6966   35.8394 H   0  0  0  0  0  0  0  0  0  0  0  0
   19.3332  -33.1431   34.8462 H   0  0  0  0  0  0  0  0  0  0  0  0
   18.9750  -33.2269   38.4433 H   0  0  0  0  0  0  0  0  0  0  0  0
   18.7452  -31.2275   39.8959 H   0  0  0  0  0  0  0  0  0  0  0  0
   21.7609  -28.4155   42.2155 H   0  0  0  0  0  0  0  0  0  0  0  0
   21.8772  -26.5288   43.8484 H   0  0  0  0  0  0  0  0  0  0  0  0
   20.3162  -24.5936   43.6344 H   0  0  0  0  0  0  0  0  0  0  0  0
   18.8420  -23.4780   41.5560 H   0  0  0  0  0  0  0  0  0  0  0  0
   16.5450  -28.0050   38.0410 H   0  0  0  0  0  0  0  0  0  0  0  0
   19.9282  -28.7037   36.6046 H   0  0  0  0  0  0  0  0  0  0  0  0
   19.5600  -31.1749   34.1620 H   0  0  0  0  0  0  0  0  0  0  0  0
  1  2  1  0
  2  3  1  0
  3  4  1  0
  4  5  2  0
  5  6  1  0
  6  7  2  0
  7  8  1  0
  8  9  1  0
  9 10  1  0
 10 11  2  0
 11 12  1  0
 12 13  2  0
 13 14  1  0
 14 15  1  0
 14 16  2  0
 16 17  1  0
 17 18  2  0
 17 19  1  0
 19 20  1  0
  7 21  1  0
 21 22  2  0
 22 23  1  0
 23 24  1  0
 23 25  1  0
 22  4  1  0
 19  8  2  0
 16 10  1  0
  1 26  1  0
  1 27  1  0
  1 28  1  0
  2 29  1  0
  2 30  1  0
  3 31  1  0
  3 32  1  0
  5 33  1  0
  6 34  1  0
 11 35  1  0
 12 36  1  0
 13 37  1  0
 15 38  1  0
 20 39  1  0
 21 40  1  0
 23 41  1  0
M  END
>  <meeko>  (3) 
{"is_sidechain": [false], "free_energy": -7.486, "intermolecular_energy": -9.933, "internal_energy": -0.494}

$$$$
cand_044_out
     RDKit          3D

 41 43  0  0  0  0  0  0  0  0999 V2000
   19.8810  -22.8000   41.9640 C   0  0  0  0  0  0  0  0  0  0  0  0
   19.6650  -23.8750   40.9100 C   0  0  0  0  0  0  0  0  0  0  0  0
   19.0430  -25.1350   41.5160 C   0  0  0  0  0  0  0  0  0  0  0  0
   19.2080  -26.3370   40.6110 C   0  0  0  0  0  0  0  0  0  0  0  0
   18.2810  -26.5170   39.5710 C   0  0  0  0  0  0  0  0  0  0  0  0
   18.3660  -27.6140   38.7110 C   0  0  0  0  0  0  0  0  0  0  0  0
   19.3720  -28.5700   38.8720 C   0  0  0  0  0  0  0  0  0  0  0  0
   19.5010  -29.7290   37.9620 C   0  0  0  0  0  0  0  0  0  0  0  0
   19.8650  -29.3620   36.6700 O   0  0  0  0  0  0  0  0  0  0  0  0
   20.0240  -30.3410   35.7230 C   0  0  0  0  0  0  0  0  0  0  0  0
   20.3800  -29.9270   34.4390 C   0  0  0  0  0  0  0  0  0  0  0  0
   20.5590  -30.8730   33.4270 C   0  0  0  0  0  0  0  0  0  0  0  0
   20.3830  -32.2310   33.6990 C   0  0  0  0  0  0  0  0  0  0  0  0
   20.0290  -32.6410   34.9820 C   0  0  0  0  0  0  0  0  0  0  0  0
   19.8730  -33.9860   35.1800 O   0  0  0  0  0  0  0  0  0  0  0  0
   19.8500  -31.6940   35.9930 C   0  0  0  0  0  0  0  0  0  0  0  0
   19.4780  -32.0820   37.3550 C   0  0  0  0  0  0  0  0  0  0  0  0
   19.3110  -33.2580   37.6750 O   0  0  0  0  0  0  0  0  0  0  0  0
   19.3070  -31.0010   38.3530 C   0  0  0  0  0  0  0  0  0  0  0  0
   18.9720  -31.3810   39.6400 O   0  0  0  0  0  0  0  0  0  0  0  0
   20.3020  -28.3890   39.9080 C   0  0  0  0  0  0  0  0  0  0  0  0
   20.2320  -27.2890   40.7880 C   0  0  0  0  0  0  0  0  0  0  0  0
   21.2790  -27.1550   41.8700 C   0  0  0  0  0  0  0  0  0  0  0  0
   20.8530  -27.5930   43.0880 F   0  0  0  0  0  0  0  0  0  0  0  0
   22.4210  -27.8580   41.6140 F   0  0  0  0  0  0  0  0  0  0  0  0
   19.7915  -23.2455   42.9658 H   0  0  0  0  0  0  0  0  0  0  0  0
   20.8844  -22.3655   41.8443 H   0  0  0  0  0  0  0  0  0  0  0  0
   19.1233  -22.0116   41.8443 H   0  0  0  0  0  0  0  0  0  0  0  0
   18.9935  -23.4833   40.1318 H   0  0  0  0  0  0  0  0  0  0  0  0
   20.6430  -24.1428   40.4835 H   0  0  0  0  0  0  0  0  0  0  0  0
   19.5316  -25.3450   42.4789 H   0  0  0  0  0  0  0  0  0  0  0  0
   17.9662  -24.9536   41.6490 H   0  0  0  0  0  0  0  0  0  0  0  0
   17.4748  -25.7817   39.4317 H   0  0  0  0  0  0  0  0  0  0  0  0
   17.6332  -27.7266   37.8984 H   0  0  0  0  0  0  0  0  0  0  0  0
   20.5195  -28.8573   34.2240 H   0  0  0  0  0  0  0  0  0  0  0  0
   20.8390  -30.5475   32.4143 H   0  0  0  0  0  0  0  0  0  0  0  0
   20.5236  -32.9756   32.9016 H   0  0  0  0  0  0  0  0  0  0  0  0
   19.7360  -34.3190   36.0460 H   0  0  0  0  0  0  0  0  0  0  0  0
   18.8230  -30.7310   40.2970 H   0  0  0  0  0  0  0  0  0  0  0  0
   21.1083  -29.1261   40.0371 H   0  0  0  0  0  0  0  0  0  0  0  0
   21.4765  -26.0729   41.8811 H   0  0  0  0  0  0  0  0  0  0  0  0
  1  2  1  0
  2  3  1  0
  3  4  1  0
  4  5  2  0
  5  6  1  0
  6  7  2  0
  7  8  1  0
  8  9  1  0
  9 10  1  0
 10 11  2  0
 11 12  1  0
 12 13  2  0
 13 14  1  0
 14 15  1  0
 14 16  2  0
 16 17  1  0
 17 18  2  0
 17 19  1  0
 19 20  1  0
  7 21  1  0
 21 22  2  0
 22 23  1  0
 23 24  1  0
 23 25  1  0
 22  4  1  0
 19  8  2  0
 16 10  1  0
  1 26  1  0
  1 27  1  0
  1 28  1  0
  2 29  1  0
  2 30  1  0
  3 31  1  0
  3 32  1  0
  5 33  1  0
  6 34  1  0
 11 35  1  0
 12 36  1  0
 13 37  1  0
 15 38  1  0
 20 39  1  0
 21 40  1  0
 23 41  1  0
M  END
>  <meeko>  (4) 
{"is_sidechain": [false], "free_energy": -7.241, "intermolecular_energy": -9.433, "internal_energy": -0.678}

$$$$
cand_044_out
     RDKit          3D

 41 43  0  0  0  0  0  0  0  0999 V2000
   19.6670  -23.0800   41.8410 C   0  0  0  0  0  0  0  0  0  0  0  0
   19.4710  -24.5180   41.3880 C   0  0  0  0  0  0  0  0  0  0  0  0
   19.1440  -24.5930   39.8950 C   0  0  0  0  0  0  0  0  0  0  0  0
   19.1810  -26.0160   39.3810 C   0  0  0  0  0  0  0  0  0  0  0  0
   19.8140  -26.9910   40.1700 C   0  0  0  0  0  0  0  0  0  0  0  0
   19.8990  -28.3190   39.7450 C   0  0  0  0  0  0  0  0  0  0  0  0
   19.3650  -28.7100   38.5150 C   0  0  0  0  0  0  0  0  0  0  0  0
   19.4190  -30.1140   38.0510 C   0  0  0  0  0  0  0  0  0  0  0  0
   18.9770  -31.0170   39.0120 O   0  0  0  0  0  0  0  0  0  0  0  0
   18.9690  -32.3550   38.7120 C   0  0  0  0  0  0  0  0  0  0  0  0
   18.5270  -33.2250   39.7080 C   0  0  0  0  0  0  0  0  0  0  0  0
   18.4930  -34.6000   39.4670 C   0  0  0  0  0  0  0  0  0  0  0  0
   18.9010  -35.1050   38.2310 C   0  0  0  0  0  0  0  0  0  0  0  0
   19.3420  -34.2330   37.2380 C   0  0  0  0  0  0  0  0  0  0  0  0
   19.7260  -34.7940   36.0500 O   0  0  0  0  0  0  0  0  0  0  0  0
   19.3750  -32.8580   37.4800 C   0  0  0  0  0  0  0  0  0  0  0  0
   19.8300  -31.9070   36.4640 C   0  0  0  0  0  0  0  0  0  0  0  0
   20.1990  -32.2730   35.3490 O   0  0  0  0  0  0  0  0  0  0  0  0
   19.8320  -30.4700   36.8210 C   0  0  0  0  0  0  0  0  0  0  0  0
   20.2490  -29.5810   35.8480 O   0  0  0  0  0  0  0  0  0  0  0  0
   18.7280  -27.7390   37.7270 C   0  0  0  0  0  0  0  0  0  0  0  0
   18.6340  -26.3930   38.1370 C   0  0  0  0  0  0  0  0  0  0  0  0
   17.9190  -25.4070   37.2400 C   0  0  0  0  0  0  0  0  0  0  0  0
   18.7660  -24.5630   36.5870 F   0  0  0  0  0  0  0  0  0  0  0  0
   17.1750  -26.0010   36.2620 F   0  0  0  0  0  0  0  0  0  0  0  0
   19.6725  -23.0394   42.9402 H   0  0  0  0  0  0  0  0  0  0  0  0
   20.6251  -22.7014   41.4553 H   0  0  0  0  0  0  0  0  0  0  0  0
   18.8452  -22.4588   41.4553 H   0  0  0  0  0  0  0  0  0  0  0  0
   20.3948  -25.0832   41.5810 H   0  0  0  0  0  0  0  0  0  0  0  0
   18.6273  -24.9460   41.9493 H   0  0  0  0  0  0  0  0  0  0  0  0
   18.1374  -24.1812   39.7301 H   0  0  0  0  0  0  0  0  0  0  0  0
   19.9033  -24.0133   39.3497 H   0  0  0  0  0  0  0  0  0  0  0  0
   20.2498  -26.7039   41.1383 H   0  0  0  0  0  0  0  0  0  0  0  0
   20.3918  -29.0649   40.3859 H   0  0  0  0  0  0  0  0  0  0  0  0
   18.2055  -32.8286   40.6824 H   0  0  0  0  0  0  0  0  0  0  0  0
   18.1441  -35.2866   40.2524 H   0  0  0  0  0  0  0  0  0  0  0  0
   18.8743  -36.1883   38.0418 H   0  0  0  0  0  0  0  0  0  0  0  0
   19.9500  -34.2450   35.3240 H   0  0  0  0  0  0  0  0  0  0  0  0
   21.0160  -29.7640   35.3430 H   0  0  0  0  0  0  0  0  0  0  0  0
   18.2899  -28.0361   36.7628 H   0  0  0  0  0  0  0  0  0  0  0  0
   17.2763  -24.8599   37.9454 H   0  0  0  0  0  0  0  0  0  0  0  0
  1  2  1  0
  2  3  1  0
  3  4  1  0
  4  5  2  0
  5  6  1  0
  6  7  2  0
  7  8  1  0
  8  9  1  0
  9 10  1  0
 10 11  2  0
 11 12  1  0
 12 13  2  0
 13 14  1  0
 14 15  1  0
 14 16  2  0
 16 17  1  0
 17 18  2  0
 17 19  1  0
 19 20  1  0
  7 21  1  0
 21 22  2  0
 22 23  1  0
 23 24  1  0
 23 25  1  0
 22  4  1  0
 19  8  2  0
 16 10  1  0
  1 26  1  0
  1 27  1  0
  1 28  1  0
  2 29  1  0
  2 30  1  0
  3 31  1  0
  3 32  1  0
  5 33  1  0
  6 34  1  0
 11 35  1  0
 12 36  1  0
 13 37  1  0
 15 38  1  0
 20 39  1  0
 21 40  1  0
 23 41  1  0
M  END
>  <meeko>  (5) 
{"is_sidechain": [false], "free_energy": -7.185, "intermolecular_energy": -9.575, "internal_energy": -0.463}

$$$$
cand_044_out
     RDKit          3D

 41 43  0  0  0  0  0  0  0  0999 V2000
   19.6490  -25.5620   42.9000 C   0  0  0  0  0  0  0  0  0  0  0  0
   19.5790  -26.6860   41.8780 C   0  0  0  0  0  0  0  0  0  0  0  0
   18.8580  -26.2400   40.6050 C   0  0  0  0  0  0  0  0  0  0  0  0
   19.1060  -27.1910   39.4530 C   0  0  0  0  0  0  0  0  0  0  0  0
   19.3080  -28.5500   39.7460 C   0  0  0  0  0  0  0  0  0  0  0  0
   19.5590  -29.4770   38.7320 C   0  0  0  0  0  0  0  0  0  0  0  0
   19.6280  -29.0710   37.3960 C   0  0  0  0  0  0  0  0  0  0  0  0
   19.8690  -30.0350   36.3000 C   0  0  0  0  0  0  0  0  0  0  0  0
   19.5410  -31.3410   36.6490 O   0  0  0  0  0  0  0  0  0  0  0  0
   19.7100  -32.3370   35.7210 C   0  0  0  0  0  0  0  0  0  0  0  0
   19.3780  -33.6330   36.1170 C   0  0  0  0  0  0  0  0  0  0  0  0
   19.5260  -34.6940   35.2200 C   0  0  0  0  0  0  0  0  0  0  0  0
   20.0040  -34.4600   33.9310 C   0  0  0  0  0  0  0  0  0  0  0  0
   20.3350  -33.1640   33.5380 C   0  0  0  0  0  0  0  0  0  0  0  0
   20.7970  -33.0050   32.2610 O   0  0  0  0  0  0  0  0  0  0  0  0
   20.1870  -32.1040   34.4350 C   0  0  0  0  0  0  0  0  0  0  0  0
   20.5210  -30.7280   34.0640 C   0  0  0  0  0  0  0  0  0  0  0  0
   20.9420  -30.4400   32.9450 O   0  0  0  0  0  0  0  0  0  0  0  0
   20.3330  -29.6760   35.0900 C   0  0  0  0  0  0  0  0  0  0  0  0
   20.6370  -28.3780   34.7220 O   0  0  0  0  0  0  0  0  0  0  0  0
   19.4220  -27.7150   37.1010 C   0  0  0  0  0  0  0  0  0  0  0  0
   19.1700  -26.7630   38.1110 C   0  0  0  0  0  0  0  0  0  0  0  0
   18.9430  -25.3230   37.7130 C   0  0  0  0  0  0  0  0  0  0  0  0
   20.0000  -24.5120   38.0030 F   0  0  0  0  0  0  0  0  0  0  0  0
   18.7170  -25.1550   36.3770 F   0  0  0  0  0  0  0  0  0  0  0  0
   19.6226  -25.9866   43.9144 H   0  0  0  0  0  0  0  0  0  0  0  0
   20.5839  -24.9990   42.7624 H   0  0  0  0  0  0  0  0  0  0  0  0
   18.7911  -24.8874   42.7624 H   0  0  0  0  0  0  0  0  0  0  0  0
   20.6015  -26.9984   41.6192 H   0  0  0  0  0  0  0  0  0  0  0  0
   19.0154  -27.5208   42.3202 H   0  0  0  0  0  0  0  0  0  0  0  0
   17.7771  -26.1976   40.8048 H   0  0  0  0  0  0  0  0  0  0  0  0
   19.2478  -25.2514   40.3209 H   0  0  0  0  0  0  0  0  0  0  0  0
   19.2678  -28.8896   40.7915 H   0  0  0  0  0  0  0  0  0  0  0  0
   19.7038  -30.5372   38.9871 H   0  0  0  0  0  0  0  0  0  0  0  0
   19.0005  -33.8191   37.1333 H   0  0  0  0  0  0  0  0  0  0  0  0
   19.2649  -35.7162   35.5313 H   0  0  0  0  0  0  0  0  0  0  0  0
   20.1196  -35.2963   33.2258 H   0  0  0  0  0  0  0  0  0  0  0  0
   20.2610  -32.5820   31.6180 H   0  0  0  0  0  0  0  0  0  0  0  0
   19.9500  -27.7740   34.5250 H   0  0  0  0  0  0  0  0  0  0  0  0
   19.4580  -27.3848   36.0524 H   0  0  0  0  0  0  0  0  0  0  0  0
   18.0545  -25.0482   38.3004 H   0  0  0  0  0  0  0  0  0  0  0  0
  1  2  1  0
  2  3  1  0
  3  4  1  0
  4  5  2  0
  5  6  1  0
  6  7  2  0
  7  8  1  0
  8  9  1  0
  9 10  1  0
 10 11  2  0
 11 12  1  0
 12 13  2  0
 13 14  1  0
 14 15  1  0
 14 16  2  0
 16 17  1  0
 17 18  2  0
 17 19  1  0
 19 20  1  0
  7 21  1  0
 21 22  2  0
 22 23  1  0
 23 24  1  0
 23 25  1  0
 22  4  1  0
 19  8  2  0
 16 10  1  0
  1 26  1  0
  1 27  1  0
  1 28  1  0
  2 29  1  0
  2 30  1  0
  3 31  1  0
  3 32  1  0
  5 33  1  0
  6 34  1  0
 11 35  1  0
 12 36  1  0
 13 37  1  0
 15 38  1  0
 20 39  1  0
 21 40  1  0
 23 41  1  0
M  END
>  <meeko>  (6) 
{"is_sidechain": [false], "free_energy": -6.924, "intermolecular_energy": -9.55, "internal_energy": -0.151}

$$$$
cand_044_out
     RDKit          3D

 41 43  0  0  0  0  0  0  0  0999 V2000
   18.1740  -26.5410   34.1340 C   0  0  0  0  0  0  0  0  0  0  0  0
   18.7170  -27.3840   35.2770 C   0  0  0  0  0  0  0  0  0  0  0  0
   17.8730  -27.2200   36.5430 C   0  0  0  0  0  0  0  0  0  0  0  0
   18.7280  -27.1870   37.7910 C   0  0  0  0  0  0  0  0  0  0  0  0
   18.9210  -28.3860   38.4960 C   0  0  0  0  0  0  0  0  0  0  0  0
   19.6850  -28.4210   39.6650 C   0  0  0  0  0  0  0  0  0  0  0  0
   20.2690  -27.2570   40.1710 C   0  0  0  0  0  0  0  0  0  0  0  0
   21.1020  -27.2690   41.3920 C   0  0  0  0  0  0  0  0  0  0  0  0
   22.1040  -28.2340   41.3520 O   0  0  0  0  0  0  0  0  0  0  0  0
   22.9550  -28.3510   42.4210 C   0  0  0  0  0  0  0  0  0  0  0  0
   23.9380  -29.3380   42.3420 C   0  0  0  0  0  0  0  0  0  0  0  0
   24.8380  -29.5100   43.3960 C   0  0  0  0  0  0  0  0  0  0  0  0
   24.7560  -28.6960   44.5270 C   0  0  0  0  0  0  0  0  0  0  0  0
   23.7730  -27.7110   44.6030 C   0  0  0  0  0  0  0  0  0  0  0  0
   23.7490  -26.9480   45.7390 O   0  0  0  0  0  0  0  0  0  0  0  0
   22.8740  -27.5400   43.5480 C   0  0  0  0  0  0  0  0  0  0  0  0
   21.8270  -26.5170   43.5870 C   0  0  0  0  0  0  0  0  0  0  0  0
   21.6940  -25.7570   44.5440 O   0  0  0  0  0  0  0  0  0  0  0  0
   20.9210  -26.4200   42.4200 C   0  0  0  0  0  0  0  0  0  0  0  0
   19.9460  -25.4390   42.4610 O   0  0  0  0  0  0  0  0  0  0  0  0
   20.0820  -26.0580   39.4650 C   0  0  0  0  0  0  0  0  0  0  0  0
   19.3120  -26.0020   38.2840 C   0  0  0  0  0  0  0  0  0  0  0  0
   19.1690  -24.6760   37.5720 C   0  0  0  0  0  0  0  0  0  0  0  0
   17.9210  -24.1400   37.6800 F   0  0  0  0  0  0  0  0  0  0  0  0
   20.0170  -23.7120   38.0370 F   0  0  0  0  0  0  0  0  0  0  0  0
   17.6209  -25.6823   34.5423 H   0  0  0  0  0  0  0  0  0  0  0  0
   19.0092  -26.1791   33.5164 H   0  0  0  0  0  0  0  0  0  0  0  0
   17.4991  -27.1518   33.5164 H   0  0  0  0  0  0  0  0  0  0  0  0
   18.7090  -28.4421   34.9763 H   0  0  0  0  0  0  0  0  0  0  0  0
   19.7409  -27.0483   35.4981 H   0  0  0  0  0  0  0  0  0  0  0  0
   17.3079  -26.2788   36.4742 H   0  0  0  0  0  0  0  0  0  0  0  0
   17.1966  -28.0844   36.6160 H   0  0  0  0  0  0  0  0  0  0  0  0
   18.4629  -29.3133   38.1214 H   0  0  0  0  0  0  0  0  0  0  0  0
   19.8284  -29.3754   40.1928 H   0  0  0  0  0  0  0  0  0  0  0  0
   24.0040  -29.9797   41.4510 H   0  0  0  0  0  0  0  0  0  0  0  0
   25.6129  -30.2883   43.3348 H   0  0  0  0  0  0  0  0  0  0  0  0
   25.4657  -28.8317   45.3564 H   0  0  0  0  0  0  0  0  0  0  0  0
   23.8090  -27.3590   46.5800 H   0  0  0  0  0  0  0  0  0  0  0  0
   19.6390  -25.0500   41.6660 H   0  0  0  0  0  0  0  0  0  0  0  0
   20.5488  -25.1365   39.8431 H   0  0  0  0  0  0  0  0  0  0  0  0
   19.4035  -24.9362   36.5293 H   0  0  0  0  0  0  0  0  0  0  0  0
  1  2  1  0
  2  3  1  0
  3  4  1  0
  4  5  2  0
  5  6  1  0
  6  7  2  0
  7  8  1  0
  8  9  1  0
  9 10  1  0
 10 11  2  0
 11 12  1  0
 12 13  2  0
 13 14  1  0
 14 15  1  0
 14 16  2  0
 16 17  1  0
 17 18  2  0
 17 19  1  0
 19 20  1  0
  7 21  1  0
 21 22  2  0
 22 23  1  0
 23 24  1  0
 23 25  1  0
 22  4  1  0
 19  8  2  0
 16 10  1  0
  1 26  1  0
  1 27  1  0
  1 28  1  0
  2 29  1  0
  2 30  1  0
  3 31  1  0
  3 32  1  0
  5 33  1  0
  6 34  1  0
 11 35  1  0
 12 36  1  0
 13 37  1  0
 15 38  1  0
 20 39  1  0
 21 40  1  0
 23 41  1  0
M  END
>  <meeko>  (7) 
{"is_sidechain": [false], "free_energy": -6.894, "intermolecular_energy": -9.137, "internal_energy": -0.525}

$$$$
cand_044_out
     RDKit          3D

 41 43  0  0  0  0  0  0  0  0999 V2000
   18.8150  -23.4720   44.6600 C   0  0  0  0  0  0  0  0  0  0  0  0
   19.5730  -23.8970   43.4120 C   0  0  0  0  0  0  0  0  0  0  0  0
   19.9800  -25.3700   43.4800 C   0  0  0  0  0  0  0  0  0  0  0  0
   19.9710  -26.0210   42.1130 C   0  0  0  0  0  0  0  0  0  0  0  0
   18.9320  -25.6930   41.2280 C   0  0  0  0  0  0  0  0  0  0  0  0
   18.8560  -26.2700   39.9580 C   0  0  0  0  0  0  0  0  0  0  0  0
   19.8100  -27.2030   39.5410 C   0  0  0  0  0  0  0  0  0  0  0  0
   19.7680  -27.8120   38.1940 C   0  0  0  0  0  0  0  0  0  0  0  0
   19.9040  -29.1960   38.2230 O   0  0  0  0  0  0  0  0  0  0  0  0
   19.8770  -29.8890   37.0400 C   0  0  0  0  0  0  0  0  0  0  0  0
   20.0270  -31.2750   37.1150 C   0  0  0  0  0  0  0  0  0  0  0  0
   20.0090  -32.0410   35.9480 C   0  0  0  0  0  0  0  0  0  0  0  0
   19.8390  -31.4250   34.7080 C   0  0  0  0  0  0  0  0  0  0  0  0
   19.6890  -30.0410   34.6360 C   0  0  0  0  0  0  0  0  0  0  0  0
   19.5260  -29.5010   33.3890 O   0  0  0  0  0  0  0  0  0  0  0  0
   19.7080  -29.2750   35.8030 C   0  0  0  0  0  0  0  0  0  0  0  0
   19.5530  -27.8200   35.7730 C   0  0  0  0  0  0  0  0  0  0  0  0
   19.3930  -27.2040   34.7210 O   0  0  0  0  0  0  0  0  0  0  0  0
   19.5920  -27.0990   37.0660 C   0  0  0  0  0  0  0  0  0  0  0  0
   19.4290  -25.7260   37.0260 O   0  0  0  0  0  0  0  0  0  0  0  0
   20.8520  -27.5280   40.4230 C   0  0  0  0  0  0  0  0  0  0  0  0
   20.9450  -26.9580   41.7090 C   0  0  0  0  0  0  0  0  0  0  0  0
   22.1050  -27.3480   42.5960 C   0  0  0  0  0  0  0  0  0  0  0  0
   21.7190  -27.9780   43.7400 F   0  0  0  0  0  0  0  0  0  0  0  0
   22.9880  -28.1990   41.9960 F   0  0  0  0  0  0  0  0  0  0  0  0
   19.3746  -23.7858   45.5535 H   0  0  0  0  0  0  0  0  0  0  0  0
   18.7003  -22.3780   44.6646 H   0  0  0  0  0  0  0  0  0  0  0  0
   17.8218  -23.9448   44.6646 H   0  0  0  0  0  0  0  0  0  0  0  0
   18.9296  -23.7438   42.5331 H   0  0  0  0  0  0  0  0  0  0  0  0
   20.4865  -23.2887   43.3382 H   0  0  0  0  0  0  0  0  0  0  0  0
   20.9940  -25.4399   43.9007 H   0  0  0  0  0  0  0  0  0  0  0  0
   19.2511  -25.8966   44.1136 H   0  0  0  0  0  0  0  0  0  0  0  0
   18.1645  -24.9693   41.5398 H   0  0  0  0  0  0  0  0  0  0  0  0
   18.0376  -25.9875   39.2795 H   0  0  0  0  0  0  0  0  0  0  0  0
   20.1592  -31.7627   38.0921 H   0  0  0  0  0  0  0  0  0  0  0  0
   20.1292  -33.1329   36.0064 H   0  0  0  0  0  0  0  0  0  0  0  0
   19.8234  -32.0299   33.7894 H   0  0  0  0  0  0  0  0  0  0  0  0
   19.6090  -30.0440   32.6290 H   0  0  0  0  0  0  0  0  0  0  0  0
   18.6230  -25.3590   36.7210 H   0  0  0  0  0  0  0  0  0  0  0  0
   21.6185  -28.2485   40.1015 H   0  0  0  0  0  0  0  0  0  0  0  0
   22.5780  -26.3791   42.8140 H   0  0  0  0  0  0  0  0  0  0  0  0
  1  2  1  0
  2  3  1  0
  3  4  1  0
  4  5  2  0
  5  6  1  0
  6  7  2  0
  7  8  1  0
  8  9  1  0
  9 10  1  0
 10 11  2  0
 11 12  1  0
 12 13  2  0
 13 14  1  0
 14 15  1  0
 14 16  2  0
 16 17  1  0
 17 18  2  0
 17 19  1  0
 19 20  1  0
  7 21  1  0
 21 22  2  0
 22 23  1  0
 23 24  1  0
 23 25  1  0
 22  4  1  0
 19  8  2  0
 16 10  1  0
  1 26  1  0
  1 27  1  0
  1 28  1  0
  2 29  1  0
  2 30  1  0
  3 31  1  0
  3 32  1  0
  5 33  1  0
  6 34  1  0
 11 35  1  0
 12 36  1  0
 13 37  1  0
 15 38  1  0
 20 39  1  0
 21 40  1  0
 23 41  1  0
M  END
>  <meeko>  (8) 
{"is_sidechain": [false], "free_energy": -6.878, "intermolecular_energy": -9.2, "internal_energy": -0.442}

$$$$
cand_044_out
     RDKit          3D

 41 43  0  0  0  0  0  0  0  0999 V2000
   19.0890  -35.4690   38.5450 C   0  0  0  0  0  0  0  0  0  0  0  0
   19.3520  -33.9950   38.8100 C   0  0  0  0  0  0  0  0  0  0  0  0
   19.3520  -33.1860   37.5120 C   0  0  0  0  0  0  0  0  0  0  0  0
   19.3820  -31.6950   37.7760 C   0  0  0  0  0  0  0  0  0  0  0  0
   18.9720  -31.2360   39.0380 C   0  0  0  0  0  0  0  0  0  0  0  0
   18.9590  -29.8730   39.3410 C   0  0  0  0  0  0  0  0  0  0  0  0
   19.3450  -28.9270   38.3870 C   0  0  0  0  0  0  0  0  0  0  0  0
   19.3640  -27.4790   38.6890 C   0  0  0  0  0  0  0  0  0  0  0  0
   18.4800  -26.7520   37.8990 O   0  0  0  0  0  0  0  0  0  0  0  0
   18.3930  -25.3950   38.0790 C   0  0  0  0  0  0  0  0  0  0  0  0
   17.5000  -24.7040   37.2590 C   0  0  0  0  0  0  0  0  0  0  0  0
   17.3620  -23.3200   37.3900 C   0  0  0  0  0  0  0  0  0  0  0  0
   18.1150  -22.6280   38.3400 C   0  0  0  0  0  0  0  0  0  0  0  0
   19.0050  -23.3210   39.1580 C   0  0  0  0  0  0  0  0  0  0  0  0
   19.7110  -22.5820   40.0680 O   0  0  0  0  0  0  0  0  0  0  0  0
   19.1430  -24.7050   39.0260 C   0  0  0  0  0  0  0  0  0  0  0  0
   20.0650  -25.4710   39.8650 C   0  0  0  0  0  0  0  0  0  0  0  0
   20.7580  -24.9350   40.7280 O   0  0  0  0  0  0  0  0  0  0  0  0
   20.1410  -26.9330   39.6430 C   0  0  0  0  0  0  0  0  0  0  0  0
   21.0040  -27.6490   40.4520 O   0  0  0  0  0  0  0  0  0  0  0  0
   19.7600  -29.3840   37.1270 C   0  0  0  0  0  0  0  0  0  0  0  0
   19.7780  -30.7560   36.8010 C   0  0  0  0  0  0  0  0  0  0  0  0
   20.2520  -31.1710   35.4270 C   0  0  0  0  0  0  0  0  0  0  0  0
   19.6470  -30.4830   34.4190 F   0  0  0  0  0  0  0  0  0  0  0  0
   21.5910  -30.9910   35.2350 F   0  0  0  0  0  0  0  0  0  0  0  0
   18.9938  -36.0024   39.5023 H   0  0  0  0  0  0  0  0  0  0  0  0
   18.1573  -35.5777   37.9705 H   0  0  0  0  0  0  0  0  0  0  0  0
   19.9256  -35.8932   37.9705 H   0  0  0  0  0  0  0  0  0  0  0  0
   18.5669  -33.6052   39.4747 H   0  0  0  0  0  0  0  0  0  0  0  0
   20.3429  -33.8988   39.2779 H   0  0  0  0  0  0  0  0  0  0  0  0
   20.2387  -33.4606   36.9218 H   0  0  0  0  0  0  0  0  0  0  0  0
   18.4253  -33.4171   36.9662 H   0  0  0  0  0  0  0  0  0  0  0  0
   18.6557  -31.9625   39.8010 H   0  0  0  0  0  0  0  0  0  0  0  0
   18.6418  -29.5404   40.3404 H   0  0  0  0  0  0  0  0  0  0  0  0
   16.9055  -25.2483   36.5105 H   0  0  0  0  0  0  0  0  0  0  0  0
   16.6588  -22.7747   36.7434 H   0  0  0  0  0  0  0  0  0  0  0  0
   18.0061  -21.5382   38.4426 H   0  0  0  0  0  0  0  0  0  0  0  0
   20.5850  -22.3060   39.8700 H   0  0  0  0  0  0  0  0  0  0  0  0
   20.6680  -28.2930   41.0420 H   0  0  0  0  0  0  0  0  0  0  0  0
   20.0805  -28.6512   36.3718 H   0  0  0  0  0  0  0  0  0  0  0  0
   19.9902  -32.2389   35.3939 H   0  0  0  0  0  0  0  0  0  0  0  0
  1  2  1  0
  2  3  1  0
  3  4  1  0
  4  5  2  0
  5  6  1  0
  6  7  2  0
  7  8  1  0
  8  9  1  0
  9 10  1  0
 10 11  2  0
 11 12  1  0
 12 13  2  0
 13 14  1  0
 14 15  1  0
 14 16  2  0
 16 17  1  0
 17 18  2  0
 17 19  1  0
 19 20  1  0
  7 21  1  0
 21 22  2  0
 22 23  1  0
 23 24  1  0
 23 25  1  0
 22  4  1  0
 19  8  2  0
 16 10  1  0
  1 26  1  0
  1 27  1  0
  1 28  1  0
  2 29  1  0
  2 30  1  0
  3 31  1  0
  3 32  1  0
  5 33  1  0
  6 34  1  0
 11 35  1  0
 12 36  1  0
 13 37  1  0
 15 38  1  0
 20 39  1  0
 21 40  1  0
 23 41  1  0
M  END
>  <meeko>  (9) 
{"is_sidechain": [false], "free_energy": -6.815, "intermolecular_energy": -8.939, "internal_energy": -0.621}

$$$$
