cand_034_out
     RDKit          3D

 40 42  0  0  0  0  0  0  0  0999 V2000
   19.6000  -23.8850   39.9190 C   0  0  0  0  0  0  0  0  0  0  0  0
   19.8100  -25.0370   40.8030 N   0  0  0  0  0  0  0  0  0  0  0  0
   18.9840  -25.0030   42.0200 C   0  0  0  0  0  0  0  0  0  0  0  0
   19.7170  -26.2940   40.1680 C   0  0  0  0  0  0  0  0  0  0  0  0
   18.7940  -26.5480   39.1420 C   0  0  0  0  0  0  0  0  0  0  0  0
   18.7040  -27.8090   38.5410 C   0  0  0  0  0  0  0  0  0  0  0  0
   19.5350  -28.8560   38.9470 C   0  0  0  0  0  0  0  0  0  0  0  0
   19.4380  -30.2070   38.3520 C   0  0  0  0  0  0  0  0  0  0  0  0
   19.0600  -31.1770   39.2730 O   0  0  0  0  0  0  0  0  0  0  0  0
   18.9370  -32.4770   38.8540 C   0  0  0  0  0  0  0  0  0  0  0  0
   18.5460  -33.4150   39.8110 C   0  0  0  0  0  0  0  0  0  0  0  0
   18.4020  -34.7570   39.4520 C   0  0  0  0  0  0  0  0  0  0  0  0
   18.6490  -35.1600   38.1390 C   0  0  0  0  0  0  0  0  0  0  0  0
   19.0400  -34.2230   37.1860 C   0  0  0  0  0  0  0  0  0  0  0  0
   19.2670  -34.6850   35.9190 O   0  0  0  0  0  0  0  0  0  0  0  0
   19.1830  -32.8790   37.5460 C   0  0  0  0  0  0  0  0  0  0  0  0
   19.5920  -31.8610   36.5780 C   0  0  0  0  0  0  0  0  0  0  0  0
   19.8340  -32.1380   35.4050 O   0  0  0  0  0  0  0  0  0  0  0  0
   19.7110  -30.4660   37.0590 C   0  0  0  0  0  0  0  0  0  0  0  0
   20.1140  -29.5150   36.1390 O   0  0  0  0  0  0  0  0  0  0  0  0
   20.4490  -28.6120   39.9810 C   0  0  0  0  0  0  0  0  0  0  0  0
   20.5560  -27.3440   40.5870 C   0  0  0  0  0  0  0  0  0  0  0  0
   21.5560  -27.1410   41.6950 C   0  0  0  0  0  0  0  0  0  0  0  0
   22.6790  -27.9080   41.5390 F   0  0  0  0  0  0  0  0  0  0  0  0
   21.0580  -27.4880   42.9180 F   0  0  0  0  0  0  0  0  0  0  0  0
   19.4355  -22.9824   40.5258 H   0  0  0  0  0  0  0  0  0  0  0  0
   20.4871  -23.7434   39.2842 H   0  0  0  0  0  0  0  0  0  0  0  0
   18.7200  -24.0655   39.2842 H   0  0  0  0  0  0  0  0  0  0  0  0
   19.6353  -25.0298   42.9061 H   0  0  0  0  0  0  0  0  0  0  0  0
   18.3865  -24.0795   42.0319 H   0  0  0  0  0  0  0  0  0  0  0  0
   18.3126  -25.8743   42.0319 H   0  0  0  0  0  0  0  0  0  0  0  0
   18.1282  -25.7405   38.8034 H   0  0  0  0  0  0  0  0  0  0  0  0
   17.9700  -27.9776   37.7392 H   0  0  0  0  0  0  0  0  0  0  0  0
   18.3516  -33.0977   40.8462 H   0  0  0  0  0  0  0  0  0  0  0  0
   18.0935  -35.4971   40.2051 H   0  0  0  0  0  0  0  0  0  0  0  0
   18.5349  -36.2171   37.8570 H   0  0  0  0  0  0  0  0  0  0  0  0
   19.6280  -35.5400   35.7900 H   0  0  0  0  0  0  0  0  0  0  0  0
   19.5030  -29.1850   35.5100 H   0  0  0  0  0  0  0  0  0  0  0  0
   21.0982  -29.4294   40.3278 H   0  0  0  0  0  0  0  0  0  0  0  0
   21.7914  -26.0678   41.6428 H   0  0  0  0  0  0  0  0  0  0  0  0
  1  2  1  0
  2  3  1  0
  2  4  1  0
  4  5  2  0
  5  6  1  0
  6  7  2  0
  7  8  1  0
  8  9  1  0
  9 10  1  0
 10 11  2  0
 11 12  1  0
 12 13  2  0
 13 14  1  0
 14 15  1  0
 14 16  2  0
 16 17  1  0
 17 18  2  0
 17 19  1  0
 19 20  1  0
  7 21  1  0
 21 22  2  0
 22 23  1  0
 23 24  1  0
 23 25  1  0
 22  4  1  0
 19  8  2  0
 16 10  1  0
  1 26  1  0
  1 27  1  0
  1 28  1  0
  3 29  1  0
  3 30  1  0
  3 31  1  0
  5 32  1  0
  6 33  1  0
 11 34  1  0
 12 35  1  0
 13 36  1  0
 15 37  1  0
 20 38  1  0
 21 39  1  0
 23 40  1  0
M  END
>  <meeko>  (1) 
{"is_sidechain": [false], "free_energy": -7.824, "intermolecular_energy": -9.654, "internal_energy": -0.402}

$$$$
cand_034_out
     RDKit          3D

 40 42  0  0  0  0  0  0  0  0999 V2000
   18.5800  -34.4650   36.1810 C   0  0  0  0  0  0  0  0  0  0  0  0
   19.7100  -33.5380   36.0610 N   0  0  0  0  0  0  0  0  0  0  0  0
   20.0900  -33.2510   34.6700 C   0  0  0  0  0  0  0  0  0  0  0  0
   19.5760  -32.3430   36.8010 C   0  0  0  0  0  0  0  0  0  0  0  0
   19.8170  -31.0810   36.2360 C   0  0  0  0  0  0  0  0  0  0  0  0
   19.7000  -29.9110   36.9950 C   0  0  0  0  0  0  0  0  0  0  0  0
   19.3360  -29.9640   38.3420 C   0  0  0  0  0  0  0  0  0  0  0  0
   19.2370  -28.7460   39.1750 C   0  0  0  0  0  0  0  0  0  0  0  0
   20.1610  -28.7250   40.2130 O   0  0  0  0  0  0  0  0  0  0  0  0
   20.1750  -27.6520   41.0670 C   0  0  0  0  0  0  0  0  0  0  0  0
   21.1250  -27.6690   42.0890 C   0  0  0  0  0  0  0  0  0  0  0  0
   21.1940  -26.6080   42.9940 C   0  0  0  0  0  0  0  0  0  0  0  0
   20.3120  -25.5310   42.8780 C   0  0  0  0  0  0  0  0  0  0  0  0
   19.3640  -25.5170   41.8580 C   0  0  0  0  0  0  0  0  0  0  0  0
   18.5320  -24.4330   41.8020 O   0  0  0  0  0  0  0  0  0  0  0  0
   19.2970  -26.5800   40.9520 C   0  0  0  0  0  0  0  0  0  0  0  0
   18.3160  -26.6060   39.8660 C   0  0  0  0  0  0  0  0  0  0  0  0
   17.5030  -25.6990   39.7020 O   0  0  0  0  0  0  0  0  0  0  0  0
   18.3310  -27.7750   38.9580 C   0  0  0  0  0  0  0  0  0  0  0  0
   17.3890  -27.7960   37.9450 O   0  0  0  0  0  0  0  0  0  0  0  0
   19.1080  -31.2230   38.9160 C   0  0  0  0  0  0  0  0  0  0  0  0
   19.2130  -32.4080   38.1600 C   0  0  0  0  0  0  0  0  0  0  0  0
   18.9570  -33.7330   38.8310 C   0  0  0  0  0  0  0  0  0  0  0  0
   18.4710  -33.5950   40.1020 F   0  0  0  0  0  0  0  0  0  0  0  0
   20.0930  -34.4780   38.9650 F   0  0  0  0  0  0  0  0  0  0  0  0
   18.3631  -34.6430   37.2446 H   0  0  0  0  0  0  0  0  0  0  0  0
   17.6950  -34.0293   35.6942 H   0  0  0  0  0  0  0  0  0  0  0  0
   18.8343  -35.4181   35.6942 H   0  0  0  0  0  0  0  0  0  0  0  0
   20.9677  -32.5881   34.6590 H   0  0  0  0  0  0  0  0  0  0  0  0
   20.3346  -34.1918   34.1551 H   0  0  0  0  0  0  0  0  0  0  0  0
   19.2520  -32.7584   34.1551 H   0  0  0  0  0  0  0  0  0  0  0  0
   20.1033  -31.0102   35.1763 H   0  0  0  0  0  0  0  0  0  0  0  0
   19.8974  -28.9367   36.5241 H   0  0  0  0  0  0  0  0  0  0  0  0
   21.8189  -28.5175   42.1816 H   0  0  0  0  0  0  0  0  0  0  0  0
   21.9435  -26.6202   43.7990 H   0  0  0  0  0  0  0  0  0  0  0  0
   20.3662  -24.6953   43.5912 H   0  0  0  0  0  0  0  0  0  0  0  0
   17.9340  -24.3370   41.0870 H   0  0  0  0  0  0  0  0  0  0  0  0
   16.5080  -27.5290   38.1200 H   0  0  0  0  0  0  0  0  0  0  0  0
   18.8410  -31.2873   39.9812 H   0  0  0  0  0  0  0  0  0  0  0  0
   18.2255  -34.2242   38.1725 H   0  0  0  0  0  0  0  0  0  0  0  0
  1  2  1  0
  2  3  1  0
  2  4  1  0
  4  5  2  0
  5  6  1  0
  6  7  2  0
  7  8  1  0
  8  9  1  0
  9 10  1  0
 10 11  2  0
 11 12  1  0
 12 13  2  0
 13 14  1  0
 14 15  1  0
 14 16  2  0
 16 17  1  0
 17 18  2  0
 17 19  1  0
 19 20  1  0
  7 21  1  0
 21 22  2  0
 22 23  1  0
 23 24  1  0
 23 25  1  0
 22  4  1  0
 19  8  2  0
 16 10  1  0
  1 26  1  0
  1 27  1  0
  1 28  1  0
  3 29  1  0
  3 30  1  0
  3 31  1  0
  5 32  1  0
  6 33  1  0
 11 34  1  0
 12 35  1  0
 13 36  1  0
 15 37  1  0
 20 38  1  0
 21 39  1  0
 23 40  1  0
M  END
>  <meeko>  (2) 
{"is_sidechain": [false], "free_energy": -7.435, "intermolecular_energy": -9.998, "internal_energy": 0.422}

$$$$
cand_034_out
     RDKit          3D

 40 42  0  0  0  0  0  0  0  0999 V2000
   17.4830  -27.2170   35.5940 C   0  0  0  0  0  0  0  0  0  0  0  0
   18.6630  -28.0170   35.9350 N   0  0  0  0  0  0  0  0  0  0  0  0
   19.7180  -27.9770   34.9110 C   0  0  0  0  0  0  0  0  0  0  0  0
   19.1980  -27.7640   37.2170 C   0  0  0  0  0  0  0  0  0  0  0  0
   19.5030  -26.4670   37.6580 C   0  0  0  0  0  0  0  0  0  0  0  0
   20.0540  -26.2410   38.9250 C   0  0  0  0  0  0  0  0  0  0  0  0
   20.3160  -27.3040   39.7920 C   0  0  0  0  0  0  0  0  0  0  0  0
   20.9280  -27.0960   41.1220 C   0  0  0  0  0  0  0  0  0  0  0  0
   22.0220  -27.9230   41.3480 O   0  0  0  0  0  0  0  0  0  0  0  0
   22.6820  -27.8360   42.5480 C   0  0  0  0  0  0  0  0  0  0  0  0
   23.7810  -28.6780   42.7270 C   0  0  0  0  0  0  0  0  0  0  0  0
   24.4970  -28.6420   43.9250 C   0  0  0  0  0  0  0  0  0  0  0  0
   24.1140  -27.7660   44.9430 C   0  0  0  0  0  0  0  0  0  0  0  0
   23.0170  -26.9280   44.7620 C   0  0  0  0  0  0  0  0  0  0  0  0
   22.6970  -26.0950   45.7990 O   0  0  0  0  0  0  0  0  0  0  0  0
   22.3010  -26.9640   43.5610 C   0  0  0  0  0  0  0  0  0  0  0  0
   21.1420  -26.1020   43.3290 C   0  0  0  0  0  0  0  0  0  0  0  0
   20.7400  -25.3090   44.1790 O   0  0  0  0  0  0  0  0  0  0  0  0
   20.4550  -26.2140   42.0230 C   0  0  0  0  0  0  0  0  0  0  0  0
   19.3510  -25.4060   41.8200 O   0  0  0  0  0  0  0  0  0  0  0  0
   20.0270  -28.6030   39.3510 C   0  0  0  0  0  0  0  0  0  0  0  0
   19.4630  -28.8430   38.0820 C   0  0  0  0  0  0  0  0  0  0  0  0
   19.1750  -30.2610   37.6620 C   0  0  0  0  0  0  0  0  0  0  0  0
   18.9380  -31.0890   38.7250 F   0  0  0  0  0  0  0  0  0  0  0  0
   20.2200  -30.8310   36.9950 F   0  0  0  0  0  0  0  0  0  0  0  0
   16.9881  -26.8815   36.5173 H   0  0  0  0  0  0  0  0  0  0  0  0
   17.7917  -26.3412   35.0044 H   0  0  0  0  0  0  0  0  0  0  0  0
   16.7837  -27.8280   35.0044 H   0  0  0  0  0  0  0  0  0  0  0  0
   20.7025  -27.9397   35.4002 H   0  0  0  0  0  0  0  0  0  0  0  0
   19.6543  -28.8782   34.2835 H   0  0  0  0  0  0  0  0  0  0  0  0
   19.5862  -27.0832   34.2835 H   0  0  0  0  0  0  0  0  0  0  0  0
   19.3053  -25.6115   36.9954 H   0  0  0  0  0  0  0  0  0  0  0  0
   20.2835  -25.2129   39.2417 H   0  0  0  0  0  0  0  0  0  0  0  0
   24.0823  -29.3686   41.9256 H   0  0  0  0  0  0  0  0  0  0  0  0
   25.3637  -29.3043   44.0672 H   0  0  0  0  0  0  0  0  0  0  0  0
   24.6784  -27.7381   45.8868 H   0  0  0  0  0  0  0  0  0  0  0  0
   23.2600  -25.3790   46.0160 H   0  0  0  0  0  0  0  0  0  0  0  0
   19.4110  -24.4850   41.9800 H   0  0  0  0  0  0  0  0  0  0  0  0
   20.2457  -29.4552   40.0112 H   0  0  0  0  0  0  0  0  0  0  0  0
   18.2869  -30.1683   37.0196 H   0  0  0  0  0  0  0  0  0  0  0  0
  1  2  1  0
  2  3  1  0
  2  4  1  0
  4  5  2  0
  5  6  1  0
  6  7  2  0
  7  8  1  0
  8  9  1  0
  9 10  1  0
 10 11  2  0
 11 12  1  0
 12 13  2  0
 13 14  1  0
 14 15  1  0
 14 16  2  0
 16 17  1  0
 17 18  2  0
 17 19  1  0
 19 20  1  0
  7 21  1  0
 21 22  2  0
 22 23  1  0
 23 24  1  0
 23 25  1  0
 22  4  1  0
 19  8  2  0
 16 10  1  0
  1 26  1  0
  1 27  1  0
  1 28  1  0
  3 29  1  0
  3 30  1  0
  3 31  1  0
  5 32  1  0
  6 33  1  0
 11 34  1  0
 12 35  1  0
 13 36  1  0
 15 37  1  0
 20 38  1  0
 21 39  1  0
 23 40  1  0
M  END
>  <meeko>  (3) 
{"is_sidechain": [false], "free_energy": -6.979, "intermolecular_energy": -8.582, "internal_energy": -0.432}

$$$$
cand_034_out
     RDKit          3D

 40 42  0  0  0  0  0  0  0  0999 V2000
   18.2690  -20.1530   48.5880 C   0  0  0  0  0  0  0  0  0  0  0  0
   19.6620  -20.6070   48.5330 N   0  0  0  0  0  0  0  0  0  0  0  0
   20.2250  -20.9410   49.8500 C   0  0  0  0  0  0  0  0  0  0  0  0
   19.9110  -21.6400   47.6040 C   0  0  0  0  0  0  0  0  0  0  0  0
   19.3010  -22.9000   47.7050 C   0  0  0  0  0  0  0  0  0  0  0  0
   19.5800  -23.9170   46.7840 C   0  0  0  0  0  0  0  0  0  0  0  0
   20.4760  -23.7080   45.7340 C   0  0  0  0  0  0  0  0  0  0  0  0
   20.8130  -24.7750   44.7680 C   0  0  0  0  0  0  0  0  0  0  0  0
   22.0110  -25.4140   45.0650 O   0  0  0  0  0  0  0  0  0  0  0  0
   22.4460  -26.4240   44.2450 C   0  0  0  0  0  0  0  0  0  0  0  0
   23.6490  -27.0430   44.5880 C   0  0  0  0  0  0  0  0  0  0  0  0
   24.1500  -28.0780   43.7950 C   0  0  0  0  0  0  0  0  0  0  0  0
   23.4490  -28.4930   42.6610 C   0  0  0  0  0  0  0  0  0  0  0  0
   22.2490  -27.8730   42.3210 C   0  0  0  0  0  0  0  0  0  0  0  0
   21.6140  -28.3270   41.1970 O   0  0  0  0  0  0  0  0  0  0  0  0
   21.7480  -26.8370   43.1160 C   0  0  0  0  0  0  0  0  0  0  0  0
   20.4920  -26.1580   42.7940 C   0  0  0  0  0  0  0  0  0  0  0  0
   19.8220  -26.4610   41.8100 O   0  0  0  0  0  0  0  0  0  0  0  0
   20.0470  -25.0760   43.7020 C   0  0  0  0  0  0  0  0  0  0  0  0
   18.8670  -24.4300   43.3800 O   0  0  0  0  0  0  0  0  0  0  0  0
   21.0990  -22.4550   45.6370 C   0  0  0  0  0  0  0  0  0  0  0  0
   20.8200  -21.4200   46.5510 C   0  0  0  0  0  0  0  0  0  0  0  0
   21.5210  -20.0950   46.3970 C   0  0  0  0  0  0  0  0  0  0  0  0
   21.6580  -19.7190   45.0890 F   0  0  0  0  0  0  0  0  0  0  0  0
   22.7910  -20.1160   46.8950 F   0  0  0  0  0  0  0  0  0  0  0  0
   17.9576  -20.0515   49.6381 H   0  0  0  0  0  0  0  0  0  0  0  0
   18.1804  -19.1795   48.0836 H   0  0  0  0  0  0  0  0  0  0  0  0
   17.6238  -20.8874   48.0836 H   0  0  0  0  0  0  0  0  0  0  0  0
   19.5666  -20.5504   50.6399 H   0  0  0  0  0  0  0  0  0  0  0  0
   20.3065  -22.0336   49.9475 H   0  0  0  0  0  0  0  0  0  0  0  0
   21.2230  -20.4887   49.9475 H   0  0  0  0  0  0  0  0  0  0  0  0
   18.5907  -23.0920   48.5227 H   0  0  0  0  0  0  0  0  0  0  0  0
   19.0863  -24.8943   46.8892 H   0  0  0  0  0  0  0  0  0  0  0  0
   24.2016  -26.7163   45.4813 H   0  0  0  0  0  0  0  0  0  0  0  0
   25.0980  -28.5667   44.0642 H   0  0  0  0  0  0  0  0  0  0  0  0
   23.8439  -29.3084   42.0371 H   0  0  0  0  0  0  0  0  0  0  0  0
   22.0880  -28.8260   40.5610 H   0  0  0  0  0  0  0  0  0  0  0  0
   18.6290  -23.6410   43.8260 H   0  0  0  0  0  0  0  0  0  0  0  0
   21.8226  -22.2763   44.8280 H   0  0  0  0  0  0  0  0  0  0  0  0
   20.8802  -19.3931   46.9508 H   0  0  0  0  0  0  0  0  0  0  0  0
  1  2  1  0
  2  3  1  0
  2  4  1  0
  4  5  2  0
  5  6  1  0
  6  7  2  0
  7  8  1  0
  8  9  1  0
  9 10  1  0
 10 11  2  0
 11 12  1  0
 12 13  2  0
 13 14  1  0
 14 15  1  0
 14 16  2  0
 16 17  1  0
 17 18  2  0
 17 19  1  0
 19 20  1  0
  7 21  1  0
 21 22  2  0
 22 23  1  0
 23 24  1  0
 23 25  1  0
 22  4  1  0
 19  8  2  0
 16 10  1  0
  1 26  1  0
  1 27  1  0
  1 28  1  0
  3 29  1  0
  3 30  1  0
  3 31  1  0
  5 32  1  0
  6 33  1  0
 11 34  1  0
 12 35  1  0
 13 36  1  0
 15 37  1  0
 20 38  1  0
 21 39  1  0
 23 40  1  0
M  END
>  <meeko>  (4) 
{"is_sidechain": [false], "free_energy": -6.905, "intermolecular_energy": -8.261, "internal_energy": -0.661}

$$$$
cand_034_out
     RDKit          3D

 40 42  0  0  0  0  0  0  0  0999 V2000
   19.6130  -34.3810   38.6940 C   0  0  0  0  0  0  0  0  0  0  0  0
   19.3410  -33.4930   37.5600 N   0  0  0  0  0  0  0  0  0  0  0  0
   18.1150  -33.8360   36.8230 C   0  0  0  0  0  0  0  0  0  0  0  0
   19.3720  -32.1150   37.8670 C   0  0  0  0  0  0  0  0  0  0  0  0
   18.8990  -31.6100   39.0890 C   0  0  0  0  0  0  0  0  0  0  0  0
   18.9190  -30.2380   39.3640 C   0  0  0  0  0  0  0  0  0  0  0  0
   19.4130  -29.3270   38.4270 C   0  0  0  0  0  0  0  0  0  0  0  0
   19.4150  -27.8700   38.6800 C   0  0  0  0  0  0  0  0  0  0  0  0
   18.5910  -27.1690   37.8060 O   0  0  0  0  0  0  0  0  0  0  0  0
   18.5040  -25.8060   37.9250 C   0  0  0  0  0  0  0  0  0  0  0  0
   17.6580  -25.1450   37.0330 C   0  0  0  0  0  0  0  0  0  0  0  0
   17.5230  -23.7570   37.1000 C   0  0  0  0  0  0  0  0  0  0  0  0
   18.2330  -23.0300   38.0570 C   0  0  0  0  0  0  0  0  0  0  0  0
   19.0770  -23.6910   38.9450 C   0  0  0  0  0  0  0  0  0  0  0  0
   19.7440  -22.9190   39.8570 O   0  0  0  0  0  0  0  0  0  0  0  0
   19.2110  -25.0810   38.8790 C   0  0  0  0  0  0  0  0  0  0  0  0
   20.0880  -25.8160   39.7920 C   0  0  0  0  0  0  0  0  0  0  0  0
   20.7510  -25.2470   40.6560 O   0  0  0  0  0  0  0  0  0  0  0  0
   20.1560  -27.2870   39.6410 C   0  0  0  0  0  0  0  0  0  0  0  0
   21.0000  -27.9690   40.4990 O   0  0  0  0  0  0  0  0  0  0  0  0
   19.8730  -29.8240   37.2000 C   0  0  0  0  0  0  0  0  0  0  0  0
   19.8680  -31.2050   36.9150 C   0  0  0  0  0  0  0  0  0  0  0  0
   20.3750  -31.6810   35.5790 C   0  0  0  0  0  0  0  0  0  0  0  0
   21.4780  -30.9910   35.1560 F   0  0  0  0  0  0  0  0  0  0  0  0
   19.4540  -31.5200   34.5840 F   0  0  0  0  0  0  0  0  0  0  0  0
   19.4461  -33.8360   39.6348 H   0  0  0  0  0  0  0  0  0  0  0  0
   18.9398  -35.2498   38.6491 H   0  0  0  0  0  0  0  0  0  0  0  0
   20.6573  -34.7237   38.6491 H   0  0  0  0  0  0  0  0  0  0  0  0
   17.3090  -34.0615   37.5368 H   0  0  0  0  0  0  0  0  0  0  0  0
   17.8176  -32.9866   36.1905 H   0  0  0  0  0  0  0  0  0  0  0  0
   18.3016  -34.7164   36.1905 H   0  0  0  0  0  0  0  0  0  0  0  0
   18.5053  -32.3060   39.8443 H   0  0  0  0  0  0  0  0  0  0  0  0
   18.5410  -29.8722   40.3301 H   0  0  0  0  0  0  0  0  0  0  0  0
   17.0984  -25.7169   36.2782 H   0  0  0  0  0  0  0  0  0  0  0  0
   16.8561  -23.2355   36.3976 H   0  0  0  0  0  0  0  0  0  0  0  0
   18.1257  -21.9365   38.1094 H   0  0  0  0  0  0  0  0  0  0  0  0
   20.2090  -23.3230   40.5620 H   0  0  0  0  0  0  0  0  0  0  0  0
   21.3750  -28.7860   40.2340 H   0  0  0  0  0  0  0  0  0  0  0  0
   20.2467  -29.1204   36.4415 H   0  0  0  0  0  0  0  0  0  0  0  0
   20.6069  -32.7426   35.7498 H   0  0  0  0  0  0  0  0  0  0  0  0
  1  2  1  0
  2  3  1  0
  2  4  1  0
  4  5  2  0
  5  6  1  0
  6  7  2  0
  7  8  1  0
  8  9  1  0
  9 10  1  0
 10 11  2  0
 11 12  1  0
 12 13  2  0
 13 14  1  0
 14 15  1  0
 14 16  2  0
 16 17  1  0
 17 18  2  0
 17 19  1  0
 19 20  1  0
  7 21  1  0
 21 22  2  0
 22 23  1  0
 23 24  1  0
 23 25  1  0
 22  4  1  0
 19  8  2  0
 16 10  1  0
  1 26  1  0
  1 27  1  0
  1 28  1  0
  3 29  1  0
  3 30  1  0
  3 31  1  0
  5 32  1  0
  6 33  1  0
 11 34  1  0
 12 35  1  0
 13 36  1  0
 15 37  1  0
 20 38  1  0
 21 39  1  0
 23 40  1  0
M  END
>  <meeko>  (5) 
{"is_sidechain": [false], "free_energy": -6.757, "intermolecular_energy": -8.332, "internal_energy": -0.407}

$$$$
cand_034_out
     RDKit          3D

 40 42  0  0  0  0  0  0  0  0999 V2000
   18.8700  -28.0630   34.8820 C   0  0  0  0  0  0  0  0  0  0  0  0
   18.3420  -27.0970   35.8500 N   0  0  0  0  0  0  0  0  0  0  0  0
   16.8830  -27.1670   36.0160 C   0  0  0  0  0  0  0  0  0  0  0  0
   18.9910  -27.1030   37.1050 C   0  0  0  0  0  0  0  0  0  0  0  0
   19.1940  -28.2830   37.8360 C   0  0  0  0  0  0  0  0  0  0  0  0
   19.8200  -28.2630   39.0880 C   0  0  0  0  0  0  0  0  0  0  0  0
   20.2630  -27.0630   39.6480 C   0  0  0  0  0  0  0  0  0  0  0  0
   20.8960  -27.0090   40.9830 C   0  0  0  0  0  0  0  0  0  0  0  0
   21.9640  -27.8910   41.1100 O   0  0  0  0  0  0  0  0  0  0  0  0
   22.6400  -27.9470   42.3020 C   0  0  0  0  0  0  0  0  0  0  0  0
   23.7100  -28.8400   42.3800 C   0  0  0  0  0  0  0  0  0  0  0  0
   24.4410  -28.9480   43.5650 C   0  0  0  0  0  0  0  0  0  0  0  0
   24.1020  -28.1650   44.6710 C   0  0  0  0  0  0  0  0  0  0  0  0
   23.0330  -27.2770   44.5900 C   0  0  0  0  0  0  0  0  0  0  0  0
   22.7540  -26.5410   45.7100 O   0  0  0  0  0  0  0  0  0  0  0  0
   22.3020  -27.1680   43.4030 C   0  0  0  0  0  0  0  0  0  0  0  0
   21.1710  -26.2480   43.2750 C   0  0  0  0  0  0  0  0  0  0  0  0
   20.8070  -25.5320   44.2050 O   0  0  0  0  0  0  0  0  0  0  0  0
   20.4650  -26.2060   41.9740 C   0  0  0  0  0  0  0  0  0  0  0  0
   19.3880  -25.3450   41.8700 O   0  0  0  0  0  0  0  0  0  0  0  0
   20.0480  -25.8790   38.9280 C   0  0  0  0  0  0  0  0  0  0  0  0
   19.4290  -25.8870   37.6630 C   0  0  0  0  0  0  0  0  0  0  0  0
   19.2250  -24.5830   36.9360 C   0  0  0  0  0  0  0  0  0  0  0  0
   19.9870  -23.5690   37.4470 F   0  0  0  0  0  0  0  0  0  0  0  0
   17.9380  -24.1360   37.0190 F   0  0  0  0  0  0  0  0  0  0  0  0
   19.3305  -28.9055   35.4187 H   0  0  0  0  0  0  0  0  0  0  0  0
   18.0497  -28.4349   34.2505 H   0  0  0  0  0  0  0  0  0  0  0  0
   19.6259  -27.5734   34.2505 H   0  0  0  0  0  0  0  0  0  0  0  0
   16.6361  -27.1788   37.0879 H   0  0  0  0  0  0  0  0  0  0  0  0
   16.4176  -26.2902   35.5422 H   0  0  0  0  0  0  0  0  0  0  0  0
   16.5036  -28.0844   35.5422 H   0  0  0  0  0  0  0  0  0  0  0  0
   18.8549  -29.2421   37.4175 H   0  0  0  0  0  0  0  0  0  0  0  0
   19.9648  -29.2047   39.6377 H   0  0  0  0  0  0  0  0  0  0  0  0
   23.9769  -29.4575   41.5097 H   0  0  0  0  0  0  0  0  0  0  0  0
   25.2850  -29.6507   43.6275 H   0  0  0  0  0  0  0  0  0  0  0  0
   24.6785  -28.2499   45.6040 H   0  0  0  0  0  0  0  0  0  0  0  0
   23.3830  -25.9290   46.0370 H   0  0  0  0  0  0  0  0  0  0  0  0
   18.5150  -25.6820   41.9100 H   0  0  0  0  0  0  0  0  0  0  0  0
   20.3706  -24.9210   39.3617 H   0  0  0  0  0  0  0  0  0  0  0  0
   19.5082  -24.8134   35.8984 H   0  0  0  0  0  0  0  0  0  0  0  0
  1  2  1  0
  2  3  1  0
  2  4  1  0
  4  5  2  0
  5  6  1  0
  6  7  2  0
  7  8  1  0
  8  9  1  0
  9 10  1  0
 10 11  2  0
 11 12  1  0
 12 13  2  0
 13 14  1  0
 14 15  1  0
 14 16  2  0
 16 17  1  0
 17 18  2  0
 17 19  1  0
 19 20  1  0
  7 21  1  0
 21 22  2  0
 22 23  1  0
 23 24  1  0
 23 25  1  0
 22  4  1  0
 19  8  2  0
 16 10  1  0
  1 26  1  0
  1 27  1  0
  1 28  1  0
  3 29  1  0
  3 30  1  0
  3 31  1  0
  5 32  1  0
  6 33  1  0
 11 34  1  0
 12 35  1  0
 13 36  1  0
 15 37  1  0
 20 38  1  0
 21 39  1  0
 23 40  1  0
M  END
>  <meeko>  (6) 
{"is_sidechain": [false], "free_energy": -6.742, "intermolecular_energy": -8.347, "internal_energy": -0.374}

$$$$
cand_034_out
     RDKit          3D

 40 42  0  0  0  0  0  0  0  0999 V2000
   20.3930  -24.6770   49.2000 C   0  0  0  0  0  0  0  0  0  0  0  0
   20.4620  -23.6150   48.1900 N   0  0  0  0  0  0  0  0  0  0  0  0
   21.5650  -22.6680   48.4060 C   0  0  0  0  0  0  0  0  0  0  0  0
   20.4450  -24.0700   46.8530 C   0  0  0  0  0  0  0  0  0  0  0  0
   21.5210  -24.7710   46.2870 C   0  0  0  0  0  0  0  0  0  0  0  0
   21.4910  -25.1930   44.9530 C   0  0  0  0  0  0  0  0  0  0  0  0
   20.3860  -24.9270   44.1420 C   0  0  0  0  0  0  0  0  0  0  0  0
   20.3430  -25.3320   42.7200 C   0  0  0  0  0  0  0  0  0  0  0  0
   19.9130  -24.3110   41.8800 O   0  0  0  0  0  0  0  0  0  0  0  0
   19.8230  -24.5530   40.5340 C   0  0  0  0  0  0  0  0  0  0  0  0
   19.3960  -23.4960   39.7280 C   0  0  0  0  0  0  0  0  0  0  0  0
   19.2800  -23.6750   38.3480 C   0  0  0  0  0  0  0  0  0  0  0  0
   19.5900  -24.9100   37.7740 C   0  0  0  0  0  0  0  0  0  0  0  0
   20.0150  -25.9630   38.5800 C   0  0  0  0  0  0  0  0  0  0  0  0
   20.3020  -27.1450   37.9540 O   0  0  0  0  0  0  0  0  0  0  0  0
   20.1310  -25.7830   39.9620 C   0  0  0  0  0  0  0  0  0  0  0  0
   20.5720  -26.8620   40.8460 C   0  0  0  0  0  0  0  0  0  0  0  0
   20.8570  -27.9790   40.4180 O   0  0  0  0  0  0  0  0  0  0  0  0
   20.6660  -26.5670   42.2940 C   0  0  0  0  0  0  0  0  0  0  0  0
   21.0690  -27.6000   43.1220 O   0  0  0  0  0  0  0  0  0  0  0  0
   19.3150  -24.2140   44.6980 C   0  0  0  0  0  0  0  0  0  0  0  0
   19.3270  -23.7930   46.0430 C   0  0  0  0  0  0  0  0  0  0  0  0
   18.1470  -23.0290   46.5850 C   0  0  0  0  0  0  0  0  0  0  0  0
   16.9840  -23.3130   45.9220 F   0  0  0  0  0  0  0  0  0  0  0  0
   18.3010  -21.6780   46.4670 F   0  0  0  0  0  0  0  0  0  0  0  0
   20.4220  -24.2300   50.2047 H   0  0  0  0  0  0  0  0  0  0  0  0
   19.4564  -25.2404   49.0763 H   0  0  0  0  0  0  0  0  0  0  0  0
   21.2489  -25.3568   49.0763 H   0  0  0  0  0  0  0  0  0  0  0  0
   21.7245  -22.5310   49.4857 H   0  0  0  0  0  0  0  0  0  0  0  0
   22.4831  -23.0635   47.9470 H   0  0  0  0  0  0  0  0  0  0  0  0
   21.3129  -21.7007   47.9470 H   0  0  0  0  0  0  0  0  0  0  0  0
   22.4046  -24.9929   46.9035 H   0  0  0  0  0  0  0  0  0  0  0  0
   22.3494  -25.7415   44.5379 H   0  0  0  0  0  0  0  0  0  0  0  0
   19.1512  -22.5233   40.1796 H   0  0  0  0  0  0  0  0  0  0  0  0
   18.9441  -22.8425   37.7123 H   0  0  0  0  0  0  0  0  0  0  0  0
   19.4986  -25.0506   36.6869 H   0  0  0  0  0  0  0  0  0  0  0  0
   21.1380  -27.2710   37.5500 H   0  0  0  0  0  0  0  0  0  0  0  0
   21.9780  -27.7170   43.3130 H   0  0  0  0  0  0  0  0  0  0  0  0
   18.4439  -23.9773   44.0693 H   0  0  0  0  0  0  0  0  0  0  0  0
   18.0947  -23.3406   47.6386 H   0  0  0  0  0  0  0  0  0  0  0  0
  1  2  1  0
  2  3  1  0
  2  4  1  0
  4  5  2  0
  5  6  1  0
  6  7  2  0
  7  8  1  0
  8  9  1  0
  9 10  1  0
 10 11  2  0
 11 12  1  0
 12 13  2  0
 13 14  1  0
 14 15  1  0
 14 16  2  0
 16 17  1  0
 17 18  2  0
 17 19  1  0
 19 20  1  0
  7 21  1  0
 21 22  2  0
 22 23  1  0
 23 24  1  0
 23 25  1  0
 22  4  1  0
 19  8  2  0
 16 10  1  0
  1 26  1  0
  1 27  1  0
  1 28  1  0
  3 29  1  0
  3 30  1  0
  3 31  1  0
  5 32  1  0
  6 33  1  0
 11 34  1  0
 12 35  1  0
 13 36  1  0
 15 37  1  0
 20 38  1  0
 21 39  1  0
 23 40  1  0
M  END
>  <meeko>  (7) 
{"is_sidechain": [false], "free_energy": -6.633, "intermolecular_energy": -8.17, "internal_energy": -0.416}

$$$$
cand_034_out
     RDKit          3D

 40 42  0  0  0  0  0  0  0  0999 V2000
   19.5330  -23.8390   39.6680 C   0  0  0  0  0  0  0  0  0  0  0  0
   19.7210  -25.0310   40.5010 N   0  0  0  0  0  0  0  0  0  0  0  0
   18.8210  -25.0860   41.6620 C   0  0  0  0  0  0  0  0  0  0  0  0
   19.7050  -26.2540   39.7950 C   0  0  0  0  0  0  0  0  0  0  0  0
   18.9460  -26.4340   38.6280 C   0  0  0  0  0  0  0  0  0  0  0  0
   18.9270  -27.6620   37.9560 C   0  0  0  0  0  0  0  0  0  0  0  0
   19.6660  -28.7490   38.4290 C   0  0  0  0  0  0  0  0  0  0  0  0
   19.6380  -30.0660   37.7580 C   0  0  0  0  0  0  0  0  0  0  0  0
   20.0090  -29.9980   36.4200 O   0  0  0  0  0  0  0  0  0  0  0  0
   20.0210  -31.1500   35.6750 C   0  0  0  0  0  0  0  0  0  0  0  0
   20.4100  -31.0360   34.3390 C   0  0  0  0  0  0  0  0  0  0  0  0
   20.4440  -32.1700   33.5250 C   0  0  0  0  0  0  0  0  0  0  0  0
   20.0890  -33.4160   34.0450 C   0  0  0  0  0  0  0  0  0  0  0  0
   19.7000  -33.5270   35.3780 C   0  0  0  0  0  0  0  0  0  0  0  0
   19.3650  -34.7760   35.8230 O   0  0  0  0  0  0  0  0  0  0  0  0
   19.6680  -32.3910   36.1930 C   0  0  0  0  0  0  0  0  0  0  0  0
   19.2650  -32.4630   37.5980 C   0  0  0  0  0  0  0  0  0  0  0  0
   18.9320  -33.5210   38.1270 O   0  0  0  0  0  0  0  0  0  0  0  0
   19.2680  -31.2030   38.3760 C   0  0  0  0  0  0  0  0  0  0  0  0
   18.8700  -31.2800   39.6990 O   0  0  0  0  0  0  0  0  0  0  0  0
   20.4140  -28.5790   39.6030 C   0  0  0  0  0  0  0  0  0  0  0  0
   20.4500  -27.3450   40.2820 C   0  0  0  0  0  0  0  0  0  0  0  0
   21.2710  -27.2210   41.5390 C   0  0  0  0  0  0  0  0  0  0  0  0
   22.4080  -27.9820   41.5040 F   0  0  0  0  0  0  0  0  0  0  0  0
   20.5960  -27.6450   42.6470 F   0  0  0  0  0  0  0  0  0  0  0  0
   19.3942  -22.9590   40.3132 H   0  0  0  0  0  0  0  0  0  0  0  0
   20.4191  -23.6920   39.0330 H   0  0  0  0  0  0  0  0  0  0  0  0
   18.6447  -23.9718   39.0330 H   0  0  0  0  0  0  0  0  0  0  0  0
   19.4141  -25.0498   42.5877 H   0  0  0  0  0  0  0  0  0  0  0  0
   18.1329  -24.2282   41.6335 H   0  0  0  0  0  0  0  0  0  0  0  0
   18.2425  -26.0212   41.6335 H   0  0  0  0  0  0  0  0  0  0  0  0
   18.3549  -25.5942   38.2340 H   0  0  0  0  0  0  0  0  0  0  0  0
   18.3223  -27.7724   37.0437 H   0  0  0  0  0  0  0  0  0  0  0  0
   20.6892  -30.0545   33.9283 H   0  0  0  0  0  0  0  0  0  0  0  0
   20.7510  -32.0814   32.4724 H   0  0  0  0  0  0  0  0  0  0  0  0
   20.1164  -34.3088   33.4031 H   0  0  0  0  0  0  0  0  0  0  0  0
   20.0360  -35.4050   36.0030 H   0  0  0  0  0  0  0  0  0  0  0  0
   18.5990  -32.1010   40.0590 H   0  0  0  0  0  0  0  0  0  0  0  0
   20.9861  -29.4291   40.0032 H   0  0  0  0  0  0  0  0  0  0  0  0
   21.5070  -26.1480   41.5935 H   0  0  0  0  0  0  0  0  0  0  0  0
  1  2  1  0
  2  3  1  0
  2  4  1  0
  4  5  2  0
  5  6  1  0
  6  7  2  0
  7  8  1  0
  8  9  1  0
  9 10  1  0
 10 11  2  0
 11 12  1  0
 12 13  2  0
 13 14  1  0
 14 15  1  0
 14 16  2  0
 16 17  1  0
 17 18  2  0
 17 19  1  0
 19 20  1  0
  7 21  1  0
 21 22  2  0
 22 23  1  0
 23 24  1  0
 23 25  1  0
 22  4  1  0
 19  8  2  0
 16 10  1  0
  1 26  1  0
  1 27  1  0
  1 28  1  0
  3 29  1  0
  3 30  1  0
  3 31  1  0
  5 32  1  0
  6 33  1  0
 11 34  1  0
 12 35  1  0
 13 36  1  0
 15 37  1  0
 20 38  1  0
 21 39  1  0
 23 40  1  0
M  END
>  <meeko>  (8) 
{"is_sidechain": [false], "free_energy": -6.582, "intermolecular_energy": -8.356, "internal_energy": -0.167}

$$$$
cand_034_out
     RDKit          3D

 40 42  0  0  0  0  0  0  0  0999 V2000
   23.4500  -22.3740   49.5410 C   0  0  0  0  0  0  0  0  0  0  0  0
   22.0030  -22.5310   49.3640 N   0  0  0  0  0  0  0  0  0  0  0  0
   21.2220  -21.3810   49.8460 C   0  0  0  0  0  0  0  0  0  0  0  0
   21.6020  -22.8990   48.0610 C   0  0  0  0  0  0  0  0  0  0  0  0
   21.8560  -22.0890   46.9440 C   0  0  0  0  0  0  0  0  0  0  0  0
   21.4310  -22.4630   45.6640 C   0  0  0  0  0  0  0  0  0  0  0  0
   20.7390  -23.6590   45.4600 C   0  0  0  0  0  0  0  0  0  0  0  0
   20.2490  -24.0620   44.1240 C   0  0  0  0  0  0  0  0  0  0  0  0
   20.5790  -25.3730   43.8010 O   0  0  0  0  0  0  0  0  0  0  0  0
   20.1890  -25.8750   42.5850 C   0  0  0  0  0  0  0  0  0  0  0  0
   20.5340  -27.1990   42.3080 C   0  0  0  0  0  0  0  0  0  0  0  0
   20.1680  -27.7720   41.0880 C   0  0  0  0  0  0  0  0  0  0  0  0
   19.4610  -27.0220   40.1460 C   0  0  0  0  0  0  0  0  0  0  0  0
   19.1200  -25.7010   40.4250 C   0  0  0  0  0  0  0  0  0  0  0  0
   18.4270  -25.0230   39.4590 O   0  0  0  0  0  0  0  0  0  0  0  0
   19.4850  -25.1280   41.6470 C   0  0  0  0  0  0  0  0  0  0  0  0
   19.1480  -23.7440   41.9810 C   0  0  0  0  0  0  0  0  0  0  0  0
   18.5330  -23.0180   41.2020 O   0  0  0  0  0  0  0  0  0  0  0  0
   19.5770  -23.2340   43.3030 C   0  0  0  0  0  0  0  0  0  0  0  0
   19.2670  -21.9190   43.6010 O   0  0  0  0  0  0  0  0  0  0  0  0
   20.4700  -24.4650   46.5750 C   0  0  0  0  0  0  0  0  0  0  0  0
   20.9020  -24.1050   47.8670 C   0  0  0  0  0  0  0  0  0  0  0  0
   20.5830  -25.0110   49.0280 C   0  0  0  0  0  0  0  0  0  0  0  0
   20.0880  -26.2230   48.6310 F   0  0  0  0  0  0  0  0  0  0  0  0
   19.6260  -24.4890   49.8490 F   0  0  0  0  0  0  0  0  0  0  0  0
   23.6874  -22.3482   50.6148 H   0  0  0  0  0  0  0  0  0  0  0  0
   23.9710  -23.2209   49.0705 H   0  0  0  0  0  0  0  0  0  0  0  0
   23.7772  -21.4351   49.0705 H   0  0  0  0  0  0  0  0  0  0  0  0
   21.2182  -21.3755   50.9460 H   0  0  0  0  0  0  0  0  0  0  0  0
   21.6749  -20.4493   49.4762 H   0  0  0  0  0  0  0  0  0  0  0  0
   20.1889  -21.4585   49.4762 H   0  0  0  0  0  0  0  0  0  0  0  0
   22.3995  -21.1419   47.0767 H   0  0  0  0  0  0  0  0  0  0  0  0
   21.6447  -21.8066   44.8076 H   0  0  0  0  0  0  0  0  0  0  0  0
   21.0928  -27.7896   43.0489 H   0  0  0  0  0  0  0  0  0  0  0  0
   20.4371  -28.8158   40.8689 H   0  0  0  0  0  0  0  0  0  0  0  0
   19.1739  -27.4739   39.1851 H   0  0  0  0  0  0  0  0  0  0  0  0
   18.2530  -25.4320   38.6340 H   0  0  0  0  0  0  0  0  0  0  0  0
   19.2130  -21.2840   42.9140 H   0  0  0  0  0  0  0  0  0  0  0  0
   19.9083  -25.4008   46.4380 H   0  0  0  0  0  0  0  0  0  0  0  0
   21.5463  -25.1217   49.5474 H   0  0  0  0  0  0  0  0  0  0  0  0
  1  2  1  0
  2  3  1  0
  2  4  1  0
  4  5  2  0
  5  6  1  0
  6  7  2  0
  7  8  1  0
  8  9  1  0
  9 10  1  0
 10 11  2  0
 11 12  1  0
 12 13  2  0
 13 14  1  0
 14 15  1  0
 14 16  2  0
 16 17  1  0
 17 18  2  0
 17 19  1  0
 19 20  1  0
  7 21  1  0
 21 22  2  0
 22 23  1  0
 23 24  1  0
 23 25  1  0
 22  4  1  0
 19  8  2  0
 16 10  1  0
  1 26  1  0
  1 27  1  0
  1 28  1  0
  3 29  1  0
  3 30  1  0
  3 31  1  0
  5 32  1  0
  6 33  1  0
 11 34  1  0
 12 35  1  0
 13 36  1  0
 15 37  1  0
 20 38  1  0
 21 39  1  0
 23 40  1  0
M  END
>  <meeko>  (9) 
{"is_sidechain": [false], "free_energy": -6.565, "intermolecular_energy": -8.121, "internal_energy": -0.381}

$$$$
