cand_004_out
     RDKit          3D

 38 40  0  0  0  0  0  0  0  0999 V2000
   22.1720  -27.6070   41.7840 C   0  0  0  0  0  0  0  0  0  0  0  0
   20.7190  -27.1610   41.8500 C   0  0  0  0  0  0  0  0  0  0  0  0
   19.9950  -27.3980   40.5420 C   0  0  0  0  0  0  0  0  0  0  0  0
   20.0100  -28.7010   40.0020 C   0  0  0  0  0  0  0  0  0  0  0  0
   19.3850  -29.0050   38.7840 C   0  0  0  0  0  0  0  0  0  0  0  0
   19.3830  -30.3750   38.2310 C   0  0  0  0  0  0  0  0  0  0  0  0
   18.9290  -31.3230   39.1400 O   0  0  0  0  0  0  0  0  0  0  0  0
   18.8750  -32.6390   38.7550 C   0  0  0  0  0  0  0  0  0  0  0  0
   18.4280  -33.5590   39.7040 C   0  0  0  0  0  0  0  0  0  0  0  0
   18.3470  -34.9150   39.3750 C   0  0  0  0  0  0  0  0  0  0  0  0
   18.7150  -35.3490   38.1000 C   0  0  0  0  0  0  0  0  0  0  0  0
   19.1610  -34.4280   37.1560 C   0  0  0  0  0  0  0  0  0  0  0  0
   19.5040  -34.9220   35.9260 O   0  0  0  0  0  0  0  0  0  0  0  0
   19.2420  -33.0730   37.4840 C   0  0  0  0  0  0  0  0  0  0  0  0
   19.7060  -32.0730   36.5220 C   0  0  0  0  0  0  0  0  0  0  0  0
   20.0400  -32.3750   35.3770 O   0  0  0  0  0  0  0  0  0  0  0  0
   19.7620  -30.6630   36.9720 C   0  0  0  0  0  0  0  0  0  0  0  0
   20.1880  -29.7240   36.0510 O   0  0  0  0  0  0  0  0  0  0  0  0
   18.7200  -27.9780   38.1070 C   0  0  0  0  0  0  0  0  0  0  0  0
   18.6950  -26.6800   38.6250 C   0  0  0  0  0  0  0  0  0  0  0  0
   19.3340  -26.3680   39.8390 C   0  0  0  0  0  0  0  0  0  0  0  0
   19.2730  -24.9450   40.3560 C   0  0  0  0  0  0  0  0  0  0  0  0
   18.6350  -24.8400   41.5540 F   0  0  0  0  0  0  0  0  0  0  0  0
   18.6170  -24.1080   39.5040 F   0  0  0  0  0  0  0  0  0  0  0  0
   20.5000  -24.3830   40.5470 F   0  0  0  0  0  0  0  0  0  0  0  0
   22.5652  -27.7277   42.8042 H   0  0  0  0  0  0  0  0  0  0  0  0
   22.2371  -28.5665   41.2500 H   0  0  0  0  0  0  0  0  0  0  0  0
   22.7642  -26.8493   41.2500 H   0  0  0  0  0  0  0  0  0  0  0  0
   20.2098  -27.7250   42.6454 H   0  0  0  0  0  0  0  0  0  0  0  0
   20.7034  -26.0808   42.0570 H   0  0  0  0  0  0  0  0  0  0  0  0
   20.5266  -29.5014   40.5519 H   0  0  0  0  0  0  0  0  0  0  0  0
   18.1399  -33.2177   40.7092 H   0  0  0  0  0  0  0  0  0  0  0  0
   17.9929  -35.6412   40.1215 H   0  0  0  0  0  0  0  0  0  0  0  0
   18.6527  -36.4165   37.8419 H   0  0  0  0  0  0  0  0  0  0  0  0
   20.1770  -34.5060   35.4250 H   0  0  0  0  0  0  0  0  0  0  0  0
   20.9790  -29.8650   35.5690 H   0  0  0  0  0  0  0  0  0  0  0  0
   18.2109  -28.1940   37.1561 H   0  0  0  0  0  0  0  0  0  0  0  0
   18.1664  -25.8884   38.0737 H   0  0  0  0  0  0  0  0  0  0  0  0
  1  2  1  0
  2  3  1  0
  3  4  2  0
  4  5  1  0
  5  6  1  0
  6  7  1  0
  7  8  1  0
  8  9  2  0
  9 10  1  0
 10 11  2  0
 11 12  1  0
 12 13  1  0
 12 14  2  0
 14 15  1  0
 15 16  2  0
 15 17  1  0
 17 18  1  0
  5 19  2  0
 19 20  1  0
 20 21  2  0
 21 22  1  0
 22 23  1  0
 22 24  1  0
 22 25  1  0
 21  3  1  0
 17  6  2  0
 14  8  1  0
  1 26  1  0
  1 27  1  0
  1 28  1  0
  2 29  1  0
  2 30  1  0
  4 31  1  0
  9 32  1  0
 10 33  1  0
 11 34  1  0
 13 35  1  0
 18 36  1  0
 19 37  1  0
 20 38  1  0
M  END
>  <meeko>  (1) 
{"is_sidechain": [false], "free_energy": -8.19, "intermolecular_energy": -10.105, "internal_energy": -0.432}

$$$$
cand_004_out
     RDKit          3D

 38 40  0  0  0  0  0  0  0  0999 V2000
   20.0290  -31.2540   32.8180 C   0  0  0  0  0  0  0  0  0  0  0  0
   20.3930  -32.4440   33.6940 C   0  0  0  0  0  0  0  0  0  0  0  0
   19.9840  -32.2310   35.1360 C   0  0  0  0  0  0  0  0  0  0  0  0
   20.0140  -30.9160   35.6460 C   0  0  0  0  0  0  0  0  0  0  0  0
   19.6730  -30.6300   36.9760 C   0  0  0  0  0  0  0  0  0  0  0  0
   19.6840  -29.2500   37.5020 C   0  0  0  0  0  0  0  0  0  0  0  0
   20.0320  -29.1870   38.8460 O   0  0  0  0  0  0  0  0  0  0  0  0
   20.0810  -27.9620   39.4620 C   0  0  0  0  0  0  0  0  0  0  0  0
   20.4200  -27.9470   40.8160 C   0  0  0  0  0  0  0  0  0  0  0  0
   20.4900  -26.7320   41.5030 C   0  0  0  0  0  0  0  0  0  0  0  0
   20.2200  -25.5350   40.8360 C   0  0  0  0  0  0  0  0  0  0  0  0
   19.8830  -25.5530   39.4850 C   0  0  0  0  0  0  0  0  0  0  0  0
   19.6330  -24.3450   38.8950 O   0  0  0  0  0  0  0  0  0  0  0  0
   19.8130  -26.7680   38.7990 C   0  0  0  0  0  0  0  0  0  0  0  0
   19.4620  -26.8320   37.3800 C   0  0  0  0  0  0  0  0  0  0  0  0
   19.2180  -25.8220   36.7220 O   0  0  0  0  0  0  0  0  0  0  0  0
   19.4070  -28.1700   36.7470 C   0  0  0  0  0  0  0  0  0  0  0  0
   19.0880  -28.2190   35.4030 O   0  0  0  0  0  0  0  0  0  0  0  0
   19.2800  -31.6890   37.8010 C   0  0  0  0  0  0  0  0  0  0  0  0
   19.2460  -32.9980   37.3140 C   0  0  0  0  0  0  0  0  0  0  0  0
   19.6010  -33.2910   35.9850 C   0  0  0  0  0  0  0  0  0  0  0  0
   19.5420  -34.7280   35.5090 C   0  0  0  0  0  0  0  0  0  0  0  0
   18.6070  -35.4700   36.1640 F   0  0  0  0  0  0  0  0  0  0  0  0
   20.7260  -35.3820   35.6740 F   0  0  0  0  0  0  0  0  0  0  0  0
   19.2390  -34.8500   34.1850 F   0  0  0  0  0  0  0  0  0  0  0  0
   19.7667  -30.3964   33.4550 H   0  0  0  0  0  0  0  0  0  0  0  0
   20.8875  -30.9900   32.1829 H   0  0  0  0  0  0  0  0  0  0  0  0
   19.1697  -31.5154   32.1829 H   0  0  0  0  0  0  0  0  0  0  0  0
   19.8824  -33.3387   33.3082 H   0  0  0  0  0  0  0  0  0  0  0  0
   21.4857  -32.5667   33.6647 H   0  0  0  0  0  0  0  0  0  0  0  0
   20.3133  -30.0918   34.9818 H   0  0  0  0  0  0  0  0  0  0  0  0
   20.6317  -28.8899   41.3414 H   0  0  0  0  0  0  0  0  0  0  0  0
   20.7579  -26.7184   42.5698 H   0  0  0  0  0  0  0  0  0  0  0  0
   20.2735  -24.5789   41.3774 H   0  0  0  0  0  0  0  0  0  0  0  0
   20.2150  -24.0140   38.2400 H   0  0  0  0  0  0  0  0  0  0  0  0
   19.6500  -28.6710   34.8040 H   0  0  0  0  0  0  0  0  0  0  0  0
   18.9947  -31.4890   38.8444 H   0  0  0  0  0  0  0  0  0  0  0  0
   18.9358  -33.8147   37.9824 H   0  0  0  0  0  0  0  0  0  0  0  0
  1  2  1  0
  2  3  1  0
  3  4  2  0
  4  5  1  0
  5  6  1  0
  6  7  1  0
  7  8  1  0
  8  9  2  0
  9 10  1  0
 10 11  2  0
 11 12  1  0
 12 13  1  0
 12 14  2  0
 14 15  1  0
 15 16  2  0
 15 17  1  0
 17 18  1  0
  5 19  2  0
 19 20  1  0
 20 21  2  0
 21 22  1  0
 22 23  1  0
 22 24  1  0
 22 25  1  0
 21  3  1  0
 17  6  2  0
 14  8  1  0
  1 26  1  0
  1 27  1  0
  1 28  1  0
  2 29  1  0
  2 30  1  0
  4 31  1  0
  9 32  1  0
 10 33  1  0
 11 34  1  0
 13 35  1  0
 18 36  1  0
 19 37  1  0
 20 38  1  0
M  END
>  <meeko>  (2) 
{"is_sidechain": [false], "free_energy": -7.401, "intermolecular_energy": -9.621, "internal_energy": 0.056}

$$$$
cand_004_out
     RDKit          3D

 38 40  0  0  0  0  0  0  0  0999 V2000
   18.8120  -24.6710   37.3000 C   0  0  0  0  0  0  0  0  0  0  0  0
   18.0390  -25.2970   38.4520 C   0  0  0  0  0  0  0  0  0  0  0  0
   18.8110  -26.4230   39.1040 C   0  0  0  0  0  0  0  0  0  0  0  0
   18.7660  -27.6960   38.4980 C   0  0  0  0  0  0  0  0  0  0  0  0
   19.4330  -28.8010   39.0470 C   0  0  0  0  0  0  0  0  0  0  0  0
   19.4040  -30.1280   38.3990 C   0  0  0  0  0  0  0  0  0  0  0  0
   18.9970  -31.1410   39.2600 O   0  0  0  0  0  0  0  0  0  0  0  0
   18.9240  -32.4260   38.7850 C   0  0  0  0  0  0  0  0  0  0  0  0
   18.5270  -33.4130   39.6880 C   0  0  0  0  0  0  0  0  0  0  0  0
   18.4310  -34.7420   39.2680 C   0  0  0  0  0  0  0  0  0  0  0  0
   18.7320  -35.0830   37.9480 C   0  0  0  0  0  0  0  0  0  0  0  0
   19.1290  -34.0950   37.0500 C   0  0  0  0  0  0  0  0  0  0  0  0
   19.4080  -34.4990   35.7730 O   0  0  0  0  0  0  0  0  0  0  0  0
   19.2250  -32.7670   37.4690 C   0  0  0  0  0  0  0  0  0  0  0  0
   19.6390  -31.6980   36.5590 C   0  0  0  0  0  0  0  0  0  0  0  0
   19.9140  -31.9170   35.3800 O   0  0  0  0  0  0  0  0  0  0  0  0
   19.7170  -30.3240   37.1040 C   0  0  0  0  0  0  0  0  0  0  0  0
   20.0950  -29.3200   36.2330 O   0  0  0  0  0  0  0  0  0  0  0  0
   20.1720  -28.6130   40.2200 C   0  0  0  0  0  0  0  0  0  0  0  0
   20.2260  -27.3600   40.8360 C   0  0  0  0  0  0  0  0  0  0  0  0
   19.5460  -26.2530   40.2970 C   0  0  0  0  0  0  0  0  0  0  0  0
   19.6430  -24.9160   41.0040 C   0  0  0  0  0  0  0  0  0  0  0  0
   20.3110  -23.9760   40.2800 F   0  0  0  0  0  0  0  0  0  0  0  0
   20.2910  -25.0040   42.1990 F   0  0  0  0  0  0  0  0  0  0  0  0
   18.4290  -24.3620   41.2860 F   0  0  0  0  0  0  0  0  0  0  0  0
   19.6082  -24.0262   37.7003 H   0  0  0  0  0  0  0  0  0  0  0  0
   19.2585  -25.4652   36.6836 H   0  0  0  0  0  0  0  0  0  0  0  0
   18.1280  -24.0692   36.6836 H   0  0  0  0  0  0  0  0  0  0  0  0
   17.8352  -24.5224   39.2060 H   0  0  0  0  0  0  0  0  0  0  0  0
   17.1043  -25.7136   38.0486 H   0  0  0  0  0  0  0  0  0  0  0  0
   18.1917  -27.8257   37.5688 H   0  0  0  0  0  0  0  0  0  0  0  0
   18.2901  -33.1452   40.7283 H   0  0  0  0  0  0  0  0  0  0  0  0
   18.1177  -35.5211   39.9785 H   0  0  0  0  0  0  0  0  0  0  0  0
   18.6558  -36.1295   37.6179 H   0  0  0  0  0  0  0  0  0  0  0  0
   18.7850  -34.3540   35.0890 H   0  0  0  0  0  0  0  0  0  0  0  0
   20.2120  -28.4450   36.5480 H   0  0  0  0  0  0  0  0  0  0  0  0
   20.7163  -29.4606   40.6620 H   0  0  0  0  0  0  0  0  0  0  0  0
   20.8110  -27.2371   41.7594 H   0  0  0  0  0  0  0  0  0  0  0  0
  1  2  1  0
  2  3  1  0
  3  4  2  0
  4  5  1  0
  5  6  1  0
  6  7  1  0
  7  8  1  0
  8  9  2  0
  9 10  1  0
 10 11  2  0
 11 12  1  0
 12 13  1  0
 12 14  2  0
 14 15  1  0
 15 16  2  0
 15 17  1  0
 17 18  1  0
  5 19  2  0
 19 20  1  0
 20 21  2  0
 21 22  1  0
 22 23  1  0
 22 24  1  0
 22 25  1  0
 21  3  1  0
 17  6  2  0
 14  8  1  0
  1 26  1  0
  1 27  1  0
  1 28  1  0
  2 29  1  0
  2 30  1  0
  4 31  1  0
  9 32  1  0
 10 33  1  0
 11 34  1  0
 13 35  1  0
 18 36  1  0
 19 37  1  0
 20 38  1  0
M  END
>  <meeko>  (3) 
{"is_sidechain": [false], "free_energy": -7.379, "intermolecular_energy": -9.061, "internal_energy": -0.475}

$$$$
cand_004_out
     RDKit          3D

 38 40  0  0  0  0  0  0  0  0999 V2000
   20.0480  -32.3450   34.7680 C   0  0  0  0  0  0  0  0  0  0  0  0
   19.6620  -33.2910   35.8960 C   0  0  0  0  0  0  0  0  0  0  0  0
   19.4250  -32.5520   37.1960 C   0  0  0  0  0  0  0  0  0  0  0  0
   19.4940  -31.1440   37.1800 C   0  0  0  0  0  0  0  0  0  0  0  0
   19.3100  -30.3810   38.3430 C   0  0  0  0  0  0  0  0  0  0  0  0
   19.3610  -28.9040   38.3200 C   0  0  0  0  0  0  0  0  0  0  0  0
   18.7650  -28.3600   37.1890 O   0  0  0  0  0  0  0  0  0  0  0  0
   18.7430  -26.9970   37.0410 C   0  0  0  0  0  0  0  0  0  0  0  0
   18.1490  -26.4940   35.8830 C   0  0  0  0  0  0  0  0  0  0  0  0
   18.0910  -25.1140   35.6720 C   0  0  0  0  0  0  0  0  0  0  0  0
   18.6280  -24.2390   36.6190 C   0  0  0  0  0  0  0  0  0  0  0  0
   19.2200  -24.7430   37.7730 C   0  0  0  0  0  0  0  0  0  0  0  0
   19.7240  -23.8290   38.6580 O   0  0  0  0  0  0  0  0  0  0  0  0
   19.2780  -26.1230   37.9840 C   0  0  0  0  0  0  0  0  0  0  0  0
   19.8920  -26.6950   39.1830 C   0  0  0  0  0  0  0  0  0  0  0  0
   20.3790  -25.9890   40.0650 O   0  0  0  0  0  0  0  0  0  0  0  0
   19.9090  -28.1700   39.3070 C   0  0  0  0  0  0  0  0  0  0  0  0
   20.4790  -28.7000   40.4490 O   0  0  0  0  0  0  0  0  0  0  0  0
   19.0350  -31.0510   39.5390 C   0  0  0  0  0  0  0  0  0  0  0  0
   18.9640  -32.4470   39.5740 C   0  0  0  0  0  0  0  0  0  0  0  0
   19.1630  -33.2160   38.4140 C   0  0  0  0  0  0  0  0  0  0  0  0
   19.0710  -34.7260   38.5090 C   0  0  0  0  0  0  0  0  0  0  0  0
   18.2030  -35.2650   37.6090 F   0  0  0  0  0  0  0  0  0  0  0  0
   18.6530  -35.1460   39.7360 F   0  0  0  0  0  0  0  0  0  0  0  0
   20.2600  -35.3570   38.2910 F   0  0  0  0  0  0  0  0  0  0  0  0
   20.4314  -31.4054   35.1925 H   0  0  0  0  0  0  0  0  0  0  0  0
   20.8274  -32.8122   34.1481 H   0  0  0  0  0  0  0  0  0  0  0  0
   19.1642  -32.1336   34.1481 H   0  0  0  0  0  0  0  0  0  0  0  0
   18.7403  -33.8217   35.6154 H   0  0  0  0  0  0  0  0  0  0  0  0
   20.4932  -33.9947   36.0504 H   0  0  0  0  0  0  0  0  0  0  0  0
   19.6977  -30.6293   36.2294 H   0  0  0  0  0  0  0  0  0  0  0  0
   17.7268  -27.1832   35.1369 H   0  0  0  0  0  0  0  0  0  0  0  0
   17.6222  -24.7165   34.7597 H   0  0  0  0  0  0  0  0  0  0  0  0
   18.5830  -23.1526   36.4527 H   0  0  0  0  0  0  0  0  0  0  0  0
   20.6490  -23.7690   38.7930 H   0  0  0  0  0  0  0  0  0  0  0  0
   21.2790  -28.3440   40.7830 H   0  0  0  0  0  0  0  0  0  0  0  0
   18.8729  -30.4742   40.4615 H   0  0  0  0  0  0  0  0  0  0  0  0
   18.7485  -32.9529   40.5267 H   0  0  0  0  0  0  0  0  0  0  0  0
  1  2  1  0
  2  3  1  0
  3  4  2  0
  4  5  1  0
  5  6  1  0
  6  7  1  0
  7  8  1  0
  8  9  2  0
  9 10  1  0
 10 11  2  0
 11 12  1  0
 12 13  1  0
 12 14  2  0
 14 15  1  0
 15 16  2  0
 15 17  1  0
 17 18  1  0
  5 19  2  0
 19 20  1  0
 20 21  2  0
 21 22  1  0
 22 23  1  0
 22 24  1  0
 22 25  1  0
 21  3  1  0
 17  6  2  0
 14  8  1  0
  1 26  1  0
  1 27  1  0
  1 28  1  0
  2 29  1  0
  2 30  1  0
  4 31  1  0
  9 32  1  0
 10 33  1  0
 11 34  1  0
 13 35  1  0
 18 36  1  0
 19 37  1  0
 20 38  1  0
M  END
>  <meeko>  (4) 
{"is_sidechain": [false], "free_energy": -7.266, "intermolecular_energy": -9.192, "internal_energy": -0.205}

$$$$
cand_004_out
     RDKit          3D

 38 40  0  0  0  0  0  0  0  0999 V2000
   21.8970  -27.5470   41.6420 C   0  0  0  0  0  0  0  0  0  0  0  0
   20.3790  -27.5500   41.5400 C   0  0  0  0  0  0  0  0  0  0  0  0
   19.9090  -27.6400   40.1040 C   0  0  0  0  0  0  0  0  0  0  0  0
   19.9270  -28.9040   39.4780 C   0  0  0  0  0  0  0  0  0  0  0  0
   19.5310  -29.0750   38.1440 C   0  0  0  0  0  0  0  0  0  0  0  0
   19.5300  -30.4030   37.4970 C   0  0  0  0  0  0  0  0  0  0  0  0
   19.9360  -30.3570   36.1680 O   0  0  0  0  0  0  0  0  0  0  0  0
   19.9810  -31.5240   35.4480 C   0  0  0  0  0  0  0  0  0  0  0  0
   20.3780  -31.4300   34.1130 C   0  0  0  0  0  0  0  0  0  0  0  0
   20.4480  -32.5800   33.3240 C   0  0  0  0  0  0  0  0  0  0  0  0
   20.1190  -33.8240   33.8700 C   0  0  0  0  0  0  0  0  0  0  0  0
   19.7230  -33.9140   35.2010 C   0  0  0  0  0  0  0  0  0  0  0  0
   19.4180  -35.1630   35.6700 O   0  0  0  0  0  0  0  0  0  0  0  0
   19.6540  -32.7640   35.9900 C   0  0  0  0  0  0  0  0  0  0  0  0
   19.2420  -32.8150   37.3930 C   0  0  0  0  0  0  0  0  0  0  0  0
   18.9450  -33.8720   37.9470 O   0  0  0  0  0  0  0  0  0  0  0  0
   19.1940  -31.5380   38.1400 C   0  0  0  0  0  0  0  0  0  0  0  0
   18.8170  -31.5980   39.4690 O   0  0  0  0  0  0  0  0  0  0  0  0
   19.0930  -27.9530   37.4340 C   0  0  0  0  0  0  0  0  0  0  0  0
   19.0690  -26.6920   38.0360 C   0  0  0  0  0  0  0  0  0  0  0  0
   19.4800  -26.5140   39.3700 C   0  0  0  0  0  0  0  0  0  0  0  0
   19.4300  -25.1250   39.9740 C   0  0  0  0  0  0  0  0  0  0  0  0
   18.5290  -25.0160   40.9890 F   0  0  0  0  0  0  0  0  0  0  0  0
   19.0890  -24.1720   39.0630 F   0  0  0  0  0  0  0  0  0  0  0  0
   20.6210  -24.7180   40.5000 F   0  0  0  0  0  0  0  0  0  0  0  0
   22.1933  -27.5464   42.7013 H   0  0  0  0  0  0  0  0  0  0  0  0
   22.2994  -28.4444   41.1492 H   0  0  0  0  0  0  0  0  0  0  0  0
   22.2958  -26.6481   41.1492 H   0  0  0  0  0  0  0  0  0  0  0  0
   19.9870  -28.4137   42.0971 H   0  0  0  0  0  0  0  0  0  0  0  0
   20.0076  -26.6041   41.9612 H   0  0  0  0  0  0  0  0  0  0  0  0
   20.2612  -29.7803   40.0528 H   0  0  0  0  0  0  0  0  0  0  0  0
   20.6355  -30.4509   33.6829 H   0  0  0  0  0  0  0  0  0  0  0  0
   20.7622  -32.5069   32.2724 H   0  0  0  0  0  0  0  0  0  0  0  0
   20.1730  -34.7301   33.2487 H   0  0  0  0  0  0  0  0  0  0  0  0
   18.7840  -35.2650   36.3520 H   0  0  0  0  0  0  0  0  0  0  0  0
   17.9090  -31.5660   39.7010 H   0  0  0  0  0  0  0  0  0  0  0  0
   18.7637  -28.0640   36.3903 H   0  0  0  0  0  0  0  0  0  0  0  0
   18.7227  -25.8233   37.4568 H   0  0  0  0  0  0  0  0  0  0  0  0
  1  2  1  0
  2  3  1  0
  3  4  2  0
  4  5  1  0
  5  6  1  0
  6  7  1  0
  7  8  1  0
  8  9  2  0
  9 10  1  0
 10 11  2  0
 11 12  1  0
 12 13  1  0
 12 14  2  0
 14 15  1  0
 15 16  2  0
 15 17  1  0
 17 18  1  0
  5 19  2  0
 19 20  1  0
 20 21  2  0
 21 22  1  0
 22 23  1  0
 22 24  1  0
 22 25  1  0
 21  3  1  0
 17  6  2  0
 14  8  1  0
  1 26  1  0
  1 27  1  0
  1 28  1  0
  2 29  1  0
  2 30  1  0
  4 31  1  0
  9 32  1  0
 10 33  1  0
 11 34  1  0
 13 35  1  0
 18 36  1  0
 19 37  1  0
 20 38  1  0
M  END
>  <meeko>  (5) 
{"is_sidechain": [false], "free_energy": -7.222, "intermolecular_energy": -9.054, "internal_energy": -0.289}

$$$$
cand_004_out
     RDKit          3D

 38 40  0  0  0  0  0  0  0  0999 V2000
   23.8310  -30.0730   42.5270 C   0  0  0  0  0  0  0  0  0  0  0  0
   24.0690  -28.5800   42.3510 C   0  0  0  0  0  0  0  0  0  0  0  0
   22.7720  -27.7990   42.3380 C   0  0  0  0  0  0  0  0  0  0  0  0
   22.1350  -27.5930   41.0970 C   0  0  0  0  0  0  0  0  0  0  0  0
   20.9430  -26.8620   40.9900 C   0  0  0  0  0  0  0  0  0  0  0  0
   20.2650  -26.6650   39.6920 C   0  0  0  0  0  0  0  0  0  0  0  0
   20.0800  -25.3240   39.3770 O   0  0  0  0  0  0  0  0  0  0  0  0
   19.4610  -25.0000   38.1960 C   0  0  0  0  0  0  0  0  0  0  0  0
   19.2820  -23.6420   37.9270 C   0  0  0  0  0  0  0  0  0  0  0  0
   18.6600  -23.2430   36.7410 C   0  0  0  0  0  0  0  0  0  0  0  0
   18.2190  -24.2020   35.8260 C   0  0  0  0  0  0  0  0  0  0  0  0
   18.3990  -25.5550   36.0970 C   0  0  0  0  0  0  0  0  0  0  0  0
   17.9440  -26.4380   35.1570 O   0  0  0  0  0  0  0  0  0  0  0  0
   19.0210  -25.9540   37.2830 C   0  0  0  0  0  0  0  0  0  0  0  0
   19.2290  -27.3650   37.6070 C   0  0  0  0  0  0  0  0  0  0  0  0
   18.8750  -28.2670   36.8490 O   0  0  0  0  0  0  0  0  0  0  0  0
   19.8900  -27.6830   38.8930 C   0  0  0  0  0  0  0  0  0  0  0  0
   20.0960  -29.0180   39.1840 O   0  0  0  0  0  0  0  0  0  0  0  0
   20.3760  -26.3430   42.1580 C   0  0  0  0  0  0  0  0  0  0  0  0
   20.9940  -26.5360   43.3970 C   0  0  0  0  0  0  0  0  0  0  0  0
   22.1980  -27.2560   43.5070 C   0  0  0  0  0  0  0  0  0  0  0  0
   22.8220  -27.4380   44.8760 C   0  0  0  0  0  0  0  0  0  0  0  0
   22.6550  -28.6930   45.3760 F   0  0  0  0  0  0  0  0  0  0  0  0
   22.3000  -26.5890   45.8040 F   0  0  0  0  0  0  0  0  0  0  0  0
   24.1680  -27.2160   44.8920 F   0  0  0  0  0  0  0  0  0  0  0  0
   23.7925  -30.3142   43.5995 H   0  0  0  0  0  0  0  0  0  0  0  0
   22.8773  -30.3505   42.0543 H   0  0  0  0  0  0  0  0  0  0  0  0
   24.6512  -30.6333   42.0543 H   0  0  0  0  0  0  0  0  0  0  0  0
   24.6931  -28.2191   43.1818 H   0  0  0  0  0  0  0  0  0  0  0  0
   24.5691  -28.4263   41.3834 H   0  0  0  0  0  0  0  0  0  0  0  0
   22.5855  -28.0174   40.1877 H   0  0  0  0  0  0  0  0  0  0  0  0
   19.6300  -22.8872   38.6475 H   0  0  0  0  0  0  0  0  0  0  0  0
   18.5176  -22.1733   36.5278 H   0  0  0  0  0  0  0  0  0  0  0  0
   17.7299  -23.8879   34.8921 H   0  0  0  0  0  0  0  0  0  0  0  0
   17.1710  -26.2430   34.6650 H   0  0  0  0  0  0  0  0  0  0  0  0
   19.4100  -29.5250   39.5730 H   0  0  0  0  0  0  0  0  0  0  0  0
   19.4343  -25.7772   42.1014 H   0  0  0  0  0  0  0  0  0  0  0  0
   20.5306  -26.1174   44.3025 H   0  0  0  0  0  0  0  0  0  0  0  0
  1  2  1  0
  2  3  1  0
  3  4  2  0
  4  5  1  0
  5  6  1  0
  6  7  1  0
  7  8  1  0
  8  9  2  0
  9 10  1  0
 10 11  2  0
 11 12  1  0
 12 13  1  0
 12 14  2  0
 14 15  1  0
 15 16  2  0
 15 17  1  0
 17 18  1  0
  5 19  2  0
 19 20  1  0
 20 21  2  0
 21 22  1  0
 22 23  1  0
 22 24  1  0
 22 25  1  0
 21  3  1  0
 17  6  2  0
 14  8  1  0
  1 26  1  0
  1 27  1  0
  1 28  1  0
  2 29  1  0
  2 30  1  0
  4 31  1  0
  9 32  1  0
 10 33  1  0
 11 34  1  0
 13 35  1  0
 18 36  1  0
 19 37  1  0
 20 38  1  0
M  END
>  <meeko>  (6) 
{"is_sidechain": [false], "free_energy": -7.162, "intermolecular_energy": -8.816, "internal_energy": -0.453}

$$$$
cand_004_out
     RDKit          3D

 38 40  0  0  0  0  0  0  0  0999 V2000
   19.1370  -23.0610   38.5420 C   0  0  0  0  0  0  0  0  0  0  0  0
   19.5410  -24.1880   37.6010 C   0  0  0  0  0  0  0  0  0  0  0  0
   19.5230  -25.5340   38.2930 C   0  0  0  0  0  0  0  0  0  0  0  0
   20.3150  -25.6970   39.4480 C   0  0  0  0  0  0  0  0  0  0  0  0
   20.3750  -26.9170   40.1380 C   0  0  0  0  0  0  0  0  0  0  0  0
   21.1880  -27.0790   41.3610 C   0  0  0  0  0  0  0  0  0  0  0  0
   22.1460  -28.0800   41.2440 O   0  0  0  0  0  0  0  0  0  0  0  0
   22.9710  -28.3360   42.3090 C   0  0  0  0  0  0  0  0  0  0  0  0
   23.9080  -29.3590   42.1540 C   0  0  0  0  0  0  0  0  0  0  0  0
   24.7800  -29.6700   43.2000 C   0  0  0  0  0  0  0  0  0  0  0  0
   24.7150  -28.9580   44.4000 C   0  0  0  0  0  0  0  0  0  0  0  0
   23.7800  -27.9380   44.5520 C   0  0  0  0  0  0  0  0  0  0  0  0
   23.7730  -27.2810   45.7520 O   0  0  0  0  0  0  0  0  0  0  0  0
   22.9080  -27.6270   43.5060 C   0  0  0  0  0  0  0  0  0  0  0  0
   21.9100  -26.5630   43.6240 C   0  0  0  0  0  0  0  0  0  0  0  0
   21.7960  -25.8870   44.6450 O   0  0  0  0  0  0  0  0  0  0  0  0
   21.0280  -26.3190   42.4600 C   0  0  0  0  0  0  0  0  0  0  0  0
   20.0980  -25.3020   42.5770 O   0  0  0  0  0  0  0  0  0  0  0  0
   19.6100  -27.9860   39.6620 C   0  0  0  0  0  0  0  0  0  0  0  0
   18.8200  -27.8440   38.5170 C   0  0  0  0  0  0  0  0  0  0  0  0
   18.7690  -26.6270   37.8140 C   0  0  0  0  0  0  0  0  0  0  0  0
   17.8930  -26.5280   36.5820 C   0  0  0  0  0  0  0  0  0  0  0  0
   17.0840  -27.6100   36.4130 F   0  0  0  0  0  0  0  0  0  0  0  0
   18.6180  -26.4160   35.4340 F   0  0  0  0  0  0  0  0  0  0  0  0
   17.0580  -25.4490   36.5940 F   0  0  0  0  0  0  0  0  0  0  0  0
   19.2560  -23.3929   39.5840 H   0  0  0  0  0  0  0  0  0  0  0  0
   19.7771  -22.1849   38.3609 H   0  0  0  0  0  0  0  0  0  0  0  0
   18.0861  -22.7911   38.3609 H   0  0  0  0  0  0  0  0  0  0  0  0
   18.8388  -24.2137   36.7547 H   0  0  0  0  0  0  0  0  0  0  0  0
   20.5681  -23.9944   37.2580 H   0  0  0  0  0  0  0  0  0  0  0  0
   20.9022  -24.8438   39.8184 H   0  0  0  0  0  0  0  0  0  0  0  0
   23.9597  -29.9197   41.2090 H   0  0  0  0  0  0  0  0  0  0  0  0
   25.5184  -30.4762   43.0786 H   0  0  0  0  0  0  0  0  0  0  0  0
   25.4017  -29.2030   45.2237 H   0  0  0  0  0  0  0  0  0  0  0  0
   24.5620  -27.2080   46.2510 H   0  0  0  0  0  0  0  0  0  0  0  0
   19.8730  -24.9670   43.4220 H   0  0  0  0  0  0  0  0  0  0  0  0
   19.6298  -28.9488   40.1937 H   0  0  0  0  0  0  0  0  0  0  0  0
   18.2279  -28.6994   38.1598 H   0  0  0  0  0  0  0  0  0  0  0  0
  1  2  1  0
  2  3  1  0
  3  4  2  0
  4  5  1  0
  5  6  1  0
  6  7  1  0
  7  8  1  0
  8  9  2  0
  9 10  1  0
 10 11  2  0
 11 12  1  0
 12 13  1  0
 12 14  2  0
 14 15  1  0
 15 16  2  0
 15 17  1  0
 17 18  1  0
  5 19  2  0
 19 20  1  0
 20 21  2  0
 21 22  1  0
 22 23  1  0
 22 24  1  0
 22 25  1  0
 21  3  1  0
 17  6  2  0
 14  8  1  0
  1 26  1  0
  1 27  1  0
  1 28  1  0
  2 29  1  0
  2 30  1  0
  4 31  1  0
  9 32  1  0
 10 33  1  0
 11 34  1  0
 13 35  1  0
 18 36  1  0
 19 37  1  0
 20 38  1  0
M  END
>  <meeko>  (7) 
{"is_sidechain": [false], "free_energy": -7.11, "intermolecular_energy": -8.737, "internal_energy": -0.468}

$$$$
cand_004_out
     RDKit          3D

 38 40  0  0  0  0  0  0  0  0999 V2000
   22.2560  -25.4180   45.3320 C   0  0  0  0  0  0  0  0  0  0  0  0
   22.6770  -26.8790   45.2730 C   0  0  0  0  0  0  0  0  0  0  0  0
   22.6630  -27.4140   43.8560 C   0  0  0  0  0  0  0  0  0  0  0  0
   21.7080  -26.8910   42.9600 C   0  0  0  0  0  0  0  0  0  0  0  0
   21.6100  -27.3440   41.6360 C   0  0  0  0  0  0  0  0  0  0  0  0
   20.6240  -26.7800   40.6920 C   0  0  0  0  0  0  0  0  0  0  0  0
   20.5620  -25.3920   40.7400 O   0  0  0  0  0  0  0  0  0  0  0  0
   19.6860  -24.7380   39.9130 C   0  0  0  0  0  0  0  0  0  0  0  0
   19.6450  -23.3460   40.0060 C   0  0  0  0  0  0  0  0  0  0  0  0
   18.7760  -22.6180   39.1900 C   0  0  0  0  0  0  0  0  0  0  0  0
   17.9470  -23.2830   38.2820 C   0  0  0  0  0  0  0  0  0  0  0  0
   17.9900  -24.6710   38.1910 C   0  0  0  0  0  0  0  0  0  0  0  0
   17.1530  -25.2560   37.2810 O   0  0  0  0  0  0  0  0  0  0  0  0
   18.8590  -25.3990   39.0080 C   0  0  0  0  0  0  0  0  0  0  0  0
   18.9350  -26.8590   38.9450 C   0  0  0  0  0  0  0  0  0  0  0  0
   18.2440  -27.5140   38.1670 O   0  0  0  0  0  0  0  0  0  0  0  0
   19.8840  -27.5350   39.8580 C   0  0  0  0  0  0  0  0  0  0  0  0
   19.9580  -28.9140   39.7820 O   0  0  0  0  0  0  0  0  0  0  0  0
   22.5030  -28.3310   41.2060 C   0  0  0  0  0  0  0  0  0  0  0  0
   23.4550  -28.8630   42.0810 C   0  0  0  0  0  0  0  0  0  0  0  0
   23.5460  -28.4220   43.4130 C   0  0  0  0  0  0  0  0  0  0  0  0
   24.6000  -29.0290   44.3170 C   0  0  0  0  0  0  0  0  0  0  0  0
   24.2320  -29.0480   45.6280 F   0  0  0  0  0  0  0  0  0  0  0  0
   25.7830  -28.3560   44.2660 F   0  0  0  0  0  0  0  0  0  0  0  0
   24.9020  -30.3220   44.0060 F   0  0  0  0  0  0  0  0  0  0  0  0
   22.1657  -25.1046   46.3825 H   0  0  0  0  0  0  0  0  0  0  0  0
   23.0120  -24.7979   44.8281 H   0  0  0  0  0  0  0  0  0  0  0  0
   21.2860  -25.2953   44.8281 H   0  0  0  0  0  0  0  0  0  0  0  0
   23.6953  -26.9723   45.6783 H   0  0  0  0  0  0  0  0  0  0  0  0
   21.9591  -27.4649   45.8657 H   0  0  0  0  0  0  0  0  0  0  0  0
   21.0209  -26.1061   43.3089 H   0  0  0  0  0  0  0  0  0  0  0  0
   20.2965  -22.8227   40.7213 H   0  0  0  0  0  0  0  0  0  0  0  0
   18.7440  -21.5208   39.2619 H   0  0  0  0  0  0  0  0  0  0  0  0
   17.2616  -22.7100   37.6403 H   0  0  0  0  0  0  0  0  0  0  0  0
   17.2540  -25.0750   36.3680 H   0  0  0  0  0  0  0  0  0  0  0  0
   19.5810  -29.3640   39.0520 H   0  0  0  0  0  0  0  0  0  0  0  0
   22.4558  -28.6926   40.1682 H   0  0  0  0  0  0  0  0  0  0  0  0
   24.1450  -29.6403   41.7209 H   0  0  0  0  0  0  0  0  0  0  0  0
  1  2  1  0
  2  3  1  0
  3  4  2  0
  4  5  1  0
  5  6  1  0
  6  7  1  0
  7  8  1  0
  8  9  2  0
  9 10  1  0
 10 11  2  0
 11 12  1  0
 12 13  1  0
 12 14  2  0
 14 15  1  0
 15 16  2  0
 15 17  1  0
 17 18  1  0
  5 19  2  0
 19 20  1  0
 20 21  2  0
 21 22  1  0
 22 23  1  0
 22 24  1  0
 22 25  1  0
 21  3  1  0
 17  6  2  0
 14  8  1  0
  1 26  1  0
  1 27  1  0
  1 28  1  0
  2 29  1  0
  2 30  1  0
  4 31  1  0
  9 32  1  0
 10 33  1  0
 11 34  1  0
 13 35  1  0
 18 36  1  0
 19 37  1  0
 20 38  1  0
M  END
>  <meeko>  (8) 
{"is_sidechain": [false], "free_energy": -6.988, "intermolecular_energy": -9.037, "internal_energy": -0.018}

$$$$
cand_004_out
     RDKit          3D

 38 40  0  0  0  0  0  0  0  0999 V2000
   17.0220  -23.0500   45.5350 C   0  0  0  0  0  0  0  0  0  0  0  0
   18.2040  -23.1510   46.4890 C   0  0  0  0  0  0  0  0  0  0  0  0
   19.3510  -23.9330   45.8860 C   0  0  0  0  0  0  0  0  0  0  0  0
   19.2910  -24.2450   44.5120 C   0  0  0  0  0  0  0  0  0  0  0  0
   20.2990  -24.9850   43.8760 C   0  0  0  0  0  0  0  0  0  0  0  0
   20.2440  -25.2920   42.4320 C   0  0  0  0  0  0  0  0  0  0  0  0
   19.8630  -24.2000   41.6610 O   0  0  0  0  0  0  0  0  0  0  0  0
   19.7730  -24.3490   40.3000 C   0  0  0  0  0  0  0  0  0  0  0  0
   19.3720  -23.2310   39.5670 C   0  0  0  0  0  0  0  0  0  0  0  0
   19.2610  -23.3140   38.1770 C   0  0  0  0  0  0  0  0  0  0  0  0
   19.5510  -24.5130   37.5220 C   0  0  0  0  0  0  0  0  0  0  0  0
   19.9510  -25.6260   38.2560 C   0  0  0  0  0  0  0  0  0  0  0  0
   20.2200  -26.7670   37.5510 O   0  0  0  0  0  0  0  0  0  0  0  0
   20.0610  -25.5430   39.6460 C   0  0  0  0  0  0  0  0  0  0  0  0
   20.4770  -26.6890   40.4560 C   0  0  0  0  0  0  0  0  0  0  0  0
   20.7560  -27.7760   39.9520 O   0  0  0  0  0  0  0  0  0  0  0  0
   20.5550  -26.4990   41.9220 C   0  0  0  0  0  0  0  0  0  0  0  0
   20.9620  -27.5830   42.6780 O   0  0  0  0  0  0  0  0  0  0  0  0
   21.3940  -25.4030   44.6380 C   0  0  0  0  0  0  0  0  0  0  0  0
   21.4710  -25.1040   46.0010 C   0  0  0  0  0  0  0  0  0  0  0  0
   20.4550  -24.3750   46.6460 C   0  0  0  0  0  0  0  0  0  0  0  0
   20.5910  -24.0760   48.1250 C   0  0  0  0  0  0  0  0  0  0  0  0
   20.5540  -22.7450   48.4060 F   0  0  0  0  0  0  0  0  0  0  0  0
   21.7630  -24.5390   48.6450 F   0  0  0  0  0  0  0  0  0  0  0  0
   19.6070  -24.6360   48.8850 F   0  0  0  0  0  0  0  0  0  0  0  0
   16.0897  -22.9703   46.1134 H   0  0  0  0  0  0  0  0  0  0  0  0
   17.1375  -22.1585   44.9011 H   0  0  0  0  0  0  0  0  0  0  0  0
   16.9846  -23.9482   44.9011 H   0  0  0  0  0  0  0  0  0  0  0  0
   18.5536  -22.1364   46.7307 H   0  0  0  0  0  0  0  0  0  0  0  0
   17.8683  -23.6807   47.3927 H   0  0  0  0  0  0  0  0  0  0  0  0
   18.4295  -23.8984   43.9223 H   0  0  0  0  0  0  0  0  0  0  0  0
   19.1439  -22.2866   40.0828 H   0  0  0  0  0  0  0  0  0  0  0  0
   18.9448  -22.4340   37.5976 H   0  0  0  0  0  0  0  0  0  0  0  0
   19.4634  -24.5777   36.4274 H   0  0  0  0  0  0  0  0  0  0  0  0
   20.5970  -27.5070   37.9830 H   0  0  0  0  0  0  0  0  0  0  0  0
   21.4290  -27.4480   43.4790 H   0  0  0  0  0  0  0  0  0  0  0  0
   22.2038  -25.9734   44.1596 H   0  0  0  0  0  0  0  0  0  0  0  0
   22.3419  -25.4448   46.5802 H   0  0  0  0  0  0  0  0  0  0  0  0
  1  2  1  0
  2  3  1  0
  3  4  2  0
  4  5  1  0
  5  6  1  0
  6  7  1  0
  7  8  1  0
  8  9  2  0
  9 10  1  0
 10 11  2  0
 11 12  1  0
 12 13  1  0
 12 14  2  0
 14 15  1  0
 15 16  2  0
 15 17  1  0
 17 18  1  0
  5 19  2  0
 19 20  1  0
 20 21  2  0
 21 22  1  0
 22 23  1  0
 22 24  1  0
 22 25  1  0
 21  3  1  0
 17  6  2  0
 14  8  1  0
  1 26  1  0
  1 27  1  0
  1 28  1  0
  2 29  1  0
  2 30  1  0
  4 31  1  0
  9 32  1  0
 10 33  1  0
 11 34  1  0
 13 35  1  0
 18 36  1  0
 19 37  1  0
 20 38  1  0
M  END
>  <meeko>  (9) 
{"is_sidechain": [false], "free_energy": -6.754, "intermolecular_energy": -8.479, "internal_energy": -0.287}

$$$$
