cand_036_out
     RDKit          3D

 35 37  0  0  0  0  0  0  0  0999 V2000
   19.1090  -25.0330   40.8650 C   0  0  0  0  0  0  0  0  0  0  0  0
   19.1700  -26.4060   40.2530 C   0  0  0  0  0  0  0  0  0  0  0  0
   18.2960  -26.7310   39.2070 C   0  0  0  0  0  0  0  0  0  0  0  0
   18.3240  -27.9960   38.6150 C   0  0  0  0  0  0  0  0  0  0  0  0
   19.2220  -28.9730   39.0580 C   0  0  0  0  0  0  0  0  0  0  0  0
   19.2900  -30.3100   38.4320 C   0  0  0  0  0  0  0  0  0  0  0  0
   18.8510  -31.3240   39.2750 O   0  0  0  0  0  0  0  0  0  0  0  0
   18.8610  -32.6180   38.8190 C   0  0  0  0  0  0  0  0  0  0  0  0
   18.4260  -33.6050   39.7040 C   0  0  0  0  0  0  0  0  0  0  0  0
   18.4100  -34.9420   39.3010 C   0  0  0  0  0  0  0  0  0  0  0  0
   18.8270  -35.2920   38.0150 C   0  0  0  0  0  0  0  0  0  0  0  0
   19.2600  -34.3040   37.1340 C   0  0  0  0  0  0  0  0  0  0  0  0
   19.6550  -34.7150   35.8910 O   0  0  0  0  0  0  0  0  0  0  0  0
   19.2780  -32.9660   37.5380 C   0  0  0  0  0  0  0  0  0  0  0  0
   19.7260  -31.8970   36.6430 C   0  0  0  0  0  0  0  0  0  0  0  0
   20.1020  -32.1250   35.4950 O   0  0  0  0  0  0  0  0  0  0  0  0
   19.7130  -30.5130   37.1700 C   0  0  0  0  0  0  0  0  0  0  0  0
   20.1260  -29.5110   36.3130 O   0  0  0  0  0  0  0  0  0  0  0  0
   20.1030  -28.6420   40.1000 C   0  0  0  0  0  0  0  0  0  0  0  0
   20.0890  -27.3720   40.7040 C   0  0  0  0  0  0  0  0  0  0  0  0
   21.0510  -27.0780   41.8220 C   0  0  0  0  0  0  0  0  0  0  0  0
   19.1129  -25.1198   41.9616 H   0  0  0  0  0  0  0  0  0  0  0  0
   19.9820  -24.4478   40.5405 H   0  0  0  0  0  0  0  0  0  0  0  0
   18.1875  -24.5275   40.5405 H   0  0  0  0  0  0  0  0  0  0  0  0
   17.5779  -25.9795   38.8470 H   0  0  0  0  0  0  0  0  0  0  0  0
   17.6323  -28.2265   37.7914 H   0  0  0  0  0  0  0  0  0  0  0  0
   18.0964  -33.3306   40.7169 H   0  0  0  0  0  0  0  0  0  0  0  0
   18.0682  -35.7212   39.9981 H   0  0  0  0  0  0  0  0  0  0  0  0
   18.8135  -36.3454   37.6986 H   0  0  0  0  0  0  0  0  0  0  0  0
   20.1150  -35.5250   35.7890 H   0  0  0  0  0  0  0  0  0  0  0  0
   20.0800  -29.6390   35.3850 H   0  0  0  0  0  0  0  0  0  0  0  0
   20.8226  -29.3954   40.4530 H   0  0  0  0  0  0  0  0  0  0  0  0
   20.5482  -27.2316   42.7882 H   0  0  0  0  0  0  0  0  0  0  0  0
   21.9167  -27.7526   41.7477 H   0  0  0  0  0  0  0  0  0  0  0  0
   21.3917  -26.0347   41.7477 H   0  0  0  0  0  0  0  0  0  0  0  0
  1  2  1  0
  2  3  2  0
  3  4  1  0
  4  5  2  0
  5  6  1  0
  6  7  1  0
  7  8  1  0
  8  9  2  0
  9 10  1  0
 10 11  2  0
 11 12  1  0
 12 13  1  0
 12 14  2  0
 14 15  1  0
 15 16  2  0
 15 17  1  0
 17 18  1  0
  5 19  1  0
 19 20  2  0
 20 21  1  0
 20  2  1  0
 17  6  2  0
 14  8  1  0
  1 22  1  0
  1 23  1  0
  1 24  1  0
  3 25  1  0
  4 26  1  0
  9 27  1  0
 10 28  1  0
 11 29  1  0
 13 30  1  0
 18 31  1  0
 19 32  1  0
 21 33  1  0
 21 34  1  0
 21 35  1  0
M  END
>  <meeko>  (1) 
{"is_sidechain": [false], "free_energy": -7.903, "intermolecular_energy": -8.827, "internal_energy": -0.23}

$$$$
cand_036_out
     RDKit          3D

 35 37  0  0  0  0  0  0  0  0999 V2000
   19.5810  -33.7270   36.1520 C   0  0  0  0  0  0  0  0  0  0  0  0
   19.4800  -32.4680   36.9680 C   0  0  0  0  0  0  0  0  0  0  0  0
   19.9100  -31.2540   36.4140 C   0  0  0  0  0  0  0  0  0  0  0  0
   19.8320  -30.0650   37.1440 C   0  0  0  0  0  0  0  0  0  0  0  0
   19.3290  -30.0580   38.4480 C   0  0  0  0  0  0  0  0  0  0  0  0
   19.2100  -28.8100   39.2310 C   0  0  0  0  0  0  0  0  0  0  0  0
   20.1180  -28.7440   40.2810 O   0  0  0  0  0  0  0  0  0  0  0  0
   20.1180  -27.6360   41.0900 C   0  0  0  0  0  0  0  0  0  0  0  0
   21.0360  -27.6180   42.1410 C   0  0  0  0  0  0  0  0  0  0  0  0
   21.0890  -26.5190   43.0010 C   0  0  0  0  0  0  0  0  0  0  0  0
   20.2250  -25.4390   42.8110 C   0  0  0  0  0  0  0  0  0  0  0  0
   19.3100  -25.4590   41.7610 C   0  0  0  0  0  0  0  0  0  0  0  0
   18.4940  -24.3690   41.6310 O   0  0  0  0  0  0  0  0  0  0  0  0
   19.2570  -26.5600   40.9010 C   0  0  0  0  0  0  0  0  0  0  0  0
   18.3100  -26.6220   39.7860 C   0  0  0  0  0  0  0  0  0  0  0  0
   17.5220  -25.7080   39.5500 O   0  0  0  0  0  0  0  0  0  0  0  0
   18.3290  -27.8360   38.9380 C   0  0  0  0  0  0  0  0  0  0  0  0
   17.4400  -27.8780   37.8810 O   0  0  0  0  0  0  0  0  0  0  0  0
   18.8890  -31.2730   38.9970 C   0  0  0  0  0  0  0  0  0  0  0  0
   18.9590  -32.4780   38.2760 C   0  0  0  0  0  0  0  0  0  0  0  0
   18.4810  -33.7510   38.9190 C   0  0  0  0  0  0  0  0  0  0  0  0
   19.6506  -34.5950   36.8241 H   0  0  0  0  0  0  0  0  0  0  0  0
   18.6879  -33.8253   35.5175 H   0  0  0  0  0  0  0  0  0  0  0  0
   20.4784  -33.6817   35.5175 H   0  0  0  0  0  0  0  0  0  0  0  0
   20.3142  -31.2372   35.3911 H   0  0  0  0  0  0  0  0  0  0  0  0
   20.1705  -29.1234   36.6870 H   0  0  0  0  0  0  0  0  0  0  0  0
   21.7171  -28.4685   42.2918 H   0  0  0  0  0  0  0  0  0  0  0  0
   21.8126  -26.5043   43.8294 H   0  0  0  0  0  0  0  0  0  0  0  0
   20.2667  -24.5739   43.4892 H   0  0  0  0  0  0  0  0  0  0  0  0
   17.5660  -24.4830   41.5670 H   0  0  0  0  0  0  0  0  0  0  0  0
   16.5320  -27.6920   38.0240 H   0  0  0  0  0  0  0  0  0  0  0  0
   18.4789  -31.2824   40.0176 H   0  0  0  0  0  0  0  0  0  0  0  0
   18.5203  -33.6463   40.0133 H   0  0  0  0  0  0  0  0  0  0  0  0
   17.4457  -33.9531   38.6070 H   0  0  0  0  0  0  0  0  0  0  0  0
   19.1274  -34.5846   38.6070 H   0  0  0  0  0  0  0  0  0  0  0  0
  1  2  1  0
  2  3  2  0
  3  4  1  0
  4  5  2  0
  5  6  1  0
  6  7  1  0
  7  8  1  0
  8  9  2  0
  9 10  1  0
 10 11  2  0
 11 12  1  0
 12 13  1  0
 12 14  2  0
 14 15  1  0
 15 16  2  0
 15 17  1  0
 17 18  1  0
  5 19  1  0
 19 20  2  0
 20 21  1  0
 20  2  1  0
 17  6  2  0
 14  8  1  0
  1 22  1  0
  1 23  1  0
  1 24  1  0
  3 25  1  0
  4 26  1  0
  9 27  1  0
 10 28  1  0
 11 29  1  0
 13 30  1  0
 18 31  1  0
 19 32  1  0
 21 33  1  0
 21 34  1  0
 21 35  1  0
M  END
>  <meeko>  (2) 
{"is_sidechain": [false], "free_energy": -7.529, "intermolecular_energy": -8.391, "internal_energy": -0.248}

$$$$
cand_036_out
     RDKit          3D

 35 37  0  0  0  0  0  0  0  0999 V2000
   18.0320  -27.2340   36.4650 C   0  0  0  0  0  0  0  0  0  0  0  0
   18.8440  -27.2310   37.7310 C   0  0  0  0  0  0  0  0  0  0  0  0
   18.9460  -28.4080   38.4840 C   0  0  0  0  0  0  0  0  0  0  0  0
   19.6910  -28.4420   39.6660 C   0  0  0  0  0  0  0  0  0  0  0  0
   20.3480  -27.2970   40.1290 C   0  0  0  0  0  0  0  0  0  0  0  0
   21.1650  -27.3140   41.3620 C   0  0  0  0  0  0  0  0  0  0  0  0
   22.1660  -28.2770   41.3330 O   0  0  0  0  0  0  0  0  0  0  0  0
   23.0000  -28.4010   42.4150 C   0  0  0  0  0  0  0  0  0  0  0  0
   23.9810  -29.3910   42.3490 C   0  0  0  0  0  0  0  0  0  0  0  0
   24.8640  -29.5690   43.4170 C   0  0  0  0  0  0  0  0  0  0  0  0
   24.7660  -28.7570   44.5480 C   0  0  0  0  0  0  0  0  0  0  0  0
   23.7850  -27.7690   44.6110 C   0  0  0  0  0  0  0  0  0  0  0  0
   23.7450  -27.0100   45.7480 O   0  0  0  0  0  0  0  0  0  0  0  0
   22.9020  -27.5930   43.5430 C   0  0  0  0  0  0  0  0  0  0  0  0
   21.8570  -26.5670   43.5680 C   0  0  0  0  0  0  0  0  0  0  0  0
   21.7120  -25.8110   44.5260 O   0  0  0  0  0  0  0  0  0  0  0  0
   20.9670  -26.4670   42.3890 C   0  0  0  0  0  0  0  0  0  0  0  0
   19.9930  -25.4870   42.4180 O   0  0  0  0  0  0  0  0  0  0  0  0
   20.2530  -26.1220   39.3680 C   0  0  0  0  0  0  0  0  0  0  0  0
   19.5080  -26.0720   38.1760 C   0  0  0  0  0  0  0  0  0  0  0  0
   19.4350  -24.7820   37.4070 C   0  0  0  0  0  0  0  0  0  0  0  0
   16.9611  -27.2380   36.7163 H   0  0  0  0  0  0  0  0  0  0  0  0
   18.2672  -26.3350   35.8764 H   0  0  0  0  0  0  0  0  0  0  0  0
   18.2738  -28.1313   35.8764 H   0  0  0  0  0  0  0  0  0  0  0  0
   18.4326  -29.3180   38.1401 H   0  0  0  0  0  0  0  0  0  0  0  0
   19.7615  -29.3788   40.2382 H   0  0  0  0  0  0  0  0  0  0  0  0
   24.0591  -30.0304   41.4574 H   0  0  0  0  0  0  0  0  0  0  0  0
   25.6372  -30.3498   43.3665 H   0  0  0  0  0  0  0  0  0  0  0  0
   25.4619  -28.8966   45.3883 H   0  0  0  0  0  0  0  0  0  0  0  0
   23.4870  -26.1110   45.7030 H   0  0  0  0  0  0  0  0  0  0  0  0
   20.2240  -24.6030   42.6280 H   0  0  0  0  0  0  0  0  0  0  0  0
   20.7745  -25.2168   39.7124 H   0  0  0  0  0  0  0  0  0  0  0  0
   19.3872  -23.9379   38.1107 H   0  0  0  0  0  0  0  0  0  0  0  0
   20.3289  -24.6815   36.7739 H   0  0  0  0  0  0  0  0  0  0  0  0
   18.5355  -24.7829   36.7739 H   0  0  0  0  0  0  0  0  0  0  0  0
  1  2  1  0
  2  3  2  0
  3  4  1  0
  4  5  2  0
  5  6  1  0
  6  7  1  0
  7  8  1  0
  8  9  2  0
  9 10  1  0
 10 11  2  0
 11 12  1  0
 12 13  1  0
 12 14  2  0
 14 15  1  0
 15 16  2  0
 15 17  1  0
 17 18  1  0
  5 19  1  0
 19 20  2  0
 20 21  1  0
 20  2  1  0
 17  6  2  0
 14  8  1  0
  1 22  1  0
  1 23  1  0
  1 24  1  0
  3 25  1  0
  4 26  1  0
  9 27  1  0
 10 28  1  0
 11 29  1  0
 13 30  1  0
 18 31  1  0
 19 32  1  0
 21 33  1  0
 21 34  1  0
 21 35  1  0
M  END
>  <meeko>  (3) 
{"is_sidechain": [false], "free_energy": -7.234, "intermolecular_energy": -8.199, "internal_energy": -0.111}

$$$$
cand_036_out
     RDKit          3D

 35 37  0  0  0  0  0  0  0  0999 V2000
   24.3190  -28.6700   45.0380 C   0  0  0  0  0  0  0  0  0  0  0  0
   23.3710  -28.1960   43.9700 C   0  0  0  0  0  0  0  0  0  0  0  0
   22.4050  -27.2320   44.2880 C   0  0  0  0  0  0  0  0  0  0  0  0
   21.5090  -26.7690   43.3210 C   0  0  0  0  0  0  0  0  0  0  0  0
   21.5490  -27.2630   42.0140 C   0  0  0  0  0  0  0  0  0  0  0  0
   20.6300  -26.7700   40.9660 C   0  0  0  0  0  0  0  0  0  0  0  0
   20.5220  -25.3840   40.9510 O   0  0  0  0  0  0  0  0  0  0  0  0
   19.7000  -24.7920   40.0260 C   0  0  0  0  0  0  0  0  0  0  0  0
   19.6100  -23.4000   40.0570 C   0  0  0  0  0  0  0  0  0  0  0  0
   18.7920  -22.7340   39.1410 C   0  0  0  0  0  0  0  0  0  0  0  0
   18.0650  -23.4600   38.1960 C   0  0  0  0  0  0  0  0  0  0  0  0
   18.1560  -24.8500   38.1670 C   0  0  0  0  0  0  0  0  0  0  0  0
   17.4170  -25.4980   37.2160 O   0  0  0  0  0  0  0  0  0  0  0  0
   18.9740  -25.5150   39.0840 C   0  0  0  0  0  0  0  0  0  0  0  0
   19.0990  -26.9740   39.0890 C   0  0  0  0  0  0  0  0  0  0  0  0
   18.4950  -27.6810   38.2850 O   0  0  0  0  0  0  0  0  0  0  0  0
   19.9860  -27.5820   40.1080 C   0  0  0  0  0  0  0  0  0  0  0  0
   20.1060  -28.9590   40.0940 O   0  0  0  0  0  0  0  0  0  0  0  0
   22.5240  -28.2210   41.6950 C   0  0  0  0  0  0  0  0  0  0  0  0
   23.4350  -28.6960   42.6550 C   0  0  0  0  0  0  0  0  0  0  0  0
   24.4520  -29.7300   42.2580 C   0  0  0  0  0  0  0  0  0  0  0  0
   23.8916  -28.4563   46.0288 H   0  0  0  0  0  0  0  0  0  0  0  0
   24.4776  -29.7534   44.9330 H   0  0  0  0  0  0  0  0  0  0  0  0
   25.2809  -28.1468   44.9330 H   0  0  0  0  0  0  0  0  0  0  0  0
   22.3514  -26.8346   45.3123 H   0  0  0  0  0  0  0  0  0  0  0  0
   20.7634  -26.0068   43.5914 H   0  0  0  0  0  0  0  0  0  0  0  0
   20.1824  -22.8276   40.8018 H   0  0  0  0  0  0  0  0  0  0  0  0
   18.7207  -21.6366   39.1644 H   0  0  0  0  0  0  0  0  0  0  0  0
   17.4210  -22.9352   37.4750 H   0  0  0  0  0  0  0  0  0  0  0  0
   16.5120  -25.6830   37.3720 H   0  0  0  0  0  0  0  0  0  0  0  0
   20.7230  -29.3700   39.5210 H   0  0  0  0  0  0  0  0  0  0  0  0
   22.5768  -28.6102   40.6675 H   0  0  0  0  0  0  0  0  0  0  0  0
   24.8920  -30.1773   43.1615 H   0  0  0  0  0  0  0  0  0  0  0  0
   23.9637  -30.5143   41.6610 H   0  0  0  0  0  0  0  0  0  0  0  0
   25.2443  -29.2547   41.6610 H   0  0  0  0  0  0  0  0  0  0  0  0
  1  2  1  0
  2  3  2  0
  3  4  1  0
  4  5  2  0
  5  6  1  0
  6  7  1  0
  7  8  1  0
  8  9  2  0
  9 10  1  0
 10 11  2  0
 11 12  1  0
 12 13  1  0
 12 14  2  0
 14 15  1  0
 15 16  2  0
 15 17  1  0
 17 18  1  0
  5 19  1  0
 19 20  2  0
 20 21  1  0
 20  2  1  0
 17  6  2  0
 14  8  1  0
  1 22  1  0
  1 23  1  0
  1 24  1  0
  3 25  1  0
  4 26  1  0
  9 27  1  0
 10 28  1  0
 11 29  1  0
 13 30  1  0
 18 31  1  0
 19 32  1  0
 21 33  1  0
 21 34  1  0
 21 35  1  0
M  END
>  <meeko>  (4) 
{"is_sidechain": [false], "free_energy": -7.088, "intermolecular_energy": -8.156, "internal_energy": 0.009}

$$$$
cand_036_out
     RDKit          3D

 35 37  0  0  0  0  0  0  0  0999 V2000
   19.1100  -25.2410   41.6720 C   0  0  0  0  0  0  0  0  0  0  0  0
   19.2280  -26.4210   40.7470 C   0  0  0  0  0  0  0  0  0  0  0  0
   18.3110  -26.5660   39.6970 C   0  0  0  0  0  0  0  0  0  0  0  0
   18.3910  -27.6500   38.8190 C   0  0  0  0  0  0  0  0  0  0  0  0
   19.3850  -28.6210   38.9720 C   0  0  0  0  0  0  0  0  0  0  0  0
   19.5080  -29.7630   38.0400 C   0  0  0  0  0  0  0  0  0  0  0  0
   19.8750  -29.3750   36.7570 O   0  0  0  0  0  0  0  0  0  0  0  0
   20.0250  -30.3370   35.7900 C   0  0  0  0  0  0  0  0  0  0  0  0
   20.3790  -29.9020   34.5130 C   0  0  0  0  0  0  0  0  0  0  0  0
   20.5500  -30.8300   33.4830 C   0  0  0  0  0  0  0  0  0  0  0  0
   20.3670  -32.1920   33.7310 C   0  0  0  0  0  0  0  0  0  0  0  0
   20.0130  -32.6230   35.0070 C   0  0  0  0  0  0  0  0  0  0  0  0
   19.8490  -33.9700   35.1800 O   0  0  0  0  0  0  0  0  0  0  0  0
   19.8410  -31.6940   36.0370 C   0  0  0  0  0  0  0  0  0  0  0  0
   19.4690  -32.1050   37.3920 C   0  0  0  0  0  0  0  0  0  0  0  0
   19.2970  -33.2850   37.6890 O   0  0  0  0  0  0  0  0  0  0  0  0
   19.3050  -31.0410   38.4090 C   0  0  0  0  0  0  0  0  0  0  0  0
   18.9670  -31.4420   39.6880 O   0  0  0  0  0  0  0  0  0  0  0  0
   20.3090  -28.4690   40.0180 C   0  0  0  0  0  0  0  0  0  0  0  0
   20.2430  -27.3830   40.9080 C   0  0  0  0  0  0  0  0  0  0  0  0
   21.2560  -27.2770   42.0160 C   0  0  0  0  0  0  0  0  0  0  0  0
   19.1447  -25.5880   42.7153 H   0  0  0  0  0  0  0  0  0  0  0  0
   19.9432  -24.5466   41.4886 H   0  0  0  0  0  0  0  0  0  0  0  0
   18.1558  -24.7253   41.4886 H   0  0  0  0  0  0  0  0  0  0  0  0
   17.5175  -25.8162   39.5623 H   0  0  0  0  0  0  0  0  0  0  0  0
   17.6639  -27.7403   37.9985 H   0  0  0  0  0  0  0  0  0  0  0  0
   20.5234  -28.8293   34.3171 H   0  0  0  0  0  0  0  0  0  0  0  0
   20.8291  -30.4876   32.4756 H   0  0  0  0  0  0  0  0  0  0  0  0
   20.5022  -32.9229   32.9201 H   0  0  0  0  0  0  0  0  0  0  0  0
   19.7110  -34.3190   36.0390 H   0  0  0  0  0  0  0  0  0  0  0  0
   18.4130  -32.1880   39.8140 H   0  0  0  0  0  0  0  0  0  0  0  0
   21.1043  -29.2183   40.1442 H   0  0  0  0  0  0  0  0  0  0  0  0
   20.7434  -27.3306   42.9878 H   0  0  0  0  0  0  0  0  0  0  0  0
   21.9760  -28.1047   41.9350 H   0  0  0  0  0  0  0  0  0  0  0  0
   21.7890  -26.3182   41.9350 H   0  0  0  0  0  0  0  0  0  0  0  0
  1  2  1  0
  2  3  2  0
  3  4  1  0
  4  5  2  0
  5  6  1  0
  6  7  1  0
  7  8  1  0
  8  9  2  0
  9 10  1  0
 10 11  2  0
 11 12  1  0
 12 13  1  0
 12 14  2  0
 14 15  1  0
 15 16  2  0
 15 17  1  0
 17 18  1  0
  5 19  1  0
 19 20  2  0
 20 21  1  0
 20  2  1  0
 17  6  2  0
 14  8  1  0
  1 22  1  0
  1 23  1  0
  1 24  1  0
  3 25  1  0
  4 26  1  0
  9 27  1  0
 10 28  1  0
 11 29  1  0
 13 30  1  0
 18 31  1  0
 19 32  1  0
 21 33  1  0
 21 34  1  0
 21 35  1  0
M  END
>  <meeko>  (5) 
{"is_sidechain": [false], "free_energy": -6.996, "intermolecular_energy": -7.82, "internal_energy": -0.224}

$$$$
cand_036_out
     RDKit          3D

 35 37  0  0  0  0  0  0  0  0999 V2000
   25.0360  -29.1530   45.0120 C   0  0  0  0  0  0  0  0  0  0  0  0
   23.9760  -28.6210   44.0870 C   0  0  0  0  0  0  0  0  0  0  0  0
   23.1100  -27.6160   44.5380 C   0  0  0  0  0  0  0  0  0  0  0  0
   22.1140  -27.0990   43.7060 C   0  0  0  0  0  0  0  0  0  0  0  0
   21.9520  -27.5790   42.4020 C   0  0  0  0  0  0  0  0  0  0  0  0
   20.9240  -27.0310   41.4930 C   0  0  0  0  0  0  0  0  0  0  0  0
   20.7450  -27.8040   40.3520 O   0  0  0  0  0  0  0  0  0  0  0  0
   19.8180  -27.4090   39.4210 C   0  0  0  0  0  0  0  0  0  0  0  0
   19.6820  -28.2070   38.2840 C   0  0  0  0  0  0  0  0  0  0  0  0
   18.7550  -27.8620   37.2980 C   0  0  0  0  0  0  0  0  0  0  0  0
   17.9650  -26.7210   37.4490 C   0  0  0  0  0  0  0  0  0  0  0  0
   18.1020  -25.9270   38.5850 C   0  0  0  0  0  0  0  0  0  0  0  0
   17.2970  -24.8240   38.6690 O   0  0  0  0  0  0  0  0  0  0  0  0
   19.0310  -26.2720   39.5710 C   0  0  0  0  0  0  0  0  0  0  0  0
   19.2070  -25.4650   40.7790 C   0  0  0  0  0  0  0  0  0  0  0  0
   18.5440  -24.4510   40.9870 O   0  0  0  0  0  0  0  0  0  0  0  0
   20.2240  -25.9130   41.7590 C   0  0  0  0  0  0  0  0  0  0  0  0
   20.3720  -25.1500   42.9030 O   0  0  0  0  0  0  0  0  0  0  0  0
   22.8270  -28.5790   41.9490 C   0  0  0  0  0  0  0  0  0  0  0  0
   23.8350  -29.1080   42.7730 C   0  0  0  0  0  0  0  0  0  0  0  0
   24.7370  -30.1850   42.2350 C   0  0  0  0  0  0  0  0  0  0  0  0
   24.7244  -28.9966   46.0553 H   0  0  0  0  0  0  0  0  0  0  0  0
   25.1766  -30.2285   44.8286 H   0  0  0  0  0  0  0  0  0  0  0  0
   25.9823  -28.6230   44.8286 H   0  0  0  0  0  0  0  0  0  0  0  0
   23.2160  -27.2285   45.5620 H   0  0  0  0  0  0  0  0  0  0  0  0
   21.4499  -26.3059   44.0803 H   0  0  0  0  0  0  0  0  0  0  0  0
   20.3040  -29.1064   38.1647 H   0  0  0  0  0  0  0  0  0  0  0  0
   18.6473  -28.4901   36.4014 H   0  0  0  0  0  0  0  0  0  0  0  0
   17.2354  -26.4494   36.6719 H   0  0  0  0  0  0  0  0  0  0  0  0
   16.3750  -24.9260   38.7990 H   0  0  0  0  0  0  0  0  0  0  0  0
   21.1340  -24.6160   43.0140 H   0  0  0  0  0  0  0  0  0  0  0  0
   22.7208  -28.9585   40.9220 H   0  0  0  0  0  0  0  0  0  0  0  0
   25.1950  -30.7319   43.0724 H   0  0  0  0  0  0  0  0  0  0  0  0
   24.1492  -30.8820   41.6196 H   0  0  0  0  0  0  0  0  0  0  0  0
   25.5263  -29.7287   41.6196 H   0  0  0  0  0  0  0  0  0  0  0  0
  1  2  1  0
  2  3  2  0
  3  4  1  0
  4  5  2  0
  5  6  1  0
  6  7  1  0
  7  8  1  0
  8  9  2  0
  9 10  1  0
 10 11  2  0
 11 12  1  0
 12 13  1  0
 12 14  2  0
 14 15  1  0
 15 16  2  0
 15 17  1  0
 17 18  1  0
  5 19  1  0
 19 20  2  0
 20 21  1  0
 20  2  1  0
 17  6  2  0
 14  8  1  0
  1 22  1  0
  1 23  1  0
  1 24  1  0
  3 25  1  0
  4 26  1  0
  9 27  1  0
 10 28  1  0
 11 29  1  0
 13 30  1  0
 18 31  1  0
 19 32  1  0
 21 33  1  0
 21 34  1  0
 21 35  1  0
M  END
>  <meeko>  (6) 
{"is_sidechain": [false], "free_energy": -6.898, "intermolecular_energy": -8.237, "internal_energy": 0.302}

$$$$
cand_036_out
     RDKit          3D

 35 37  0  0  0  0  0  0  0  0999 V2000
   22.1080  -23.2810   49.8460 C   0  0  0  0  0  0  0  0  0  0  0  0
   21.6010  -23.4980   48.4460 C   0  0  0  0  0  0  0  0  0  0  0  0
   22.1060  -22.7100   47.4030 C   0  0  0  0  0  0  0  0  0  0  0  0
   21.6580  -22.8830   46.0910 C   0  0  0  0  0  0  0  0  0  0  0  0
   20.6880  -23.8440   45.7880 C   0  0  0  0  0  0  0  0  0  0  0  0
   20.2160  -24.0660   44.4050 C   0  0  0  0  0  0  0  0  0  0  0  0
   20.4910  -25.3460   43.9400 O   0  0  0  0  0  0  0  0  0  0  0  0
   20.1070  -25.6880   42.6680 C   0  0  0  0  0  0  0  0  0  0  0  0
   20.4160  -26.9790   42.2370 C   0  0  0  0  0  0  0  0  0  0  0  0
   20.0520  -27.3910   40.9540 C   0  0  0  0  0  0  0  0  0  0  0  0
   19.3780  -26.5130   40.1020 C   0  0  0  0  0  0  0  0  0  0  0  0
   19.0710  -25.2250   40.5340 C   0  0  0  0  0  0  0  0  0  0  0  0
   18.4100  -24.4170   39.6500 O   0  0  0  0  0  0  0  0  0  0  0  0
   19.4370  -24.8130   41.8190 C   0  0  0  0  0  0  0  0  0  0  0  0
   19.1330  -23.4690   42.3120 C   0  0  0  0  0  0  0  0  0  0  0  0
   18.5380  -22.6420   41.6240 O   0  0  0  0  0  0  0  0  0  0  0  0
   19.5710  -23.1290   43.6860 C   0  0  0  0  0  0  0  0  0  0  0  0
   19.2680  -21.8610   44.1460 O   0  0  0  0  0  0  0  0  0  0  0  0
   20.1900  -24.6390   46.8330 C   0  0  0  0  0  0  0  0  0  0  0  0
   20.6320  -24.4780   48.1580 C   0  0  0  0  0  0  0  0  0  0  0  0
   20.0570  -25.3530   49.2370 C   0  0  0  0  0  0  0  0  0  0  0  0
   21.3445  -23.6078   50.5673 H   0  0  0  0  0  0  0  0  0  0  0  0
   23.0285  -23.8640   49.9971 H   0  0  0  0  0  0  0  0  0  0  0  0
   22.3217  -22.2126   49.9971 H   0  0  0  0  0  0  0  0  0  0  0  0
   22.8656  -21.9447   47.6203 H   0  0  0  0  0  0  0  0  0  0  0  0
   22.0727  -22.2565   45.2875 H   0  0  0  0  0  0  0  0  0  0  0  0
   20.9459  -27.6712   42.9078 H   0  0  0  0  0  0  0  0  0  0  0  0
   20.2962  -28.4081   40.6135 H   0  0  0  0  0  0  0  0  0  0  0  0
   19.0901  -26.8383   39.0914 H   0  0  0  0  0  0  0  0  0  0  0  0
   18.5900  -24.4810   38.7320 H   0  0  0  0  0  0  0  0  0  0  0  0
   19.3600  -21.6590   45.0570 H   0  0  0  0  0  0  0  0  0  0  0  0
   19.4350  -25.4071   46.6093 H   0  0  0  0  0  0  0  0  0  0  0  0
   20.3255  -24.9444   50.2224 H   0  0  0  0  0  0  0  0  0  0  0  0
   18.9618  -25.3842   49.1390 H   0  0  0  0  0  0  0  0  0  0  0  0
   20.4630  -26.3706   49.1390 H   0  0  0  0  0  0  0  0  0  0  0  0
  1  2  1  0
  2  3  2  0
  3  4  1  0
  4  5  2  0
  5  6  1  0
  6  7  1  0
  7  8  1  0
  8  9  2  0
  9 10  1  0
 10 11  2  0
 11 12  1  0
 12 13  1  0
 12 14  2  0
 14 15  1  0
 15 16  2  0
 15 17  1  0
 17 18  1  0
  5 19  1  0
 19 20  2  0
 20 21  1  0
 20  2  1  0
 17  6  2  0
 14  8  1  0
  1 22  1  0
  1 23  1  0
  1 24  1  0
  3 25  1  0
  4 26  1  0
  9 27  1  0
 10 28  1  0
 11 29  1  0
 13 30  1  0
 18 31  1  0
 19 32  1  0
 21 33  1  0
 21 34  1  0
 21 35  1  0
M  END
>  <meeko>  (7) 
{"is_sidechain": [false], "free_energy": -6.841, "intermolecular_energy": -7.665, "internal_energy": -0.206}

$$$$
cand_036_out
     RDKit          3D

 35 37  0  0  0  0  0  0  0  0999 V2000
   18.9010  -35.4690   38.4920 C   0  0  0  0  0  0  0  0  0  0  0  0
   19.0540  -33.9730   38.4620 C   0  0  0  0  0  0  0  0  0  0  0  0
   18.9630  -33.2490   39.6580 C   0  0  0  0  0  0  0  0  0  0  0  0
   19.1000  -31.8580   39.6670 C   0  0  0  0  0  0  0  0  0  0  0  0
   19.3240  -31.1540   38.4800 C   0  0  0  0  0  0  0  0  0  0  0  0
   19.4990  -29.6860   38.4660 C   0  0  0  0  0  0  0  0  0  0  0  0
   19.4830  -29.1290   39.7390 O   0  0  0  0  0  0  0  0  0  0  0  0
   19.6350  -27.7720   39.8730 C   0  0  0  0  0  0  0  0  0  0  0  0
   19.5970  -27.2540   41.1680 C   0  0  0  0  0  0  0  0  0  0  0  0
   19.7480  -25.8810   41.3730 C   0  0  0  0  0  0  0  0  0  0  0  0
   19.9370  -25.0270   40.2850 C   0  0  0  0  0  0  0  0  0  0  0  0
   19.9750  -25.5470   38.9930 C   0  0  0  0  0  0  0  0  0  0  0  0
   20.1640  -24.6550   37.9730 O   0  0  0  0  0  0  0  0  0  0  0  0
   19.8230  -26.9210   38.7880 C   0  0  0  0  0  0  0  0  0  0  0  0
   19.8560  -27.5090   37.4480 C   0  0  0  0  0  0  0  0  0  0  0  0
   20.0250  -26.8230   36.4410 O   0  0  0  0  0  0  0  0  0  0  0  0
   19.6780  -28.9750   37.3380 C   0  0  0  0  0  0  0  0  0  0  0  0
   19.7240  -29.5200   36.0690 O   0  0  0  0  0  0  0  0  0  0  0  0
   19.4250  -31.8830   37.2840 C   0  0  0  0  0  0  0  0  0  0  0  0
   19.2920  -33.2820   37.2580 C   0  0  0  0  0  0  0  0  0  0  0  0
   19.4000  -34.0080   35.9460 C   0  0  0  0  0  0  0  0  0  0  0  0
   18.8658  -35.8131   39.5362 H   0  0  0  0  0  0  0  0  0  0  0  0
   17.9692  -35.7526   37.9809 H   0  0  0  0  0  0  0  0  0  0  0  0
   19.7561  -35.9354   37.9809 H   0  0  0  0  0  0  0  0  0  0  0  0
   18.7813  -33.7824   40.6027 H   0  0  0  0  0  0  0  0  0  0  0  0
   19.0308  -31.3110   40.6188 H   0  0  0  0  0  0  0  0  0  0  0  0
   19.4483  -27.9261   42.0260 H   0  0  0  0  0  0  0  0  0  0  0  0
   19.7180  -25.4717   42.3936 H   0  0  0  0  0  0  0  0  0  0  0  0
   20.0557  -23.9456   40.4474 H   0  0  0  0  0  0  0  0  0  0  0  0
   20.1060  -24.9420   37.0830 H   0  0  0  0  0  0  0  0  0  0  0  0
   20.1790  -30.3260   35.9210 H   0  0  0  0  0  0  0  0  0  0  0  0
   19.6131  -31.3452   36.3431 H   0  0  0  0  0  0  0  0  0  0  0  0
   19.5595  -35.0803   36.1323 H   0  0  0  0  0  0  0  0  0  0  0  0
   18.4714  -33.8696   35.3728 H   0  0  0  0  0  0  0  0  0  0  0  0
   20.2481  -33.6053   35.3728 H   0  0  0  0  0  0  0  0  0  0  0  0
  1  2  1  0
  2  3  2  0
  3  4  1  0
  4  5  2  0
  5  6  1  0
  6  7  1  0
  7  8  1  0
  8  9  2  0
  9 10  1  0
 10 11  2  0
 11 12  1  0
 12 13  1  0
 12 14  2  0
 14 15  1  0
 15 16  2  0
 15 17  1  0
 17 18  1  0
  5 19  1  0
 19 20  2  0
 20 21  1  0
 20  2  1  0
 17  6  2  0
 14  8  1  0
  1 22  1  0
  1 23  1  0
  1 24  1  0
  3 25  1  0
  4 26  1  0
  9 27  1  0
 10 28  1  0
 11 29  1  0
 13 30  1  0
 18 31  1  0
 19 32  1  0
 21 33  1  0
 21 34  1  0
 21 35  1  0
M  END
>  <meeko>  (8) 
{"is_sidechain": [false], "free_energy": -6.77, "intermolecular_energy": -8.19, "internal_energy": 0.398}

$$$$
cand_036_out
     RDKit          3D

 35 37  0  0  0  0  0  0  0  0999 V2000
   20.7740  -21.5870   49.8500 C   0  0  0  0  0  0  0  0  0  0  0  0
   21.0030  -22.5050   48.6810 C   0  0  0  0  0  0  0  0  0  0  0  0
   20.4770  -23.8040   48.7130 C   0  0  0  0  0  0  0  0  0  0  0  0
   20.6710  -24.6830   47.6460 C   0  0  0  0  0  0  0  0  0  0  0  0
   21.4020  -24.2910   46.5200 C   0  0  0  0  0  0  0  0  0  0  0  0
   21.5980  -25.1940   45.3660 C   0  0  0  0  0  0  0  0  0  0  0  0
   22.7030  -26.0240   45.5120 O   0  0  0  0  0  0  0  0  0  0  0  0
   23.0030  -26.9140   44.5120 C   0  0  0  0  0  0  0  0  0  0  0  0
   24.1290  -27.7170   44.6940 C   0  0  0  0  0  0  0  0  0  0  0  0
   24.4880  -28.6460   43.7140 C   0  0  0  0  0  0  0  0  0  0  0  0
   23.7210  -28.7710   42.5540 C   0  0  0  0  0  0  0  0  0  0  0  0
   22.5970  -27.9690   42.3760 C   0  0  0  0  0  0  0  0  0  0  0  0
   21.8910  -28.1430   41.2170 O   0  0  0  0  0  0  0  0  0  0  0  0
   22.2380  -27.0390   43.3560 C   0  0  0  0  0  0  0  0  0  0  0  0
   21.0650  -26.1760   43.2070 C   0  0  0  0  0  0  0  0  0  0  0  0
   20.3380  -26.2320   42.2180 O   0  0  0  0  0  0  0  0  0  0  0  0
   20.7770  -25.2190   44.3000 C   0  0  0  0  0  0  0  0  0  0  0  0
   19.6590  -24.4180   44.1550 O   0  0  0  0  0  0  0  0  0  0  0  0
   21.9200  -22.9870   46.4850 C   0  0  0  0  0  0  0  0  0  0  0  0
   21.7320  -22.0890   47.5500 C   0  0  0  0  0  0  0  0  0  0  0  0
   22.3190  -20.7070   47.4600 C   0  0  0  0  0  0  0  0  0  0  0  0
   20.9133  -22.1454   50.7875 H   0  0  0  0  0  0  0  0  0  0  0  0
   21.4920  -20.7547   49.8088 H   0  0  0  0  0  0  0  0  0  0  0  0
   19.7492  -21.1895   49.8088 H   0  0  0  0  0  0  0  0  0  0  0  0
   19.9034  -24.1353   49.5912 H   0  0  0  0  0  0  0  0  0  0  0  0
   20.2440  -25.6957   47.6914 H   0  0  0  0  0  0  0  0  0  0  0  0
   24.7335  -27.6190   45.6078 H   0  0  0  0  0  0  0  0  0  0  0  0
   25.3759  -29.2796   43.8565 H   0  0  0  0  0  0  0  0  0  0  0  0
   24.0043  -29.5018   41.7822 H   0  0  0  0  0  0  0  0  0  0  0  0
   21.0660  -28.5880   41.2330 H   0  0  0  0  0  0  0  0  0  0  0  0
   19.2660  -24.0220   44.9080 H   0  0  0  0  0  0  0  0  0  0  0  0
   22.4876  -22.6594   45.6016 H   0  0  0  0  0  0  0  0  0  0  0  0
   22.4863  -20.3130   48.4733 H   0  0  0  0  0  0  0  0  0  0  0  0
   23.2766  -20.7498   46.9204 H   0  0  0  0  0  0  0  0  0  0  0  0
   21.6233  -20.0476   46.9204 H   0  0  0  0  0  0  0  0  0  0  0  0
  1  2  1  0
  2  3  2  0
  3  4  1  0
  4  5  2  0
  5  6  1  0
  6  7  1  0
  7  8  1  0
  8  9  2  0
  9 10  1  0
 10 11  2  0
 11 12  1  0
 12 13  1  0
 12 14  2  0
 14 15  1  0
 15 16  2  0
 15 17  1  0
 17 18  1  0
  5 19  1  0
 19 20  2  0
 20 21  1  0
 20  2  1  0
 17  6  2  0
 14  8  1  0
  1 22  1  0
  1 23  1  0
  1 24  1  0
  3 25  1  0
  4 26  1  0
  9 27  1  0
 10 28  1  0
 11 29  1  0
 13 30  1  0
 18 31  1  0
 19 32  1  0
 21 33  1  0
 21 34  1  0
 21 35  1  0
M  END
>  <meeko>  (9) 
{"is_sidechain": [false], "free_energy": -6.734, "intermolecular_energy": -7.432, "internal_energy": -0.319}

$$$$
