cand_038_out
     RDKit          3D

 47 49  0  0  0  0  0  0  0  0999 V2000
   20.3500  -31.7500   34.7840 C   0  0  0  0  0  0  0  0  0  0  0  0
   19.7400  -32.8550   35.6400 C   0  0  0  0  0  0  0  0  0  0  0  0
   19.5480  -32.4290   37.0810 C   0  0  0  0  0  0  0  0  0  0  0  0
   19.5880  -31.0220   37.2810 C   0  0  0  0  0  0  0  0  0  0  0  0
   19.4160  -30.4280   38.5340 C   0  0  0  0  0  0  0  0  0  0  0  0
   19.4830  -28.9640   38.7290 C   0  0  0  0  0  0  0  0  0  0  0  0
   19.5160  -28.5990   40.0700 O   0  0  0  0  0  0  0  0  0  0  0  0
   19.5800  -27.2690   40.3940 C   0  0  0  0  0  0  0  0  0  0  0  0
   19.6260  -26.9480   41.7520 C   0  0  0  0  0  0  0  0  0  0  0  0
   19.6890  -25.6120   42.1500 C   0  0  0  0  0  0  0  0  0  0  0  0
   19.7060  -24.5950   41.1920 C   0  0  0  0  0  0  0  0  0  0  0  0
   19.6590  -24.9180   39.8380 C   0  0  0  0  0  0  0  0  0  0  0  0
   19.6770  -23.8740   38.9540 O   0  0  0  0  0  0  0  0  0  0  0  0
   19.5960  -26.2560   39.4400 C   0  0  0  0  0  0  0  0  0  0  0  0
   19.5460  -26.6380   38.0280 C   0  0  0  0  0  0  0  0  0  0  0  0
   19.5490  -25.8010   37.1270 O   0  0  0  0  0  0  0  0  0  0  0  0
   19.4890  -28.0830   37.7110 C   0  0  0  0  0  0  0  0  0  0  0  0
   19.4280  -28.4320   36.3740 O   0  0  0  0  0  0  0  0  0  0  0  0
   19.2180  -31.2710   39.6210 C   0  0  0  0  0  0  0  0  0  0  0  0
   19.1780  -32.6610   39.4490 C   0  0  0  0  0  0  0  0  0  0  0  0
   19.3310  -33.2900   38.1900 C   0  0  0  0  0  0  0  0  0  0  0  0
   19.2830  -34.8420   38.1210 C   0  0  0  0  0  0  0  0  0  0  0  0
   18.5600  -35.3890   36.8540 C   0  0  0  0  0  0  0  0  0  0  0  0
   20.6950  -35.4690   38.0610 C   0  0  0  0  0  0  0  0  0  0  0  0
   18.4870  -35.3960   39.3210 C   0  0  0  0  0  0  0  0  0  0  0  0
   20.7780  -30.9747   35.4365 H   0  0  0  0  0  0  0  0  0  0  0  0
   21.1423  -32.1732   34.1490 H   0  0  0  0  0  0  0  0  0  0  0  0
   19.5697  -31.3051   34.1490 H   0  0  0  0  0  0  0  0  0  0  0  0
   18.7613  -33.1285   35.2190 H   0  0  0  0  0  0  0  0  0  0  0  0
   20.4346  -33.7079   35.6319 H   0  0  0  0  0  0  0  0  0  0  0  0
   19.7621  -30.3722   36.4107 H   0  0  0  0  0  0  0  0  0  0  0  0
   19.6126  -27.7475   42.5074 H   0  0  0  0  0  0  0  0  0  0  0  0
   19.7253  -25.3590   43.2199 H   0  0  0  0  0  0  0  0  0  0  0  0
   19.7564  -23.5421   41.5063 H   0  0  0  0  0  0  0  0  0  0  0  0
   19.9060  -24.0230   38.0580 H   0  0  0  0  0  0  0  0  0  0  0  0
   18.7690  -28.0570   35.8220 H   0  0  0  0  0  0  0  0  0  0  0  0
   19.0914  -30.8428   40.6263 H   0  0  0  0  0  0  0  0  0  0  0  0
   19.0201  -33.2939   40.3348 H   0  0  0  0  0  0  0  0  0  0  0  0
   17.7172  -36.0266   37.1593 H   0  0  0  0  0  0  0  0  0  0  0  0
   18.1842  -34.5471   36.2541 H   0  0  0  0  0  0  0  0  0  0  0  0
   19.2680  -35.9796   36.2541 H   0  0  0  0  0  0  0  0  0  0  0  0
   21.0666  -35.6340   39.0831 H   0  0  0  0  0  0  0  0  0  0  0  0
   20.6470  -36.4304   37.5286 H   0  0  0  0  0  0  0  0  0  0  0  0
   21.3760  -34.7887   37.5286 H   0  0  0  0  0  0  0  0  0  0  0  0
   18.9599  -35.0669   40.2581 H   0  0  0  0  0  0  0  0  0  0  0  0
   17.4537  -35.0209   39.2802 H   0  0  0  0  0  0  0  0  0  0  0  0
   18.4799  -36.4952   39.2802 H   0  0  0  0  0  0  0  0  0  0  0  0
  1  2  1  0
  2  3  1  0
  3  4  2  0
  4  5  1  0
  5  6  1  0
  6  7  1  0
  7  8  1  0
  8  9  2  0
  9 10  1  0
 10 11  2  0
 11 12  1  0
 12 13  1  0
 12 14  2  0
 14 15  1  0
 15 16  2  0
 15 17  1  0
 17 18  1  0
  5 19  2  0
 19 20  1  0
 20 21  2  0
 21 22  1  0
 22 23  1  0
 22 24  1  0
 22 25  1  0
 21  3  1  0
 17  6  2  0
 14  8  1  0
  1 26  1  0
  1 27  1  0
  1 28  1  0
  2 29  1  0
  2 30  1  0
  4 31  1  0
  9 32  1  0
 10 33  1  0
 11 34  1  0
 13 35  1  0
 18 36  1  0
 19 37  1  0
 20 38  1  0
 23 39  1  0
 23 40  1  0
 23 41  1  0
 24 42  1  0
 24 43  1  0
 24 44  1  0
 25 45  1  0
 25 46  1  0
 25 47  1  0
M  END
>  <meeko>  (1) 
{"is_sidechain": [false], "free_energy": -7.709, "intermolecular_energy": -9.512, "internal_energy": 0.175}

$$$$
cand_038_out
     RDKit          3D

 47 49  0  0  0  0  0  0  0  0999 V2000
   17.1050  -23.0850   45.6420 C   0  0  0  0  0  0  0  0  0  0  0  0
   18.2250  -23.0950   46.6780 C   0  0  0  0  0  0  0  0  0  0  0  0
   19.4410  -23.8640   46.2050 C   0  0  0  0  0  0  0  0  0  0  0  0
   19.4020  -24.2260   44.8300 C   0  0  0  0  0  0  0  0  0  0  0  0
   20.4340  -24.9240   44.1990 C   0  0  0  0  0  0  0  0  0  0  0  0
   20.3680  -25.3120   42.7740 C   0  0  0  0  0  0  0  0  0  0  0  0
   19.9470  -24.2730   41.9510 O   0  0  0  0  0  0  0  0  0  0  0  0
   19.8420  -24.4970   40.6030 C   0  0  0  0  0  0  0  0  0  0  0  0
   19.4290  -23.4230   39.8120 C   0  0  0  0  0  0  0  0  0  0  0  0
   19.2990  -23.5840   38.4310 C   0  0  0  0  0  0  0  0  0  0  0  0
   19.5810  -24.8170   37.8400 C   0  0  0  0  0  0  0  0  0  0  0  0
   19.9910  -25.8880   38.6310 C   0  0  0  0  0  0  0  0  0  0  0  0
   20.2490  -27.0670   37.9880 O   0  0  0  0  0  0  0  0  0  0  0  0
   20.1210  -25.7260   40.0130 C   0  0  0  0  0  0  0  0  0  0  0  0
   20.5500  -26.8240   40.8810 C   0  0  0  0  0  0  0  0  0  0  0  0
   20.8080  -27.9410   40.4370 O   0  0  0  0  0  0  0  0  0  0  0  0
   20.6650  -26.5480   42.3310 C   0  0  0  0  0  0  0  0  0  0  0  0
   21.0580  -27.5970   43.1420 O   0  0  0  0  0  0  0  0  0  0  0  0
   21.5280  -25.2900   44.9750 C   0  0  0  0  0  0  0  0  0  0  0  0
   21.5890  -24.9480   46.3320 C   0  0  0  0  0  0  0  0  0  0  0  0
   20.5660  -24.2250   46.9940 C   0  0  0  0  0  0  0  0  0  0  0  0
   20.7330  -23.9140   48.5080 C   0  0  0  0  0  0  0  0  0  0  0  0
   22.1940  -24.0790   49.0210 C   0  0  0  0  0  0  0  0  0  0  0  0
   20.3650  -22.4520   48.8490 C   0  0  0  0  0  0  0  0  0  0  0  0
   19.8900  -24.9020   49.3420 C   0  0  0  0  0  0  0  0  0  0  0  0
   16.1317  -23.0763   46.1544 H   0  0  0  0  0  0  0  0  0  0  0  0
   17.1959  -22.1876   45.0123 H   0  0  0  0  0  0  0  0  0  0  0  0
   17.1799  -23.9838   45.0123 H   0  0  0  0  0  0  0  0  0  0  0  0
   18.5226  -22.0568   46.8868 H   0  0  0  0  0  0  0  0  0  0  0  0
   17.8427  -23.5936   47.5809 H   0  0  0  0  0  0  0  0  0  0  0  0
   18.5195  -23.9435   44.2372 H   0  0  0  0  0  0  0  0  0  0  0  0
   19.2063  -22.4510   40.2763 H   0  0  0  0  0  0  0  0  0  0  0  0
   18.9739  -22.7379   37.8078 H   0  0  0  0  0  0  0  0  0  0  0  0
   19.4797  -24.9426   36.7519 H   0  0  0  0  0  0  0  0  0  0  0  0
   20.9010  -27.6500   38.3230 H   0  0  0  0  0  0  0  0  0  0  0  0
   21.9440  -27.6500   43.4420 H   0  0  0  0  0  0  0  0  0  0  0  0
   22.3546  -25.8542   44.5184 H   0  0  0  0  0  0  0  0  0  0  0  0
   22.4725  -25.2551   46.9108 H   0  0  0  0  0  0  0  0  0  0  0  0
   22.1985  -24.0795   50.1210 H   0  0  0  0  0  0  0  0  0  0  0  0
   22.6070  -25.0295   48.6522 H   0  0  0  0  0  0  0  0  0  0  0  0
   22.8086  -23.2446   48.6522 H   0  0  0  0  0  0  0  0  0  0  0  0
   20.3336  -22.3271   49.9414 H   0  0  0  0  0  0  0  0  0  0  0  0
   21.1208  -21.7750   48.4241 H   0  0  0  0  0  0  0  0  0  0  0  0
   19.3788  -22.2135   48.4241 H   0  0  0  0  0  0  0  0  0  0  0  0
   20.0535  -24.7104   50.4128 H   0  0  0  0  0  0  0  0  0  0  0  0
   18.8246  -24.7669   49.1038 H   0  0  0  0  0  0  0  0  0  0  0  0
   20.1911  -25.9328   49.1038 H   0  0  0  0  0  0  0  0  0  0  0  0
  1  2  1  0
  2  3  1  0
  3  4  2  0
  4  5  1  0
  5  6  1  0
  6  7  1  0
  7  8  1  0
  8  9  2  0
  9 10  1  0
 10 11  2  0
 11 12  1  0
 12 13  1  0
 12 14  2  0
 14 15  1  0
 15 16  2  0
 15 17  1  0
 17 18  1  0
  5 19  2  0
 19 20  1  0
 20 21  2  0
 21 22  1  0
 22 23  1  0
 22 24  1  0
 22 25  1  0
 21  3  1  0
 17  6  2  0
 14  8  1  0
  1 26  1  0
  1 27  1  0
  1 28  1  0
  2 29  1  0
  2 30  1  0
  4 31  1  0
  9 32  1  0
 10 33  1  0
 11 34  1  0
 13 35  1  0
 18 36  1  0
 19 37  1  0
 20 38  1  0
 23 39  1  0
 23 40  1  0
 23 41  1  0
 24 42  1  0
 24 43  1  0
 24 44  1  0
 25 45  1  0
 25 46  1  0
 25 47  1  0
M  END
>  <meeko>  (2) 
{"is_sidechain": [false], "free_energy": -7.501, "intermolecular_energy": -8.945, "internal_energy": -0.135}

$$$$
cand_038_out
     RDKit          3D

 47 49  0  0  0  0  0  0  0  0999 V2000
   20.2960  -31.6970   34.6580 C   0  0  0  0  0  0  0  0  0  0  0  0
   19.9190  -32.8150   35.6260 C   0  0  0  0  0  0  0  0  0  0  0  0
   19.5570  -32.2900   37.0000 C   0  0  0  0  0  0  0  0  0  0  0  0
   19.6000  -30.8730   37.1120 C   0  0  0  0  0  0  0  0  0  0  0  0
   19.2840  -30.1940   38.2910 C   0  0  0  0  0  0  0  0  0  0  0  0
   19.3540  -28.7220   38.3960 C   0  0  0  0  0  0  0  0  0  0  0  0
   18.7940  -28.0740   37.3000 O   0  0  0  0  0  0  0  0  0  0  0  0
   18.7920  -26.7040   37.2700 C   0  0  0  0  0  0  0  0  0  0  0  0
   18.2060  -26.0960   36.1580 C   0  0  0  0  0  0  0  0  0  0  0  0
   18.1730  -24.7030   36.0630 C   0  0  0  0  0  0  0  0  0  0  0  0
   18.7250  -23.9180   37.0780 C   0  0  0  0  0  0  0  0  0  0  0  0
   19.3090  -24.5270   38.1850 C   0  0  0  0  0  0  0  0  0  0  0  0
   19.8320  -23.7000   39.1410 O   0  0  0  0  0  0  0  0  0  0  0  0
   19.3420  -25.9210   38.2800 C   0  0  0  0  0  0  0  0  0  0  0  0
   19.9460  -26.6020   39.4270 C   0  0  0  0  0  0  0  0  0  0  0  0
   20.4590  -25.9810   40.3560 O   0  0  0  0  0  0  0  0  0  0  0  0
   19.9220  -28.0820   39.4360 C   0  0  0  0  0  0  0  0  0  0  0  0
   20.5080  -28.7140   40.5180 O   0  0  0  0  0  0  0  0  0  0  0  0
   18.9360  -30.9600   39.3970 C   0  0  0  0  0  0  0  0  0  0  0  0
   18.8900  -32.3580   39.3140 C   0  0  0  0  0  0  0  0  0  0  0  0
   19.1870  -33.0720   38.1270 C   0  0  0  0  0  0  0  0  0  0  0  0
   19.1180  -34.6240   38.1540 C   0  0  0  0  0  0  0  0  0  0  0  0
   20.5140  -35.3100   38.2460 C   0  0  0  0  0  0  0  0  0  0  0  0
   18.3450  -35.1540   39.3830 C   0  0  0  0  0  0  0  0  0  0  0  0
   18.4900  -35.1450   36.8440 C   0  0  0  0  0  0  0  0  0  0  0  0
   20.5968  -30.8051   35.2272 H   0  0  0  0  0  0  0  0  0  0  0  0
   21.1325  -32.0270   34.0245 H   0  0  0  0  0  0  0  0  0  0  0  0
   19.4304  -31.4531   34.0245 H   0  0  0  0  0  0  0  0  0  0  0  0
   19.0556  -33.3603   35.2172 H   0  0  0  0  0  0  0  0  0  0  0  0
   20.7941  -33.4722   35.7374 H   0  0  0  0  0  0  0  0  0  0  0  0
   19.8954  -30.2852   36.2304 H   0  0  0  0  0  0  0  0  0  0  0  0
   17.7710  -26.7132   35.3581 H   0  0  0  0  0  0  0  0  0  0  0  0
   17.7115  -24.2232   35.1873 H   0  0  0  0  0  0  0  0  0  0  0  0
   18.6982  -22.8209   37.0026 H   0  0  0  0  0  0  0  0  0  0  0  0
   20.0700  -22.8210   38.9200 H   0  0  0  0  0  0  0  0  0  0  0  0
   21.2760  -28.3500   40.9130 H   0  0  0  0  0  0  0  0  0  0  0  0
   18.6940  -30.4634   40.3482 H   0  0  0  0  0  0  0  0  0  0  0  0
   18.6102  -32.9277   40.2124 H   0  0  0  0  0  0  0  0  0  0  0  0
   20.7875  -35.4444   39.3029 H   0  0  0  0  0  0  0  0  0  0  0  0
   20.4739  -36.2910   37.7500 H   0  0  0  0  0  0  0  0  0  0  0  0
   21.2661  -34.6789   37.7500 H   0  0  0  0  0  0  0  0  0  0  0  0
   18.8418  -34.8134   40.3034 H   0  0  0  0  0  0  0  0  0  0  0  0
   17.3137  -34.7721   39.3601 H   0  0  0  0  0  0  0  0  0  0  0  0
   18.3294  -36.2537   39.3601 H   0  0  0  0  0  0  0  0  0  0  0  0
   17.6633  -35.8308   37.0811 H   0  0  0  0  0  0  0  0  0  0  0  0
   18.1061  -34.2965   36.2586 H   0  0  0  0  0  0  0  0  0  0  0  0
   19.2530  -35.6790   36.2586 H   0  0  0  0  0  0  0  0  0  0  0  0
  1  2  1  0
  2  3  1  0
  3  4  2  0
  4  5  1  0
  5  6  1  0
  6  7  1  0
  7  8  1  0
  8  9  2  0
  9 10  1  0
 10 11  2  0
 11 12  1  0
 12 13  1  0
 12 14  2  0
 14 15  1  0
 15 16  2  0
 15 17  1  0
 17 18  1  0
  5 19  2  0
 19 20  1  0
 20 21  2  0
 21 22  1  0
 22 23  1  0
 22 24  1  0
 22 25  1  0
 21  3  1  0
 17  6  2  0
 14  8  1  0
  1 26  1  0
  1 27  1  0
  1 28  1  0
  2 29  1  0
  2 30  1  0
  4 31  1  0
  9 32  1  0
 10 33  1  0
 11 34  1  0
 13 35  1  0
 18 36  1  0
 19 37  1  0
 20 38  1  0
 23 39  1  0
 23 40  1  0
 23 41  1  0
 24 42  1  0
 24 43  1  0
 24 44  1  0
 25 45  1  0
 25 46  1  0
 25 47  1  0
M  END
>  <meeko>  (3) 
{"is_sidechain": [false], "free_energy": -7.456, "intermolecular_energy": -9.048, "internal_energy": 0.024}

$$$$
cand_038_out
     RDKit          3D

 47 49  0  0  0  0  0  0  0  0999 V2000
   16.7830  -22.7670   45.7400 C   0  0  0  0  0  0  0  0  0  0  0  0
   17.9430  -22.9210   46.7180 C   0  0  0  0  0  0  0  0  0  0  0  0
   19.1330  -23.6230   46.0950 C   0  0  0  0  0  0  0  0  0  0  0  0
   19.0260  -23.8140   44.6900 C   0  0  0  0  0  0  0  0  0  0  0  0
   20.0230  -24.4260   43.9290 C   0  0  0  0  0  0  0  0  0  0  0  0
   19.8870  -24.6380   42.4730 C   0  0  0  0  0  0  0  0  0  0  0  0
   19.8960  -25.9830   42.1190 O   0  0  0  0  0  0  0  0  0  0  0  0
   19.7760  -26.3210   40.7960 C   0  0  0  0  0  0  0  0  0  0  0  0
   19.7750  -27.6820   40.4870 C   0  0  0  0  0  0  0  0  0  0  0  0
   19.6580  -28.0950   39.1590 C   0  0  0  0  0  0  0  0  0  0  0  0
   19.5420  -27.1490   38.1380 C   0  0  0  0  0  0  0  0  0  0  0  0
   19.5440  -25.7910   38.4490 C   0  0  0  0  0  0  0  0  0  0  0  0
   19.4290  -24.9180   37.4020 O   0  0  0  0  0  0  0  0  0  0  0  0
   19.6610  -25.3780   39.7790 C   0  0  0  0  0  0  0  0  0  0  0  0
   19.6670  -23.9620   40.1480 C   0  0  0  0  0  0  0  0  0  0  0  0
   19.5770  -23.0690   39.3070 O   0  0  0  0  0  0  0  0  0  0  0  0
   19.7870  -23.6290   41.5860 C   0  0  0  0  0  0  0  0  0  0  0  0
   19.8050  -22.2880   41.9230 O   0  0  0  0  0  0  0  0  0  0  0  0
   21.1530  -24.8800   44.6000 C   0  0  0  0  0  0  0  0  0  0  0  0
   21.2810  -24.7070   45.9840 C   0  0  0  0  0  0  0  0  0  0  0  0
   20.2940  -24.0730   46.7790 C   0  0  0  0  0  0  0  0  0  0  0  0
   20.5360  -23.9490   48.3090 C   0  0  0  0  0  0  0  0  0  0  0  0
   22.0080  -24.2280   48.7330 C   0  0  0  0  0  0  0  0  0  0  0  0
   20.2450  -22.5240   48.8330 C   0  0  0  0  0  0  0  0  0  0  0  0
   19.6850  -24.9950   49.0610 C   0  0  0  0  0  0  0  0  0  0  0  0
   15.8448  -22.6424   46.3006 H   0  0  0  0  0  0  0  0  0  0  0  0
   16.9519  -21.8834   45.1070 H   0  0  0  0  0  0  0  0  0  0  0  0
   16.7155  -23.6641   45.1070 H   0  0  0  0  0  0  0  0  0  0  0  0
   18.2578  -21.9217   47.0532 H   0  0  0  0  0  0  0  0  0  0  0  0
   17.5931  -23.5362   47.5600 H   0  0  0  0  0  0  0  0  0  0  0  0
   18.1165  -23.4636   44.1800 H   0  0  0  0  0  0  0  0  0  0  0  0
   19.8664  -28.4287   41.2896 H   0  0  0  0  0  0  0  0  0  0  0  0
   19.6571  -29.1678   38.9159 H   0  0  0  0  0  0  0  0  0  0  0  0
   19.4493  -27.4752   37.0916 H   0  0  0  0  0  0  0  0  0  0  0  0
   20.0230  -24.9720   36.6800 H   0  0  0  0  0  0  0  0  0  0  0  0
   20.6110  -21.8100   41.8980 H   0  0  0  0  0  0  0  0  0  0  0  0
   21.9552  -25.3805   44.0378 H   0  0  0  0  0  0  0  0  0  0  0  0
   22.1905  -25.0809   46.4770 H   0  0  0  0  0  0  0  0  0  0  0  0
   22.0772  -24.2411   49.8307 H   0  0  0  0  0  0  0  0  0  0  0  0
   22.3261  -25.2024   48.3339 H   0  0  0  0  0  0  0  0  0  0  0  0
   22.6606  -23.4376   48.3339 H   0  0  0  0  0  0  0  0  0  0  0  0
   20.2463  -22.5304   49.9330 H   0  0  0  0  0  0  0  0  0  0  0  0
   21.0208  -21.8341   48.4694 H   0  0  0  0  0  0  0  0  0  0  0  0
   19.2608  -22.1935   48.4694 H   0  0  0  0  0  0  0  0  0  0  0  0
   19.8017  -24.8516   50.1454 H   0  0  0  0  0  0  0  0  0  0  0  0
   18.6268  -24.8725   48.7867 H   0  0  0  0  0  0  0  0  0  0  0  0
   20.0202  -26.0061   48.7867 H   0  0  0  0  0  0  0  0  0  0  0  0
  1  2  1  0
  2  3  1  0
  3  4  2  0
  4  5  1  0
  5  6  1  0
  6  7  1  0
  7  8  1  0
  8  9  2  0
  9 10  1  0
 10 11  2  0
 11 12  1  0
 12 13  1  0
 12 14  2  0
 14 15  1  0
 15 16  2  0
 15 17  1  0
 17 18  1  0
  5 19  2  0
 19 20  1  0
 20 21  2  0
 21 22  1  0
 22 23  1  0
 22 24  1  0
 22 25  1  0
 21  3  1  0
 17  6  2  0
 14  8  1  0
  1 26  1  0
  1 27  1  0
  1 28  1  0
  2 29  1  0
  2 30  1  0
  4 31  1  0
  9 32  1  0
 10 33  1  0
 11 34  1  0
 13 35  1  0
 18 36  1  0
 19 37  1  0
 20 38  1  0
 23 39  1  0
 23 40  1  0
 23 41  1  0
 24 42  1  0
 24 43  1  0
 24 44  1  0
 25 45  1  0
 25 46  1  0
 25 47  1  0
M  END
>  <meeko>  (4) 
{"is_sidechain": [false], "free_energy": -7.269, "intermolecular_energy": -8.411, "internal_energy": -0.382}

$$$$
cand_038_out
     RDKit          3D

 47 49  0  0  0  0  0  0  0  0999 V2000
   20.8340  -26.9440   41.3990 C   0  0  0  0  0  0  0  0  0  0  0  0
   20.4480  -25.7790   40.4940 C   0  0  0  0  0  0  0  0  0  0  0  0
   19.7030  -26.2330   39.2550 C   0  0  0  0  0  0  0  0  0  0  0  0
   19.8010  -27.6280   38.9960 C   0  0  0  0  0  0  0  0  0  0  0  0
   19.1730  -28.2450   37.9120 C   0  0  0  0  0  0  0  0  0  0  0  0
   19.3020  -29.6920   37.6450 C   0  0  0  0  0  0  0  0  0  0  0  0
   18.8590  -30.4790   38.7030 O   0  0  0  0  0  0  0  0  0  0  0  0
   18.9220  -31.8430   38.5870 C   0  0  0  0  0  0  0  0  0  0  0  0
   18.4530  -32.5930   39.6660 C   0  0  0  0  0  0  0  0  0  0  0  0
   18.4910  -33.9880   39.6140 C   0  0  0  0  0  0  0  0  0  0  0  0
   18.9980  -34.6330   38.4840 C   0  0  0  0  0  0  0  0  0  0  0  0
   19.4660  -33.8820   37.4080 C   0  0  0  0  0  0  0  0  0  0  0  0
   19.9500  -34.5780   36.3340 O   0  0  0  0  0  0  0  0  0  0  0  0
   19.4270  -32.4870   37.4610 C   0  0  0  0  0  0  0  0  0  0  0  0
   19.9090  -31.6600   36.3530 C   0  0  0  0  0  0  0  0  0  0  0  0
   20.3760  -32.1530   35.3280 O   0  0  0  0  0  0  0  0  0  0  0  0
   19.8160  -30.1900   36.5040 C   0  0  0  0  0  0  0  0  0  0  0  0
   20.2870  -29.4190   35.4570 O   0  0  0  0  0  0  0  0  0  0  0  0
   18.4430  -27.4350   37.0490 C   0  0  0  0  0  0  0  0  0  0  0  0
   18.3350  -26.0580   37.2810 C   0  0  0  0  0  0  0  0  0  0  0  0
   18.9450  -25.4080   38.3820 C   0  0  0  0  0  0  0  0  0  0  0  0
   18.7700  -23.8710   38.5300 C   0  0  0  0  0  0  0  0  0  0  0  0
   19.1470  -23.3330   39.9430 C   0  0  0  0  0  0  0  0  0  0  0  0
   19.6780  -23.0820   37.5600 C   0  0  0  0  0  0  0  0  0  0  0  0
   17.2870  -23.4900   38.3280 C   0  0  0  0  0  0  0  0  0  0  0  0
   20.7332  -26.6399   42.4513 H   0  0  0  0  0  0  0  0  0  0  0  0
   20.1710  -27.7987   41.1993 H   0  0  0  0  0  0  0  0  0  0  0  0
   21.8762  -27.2338   41.1993 H   0  0  0  0  0  0  0  0  0  0  0  0
   19.8046  -25.0896   41.0604 H   0  0  0  0  0  0  0  0  0  0  0  0
   21.3756  -25.2868   40.1664 H   0  0  0  0  0  0  0  0  0  0  0  0
   20.3982  -28.2487   39.6802 H   0  0  0  0  0  0  0  0  0  0  0  0
   18.0537  -32.0860   40.5568 H   0  0  0  0  0  0  0  0  0  0  0  0
   18.1210  -34.5796   40.4644 H   0  0  0  0  0  0  0  0  0  0  0  0
   19.0278  -35.7319   38.4435 H   0  0  0  0  0  0  0  0  0  0  0  0
   20.7560  -35.0490   36.4060 H   0  0  0  0  0  0  0  0  0  0  0  0
   20.1960  -29.7220   34.5750 H   0  0  0  0  0  0  0  0  0  0  0  0
   17.9452  -27.8804   36.1750 H   0  0  0  0  0  0  0  0  0  0  0  0
   17.7485  -25.4523   36.5745 H   0  0  0  0  0  0  0  0  0  0  0  0
   18.6960  -23.9766   40.7127 H   0  0  0  0  0  0  0  0  0  0  0  0
   20.2411  -23.3367   40.0569 H   0  0  0  0  0  0  0  0  0  0  0  0
   18.7700  -22.3059   40.0569 H   0  0  0  0  0  0  0  0  0  0  0  0
   20.3848  -22.4678   38.1372 H   0  0  0  0  0  0  0  0  0  0  0  0
   20.2369  -23.7862   36.9262 H   0  0  0  0  0  0  0  0  0  0  0  0
   19.0586  -22.4303   36.9262 H   0  0  0  0  0  0  0  0  0  0  0  0
   16.8035  -23.3658   39.3082 H   0  0  0  0  0  0  0  0  0  0  0  0
   17.2241  -22.5465   37.7660 H   0  0  0  0  0  0  0  0  0  0  0  0
   16.7771  -24.2863   37.7660 H   0  0  0  0  0  0  0  0  0  0  0  0
  1  2  1  0
  2  3  1  0
  3  4  2  0
  4  5  1  0
  5  6  1  0
  6  7  1  0
  7  8  1  0
  8  9  2  0
  9 10  1  0
 10 11  2  0
 11 12  1  0
 12 13  1  0
 12 14  2  0
 14 15  1  0
 15 16  2  0
 15 17  1  0
 17 18  1  0
  5 19  2  0
 19 20  1  0
 20 21  2  0
 21 22  1  0
 22 23  1  0
 22 24  1  0
 22 25  1  0
 21  3  1  0
 17  6  2  0
 14  8  1  0
  1 26  1  0
  1 27  1  0
  1 28  1  0
  2 29  1  0
  2 30  1  0
  4 31  1  0
  9 32  1  0
 10 33  1  0
 11 34  1  0
 13 35  1  0
 18 36  1  0
 19 37  1  0
 20 38  1  0
 23 39  1  0
 23 40  1  0
 23 41  1  0
 24 42  1  0
 24 43  1  0
 24 44  1  0
 25 45  1  0
 25 46  1  0
 25 47  1  0
M  END
>  <meeko>  (5) 
{"is_sidechain": [false], "free_energy": -7.106, "intermolecular_energy": -8.672, "internal_energy": 0.08}

$$$$
cand_038_out
     RDKit          3D

 47 49  0  0  0  0  0  0  0  0999 V2000
   21.1490  -20.1550   43.5780 C   0  0  0  0  0  0  0  0  0  0  0  0
   19.7350  -20.6620   43.8440 C   0  0  0  0  0  0  0  0  0  0  0  0
   19.6600  -22.1750   43.8700 C   0  0  0  0  0  0  0  0  0  0  0  0
   19.7180  -22.7820   42.5860 C   0  0  0  0  0  0  0  0  0  0  0  0
   19.6800  -24.1650   42.3980 C   0  0  0  0  0  0  0  0  0  0  0  0
   19.7190  -24.7800   41.0540 C   0  0  0  0  0  0  0  0  0  0  0  0
   18.8550  -24.1670   40.1540 O   0  0  0  0  0  0  0  0  0  0  0  0
   18.7920  -24.6380   38.8690 C   0  0  0  0  0  0  0  0  0  0  0  0
   17.9220  -23.9840   37.9950 C   0  0  0  0  0  0  0  0  0  0  0  0
   17.8090  -24.4150   36.6720 C   0  0  0  0  0  0  0  0  0  0  0  0
   18.5640  -25.5000   36.2210 C   0  0  0  0  0  0  0  0  0  0  0  0
   19.4310  -26.1520   37.0950 C   0  0  0  0  0  0  0  0  0  0  0  0
   20.1390  -27.2070   36.5900 O   0  0  0  0  0  0  0  0  0  0  0  0
   19.5440  -25.7200   38.4190 C   0  0  0  0  0  0  0  0  0  0  0  0
   20.4430  -26.3760   39.3700 C   0  0  0  0  0  0  0  0  0  0  0  0
   21.1350  -27.3410   39.0520 O   0  0  0  0  0  0  0  0  0  0  0  0
   20.4960  -25.8360   40.7480 C   0  0  0  0  0  0  0  0  0  0  0  0
   21.3390  -26.4720   41.6410 O   0  0  0  0  0  0  0  0  0  0  0  0
   19.5570  -24.9620   43.5300 C   0  0  0  0  0  0  0  0  0  0  0  0
   19.4940  -24.3880   44.8060 C   0  0  0  0  0  0  0  0  0  0  0  0
   19.5490  -22.9900   45.0280 C   0  0  0  0  0  0  0  0  0  0  0  0
   19.4550  -22.4630   46.4870 C   0  0  0  0  0  0  0  0  0  0  0  0
   19.2900  -23.5910   47.5490 C   0  0  0  0  0  0  0  0  0  0  0  0
   20.7320  -21.7070   46.9200 C   0  0  0  0  0  0  0  0  0  0  0  0
   18.2070  -21.5670   46.6420 C   0  0  0  0  0  0  0  0  0  0  0  0
   21.6591  -19.9721   44.5353 H   0  0  0  0  0  0  0  0  0  0  0  0
   21.7069  -20.9091   43.0035 H   0  0  0  0  0  0  0  0  0  0  0  0
   21.1006  -19.2182   43.0035 H   0  0  0  0  0  0  0  0  0  0  0  0
   19.3979  -20.2747   44.8168 H   0  0  0  0  0  0  0  0  0  0  0  0
   19.0918  -20.3080   43.0248 H   0  0  0  0  0  0  0  0  0  0  0  0
   19.7963  -22.1333   41.7011 H   0  0  0  0  0  0  0  0  0  0  0  0
   17.3259  -23.1297   38.3484 H   0  0  0  0  0  0  0  0  0  0  0  0
   17.1239  -23.8990   35.9833 H   0  0  0  0  0  0  0  0  0  0  0  0
   18.4743  -25.8388   35.1783 H   0  0  0  0  0  0  0  0  0  0  0  0
   21.0620  -27.1280   36.4490 H   0  0  0  0  0  0  0  0  0  0  0  0
   21.1280  -27.3300   41.9540 H   0  0  0  0  0  0  0  0  0  0  0  0
   19.5086  -26.0557   43.4226 H   0  0  0  0  0  0  0  0  0  0  0  0
   19.3973  -25.0538   45.6763 H   0  0  0  0  0  0  0  0  0  0  0  0
   19.3535  -23.1570   48.5578 H   0  0  0  0  0  0  0  0  0  0  0  0
   18.3113  -24.0762   47.4195 H   0  0  0  0  0  0  0  0  0  0  0  0
   20.0887  -24.3362   47.4195 H   0  0  0  0  0  0  0  0  0  0  0  0
   20.7849  -21.6757   48.0183 H   0  0  0  0  0  0  0  0  0  0  0  0
   21.6174  -22.2266   46.5249 H   0  0  0  0  0  0  0  0  0  0  0  0
   20.7023  -20.6808   46.5249 H   0  0  0  0  0  0  0  0  0  0  0  0
   17.9952  -21.4150   47.7107 H   0  0  0  0  0  0  0  0  0  0  0  0
   18.3922  -20.5943   46.1629 H   0  0  0  0  0  0  0  0  0  0  0  0
   17.3446  -22.0535   46.1629 H   0  0  0  0  0  0  0  0  0  0  0  0
  1  2  1  0
  2  3  1  0
  3  4  2  0
  4  5  1  0
  5  6  1  0
  6  7  1  0
  7  8  1  0
  8  9  2  0
  9 10  1  0
 10 11  2  0
 11 12  1  0
 12 13  1  0
 12 14  2  0
 14 15  1  0
 15 16  2  0
 15 17  1  0
 17 18  1  0
  5 19  2  0
 19 20  1  0
 20 21  2  0
 21 22  1  0
 22 23  1  0
 22 24  1  0
 22 25  1  0
 21  3  1  0
 17  6  2  0
 14  8  1  0
  1 26  1  0
  1 27  1  0
  1 28  1  0
  2 29  1  0
  2 30  1  0
  4 31  1  0
  9 32  1  0
 10 33  1  0
 11 34  1  0
 13 35  1  0
 18 36  1  0
 19 37  1  0
 20 38  1  0
 23 39  1  0
 23 40  1  0
 23 41  1  0
 24 42  1  0
 24 43  1  0
 24 44  1  0
 25 45  1  0
 25 46  1  0
 25 47  1  0
M  END
>  <meeko>  (6) 
{"is_sidechain": [false], "free_energy": -7.098, "intermolecular_energy": -8.274, "internal_energy": -0.308}

$$$$
cand_038_out
     RDKit          3D

 47 49  0  0  0  0  0  0  0  0999 V2000
   22.9240  -26.6180   44.8150 C   0  0  0  0  0  0  0  0  0  0  0  0
   22.3380  -25.5430   45.7250 C   0  0  0  0  0  0  0  0  0  0  0  0
   21.1020  -24.8970   45.1330 C   0  0  0  0  0  0  0  0  0  0  0  0
   20.8970  -25.1870   43.7560 C   0  0  0  0  0  0  0  0  0  0  0  0
   19.8070  -24.7000   43.0320 C   0  0  0  0  0  0  0  0  0  0  0  0
   19.6200  -24.9940   41.5950 C   0  0  0  0  0  0  0  0  0  0  0  0
   19.5410  -26.3560   41.3280 O   0  0  0  0  0  0  0  0  0  0  0  0
   19.3660  -26.7680   40.0330 C   0  0  0  0  0  0  0  0  0  0  0  0
   19.2770  -28.1440   39.8120 C   0  0  0  0  0  0  0  0  0  0  0  0
   19.1010  -28.6320   38.5160 C   0  0  0  0  0  0  0  0  0  0  0  0
   19.0140  -27.7460   37.4400 C   0  0  0  0  0  0  0  0  0  0  0  0
   19.1050  -26.3740   37.6620 C   0  0  0  0  0  0  0  0  0  0  0  0
   19.0130  -25.5630   36.5640 O   0  0  0  0  0  0  0  0  0  0  0  0
   19.2800  -25.8870   38.9600 C   0  0  0  0  0  0  0  0  0  0  0  0
   19.3790  -24.4530   39.2380 C   0  0  0  0  0  0  0  0  0  0  0  0
   19.3200  -23.6110   38.3440 O   0  0  0  0  0  0  0  0  0  0  0  0
   19.5560  -24.0380   40.6490 C   0  0  0  0  0  0  0  0  0  0  0  0
   19.6620  -22.6820   40.8980 O   0  0  0  0  0  0  0  0  0  0  0  0
   18.9080  -23.8790   43.7020 C   0  0  0  0  0  0  0  0  0  0  0  0
   19.0900  -23.5760   45.0580 C   0  0  0  0  0  0  0  0  0  0  0  0
   20.1750  -24.0700   45.8220 C   0  0  0  0  0  0  0  0  0  0  0  0
   20.2860  -23.6550   47.3160 C   0  0  0  0  0  0  0  0  0  0  0  0
   20.1730  -24.8510   48.3060 C   0  0  0  0  0  0  0  0  0  0  0  0
   21.6500  -23.0080   47.6440 C   0  0  0  0  0  0  0  0  0  0  0  0
   19.1250  -22.7060   47.6830 C   0  0  0  0  0  0  0  0  0  0  0  0
   23.3610  -27.4196   45.4286 H   0  0  0  0  0  0  0  0  0  0  0  0
   22.1282  -27.0347   44.1801 H   0  0  0  0  0  0  0  0  0  0  0  0
   23.7054  -26.1749   44.1801 H   0  0  0  0  0  0  0  0  0  0  0  0
   22.0698  -26.0026   46.6877 H   0  0  0  0  0  0  0  0  0  0  0  0
   23.0989  -24.7587   45.8513 H   0  0  0  0  0  0  0  0  0  0  0  0
   21.6298  -25.8233   43.2382 H   0  0  0  0  0  0  0  0  0  0  0  0
   19.3455  -28.8429   40.6586 H   0  0  0  0  0  0  0  0  0  0  0  0
   19.0307  -29.7159   38.3421 H   0  0  0  0  0  0  0  0  0  0  0  0
   18.8739  -28.1309   36.4191 H   0  0  0  0  0  0  0  0  0  0  0  0
   19.0150  -24.6320   36.6680 H   0  0  0  0  0  0  0  0  0  0  0  0
   18.8910  -22.1750   41.0610 H   0  0  0  0  0  0  0  0  0  0  0  0
   18.0446  -23.4627   43.1623 H   0  0  0  0  0  0  0  0  0  0  0  0
   18.3552  -22.9235   45.5523 H   0  0  0  0  0  0  0  0  0  0  0  0
   20.2084  -24.4761   49.3395 H   0  0  0  0  0  0  0  0  0  0  0  0
   19.2212  -25.3765   48.1390 H   0  0  0  0  0  0  0  0  0  0  0  0
   21.0095  -25.5455   48.1390 H   0  0  0  0  0  0  0  0  0  0  0  0
   21.7748  -22.9488   48.7353 H   0  0  0  0  0  0  0  0  0  0  0  0
   22.4581  -23.6187   47.2151 H   0  0  0  0  0  0  0  0  0  0  0  0
   21.6883  -21.9958   47.2151 H   0  0  0  0  0  0  0  0  0  0  0  0
   19.0401  -22.6366   48.7775 H   0  0  0  0  0  0  0  0  0  0  0  0
   19.3222  -21.7072   47.2665 H   0  0  0  0  0  0  0  0  0  0  0  0
   18.1854  -23.0980   47.2665 H   0  0  0  0  0  0  0  0  0  0  0  0
  1  2  1  0
  2  3  1  0
  3  4  2  0
  4  5  1  0
  5  6  1  0
  6  7  1  0
  7  8  1  0
  8  9  2  0
  9 10  1  0
 10 11  2  0
 11 12  1  0
 12 13  1  0
 12 14  2  0
 14 15  1  0
 15 16  2  0
 15 17  1  0
 17 18  1  0
  5 19  2  0
 19 20  1  0
 20 21  2  0
 21 22  1  0
 22 23  1  0
 22 24  1  0
 22 25  1  0
 21  3  1  0
 17  6  2  0
 14  8  1  0
  1 26  1  0
  1 27  1  0
  1 28  1  0
  2 29  1  0
  2 30  1  0
  4 31  1  0
  9 32  1  0
 10 33  1  0
 11 34  1  0
 13 35  1  0
 18 36  1  0
 19 37  1  0
 20 38  1  0
 23 39  1  0
 23 40  1  0
 23 41  1  0
 24 42  1  0
 24 43  1  0
 24 44  1  0
 25 45  1  0
 25 46  1  0
 25 47  1  0
M  END
>  <meeko>  (7) 
{"is_sidechain": [false], "free_energy": -7.089, "intermolecular_energy": -8.235, "internal_energy": -0.336}

$$$$
cand_038_out
     RDKit          3D

 47 49  0  0  0  0  0  0  0  0999 V2000
   20.9450  -24.6020   47.0610 C   0  0  0  0  0  0  0  0  0  0  0  0
   19.5920  -24.0380   46.6390 C   0  0  0  0  0  0  0  0  0  0  0  0
   19.6160  -23.4730   45.2340 C   0  0  0  0  0  0  0  0  0  0  0  0
   19.6260  -24.4590   44.2100 C   0  0  0  0  0  0  0  0  0  0  0  0
   19.6320  -24.1420   42.8500 C   0  0  0  0  0  0  0  0  0  0  0  0
   19.6640  -25.1790   41.7980 C   0  0  0  0  0  0  0  0  0  0  0  0
   18.8750  -24.8590   40.6980 O   0  0  0  0  0  0  0  0  0  0  0  0
   18.8150  -25.7360   39.6470 C   0  0  0  0  0  0  0  0  0  0  0  0
   18.0220  -25.3670   38.5580 C   0  0  0  0  0  0  0  0  0  0  0  0
   17.9150  -26.2160   37.4550 C   0  0  0  0  0  0  0  0  0  0  0  0
   18.5990  -27.4340   37.4400 C   0  0  0  0  0  0  0  0  0  0  0  0
   19.3880  -27.8000   38.5270 C   0  0  0  0  0  0  0  0  0  0  0  0
   20.0290  -29.0060   38.4470 O   0  0  0  0  0  0  0  0  0  0  0  0
   19.4950  -26.9490   39.6310 C   0  0  0  0  0  0  0  0  0  0  0  0
   20.3140  -27.2950   40.7940 C   0  0  0  0  0  0  0  0  0  0  0  0
   20.9390  -28.3520   40.8590 O   0  0  0  0  0  0  0  0  0  0  0  0
   20.3670  -26.3220   41.9080 C   0  0  0  0  0  0  0  0  0  0  0  0
   21.1330  -26.6650   43.0080 O   0  0  0  0  0  0  0  0  0  0  0  0
   19.6500  -22.7950   42.5060 C   0  0  0  0  0  0  0  0  0  0  0  0
   19.6450  -21.8040   43.4970 C   0  0  0  0  0  0  0  0  0  0  0  0
   19.6200  -22.0960   44.8830 C   0  0  0  0  0  0  0  0  0  0  0  0
   19.6320  -20.9150   45.8930 C   0  0  0  0  0  0  0  0  0  0  0  0
   19.4650  -19.5190   45.2240 C   0  0  0  0  0  0  0  0  0  0  0  0
   18.4670  -21.0010   46.9060 C   0  0  0  0  0  0  0  0  0  0  0  0
   20.9910  -20.8620   46.6230 C   0  0  0  0  0  0  0  0  0  0  0  0
   21.0054  -24.6272   48.1591 H   0  0  0  0  0  0  0  0  0  0  0  0
   21.0571  -25.6218   46.6641 H   0  0  0  0  0  0  0  0  0  0  0  0
   21.7482  -23.9638   46.6641 H   0  0  0  0  0  0  0  0  0  0  0  0
   18.8440  -24.8433   46.6834 H   0  0  0  0  0  0  0  0  0  0  0  0
   19.3410  -23.2171   47.3269 H   0  0  0  0  0  0  0  0  0  0  0  0
   19.6292  -25.5195   44.5021 H   0  0  0  0  0  0  0  0  0  0  0  0
   17.4824  -24.4085   38.5695 H   0  0  0  0  0  0  0  0  0  0  0  0
   17.2914  -25.9256   36.5967 H   0  0  0  0  0  0  0  0  0  0  0  0
   18.5143  -28.1027   36.5707 H   0  0  0  0  0  0  0  0  0  0  0  0
   19.5410  -29.7840   38.2670 H   0  0  0  0  0  0  0  0  0  0  0  0
   20.9370  -27.4450   43.4900 H   0  0  0  0  0  0  0  0  0  0  0  0
   19.6683  -22.5042   41.4453 H   0  0  0  0  0  0  0  0  0  0  0  0
   19.6613  -20.7497   43.1838 H   0  0  0  0  0  0  0  0  0  0  0  0
   19.3727  -18.7478   46.0029 H   0  0  0  0  0  0  0  0  0  0  0  0
   20.3439  -19.3048   44.5982 H   0  0  0  0  0  0  0  0  0  0  0  0
   18.5604  -19.5182   44.5982 H   0  0  0  0  0  0  0  0  0  0  0  0
   18.8683  -20.9714   47.9297 H   0  0  0  0  0  0  0  0  0  0  0  0
   17.7858  -20.1507   46.7545 H   0  0  0  0  0  0  0  0  0  0  0  0
   17.9181  -21.9421   46.7545 H   0  0  0  0  0  0  0  0  0  0  0  0
   20.8237  -20.8685   47.7102 H   0  0  0  0  0  0  0  0  0  0  0  0
   21.5939  -21.7373   46.3395 H   0  0  0  0  0  0  0  0  0  0  0  0
   21.5239  -19.9424   46.3395 H   0  0  0  0  0  0  0  0  0  0  0  0
  1  2  1  0
  2  3  1  0
  3  4  2  0
  4  5  1  0
  5  6  1  0
  6  7  1  0
  7  8  1  0
  8  9  2  0
  9 10  1  0
 10 11  2  0
 11 12  1  0
 12 13  1  0
 12 14  2  0
 14 15  1  0
 15 16  2  0
 15 17  1  0
 17 18  1  0
  5 19  2  0
 19 20  1  0
 20 21  2  0
 21 22  1  0
 22 23  1  0
 22 24  1  0
 22 25  1  0
 21  3  1  0
 17  6  2  0
 14  8  1  0
  1 26  1  0
  1 27  1  0
  1 28  1  0
  2 29  1  0
  2 30  1  0
  4 31  1  0
  9 32  1  0
 10 33  1  0
 11 34  1  0
 13 35  1  0
 18 36  1  0
 19 37  1  0
 20 38  1  0
 23 39  1  0
 23 40  1  0
 23 41  1  0
 24 42  1  0
 24 43  1  0
 24 44  1  0
 25 45  1  0
 25 46  1  0
 25 47  1  0
M  END
>  <meeko>  (8) 
{"is_sidechain": [false], "free_energy": -6.953, "intermolecular_energy": -8.17, "internal_energy": -0.234}

$$$$
cand_038_out
     RDKit          3D

 47 49  0  0  0  0  0  0  0  0999 V2000
   20.2970  -25.3680   48.6980 C   0  0  0  0  0  0  0  0  0  0  0  0
   19.5430  -24.0890   48.3480 C   0  0  0  0  0  0  0  0  0  0  0  0
   20.1890  -23.3350   47.2040 C   0  0  0  0  0  0  0  0  0  0  0  0
   19.8820  -23.8560   45.9170 C   0  0  0  0  0  0  0  0  0  0  0  0
   20.3650  -23.2920   44.7340 C   0  0  0  0  0  0  0  0  0  0  0  0
   20.0540  -23.8590   43.4050 C   0  0  0  0  0  0  0  0  0  0  0  0
   20.4160  -25.1970   43.2910 O   0  0  0  0  0  0  0  0  0  0  0  0
   20.1830  -25.8480   42.1080 C   0  0  0  0  0  0  0  0  0  0  0  0
   20.5480  -27.1940   42.0420 C   0  0  0  0  0  0  0  0  0  0  0  0
   20.3400  -27.9160   40.8650 C   0  0  0  0  0  0  0  0  0  0  0  0
   19.7670  -27.2940   39.7540 C   0  0  0  0  0  0  0  0  0  0  0  0
   19.4040  -25.9510   39.8220 C   0  0  0  0  0  0  0  0  0  0  0  0
   18.8490  -25.4040   38.6970 O   0  0  0  0  0  0  0  0  0  0  0  0
   19.6120  -25.2290   41.0000 C   0  0  0  0  0  0  0  0  0  0  0  0
   19.2450  -23.8170   41.1140 C   0  0  0  0  0  0  0  0  0  0  0  0
   18.7430  -23.1970   40.1780 O   0  0  0  0  0  0  0  0  0  0  0  0
   19.4990  -23.1450   42.4090 C   0  0  0  0  0  0  0  0  0  0  0  0
   19.1610  -21.8070   42.5000 O   0  0  0  0  0  0  0  0  0  0  0  0
   21.2000  -22.1860   44.8460 C   0  0  0  0  0  0  0  0  0  0  0  0
   21.5200  -21.6560   46.1030 C   0  0  0  0  0  0  0  0  0  0  0  0
   21.0290  -22.1950   47.3170 C   0  0  0  0  0  0  0  0  0  0  0  0
   21.4630  -21.5340   48.6550 C   0  0  0  0  0  0  0  0  0  0  0  0
   22.2380  -20.1960   48.4680 C   0  0  0  0  0  0  0  0  0  0  0  0
   20.2540  -21.1600   49.5420 C   0  0  0  0  0  0  0  0  0  0  0  0
   22.4320  -22.4680   49.4120 C   0  0  0  0  0  0  0  0  0  0  0  0
   20.3574  -25.4704   49.7916 H   0  0  0  0  0  0  0  0  0  0  0  0
   19.7650  -26.2341   48.2774 H   0  0  0  0  0  0  0  0  0  0  0  0
   21.3124  -25.3218   48.2774 H   0  0  0  0  0  0  0  0  0  0  0  0
   18.5140  -24.3522   48.0618 H   0  0  0  0  0  0  0  0  0  0  0  0
   19.5595  -23.4360   49.2330 H   0  0  0  0  0  0  0  0  0  0  0  0
   19.2350  -24.7431   45.8501 H   0  0  0  0  0  0  0  0  0  0  0  0
   20.9991  -27.6854   42.9166 H   0  0  0  0  0  0  0  0  0  0  0  0
   20.6280  -28.9764   40.8130 H   0  0  0  0  0  0  0  0  0  0  0  0
   19.6026  -27.8633   38.8272 H   0  0  0  0  0  0  0  0  0  0  0  0
   18.0240  -25.7160   38.3830 H   0  0  0  0  0  0  0  0  0  0  0  0
   19.1130  -21.2820   41.7250 H   0  0  0  0  0  0  0  0  0  0  0  0
   21.6137  -21.7222   43.9384 H   0  0  0  0  0  0  0  0  0  0  0  0
   22.1838  -20.7801   46.1490 H   0  0  0  0  0  0  0  0  0  0  0  0
   22.4829  -19.7733   49.4536 H   0  0  0  0  0  0  0  0  0  0  0  0
   23.1664  -20.3850   47.9092 H   0  0  0  0  0  0  0  0  0  0  0  0
   21.6121  -19.4847   47.9092 H   0  0  0  0  0  0  0  0  0  0  0  0
   20.5358  -21.2472   50.6017 H   0  0  0  0  0  0  0  0  0  0  0  0
   19.9483  -20.1253   49.3278 H   0  0  0  0  0  0  0  0  0  0  0  0
   19.4174  -21.8413   49.3278 H   0  0  0  0  0  0  0  0  0  0  0  0
   22.2960  -22.3369   50.4957 H   0  0  0  0  0  0  0  0  0  0  0  0
   22.2218  -23.5129   49.1398 H   0  0  0  0  0  0  0  0  0  0  0  0
   23.4684  -22.2196   49.1398 H   0  0  0  0  0  0  0  0  0  0  0  0
  1  2  1  0
  2  3  1  0
  3  4  2  0
  4  5  1  0
  5  6  1  0
  6  7  1  0
  7  8  1  0
  8  9  2  0
  9 10  1  0
 10 11  2  0
 11 12  1  0
 12 13  1  0
 12 14  2  0
 14 15  1  0
 15 16  2  0
 15 17  1  0
 17 18  1  0
  5 19  2  0
 19 20  1  0
 20 21  2  0
 21 22  1  0
 22 23  1  0
 22 24  1  0
 22 25  1  0
 21  3  1  0
 17  6  2  0
 14  8  1  0
  1 26  1  0
  1 27  1  0
  1 28  1  0
  2 29  1  0
  2 30  1  0
  4 31  1  0
  9 32  1  0
 10 33  1  0
 11 34  1  0
 13 35  1  0
 18 36  1  0
 19 37  1  0
 20 38  1  0
 23 39  1  0
 23 40  1  0
 23 41  1  0
 24 42  1  0
 24 43  1  0
 24 44  1  0
 25 45  1  0
 25 46  1  0
 25 47  1  0
M  END
>  <meeko>  (9) 
{"is_sidechain": [false], "free_energy": -6.923, "intermolecular_energy": -7.95, "internal_energy": -0.417}

$$$$
