cand_019_out
     RDKit          3D

 35 37  0  0  0  0  0  0  0  0999 V2000
   20.0320  -32.1410   35.4360 O   0  0  0  0  0  0  0  0  0  0  0  0
   19.6870  -31.9040   36.5920 C   0  0  0  0  0  0  0  0  0  0  0  0
   19.6890  -30.5150   37.1070 C   0  0  0  0  0  0  0  0  0  0  0  0
   20.1080  -29.5230   36.2400 O   0  0  0  0  0  0  0  0  0  0  0  0
   19.3050  -30.3010   38.3790 C   0  0  0  0  0  0  0  0  0  0  0  0
   19.2800  -28.9600   39.0030 C   0  0  0  0  0  0  0  0  0  0  0  0
   18.3440  -27.9910   38.6300 C   0  0  0  0  0  0  0  0  0  0  0  0
   18.3240  -26.7390   39.2500 C   0  0  0  0  0  0  0  0  0  0  0  0
   19.2420  -26.4230   40.2630 C   0  0  0  0  0  0  0  0  0  0  0  0
   19.1880  -25.0650   40.9160 C   0  0  0  0  0  0  0  0  0  0  0  0
   20.1270  -24.2120   40.4180 F   0  0  0  0  0  0  0  0  0  0  0  0
   20.1770  -27.3980   40.6710 C   0  0  0  0  0  0  0  0  0  0  0  0
   21.1740  -27.1180   41.7740 C   0  0  0  0  0  0  0  0  0  0  0  0
   20.7590  -27.5960   42.9810 F   0  0  0  0  0  0  0  0  0  0  0  0
   22.3900  -27.7000   41.5580 F   0  0  0  0  0  0  0  0  0  0  0  0
   20.1850  -28.6520   40.0310 C   0  0  0  0  0  0  0  0  0  0  0  0
   18.9130  -31.3100   39.2510 O   0  0  0  0  0  0  0  0  0  0  0  0
   18.8930  -32.6050   38.8000 C   0  0  0  0  0  0  0  0  0  0  0  0
   18.4830  -33.5850   39.7060 C   0  0  0  0  0  0  0  0  0  0  0  0
   18.4420  -34.9240   39.3110 C   0  0  0  0  0  0  0  0  0  0  0  0
   18.8110  -35.2830   38.0130 C   0  0  0  0  0  0  0  0  0  0  0  0
   19.2200  -34.3030   37.1120 C   0  0  0  0  0  0  0  0  0  0  0  0
   19.5680  -34.7250   35.8580 O   0  0  0  0  0  0  0  0  0  0  0  0
   19.2610  -32.9640   37.5070 C   0  0  0  0  0  0  0  0  0  0  0  0
   20.0800  -29.6670   35.3140 H   0  0  0  0  0  0  0  0  0  0  0  0
   17.6142  -28.2170   37.8386 H   0  0  0  0  0  0  0  0  0  0  0  0
   17.5790  -25.9915   38.9400 H   0  0  0  0  0  0  0  0  0  0  0  0
   18.1914  -24.6311   40.7472 H   0  0  0  0  0  0  0  0  0  0  0  0
   19.3921  -25.1999   41.9884 H   0  0  0  0  0  0  0  0  0  0  0  0
   21.2570  -26.0211   41.7759 H   0  0  0  0  0  0  0  0  0  0  0  0
   20.9187  -29.4093   40.3443 H   0  0  0  0  0  0  0  0  0  0  0  0
   18.1928  -33.3031   40.7289 H   0  0  0  0  0  0  0  0  0  0  0  0
   18.1185  -35.6970   40.0236 H   0  0  0  0  0  0  0  0  0  0  0  0
   18.7787  -36.3378   37.7028 H   0  0  0  0  0  0  0  0  0  0  0  0
   20.3810  -34.4540   35.4810 H   0  0  0  0  0  0  0  0  0  0  0  0
  1  2  2  0
  2  3  1  0
  3  4  1  0
  3  5  2  0
  5  6  1  0
  6  7  2  0
  7  8  1  0
  8  9  2  0
  9 10  1  0
 10 11  1  0
  9 12  1  0
 12 13  1  0
 13 14  1  0
 13 15  1  0
 12 16  2  0
  5 17  1  0
 17 18  1  0
 18 19  2  0
 19 20  1  0
 20 21  2  0
 21 22  1  0
 22 23  1  0
 22 24  2  0
 24  2  1  0
 16  6  1  0
 24 18  1  0
  4 25  1  0
  7 26  1  0
  8 27  1  0
 10 28  1  0
 10 29  1  0
 13 30  1  0
 16 31  1  0
 19 32  1  0
 20 33  1  0
 21 34  1  0
 23 35  1  0
M  END
>  <meeko>  (1) 
{"is_sidechain": [false], "free_energy": -8.199, "intermolecular_energy": -10.116, "internal_energy": -0.549}

$$$$
cand_019_out
     RDKit          3D

 35 37  0  0  0  0  0  0  0  0999 V2000
   17.5100  -25.6750   39.4760 O   0  0  0  0  0  0  0  0  0  0  0  0
   18.3010  -26.5880   39.7000 C   0  0  0  0  0  0  0  0  0  0  0  0
   18.3210  -27.7940   38.8400 C   0  0  0  0  0  0  0  0  0  0  0  0
   17.4080  -27.8410   37.8030 O   0  0  0  0  0  0  0  0  0  0  0  0
   19.2020  -28.7700   39.1220 C   0  0  0  0  0  0  0  0  0  0  0  0
   19.3030  -30.0220   38.3410 C   0  0  0  0  0  0  0  0  0  0  0  0
   19.7500  -30.0300   37.0160 C   0  0  0  0  0  0  0  0  0  0  0  0
   19.8590  -31.2280   36.3040 C   0  0  0  0  0  0  0  0  0  0  0  0
   19.5240  -32.4520   36.9010 C   0  0  0  0  0  0  0  0  0  0  0  0
   19.6600  -33.7260   36.1080 C   0  0  0  0  0  0  0  0  0  0  0  0
   19.3900  -33.5460   34.7840 F   0  0  0  0  0  0  0  0  0  0  0  0
   19.0960  -32.4660   38.2460 C   0  0  0  0  0  0  0  0  0  0  0  0
   18.7450  -33.7610   38.9460 C   0  0  0  0  0  0  0  0  0  0  0  0
   19.7310  -34.6950   38.8340 F   0  0  0  0  0  0  0  0  0  0  0  0
   18.5470  -33.6080   40.2880 F   0  0  0  0  0  0  0  0  0  0  0  0
   18.9880  -31.2490   38.9450 C   0  0  0  0  0  0  0  0  0  0  0  0
   20.0970  -28.7240   40.1850 O   0  0  0  0  0  0  0  0  0  0  0  0
   20.1070  -27.6180   40.9960 C   0  0  0  0  0  0  0  0  0  0  0  0
   21.0280  -27.6090   42.0450 C   0  0  0  0  0  0  0  0  0  0  0  0
   21.0900  -26.5130   42.9080 C   0  0  0  0  0  0  0  0  0  0  0  0
   20.2310  -25.4270   42.7230 C   0  0  0  0  0  0  0  0  0  0  0  0
   19.3130  -25.4390   41.6760 C   0  0  0  0  0  0  0  0  0  0  0  0
   18.5030  -24.3430   41.5530 O   0  0  0  0  0  0  0  0  0  0  0  0
   19.2520  -26.5350   40.8130 C   0  0  0  0  0  0  0  0  0  0  0  0
   16.5260  -27.5530   37.9410 H   0  0  0  0  0  0  0  0  0  0  0  0
   20.0192  -29.0817   36.5279 H   0  0  0  0  0  0  0  0  0  0  0  0
   20.2120  -31.2105   35.2623 H   0  0  0  0  0  0  0  0  0  0  0  0
   20.6901  -34.0978   36.2110 H   0  0  0  0  0  0  0  0  0  0  0  0
   18.9295  -34.4468   36.5040 H   0  0  0  0  0  0  0  0  0  0  0  0
   17.8199  -34.0834   38.4457 H   0  0  0  0  0  0  0  0  0  0  0  0
   18.6481  -31.2600   39.9911 H   0  0  0  0  0  0  0  0  0  0  0  0
   21.7041  -28.4642   42.1916 H   0  0  0  0  0  0  0  0  0  0  0  0
   21.8160  -26.5047   43.7344 H   0  0  0  0  0  0  0  0  0  0  0  0
   20.2797  -24.5639   43.4032 H   0  0  0  0  0  0  0  0  0  0  0  0
   18.8690  -23.4820   41.6000 H   0  0  0  0  0  0  0  0  0  0  0  0
  1  2  2  0
  2  3  1  0
  3  4  1  0
  3  5  2  0
  5  6  1  0
  6  7  2  0
  7  8  1  0
  8  9  2  0
  9 10  1  0
 10 11  1  0
  9 12  1  0
 12 13  1  0
 13 14  1  0
 13 15  1  0
 12 16  2  0
  5 17  1  0
 17 18  1  0
 18 19  2  0
 19 20  1  0
 20 21  2  0
 21 22  1  0
 22 23  1  0
 22 24  2  0
 24  2  1  0
 16  6  1  0
 24 18  1  0
  4 25  1  0
  7 26  1  0
  8 27  1  0
 10 28  1  0
 10 29  1  0
 13 30  1  0
 16 31  1  0
 19 32  1  0
 20 33  1  0
 21 34  1  0
 23 35  1  0
M  END
>  <meeko>  (2) 
{"is_sidechain": [false], "free_energy": -7.807, "intermolecular_energy": -9.92, "internal_energy": -0.261}

$$$$
cand_019_out
     RDKit          3D

 35 37  0  0  0  0  0  0  0  0999 V2000
   17.5210  -25.7330   39.6030 O   0  0  0  0  0  0  0  0  0  0  0  0
   18.3220  -26.6380   39.8250 C   0  0  0  0  0  0  0  0  0  0  0  0
   18.3420  -27.8510   38.9750 C   0  0  0  0  0  0  0  0  0  0  0  0
   17.4170  -27.9140   37.9490 O   0  0  0  0  0  0  0  0  0  0  0  0
   19.2340  -28.8170   39.2550 C   0  0  0  0  0  0  0  0  0  0  0  0
   19.3350  -30.0750   38.4830 C   0  0  0  0  0  0  0  0  0  0  0  0
   18.9950  -31.3110   39.0410 C   0  0  0  0  0  0  0  0  0  0  0  0
   19.0760  -32.4840   38.2850 C   0  0  0  0  0  0  0  0  0  0  0  0
   19.4990  -32.4510   36.9490 C   0  0  0  0  0  0  0  0  0  0  0  0
   19.5690  -33.7340   36.1600 C   0  0  0  0  0  0  0  0  0  0  0  0
   19.7130  -34.8280   36.9590 F   0  0  0  0  0  0  0  0  0  0  0  0
   19.8220  -31.2090   36.3610 C   0  0  0  0  0  0  0  0  0  0  0  0
   20.2610  -31.1130   34.9160 C   0  0  0  0  0  0  0  0  0  0  0  0
   19.7220  -30.0360   34.2800 F   0  0  0  0  0  0  0  0  0  0  0  0
   21.6120  -30.9730   34.7760 F   0  0  0  0  0  0  0  0  0  0  0  0
   19.7390  -30.0390   37.1390 C   0  0  0  0  0  0  0  0  0  0  0  0
   20.1410  -28.7550   40.3060 O   0  0  0  0  0  0  0  0  0  0  0  0
   20.1520  -27.6410   41.1070 C   0  0  0  0  0  0  0  0  0  0  0  0
   21.0850  -27.6160   42.1450 C   0  0  0  0  0  0  0  0  0  0  0  0
   21.1480  -26.5120   42.9980 C   0  0  0  0  0  0  0  0  0  0  0  0
   20.2790  -25.4350   42.8140 C   0  0  0  0  0  0  0  0  0  0  0  0
   19.3480  -25.4630   41.7780 C   0  0  0  0  0  0  0  0  0  0  0  0
   18.5280  -24.3750   41.6560 O   0  0  0  0  0  0  0  0  0  0  0  0
   19.2860  -26.5670   40.9250 C   0  0  0  0  0  0  0  0  0  0  0  0
   17.6370  -28.3430   37.1450 H   0  0  0  0  0  0  0  0  0  0  0  0
   18.6597  -31.3610   40.0875 H   0  0  0  0  0  0  0  0  0  0  0  0
   18.8042  -33.4457   38.7446 H   0  0  0  0  0  0  0  0  0  0  0  0
   18.6421  -33.8415   35.5776 H   0  0  0  0  0  0  0  0  0  0  0  0
   20.4518  -33.6778   35.5061 H   0  0  0  0  0  0  0  0  0  0  0  0
   19.9146  -32.0599   34.4763 H   0  0  0  0  0  0  0  0  0  0  0  0
   19.9972  -29.0721   36.6825 H   0  0  0  0  0  0  0  0  0  0  0  0
   21.7696  -28.4646   42.2909 H   0  0  0  0  0  0  0  0  0  0  0  0
   21.8833  -26.4910   43.8159 H   0  0  0  0  0  0  0  0  0  0  0  0
   20.3293  -24.5656   43.4860 H   0  0  0  0  0  0  0  0  0  0  0  0
   18.8740  -23.5120   41.7710 H   0  0  0  0  0  0  0  0  0  0  0  0
  1  2  2  0
  2  3  1  0
  3  4  1  0
  3  5  2  0
  5  6  1  0
  6  7  2  0
  7  8  1  0
  8  9  2  0
  9 10  1  0
 10 11  1  0
  9 12  1  0
 12 13  1  0
 13 14  1  0
 13 15  1  0
 12 16  2  0
  5 17  1  0
 17 18  1  0
 18 19  2  0
 19 20  1  0
 20 21  2  0
 21 22  1  0
 22 23  1  0
 22 24  2  0
 24  2  1  0
 16  6  1  0
 24 18  1  0
  4 25  1  0
  7 26  1  0
  8 27  1  0
 10 28  1  0
 10 29  1  0
 13 30  1  0
 16 31  1  0
 19 32  1  0
 20 33  1  0
 21 34  1  0
 23 35  1  0
M  END
>  <meeko>  (3) 
{"is_sidechain": [false], "free_energy": -7.415, "intermolecular_energy": -9.258, "internal_energy": -0.44}

$$$$
cand_019_out
     RDKit          3D

 35 37  0  0  0  0  0  0  0  0999 V2000
   19.3450  -33.2600   37.6740 O   0  0  0  0  0  0  0  0  0  0  0  0
   19.5130  -32.0920   37.3300 C   0  0  0  0  0  0  0  0  0  0  0  0
   19.3770  -30.9920   38.3120 C   0  0  0  0  0  0  0  0  0  0  0  0
   19.0420  -31.3430   39.6070 O   0  0  0  0  0  0  0  0  0  0  0  0
   19.5680  -29.7280   37.8920 C   0  0  0  0  0  0  0  0  0  0  0  0
   19.4460  -28.5510   38.7810 C   0  0  0  0  0  0  0  0  0  0  0  0
   18.4210  -27.6140   38.6240 C   0  0  0  0  0  0  0  0  0  0  0  0
   18.3110  -26.5220   39.4890 C   0  0  0  0  0  0  0  0  0  0  0  0
   19.2250  -26.3410   40.5370 C   0  0  0  0  0  0  0  0  0  0  0  0
   19.0730  -25.1560   41.4580 C   0  0  0  0  0  0  0  0  0  0  0  0
   19.9350  -24.1460   41.1510 F   0  0  0  0  0  0  0  0  0  0  0  0
   20.2500  -27.2920   40.7280 C   0  0  0  0  0  0  0  0  0  0  0  0
   21.2480  -27.1570   41.8570 C   0  0  0  0  0  0  0  0  0  0  0  0
   20.7410  -27.5770   43.0500 F   0  0  0  0  0  0  0  0  0  0  0  0
   22.3760  -27.9020   41.6660 F   0  0  0  0  0  0  0  0  0  0  0  0
   20.3480  -28.3820   39.8420 C   0  0  0  0  0  0  0  0  0  0  0  0
   19.8780  -29.3850   36.5820 O   0  0  0  0  0  0  0  0  0  0  0  0
   20.0170  -30.3820   35.6500 C   0  0  0  0  0  0  0  0  0  0  0  0
   20.3380  -29.9940   34.3490 C   0  0  0  0  0  0  0  0  0  0  0  0
   20.4940  -30.9600   33.3520 C   0  0  0  0  0  0  0  0  0  0  0  0
   20.3270  -32.3130   33.6560 C   0  0  0  0  0  0  0  0  0  0  0  0
   20.0060  -32.6970   34.9550 C   0  0  0  0  0  0  0  0  0  0  0  0
   19.8580  -34.0380   35.1830 O   0  0  0  0  0  0  0  0  0  0  0  0
   19.8510  -31.7310   35.9520 C   0  0  0  0  0  0  0  0  0  0  0  0
   18.9320  -32.2460   39.8340 H   0  0  0  0  0  0  0  0  0  0  0  0
   17.6920  -27.7376   37.8096 H   0  0  0  0  0  0  0  0  0  0  0  0
   17.4975  -25.7955   39.3461 H   0  0  0  0  0  0  0  0  0  0  0  0
   18.0431  -24.7776   41.3799 H   0  0  0  0  0  0  0  0  0  0  0  0
   19.3017  -25.4935   42.4797 H   0  0  0  0  0  0  0  0  0  0  0  0
   21.4822  -26.0823   41.8691 H   0  0  0  0  0  0  0  0  0  0  0  0
   21.1517  -29.1192   39.9854 H   0  0  0  0  0  0  0  0  0  0  0  0
   20.4681  -28.9285   34.1085 H   0  0  0  0  0  0  0  0  0  0  0  0
   20.7487  -30.6548   32.3263 H   0  0  0  0  0  0  0  0  0  0  0  0
   20.4489  -33.0735   32.8706 H   0  0  0  0  0  0  0  0  0  0  0  0
   19.3960  -34.3360   35.9410 H   0  0  0  0  0  0  0  0  0  0  0  0
  1  2  2  0
  2  3  1  0
  3  4  1  0
  3  5  2  0
  5  6  1  0
  6  7  2  0
  7  8  1  0
  8  9  2  0
  9 10  1  0
 10 11  1  0
  9 12  1  0
 12 13  1  0
 13 14  1  0
 13 15  1  0
 12 16  2  0
  5 17  1  0
 17 18  1  0
 18 19  2  0
 19 20  1  0
 20 21  2  0
 21 22  1  0
 22 23  1  0
 22 24  2  0
 24  2  1  0
 16  6  1  0
 24 18  1  0
  4 25  1  0
  7 26  1  0
  8 27  1  0
 10 28  1  0
 10 29  1  0
 13 30  1  0
 16 31  1  0
 19 32  1  0
 20 33  1  0
 21 34  1  0
 23 35  1  0
M  END
>  <meeko>  (4) 
{"is_sidechain": [false], "free_energy": -7.191, "intermolecular_energy": -8.936, "internal_energy": -0.485}

$$$$
cand_019_out
     RDKit          3D

 35 37  0  0  0  0  0  0  0  0999 V2000
   20.0790  -31.9610   35.4500 O   0  0  0  0  0  0  0  0  0  0  0  0
   19.7280  -31.7100   36.6010 C   0  0  0  0  0  0  0  0  0  0  0  0
   19.7320  -30.3160   37.1010 C   0  0  0  0  0  0  0  0  0  0  0  0
   20.1600  -29.3350   36.2250 O   0  0  0  0  0  0  0  0  0  0  0  0
   19.3410  -30.0870   38.3680 C   0  0  0  0  0  0  0  0  0  0  0  0
   19.3170  -28.7390   38.9770 C   0  0  0  0  0  0  0  0  0  0  0  0
   19.9130  -28.4800   40.2160 C   0  0  0  0  0  0  0  0  0  0  0  0
   19.8980  -27.1930   40.7610 C   0  0  0  0  0  0  0  0  0  0  0  0
   19.2870  -26.1300   40.0810 C   0  0  0  0  0  0  0  0  0  0  0  0
   19.2960  -24.7530   40.6950 C   0  0  0  0  0  0  0  0  0  0  0  0
   20.4400  -24.0670   40.4160 F   0  0  0  0  0  0  0  0  0  0  0  0
   18.7050  -26.3670   38.8170 C   0  0  0  0  0  0  0  0  0  0  0  0
   18.0540  -25.2520   38.0290 C   0  0  0  0  0  0  0  0  0  0  0  0
   18.9680  -24.4130   37.4650 F   0  0  0  0  0  0  0  0  0  0  0  0
   17.2920  -25.7040   36.9900 F   0  0  0  0  0  0  0  0  0  0  0  0
   18.7250  -27.6710   38.2860 C   0  0  0  0  0  0  0  0  0  0  0  0
   18.9400  -31.0840   39.2480 O   0  0  0  0  0  0  0  0  0  0  0  0
   18.9190  -32.3850   38.8120 C   0  0  0  0  0  0  0  0  0  0  0  0
   18.5000  -33.3530   39.7250 C   0  0  0  0  0  0  0  0  0  0  0  0
   18.4560  -34.6970   39.3450 C   0  0  0  0  0  0  0  0  0  0  0  0
   18.8320  -35.0710   38.0540 C   0  0  0  0  0  0  0  0  0  0  0  0
   19.2500  -34.1030   37.1440 C   0  0  0  0  0  0  0  0  0  0  0  0
   19.6040  -34.5390   35.8970 O   0  0  0  0  0  0  0  0  0  0  0  0
   19.2930  -32.7590   37.5250 C   0  0  0  0  0  0  0  0  0  0  0  0
   21.0690  -29.2640   36.0080 H   0  0  0  0  0  0  0  0  0  0  0  0
   20.3989  -29.2984   40.7674 H   0  0  0  0  0  0  0  0  0  0  0  0
   20.3721  -27.0116   41.7369 H   0  0  0  0  0  0  0  0  0  0  0  0
   18.4393  -24.1856   40.3024 H   0  0  0  0  0  0  0  0  0  0  0  0
   19.2344  -24.8723   41.7868 H   0  0  0  0  0  0  0  0  0  0  0  0
   17.4337  -24.7350   38.7759 H   0  0  0  0  0  0  0  0  0  0  0  0
   18.2648  -27.8571   37.3044 H   0  0  0  0  0  0  0  0  0  0  0  0
   18.2046  -33.0586   40.7429 H   0  0  0  0  0  0  0  0  0  0  0  0
   18.1248  -35.4608   40.0639 H   0  0  0  0  0  0  0  0  0  0  0  0
   18.7982  -36.1292   37.7555 H   0  0  0  0  0  0  0  0  0  0  0  0
   20.4250  -34.2830   35.5260 H   0  0  0  0  0  0  0  0  0  0  0  0
  1  2  2  0
  2  3  1  0
  3  4  1  0
  3  5  2  0
  5  6  1  0
  6  7  2  0
  7  8  1  0
  8  9  2  0
  9 10  1  0
 10 11  1  0
  9 12  1  0
 12 13  1  0
 13 14  1  0
 13 15  1  0
 12 16  2  0
  5 17  1  0
 17 18  1  0
 18 19  2  0
 19 20  1  0
 20 21  2  0
 21 22  1  0
 22 23  1  0
 22 24  2  0
 24  2  1  0
 16  6  1  0
 24 18  1  0
  4 25  1  0
  7 26  1  0
  8 27  1  0
 10 28  1  0
 10 29  1  0
 13 30  1  0
 16 31  1  0
 19 32  1  0
 20 33  1  0
 21 34  1  0
 23 35  1  0
M  END
>  <meeko>  (5) 
{"is_sidechain": [false], "free_energy": -7.163, "intermolecular_energy": -9.069, "internal_energy": -0.318}

$$$$
cand_019_out
     RDKit          3D

 35 37  0  0  0  0  0  0  0  0999 V2000
   21.7110  -25.8010   44.5000 O   0  0  0  0  0  0  0  0  0  0  0  0
   21.8480  -26.5500   43.5350 C   0  0  0  0  0  0  0  0  0  0  0  0
   20.9420  -26.4470   42.3680 C   0  0  0  0  0  0  0  0  0  0  0  0
   19.9440  -25.4910   42.4290 O   0  0  0  0  0  0  0  0  0  0  0  0
   21.1270  -27.2880   41.3340 C   0  0  0  0  0  0  0  0  0  0  0  0
   20.2770  -27.2840   40.1230 C   0  0  0  0  0  0  0  0  0  0  0  0
   19.6220  -28.4370   39.6800 C   0  0  0  0  0  0  0  0  0  0  0  0
   18.8040  -28.4040   38.5460 C   0  0  0  0  0  0  0  0  0  0  0  0
   18.6200  -27.2140   37.8270 C   0  0  0  0  0  0  0  0  0  0  0  0
   17.7250  -27.2120   36.6130 C   0  0  0  0  0  0  0  0  0  0  0  0
   18.4110  -27.4610   35.4620 F   0  0  0  0  0  0  0  0  0  0  0  0
   19.2510  -26.0350   38.2760 C   0  0  0  0  0  0  0  0  0  0  0  0
   19.0670  -24.7190   37.5510 C   0  0  0  0  0  0  0  0  0  0  0  0
   17.8520  -24.1550   37.8010 F   0  0  0  0  0  0  0  0  0  0  0  0
   19.9820  -23.7740   37.9160 F   0  0  0  0  0  0  0  0  0  0  0  0
   20.0750  -26.0880   39.4170 C   0  0  0  0  0  0  0  0  0  0  0  0
   22.1160  -28.2630   41.2950 O   0  0  0  0  0  0  0  0  0  0  0  0
   22.9750  -28.3790   42.3590 C   0  0  0  0  0  0  0  0  0  0  0  0
   23.9600  -29.3650   42.2730 C   0  0  0  0  0  0  0  0  0  0  0  0
   24.8660  -29.5360   43.3220 C   0  0  0  0  0  0  0  0  0  0  0  0
   24.7870  -28.7240   44.4560 C   0  0  0  0  0  0  0  0  0  0  0  0
   23.8030  -27.7410   44.5380 C   0  0  0  0  0  0  0  0  0  0  0  0
   23.7840  -26.9820   45.6750 O   0  0  0  0  0  0  0  0  0  0  0  0
   22.8980  -27.5700   43.4880 C   0  0  0  0  0  0  0  0  0  0  0  0
   20.1040  -24.6250   42.1080 H   0  0  0  0  0  0  0  0  0  0  0  0
   19.7515  -29.3810   40.2297 H   0  0  0  0  0  0  0  0  0  0  0  0
   18.2987  -29.3229   38.2139 H   0  0  0  0  0  0  0  0  0  0  0  0
   16.9551  -27.9873   36.7403 H   0  0  0  0  0  0  0  0  0  0  0  0
   17.2779  -26.2106   36.5273 H   0  0  0  0  0  0  0  0  0  0  0  0
   19.1808  -24.9890   36.4907 H   0  0  0  0  0  0  0  0  0  0  0  0
   20.5722  -25.1699   39.7631 H   0  0  0  0  0  0  0  0  0  0  0  0
   24.0222  -30.0056   41.3810 H   0  0  0  0  0  0  0  0  0  0  0  0
   25.6432  -30.3115   43.2552 H   0  0  0  0  0  0  0  0  0  0  0  0
   25.5001  -28.8604   45.2824 H   0  0  0  0  0  0  0  0  0  0  0  0
   24.0840  -27.3440   46.4860 H   0  0  0  0  0  0  0  0  0  0  0  0
  1  2  2  0
  2  3  1  0
  3  4  1  0
  3  5  2  0
  5  6  1  0
  6  7  2  0
  7  8  1  0
  8  9  2  0
  9 10  1  0
 10 11  1  0
  9 12  1  0
 12 13  1  0
 13 14  1  0
 13 15  1  0
 12 16  2  0
  5 17  1  0
 17 18  1  0
 18 19  2  0
 19 20  1  0
 20 21  2  0
 21 22  1  0
 22 23  1  0
 22 24  2  0
 24  2  1  0
 16  6  1  0
 24 18  1  0
  4 25  1  0
  7 26  1  0
  8 27  1  0
 10 28  1  0
 10 29  1  0
 13 30  1  0
 16 31  1  0
 19 32  1  0
 20 33  1  0
 21 34  1  0
 23 35  1  0
M  END
>  <meeko>  (6) 
{"is_sidechain": [false], "free_energy": -7.023, "intermolecular_energy": -8.878, "internal_energy": -0.337}

$$$$
cand_019_out
     RDKit          3D

 35 37  0  0  0  0  0  0  0  0999 V2000
   21.0250  -30.5900   32.9500 O   0  0  0  0  0  0  0  0  0  0  0  0
   20.5560  -30.8780   34.0490 C   0  0  0  0  0  0  0  0  0  0  0  0
   20.3180  -29.8260   35.0640 C   0  0  0  0  0  0  0  0  0  0  0  0
   20.6600  -28.5310   34.7200 O   0  0  0  0  0  0  0  0  0  0  0  0
   19.8040  -30.1870   36.2540 C   0  0  0  0  0  0  0  0  0  0  0  0
   19.5360  -29.2250   37.3460 C   0  0  0  0  0  0  0  0  0  0  0  0
   19.4980  -29.6240   38.6860 C   0  0  0  0  0  0  0  0  0  0  0  0
   19.2670  -28.6940   39.7030 C   0  0  0  0  0  0  0  0  0  0  0  0
   19.0680  -27.3380   39.4060 C   0  0  0  0  0  0  0  0  0  0  0  0
   18.8280  -26.3590   40.5280 C   0  0  0  0  0  0  0  0  0  0  0  0
   19.0030  -26.9230   41.7560 F   0  0  0  0  0  0  0  0  0  0  0  0
   19.1300  -26.9120   38.0610 C   0  0  0  0  0  0  0  0  0  0  0  0
   18.9470  -25.4580   37.6870 C   0  0  0  0  0  0  0  0  0  0  0  0
   20.0720  -24.7210   37.9020 F   0  0  0  0  0  0  0  0  0  0  0  0
   18.6470  -25.2780   36.3670 F   0  0  0  0  0  0  0  0  0  0  0  0
   19.3590  -27.8650   37.0500 C   0  0  0  0  0  0  0  0  0  0  0  0
   19.4890  -31.4960   36.5990 O   0  0  0  0  0  0  0  0  0  0  0  0
   19.6930  -32.4910   35.6770 C   0  0  0  0  0  0  0  0  0  0  0  0
   19.3540  -33.7900   36.0620 C   0  0  0  0  0  0  0  0  0  0  0  0
   19.5370  -34.8500   35.1710 C   0  0  0  0  0  0  0  0  0  0  0  0
   20.0590  -34.6120   33.8980 C   0  0  0  0  0  0  0  0  0  0  0  0
   20.3970  -33.3150   33.5170 C   0  0  0  0  0  0  0  0  0  0  0  0
   20.9030  -33.1550   32.2570 O   0  0  0  0  0  0  0  0  0  0  0  0
   20.2130  -32.2560   34.4090 C   0  0  0  0  0  0  0  0  0  0  0  0
   20.6830  -27.8630   35.3770 H   0  0  0  0  0  0  0  0  0  0  0  0
   19.6518  -30.6826   38.9423 H   0  0  0  0  0  0  0  0  0  0  0  0
   19.2409  -29.0299   40.7501 H   0  0  0  0  0  0  0  0  0  0  0  0
   19.5313  -25.5200   40.4212 H   0  0  0  0  0  0  0  0  0  0  0  0
   17.7835  -26.0207   40.4602 H   0  0  0  0  0  0  0  0  0  0  0  0
   18.1163  -25.1286   38.3283 H   0  0  0  0  0  0  0  0  0  0  0  0
   19.4002  -27.5348   36.0015 H   0  0  0  0  0  0  0  0  0  0  0  0
   18.9436  -33.9780   37.0651 H   0  0  0  0  0  0  0  0  0  0  0  0
   19.2696  -35.8735   35.4725 H   0  0  0  0  0  0  0  0  0  0  0  0
   20.2032  -35.4472   33.1969 H   0  0  0  0  0  0  0  0  0  0  0  0
   20.4800  -32.5780   31.6520 H   0  0  0  0  0  0  0  0  0  0  0  0
  1  2  2  0
  2  3  1  0
  3  4  1  0
  3  5  2  0
  5  6  1  0
  6  7  2  0
  7  8  1  0
  8  9  2  0
  9 10  1  0
 10 11  1  0
  9 12  1  0
 12 13  1  0
 13 14  1  0
 13 15  1  0
 12 16  2  0
  5 17  1  0
 17 18  1  0
 18 19  2  0
 19 20  1  0
 20 21  2  0
 21 22  1  0
 22 23  1  0
 22 24  2  0
 24  2  1  0
 16  6  1  0
 24 18  1  0
  4 25  1  0
  7 26  1  0
  8 27  1  0
 10 28  1  0
 10 29  1  0
 13 30  1  0
 16 31  1  0
 19 32  1  0
 20 33  1  0
 21 34  1  0
 23 35  1  0
M  END
>  <meeko>  (7) 
{"is_sidechain": [false], "free_energy": -6.816, "intermolecular_energy": -9.007, "internal_energy": 0.048}

$$$$
cand_019_out
     RDKit          3D

 35 37  0  0  0  0  0  0  0  0999 V2000
   19.7220  -26.4200   41.9030 O   0  0  0  0  0  0  0  0  0  0  0  0
   20.4620  -26.1830   42.8560 C   0  0  0  0  0  0  0  0  0  0  0  0
   20.0980  -25.1480   43.8510 C   0  0  0  0  0  0  0  0  0  0  0  0
   18.9130  -24.4660   43.6440 O   0  0  0  0  0  0  0  0  0  0  0  0
   20.9380  -24.9210   44.8770 C   0  0  0  0  0  0  0  0  0  0  0  0
   20.6840  -23.9050   45.9220 C   0  0  0  0  0  0  0  0  0  0  0  0
   19.9120  -24.1880   47.0530 C   0  0  0  0  0  0  0  0  0  0  0  0
   19.7050  -23.2190   48.0380 C   0  0  0  0  0  0  0  0  0  0  0  0
   20.2680  -21.9400   47.9190 C   0  0  0  0  0  0  0  0  0  0  0  0
   20.0310  -20.9200   49.0040 C   0  0  0  0  0  0  0  0  0  0  0  0
   21.1000  -20.7920   49.8390 F   0  0  0  0  0  0  0  0  0  0  0  0
   21.0720  -21.6450   46.7970 C   0  0  0  0  0  0  0  0  0  0  0  0
   21.7230  -20.2890   46.6310 C   0  0  0  0  0  0  0  0  0  0  0  0
   22.9660  -20.2380   47.1850 F   0  0  0  0  0  0  0  0  0  0  0  0
   21.8980  -19.9360   45.3230 F   0  0  0  0  0  0  0  0  0  0  0  0
   21.2650  -22.6320   45.8120 C   0  0  0  0  0  0  0  0  0  0  0  0
   22.1400  -25.5940   45.0590 O   0  0  0  0  0  0  0  0  0  0  0  0
   22.5010  -26.5630   44.1580 C   0  0  0  0  0  0  0  0  0  0  0  0
   23.7110  -27.2200   44.3850 C   0  0  0  0  0  0  0  0  0  0  0  0
   24.1380  -28.2170   43.5040 C   0  0  0  0  0  0  0  0  0  0  0  0
   23.3560  -28.5550   42.3970 C   0  0  0  0  0  0  0  0  0  0  0  0
   22.1490  -27.8970   42.1740 C   0  0  0  0  0  0  0  0  0  0  0  0
   21.4340  -28.2780   41.0710 O   0  0  0  0  0  0  0  0  0  0  0  0
   21.7230  -26.9010   43.0550 C   0  0  0  0  0  0  0  0  0  0  0  0
   18.5100  -24.4720   42.7980 H   0  0  0  0  0  0  0  0  0  0  0  0
   19.4624  -25.1852   47.1686 H   0  0  0  0  0  0  0  0  0  0  0  0
   19.0923  -23.4625   48.9185 H   0  0  0  0  0  0  0  0  0  0  0  0
   19.8304  -19.9454   48.5350 H   0  0  0  0  0  0  0  0  0  0  0  0
   19.1753  -21.2620   49.6047 H   0  0  0  0  0  0  0  0  0  0  0  0
   21.0256  -19.6035   47.1347 H   0  0  0  0  0  0  0  0  0  0  0  0
   21.8864  -22.3999   44.9345 H   0  0  0  0  0  0  0  0  0  0  0  0
   24.3277  -26.9535   45.2560 H   0  0  0  0  0  0  0  0  0  0  0  0
   25.0911  -28.7363   43.6824 H   0  0  0  0  0  0  0  0  0  0  0  0
   23.6928  -29.3391   41.7029 H   0  0  0  0  0  0  0  0  0  0  0  0
   21.3750  -29.1840   40.8410 H   0  0  0  0  0  0  0  0  0  0  0  0
  1  2  2  0
  2  3  1  0
  3  4  1  0
  3  5  2  0
  5  6  1  0
  6  7  2  0
  7  8  1  0
  8  9  2  0
  9 10  1  0
 10 11  1  0
  9 12  1  0
 12 13  1  0
 13 14  1  0
 13 15  1  0
 12 16  2  0
  5 17  1  0
 17 18  1  0
 18 19  2  0
 19 20  1  0
 20 21  2  0
 21 22  1  0
 22 23  1  0
 22 24  2  0
 24  2  1  0
 16  6  1  0
 24 18  1  0
  4 25  1  0
  7 26  1  0
  8 27  1  0
 10 28  1  0
 10 29  1  0
 13 30  1  0
 16 31  1  0
 19 32  1  0
 20 33  1  0
 21 34  1  0
 23 35  1  0
M  END
>  <meeko>  (8) 
{"is_sidechain": [false], "free_energy": -6.797, "intermolecular_energy": -8.281, "internal_energy": -0.655}

$$$$
cand_019_out
     RDKit          3D

 35 37  0  0  0  0  0  0  0  0999 V2000
   20.7930  -24.9430   40.4720 O   0  0  0  0  0  0  0  0  0  0  0  0
   20.0990  -25.3990   39.5660 C   0  0  0  0  0  0  0  0  0  0  0  0
   20.2290  -26.8170   39.1600 C   0  0  0  0  0  0  0  0  0  0  0  0
   21.1670  -27.5800   39.8320 O   0  0  0  0  0  0  0  0  0  0  0  0
   19.4500  -27.2750   38.1630 C   0  0  0  0  0  0  0  0  0  0  0  0
   19.5040  -28.6670   37.6670 C   0  0  0  0  0  0  0  0  0  0  0  0
   19.8250  -28.9640   36.3390 C   0  0  0  0  0  0  0  0  0  0  0  0
   19.8920  -30.2890   35.8980 C   0  0  0  0  0  0  0  0  0  0  0  0
   19.6410  -31.3530   36.7760 C   0  0  0  0  0  0  0  0  0  0  0  0
   19.7290  -32.7700   36.2690 C   0  0  0  0  0  0  0  0  0  0  0  0
   19.9020  -32.8290   34.9190 F   0  0  0  0  0  0  0  0  0  0  0  0
   19.3410  -31.0730   38.1270 C   0  0  0  0  0  0  0  0  0  0  0  0
   19.0840  -32.1840   39.1210 C   0  0  0  0  0  0  0  0  0  0  0  0
   19.9610  -32.1600   40.1640 F   0  0  0  0  0  0  0  0  0  0  0  0
   17.8460  -32.1150   39.6930 F   0  0  0  0  0  0  0  0  0  0  0  0
   19.2720  -29.7320   38.5510 C   0  0  0  0  0  0  0  0  0  0  0  0
   18.5300  -26.4920   37.4760 O   0  0  0  0  0  0  0  0  0  0  0  0
   18.3820  -25.1760   37.8340 C   0  0  0  0  0  0  0  0  0  0  0  0
   17.4400  -24.4290   37.1250 C   0  0  0  0  0  0  0  0  0  0  0  0
   17.2400  -23.0820   37.4370 C   0  0  0  0  0  0  0  0  0  0  0  0
   17.9820  -22.4830   38.4580 C   0  0  0  0  0  0  0  0  0  0  0  0
   18.9210  -23.2310   39.1630 C   0  0  0  0  0  0  0  0  0  0  0  0
   19.6120  -22.5810   40.1490 O   0  0  0  0  0  0  0  0  0  0  0  0
   19.1200  -24.5770   38.8500 C   0  0  0  0  0  0  0  0  0  0  0  0
   21.3300  -28.4640   39.5670 H   0  0  0  0  0  0  0  0  0  0  0  0
   20.0273  -28.1453   35.6327 H   0  0  0  0  0  0  0  0  0  0  0  0
   20.1450  -30.4996   34.8484 H   0  0  0  0  0  0  0  0  0  0  0  0
   20.5806  -33.2672   36.7563 H   0  0  0  0  0  0  0  0  0  0  0  0
   18.7792  -33.2710   36.5075 H   0  0  0  0  0  0  0  0  0  0  0  0
   19.1903  -33.0991   38.5200 H   0  0  0  0  0  0  0  0  0  0  0  0
   19.0301  -29.5137   39.6016 H   0  0  0  0  0  0  0  0  0  0  0  0
   16.8555  -24.9005   36.3212 H   0  0  0  0  0  0  0  0  0  0  0  0
   16.4979  -22.4927   36.8784 H   0  0  0  0  0  0  0  0  0  0  0  0
   17.8246  -21.4226   38.7044 H   0  0  0  0  0  0  0  0  0  0  0  0
   19.4230  -22.7590   41.0490 H   0  0  0  0  0  0  0  0  0  0  0  0
  1  2  2  0
  2  3  1  0
  3  4  1  0
  3  5  2  0
  5  6  1  0
  6  7  2  0
  7  8  1  0
  8  9  2  0
  9 10  1  0
 10 11  1  0
  9 12  1  0
 12 13  1  0
 13 14  1  0
 13 15  1  0
 12 16  2  0
  5 17  1  0
 17 18  1  0
 18 19  2  0
 19 20  1  0
 20 21  2  0
 21 22  1  0
 22 23  1  0
 22 24  2  0
 24  2  1  0
 16  6  1  0
 24 18  1  0
  4 25  1  0
  7 26  1  0
  8 27  1  0
 10 28  1  0
 10 29  1  0
 13 30  1  0
 16 31  1  0
 19 32  1  0
 20 33  1  0
 21 34  1  0
 23 35  1  0
M  END
>  <meeko>  (9) 
{"is_sidechain": [false], "free_energy": -6.764, "intermolecular_energy": -8.536, "internal_energy": -0.358}

$$$$
