cand_002_out
     RDKit          3D

 45 48  0  0  0  0  0  0  0  0999 V2000
   18.2880  -33.7950   39.2340 C   0  0  0  0  0  0  0  0  0  0  0  0
   18.8350  -32.5820   38.5330 C   0  0  0  0  0  0  0  0  0  0  0  0
   18.7840  -31.3410   39.1960 C   0  0  0  0  0  0  0  0  0  0  0  0
   19.2610  -30.1640   38.6010 C   0  0  0  0  0  0  0  0  0  0  0  0
   19.1660  -28.8800   39.3280 C   0  0  0  0  0  0  0  0  0  0  0  0
   20.0630  -28.7910   40.3860 O   0  0  0  0  0  0  0  0  0  0  0  0
   20.0820  -27.6500   41.1470 C   0  0  0  0  0  0  0  0  0  0  0  0
   20.9880  -27.6090   42.2060 C   0  0  0  0  0  0  0  0  0  0  0  0
   21.0590  -26.4760   43.0200 C   0  0  0  0  0  0  0  0  0  0  0  0
   20.2240  -25.3850   42.7730 C   0  0  0  0  0  0  0  0  0  0  0  0
   19.3210  -25.4280   41.7150 C   0  0  0  0  0  0  0  0  0  0  0  0
   18.5330  -24.3230   41.5290 O   0  0  0  0  0  0  0  0  0  0  0  0
   19.2490  -26.5620   40.9020 C   0  0  0  0  0  0  0  0  0  0  0  0
   18.3140  -26.6480   39.7800 C   0  0  0  0  0  0  0  0  0  0  0  0
   17.5520  -25.7260   39.4950 O   0  0  0  0  0  0  0  0  0  0  0  0
   18.3110  -27.8970   38.9840 C   0  0  0  0  0  0  0  0  0  0  0  0
   17.4330  -27.9630   37.9180 O   0  0  0  0  0  0  0  0  0  0  0  0
   19.7780  -30.2390   37.3050 C   0  0  0  0  0  0  0  0  0  0  0  0
   19.8260  -31.4580   36.6270 C   0  0  0  0  0  0  0  0  0  0  0  0
   19.3560  -32.6410   37.2240 C   0  0  0  0  0  0  0  0  0  0  0  0
   19.4270  -33.9320   36.4270 C   0  0  0  0  0  0  0  0  0  0  0  0
   19.8450  -33.7770   34.9810 C   0  0  0  0  0  0  0  0  0  0  0  0
   20.3060  -34.8880   34.2590 C   0  0  0  0  0  0  0  0  0  0  0  0
   20.7200  -34.7540   32.9330 C   0  0  0  0  0  0  0  0  0  0  0  0
   20.6860  -33.5060   32.3130 C   0  0  0  0  0  0  0  0  0  0  0  0
   20.2430  -32.3910   33.0220 C   0  0  0  0  0  0  0  0  0  0  0  0
   19.8290  -32.5240   34.3490 C   0  0  0  0  0  0  0  0  0  0  0  0
   18.3534  -33.6501   40.3225 H   0  0  0  0  0  0  0  0  0  0  0  0
   17.2365  -33.9418   38.9461 H   0  0  0  0  0  0  0  0  0  0  0  0
   18.8740  -34.6803   38.9461 H   0  0  0  0  0  0  0  0  0  0  0  0
   18.3581  -31.2932   40.2091 H   0  0  0  0  0  0  0  0  0  0  0  0
   21.6465  -28.4684   42.4004 H   0  0  0  0  0  0  0  0  0  0  0  0
   21.7732  -26.4435   43.8560 H   0  0  0  0  0  0  0  0  0  0  0  0
   20.2797  -24.4926   43.4137 H   0  0  0  0  0  0  0  0  0  0  0  0
   17.6030  -24.3910   41.6210 H   0  0  0  0  0  0  0  0  0  0  0  0
   17.7040  -27.6700   37.0690 H   0  0  0  0  0  0  0  0  0  0  0  0
   20.1510  -29.3280   36.8141 H   0  0  0  0  0  0  0  0  0  0  0  0
   20.2387  -31.4938   35.6080 H   0  0  0  0  0  0  0  0  0  0  0  0
   20.1511  -34.5968   36.9207 H   0  0  0  0  0  0  0  0  0  0  0  0
   18.4031  -34.3334   36.4063 H   0  0  0  0  0  0  0  0  0  0  0  0
   20.3415  -35.8751   34.7431 H   0  0  0  0  0  0  0  0  0  0  0  0
   21.0736  -35.6344   32.3764 H   0  0  0  0  0  0  0  0  0  0  0  0
   21.0081  -33.4015   31.2664 H   0  0  0  0  0  0  0  0  0  0  0  0
   20.2194  -31.4047   32.5356 H   0  0  0  0  0  0  0  0  0  0  0  0
   19.4871  -31.6382   34.9043 H   0  0  0  0  0  0  0  0  0  0  0  0
  1  2  1  0
  2  3  2  0
  3  4  1  0
  4  5  1  0
  5  6  1  0
  6  7  1  0
  7  8  2  0
  8  9  1  0
  9 10  2  0
 10 11  1  0
 11 12  1  0
 11 13  2  0
 13 14  1  0
 14 15  2  0
 14 16  1  0
 16 17  1  0
  4 18  2  0
 18 19  1  0
 19 20  2  0
 20 21  1  0
 21 22  1  0
 22 23  2  0
 23 24  1  0
 24 25  2  0
 25 26  1  0
 26 27  2  0
 20  2  1  0
 27 22  1  0
 16  5  2  0
 13  7  1  0
  1 28  1  0
  1 29  1  0
  1 30  1  0
  3 31  1  0
  8 32  1  0
  9 33  1  0
 10 34  1  0
 12 35  1  0
 17 36  1  0
 18 37  1  0
 19 38  1  0
 21 39  1  0
 21 40  1  0
 23 41  1  0
 24 42  1  0
 25 43  1  0
 26 44  1  0
 27 45  1  0
M  END
>  <meeko>  (1) 
{"is_sidechain": [false], "free_energy": -9.437, "intermolecular_energy": -11.644, "internal_energy": 0.454}

$$$$
cand_002_out
     RDKit          3D

 45 48  0  0  0  0  0  0  0  0999 V2000
   19.7000  -26.8140   41.4080 C   0  0  0  0  0  0  0  0  0  0  0  0
   19.5430  -27.1190   39.9440 C   0  0  0  0  0  0  0  0  0  0  0  0
   19.5370  -28.4660   39.5350 C   0  0  0  0  0  0  0  0  0  0  0  0
   19.4110  -28.8290   38.1850 C   0  0  0  0  0  0  0  0  0  0  0  0
   19.4320  -30.2570   37.8020 C   0  0  0  0  0  0  0  0  0  0  0  0
   18.9760  -31.0950   38.8130 O   0  0  0  0  0  0  0  0  0  0  0  0
   18.9420  -32.4480   38.5900 C   0  0  0  0  0  0  0  0  0  0  0  0
   18.4900  -33.2510   39.6370 C   0  0  0  0  0  0  0  0  0  0  0  0
   18.4300  -34.6370   39.4760 C   0  0  0  0  0  0  0  0  0  0  0  0
   18.8200  -35.2180   38.2680 C   0  0  0  0  0  0  0  0  0  0  0  0
   19.2700  -34.4140   37.2250 C   0  0  0  0  0  0  0  0  0  0  0  0
   19.6370  -35.0490   36.0690 O   0  0  0  0  0  0  0  0  0  0  0  0
   19.3320  -33.0280   37.3870 C   0  0  0  0  0  0  0  0  0  0  0  0
   19.7990  -32.1460   36.3160 C   0  0  0  0  0  0  0  0  0  0  0  0
   20.1530  -32.5820   35.2230 O   0  0  0  0  0  0  0  0  0  0  0  0
   19.8330  -30.6910   36.5920 C   0  0  0  0  0  0  0  0  0  0  0  0
   20.2630  -29.8670   35.5680 O   0  0  0  0  0  0  0  0  0  0  0  0
   19.3110  -27.8130   37.2320 C   0  0  0  0  0  0  0  0  0  0  0  0
   19.3270  -26.4710   37.6180 C   0  0  0  0  0  0  0  0  0  0  0  0
   19.4460  -26.1040   38.9700 C   0  0  0  0  0  0  0  0  0  0  0  0
   19.4690  -24.6270   39.3210 C   0  0  0  0  0  0  0  0  0  0  0  0
   18.7920  -23.7150   38.3200 C   0  0  0  0  0  0  0  0  0  0  0  0
   19.5450  -22.7650   37.6130 C   0  0  0  0  0  0  0  0  0  0  0  0
   18.9300  -21.9010   36.7060 C   0  0  0  0  0  0  0  0  0  0  0  0
   17.5540  -21.9700   36.4990 C   0  0  0  0  0  0  0  0  0  0  0  0
   16.7910  -22.9000   37.2030 C   0  0  0  0  0  0  0  0  0  0  0  0
   17.4060  -23.7640   38.1110 C   0  0  0  0  0  0  0  0  0  0  0  0
   19.2761  -27.6374   42.0016 H   0  0  0  0  0  0  0  0  0  0  0  0
   20.7679  -26.7018   41.6467 H   0  0  0  0  0  0  0  0  0  0  0  0
   19.1708  -25.8797   41.6467 H   0  0  0  0  0  0  0  0  0  0  0  0
   19.6337  -29.2559   40.2944 H   0  0  0  0  0  0  0  0  0  0  0  0
   18.1812  -32.7932   40.5884 H   0  0  0  0  0  0  0  0  0  0  0  0
   18.0752  -35.2713   40.3017 H   0  0  0  0  0  0  0  0  0  0  0  0
   18.7717  -36.3095   38.1408 H   0  0  0  0  0  0  0  0  0  0  0  0
   19.4600  -34.6510   35.2400 H   0  0  0  0  0  0  0  0  0  0  0  0
   21.1760  -29.6780   35.4720 H   0  0  0  0  0  0  0  0  0  0  0  0
   19.2187  -28.0724   36.1670 H   0  0  0  0  0  0  0  0  0  0  0  0
   19.2450  -25.6871   36.8506 H   0  0  0  0  0  0  0  0  0  0  0  0
   18.9662  -24.5001   40.2911 H   0  0  0  0  0  0  0  0  0  0  0  0
   20.5289  -24.3330   39.3330 H   0  0  0  0  0  0  0  0  0  0  0  0
   20.6310  -22.7007   37.7754 H   0  0  0  0  0  0  0  0  0  0  0  0
   19.5324  -21.1646   36.1538 H   0  0  0  0  0  0  0  0  0  0  0  0
   17.0704  -21.2914   35.7809 H   0  0  0  0  0  0  0  0  0  0  0  0
   15.7040  -22.9532   37.0432 H   0  0  0  0  0  0  0  0  0  0  0  0
   16.7970  -24.4909   38.6684 H   0  0  0  0  0  0  0  0  0  0  0  0
  1  2  1  0
  2  3  2  0
  3  4  1  0
  4  5  1  0
  5  6  1  0
  6  7  1  0
  7  8  2  0
  8  9  1  0
  9 10  2  0
 10 11  1  0
 11 12  1  0
 11 13  2  0
 13 14  1  0
 14 15  2  0
 14 16  1  0
 16 17  1  0
  4 18  2  0
 18 19  1  0
 19 20  2  0
 20 21  1  0
 21 22  1  0
 22 23  2  0
 23 24  1  0
 24 25  2  0
 25 26  1  0
 26 27  2  0
 20  2  1  0
 27 22  1  0
 16  5  2  0
 13  7  1  0
  1 28  1  0
  1 29  1  0
  1 30  1  0
  3 31  1  0
  8 32  1  0
  9 33  1  0
 10 34  1  0
 12 35  1  0
 17 36  1  0
 18 37  1  0
 19 38  1  0
 21 39  1  0
 21 40  1  0
 23 41  1  0
 24 42  1  0
 25 43  1  0
 26 44  1  0
 27 45  1  0
M  END
>  <meeko>  (2) 
{"is_sidechain": [false], "free_energy": -8.718, "intermolecular_energy": -10.052, "internal_energy": -0.25}

$$$$
cand_002_out
     RDKit          3D

 45 48  0  0  0  0  0  0  0  0999 V2000
   17.6570  -25.0410   37.7800 C   0  0  0  0  0  0  0  0  0  0  0  0
   18.6910  -25.9510   38.3830 C   0  0  0  0  0  0  0  0  0  0  0  0
   18.7260  -27.2970   37.9700 C   0  0  0  0  0  0  0  0  0  0  0  0
   19.6510  -28.2100   38.4990 C   0  0  0  0  0  0  0  0  0  0  0  0
   19.6340  -29.6190   38.0500 C   0  0  0  0  0  0  0  0  0  0  0  0
   19.2120  -30.4970   39.0420 O   0  0  0  0  0  0  0  0  0  0  0  0
   19.1480  -31.8370   38.7600 C   0  0  0  0  0  0  0  0  0  0  0  0
   18.7330  -32.6830   39.7890 C   0  0  0  0  0  0  0  0  0  0  0  0
   18.6460  -34.0590   39.5680 C   0  0  0  0  0  0  0  0  0  0  0  0
   18.9720  -34.5890   38.3180 C   0  0  0  0  0  0  0  0  0  0  0  0
   19.3860  -33.7430   37.2930 C   0  0  0  0  0  0  0  0  0  0  0  0
   19.6910  -34.3280   36.0940 O   0  0  0  0  0  0  0  0  0  0  0  0
   19.4750  -32.3660   37.5150 C   0  0  0  0  0  0  0  0  0  0  0  0
   19.9050  -31.4420   36.4650 C   0  0  0  0  0  0  0  0  0  0  0  0
   20.2040  -31.8310   35.3370 O   0  0  0  0  0  0  0  0  0  0  0  0
   19.9730  -30.0020   36.8040 C   0  0  0  0  0  0  0  0  0  0  0  0
   20.3680  -29.1370   35.8010 O   0  0  0  0  0  0  0  0  0  0  0  0
   20.5410  -27.7600   39.4760 C   0  0  0  0  0  0  0  0  0  0  0  0
   20.5140  -26.4320   39.9070 C   0  0  0  0  0  0  0  0  0  0  0  0
   19.5930  -25.5130   39.3740 C   0  0  0  0  0  0  0  0  0  0  0  0
   19.6100  -24.0860   39.8940 C   0  0  0  0  0  0  0  0  0  0  0  0
   19.6050  -23.9490   41.4010 C   0  0  0  0  0  0  0  0  0  0  0  0
   19.6100  -22.6760   41.9910 C   0  0  0  0  0  0  0  0  0  0  0  0
   19.6310  -22.5340   43.3790 C   0  0  0  0  0  0  0  0  0  0  0  0
   19.6550  -23.6620   44.1960 C   0  0  0  0  0  0  0  0  0  0  0  0
   19.6630  -24.9330   43.6240 C   0  0  0  0  0  0  0  0  0  0  0  0
   19.6420  -25.0760   42.2350 C   0  0  0  0  0  0  0  0  0  0  0  0
   17.0926  -24.5443   38.5830 H   0  0  0  0  0  0  0  0  0  0  0  0
   18.1543  -24.2823   37.1579 H   0  0  0  0  0  0  0  0  0  0  0  0
   16.9676  -25.6307   37.1579 H   0  0  0  0  0  0  0  0  0  0  0  0
   18.0081  -27.6423   37.2115 H   0  0  0  0  0  0  0  0  0  0  0  0
   18.4745  -32.2663   40.7737 H   0  0  0  0  0  0  0  0  0  0  0  0
   18.3203  -34.7262   40.3796 H   0  0  0  0  0  0  0  0  0  0  0  0
   18.9018  -35.6728   38.1436 H   0  0  0  0  0  0  0  0  0  0  0  0
   19.0620  -34.8770   35.6670 H   0  0  0  0  0  0  0  0  0  0  0  0
   19.8290  -29.0210   35.0430 H   0  0  0  0  0  0  0  0  0  0  0  0
   21.2710  -28.4587   39.9107 H   0  0  0  0  0  0  0  0  0  0  0  0
   21.2257  -26.0991   40.6769 H   0  0  0  0  0  0  0  0  0  0  0  0
   20.5166  -23.5950   39.5107 H   0  0  0  0  0  0  0  0  0  0  0  0
   18.6767  -23.6220   39.5423 H   0  0  0  0  0  0  0  0  0  0  0  0
   19.5972  -21.7803   41.3526 H   0  0  0  0  0  0  0  0  0  0  0  0
   19.6286  -21.5301   43.8286 H   0  0  0  0  0  0  0  0  0  0  0  0
   19.6676  -23.5499   45.2902 H   0  0  0  0  0  0  0  0  0  0  0  0
   19.6859  -25.8248   44.2676 H   0  0  0  0  0  0  0  0  0  0  0  0
   19.6546  -26.0822   41.7907 H   0  0  0  0  0  0  0  0  0  0  0  0
  1  2  1  0
  2  3  2  0
  3  4  1  0
  4  5  1  0
  5  6  1  0
  6  7  1  0
  7  8  2  0
  8  9  1  0
  9 10  2  0
 10 11  1  0
 11 12  1  0
 11 13  2  0
 13 14  1  0
 14 15  2  0
 14 16  1  0
 16 17  1  0
  4 18  2  0
 18 19  1  0
 19 20  2  0
 20 21  1  0
 21 22  1  0
 22 23  2  0
 23 24  1  0
 24 25  2  0
 25 26  1  0
 26 27  2  0
 20  2  1  0
 27 22  1  0
 16  5  2  0
 13  7  1  0
  1 28  1  0
  1 29  1  0
  1 30  1  0
  3 31  1  0
  8 32  1  0
  9 33  1  0
 10 34  1  0
 12 35  1  0
 17 36  1  0
 18 37  1  0
 19 38  1  0
 21 39  1  0
 21 40  1  0
 23 41  1  0
 24 42  1  0
 25 43  1  0
 26 44  1  0
 27 45  1  0
M  END
>  <meeko>  (3) 
{"is_sidechain": [false], "free_energy": -8.635, "intermolecular_energy": -10.076, "internal_energy": -0.124}

$$$$
cand_002_out
     RDKit          3D

 45 48  0  0  0  0  0  0  0  0999 V2000
   18.1880  -22.9600   46.5090 C   0  0  0  0  0  0  0  0  0  0  0  0
   19.3770  -23.7110   45.9750 C   0  0  0  0  0  0  0  0  0  0  0  0
   19.3450  -24.1590   44.6410 C   0  0  0  0  0  0  0  0  0  0  0  0
   20.4090  -24.8790   44.0760 C   0  0  0  0  0  0  0  0  0  0  0  0
   20.3200  -25.3490   42.6770 C   0  0  0  0  0  0  0  0  0  0  0  0
   19.9290  -24.3480   41.7950 O   0  0  0  0  0  0  0  0  0  0  0  0
   19.8070  -24.6470   40.4620 C   0  0  0  0  0  0  0  0  0  0  0  0
   19.3980  -23.6160   39.6160 C   0  0  0  0  0  0  0  0  0  0  0  0
   19.2540  -23.8540   38.2470 C   0  0  0  0  0  0  0  0  0  0  0  0
   19.5200  -25.1210   37.7260 C   0  0  0  0  0  0  0  0  0  0  0  0
   19.9280  -26.1480   38.5730 C   0  0  0  0  0  0  0  0  0  0  0  0
   20.1720  -27.3650   37.9950 O   0  0  0  0  0  0  0  0  0  0  0  0
   20.0700  -25.9110   39.9420 C   0  0  0  0  0  0  0  0  0  0  0  0
   20.4960  -26.9620   40.8660 C   0  0  0  0  0  0  0  0  0  0  0  0
   20.7550  -28.1010   40.4820 O   0  0  0  0  0  0  0  0  0  0  0  0
   20.6090  -26.6090   42.3000 C   0  0  0  0  0  0  0  0  0  0  0  0
   21.0260  -27.6060   43.1630 O   0  0  0  0  0  0  0  0  0  0  0  0
   21.5140  -25.1680   44.8800 C   0  0  0  0  0  0  0  0  0  0  0  0
   21.5580  -24.7420   46.2090 C   0  0  0  0  0  0  0  0  0  0  0  0
   20.4970  -24.0140   46.7760 C   0  0  0  0  0  0  0  0  0  0  0  0
   20.6040  -23.5900   48.2300 C   0  0  0  0  0  0  0  0  0  0  0  0
   21.6990  -22.5900   48.5320 C   0  0  0  0  0  0  0  0  0  0  0  0
   21.8490  -21.4490   47.7310 C   0  0  0  0  0  0  0  0  0  0  0  0
   22.8700  -20.5310   47.9830 C   0  0  0  0  0  0  0  0  0  0  0  0
   23.7590  -20.7470   49.0340 C   0  0  0  0  0  0  0  0  0  0  0  0
   23.6300  -21.8830   49.8300 C   0  0  0  0  0  0  0  0  0  0  0  0
   22.6090  -22.8020   49.5790 C   0  0  0  0  0  0  0  0  0  0  0  0
   18.2094  -22.9735   47.6087 H   0  0  0  0  0  0  0  0  0  0  0  0
   18.2222  -21.9193   46.1544 H   0  0  0  0  0  0  0  0  0  0  0  0
   17.2629  -23.4380   46.1544 H   0  0  0  0  0  0  0  0  0  0  0  0
   18.4613  -23.9386   44.0241 H   0  0  0  0  0  0  0  0  0  0  0  0
   19.1892  -22.6170   40.0263 H   0  0  0  0  0  0  0  0  0  0  0  0
   18.9307  -23.0420   37.5791 H   0  0  0  0  0  0  0  0  0  0  0  0
   19.4075  -25.3080   36.6479 H   0  0  0  0  0  0  0  0  0  0  0  0
   19.4630  -27.8690   37.6470 H   0  0  0  0  0  0  0  0  0  0  0  0
   21.8690  -28.0000   43.0520 H   0  0  0  0  0  0  0  0  0  0  0  0
   22.3578  -25.7367   44.4621 H   0  0  0  0  0  0  0  0  0  0  0  0
   22.4387  -24.9802   46.8236 H   0  0  0  0  0  0  0  0  0  0  0  0
   19.6436  -23.1422   48.5252 H   0  0  0  0  0  0  0  0  0  0  0  0
   20.8576  -24.4993   48.7946 H   0  0  0  0  0  0  0  0  0  0  0  0
   21.1550  -21.2755   46.8954 H   0  0  0  0  0  0  0  0  0  0  0  0
   22.9728  -19.6363   47.3513 H   0  0  0  0  0  0  0  0  0  0  0  0
   24.5613  -20.0218   49.2348 H   0  0  0  0  0  0  0  0  0  0  0  0
   24.3336  -22.0564   50.6576 H   0  0  0  0  0  0  0  0  0  0  0  0
   22.5172  -23.7001   50.2076 H   0  0  0  0  0  0  0  0  0  0  0  0
  1  2  1  0
  2  3  2  0
  3  4  1  0
  4  5  1  0
  5  6  1  0
  6  7  1  0
  7  8  2  0
  8  9  1  0
  9 10  2  0
 10 11  1  0
 11 12  1  0
 11 13  2  0
 13 14  1  0
 14 15  2  0
 14 16  1  0
 16 17  1  0
  4 18  2  0
 18 19  1  0
 19 20  2  0
 20 21  1  0
 21 22  1  0
 22 23  2  0
 23 24  1  0
 24 25  2  0
 25 26  1  0
 26 27  2  0
 20  2  1  0
 27 22  1  0
 16  5  2  0
 13  7  1  0
  1 28  1  0
  1 29  1  0
  1 30  1  0
  3 31  1  0
  8 32  1  0
  9 33  1  0
 10 34  1  0
 12 35  1  0
 17 36  1  0
 18 37  1  0
 19 38  1  0
 21 39  1  0
 21 40  1  0
 23 41  1  0
 24 42  1  0
 25 43  1  0
 26 44  1  0
 27 45  1  0
M  END
>  <meeko>  (4) 
{"is_sidechain": [false], "free_energy": -8.351, "intermolecular_energy": -9.15, "internal_energy": -0.7}

$$$$
cand_002_out
     RDKit          3D

 45 48  0  0  0  0  0  0  0  0999 V2000
   18.7990  -20.7290   43.7120 C   0  0  0  0  0  0  0  0  0  0  0  0
   19.1080  -22.2000   43.6800 C   0  0  0  0  0  0  0  0  0  0  0  0
   19.2320  -22.8340   42.4290 C   0  0  0  0  0  0  0  0  0  0  0  0
   19.5030  -24.2060   42.3180 C   0  0  0  0  0  0  0  0  0  0  0  0
   19.6020  -24.8320   40.9820 C   0  0  0  0  0  0  0  0  0  0  0  0
   18.7480  -24.2540   40.0500 O   0  0  0  0  0  0  0  0  0  0  0  0
   18.7380  -24.7390   38.7670 C   0  0  0  0  0  0  0  0  0  0  0  0
   17.8550  -24.1380   37.8690 C   0  0  0  0  0  0  0  0  0  0  0  0
   17.7960  -24.5830   36.5470 C   0  0  0  0  0  0  0  0  0  0  0  0
   18.6200  -25.6270   36.1230 C   0  0  0  0  0  0  0  0  0  0  0  0
   19.5010  -26.2250   37.0210 C   0  0  0  0  0  0  0  0  0  0  0  0
   20.2790  -27.2420   36.5390 O   0  0  0  0  0  0  0  0  0  0  0  0
   19.5580  -25.7800   38.3440 C   0  0  0  0  0  0  0  0  0  0  0  0
   20.4690  -26.3800   39.3200 C   0  0  0  0  0  0  0  0  0  0  0  0
   21.2300  -27.2990   39.0210 O   0  0  0  0  0  0  0  0  0  0  0  0
   20.4480  -25.8410   40.6990 C   0  0  0  0  0  0  0  0  0  0  0  0
   21.3220  -26.4060   41.6090 O   0  0  0  0  0  0  0  0  0  0  0  0
   19.6290  -24.9540   43.4910 C   0  0  0  0  0  0  0  0  0  0  0  0
   19.4980  -24.3450   44.7410 C   0  0  0  0  0  0  0  0  0  0  0  0
   19.2330  -22.9690   44.8550 C   0  0  0  0  0  0  0  0  0  0  0  0
   19.0910  -22.3720   46.2450 C   0  0  0  0  0  0  0  0  0  0  0  0
   19.9720  -22.9910   47.3070 C   0  0  0  0  0  0  0  0  0  0  0  0
   21.2680  -22.4980   47.5210 C   0  0  0  0  0  0  0  0  0  0  0  0
   22.1010  -23.0760   48.4800 C   0  0  0  0  0  0  0  0  0  0  0  0
   21.6520  -24.1600   49.2330 C   0  0  0  0  0  0  0  0  0  0  0  0
   20.3720  -24.6690   49.0220 C   0  0  0  0  0  0  0  0  0  0  0  0
   19.5380  -24.0910   48.0620 C   0  0  0  0  0  0  0  0  0  0  0  0
   18.7282  -20.3919   44.7567 H   0  0  0  0  0  0  0  0  0  0  0  0
   19.6003  -20.1748   43.2014 H   0  0  0  0  0  0  0  0  0  0  0  0
   17.8424  -20.5441   43.2014 H   0  0  0  0  0  0  0  0  0  0  0  0
   19.1131  -22.2368   41.5129 H   0  0  0  0  0  0  0  0  0  0  0  0
   17.2062  -23.3146   38.2023 H   0  0  0  0  0  0  0  0  0  0  0  0
   17.0995  -24.1105   35.8388 H   0  0  0  0  0  0  0  0  0  0  0  0
   18.5736  -25.9769   35.0812 H   0  0  0  0  0  0  0  0  0  0  0  0
   21.2110  -27.1500   36.5200 H   0  0  0  0  0  0  0  0  0  0  0  0
   21.5560  -25.9380   42.3870 H   0  0  0  0  0  0  0  0  0  0  0  0
   19.8334  -26.0331   43.4296 H   0  0  0  0  0  0  0  0  0  0  0  0
   19.6040  -24.9524   45.6520 H   0  0  0  0  0  0  0  0  0  0  0  0
   19.3359  -21.3015   46.1818 H   0  0  0  0  0  0  0  0  0  0  0  0
   18.0546  -22.5692   46.5565 H   0  0  0  0  0  0  0  0  0  0  0  0
   21.6314  -21.6468   46.9265 H   0  0  0  0  0  0  0  0  0  0  0  0
   23.1128  -22.6759   48.6419 H   0  0  0  0  0  0  0  0  0  0  0  0
   22.3068  -24.6126   49.9922 H   0  0  0  0  0  0  0  0  0  0  0  0
   20.0179  -25.5271   49.6122 H   0  0  0  0  0  0  0  0  0  0  0  0
   18.5313  -24.5022   47.8964 H   0  0  0  0  0  0  0  0  0  0  0  0
  1  2  1  0
  2  3  2  0
  3  4  1  0
  4  5  1  0
  5  6  1  0
  6  7  1  0
  7  8  2  0
  8  9  1  0
  9 10  2  0
 10 11  1  0
 11 12  1  0
 11 13  2  0
 13 14  1  0
 14 15  2  0
 14 16  1  0
 16 17  1  0
  4 18  2  0
 18 19  1  0
 19 20  2  0
 20 21  1  0
 21 22  1  0
 22 23  2  0
 23 24  1  0
 24 25  2  0
 25 26  1  0
 26 27  2  0
 20  2  1  0
 27 22  1  0
 16  5  2  0
 13  7  1  0
  1 28  1  0
  1 29  1  0
  1 30  1  0
  3 31  1  0
  8 32  1  0
  9 33  1  0
 10 34  1  0
 12 35  1  0
 17 36  1  0
 18 37  1  0
 19 38  1  0
 21 39  1  0
 21 40  1  0
 23 41  1  0
 24 42  1  0
 25 43  1  0
 26 44  1  0
 27 45  1  0
M  END
>  <meeko>  (5) 
{"is_sidechain": [false], "free_energy": -8.317, "intermolecular_energy": -9.429, "internal_energy": -0.379}

$$$$
cand_002_out
     RDKit          3D

 45 48  0  0  0  0  0  0  0  0999 V2000
   19.9940  -23.6490   41.1570 C   0  0  0  0  0  0  0  0  0  0  0  0
   19.6410  -24.9770   40.5470 C   0  0  0  0  0  0  0  0  0  0  0  0
   19.2430  -25.0130   39.1970 C   0  0  0  0  0  0  0  0  0  0  0  0
   18.8840  -26.2110   38.5620 C   0  0  0  0  0  0  0  0  0  0  0  0
   18.4510  -26.1950   37.1480 C   0  0  0  0  0  0  0  0  0  0  0  0
   17.2120  -25.5930   36.9700 O   0  0  0  0  0  0  0  0  0  0  0  0
   16.6890  -25.5090   35.7040 C   0  0  0  0  0  0  0  0  0  0  0  0
   15.4370  -24.9090   35.5740 C   0  0  0  0  0  0  0  0  0  0  0  0
   14.8490  -24.7920   34.3130 C   0  0  0  0  0  0  0  0  0  0  0  0
   15.5130  -25.2730   33.1830 C   0  0  0  0  0  0  0  0  0  0  0  0
   16.7630  -25.8710   33.3160 C   0  0  0  0  0  0  0  0  0  0  0  0
   17.3580  -26.3210   32.1680 O   0  0  0  0  0  0  0  0  0  0  0  0
   17.3510  -25.9900   34.5780 C   0  0  0  0  0  0  0  0  0  0  0  0
   18.6630  -26.6120   34.7620 C   0  0  0  0  0  0  0  0  0  0  0  0
   19.3120  -27.0530   33.8160 O   0  0  0  0  0  0  0  0  0  0  0  0
   19.1940  -26.6950   36.1420 C   0  0  0  0  0  0  0  0  0  0  0  0
   20.4400  -27.2720   36.3030 O   0  0  0  0  0  0  0  0  0  0  0  0
   18.9080  -27.3910   39.3110 C   0  0  0  0  0  0  0  0  0  0  0  0
   19.2880  -27.3730   40.6540 C   0  0  0  0  0  0  0  0  0  0  0  0
   19.6550  -26.1750   41.2910 C   0  0  0  0  0  0  0  0  0  0  0  0
   20.0480  -26.2240   42.7570 C   0  0  0  0  0  0  0  0  0  0  0  0
   21.3930  -26.8560   43.0440 C   0  0  0  0  0  0  0  0  0  0  0  0
   22.0140  -26.6540   44.2860 C   0  0  0  0  0  0  0  0  0  0  0  0
   23.2660  -27.2100   44.5550 C   0  0  0  0  0  0  0  0  0  0  0  0
   23.9170  -27.9680   43.5840 C   0  0  0  0  0  0  0  0  0  0  0  0
   23.3180  -28.1660   42.3420 C   0  0  0  0  0  0  0  0  0  0  0  0
   22.0660  -27.6100   42.0710 C   0  0  0  0  0  0  0  0  0  0  0  0
   19.9720  -23.7318   42.2537 H   0  0  0  0  0  0  0  0  0  0  0  0
   21.0021  -23.3525   40.8318 H   0  0  0  0  0  0  0  0  0  0  0  0
   19.2661  -22.8911   40.8318 H   0  0  0  0  0  0  0  0  0  0  0  0
   19.2127  -24.0746   38.6238 H   0  0  0  0  0  0  0  0  0  0  0  0
   14.9134  -24.5285   36.4634 H   0  0  0  0  0  0  0  0  0  0  0  0
   13.8608  -24.3200   34.2097 H   0  0  0  0  0  0  0  0  0  0  0  0
   15.0495  -25.1796   32.1898 H   0  0  0  0  0  0  0  0  0  0  0  0
   18.2700  -26.1650   32.0220 H   0  0  0  0  0  0  0  0  0  0  0  0
   20.7030  -27.9830   35.7500 H   0  0  0  0  0  0  0  0  0  0  0  0
   18.6248  -28.3427   38.8376 H   0  0  0  0  0  0  0  0  0  0  0  0
   19.3005  -28.3136   41.2243 H   0  0  0  0  0  0  0  0  0  0  0  0
   20.0687  -25.1924   43.1382 H   0  0  0  0  0  0  0  0  0  0  0  0
   19.3001  -26.8610   43.2519 H   0  0  0  0  0  0  0  0  0  0  0  0
   21.5092  -26.0514   45.0555 H   0  0  0  0  0  0  0  0  0  0  0  0
   23.7392  -27.0494   45.5350 H   0  0  0  0  0  0  0  0  0  0  0  0
   24.9018  -28.4091   43.7976 H   0  0  0  0  0  0  0  0  0  0  0  0
   23.8322  -28.7615   41.5732 H   0  0  0  0  0  0  0  0  0  0  0  0
   21.6031  -27.7647   41.0852 H   0  0  0  0  0  0  0  0  0  0  0  0
  1  2  1  0
  2  3  2  0
  3  4  1  0
  4  5  1  0
  5  6  1  0
  6  7  1  0
  7  8  2  0
  8  9  1  0
  9 10  2  0
 10 11  1  0
 11 12  1  0
 11 13  2  0
 13 14  1  0
 14 15  2  0
 14 16  1  0
 16 17  1  0
  4 18  2  0
 18 19  1  0
 19 20  2  0
 20 21  1  0
 21 22  1  0
 22 23  2  0
 23 24  1  0
 24 25  2  0
 25 26  1  0
 26 27  2  0
 20  2  1  0
 27 22  1  0
 16  5  2  0
 13  7  1  0
  1 28  1  0
  1 29  1  0
  1 30  1  0
  3 31  1  0
  8 32  1  0
  9 33  1  0
 10 34  1  0
 12 35  1  0
 17 36  1  0
 18 37  1  0
 19 38  1  0
 21 39  1  0
 21 40  1  0
 23 41  1  0
 24 42  1  0
 25 43  1  0
 26 44  1  0
 27 45  1  0
M  END
>  <meeko>  (6) 
{"is_sidechain": [false], "free_energy": -8.298, "intermolecular_energy": -9.202, "internal_energy": -0.582}

$$$$
cand_002_out
     RDKit          3D

 45 48  0  0  0  0  0  0  0  0999 V2000
   21.9070  -27.4710   43.0550 C   0  0  0  0  0  0  0  0  0  0  0  0
   20.8490  -26.9330   42.1320 C   0  0  0  0  0  0  0  0  0  0  0  0
   20.7630  -27.4590   40.8290 C   0  0  0  0  0  0  0  0  0  0  0  0
   19.8130  -26.9970   39.9050 C   0  0  0  0  0  0  0  0  0  0  0  0
   19.7760  -27.5640   38.5400 C   0  0  0  0  0  0  0  0  0  0  0  0
   19.8990  -28.9480   38.5270 O   0  0  0  0  0  0  0  0  0  0  0  0
   19.8800  -29.6050   37.3230 C   0  0  0  0  0  0  0  0  0  0  0  0
   20.0220  -30.9930   37.3560 C   0  0  0  0  0  0  0  0  0  0  0  0
   20.0100  -31.7230   36.1660 C   0  0  0  0  0  0  0  0  0  0  0  0
   19.8560  -31.0650   34.9440 C   0  0  0  0  0  0  0  0  0  0  0  0
   19.7150  -29.6810   34.9140 C   0  0  0  0  0  0  0  0  0  0  0  0
   19.5680  -29.1010   33.6820 O   0  0  0  0  0  0  0  0  0  0  0  0
   19.7290  -28.9510   36.1050 C   0  0  0  0  0  0  0  0  0  0  0  0
   19.5830  -27.4950   36.1180 C   0  0  0  0  0  0  0  0  0  0  0  0
   19.4380  -26.8460   35.0840 O   0  0  0  0  0  0  0  0  0  0  0  0
   19.6180  -26.8140   37.4330 C   0  0  0  0  0  0  0  0  0  0  0  0
   19.4670  -25.4390   37.4340 O   0  0  0  0  0  0  0  0  0  0  0  0
   18.9490  -25.9720   40.3000 C   0  0  0  0  0  0  0  0  0  0  0  0
   19.0270  -25.4300   41.5850 C   0  0  0  0  0  0  0  0  0  0  0  0
   19.9740  -25.8960   42.5140 C   0  0  0  0  0  0  0  0  0  0  0  0
   20.0130  -25.2560   43.8910 C   0  0  0  0  0  0  0  0  0  0  0  0
   19.5730  -23.8090   43.9430 C   0  0  0  0  0  0  0  0  0  0  0  0
   20.4000  -22.8040   43.4200 C   0  0  0  0  0  0  0  0  0  0  0  0
   20.0190  -21.4630   43.4840 C   0  0  0  0  0  0  0  0  0  0  0  0
   18.8090  -21.1080   44.0790 C   0  0  0  0  0  0  0  0  0  0  0  0
   17.9840  -22.0950   44.6140 C   0  0  0  0  0  0  0  0  0  0  0  0
   18.3650  -23.4370   44.5510 C   0  0  0  0  0  0  0  0  0  0  0  0
   21.5975  -27.3136   44.0988 H   0  0  0  0  0  0  0  0  0  0  0  0
   22.0416  -28.5471   42.8707 H   0  0  0  0  0  0  0  0  0  0  0  0
   22.8559  -26.9459   42.8707 H   0  0  0  0  0  0  0  0  0  0  0  0
   21.4600  -28.2545   40.5266 H   0  0  0  0  0  0  0  0  0  0  0  0
   20.1433  -31.5113   38.3186 H   0  0  0  0  0  0  0  0  0  0  0  0
   20.1219  -32.8170   36.1910 H   0  0  0  0  0  0  0  0  0  0  0  0
   19.8462  -31.6400   34.0063 H   0  0  0  0  0  0  0  0  0  0  0  0
   19.6950  -29.6110   32.9070 H   0  0  0  0  0  0  0  0  0  0  0  0
   20.0950  -24.8980   36.9970 H   0  0  0  0  0  0  0  0  0  0  0  0
   18.1999  -25.5882   39.5918 H   0  0  0  0  0  0  0  0  0  0  0  0
   18.3358  -24.6249   41.8751 H   0  0  0  0  0  0  0  0  0  0  0  0
   19.3543  -25.8358   44.5543 H   0  0  0  0  0  0  0  0  0  0  0  0
   21.0683  -25.2649   44.2014 H   0  0  0  0  0  0  0  0  0  0  0  0
   21.3589  -23.0757   42.9545 H   0  0  0  0  0  0  0  0  0  0  0  0
   20.6740  -20.6852   43.0646 H   0  0  0  0  0  0  0  0  0  0  0  0
   18.5066  -20.0514   44.1259 H   0  0  0  0  0  0  0  0  0  0  0  0
   17.0307  -21.8166   45.0869 H   0  0  0  0  0  0  0  0  0  0  0  0
   17.7116  -24.2097   44.9823 H   0  0  0  0  0  0  0  0  0  0  0  0
  1  2  1  0
  2  3  2  0
  3  4  1  0
  4  5  1  0
  5  6  1  0
  6  7  1  0
  7  8  2  0
  8  9  1  0
  9 10  2  0
 10 11  1  0
 11 12  1  0
 11 13  2  0
 13 14  1  0
 14 15  2  0
 14 16  1  0
 16 17  1  0
  4 18  2  0
 18 19  1  0
 19 20  2  0
 20 21  1  0
 21 22  1  0
 22 23  2  0
 23 24  1  0
 24 25  2  0
 25 26  1  0
 26 27  2  0
 20  2  1  0
 27 22  1  0
 16  5  2  0
 13  7  1  0
  1 28  1  0
  1 29  1  0
  1 30  1  0
  3 31  1  0
  8 32  1  0
  9 33  1  0
 10 34  1  0
 12 35  1  0
 17 36  1  0
 18 37  1  0
 19 38  1  0
 21 39  1  0
 21 40  1  0
 23 41  1  0
 24 42  1  0
 25 43  1  0
 26 44  1  0
 27 45  1  0
M  END
>  <meeko>  (7) 
{"is_sidechain": [false], "free_energy": -8.179, "intermolecular_energy": -9.139, "internal_energy": -0.499}

$$$$
cand_002_out
     RDKit          3D

 45 48  0  0  0  0  0  0  0  0999 V2000
   17.5320  -22.5560   46.2290 C   0  0  0  0  0  0  0  0  0  0  0  0
   18.6810  -23.3460   45.6650 C   0  0  0  0  0  0  0  0  0  0  0  0
   18.6910  -23.6250   44.2850 C   0  0  0  0  0  0  0  0  0  0  0  0
   19.7210  -24.3690   43.6890 C   0  0  0  0  0  0  0  0  0  0  0  0
   19.6770  -24.6550   42.2390 C   0  0  0  0  0  0  0  0  0  0  0  0
   19.6260  -26.0160   41.9580 O   0  0  0  0  0  0  0  0  0  0  0  0
   19.5810  -26.4230   40.6490 C   0  0  0  0  0  0  0  0  0  0  0  0
   19.5440  -27.7980   40.4140 C   0  0  0  0  0  0  0  0  0  0  0  0
   19.4970  -28.2790   39.1040 C   0  0  0  0  0  0  0  0  0  0  0  0
   19.4860  -27.3870   38.0310 C   0  0  0  0  0  0  0  0  0  0  0  0
   19.5230  -26.0150   38.2680 C   0  0  0  0  0  0  0  0  0  0  0  0
   19.5090  -25.1980   37.1710 O   0  0  0  0  0  0  0  0  0  0  0  0
   19.5720  -25.5340   39.5790 C   0  0  0  0  0  0  0  0  0  0  0  0
   19.6110  -24.1010   39.8730 C   0  0  0  0  0  0  0  0  0  0  0  0
   19.5980  -23.2530   38.9820 O   0  0  0  0  0  0  0  0  0  0  0  0
   19.6690  -23.6940   41.2960 C   0  0  0  0  0  0  0  0  0  0  0  0
   19.6920  -22.3370   41.5620 O   0  0  0  0  0  0  0  0  0  0  0  0
   20.7440  -24.8570   44.5050 C   0  0  0  0  0  0  0  0  0  0  0  0
   20.7440  -24.6000   45.8780 C   0  0  0  0  0  0  0  0  0  0  0  0
   19.7170  -23.8490   46.4770 C   0  0  0  0  0  0  0  0  0  0  0  0
   19.7720  -23.6160   47.9770 C   0  0  0  0  0  0  0  0  0  0  0  0
   21.0670  -23.0280   48.4930 C   0  0  0  0  0  0  0  0  0  0  0  0
   21.5090  -21.7810   48.0260 C   0  0  0  0  0  0  0  0  0  0  0  0
   22.7140  -21.2390   48.4740 C   0  0  0  0  0  0  0  0  0  0  0  0
   23.4980  -21.9390   49.3880 C   0  0  0  0  0  0  0  0  0  0  0  0
   23.0790  -23.1860   49.8500 C   0  0  0  0  0  0  0  0  0  0  0  0
   21.8730  -23.7290   49.4020 C   0  0  0  0  0  0  0  0  0  0  0  0
   17.5723  -22.5837   47.3279 H   0  0  0  0  0  0  0  0  0  0  0  0
   17.6005  -21.5132   45.8858 H   0  0  0  0  0  0  0  0  0  0  0  0
   16.5828  -22.9933   45.8858 H   0  0  0  0  0  0  0  0  0  0  0  0
   17.8694  -23.2498   43.6571 H   0  0  0  0  0  0  0  0  0  0  0  0
   19.5518  -28.5018   41.2594 H   0  0  0  0  0  0  0  0  0  0  0  0
   19.4686  -29.3627   38.9176 H   0  0  0  0  0  0  0  0  0  0  0  0
   19.4482  -27.7669   36.9994 H   0  0  0  0  0  0  0  0  0  0  0  0
   18.7110  -24.7890   36.9010 H   0  0  0  0  0  0  0  0  0  0  0  0
   18.9390  -21.9190   41.9310 H   0  0  0  0  0  0  0  0  0  0  0  0
   21.5579  -25.4497   44.0620 H   0  0  0  0  0  0  0  0  0  0  0  0
   21.5613  -24.9918   46.5013 H   0  0  0  0  0  0  0  0  0  0  0  0
   18.9562  -22.9282   48.2442 H   0  0  0  0  0  0  0  0  0  0  0  0
   19.6819  -24.6086   48.4425 H   0  0  0  0  0  0  0  0  0  0  0  0
   20.8990  -21.2248   47.2990 H   0  0  0  0  0  0  0  0  0  0  0  0
   23.0454  -20.2573   48.1048 H   0  0  0  0  0  0  0  0  0  0  0  0
   24.4456  -21.5090   49.7445 H   0  0  0  0  0  0  0  0  0  0  0  0
   23.6991  -23.7426   50.5681 H   0  0  0  0  0  0  0  0  0  0  0  0
   21.5519  -24.7163   49.7656 H   0  0  0  0  0  0  0  0  0  0  0  0
  1  2  1  0
  2  3  2  0
  3  4  1  0
  4  5  1  0
  5  6  1  0
  6  7  1  0
  7  8  2  0
  8  9  1  0
  9 10  2  0
 10 11  1  0
 11 12  1  0
 11 13  2  0
 13 14  1  0
 14 15  2  0
 14 16  1  0
 16 17  1  0
  4 18  2  0
 18 19  1  0
 19 20  2  0
 20 21  1  0
 21 22  1  0
 22 23  2  0
 23 24  1  0
 24 25  2  0
 25 26  1  0
 26 27  2  0
 20  2  1  0
 27 22  1  0
 16  5  2  0
 13  7  1  0
  1 28  1  0
  1 29  1  0
  1 30  1  0
  3 31  1  0
  8 32  1  0
  9 33  1  0
 10 34  1  0
 12 35  1  0
 17 36  1  0
 18 37  1  0
 19 38  1  0
 21 39  1  0
 21 40  1  0
 23 41  1  0
 24 42  1  0
 25 43  1  0
 26 44  1  0
 27 45  1  0
M  END
>  <meeko>  (8) 
{"is_sidechain": [false], "free_energy": -8.112, "intermolecular_energy": -8.758, "internal_energy": -0.797}

$$$$
cand_002_out
     RDKit          3D

 45 48  0  0  0  0  0  0  0  0999 V2000
   22.8410  -28.1840   42.4820 C   0  0  0  0  0  0  0  0  0  0  0  0
   21.7230  -27.1910   42.6490 C   0  0  0  0  0  0  0  0  0  0  0  0
   21.7960  -26.2680   43.7100 C   0  0  0  0  0  0  0  0  0  0  0  0
   20.7850  -25.3230   43.9400 C   0  0  0  0  0  0  0  0  0  0  0  0
   20.8960  -24.3880   45.0810 C   0  0  0  0  0  0  0  0  0  0  0  0
   20.6260  -24.9940   46.3020 O   0  0  0  0  0  0  0  0  0  0  0  0
   20.6930  -24.2400   47.4460 C   0  0  0  0  0  0  0  0  0  0  0  0
   20.4020  -24.8850   48.6480 C   0  0  0  0  0  0  0  0  0  0  0  0
   20.4520  -24.1750   49.8500 C   0  0  0  0  0  0  0  0  0  0  0  0
   20.7960  -22.8220   49.8490 C   0  0  0  0  0  0  0  0  0  0  0  0
   21.0870  -22.1810   48.6480 C   0  0  0  0  0  0  0  0  0  0  0  0
   21.4160  -20.8540   48.7200 O   0  0  0  0  0  0  0  0  0  0  0  0
   21.0340  -22.8910   47.4460 C   0  0  0  0  0  0  0  0  0  0  0  0
   21.3330  -22.2550   46.1620 C   0  0  0  0  0  0  0  0  0  0  0  0
   21.6490  -21.0700   46.0800 O   0  0  0  0  0  0  0  0  0  0  0  0
   21.2420  -23.0940   44.9450 C   0  0  0  0  0  0  0  0  0  0  0  0
   21.5390  -22.4870   43.7380 O   0  0  0  0  0  0  0  0  0  0  0  0
   19.6730  -25.3240   43.0950 C   0  0  0  0  0  0  0  0  0  0  0  0
   19.5770  -26.2400   42.0450 C   0  0  0  0  0  0  0  0  0  0  0  0
   20.5920  -27.1840   41.8080 C   0  0  0  0  0  0  0  0  0  0  0  0
   20.4200  -28.1580   40.6560 C   0  0  0  0  0  0  0  0  0  0  0  0
   19.7940  -27.5770   39.4070 C   0  0  0  0  0  0  0  0  0  0  0  0
   18.5910  -28.1030   38.9130 C   0  0  0  0  0  0  0  0  0  0  0  0
   18.0150  -27.5940   37.7480 C   0  0  0  0  0  0  0  0  0  0  0  0
   18.6390  -26.5570   37.0570 C   0  0  0  0  0  0  0  0  0  0  0  0
   19.8410  -26.0340   37.5280 C   0  0  0  0  0  0  0  0  0  0  0  0
   20.4180  -26.5430   38.6930 C   0  0  0  0  0  0  0  0  0  0  0  0
   23.1995  -28.5024   43.4720 H   0  0  0  0  0  0  0  0  0  0  0  0
   22.4740  -29.0593   41.9260 H   0  0  0  0  0  0  0  0  0  0  0  0
   23.6669  -27.7163   41.9260 H   0  0  0  0  0  0  0  0  0  0  0  0
   22.6703  -26.2886   44.3772 H   0  0  0  0  0  0  0  0  0  0  0  0
   20.1334  -25.9517   48.6494 H   0  0  0  0  0  0  0  0  0  0  0  0
   20.2201  -24.6824   50.7980 H   0  0  0  0  0  0  0  0  0  0  0  0
   20.8370  -22.2633   50.7957 H   0  0  0  0  0  0  0  0  0  0  0  0
   22.2920  -20.6000   48.9320 H   0  0  0  0  0  0  0  0  0  0  0  0
   20.9800  -21.8130   43.4030 H   0  0  0  0  0  0  0  0  0  0  0  0
   18.8646  -24.5960   43.2581 H   0  0  0  0  0  0  0  0  0  0  0  0
   18.6920  -26.2227   41.3920 H   0  0  0  0  0  0  0  0  0  0  0  0
   21.4135  -28.5474   40.3888 H   0  0  0  0  0  0  0  0  0  0  0  0
   19.7250  -28.9323   41.0131 H   0  0  0  0  0  0  0  0  0  0  0  0
   18.0961  -28.9258   39.4498 H   0  0  0  0  0  0  0  0  0  0  0  0
   17.0681  -28.0115   37.3751 H   0  0  0  0  0  0  0  0  0  0  0  0
   18.1831  -26.1523   36.1414 H   0  0  0  0  0  0  0  0  0  0  0  0
   20.3366  -25.2184   36.9810 H   0  0  0  0  0  0  0  0  0  0  0  0
   21.3710  -26.1294   39.0545 H   0  0  0  0  0  0  0  0  0  0  0  0
  1  2  1  0
  2  3  2  0
  3  4  1  0
  4  5  1  0
  5  6  1  0
  6  7  1  0
  7  8  2  0
  8  9  1  0
  9 10  2  0
 10 11  1  0
 11 12  1  0
 11 13  2  0
 13 14  1  0
 14 15  2  0
 14 16  1  0
 16 17  1  0
  4 18  2  0
 18 19  1  0
 19 20  2  0
 20 21  1  0
 21 22  1  0
 22 23  2  0
 23 24  1  0
 24 25  2  0
 25 26  1  0
 26 27  2  0
 20  2  1  0
 27 22  1  0
 16  5  2  0
 13  7  1  0
  1 28  1  0
  1 29  1  0
  1 30  1  0
  3 31  1  0
  8 32  1  0
  9 33  1  0
 10 34  1  0
 12 35  1  0
 17 36  1  0
 18 37  1  0
 19 38  1  0
 21 39  1  0
 21 40  1  0
 23 41  1  0
 24 42  1  0
 25 43  1  0
 26 44  1  0
 27 45  1  0
M  END
>  <meeko>  (9) 
{"is_sidechain": [false], "free_energy": -8.044, "intermolecular_energy": -8.62, "internal_energy": -0.85}

$$$$
