cand_023_out
     RDKit          3D

 47 50  0  0  0  0  0  0  0  0999 V2000
   21.7890  -27.5250   41.7280 C   0  0  0  0  0  0  0  0  0  0  0  0
   20.6460  -27.7510   40.7750 C   0  0  0  0  0  0  0  0  0  0  0  0
   20.5330  -28.9850   40.1100 C   0  0  0  0  0  0  0  0  0  0  0  0
   19.4810  -29.2420   39.2180 C   0  0  0  0  0  0  0  0  0  0  0  0
   19.4100  -30.5410   38.5160 C   0  0  0  0  0  0  0  0  0  0  0  0
   19.0240  -31.5850   39.3500 O   0  0  0  0  0  0  0  0  0  0  0  0
   18.9160  -32.8470   38.8270 C   0  0  0  0  0  0  0  0  0  0  0  0
   18.5400  -33.8660   39.7030 C   0  0  0  0  0  0  0  0  0  0  0  0
   18.4090  -35.1750   39.2340 C   0  0  0  0  0  0  0  0  0  0  0  0
   18.6560  -35.4660   37.8910 C   0  0  0  0  0  0  0  0  0  0  0  0
   19.0320  -34.4470   37.0190 C   0  0  0  0  0  0  0  0  0  0  0  0
   19.2580  -34.8010   35.7170 O   0  0  0  0  0  0  0  0  0  0  0  0
   19.1630  -33.1370   37.4880 C   0  0  0  0  0  0  0  0  0  0  0  0
   19.5550  -32.0370   36.6060 C   0  0  0  0  0  0  0  0  0  0  0  0
   19.7820  -32.2120   35.4100 O   0  0  0  0  0  0  0  0  0  0  0  0
   19.6710  -30.6880   37.2040 C   0  0  0  0  0  0  0  0  0  0  0  0
   20.0300  -29.6540   36.3570 O   0  0  0  0  0  0  0  0  0  0  0  0
   18.5440  -28.2290   38.9880 C   0  0  0  0  0  0  0  0  0  0  0  0
   18.6460  -26.9990   39.6460 C   0  0  0  0  0  0  0  0  0  0  0  0
   19.6940  -26.7400   40.5430 C   0  0  0  0  0  0  0  0  0  0  0  0
   19.8110  -25.5120   41.2300 N   0  0  0  0  0  0  0  0  0  0  0  0
   19.2800  -24.3650   40.4760 C   0  0  0  0  0  0  0  0  0  0  0  0
   19.6680  -23.0740   41.1970 C   0  0  0  0  0  0  0  0  0  0  0  0
   19.1870  -23.0870   42.6470 C   0  0  0  0  0  0  0  0  0  0  0  0
   19.6700  -24.3420   43.3720 C   0  0  0  0  0  0  0  0  0  0  0  0
   19.2910  -25.6080   42.6030 C   0  0  0  0  0  0  0  0  0  0  0  0
   21.4233  -27.5973   42.7629 H   0  0  0  0  0  0  0  0  0  0  0  0
   22.5637  -28.2874   41.5588 H   0  0  0  0  0  0  0  0  0  0  0  0
   22.2153  -26.5252   41.5588 H   0  0  0  0  0  0  0  0  0  0  0  0
   21.2859  -29.7658   40.2932 H   0  0  0  0  0  0  0  0  0  0  0  0
   18.3470  -33.6386   40.7618 H   0  0  0  0  0  0  0  0  0  0  0  0
   18.1107  -35.9781   39.9239 H   0  0  0  0  0  0  0  0  0  0  0  0
   18.5539  -36.4974   37.5225 H   0  0  0  0  0  0  0  0  0  0  0  0
   19.5520  -35.6650   35.5100 H   0  0  0  0  0  0  0  0  0  0  0  0
   19.3940  -29.0130   36.1060 H   0  0  0  0  0  0  0  0  0  0  0  0
   17.7182  -28.4017   38.2821 H   0  0  0  0  0  0  0  0  0  0  0  0
   17.8916  -26.2210   39.4572 H   0  0  0  0  0  0  0  0  0  0  0  0
   19.7040  -24.3625   39.4610 H   0  0  0  0  0  0  0  0  0  0  0  0
   18.1845  -24.4389   40.4089 H   0  0  0  0  0  0  0  0  0  0  0  0
   20.7630  -22.9699   41.1828 H   0  0  0  0  0  0  0  0  0  0  0  0
   19.1921  -22.2283   40.6790 H   0  0  0  0  0  0  0  0  0  0  0  0
   19.5794  -22.1991   43.1643 H   0  0  0  0  0  0  0  0  0  0  0  0
   18.0870  -23.0806   42.6518 H   0  0  0  0  0  0  0  0  0  0  0  0
   20.7644  -24.2984   43.4734 H   0  0  0  0  0  0  0  0  0  0  0  0
   19.1888  -24.3789   44.3605 H   0  0  0  0  0  0  0  0  0  0  0  0
   19.7274  -26.4861   43.1015 H   0  0  0  0  0  0  0  0  0  0  0  0
   18.1962  -25.7122   42.5779 H   0  0  0  0  0  0  0  0  0  0  0  0
  1  2  1  0
  2  3  2  0
  3  4  1  0
  4  5  1  0
  5  6  1  0
  6  7  1  0
  7  8  2  0
  8  9  1  0
  9 10  2  0
 10 11  1  0
 11 12  1  0
 11 13  2  0
 13 14  1  0
 14 15  2  0
 14 16  1  0
 16 17  1  0
  4 18  2  0
 18 19  1  0
 19 20  2  0
 20 21  1  0
 21 22  1  0
 22 23  1  0
 23 24  1  0
 24 25  1  0
 25 26  1  0
 20  2  1  0
 26 21  1  0
 16  5  2  0
 13  7  1  0
  1 27  1  0
  1 28  1  0
  1 29  1  0
  3 30  1  0
  8 31  1  0
  9 32  1  0
 10 33  1  0
 12 34  1  0
 17 35  1  0
 18 36  1  0
 19 37  1  0
 22 38  1  0
 22 39  1  0
 23 40  1  0
 23 41  1  0
 24 42  1  0
 24 43  1  0
 25 44  1  0
 25 45  1  0
 26 46  1  0
 26 47  1  0
M  END
>  <meeko>  (1) 
{"is_sidechain": [false], "free_energy": -8.273, "intermolecular_energy": -9.724, "internal_energy": -0.407}

$$$$
cand_023_out
     RDKit          3D

 47 50  0  0  0  0  0  0  0  0999 V2000
   19.7830  -29.7380   33.8610 C   0  0  0  0  0  0  0  0  0  0  0  0
   19.6980  -30.1560   35.3050 C   0  0  0  0  0  0  0  0  0  0  0  0
   19.5420  -29.1750   36.3020 C   0  0  0  0  0  0  0  0  0  0  0  0
   19.4540  -29.5190   37.6590 C   0  0  0  0  0  0  0  0  0  0  0  0
   19.3180  -28.4600   38.6800 C   0  0  0  0  0  0  0  0  0  0  0  0
   20.2630  -28.5620   39.6940 O   0  0  0  0  0  0  0  0  0  0  0  0
   20.2530  -27.6400   40.7080 C   0  0  0  0  0  0  0  0  0  0  0  0
   21.2110  -27.7890   41.7120 C   0  0  0  0  0  0  0  0  0  0  0  0
   21.2570  -26.8820   42.7720 C   0  0  0  0  0  0  0  0  0  0  0  0
   20.3450  -25.8260   42.8300 C   0  0  0  0  0  0  0  0  0  0  0  0
   19.3900  -25.6790   41.8280 C   0  0  0  0  0  0  0  0  0  0  0  0
   18.5280  -24.6230   41.9460 O   0  0  0  0  0  0  0  0  0  0  0  0
   19.3440  -26.5870   40.7660 C   0  0  0  0  0  0  0  0  0  0  0  0
   18.3570  -26.4690   39.6920 C   0  0  0  0  0  0  0  0  0  0  0  0
   17.5260  -25.5630   39.6690 O   0  0  0  0  0  0  0  0  0  0  0  0
   18.3890  -27.4870   38.6170 C   0  0  0  0  0  0  0  0  0  0  0  0
   17.4600  -27.3570   37.6000 O   0  0  0  0  0  0  0  0  0  0  0  0
   19.5380  -30.8720   38.0070 C   0  0  0  0  0  0  0  0  0  0  0  0
   19.6900  -31.8550   37.0240 C   0  0  0  0  0  0  0  0  0  0  0  0
   19.7750  -31.5150   35.6650 C   0  0  0  0  0  0  0  0  0  0  0  0
   19.9140  -32.4890   34.6520 N   0  0  0  0  0  0  0  0  0  0  0  0
   21.0690  -32.2570   33.7710 C   0  0  0  0  0  0  0  0  0  0  0  0
   20.9890  -33.2170   32.5830 C   0  0  0  0  0  0  0  0  0  0  0  0
   20.9020  -34.6680   33.0540 C   0  0  0  0  0  0  0  0  0  0  0  0
   19.7560  -34.8520   34.0480 C   0  0  0  0  0  0  0  0  0  0  0  0
   19.8550  -33.8530   35.2010 C   0  0  0  0  0  0  0  0  0  0  0  0
   20.0019  -28.6616   33.8032 H   0  0  0  0  0  0  0  0  0  0  0  0
   20.5847  -30.3025   33.3625 H   0  0  0  0  0  0  0  0  0  0  0  0
   18.8245  -29.9446   33.3625 H   0  0  0  0  0  0  0  0  0  0  0  0
   19.4879  -28.1156   36.0108 H   0  0  0  0  0  0  0  0  0  0  0  0
   21.9294  -28.6208   41.6680 H   0  0  0  0  0  0  0  0  0  0  0  0
   22.0126  -26.9992   43.5627 H   0  0  0  0  0  0  0  0  0  0  0  0
   20.3812  -25.1118   43.6658 H   0  0  0  0  0  0  0  0  0  0  0  0
   18.1650  -24.2270   41.1780 H   0  0  0  0  0  0  0  0  0  0  0  0
   16.8720  -26.6280   37.5950 H   0  0  0  0  0  0  0  0  0  0  0  0
   19.4838  -31.1655   39.0657 H   0  0  0  0  0  0  0  0  0  0  0  0
   19.7439  -32.9128   37.3210 H   0  0  0  0  0  0  0  0  0  0  0  0
   21.0534  -31.2187   33.4080 H   0  0  0  0  0  0  0  0  0  0  0  0
   22.0019  -32.4306   34.3273 H   0  0  0  0  0  0  0  0  0  0  0  0
   20.0954  -32.9783   31.9876 H   0  0  0  0  0  0  0  0  0  0  0  0
   21.8996  -33.1001   31.9770 H   0  0  0  0  0  0  0  0  0  0  0  0
   20.7319  -35.3193   32.1840 H   0  0  0  0  0  0  0  0  0  0  0  0
   21.8458  -34.9320   33.5536 H   0  0  0  0  0  0  0  0  0  0  0  0
   18.8002  -34.7017   33.5247 H   0  0  0  0  0  0  0  0  0  0  0  0
   19.8166  -35.8688   34.4634 H   0  0  0  0  0  0  0  0  0  0  0  0
   18.9724  -33.9510   35.8502 H   0  0  0  0  0  0  0  0  0  0  0  0
   20.7618  -34.0552   35.7899 H   0  0  0  0  0  0  0  0  0  0  0  0
  1  2  1  0
  2  3  2  0
  3  4  1  0
  4  5  1  0
  5  6  1  0
  6  7  1  0
  7  8  2  0
  8  9  1  0
  9 10  2  0
 10 11  1  0
 11 12  1  0
 11 13  2  0
 13 14  1  0
 14 15  2  0
 14 16  1  0
 16 17  1  0
  4 18  2  0
 18 19  1  0
 19 20  2  0
 20 21  1  0
 21 22  1  0
 22 23  1  0
 23 24  1  0
 24 25  1  0
 25 26  1  0
 20  2  1  0
 26 21  1  0
 16  5  2  0
 13  7  1  0
  1 27  1  0
  1 28  1  0
  1 29  1  0
  3 30  1  0
  8 31  1  0
  9 32  1  0
 10 33  1  0
 12 34  1  0
 17 35  1  0
 18 36  1  0
 19 37  1  0
 22 38  1  0
 22 39  1  0
 23 40  1  0
 23 41  1  0
 24 42  1  0
 24 43  1  0
 25 44  1  0
 25 45  1  0
 26 46  1  0
 26 47  1  0
M  END
>  <meeko>  (2) 
{"is_sidechain": [false], "free_energy": -7.634, "intermolecular_energy": -9.719, "internal_energy": 0.338}

$$$$
cand_023_out
     RDKit          3D

 47 50  0  0  0  0  0  0  0  0999 V2000
   19.7360  -24.6990   37.3410 C   0  0  0  0  0  0  0  0  0  0  0  0
   19.7950  -26.0050   38.0880 C   0  0  0  0  0  0  0  0  0  0  0  0
   20.4860  -26.0720   39.3110 C   0  0  0  0  0  0  0  0  0  0  0  0
   20.5630  -27.2660   40.0440 C   0  0  0  0  0  0  0  0  0  0  0  0
   21.3220  -27.3050   41.3120 C   0  0  0  0  0  0  0  0  0  0  0  0
   22.3120  -28.2800   41.3200 O   0  0  0  0  0  0  0  0  0  0  0  0
   23.0940  -28.4250   42.4360 C   0  0  0  0  0  0  0  0  0  0  0  0
   24.0660  -29.4260   42.4050 C   0  0  0  0  0  0  0  0  0  0  0  0
   24.8970  -29.6240   43.5090 C   0  0  0  0  0  0  0  0  0  0  0  0
   24.7580  -28.8220   44.6440 C   0  0  0  0  0  0  0  0  0  0  0  0
   23.7870  -27.8240   44.6730 C   0  0  0  0  0  0  0  0  0  0  0  0
   23.7050  -27.0750   45.8150 O   0  0  0  0  0  0  0  0  0  0  0  0
   22.9550  -27.6260   43.5670 C   0  0  0  0  0  0  0  0  0  0  0  0
   21.9230  -26.5880   43.5560 C   0  0  0  0  0  0  0  0  0  0  0  0
   21.7430  -25.8390   44.5140 O   0  0  0  0  0  0  0  0  0  0  0  0
   21.0890  -26.4650   42.3380 C   0  0  0  0  0  0  0  0  0  0  0  0
   20.1260  -25.4720   42.3340 O   0  0  0  0  0  0  0  0  0  0  0  0
   19.9440  -28.4060   39.5210 C   0  0  0  0  0  0  0  0  0  0  0  0
   19.2520  -28.3500   38.3070 C   0  0  0  0  0  0  0  0  0  0  0  0
   19.1690  -27.1560   37.5730 C   0  0  0  0  0  0  0  0  0  0  0  0
   18.4650  -27.0700   36.3530 N   0  0  0  0  0  0  0  0  0  0  0  0
   18.8310  -28.1190   35.3890 C   0  0  0  0  0  0  0  0  0  0  0  0
   18.1960  -27.7960   34.0360 C   0  0  0  0  0  0  0  0  0  0  0  0
   16.6830  -27.6290   34.1640 C   0  0  0  0  0  0  0  0  0  0  0  0
   16.3350  -26.6070   35.2450 C   0  0  0  0  0  0  0  0  0  0  0  0
   17.0140  -26.9490   36.5720 C   0  0  0  0  0  0  0  0  0  0  0  0
   19.6984  -23.8670   38.0596 H   0  0  0  0  0  0  0  0  0  0  0  0
   20.6305  -24.5974   36.7089 H   0  0  0  0  0  0  0  0  0  0  0  0
   18.8360  -24.6785   36.7089 H   0  0  0  0  0  0  0  0  0  0  0  0
   20.9770  -25.1685   39.7016 H   0  0  0  0  0  0  0  0  0  0  0  0
   24.1771  -30.0582   41.5117 H   0  0  0  0  0  0  0  0  0  0  0  0
   25.6628  -30.4132   43.4850 H   0  0  0  0  0  0  0  0  0  0  0  0
   25.4140  -28.9783   45.5131 H   0  0  0  0  0  0  0  0  0  0  0  0
   22.8670  -26.8410   46.1620 H   0  0  0  0  0  0  0  0  0  0  0  0
   19.3520  -25.5690   42.8530 H   0  0  0  0  0  0  0  0  0  0  0  0
   20.0021  -29.3571   40.0706 H   0  0  0  0  0  0  0  0  0  0  0  0
   18.7643  -29.2571   37.9205 H   0  0  0  0  0  0  0  0  0  0  0  0
   19.9252  -28.1569   35.2831 H   0  0  0  0  0  0  0  0  0  0  0  0
   18.4686  -29.0943   35.7460 H   0  0  0  0  0  0  0  0  0  0  0  0
   18.6291  -26.8615   33.6499 H   0  0  0  0  0  0  0  0  0  0  0  0
   18.3983  -28.6296   33.3474 H   0  0  0  0  0  0  0  0  0  0  0  0
   16.2760  -27.2869   33.2010 H   0  0  0  0  0  0  0  0  0  0  0  0
   16.2456  -28.5986   34.4443 H   0  0  0  0  0  0  0  0  0  0  0  0
   16.6690  -25.6114   34.9177 H   0  0  0  0  0  0  0  0  0  0  0  0
   15.2458  -26.6210   35.3984 H   0  0  0  0  0  0  0  0  0  0  0  0
   16.8170  -26.1511   37.3031 H   0  0  0  0  0  0  0  0  0  0  0  0
   16.6167  -27.8994   36.9577 H   0  0  0  0  0  0  0  0  0  0  0  0
  1  2  1  0
  2  3  2  0
  3  4  1  0
  4  5  1  0
  5  6  1  0
  6  7  1  0
  7  8  2  0
  8  9  1  0
  9 10  2  0
 10 11  1  0
 11 12  1  0
 11 13  2  0
 13 14  1  0
 14 15  2  0
 14 16  1  0
 16 17  1  0
  4 18  2  0
 18 19  1  0
 19 20  2  0
 20 21  1  0
 21 22  1  0
 22 23  1  0
 23 24  1  0
 24 25  1  0
 25 26  1  0
 20  2  1  0
 26 21  1  0
 16  5  2  0
 13  7  1  0
  1 27  1  0
  1 28  1  0
  1 29  1  0
  3 30  1  0
  8 31  1  0
  9 32  1  0
 10 33  1  0
 12 34  1  0
 17 35  1  0
 18 36  1  0
 19 37  1  0
 22 38  1  0
 22 39  1  0
 23 40  1  0
 23 41  1  0
 24 42  1  0
 24 43  1  0
 25 44  1  0
 25 45  1  0
 26 46  1  0
 26 47  1  0
M  END
>  <meeko>  (3) 
{"is_sidechain": [false], "free_energy": -7.567, "intermolecular_energy": -8.841, "internal_energy": -0.46}

$$$$
cand_023_out
     RDKit          3D

 47 50  0  0  0  0  0  0  0  0999 V2000
   20.1050  -21.7400   42.8580 C   0  0  0  0  0  0  0  0  0  0  0  0
   19.8990  -23.1760   42.4560 C   0  0  0  0  0  0  0  0  0  0  0  0
   19.6890  -23.4930   41.1010 C   0  0  0  0  0  0  0  0  0  0  0  0
   19.4970  -24.8170   40.6800 C   0  0  0  0  0  0  0  0  0  0  0  0
   19.2520  -25.1080   39.2520 C   0  0  0  0  0  0  0  0  0  0  0  0
   18.1260  -24.4610   38.7540 O   0  0  0  0  0  0  0  0  0  0  0  0
   17.7830  -24.6420   37.4400 C   0  0  0  0  0  0  0  0  0  0  0  0
   16.6380  -23.9840   36.9870 C   0  0  0  0  0  0  0  0  0  0  0  0
   16.2340  -24.1250   35.6580 C   0  0  0  0  0  0  0  0  0  0  0  0
   16.9740  -24.9220   34.7810 C   0  0  0  0  0  0  0  0  0  0  0  0
   18.1150  -25.5770   35.2360 C   0  0  0  0  0  0  0  0  0  0  0  0
   18.7930  -26.3410   34.3250 O   0  0  0  0  0  0  0  0  0  0  0  0
   18.5190  -25.4370   36.5660 C   0  0  0  0  0  0  0  0  0  0  0  0
   19.7130  -26.1070   37.0840 C   0  0  0  0  0  0  0  0  0  0  0  0
   20.4190  -26.8200   36.3730 O   0  0  0  0  0  0  0  0  0  0  0  0
   20.0510  -25.8990   38.5110 C   0  0  0  0  0  0  0  0  0  0  0  0
   21.1880  -26.5270   38.9860 O   0  0  0  0  0  0  0  0  0  0  0  0
   19.5040  -25.8280   41.6470 C   0  0  0  0  0  0  0  0  0  0  0  0
   19.7150  -25.5250   42.9960 C   0  0  0  0  0  0  0  0  0  0  0  0
   19.9110  -24.2020   43.4210 C   0  0  0  0  0  0  0  0  0  0  0  0
   20.1400  -23.8710   44.7740 N   0  0  0  0  0  0  0  0  0  0  0  0
   18.9210  -23.8950   45.5980 C   0  0  0  0  0  0  0  0  0  0  0  0
   19.2350  -23.2980   46.9700 C   0  0  0  0  0  0  0  0  0  0  0  0
   20.3990  -24.0310   47.6350 C   0  0  0  0  0  0  0  0  0  0  0  0
   21.6160  -24.0780   46.7120 C   0  0  0  0  0  0  0  0  0  0  0  0
   21.2520  -24.6500   45.3420 C   0  0  0  0  0  0  0  0  0  0  0  0
   20.1158  -21.6644   43.9553 H   0  0  0  0  0  0  0  0  0  0  0  0
   21.0639  -21.3807   42.4562 H   0  0  0  0  0  0  0  0  0  0  0  0
   19.2858  -21.1256   42.4562 H   0  0  0  0  0  0  0  0  0  0  0  0
   19.6751  -22.6843   40.3555 H   0  0  0  0  0  0  0  0  0  0  0  0
   16.0550  -23.3554   37.6762 H   0  0  0  0  0  0  0  0  0  0  0  0
   15.3314  -23.6076   35.3008 H   0  0  0  0  0  0  0  0  0  0  0  0
   16.6559  -25.0317   33.7337 H   0  0  0  0  0  0  0  0  0  0  0  0
   18.5290  -27.2260   34.1670 H   0  0  0  0  0  0  0  0  0  0  0  0
   21.2740  -27.4570   38.9130 H   0  0  0  0  0  0  0  0  0  0  0  0
   19.3418  -26.8726   41.3430 H   0  0  0  0  0  0  0  0  0  0  0  0
   19.7275  -26.3380   43.7369 H   0  0  0  0  0  0  0  0  0  0  0  0
   18.1339  -23.3020   45.1093 H   0  0  0  0  0  0  0  0  0  0  0  0
   18.5723  -24.9317   45.7151 H   0  0  0  0  0  0  0  0  0  0  0  0
   19.5007  -22.2376   46.8482 H   0  0  0  0  0  0  0  0  0  0  0  0
   18.3455  -23.4026   47.6086 H   0  0  0  0  0  0  0  0  0  0  0  0
   20.6713  -23.5065   48.5628 H   0  0  0  0  0  0  0  0  0  0  0  0
   20.0847  -25.0623   47.8531 H   0  0  0  0  0  0  0  0  0  0  0  0
   22.0069  -23.0580   46.5821 H   0  0  0  0  0  0  0  0  0  0  0  0
   22.3744  -24.7299   47.1702 H   0  0  0  0  0  0  0  0  0  0  0  0
   22.1237  -24.5885   44.6739 H   0  0  0  0  0  0  0  0  0  0  0  0
   20.9503  -25.7025   45.4485 H   0  0  0  0  0  0  0  0  0  0  0  0
  1  2  1  0
  2  3  2  0
  3  4  1  0
  4  5  1  0
  5  6  1  0
  6  7  1  0
  7  8  2  0
  8  9  1  0
  9 10  2  0
 10 11  1  0
 11 12  1  0
 11 13  2  0
 13 14  1  0
 14 15  2  0
 14 16  1  0
 16 17  1  0
  4 18  2  0
 18 19  1  0
 19 20  2  0
 20 21  1  0
 21 22  1  0
 22 23  1  0
 23 24  1  0
 24 25  1  0
 25 26  1  0
 20  2  1  0
 26 21  1  0
 16  5  2  0
 13  7  1  0
  1 27  1  0
  1 28  1  0
  1 29  1  0
  3 30  1  0
  8 31  1  0
  9 32  1  0
 10 33  1  0
 12 34  1  0
 17 35  1  0
 18 36  1  0
 19 37  1  0
 22 38  1  0
 22 39  1  0
 23 40  1  0
 23 41  1  0
 24 42  1  0
 24 43  1  0
 25 44  1  0
 25 45  1  0
 26 46  1  0
 26 47  1  0
M  END
>  <meeko>  (4) 
{"is_sidechain": [false], "free_energy": -7.464, "intermolecular_energy": -8.601, "internal_energy": -0.579}

$$$$
cand_023_out
     RDKit          3D

 47 50  0  0  0  0  0  0  0  0999 V2000
   21.7930  -27.6390   41.6410 C   0  0  0  0  0  0  0  0  0  0  0  0
   20.6660  -27.7610   40.6510 C   0  0  0  0  0  0  0  0  0  0  0  0
   20.5550  -28.9240   39.8670 C   0  0  0  0  0  0  0  0  0  0  0  0
   19.5180  -29.0830   38.9360 C   0  0  0  0  0  0  0  0  0  0  0  0
   19.4500  -30.3070   38.1100 C   0  0  0  0  0  0  0  0  0  0  0  0
   20.0230  -30.1450   36.8540 O   0  0  0  0  0  0  0  0  0  0  0  0
   20.0310  -31.2040   35.9850 C   0  0  0  0  0  0  0  0  0  0  0  0
   20.6030  -30.9920   34.7300 C   0  0  0  0  0  0  0  0  0  0  0  0
   20.6450  -32.0300   33.7980 C   0  0  0  0  0  0  0  0  0  0  0  0
   20.1140  -33.2820   34.1200 C   0  0  0  0  0  0  0  0  0  0  0  0
   19.5430  -33.4910   35.3720 C   0  0  0  0  0  0  0  0  0  0  0  0
   19.0420  -34.7400   35.6220 O   0  0  0  0  0  0  0  0  0  0  0  0
   19.5010  -32.4510   36.3050 C   0  0  0  0  0  0  0  0  0  0  0  0
   18.9110  -32.6290   37.6320 C   0  0  0  0  0  0  0  0  0  0  0  0
   18.4300  -33.7020   37.9920 O   0  0  0  0  0  0  0  0  0  0  0  0
   18.9100  -31.4620   38.5440 C   0  0  0  0  0  0  0  0  0  0  0  0
   18.3620  -31.6460   39.8000 O   0  0  0  0  0  0  0  0  0  0  0  0
   18.5930  -28.0440   38.7900 C   0  0  0  0  0  0  0  0  0  0  0  0
   18.6920  -26.8840   39.5660 C   0  0  0  0  0  0  0  0  0  0  0  0
   19.7260  -26.7230   40.5010 C   0  0  0  0  0  0  0  0  0  0  0  0
   19.8400  -25.5700   41.3060 N   0  0  0  0  0  0  0  0  0  0  0  0
   19.3150  -24.3530   40.6660 C   0  0  0  0  0  0  0  0  0  0  0  0
   19.7000  -23.1390   41.5120 C   0  0  0  0  0  0  0  0  0  0  0  0
   19.2090  -23.2940   42.9510 C   0  0  0  0  0  0  0  0  0  0  0  0
   19.6860  -24.6150   43.5520 C   0  0  0  0  0  0  0  0  0  0  0  0
   19.3100  -25.7990   42.6600 C   0  0  0  0  0  0  0  0  0  0  0  0
   21.3893  -27.6827   42.6633 H   0  0  0  0  0  0  0  0  0  0  0  0
   22.5033  -28.4655   41.4916 H   0  0  0  0  0  0  0  0  0  0  0  0
   22.3100  -26.6796   41.4916 H   0  0  0  0  0  0  0  0  0  0  0  0
   21.2979  -29.7263   39.9868 H   0  0  0  0  0  0  0  0  0  0  0  0
   21.0208  -30.0068   34.4753 H   0  0  0  0  0  0  0  0  0  0  0  0
   21.0965  -31.8625   32.8090 H   0  0  0  0  0  0  0  0  0  0  0  0
   20.1472  -34.1003   33.3857 H   0  0  0  0  0  0  0  0  0  0  0  0
   18.1610  -34.9470   35.3830 H   0  0  0  0  0  0  0  0  0  0  0  0
   18.2730  -30.9180   40.3830 H   0  0  0  0  0  0  0  0  0  0  0  0
   17.7786  -28.1400   38.0569 H   0  0  0  0  0  0  0  0  0  0  0  0
   17.9467  -26.0847   39.4411 H   0  0  0  0  0  0  0  0  0  0  0  0
   19.7448  -24.2515   39.6585 H   0  0  0  0  0  0  0  0  0  0  0  0
   18.2198  -24.4181   40.5868 H   0  0  0  0  0  0  0  0  0  0  0  0
   20.7951  -23.0358   41.5151 H   0  0  0  0  0  0  0  0  0  0  0  0
   19.2291  -22.2455   41.0762 H   0  0  0  0  0  0  0  0  0  0  0  0
   19.5987  -22.4619   43.5558 H   0  0  0  0  0  0  0  0  0  0  0  0
   18.1090  -23.2863   42.9491 H   0  0  0  0  0  0  0  0  0  0  0  0
   20.7799  -24.5836   43.6637 H   0  0  0  0  0  0  0  0  0  0  0  0
   19.1988  -24.7479   44.5292 H   0  0  0  0  0  0  0  0  0  0  0  0
   19.7414  -26.7228   43.0730 H   0  0  0  0  0  0  0  0  0  0  0  0
   18.2153  -25.8977   42.6174 H   0  0  0  0  0  0  0  0  0  0  0  0
  1  2  1  0
  2  3  2  0
  3  4  1  0
  4  5  1  0
  5  6  1  0
  6  7  1  0
  7  8  2  0
  8  9  1  0
  9 10  2  0
 10 11  1  0
 11 12  1  0
 11 13  2  0
 13 14  1  0
 14 15  2  0
 14 16  1  0
 16 17  1  0
  4 18  2  0
 18 19  1  0
 19 20  2  0
 20 21  1  0
 21 22  1  0
 22 23  1  0
 23 24  1  0
 24 25  1  0
 25 26  1  0
 20  2  1  0
 26 21  1  0
 16  5  2  0
 13  7  1  0
  1 27  1  0
  1 28  1  0
  1 29  1  0
  3 30  1  0
  8 31  1  0
  9 32  1  0
 10 33  1  0
 12 34  1  0
 17 35  1  0
 18 36  1  0
 19 37  1  0
 22 38  1  0
 22 39  1  0
 23 40  1  0
 23 41  1  0
 24 42  1  0
 24 43  1  0
 25 44  1  0
 25 45  1  0
 26 46  1  0
 26 47  1  0
M  END
>  <meeko>  (5) 
{"is_sidechain": [false], "free_energy": -7.355, "intermolecular_energy": -8.601, "internal_energy": -0.451}

$$$$
cand_023_out
     RDKit          3D

 47 50  0  0  0  0  0  0  0  0999 V2000
   19.4080  -32.4830   39.5600 C   0  0  0  0  0  0  0  0  0  0  0  0
   19.5260  -31.3160   38.6170 C   0  0  0  0  0  0  0  0  0  0  0  0
   19.5380  -30.0070   39.1340 C   0  0  0  0  0  0  0  0  0  0  0  0
   19.6510  -28.8890   38.2930 C   0  0  0  0  0  0  0  0  0  0  0  0
   19.6330  -27.5290   38.8700 C   0  0  0  0  0  0  0  0  0  0  0  0
   19.6360  -27.5320   40.2600 O   0  0  0  0  0  0  0  0  0  0  0  0
   19.6220  -26.3340   40.9280 C   0  0  0  0  0  0  0  0  0  0  0  0
   19.6120  -26.3850   42.3220 C   0  0  0  0  0  0  0  0  0  0  0  0
   19.5990  -25.2010   43.0620 C   0  0  0  0  0  0  0  0  0  0  0  0
   19.5960  -23.9670   42.4090 C   0  0  0  0  0  0  0  0  0  0  0  0
   19.6050  -23.9190   41.0170 C   0  0  0  0  0  0  0  0  0  0  0  0
   19.6020  -22.6770   40.4410 O   0  0  0  0  0  0  0  0  0  0  0  0
   19.6180  -25.1040   40.2760 C   0  0  0  0  0  0  0  0  0  0  0  0
   19.6290  -25.0990   38.8130 C   0  0  0  0  0  0  0  0  0  0  0  0
   19.6340  -24.0530   38.1660 O   0  0  0  0  0  0  0  0  0  0  0  0
   19.6350  -26.4090   38.1230 C   0  0  0  0  0  0  0  0  0  0  0  0
   19.6590  -26.3910   36.7400 O   0  0  0  0  0  0  0  0  0  0  0  0
   19.7390  -29.1030   36.9140 C   0  0  0  0  0  0  0  0  0  0  0  0
   19.7310  -30.4000   36.3900 C   0  0  0  0  0  0  0  0  0  0  0  0
   19.6210  -31.5210   37.2270 C   0  0  0  0  0  0  0  0  0  0  0  0
   19.6250  -32.8400   36.7250 N   0  0  0  0  0  0  0  0  0  0  0  0
   18.4680  -33.6370   37.1610 C   0  0  0  0  0  0  0  0  0  0  0  0
   18.6910  -35.0970   36.7630 C   0  0  0  0  0  0  0  0  0  0  0  0
   18.9500  -35.2250   35.2630 C   0  0  0  0  0  0  0  0  0  0  0  0
   20.0910  -34.3070   34.8250 C   0  0  0  0  0  0  0  0  0  0  0  0
   19.8450  -32.8650   35.2690 C   0  0  0  0  0  0  0  0  0  0  0  0
   19.4446  -32.1208   40.5980 H   0  0  0  0  0  0  0  0  0  0  0  0
   18.4530  -33.0002   39.3856 H   0  0  0  0  0  0  0  0  0  0  0  0
   20.2402  -33.1809   39.3856 H   0  0  0  0  0  0  0  0  0  0  0  0
   19.4571  -29.8569   40.2207 H   0  0  0  0  0  0  0  0  0  0  0  0
   19.6144  -27.3567   42.8376 H   0  0  0  0  0  0  0  0  0  0  0  0
   19.5911  -25.2406   44.1613 H   0  0  0  0  0  0  0  0  0  0  0  0
   19.5866  -23.0346   42.9926 H   0  0  0  0  0  0  0  0  0  0  0  0
   19.8370  -22.5790   39.5400 H   0  0  0  0  0  0  0  0  0  0  0  0
   19.6360  -27.1960   36.2620 H   0  0  0  0  0  0  0  0  0  0  0  0
   19.8154  -28.2420   36.2337 H   0  0  0  0  0  0  0  0  0  0  0  0
   19.8124  -30.5438   35.3025 H   0  0  0  0  0  0  0  0  0  0  0  0
   18.3609  -33.5647   38.2534 H   0  0  0  0  0  0  0  0  0  0  0  0
   17.5532  -33.2569   36.6828 H   0  0  0  0  0  0  0  0  0  0  0  0
   19.5590  -35.4905   37.3123 H   0  0  0  0  0  0  0  0  0  0  0  0
   17.7847  -35.6689   37.0110 H   0  0  0  0  0  0  0  0  0  0  0  0
   19.2170  -36.2667   35.0315 H   0  0  0  0  0  0  0  0  0  0  0  0
   18.0373  -34.9326   34.7231 H   0  0  0  0  0  0  0  0  0  0  0  0
   21.0303  -34.6644   35.2722 H   0  0  0  0  0  0  0  0  0  0  0  0
   20.1507  -34.3269   33.7268 H   0  0  0  0  0  0  0  0  0  0  0  0
   20.7203  -32.2479   35.0181 H   0  0  0  0  0  0  0  0  0  0  0  0
   18.9597  -32.4644   34.7535 H   0  0  0  0  0  0  0  0  0  0  0  0
  1  2  1  0
  2  3  2  0
  3  4  1  0
  4  5  1  0
  5  6  1  0
  6  7  1  0
  7  8  2  0
  8  9  1  0
  9 10  2  0
 10 11  1  0
 11 12  1  0
 11 13  2  0
 13 14  1  0
 14 15  2  0
 14 16  1  0
 16 17  1  0
  4 18  2  0
 18 19  1  0
 19 20  2  0
 20 21  1  0
 21 22  1  0
 22 23  1  0
 23 24  1  0
 24 25  1  0
 25 26  1  0
 20  2  1  0
 26 21  1  0
 16  5  2  0
 13  7  1  0
  1 27  1  0
  1 28  1  0
  1 29  1  0
  3 30  1  0
  8 31  1  0
  9 32  1  0
 10 33  1  0
 12 34  1  0
 17 35  1  0
 18 36  1  0
 19 37  1  0
 22 38  1  0
 22 39  1  0
 23 40  1  0
 23 41  1  0
 24 42  1  0
 24 43  1  0
 25 44  1  0
 25 45  1  0
 26 46  1  0
 26 47  1  0
M  END
>  <meeko>  (6) 
{"is_sidechain": [false], "free_energy": -7.1, "intermolecular_energy": -9.474, "internal_energy": 0.722}

$$$$
cand_023_out
     RDKit          3D

 47 50  0  0  0  0  0  0  0  0999 V2000
   20.5940  -30.9530   35.5930 C   0  0  0  0  0  0  0  0  0  0  0  0
   19.9710  -30.4180   36.8540 C   0  0  0  0  0  0  0  0  0  0  0  0
   19.8630  -29.0270   37.0370 C   0  0  0  0  0  0  0  0  0  0  0  0
   19.2850  -28.4840   38.1950 C   0  0  0  0  0  0  0  0  0  0  0  0
   19.2140  -27.0170   38.3640 C   0  0  0  0  0  0  0  0  0  0  0  0
   18.3510  -26.4100   37.4590 O   0  0  0  0  0  0  0  0  0  0  0  0
   18.1880  -25.0500   37.5050 C   0  0  0  0  0  0  0  0  0  0  0  0
   17.3230  -24.4820   36.5690 C   0  0  0  0  0  0  0  0  0  0  0  0
   17.1110  -23.1020   36.5640 C   0  0  0  0  0  0  0  0  0  0  0  0
   17.7640  -22.2890   37.4930 C   0  0  0  0  0  0  0  0  0  0  0  0
   18.6280  -22.8580   38.4260 C   0  0  0  0  0  0  0  0  0  0  0  0
   19.2350  -22.0060   39.3070 O   0  0  0  0  0  0  0  0  0  0  0  0
   18.8400  -24.2400   38.4310 C   0  0  0  0  0  0  0  0  0  0  0  0
   19.7380  -24.8790   39.3940 C   0  0  0  0  0  0  0  0  0  0  0  0
   20.3430  -24.2320   40.2470 O   0  0  0  0  0  0  0  0  0  0  0  0
   19.8980  -26.3480   39.3110 C   0  0  0  0  0  0  0  0  0  0  0  0
   20.7390  -26.9420   40.2350 O   0  0  0  0  0  0  0  0  0  0  0  0
   18.8260  -29.3620   39.1820 C   0  0  0  0  0  0  0  0  0  0  0  0
   18.9260  -30.7470   39.0090 C   0  0  0  0  0  0  0  0  0  0  0  0
   19.5000  -31.2940   37.8510 C   0  0  0  0  0  0  0  0  0  0  0  0
   19.6000  -32.6870   37.6460 N   0  0  0  0  0  0  0  0  0  0  0  0
   19.2610  -33.4810   38.8380 C   0  0  0  0  0  0  0  0  0  0  0  0
   19.6280  -34.9430   38.5830 C   0  0  0  0  0  0  0  0  0  0  0  0
   18.9440  -35.4700   37.3230 C   0  0  0  0  0  0  0  0  0  0  0  0
   19.2320  -34.5660   36.1250 C   0  0  0  0  0  0  0  0  0  0  0  0
   18.8820  -33.1090   36.4320 C   0  0  0  0  0  0  0  0  0  0  0  0
   21.4051  -31.6495   35.8517 H   0  0  0  0  0  0  0  0  0  0  0  0
   19.8310  -31.4816   35.0028 H   0  0  0  0  0  0  0  0  0  0  0  0
   21.0013  -30.1189   35.0028 H   0  0  0  0  0  0  0  0  0  0  0  0
   20.2397  -28.3506   36.2556 H   0  0  0  0  0  0  0  0  0  0  0  0
   16.8087  -25.1207   35.8359 H   0  0  0  0  0  0  0  0  0  0  0  0
   16.4283  -22.6542   35.8269 H   0  0  0  0  0  0  0  0  0  0  0  0
   17.5965  -21.2018   37.4880 H   0  0  0  0  0  0  0  0  0  0  0  0
   19.5280  -21.1640   39.0180 H   0  0  0  0  0  0  0  0  0  0  0  0
   21.3990  -26.4320   40.6620 H   0  0  0  0  0  0  0  0  0  0  0  0
   18.3816  -28.9596   40.1042 H   0  0  0  0  0  0  0  0  0  0  0  0
   18.5482  -31.4185   39.7941 H   0  0  0  0  0  0  0  0  0  0  0  0
   19.8250  -33.1049   39.7043 H   0  0  0  0  0  0  0  0  0  0  0  0
   18.1838  -33.3989   39.0452 H   0  0  0  0  0  0  0  0  0  0  0  0
   20.7182  -35.0236   38.4604 H   0  0  0  0  0  0  0  0  0  0  0  0
   19.2900  -35.5428   39.4409 H   0  0  0  0  0  0  0  0  0  0  0  0
   19.3169  -36.4822   37.1078 H   0  0  0  0  0  0  0  0  0  0  0  0
   17.8577  -35.4882   37.4953 H   0  0  0  0  0  0  0  0  0  0  0  0
   20.3010  -34.6327   35.8745 H   0  0  0  0  0  0  0  0  0  0  0  0
   18.6128  -34.9014   35.2799 H   0  0  0  0  0  0  0  0  0  0  0  0
   19.1816  -32.4721   35.5866 H   0  0  0  0  0  0  0  0  0  0  0  0
   17.7977  -33.0137   36.5906 H   0  0  0  0  0  0  0  0  0  0  0  0
  1  2  1  0
  2  3  2  0
  3  4  1  0
  4  5  1  0
  5  6  1  0
  6  7  1  0
  7  8  2  0
  8  9  1  0
  9 10  2  0
 10 11  1  0
 11 12  1  0
 11 13  2  0
 13 14  1  0
 14 15  2  0
 14 16  1  0
 16 17  1  0
  4 18  2  0
 18 19  1  0
 19 20  2  0
 20 21  1  0
 21 22  1  0
 22 23  1  0
 23 24  1  0
 24 25  1  0
 25 26  1  0
 20  2  1  0
 26 21  1  0
 16  5  2  0
 13  7  1  0
  1 27  1  0
  1 28  1  0
  1 29  1  0
  3 30  1  0
  8 31  1  0
  9 32  1  0
 10 33  1  0
 12 34  1  0
 17 35  1  0
 18 36  1  0
 19 37  1  0
 22 38  1  0
 22 39  1  0
 23 40  1  0
 23 41  1  0
 24 42  1  0
 24 43  1  0
 25 44  1  0
 25 45  1  0
 26 46  1  0
 26 47  1  0
M  END
>  <meeko>  (7) 
{"is_sidechain": [false], "free_energy": -7.097, "intermolecular_energy": -8.844, "internal_energy": 0.095}

$$$$
cand_023_out
     RDKit          3D

 47 50  0  0  0  0  0  0  0  0999 V2000
   19.1700  -23.2540   39.9270 C   0  0  0  0  0  0  0  0  0  0  0  0
   19.5080  -24.1640   41.0770 C   0  0  0  0  0  0  0  0  0  0  0  0
   19.8310  -23.6070   42.3280 C   0  0  0  0  0  0  0  0  0  0  0  0
   20.1480  -24.4170   43.4300 C   0  0  0  0  0  0  0  0  0  0  0  0
   20.5080  -23.7960   44.7210 C   0  0  0  0  0  0  0  0  0  0  0  0
   20.1440  -24.5730   45.8150 O   0  0  0  0  0  0  0  0  0  0  0  0
   20.4220  -24.1160   47.0770 C   0  0  0  0  0  0  0  0  0  0  0  0
   20.0260  -24.9210   48.1450 C   0  0  0  0  0  0  0  0  0  0  0  0
   20.2810  -24.5140   49.4560 C   0  0  0  0  0  0  0  0  0  0  0  0
   20.9310  -23.3030   49.7000 C   0  0  0  0  0  0  0  0  0  0  0  0
   21.3240  -22.5000   48.6320 C   0  0  0  0  0  0  0  0  0  0  0  0
   21.9560  -21.3260   48.9410 O   0  0  0  0  0  0  0  0  0  0  0  0
   21.0690  -22.9070   47.3200 C   0  0  0  0  0  0  0  0  0  0  0  0
   21.4660  -22.0950   46.1690 C   0  0  0  0  0  0  0  0  0  0  0  0
   22.0480  -21.0190   46.3020 O   0  0  0  0  0  0  0  0  0  0  0  0
   21.1430  -22.6130   44.8200 C   0  0  0  0  0  0  0  0  0  0  0  0
   21.5350  -21.8420   43.7400 O   0  0  0  0  0  0  0  0  0  0  0  0
   20.1500  -25.8050   43.2530 C   0  0  0  0  0  0  0  0  0  0  0  0
   19.8280  -26.3680   42.0140 C   0  0  0  0  0  0  0  0  0  0  0  0
   19.5070  -25.5620   40.9110 C   0  0  0  0  0  0  0  0  0  0  0  0
   19.1650  -26.1060   39.6550 N   0  0  0  0  0  0  0  0  0  0  0  0
   20.3010  -26.1940   38.7240 C   0  0  0  0  0  0  0  0  0  0  0  0
   19.7800  -26.5660   37.3360 C   0  0  0  0  0  0  0  0  0  0  0  0
   18.9680  -27.8600   37.3820 C   0  0  0  0  0  0  0  0  0  0  0  0
   17.8600  -27.7730   38.4310 C   0  0  0  0  0  0  0  0  0  0  0  0
   18.4180  -27.3670   39.7950 C   0  0  0  0  0  0  0  0  0  0  0  0
   18.8117  -22.2894   40.3158 H   0  0  0  0  0  0  0  0  0  0  0  0
   20.0676  -23.0910   39.3123 H   0  0  0  0  0  0  0  0  0  0  0  0
   18.3837  -23.7165   39.3123 H   0  0  0  0  0  0  0  0  0  0  0  0
   19.8352  -22.5133   42.4451 H   0  0  0  0  0  0  0  0  0  0  0  0
   19.5134  -25.8754   47.9546 H   0  0  0  0  0  0  0  0  0  0  0  0
   19.9690  -25.1489   50.2983 H   0  0  0  0  0  0  0  0  0  0  0  0
   21.1323  -22.9837   50.7332 H   0  0  0  0  0  0  0  0  0  0  0  0
   21.4530  -20.5720   49.1770 H   0  0  0  0  0  0  0  0  0  0  0  0
   21.2380  -20.9570   43.6650 H   0  0  0  0  0  0  0  0  0  0  0  0
   20.4077  -26.4606   44.0978 H   0  0  0  0  0  0  0  0  0  0  0  0
   19.8263  -27.4623   41.9020 H   0  0  0  0  0  0  0  0  0  0  0  0
   20.8150  -25.2226   38.6767 H   0  0  0  0  0  0  0  0  0  0  0  0
   21.0085  -26.9606   39.0729 H   0  0  0  0  0  0  0  0  0  0  0  0
   19.1398  -25.7531   36.9628 H   0  0  0  0  0  0  0  0  0  0  0  0
   20.6411  -26.7173   36.6684 H   0  0  0  0  0  0  0  0  0  0  0  0
   18.5160  -28.0366   36.3948 H   0  0  0  0  0  0  0  0  0  0  0  0
   19.6413  -28.6874   37.6505 H   0  0  0  0  0  0  0  0  0  0  0  0
   17.1199  -27.0254   38.1095 H   0  0  0  0  0  0  0  0  0  0  0  0
   17.3941  -28.7648   38.5274 H   0  0  0  0  0  0  0  0  0  0  0  0
   17.5895  -27.2273   40.5050 H   0  0  0  0  0  0  0  0  0  0  0  0
   19.0881  -28.1545   40.1701 H   0  0  0  0  0  0  0  0  0  0  0  0
  1  2  1  0
  2  3  2  0
  3  4  1  0
  4  5  1  0
  5  6  1  0
  6  7  1  0
  7  8  2  0
  8  9  1  0
  9 10  2  0
 10 11  1  0
 11 12  1  0
 11 13  2  0
 13 14  1  0
 14 15  2  0
 14 16  1  0
 16 17  1  0
  4 18  2  0
 18 19  1  0
 19 20  2  0
 20 21  1  0
 21 22  1  0
 22 23  1  0
 23 24  1  0
 24 25  1  0
 25 26  1  0
 20  2  1  0
 26 21  1  0
 16  5  2  0
 13  7  1  0
  1 27  1  0
  1 28  1  0
  1 29  1  0
  3 30  1  0
  8 31  1  0
  9 32  1  0
 10 33  1  0
 12 34  1  0
 17 35  1  0
 18 36  1  0
 19 37  1  0
 22 38  1  0
 22 39  1  0
 23 40  1  0
 23 41  1  0
 24 42  1  0
 24 43  1  0
 25 44  1  0
 25 45  1  0
 26 46  1  0
 26 47  1  0
M  END
>  <meeko>  (8) 
{"is_sidechain": [false], "free_energy": -6.86, "intermolecular_energy": -8.419, "internal_energy": -0.051}

$$$$
cand_023_out
     RDKit          3D

 47 50  0  0  0  0  0  0  0  0999 V2000
   20.6110  -20.5320   43.6260 C   0  0  0  0  0  0  0  0  0  0  0  0
   20.1730  -21.9720   43.6340 C   0  0  0  0  0  0  0  0  0  0  0  0
   20.1580  -22.6990   42.4300 C   0  0  0  0  0  0  0  0  0  0  0  0
   19.7610  -24.0440   42.3920 C   0  0  0  0  0  0  0  0  0  0  0  0
   19.7320  -24.7670   41.1030 C   0  0  0  0  0  0  0  0  0  0  0  0
   18.9260  -24.1490   40.1540 O   0  0  0  0  0  0  0  0  0  0  0  0
   18.8100  -24.7130   38.9100 C   0  0  0  0  0  0  0  0  0  0  0  0
   17.9800  -24.0650   37.9940 C   0  0  0  0  0  0  0  0  0  0  0  0
   17.8200  -24.5870   36.7100 C   0  0  0  0  0  0  0  0  0  0  0  0
   18.4890  -25.7560   36.3400 C   0  0  0  0  0  0  0  0  0  0  0  0
   19.3160  -26.4010   37.2560 C   0  0  0  0  0  0  0  0  0  0  0  0
   19.9410  -27.5410   36.8280 O   0  0  0  0  0  0  0  0  0  0  0  0
   19.4760  -25.8780   38.5420 C   0  0  0  0  0  0  0  0  0  0  0  0
   20.3370  -26.5240   39.5350 C   0  0  0  0  0  0  0  0  0  0  0  0
   20.9630  -27.5520   39.2820 O   0  0  0  0  0  0  0  0  0  0  0  0
   20.4330  -25.8940   40.8710 C   0  0  0  0  0  0  0  0  0  0  0  0
   21.2590  -26.5050   41.7960 O   0  0  0  0  0  0  0  0  0  0  0  0
   19.3630  -24.6520   43.5870 C   0  0  0  0  0  0  0  0  0  0  0  0
   19.3760  -23.9400   44.7900 C   0  0  0  0  0  0  0  0  0  0  0  0
   19.7760  -22.5950   44.8330 C   0  0  0  0  0  0  0  0  0  0  0  0
   19.8120  -21.8590   46.0370 N   0  0  0  0  0  0  0  0  0  0  0  0
   18.5420  -21.8860   46.7800 C   0  0  0  0  0  0  0  0  0  0  0  0
   18.6140  -20.8770   47.9260 C   0  0  0  0  0  0  0  0  0  0  0  0
   19.8180  -21.1520   48.8260 C   0  0  0  0  0  0  0  0  0  0  0  0
   21.1070  -21.2190   48.0090 C   0  0  0  0  0  0  0  0  0  0  0  0
   20.9820  -22.2140   46.8550 C   0  0  0  0  0  0  0  0  0  0  0  0
   20.7193  -20.1759   44.6611 H   0  0  0  0  0  0  0  0  0  0  0  0
   21.5762  -20.4452   43.1055 H   0  0  0  0  0  0  0  0  0  0  0  0
   19.8576  -19.9225   43.1055 H   0  0  0  0  0  0  0  0  0  0  0  0
   20.4643  -22.2020   41.4977 H   0  0  0  0  0  0  0  0  0  0  0  0
   17.4528  -23.1441   38.2839 H   0  0  0  0  0  0  0  0  0  0  0  0
   17.1657  -24.0769   35.9877 H   0  0  0  0  0  0  0  0  0  0  0  0
   18.3628  -26.1662   35.3272 H   0  0  0  0  0  0  0  0  0  0  0  0
   20.0860  -28.2470   37.4260 H   0  0  0  0  0  0  0  0  0  0  0  0
   22.1890  -26.4800   41.6820 H   0  0  0  0  0  0  0  0  0  0  0  0
   19.0361  -25.7023   43.5802 H   0  0  0  0  0  0  0  0  0  0  0  0
   19.0675  -24.4422   45.7188 H   0  0  0  0  0  0  0  0  0  0  0  0
   17.7146  -21.6198   46.1058 H   0  0  0  0  0  0  0  0  0  0  0  0
   18.3689  -22.8946   47.1834 H   0  0  0  0  0  0  0  0  0  0  0  0
   18.7023  -19.8636   47.5074 H   0  0  0  0  0  0  0  0  0  0  0  0
   17.6987  -20.9676   48.5294 H   0  0  0  0  0  0  0  0  0  0  0  0
   19.9041  -20.3450   49.5685 H   0  0  0  0  0  0  0  0  0  0  0  0
   19.6686  -22.1205   49.3257 H   0  0  0  0  0  0  0  0  0  0  0  0
   21.3243  -20.2213   47.5999 H   0  0  0  0  0  0  0  0  0  0  0  0
   21.9200  -21.5541   48.6699 H   0  0  0  0  0  0  0  0  0  0  0  0
   21.8900  -22.1751   46.2353 H   0  0  0  0  0  0  0  0  0  0  0  0
   20.8593  -23.2314   47.2549 H   0  0  0  0  0  0  0  0  0  0  0  0
  1  2  1  0
  2  3  2  0
  3  4  1  0
  4  5  1  0
  5  6  1  0
  6  7  1  0
  7  8  2  0
  8  9  1  0
  9 10  2  0
 10 11  1  0
 11 12  1  0
 11 13  2  0
 13 14  1  0
 14 15  2  0
 14 16  1  0
 16 17  1  0
  4 18  2  0
 18 19  1  0
 19 20  2  0
 20 21  1  0
 21 22  1  0
 22 23  1  0
 23 24  1  0
 24 25  1  0
 25 26  1  0
 20  2  1  0
 26 21  1  0
 16  5  2  0
 13  7  1  0
  1 27  1  0
  1 28  1  0
  1 29  1  0
  3 30  1  0
  8 31  1  0
  9 32  1  0
 10 33  1  0
 12 34  1  0
 17 35  1  0
 18 36  1  0
 19 37  1  0
 22 38  1  0
 22 39  1  0
 23 40  1  0
 23 41  1  0
 24 42  1  0
 24 43  1  0
 25 44  1  0
 25 45  1  0
 26 46  1  0
 26 47  1  0
M  END
>  <meeko>  (9) 
{"is_sidechain": [false], "free_energy": -6.755, "intermolecular_energy": -7.792, "internal_energy": -0.554}

$$$$
