cand_035_out
     RDKit          3D

 36 38  0  0  0  0  0  0  0  0999 V2000
   22.2350  -27.6170   41.8370 C   0  0  0  0  0  0  0  0  0  0  0  0
   20.9970  -27.1100   41.8160 C   0  0  0  0  0  0  0  0  0  0  0  0
   20.0760  -27.3610   40.7030 C   0  0  0  0  0  0  0  0  0  0  0  0
   20.0840  -28.6390   40.1200 C   0  0  0  0  0  0  0  0  0  0  0  0
   19.2350  -28.9590   39.0510 C   0  0  0  0  0  0  0  0  0  0  0  0
   19.2890  -30.3060   38.4450 C   0  0  0  0  0  0  0  0  0  0  0  0
   18.8560  -31.3050   39.3100 O   0  0  0  0  0  0  0  0  0  0  0  0
   18.8550  -32.6050   38.8740 C   0  0  0  0  0  0  0  0  0  0  0  0
   18.4260  -33.5770   39.7790 C   0  0  0  0  0  0  0  0  0  0  0  0
   18.3990  -34.9200   39.3980 C   0  0  0  0  0  0  0  0  0  0  0  0
   18.8010  -35.2910   38.1130 C   0  0  0  0  0  0  0  0  0  0  0  0
   19.2290  -34.3200   37.2120 C   0  0  0  0  0  0  0  0  0  0  0  0
   19.6070  -34.7530   35.9710 O   0  0  0  0  0  0  0  0  0  0  0  0
   19.2560  -32.9750   37.5940 C   0  0  0  0  0  0  0  0  0  0  0  0
   19.6990  -31.9240   36.6770 C   0  0  0  0  0  0  0  0  0  0  0  0
   20.0600  -32.1700   35.5290 O   0  0  0  0  0  0  0  0  0  0  0  0
   19.6970  -30.5310   37.1830 C   0  0  0  0  0  0  0  0  0  0  0  0
   20.1020  -29.5430   36.3060 O   0  0  0  0  0  0  0  0  0  0  0  0
   18.3820  -27.9650   38.5590 C   0  0  0  0  0  0  0  0  0  0  0  0
   18.3660  -26.6900   39.1310 C   0  0  0  0  0  0  0  0  0  0  0  0
   19.2080  -26.3720   40.2080 C   0  0  0  0  0  0  0  0  0  0  0  0
   19.1670  -24.9870   40.8010 C   0  0  0  0  0  0  0  0  0  0  0  0
   20.1610  -24.1700   40.3430 F   0  0  0  0  0  0  0  0  0  0  0  0
   22.9002  -27.4088   42.6879 H   0  0  0  0  0  0  0  0  0  0  0  0
   22.5876  -28.2420   41.0033 H   0  0  0  0  0  0  0  0  0  0  0  0
   20.6605  -26.4870   42.6578 H   0  0  0  0  0  0  0  0  0  0  0  0
   20.7706  -29.4047   40.5102 H   0  0  0  0  0  0  0  0  0  0  0  0
   18.1095  -33.2854   40.7913 H   0  0  0  0  0  0  0  0  0  0  0  0
   18.0608  -35.6866   40.1107 H   0  0  0  0  0  0  0  0  0  0  0  0
   18.7795  -36.3491   37.8132 H   0  0  0  0  0  0  0  0  0  0  0  0
   20.0490  -35.5740   35.8750 H   0  0  0  0  0  0  0  0  0  0  0  0
   20.7140  -29.7430   35.6240 H   0  0  0  0  0  0  0  0  0  0  0  0
   17.7165  -28.1896   37.7124 H   0  0  0  0  0  0  0  0  0  0  0  0
   17.6840  -25.9250   38.7316 H   0  0  0  0  0  0  0  0  0  0  0  0
   18.1979  -24.5299   40.5521 H   0  0  0  0  0  0  0  0  0  0  0  0
   19.3102  -25.0947   41.8863 H   0  0  0  0  0  0  0  0  0  0  0  0
  1  2  2  0
  2  3  1  0
  3  4  2  0
  4  5  1  0
  5  6  1  0
  6  7  1  0
  7  8  1  0
  8  9  2  0
  9 10  1  0
 10 11  2  0
 11 12  1  0
 12 13  1  0
 12 14  2  0
 14 15  1  0
 15 16  2  0
 15 17  1  0
 17 18  1  0
  5 19  2  0
 19 20  1  0
 20 21  2  0
 21 22  1  0
 22 23  1  0
 21  3  1  0
 17  6  2  0
 14  8  1  0
  1 24  1  0
  1 25  1  0
  2 26  1  0
  4 27  1  0
  9 28  1  0
 10 29  1  0
 11 30  1  0
 13 31  1  0
 18 32  1  0
 19 33  1  0
 20 34  1  0
 22 35  1  0
 22 36  1  0
M  END
>  <meeko>  (1) 
{"is_sidechain": [false], "free_energy": -7.952, "intermolecular_energy": -9.811, "internal_energy": -0.487}

$$$$
cand_035_out
     RDKit          3D

 36 38  0  0  0  0  0  0  0  0999 V2000
   18.6150  -34.0070   39.7030 C   0  0  0  0  0  0  0  0  0  0  0  0
   18.5190  -33.7240   38.3990 C   0  0  0  0  0  0  0  0  0  0  0  0
   19.0280  -32.4680   37.8410 C   0  0  0  0  0  0  0  0  0  0  0  0
   18.9430  -31.3130   38.6370 C   0  0  0  0  0  0  0  0  0  0  0  0
   19.4080  -30.0720   38.1750 C   0  0  0  0  0  0  0  0  0  0  0  0
   19.2770  -28.8740   39.0300 C   0  0  0  0  0  0  0  0  0  0  0  0
   20.2010  -28.8490   40.0690 O   0  0  0  0  0  0  0  0  0  0  0  0
   20.1900  -27.7900   40.9400 C   0  0  0  0  0  0  0  0  0  0  0  0
   21.1250  -27.8110   41.9760 C   0  0  0  0  0  0  0  0  0  0  0  0
   21.1690  -26.7620   42.8970 C   0  0  0  0  0  0  0  0  0  0  0  0
   20.2790  -25.6920   42.7810 C   0  0  0  0  0  0  0  0  0  0  0  0
   19.3480  -25.6730   41.7460 C   0  0  0  0  0  0  0  0  0  0  0  0
   18.5080  -24.5940   41.6920 O   0  0  0  0  0  0  0  0  0  0  0  0
   19.3040  -26.7230   40.8250 C   0  0  0  0  0  0  0  0  0  0  0  0
   18.3410  -26.7410   39.7230 C   0  0  0  0  0  0  0  0  0  0  0  0
   17.5320  -25.8320   39.5500 O   0  0  0  0  0  0  0  0  0  0  0  0
   18.3720  -27.9040   38.8060 C   0  0  0  0  0  0  0  0  0  0  0  0
   17.4690  -27.9050   37.7600 O   0  0  0  0  0  0  0  0  0  0  0  0
   19.9480  -30.0030   36.8870 C   0  0  0  0  0  0  0  0  0  0  0  0
   20.0380  -31.1450   36.0860 C   0  0  0  0  0  0  0  0  0  0  0  0
   19.5830  -32.3880   36.5510 C   0  0  0  0  0  0  0  0  0  0  0  0
   19.6920  -33.6010   35.6620 C   0  0  0  0  0  0  0  0  0  0  0  0
   19.6860  -33.3000   34.3300 F   0  0  0  0  0  0  0  0  0  0  0  0
   18.2226  -34.9592   40.0895 H   0  0  0  0  0  0  0  0  0  0  0  0
   19.0863  -33.2875   40.3887 H   0  0  0  0  0  0  0  0  0  0  0  0
   18.0448  -34.4543   37.7269 H   0  0  0  0  0  0  0  0  0  0  0  0
   18.5030  -31.3830   39.6427 H   0  0  0  0  0  0  0  0  0  0  0  0
   21.8268  -28.6532   42.0671 H   0  0  0  0  0  0  0  0  0  0  0  0
   21.9051  -26.7786   43.7142 H   0  0  0  0  0  0  0  0  0  0  0  0
   20.3135  -24.8656   43.5062 H   0  0  0  0  0  0  0  0  0  0  0  0
   18.2410  -24.1670   42.4820 H   0  0  0  0  0  0  0  0  0  0  0  0
   17.6450  -27.4030   36.9880 H   0  0  0  0  0  0  0  0  0  0  0  0
   20.3064  -29.0380   36.4993 H   0  0  0  0  0  0  0  0  0  0  0  0
   20.4713  -31.0681   35.0778 H   0  0  0  0  0  0  0  0  0  0  0  0
   20.6316  -34.1224   35.8973 H   0  0  0  0  0  0  0  0  0  0  0  0
   18.8087  -34.2269   35.8573 H   0  0  0  0  0  0  0  0  0  0  0  0
  1  2  2  0
  2  3  1  0
  3  4  2  0
  4  5  1  0
  5  6  1  0
  6  7  1  0
  7  8  1  0
  8  9  2  0
  9 10  1  0
 10 11  2  0
 11 12  1  0
 12 13  1  0
 12 14  2  0
 14 15  1  0
 15 16  2  0
 15 17  1  0
 17 18  1  0
  5 19  2  0
 19 20  1  0
 20 21  2  0
 21 22  1  0
 22 23  1  0
 21  3  1  0
 17  6  2  0
 14  8  1  0
  1 24  1  0
  1 25  1  0
  2 26  1  0
  4 27  1  0
  9 28  1  0
 10 29  1  0
 11 30  1  0
 13 31  1  0
 18 32  1  0
 19 33  1  0
 20 34  1  0
 22 35  1  0
 22 36  1  0
M  END
>  <meeko>  (2) 
{"is_sidechain": [false], "free_energy": -7.526, "intermolecular_energy": -9.284, "internal_energy": -0.489}

$$$$
cand_035_out
     RDKit          3D

 36 38  0  0  0  0  0  0  0  0999 V2000
   20.2060  -30.0600   34.2010 C   0  0  0  0  0  0  0  0  0  0  0  0
   20.5380  -31.0680   35.0160 C   0  0  0  0  0  0  0  0  0  0  0  0
   19.9650  -31.1960   36.3600 C   0  0  0  0  0  0  0  0  0  0  0  0
   19.8310  -30.0290   37.1300 C   0  0  0  0  0  0  0  0  0  0  0  0
   19.2930  -30.0670   38.4250 C   0  0  0  0  0  0  0  0  0  0  0  0
   19.1910  -28.8240   39.2170 C   0  0  0  0  0  0  0  0  0  0  0  0
   20.1060  -28.7730   40.2630 O   0  0  0  0  0  0  0  0  0  0  0  0
   20.1200  -27.6710   41.0790 C   0  0  0  0  0  0  0  0  0  0  0  0
   21.0450  -27.6680   42.1240 C   0  0  0  0  0  0  0  0  0  0  0  0
   21.1130  -26.5750   42.9910 C   0  0  0  0  0  0  0  0  0  0  0  0
   20.2570  -25.4870   42.8130 C   0  0  0  0  0  0  0  0  0  0  0  0
   19.3340  -25.4930   41.7690 C   0  0  0  0  0  0  0  0  0  0  0  0
   18.5280  -24.3930   41.6520 O   0  0  0  0  0  0  0  0  0  0  0  0
   19.2670  -26.5860   40.9020 C   0  0  0  0  0  0  0  0  0  0  0  0
   18.3120  -26.6320   39.7930 C   0  0  0  0  0  0  0  0  0  0  0  0
   17.5320  -25.7100   39.5670 O   0  0  0  0  0  0  0  0  0  0  0  0
   18.3170  -27.8400   38.9360 C   0  0  0  0  0  0  0  0  0  0  0  0
   17.4230  -27.8680   37.8830 O   0  0  0  0  0  0  0  0  0  0  0  0
   18.9040  -31.3060   38.9470 C   0  0  0  0  0  0  0  0  0  0  0  0
   19.0330  -32.4740   38.1890 C   0  0  0  0  0  0  0  0  0  0  0  0
   19.5620  -32.4340   36.8900 C   0  0  0  0  0  0  0  0  0  0  0  0
   19.6900  -33.7120   36.0990 C   0  0  0  0  0  0  0  0  0  0  0  0
   18.5590  -34.4780   36.1190 F   0  0  0  0  0  0  0  0  0  0  0  0
   20.6540  -29.9928   33.1986 H   0  0  0  0  0  0  0  0  0  0  0  0
   19.4851  -29.2986   34.5334 H   0  0  0  0  0  0  0  0  0  0  0  0
   21.2604  -31.8212   34.6685 H   0  0  0  0  0  0  0  0  0  0  0  0
   20.1545  -29.0656   36.7090 H   0  0  0  0  0  0  0  0  0  0  0  0
   21.7197  -28.5253   42.2647 H   0  0  0  0  0  0  0  0  0  0  0  0
   21.8419  -26.5717   43.8149 H   0  0  0  0  0  0  0  0  0  0  0  0
   20.3109  -24.6262   43.4957 H   0  0  0  0  0  0  0  0  0  0  0  0
   17.7110  -24.4570   41.1970 H   0  0  0  0  0  0  0  0  0  0  0  0
   17.5810  -27.3470   37.1200 H   0  0  0  0  0  0  0  0  0  0  0  0
   18.4920  -31.3616   39.9654 H   0  0  0  0  0  0  0  0  0  0  0  0
   18.7157  -33.4365   38.6166 H   0  0  0  0  0  0  0  0  0  0  0  0
   19.9180  -33.4541   35.0543 H   0  0  0  0  0  0  0  0  0  0  0  0
   20.4913  -34.3038   36.5656 H   0  0  0  0  0  0  0  0  0  0  0  0
  1  2  2  0
  2  3  1  0
  3  4  2  0
  4  5  1  0
  5  6  1  0
  6  7  1  0
  7  8  1  0
  8  9  2  0
  9 10  1  0
 10 11  2  0
 11 12  1  0
 12 13  1  0
 12 14  2  0
 14 15  1  0
 15 16  2  0
 15 17  1  0
 17 18  1  0
  5 19  2  0
 19 20  1  0
 20 21  2  0
 21 22  1  0
 22 23  1  0
 21  3  1  0
 17  6  2  0
 14  8  1  0
  1 24  1  0
  1 25  1  0
  2 26  1  0
  4 27  1  0
  9 28  1  0
 10 29  1  0
 11 30  1  0
 13 31  1  0
 18 32  1  0
 19 33  1  0
 20 34  1  0
 22 35  1  0
 22 36  1  0
M  END
>  <meeko>  (3) 
{"is_sidechain": [false], "free_energy": -7.367, "intermolecular_energy": -9.102, "internal_energy": -0.475}

$$$$
cand_035_out
     RDKit          3D

 36 38  0  0  0  0  0  0  0  0999 V2000
   18.3470  -24.7320   37.1200 C   0  0  0  0  0  0  0  0  0  0  0  0
   17.9170  -25.2780   38.2630 C   0  0  0  0  0  0  0  0  0  0  0  0
   18.6830  -26.3140   38.9620 C   0  0  0  0  0  0  0  0  0  0  0  0
   18.7120  -27.6010   38.3980 C   0  0  0  0  0  0  0  0  0  0  0  0
   19.4210  -28.6480   39.0060 C   0  0  0  0  0  0  0  0  0  0  0  0
   19.4070  -29.9950   38.3990 C   0  0  0  0  0  0  0  0  0  0  0  0
   19.0110  -30.9850   39.2920 O   0  0  0  0  0  0  0  0  0  0  0  0
   18.9530  -32.2850   38.8580 C   0  0  0  0  0  0  0  0  0  0  0  0
   18.5640  -33.2470   39.7900 C   0  0  0  0  0  0  0  0  0  0  0  0
   18.4830  -34.5900   39.4130 C   0  0  0  0  0  0  0  0  0  0  0  0
   18.7910  -34.9690   38.1040 C   0  0  0  0  0  0  0  0  0  0  0  0
   19.1800  -34.0060   37.1760 C   0  0  0  0  0  0  0  0  0  0  0  0
   19.4660  -34.4460   35.9130 O   0  0  0  0  0  0  0  0  0  0  0  0
   19.2610  -32.6630   37.5540 C   0  0  0  0  0  0  0  0  0  0  0  0
   19.6650  -31.6200   36.6100 C   0  0  0  0  0  0  0  0  0  0  0  0
   19.9440  -31.8730   35.4410 O   0  0  0  0  0  0  0  0  0  0  0  0
   19.7260  -30.2280   37.1130 C   0  0  0  0  0  0  0  0  0  0  0  0
   20.0940  -29.2480   36.2100 O   0  0  0  0  0  0  0  0  0  0  0  0
   20.0940  -28.3870   40.2050 C   0  0  0  0  0  0  0  0  0  0  0  0
   20.0710  -27.1110   40.7740 C   0  0  0  0  0  0  0  0  0  0  0  0
   19.3700  -26.0610   40.1620 C   0  0  0  0  0  0  0  0  0  0  0  0
   19.3650  -24.6960   40.8030 C   0  0  0  0  0  0  0  0  0  0  0  0
   20.1680  -23.7940   40.1650 F   0  0  0  0  0  0  0  0  0  0  0  0
   17.7473  -23.9564   36.6212 H   0  0  0  0  0  0  0  0  0  0  0  0
   19.3003  -25.0586   36.6789 H   0  0  0  0  0  0  0  0  0  0  0  0
   16.9615  -24.9399   38.6905 H   0  0  0  0  0  0  0  0  0  0  0  0
   18.1679  -27.7913   37.4611 H   0  0  0  0  0  0  0  0  0  0  0  0
   18.3213  -32.9488   40.8206 H   0  0  0  0  0  0  0  0  0  0  0  0
   18.1765  -35.3495   40.1474 H   0  0  0  0  0  0  0  0  0  0  0  0
   18.7264  -36.0261   37.8068 H   0  0  0  0  0  0  0  0  0  0  0  0
   19.9960  -33.9240   35.3430 H   0  0  0  0  0  0  0  0  0  0  0  0
   19.5890  -28.4610   36.1410 H   0  0  0  0  0  0  0  0  0  0  0  0
   20.6473  -29.1955   40.7051 H   0  0  0  0  0  0  0  0  0  0  0  0
   20.6101  -26.9271   41.7150 H   0  0  0  0  0  0  0  0  0  0  0  0
   18.3345  -24.3114   40.7961 H   0  0  0  0  0  0  0  0  0  0  0  0
   19.7576  -24.8152   41.8236 H   0  0  0  0  0  0  0  0  0  0  0  0
  1  2  2  0
  2  3  1  0
  3  4  2  0
  4  5  1  0
  5  6  1  0
  6  7  1  0
  7  8  1  0
  8  9  2  0
  9 10  1  0
 10 11  2  0
 11 12  1  0
 12 13  1  0
 12 14  2  0
 14 15  1  0
 15 16  2  0
 15 17  1  0
 17 18  1  0
  5 19  2  0
 19 20  1  0
 20 21  2  0
 21 22  1  0
 22 23  1  0
 21  3  1  0
 17  6  2  0
 14  8  1  0
  1 24  1  0
  1 25  1  0
  2 26  1  0
  4 27  1  0
  9 28  1  0
 10 29  1  0
 11 30  1  0
 13 31  1  0
 18 32  1  0
 19 33  1  0
 20 34  1  0
 22 35  1  0
 22 36  1  0
M  END
>  <meeko>  (4) 
{"is_sidechain": [false], "free_energy": -7.168, "intermolecular_energy": -8.952, "internal_energy": -0.379}

$$$$
cand_035_out
     RDKit          3D

 36 38  0  0  0  0  0  0  0  0999 V2000
   22.3290  -27.6530   41.9940 C   0  0  0  0  0  0  0  0  0  0  0  0
   21.0520  -27.2650   42.0830 C   0  0  0  0  0  0  0  0  0  0  0  0
   20.1520  -27.2940   40.9260 C   0  0  0  0  0  0  0  0  0  0  0  0
   20.2450  -28.3880   40.0490 C   0  0  0  0  0  0  0  0  0  0  0  0
   19.4200  -28.4910   38.9200 C   0  0  0  0  0  0  0  0  0  0  0  0
   19.5640  -29.6420   38.0050 C   0  0  0  0  0  0  0  0  0  0  0  0
   19.9020  -29.2630   36.7100 O   0  0  0  0  0  0  0  0  0  0  0  0
   20.0680  -30.2350   35.7570 C   0  0  0  0  0  0  0  0  0  0  0  0
   20.3930  -29.8100   34.4680 C   0  0  0  0  0  0  0  0  0  0  0  0
   20.5780  -30.7490   33.4510 C   0  0  0  0  0  0  0  0  0  0  0  0
   20.4380  -32.1120   33.7220 C   0  0  0  0  0  0  0  0  0  0  0  0
   20.1130  -32.5330   35.0090 C   0  0  0  0  0  0  0  0  0  0  0  0
   19.9930  -33.8820   35.2050 O   0  0  0  0  0  0  0  0  0  0  0  0
   19.9280  -31.5930   36.0270 C   0  0  0  0  0  0  0  0  0  0  0  0
   19.5870  -31.9950   37.3920 C   0  0  0  0  0  0  0  0  0  0  0  0
   19.4540  -33.1730   37.7110 O   0  0  0  0  0  0  0  0  0  0  0  0
   19.4060  -30.9200   38.3960 C   0  0  0  0  0  0  0  0  0  0  0  0
   19.0980  -31.3080   39.6860 O   0  0  0  0  0  0  0  0  0  0  0  0
   18.5030  -27.4630   38.6710 C   0  0  0  0  0  0  0  0  0  0  0  0
   18.4020  -26.3710   39.5370 C   0  0  0  0  0  0  0  0  0  0  0  0
   19.2200  -26.2730   40.6720 C   0  0  0  0  0  0  0  0  0  0  0  0
   19.0860  -25.0810   41.5860 C   0  0  0  0  0  0  0  0  0  0  0  0
   20.0030  -24.0990   41.3350 F   0  0  0  0  0  0  0  0  0  0  0  0
   22.9774  -27.6186   42.8819 H   0  0  0  0  0  0  0  0  0  0  0  0
   22.7307  -28.0064   41.0329 H   0  0  0  0  0  0  0  0  0  0  0  0
   20.6662  -26.9143   43.0516 H   0  0  0  0  0  0  0  0  0  0  0  0
   20.9805  -29.1802   40.2525 H   0  0  0  0  0  0  0  0  0  0  0  0
   20.5033  -28.7368   34.2534 H   0  0  0  0  0  0  0  0  0  0  0  0
   20.8344  -30.4147   32.4349 H   0  0  0  0  0  0  0  0  0  0  0  0
   20.5841  -32.8512   32.9206 H   0  0  0  0  0  0  0  0  0  0  0  0
   19.5580  -34.2080   35.9680 H   0  0  0  0  0  0  0  0  0  0  0  0
   18.4140  -31.9310   39.8380 H   0  0  0  0  0  0  0  0  0  0  0  0
   17.8548  -27.5154   37.7838 H   0  0  0  0  0  0  0  0  0  0  0  0
   17.6706  -25.5771   39.3255 H   0  0  0  0  0  0  0  0  0  0  0  0
   18.0785  -24.6574   41.4613 H   0  0  0  0  0  0  0  0  0  0  0  0
   19.2634  -25.4366   42.6117 H   0  0  0  0  0  0  0  0  0  0  0  0
  1  2  2  0
  2  3  1  0
  3  4  2  0
  4  5  1  0
  5  6  1  0
  6  7  1  0
  7  8  1  0
  8  9  2  0
  9 10  1  0
 10 11  2  0
 11 12  1  0
 12 13  1  0
 12 14  2  0
 14 15  1  0
 15 16  2  0
 15 17  1  0
 17 18  1  0
  5 19  2  0
 19 20  1  0
 20 21  2  0
 21 22  1  0
 22 23  1  0
 21  3  1  0
 17  6  2  0
 14  8  1  0
  1 24  1  0
  1 25  1  0
  2 26  1  0
  4 27  1  0
  9 28  1  0
 10 29  1  0
 11 30  1  0
 13 31  1  0
 18 32  1  0
 19 33  1  0
 20 34  1  0
 22 35  1  0
 22 36  1  0
M  END
>  <meeko>  (5) 
{"is_sidechain": [false], "free_energy": -7.106, "intermolecular_energy": -8.834, "internal_energy": -0.42}

$$$$
cand_035_out
     RDKit          3D

 36 38  0  0  0  0  0  0  0  0999 V2000
   19.3780  -23.6660   37.9560 C   0  0  0  0  0  0  0  0  0  0  0  0
   19.6020  -24.8490   37.3720 C   0  0  0  0  0  0  0  0  0  0  0  0
   19.5990  -26.1010   38.1350 C   0  0  0  0  0  0  0  0  0  0  0  0
   20.3350  -26.1430   39.3310 C   0  0  0  0  0  0  0  0  0  0  0  0
   20.3840  -27.3030   40.1180 C   0  0  0  0  0  0  0  0  0  0  0  0
   21.1910  -27.3190   41.3560 C   0  0  0  0  0  0  0  0  0  0  0  0
   22.1920  -28.2830   41.3350 O   0  0  0  0  0  0  0  0  0  0  0  0
   23.0170  -28.4070   42.4240 C   0  0  0  0  0  0  0  0  0  0  0  0
   23.9990  -29.3960   42.3660 C   0  0  0  0  0  0  0  0  0  0  0  0
   24.8730  -29.5740   43.4410 C   0  0  0  0  0  0  0  0  0  0  0  0
   24.7650  -28.7620   44.5720 C   0  0  0  0  0  0  0  0  0  0  0  0
   23.7840  -27.7750   44.6270 C   0  0  0  0  0  0  0  0  0  0  0  0
   23.7360  -27.0150   45.7640 O   0  0  0  0  0  0  0  0  0  0  0  0
   22.9090  -27.5980   43.5510 C   0  0  0  0  0  0  0  0  0  0  0  0
   21.8650  -26.5730   43.5690 C   0  0  0  0  0  0  0  0  0  0  0  0
   21.7120  -25.8150   44.5240 O   0  0  0  0  0  0  0  0  0  0  0  0
   20.9860  -26.4720   42.3820 C   0  0  0  0  0  0  0  0  0  0  0  0
   20.0120  -25.4910   42.4000 O   0  0  0  0  0  0  0  0  0  0  0  0
   19.6900  -28.4350   39.6770 C   0  0  0  0  0  0  0  0  0  0  0  0
   18.9550  -28.4040   38.4890 C   0  0  0  0  0  0  0  0  0  0  0  0
   18.8970  -27.2410   37.7060 C   0  0  0  0  0  0  0  0  0  0  0  0
   18.0960  -27.2420   36.4290 C   0  0  0  0  0  0  0  0  0  0  0  0
   18.8590  -27.4080   35.3090 F   0  0  0  0  0  0  0  0  0  0  0  0
   19.3872  -22.7451   37.3544 H   0  0  0  0  0  0  0  0  0  0  0  0
   19.1846  -23.6144   39.0376 H   0  0  0  0  0  0  0  0  0  0  0  0
   19.7937  -24.8831   36.2894 H   0  0  0  0  0  0  0  0  0  0  0  0
   20.8843  -25.2475   39.6570 H   0  0  0  0  0  0  0  0  0  0  0  0
   24.0850  -30.0350   41.4748 H   0  0  0  0  0  0  0  0  0  0  0  0
   25.6470  -30.3544   43.3966 H   0  0  0  0  0  0  0  0  0  0  0  0
   25.4538  -28.9018   45.4182 H   0  0  0  0  0  0  0  0  0  0  0  0
   23.5220  -26.1040   45.7110 H   0  0  0  0  0  0  0  0  0  0  0  0
   19.8890  -24.9670   43.1680 H   0  0  0  0  0  0  0  0  0  0  0  0
   19.7233  -29.3596   40.2720 H   0  0  0  0  0  0  0  0  0  0  0  0
   18.4139  -29.3045   38.1628 H   0  0  0  0  0  0  0  0  0  0  0  0
   17.3647  -28.0623   36.4771 H   0  0  0  0  0  0  0  0  0  0  0  0
   17.6126  -26.2572   36.3488 H   0  0  0  0  0  0  0  0  0  0  0  0
  1  2  2  0
  2  3  1  0
  3  4  2  0
  4  5  1  0
  5  6  1  0
  6  7  1  0
  7  8  1  0
  8  9  2  0
  9 10  1  0
 10 11  2  0
 11 12  1  0
 12 13  1  0
 12 14  2  0
 14 15  1  0
 15 16  2  0
 15 17  1  0
 17 18  1  0
  5 19  2  0
 19 20  1  0
 20 21  2  0
 21 22  1  0
 22 23  1  0
 21  3  1  0
 17  6  2  0
 14  8  1  0
  1 24  1  0
  1 25  1  0
  2 26  1  0
  4 27  1  0
  9 28  1  0
 10 29  1  0
 11 30  1  0
 13 31  1  0
 18 32  1  0
 19 33  1  0
 20 34  1  0
 22 35  1  0
 22 36  1  0
M  END
>  <meeko>  (6) 
{"is_sidechain": [false], "free_energy": -7.059, "intermolecular_energy": -8.793, "internal_energy": -0.404}

$$$$
cand_035_out
     RDKit          3D

 36 38  0  0  0  0  0  0  0  0999 V2000
   24.0460  -29.8760   42.3520 C   0  0  0  0  0  0  0  0  0  0  0  0
   24.0070  -28.5380   42.3610 C   0  0  0  0  0  0  0  0  0  0  0  0
   22.7400  -27.8010   42.3860 C   0  0  0  0  0  0  0  0  0  0  0  0
   22.1020  -27.5500   41.1590 C   0  0  0  0  0  0  0  0  0  0  0  0
   20.8880  -26.8510   41.0980 C   0  0  0  0  0  0  0  0  0  0  0  0
   20.2590  -26.5820   39.7880 C   0  0  0  0  0  0  0  0  0  0  0  0
   20.0860  -25.2240   39.5400 O   0  0  0  0  0  0  0  0  0  0  0  0
   19.5130  -24.8340   38.3580 C   0  0  0  0  0  0  0  0  0  0  0  0
   19.3460  -23.4630   38.1560 C   0  0  0  0  0  0  0  0  0  0  0  0
   18.7700  -22.9980   36.9720 C   0  0  0  0  0  0  0  0  0  0  0  0
   18.3610  -23.9030   35.9900 C   0  0  0  0  0  0  0  0  0  0  0  0
   18.5290  -25.2710   36.1940 C   0  0  0  0  0  0  0  0  0  0  0  0
   18.1080  -26.1000   35.1900 O   0  0  0  0  0  0  0  0  0  0  0  0
   19.1050  -25.7360   37.3790 C   0  0  0  0  0  0  0  0  0  0  0  0
   19.2990  -27.1640   37.6320 C   0  0  0  0  0  0  0  0  0  0  0  0
   18.9730  -28.0210   36.8140 O   0  0  0  0  0  0  0  0  0  0  0  0
   19.9130  -27.5530   38.9230 C   0  0  0  0  0  0  0  0  0  0  0  0
   20.1060  -28.9030   39.1470 O   0  0  0  0  0  0  0  0  0  0  0  0
   20.3260  -26.3880   42.2930 C   0  0  0  0  0  0  0  0  0  0  0  0
   20.9530  -26.6310   43.5190 C   0  0  0  0  0  0  0  0  0  0  0  0
   22.1620  -27.3400   43.5820 C   0  0  0  0  0  0  0  0  0  0  0  0
   22.8120  -27.5850   44.9200 C   0  0  0  0  0  0  0  0  0  0  0  0
   22.7180  -28.8810   45.3400 F   0  0  0  0  0  0  0  0  0  0  0  0
   25.0141  -30.3979   42.3332 H   0  0  0  0  0  0  0  0  0  0  0  0
   23.1099  -30.4536   42.3635 H   0  0  0  0  0  0  0  0  0  0  0  0
   24.9523  -27.9756   42.3493 H   0  0  0  0  0  0  0  0  0  0  0  0
   22.5644  -27.9092   40.2278 H   0  0  0  0  0  0  0  0  0  0  0  0
   19.6679  -22.7495   38.9288 H   0  0  0  0  0  0  0  0  0  0  0  0
   18.6382  -21.9176   36.8125 H   0  0  0  0  0  0  0  0  0  0  0  0
   17.9072  -23.5365   35.0574 H   0  0  0  0  0  0  0  0  0  0  0  0
   18.5500  -26.0990   34.3640 H   0  0  0  0  0  0  0  0  0  0  0  0
   19.6330  -29.5340   38.6420 H   0  0  0  0  0  0  0  0  0  0  0  0
   19.3804  -25.8266   42.2676 H   0  0  0  0  0  0  0  0  0  0  0  0
   20.4920  -26.2612   44.4468 H   0  0  0  0  0  0  0  0  0  0  0  0
   23.8768  -27.3195   44.8441 H   0  0  0  0  0  0  0  0  0  0  0  0
   22.2803  -26.9656   45.6573 H   0  0  0  0  0  0  0  0  0  0  0  0
  1  2  2  0
  2  3  1  0
  3  4  2  0
  4  5  1  0
  5  6  1  0
  6  7  1  0
  7  8  1  0
  8  9  2  0
  9 10  1  0
 10 11  2  0
 11 12  1  0
 12 13  1  0
 12 14  2  0
 14 15  1  0
 15 16  2  0
 15 17  1  0
 17 18  1  0
  5 19  2  0
 19 20  1  0
 20 21  2  0
 21 22  1  0
 22 23  1  0
 21  3  1  0
 17  6  2  0
 14  8  1  0
  1 24  1  0
  1 25  1  0
  2 26  1  0
  4 27  1  0
  9 28  1  0
 10 29  1  0
 11 30  1  0
 13 31  1  0
 18 32  1  0
 19 33  1  0
 20 34  1  0
 22 35  1  0
 22 36  1  0
M  END
>  <meeko>  (7) 
{"is_sidechain": [false], "free_energy": -6.889, "intermolecular_energy": -8.575, "internal_energy": -0.412}

$$$$
cand_035_out
     RDKit          3D

 36 38  0  0  0  0  0  0  0  0999 V2000
   22.1740  -25.3150   45.5760 C   0  0  0  0  0  0  0  0  0  0  0  0
   22.6220  -26.5600   45.3730 C   0  0  0  0  0  0  0  0  0  0  0  0
   22.6800  -27.1520   44.0330 C   0  0  0  0  0  0  0  0  0  0  0  0
   21.7460  -26.7130   43.0800 C   0  0  0  0  0  0  0  0  0  0  0  0
   21.7350  -27.2310   41.7760 C   0  0  0  0  0  0  0  0  0  0  0  0
   20.7200  -26.7660   40.8080 C   0  0  0  0  0  0  0  0  0  0  0  0
   20.6170  -25.3800   40.7590 O   0  0  0  0  0  0  0  0  0  0  0  0
   19.7100  -24.8130   39.9010 C   0  0  0  0  0  0  0  0  0  0  0  0
   19.6300  -23.4190   39.8940 C   0  0  0  0  0  0  0  0  0  0  0  0
   18.7280  -22.7780   39.0410 C   0  0  0  0  0  0  0  0  0  0  0  0
   17.9090  -23.5300   38.1950 C   0  0  0  0  0  0  0  0  0  0  0  0
   17.9920  -24.9200   38.2050 C   0  0  0  0  0  0  0  0  0  0  0  0
   17.1610  -25.5930   37.3500 O   0  0  0  0  0  0  0  0  0  0  0  0
   18.8940  -25.5610   39.0580 C   0  0  0  0  0  0  0  0  0  0  0  0
   19.0120  -27.0190   39.0980 C   0  0  0  0  0  0  0  0  0  0  0  0
   18.3320  -27.7480   38.3800 O   0  0  0  0  0  0  0  0  0  0  0  0
   19.9930  -27.6000   40.0430 C   0  0  0  0  0  0  0  0  0  0  0  0
   20.1090  -28.9770   40.0640 O   0  0  0  0  0  0  0  0  0  0  0  0
   22.6730  -28.2150   41.4450 C   0  0  0  0  0  0  0  0  0  0  0  0
   23.6060  -28.6590   42.3850 C   0  0  0  0  0  0  0  0  0  0  0  0
   23.6240  -28.1340   43.6860 C   0  0  0  0  0  0  0  0  0  0  0  0
   24.6440  -28.6360   44.6770 C   0  0  0  0  0  0  0  0  0  0  0  0
   25.6970  -29.2800   44.0940 F   0  0  0  0  0  0  0  0  0  0  0  0
   22.1435  -24.9007   46.5945 H   0  0  0  0  0  0  0  0  0  0  0  0
   21.8364  -24.7062   44.7243 H   0  0  0  0  0  0  0  0  0  0  0  0
   22.9559  -27.1554   46.2355 H   0  0  0  0  0  0  0  0  0  0  0  0
   21.0081  -25.9474   43.3618 H   0  0  0  0  0  0  0  0  0  0  0  0
   20.2759  -22.8266   40.5588 H   0  0  0  0  0  0  0  0  0  0  0  0
   18.6626  -21.6800   39.0355 H   0  0  0  0  0  0  0  0  0  0  0  0
   17.2000  -23.0251   37.5224 H   0  0  0  0  0  0  0  0  0  0  0  0
   17.0300  -26.5150   37.4530 H   0  0  0  0  0  0  0  0  0  0  0  0
   19.4470  -29.5090   39.6660 H   0  0  0  0  0  0  0  0  0  0  0  0
   22.6758  -28.6442   40.4322 H   0  0  0  0  0  0  0  0  0  0  0  0
   24.3366  -29.4308   42.1013 H   0  0  0  0  0  0  0  0  0  0  0  0
   25.0317  -27.7765   45.2436 H   0  0  0  0  0  0  0  0  0  0  0  0
   24.1354  -29.3661   45.3238 H   0  0  0  0  0  0  0  0  0  0  0  0
  1  2  2  0
  2  3  1  0
  3  4  2  0
  4  5  1  0
  5  6  1  0
  6  7  1  0
  7  8  1  0
  8  9  2  0
  9 10  1  0
 10 11  2  0
 11 12  1  0
 12 13  1  0
 12 14  2  0
 14 15  1  0
 15 16  2  0
 15 17  1  0
 17 18  1  0
  5 19  2  0
 19 20  1  0
 20 21  2  0
 21 22  1  0
 22 23  1  0
 21  3  1  0
 17  6  2  0
 14  8  1  0
  1 24  1  0
  1 25  1  0
  2 26  1  0
  4 27  1  0
  9 28  1  0
 10 29  1  0
 11 30  1  0
 13 31  1  0
 18 32  1  0
 19 33  1  0
 20 34  1  0
 22 35  1  0
 22 36  1  0
M  END
>  <meeko>  (8) 
{"is_sidechain": [false], "free_energy": -6.839, "intermolecular_energy": -8.691, "internal_energy": -0.235}

$$$$
cand_035_out
     RDKit          3D

 36 38  0  0  0  0  0  0  0  0999 V2000
   20.6210  -31.2860   34.6400 C   0  0  0  0  0  0  0  0  0  0  0  0
   20.0840  -32.0940   35.5610 C   0  0  0  0  0  0  0  0  0  0  0  0
   19.6780  -31.6020   36.8800 C   0  0  0  0  0  0  0  0  0  0  0  0
   19.6950  -30.2140   37.0960 C   0  0  0  0  0  0  0  0  0  0  0  0
   19.3210  -29.6630   38.3310 C   0  0  0  0  0  0  0  0  0  0  0  0
   19.3780  -28.2000   38.5310 C   0  0  0  0  0  0  0  0  0  0  0  0
   18.6010  -27.4990   37.6150 O   0  0  0  0  0  0  0  0  0  0  0  0
   18.5620  -26.1310   37.6870 C   0  0  0  0  0  0  0  0  0  0  0  0
   17.7810  -25.4670   36.7400 C   0  0  0  0  0  0  0  0  0  0  0  0
   17.6970  -24.0730   36.7590 C   0  0  0  0  0  0  0  0  0  0  0  0
   18.3930  -23.3430   37.7250 C   0  0  0  0  0  0  0  0  0  0  0  0
   19.1720  -24.0080   38.6690 C   0  0  0  0  0  0  0  0  0  0  0  0
   19.8260  -23.2310   39.5870 O   0  0  0  0  0  0  0  0  0  0  0  0
   19.2560  -25.4030   38.6500 C   0  0  0  0  0  0  0  0  0  0  0  0
   20.0630  -26.1390   39.6240 C   0  0  0  0  0  0  0  0  0  0  0  0
   20.6970  -25.5690   40.5080 O   0  0  0  0  0  0  0  0  0  0  0  0
   20.0910  -27.6160   39.5120 C   0  0  0  0  0  0  0  0  0  0  0  0
   20.8430  -28.3040   40.4450 O   0  0  0  0  0  0  0  0  0  0  0  0
   18.9430  -30.5330   39.3600 C   0  0  0  0  0  0  0  0  0  0  0  0
   18.9230  -31.9150   39.1560 C   0  0  0  0  0  0  0  0  0  0  0  0
   19.2860  -32.4660   37.9180 C   0  0  0  0  0  0  0  0  0  0  0  0
   19.2540  -33.9620   37.7300 C   0  0  0  0  0  0  0  0  0  0  0  0
   19.6330  -34.6570   38.8430 F   0  0  0  0  0  0  0  0  0  0  0  0
   20.9148  -31.6885   33.6593 H   0  0  0  0  0  0  0  0  0  0  0  0
   20.7688  -30.2191   34.8633 H   0  0  0  0  0  0  0  0  0  0  0  0
   19.9432  -33.1583   35.3212 H   0  0  0  0  0  0  0  0  0  0  0  0
   20.0079  -29.5456   36.2804 H   0  0  0  0  0  0  0  0  0  0  0  0
   17.2320  -26.0411   35.9791 H   0  0  0  0  0  0  0  0  0  0  0  0
   17.0819  -23.5495   36.0123 H   0  0  0  0  0  0  0  0  0  0  0  0
   18.3261  -22.2451   37.7403 H   0  0  0  0  0  0  0  0  0  0  0  0
   19.3870  -22.5050   39.9850 H   0  0  0  0  0  0  0  0  0  0  0  0
   21.6430  -27.9360   40.7660 H   0  0  0  0  0  0  0  0  0  0  0  0
   18.6584  -30.1240   40.3407 H   0  0  0  0  0  0  0  0  0  0  0  0
   18.6184  -32.5802   39.9774 H   0  0  0  0  0  0  0  0  0  0  0  0
   18.2280  -34.2584   37.4665 H   0  0  0  0  0  0  0  0  0  0  0  0
   19.9743  -34.2047   36.9348 H   0  0  0  0  0  0  0  0  0  0  0  0
  1  2  2  0
  2  3  1  0
  3  4  2  0
  4  5  1  0
  5  6  1  0
  6  7  1  0
  7  8  1  0
  8  9  2  0
  9 10  1  0
 10 11  2  0
 11 12  1  0
 12 13  1  0
 12 14  2  0
 14 15  1  0
 15 16  2  0
 15 17  1  0
 17 18  1  0
  5 19  2  0
 19 20  1  0
 20 21  2  0
 21 22  1  0
 22 23  1  0
 21  3  1  0
 17  6  2  0
 14  8  1  0
  1 24  1  0
  1 25  1  0
  2 26  1  0
  4 27  1  0
  9 28  1  0
 10 29  1  0
 11 30  1  0
 13 31  1  0
 18 32  1  0
 19 33  1  0
 20 34  1  0
 22 35  1  0
 22 36  1  0
M  END
>  <meeko>  (9) 
{"is_sidechain": [false], "free_energy": -6.664, "intermolecular_energy": -8.373, "internal_energy": -0.337}

$$$$
