cand_037_out
     RDKit          3D

 35 37  0  0  0  0  0  0  0  0999 V2000
   21.0610  -27.1410   41.8380 C   0  0  0  0  0  0  0  0  0  0  0  0
   20.0800  -27.4240   40.7340 C   0  0  0  0  0  0  0  0  0  0  0  0
   20.1040  -28.6830   40.1070 C   0  0  0  0  0  0  0  0  0  0  0  0
   19.2170  -29.0060   39.0690 C   0  0  0  0  0  0  0  0  0  0  0  0
   19.2900  -30.3350   38.4240 C   0  0  0  0  0  0  0  0  0  0  0  0
   18.8510  -31.3620   39.2520 O   0  0  0  0  0  0  0  0  0  0  0  0
   18.8640  -32.6490   38.7780 C   0  0  0  0  0  0  0  0  0  0  0  0
   18.4280  -33.6500   39.6480 C   0  0  0  0  0  0  0  0  0  0  0  0
   18.4160  -34.9810   39.2270 C   0  0  0  0  0  0  0  0  0  0  0  0
   18.8370  -35.3120   37.9370 C   0  0  0  0  0  0  0  0  0  0  0  0
   19.2700  -34.3120   37.0710 C   0  0  0  0  0  0  0  0  0  0  0  0
   19.6680  -34.7050   35.8230 O   0  0  0  0  0  0  0  0  0  0  0  0
   19.2840  -32.9790   37.4930 C   0  0  0  0  0  0  0  0  0  0  0  0
   19.7320  -31.8970   36.6140 C   0  0  0  0  0  0  0  0  0  0  0  0
   20.1100  -32.1070   35.4650 O   0  0  0  0  0  0  0  0  0  0  0  0
   19.7160  -30.5200   37.1610 C   0  0  0  0  0  0  0  0  0  0  0  0
   20.1280  -29.5040   36.3180 O   0  0  0  0  0  0  0  0  0  0  0  0
   18.3090  -28.0320   38.6440 C   0  0  0  0  0  0  0  0  0  0  0  0
   18.2790  -26.7720   39.2480 C   0  0  0  0  0  0  0  0  0  0  0  0
   19.1670  -26.4480   40.2870 C   0  0  0  0  0  0  0  0  0  0  0  0
   19.0850  -25.0820   40.9200 C   0  0  0  0  0  0  0  0  0  0  0  0
   20.0210  -24.2090   40.4490 F   0  0  0  0  0  0  0  0  0  0  0  0
   20.5686  -27.2830   42.8113 H   0  0  0  0  0  0  0  0  0  0  0  0
   21.9149  -27.8294   41.7551 H   0  0  0  0  0  0  0  0  0  0  0  0
   21.4170  -26.1035   41.7551 H   0  0  0  0  0  0  0  0  0  0  0  0
   20.8367  -29.4333   40.4389 H   0  0  0  0  0  0  0  0  0  0  0  0
   18.0945  -33.3904   40.6636 H   0  0  0  0  0  0  0  0  0  0  0  0
   18.0744  -35.7705   39.9125 H   0  0  0  0  0  0  0  0  0  0  0  0
   18.8264  -36.3610   37.6061 H   0  0  0  0  0  0  0  0  0  0  0  0
   19.3100  -34.2880   35.0640 H   0  0  0  0  0  0  0  0  0  0  0  0
   21.0420  -29.3340   36.2020 H   0  0  0  0  0  0  0  0  0  0  0  0
   17.6105  -28.2596   37.8253 H   0  0  0  0  0  0  0  0  0  0  0  0
   17.5497  -26.0234   38.9049 H   0  0  0  0  0  0  0  0  0  0  0  0
   18.0871  -24.6645   40.7200 H   0  0  0  0  0  0  0  0  0  0  0  0
   19.2741  -25.2111   41.9959 H   0  0  0  0  0  0  0  0  0  0  0  0
  1  2  1  0
  2  3  2  0
  3  4  1  0
  4  5  1  0
  5  6  1  0
  6  7  1  0
  7  8  2  0
  8  9  1  0
  9 10  2  0
 10 11  1  0
 11 12  1  0
 11 13  2  0
 13 14  1  0
 14 15  2  0
 14 16  1  0
 16 17  1  0
  4 18  2  0
 18 19  1  0
 19 20  2  0
 20 21  1  0
 21 22  1  0
 20  2  1  0
 16  5  2  0
 13  7  1  0
  1 23  1  0
  1 24  1  0
  1 25  1  0
  3 26  1  0
  8 27  1  0
  9 28  1  0
 10 29  1  0
 12 30  1  0
 17 31  1  0
 18 32  1  0
 19 33  1  0
 21 34  1  0
 21 35  1  0
M  END
>  <meeko>  (1) 
{"is_sidechain": [false], "free_energy": -7.816, "intermolecular_energy": -9.187, "internal_energy": -0.36}

$$$$
cand_037_out
     RDKit          3D

 35 37  0  0  0  0  0  0  0  0999 V2000
   18.3890  -33.7770   39.1000 C   0  0  0  0  0  0  0  0  0  0  0  0
   18.9020  -32.5340   38.4260 C   0  0  0  0  0  0  0  0  0  0  0  0
   18.8400  -31.3090   39.1160 C   0  0  0  0  0  0  0  0  0  0  0  0
   19.2990  -30.1150   38.5400 C   0  0  0  0  0  0  0  0  0  0  0  0
   19.1960  -28.8470   39.2930 C   0  0  0  0  0  0  0  0  0  0  0  0
   20.1010  -28.7690   40.3450 O   0  0  0  0  0  0  0  0  0  0  0  0
   20.1150  -27.6420   41.1270 C   0  0  0  0  0  0  0  0  0  0  0  0
   21.0290  -27.6120   42.1810 C   0  0  0  0  0  0  0  0  0  0  0  0
   21.0950  -26.4940   43.0140 C   0  0  0  0  0  0  0  0  0  0  0  0
   20.2490  -25.4050   42.7940 C   0  0  0  0  0  0  0  0  0  0  0  0
   19.3380  -25.4360   41.7410 C   0  0  0  0  0  0  0  0  0  0  0  0
   18.5400  -24.3370   41.5820 O   0  0  0  0  0  0  0  0  0  0  0  0
   19.2710  -26.5570   40.9080 C   0  0  0  0  0  0  0  0  0  0  0  0
   18.3280  -26.6310   39.7910 C   0  0  0  0  0  0  0  0  0  0  0  0
   17.5560  -25.7120   39.5280 O   0  0  0  0  0  0  0  0  0  0  0  0
   18.3310  -27.8660   38.9720 C   0  0  0  0  0  0  0  0  0  0  0  0
   17.4470  -27.9200   37.9110 O   0  0  0  0  0  0  0  0  0  0  0  0
   19.8070  -30.1590   37.2380 C   0  0  0  0  0  0  0  0  0  0  0  0
   19.8650  -31.3650   36.5340 C   0  0  0  0  0  0  0  0  0  0  0  0
   19.4050  -32.5600   37.1100 C   0  0  0  0  0  0  0  0  0  0  0  0
   19.5050  -33.8400   36.3190 C   0  0  0  0  0  0  0  0  0  0  0  0
   20.1580  -33.6930   35.1310 F   0  0  0  0  0  0  0  0  0  0  0  0
   18.4412  -33.6504   40.1914 H   0  0  0  0  0  0  0  0  0  0  0  0
   17.3451  -33.9521   38.8007 H   0  0  0  0  0  0  0  0  0  0  0  0
   19.0055  -34.6374   38.8007 H   0  0  0  0  0  0  0  0  0  0  0  0
   18.4210  -31.2872   40.1328 H   0  0  0  0  0  0  0  0  0  0  0  0
   21.6968  -28.4686   42.3552 H   0  0  0  0  0  0  0  0  0  0  0  0
   21.8148  -26.4707   43.8454 H   0  0  0  0  0  0  0  0  0  0  0  0
   20.3020  -24.5244   43.4511 H   0  0  0  0  0  0  0  0  0  0  0  0
   17.6310  -24.3810   41.8060 H   0  0  0  0  0  0  0  0  0  0  0  0
   16.5270  -27.8170   38.0630 H   0  0  0  0  0  0  0  0  0  0  0  0
   20.1650  -29.2340   36.7624 H   0  0  0  0  0  0  0  0  0  0  0  0
   20.2769  -31.3781   35.5141 H   0  0  0  0  0  0  0  0  0  0  0  0
   20.0454  -34.5826   36.9243 H   0  0  0  0  0  0  0  0  0  0  0  0
   18.4782  -34.1598   36.0877 H   0  0  0  0  0  0  0  0  0  0  0  0
  1  2  1  0
  2  3  2  0
  3  4  1  0
  4  5  1  0
  5  6  1  0
  6  7  1  0
  7  8  2  0
  8  9  1  0
  9 10  2  0
 10 11  1  0
 11 12  1  0
 11 13  2  0
 13 14  1  0
 14 15  2  0
 14 16  1  0
 16 17  1  0
  4 18  2  0
 18 19  1  0
 19 20  2  0
 20 21  1  0
 21 22  1  0
 20  2  1  0
 16  5  2  0
 13  7  1  0
  1 23  1  0
  1 24  1  0
  1 25  1  0
  3 26  1  0
  8 27  1  0
  9 28  1  0
 10 29  1  0
 12 30  1  0
 17 31  1  0
 18 32  1  0
 19 33  1  0
 21 34  1  0
 21 35  1  0
M  END
>  <meeko>  (2) 
{"is_sidechain": [false], "free_energy": -7.472, "intermolecular_energy": -8.813, "internal_energy": -0.329}

$$$$
cand_037_out
     RDKit          3D

 35 37  0  0  0  0  0  0  0  0999 V2000
   17.9050  -25.3280   38.1110 C   0  0  0  0  0  0  0  0  0  0  0  0
   18.6800  -26.3980   38.8300 C   0  0  0  0  0  0  0  0  0  0  0  0
   18.7070  -27.6980   38.2920 C   0  0  0  0  0  0  0  0  0  0  0  0
   19.4090  -28.7390   38.9170 C   0  0  0  0  0  0  0  0  0  0  0  0
   19.3950  -30.0950   38.3280 C   0  0  0  0  0  0  0  0  0  0  0  0
   18.9810  -31.0710   39.2280 O   0  0  0  0  0  0  0  0  0  0  0  0
   18.9210  -32.3760   38.8110 C   0  0  0  0  0  0  0  0  0  0  0  0
   18.5140  -33.3240   39.7520 C   0  0  0  0  0  0  0  0  0  0  0  0
   18.4300  -34.6700   39.3920 C   0  0  0  0  0  0  0  0  0  0  0  0
   18.7500  -35.0690   38.0930 C   0  0  0  0  0  0  0  0  0  0  0  0
   19.1540  -34.1220   37.1550 C   0  0  0  0  0  0  0  0  0  0  0  0
   19.4520  -34.5810   35.9020 O   0  0  0  0  0  0  0  0  0  0  0  0
   19.2400  -32.7740   37.5170 C   0  0  0  0  0  0  0  0  0  0  0  0
   19.6610  -31.7460   36.5630 C   0  0  0  0  0  0  0  0  0  0  0  0
   19.9520  -32.0170   35.4010 O   0  0  0  0  0  0  0  0  0  0  0  0
   19.7260  -30.3470   37.0480 C   0  0  0  0  0  0  0  0  0  0  0  0
   20.1110  -29.3830   36.1350 O   0  0  0  0  0  0  0  0  0  0  0  0
   20.0750  -28.4650   40.1160 C   0  0  0  0  0  0  0  0  0  0  0  0
   20.0480  -27.1820   40.6700 C   0  0  0  0  0  0  0  0  0  0  0  0
   19.3460  -26.1400   40.0450 C   0  0  0  0  0  0  0  0  0  0  0  0
   19.3620  -24.7680   40.6710 C   0  0  0  0  0  0  0  0  0  0  0  0
   20.1750  -23.8870   40.0220 F   0  0  0  0  0  0  0  0  0  0  0  0
   17.4253  -24.6657   38.8467 H   0  0  0  0  0  0  0  0  0  0  0  0
   18.5889  -24.7411   37.4803 H   0  0  0  0  0  0  0  0  0  0  0  0
   17.1341  -25.7948   37.4803 H   0  0  0  0  0  0  0  0  0  0  0  0
   18.1638  -27.9029   37.3577 H   0  0  0  0  0  0  0  0  0  0  0  0
   18.2600  -33.0106   40.7753 H   0  0  0  0  0  0  0  0  0  0  0  0
   18.1111  -35.4177   40.1331 H   0  0  0  0  0  0  0  0  0  0  0  0
   18.6831  -36.1300   37.8106 H   0  0  0  0  0  0  0  0  0  0  0  0
   20.3030  -34.4340   35.5390 H   0  0  0  0  0  0  0  0  0  0  0  0
   20.9710  -29.0130   36.1800 H   0  0  0  0  0  0  0  0  0  0  0  0
   20.6258  -29.2676   40.6283 H   0  0  0  0  0  0  0  0  0  0  0  0
   20.5850  -26.9862   41.6098 H   0  0  0  0  0  0  0  0  0  0  0  0
   18.3371  -24.3685   40.6621 H   0  0  0  0  0  0  0  0  0  0  0  0
   19.7548  -24.8812   41.6922 H   0  0  0  0  0  0  0  0  0  0  0  0
  1  2  1  0
  2  3  2  0
  3  4  1  0
  4  5  1  0
  5  6  1  0
  6  7  1  0
  7  8  2  0
  8  9  1  0
  9 10  2  0
 10 11  1  0
 11 12  1  0
 11 13  2  0
 13 14  1  0
 14 15  2  0
 14 16  1  0
 16 17  1  0
  4 18  2  0
 18 19  1  0
 19 20  2  0
 20 21  1  0
 21 22  1  0
 20  2  1  0
 16  5  2  0
 13  7  1  0
  1 23  1  0
  1 24  1  0
  1 25  1  0
  3 26  1  0
  8 27  1  0
  9 28  1  0
 10 29  1  0
 12 30  1  0
 17 31  1  0
 18 32  1  0
 19 33  1  0
 21 34  1  0
 21 35  1  0
M  END
>  <meeko>  (3) 
{"is_sidechain": [false], "free_energy": -7.234, "intermolecular_energy": -8.678, "internal_energy": -0.184}

$$$$
cand_037_out
     RDKit          3D

 35 37  0  0  0  0  0  0  0  0999 V2000
   19.4220  -24.7610   37.4280 C   0  0  0  0  0  0  0  0  0  0  0  0
   19.4880  -26.0570   38.1900 C   0  0  0  0  0  0  0  0  0  0  0  0
   20.2380  -26.1110   39.3800 C   0  0  0  0  0  0  0  0  0  0  0  0
   20.3410  -27.2900   40.1330 C   0  0  0  0  0  0  0  0  0  0  0  0
   21.1560  -27.3070   41.3670 C   0  0  0  0  0  0  0  0  0  0  0  0
   22.1600  -28.2680   41.3360 O   0  0  0  0  0  0  0  0  0  0  0  0
   22.9930  -28.3920   42.4190 C   0  0  0  0  0  0  0  0  0  0  0  0
   23.9780  -29.3780   42.3520 C   0  0  0  0  0  0  0  0  0  0  0  0
   24.8590  -29.5560   43.4200 C   0  0  0  0  0  0  0  0  0  0  0  0
   24.7570  -28.7480   44.5540 C   0  0  0  0  0  0  0  0  0  0  0  0
   23.7740  -27.7640   44.6190 C   0  0  0  0  0  0  0  0  0  0  0  0
   23.7300  -27.0080   45.7590 O   0  0  0  0  0  0  0  0  0  0  0  0
   22.8910  -27.5870   43.5500 C   0  0  0  0  0  0  0  0  0  0  0  0
   21.8430  -26.5650   43.5780 C   0  0  0  0  0  0  0  0  0  0  0  0
   21.6930  -25.8120   44.5360 O   0  0  0  0  0  0  0  0  0  0  0  0
   20.9540  -26.4640   42.3960 C   0  0  0  0  0  0  0  0  0  0  0  0
   19.9760  -25.4870   42.4270 O   0  0  0  0  0  0  0  0  0  0  0  0
   19.6940  -28.4360   39.6620 C   0  0  0  0  0  0  0  0  0  0  0  0
   18.9550  -28.4030   38.4770 C   0  0  0  0  0  0  0  0  0  0  0  0
   18.8520  -27.2240   37.7220 C   0  0  0  0  0  0  0  0  0  0  0  0
   18.0280  -27.2310   36.4600 C   0  0  0  0  0  0  0  0  0  0  0  0
   18.7670  -27.4280   35.3310 F   0  0  0  0  0  0  0  0  0  0  0  0
   19.3792  -23.9208   38.1366 H   0  0  0  0  0  0  0  0  0  0  0  0
   20.3163  -24.6618   36.7952 H   0  0  0  0  0  0  0  0  0  0  0  0
   18.5223  -24.7531   36.7952 H   0  0  0  0  0  0  0  0  0  0  0  0
   20.7565  -25.2056   39.7283 H   0  0  0  0  0  0  0  0  0  0  0  0
   24.0602  -30.0144   41.4585 H   0  0  0  0  0  0  0  0  0  0  0  0
   25.6348  -30.3341   43.3681 H   0  0  0  0  0  0  0  0  0  0  0  0
   25.4522  -28.8885   45.3948 H   0  0  0  0  0  0  0  0  0  0  0  0
   22.9910  -27.0660   46.3310 H   0  0  0  0  0  0  0  0  0  0  0  0
   19.9290  -24.8950   43.1520 H   0  0  0  0  0  0  0  0  0  0  0  0
   19.7676  -29.3746   40.2309 H   0  0  0  0  0  0  0  0  0  0  0  0
   18.4462  -29.3145   38.1303 H   0  0  0  0  0  0  0  0  0  0  0  0
   17.2835  -28.0373   36.5343 H   0  0  0  0  0  0  0  0  0  0  0  0
   17.5601  -26.2393   36.3725 H   0  0  0  0  0  0  0  0  0  0  0  0
  1  2  1  0
  2  3  2  0
  3  4  1  0
  4  5  1  0
  5  6  1  0
  6  7  1  0
  7  8  2  0
  8  9  1  0
  9 10  2  0
 10 11  1  0
 11 12  1  0
 11 13  2  0
 13 14  1  0
 14 15  2  0
 14 16  1  0
 16 17  1  0
  4 18  2  0
 18 19  1  0
 19 20  2  0
 20 21  1  0
 21 22  1  0
 20  2  1  0
 16  5  2  0
 13  7  1  0
  1 23  1  0
  1 24  1  0
  1 25  1  0
  3 26  1  0
  8 27  1  0
  9 28  1  0
 10 29  1  0
 12 30  1  0
 17 31  1  0
 18 32  1  0
 19 33  1  0
 21 34  1  0
 21 35  1  0
M  END
>  <meeko>  (4) 
{"is_sidechain": [false], "free_energy": -7.035, "intermolecular_energy": -8.399, "internal_energy": -0.229}

$$$$
cand_037_out
     RDKit          3D

 35 37  0  0  0  0  0  0  0  0999 V2000
   21.0970  -27.1800   42.1170 C   0  0  0  0  0  0  0  0  0  0  0  0
   20.1600  -27.2490   40.9420 C   0  0  0  0  0  0  0  0  0  0  0  0
   20.2560  -28.3380   40.0570 C   0  0  0  0  0  0  0  0  0  0  0  0
   19.4140  -28.4580   38.9410 C   0  0  0  0  0  0  0  0  0  0  0  0
   19.5620  -29.6090   38.0260 C   0  0  0  0  0  0  0  0  0  0  0  0
   19.8810  -29.2290   36.7270 O   0  0  0  0  0  0  0  0  0  0  0  0
   20.0490  -30.2000   35.7740 C   0  0  0  0  0  0  0  0  0  0  0  0
   20.3540  -29.7720   34.4800 C   0  0  0  0  0  0  0  0  0  0  0  0
   20.5390  -30.7100   33.4630 C   0  0  0  0  0  0  0  0  0  0  0  0
   20.4200  -32.0740   33.7370 C   0  0  0  0  0  0  0  0  0  0  0  0
   20.1170  -32.4990   35.0280 C   0  0  0  0  0  0  0  0  0  0  0  0
   20.0160  -33.8480   35.2270 O   0  0  0  0  0  0  0  0  0  0  0  0
   19.9300  -31.5590   36.0460 C   0  0  0  0  0  0  0  0  0  0  0  0
   19.6090  -31.9620   37.4170 C   0  0  0  0  0  0  0  0  0  0  0  0
   19.4950  -33.1420   37.7380 O   0  0  0  0  0  0  0  0  0  0  0  0
   19.4240  -30.8880   38.4210 C   0  0  0  0  0  0  0  0  0  0  0  0
   19.1350  -31.2810   39.7150 O   0  0  0  0  0  0  0  0  0  0  0  0
   18.4770  -27.4470   38.7060 C   0  0  0  0  0  0  0  0  0  0  0  0
   18.3760  -26.3520   39.5690 C   0  0  0  0  0  0  0  0  0  0  0  0
   19.2190  -26.2320   40.6850 C   0  0  0  0  0  0  0  0  0  0  0  0
   19.0600  -25.0420   41.5980 C   0  0  0  0  0  0  0  0  0  0  0  0
   19.8390  -23.9800   41.2440 F   0  0  0  0  0  0  0  0  0  0  0  0
   20.5176  -27.2227   43.0510 H   0  0  0  0  0  0  0  0  0  0  0  0
   21.7952  -28.0292   42.0795 H   0  0  0  0  0  0  0  0  0  0  0  0
   21.6633  -26.2377   42.0795 H   0  0  0  0  0  0  0  0  0  0  0  0
   21.0108  -29.1158   40.2447 H   0  0  0  0  0  0  0  0  0  0  0  0
   20.4482  -28.6978   34.2627 H   0  0  0  0  0  0  0  0  0  0  0  0
   20.7791  -30.3739   32.4435 H   0  0  0  0  0  0  0  0  0  0  0  0
   20.5654  -32.8118   32.9342 H   0  0  0  0  0  0  0  0  0  0  0  0
   20.2460  -34.2180   36.0560 H   0  0  0  0  0  0  0  0  0  0  0  0
   18.2480  -31.4500   39.9650 H   0  0  0  0  0  0  0  0  0  0  0  0
   17.8120  -27.5141   37.8323 H   0  0  0  0  0  0  0  0  0  0  0  0
   17.6250  -25.5731   39.3707 H   0  0  0  0  0  0  0  0  0  0  0  0
   18.0070  -24.7245   41.5769 H   0  0  0  0  0  0  0  0  0  0  0  0
   19.3788  -25.3582   42.6022 H   0  0  0  0  0  0  0  0  0  0  0  0
  1  2  1  0
  2  3  2  0
  3  4  1  0
  4  5  1  0
  5  6  1  0
  6  7  1  0
  7  8  2  0
  8  9  1  0
  9 10  2  0
 10 11  1  0
 11 12  1  0
 11 13  2  0
 13 14  1  0
 14 15  2  0
 14 16  1  0
 16 17  1  0
  4 18  2  0
 18 19  1  0
 19 20  2  0
 20 21  1  0
 21 22  1  0
 20  2  1  0
 16  5  2  0
 13  7  1  0
  1 23  1  0
  1 24  1  0
  1 25  1  0
  3 26  1  0
  8 27  1  0
  9 28  1  0
 10 29  1  0
 12 30  1  0
 17 31  1  0
 18 32  1  0
 19 33  1  0
 21 34  1  0
 21 35  1  0
M  END
>  <meeko>  (5) 
{"is_sidechain": [false], "free_energy": -6.891, "intermolecular_energy": -8.193, "internal_energy": -0.266}

$$$$
cand_037_out
     RDKit          3D

 35 37  0  0  0  0  0  0  0  0999 V2000
   24.4060  -29.8520   42.1850 C   0  0  0  0  0  0  0  0  0  0  0  0
   23.4080  -28.8120   42.6160 C   0  0  0  0  0  0  0  0  0  0  0  0
   22.5090  -28.2950   41.6650 C   0  0  0  0  0  0  0  0  0  0  0  0
   21.5570  -27.3210   42.0050 C   0  0  0  0  0  0  0  0  0  0  0  0
   20.6450  -26.7900   40.9700 C   0  0  0  0  0  0  0  0  0  0  0  0
   20.5600  -25.4020   40.9850 O   0  0  0  0  0  0  0  0  0  0  0  0
   19.7480  -24.7770   40.0750 C   0  0  0  0  0  0  0  0  0  0  0  0
   19.6820  -23.3840   40.1360 C   0  0  0  0  0  0  0  0  0  0  0  0
   18.8750  -22.6850   39.2360 C   0  0  0  0  0  0  0  0  0  0  0  0
   18.1340  -23.3770   38.2750 C   0  0  0  0  0  0  0  0  0  0  0  0
   18.2020  -24.7670   38.2160 C   0  0  0  0  0  0  0  0  0  0  0  0
   17.4530  -25.3820   37.2510 O   0  0  0  0  0  0  0  0  0  0  0  0
   19.0090  -25.4660   39.1170 C   0  0  0  0  0  0  0  0  0  0  0  0
   19.1090  -26.9270   39.0900 C   0  0  0  0  0  0  0  0  0  0  0  0
   18.4950  -27.6060   38.2710 O   0  0  0  0  0  0  0  0  0  0  0  0
   19.9870  -27.5730   40.0940 C   0  0  0  0  0  0  0  0  0  0  0  0
   20.0850  -28.9510   40.0500 O   0  0  0  0  0  0  0  0  0  0  0  0
   21.5310  -26.8490   43.3210 C   0  0  0  0  0  0  0  0  0  0  0  0
   22.4240  -27.3450   44.2750 C   0  0  0  0  0  0  0  0  0  0  0  0
   23.3770  -28.3180   43.9350 C   0  0  0  0  0  0  0  0  0  0  0  0
   24.3080  -28.8360   45.0030 C   0  0  0  0  0  0  0  0  0  0  0  0
   25.6230  -28.7820   44.6480 F   0  0  0  0  0  0  0  0  0  0  0  0
   24.8549  -30.3198   43.0736 H   0  0  0  0  0  0  0  0  0  0  0  0
   23.8983  -30.6201   41.5831 H   0  0  0  0  0  0  0  0  0  0  0  0
   25.1944  -29.3764   41.5831 H   0  0  0  0  0  0  0  0  0  0  0  0
   22.5533  -28.6632   40.6294 H   0  0  0  0  0  0  0  0  0  0  0  0
   20.2650  -22.8376   40.8921 H   0  0  0  0  0  0  0  0  0  0  0  0
   18.8227  -21.5873   39.2838 H   0  0  0  0  0  0  0  0  0  0  0  0
   17.4984  -22.8255   37.5666 H   0  0  0  0  0  0  0  0  0  0  0  0
   16.8560  -26.0650   37.4850 H   0  0  0  0  0  0  0  0  0  0  0  0
   20.9210  -29.3570   39.9300 H   0  0  0  0  0  0  0  0  0  0  0  0
   20.7999  -26.0791   43.6085 H   0  0  0  0  0  0  0  0  0  0  0  0
   22.3794  -26.9674   45.3072 H   0  0  0  0  0  0  0  0  0  0  0  0
   24.1670  -28.2318   45.9113 H   0  0  0  0  0  0  0  0  0  0  0  0
   24.0588  -29.8951   45.1650 H   0  0  0  0  0  0  0  0  0  0  0  0
  1  2  1  0
  2  3  2  0
  3  4  1  0
  4  5  1  0
  5  6  1  0
  6  7  1  0
  7  8  2  0
  8  9  1  0
  9 10  2  0
 10 11  1  0
 11 12  1  0
 11 13  2  0
 13 14  1  0
 14 15  2  0
 14 16  1  0
 16 17  1  0
  4 18  2  0
 18 19  1  0
 19 20  2  0
 20 21  1  0
 21 22  1  0
 20  2  1  0
 16  5  2  0
 13  7  1  0
  1 23  1  0
  1 24  1  0
  1 25  1  0
  3 26  1  0
  8 27  1  0
  9 28  1  0
 10 29  1  0
 12 30  1  0
 17 31  1  0
 18 32  1  0
 19 33  1  0
 21 34  1  0
 21 35  1  0
M  END
>  <meeko>  (6) 
{"is_sidechain": [false], "free_energy": -6.787, "intermolecular_energy": -8.418, "internal_energy": 0.08}

$$$$
cand_037_out
     RDKit          3D

 35 37  0  0  0  0  0  0  0  0999 V2000
   18.6880  -34.0320   38.4910 C   0  0  0  0  0  0  0  0  0  0  0  0
   19.1760  -32.9880   37.5240 C   0  0  0  0  0  0  0  0  0  0  0  0
   19.2230  -31.6430   37.9380 C   0  0  0  0  0  0  0  0  0  0  0  0
   19.6650  -30.6240   37.0820 C   0  0  0  0  0  0  0  0  0  0  0  0
   19.6780  -29.2220   37.5510 C   0  0  0  0  0  0  0  0  0  0  0  0
   20.0300  -29.1040   38.8910 O   0  0  0  0  0  0  0  0  0  0  0  0
   20.0830  -27.8550   39.4550 C   0  0  0  0  0  0  0  0  0  0  0  0
   20.4260  -27.7840   40.8070 C   0  0  0  0  0  0  0  0  0  0  0  0
   20.4990  -26.5440   41.4420 C   0  0  0  0  0  0  0  0  0  0  0  0
   20.2310  -25.3740   40.7280 C   0  0  0  0  0  0  0  0  0  0  0  0
   19.8900  -25.4460   39.3800 C   0  0  0  0  0  0  0  0  0  0  0  0
   19.6400  -24.2630   38.7410 O   0  0  0  0  0  0  0  0  0  0  0  0
   19.8150  -26.6890   38.7440 C   0  0  0  0  0  0  0  0  0  0  0  0
   19.4600  -26.8110   37.3290 C   0  0  0  0  0  0  0  0  0  0  0  0
   19.2170  -25.8280   36.6330 O   0  0  0  0  0  0  0  0  0  0  0  0
   19.4010  -28.1740   36.7520 C   0  0  0  0  0  0  0  0  0  0  0  0
   19.0780  -28.2760   35.4120 O   0  0  0  0  0  0  0  0  0  0  0  0
   20.0440  -30.9680   35.7810 C   0  0  0  0  0  0  0  0  0  0  0  0
   19.9930  -32.2970   35.3500 C   0  0  0  0  0  0  0  0  0  0  0  0
   19.5500  -33.3170   36.2060 C   0  0  0  0  0  0  0  0  0  0  0  0
   19.5310  -34.7380   35.7030 C   0  0  0  0  0  0  0  0  0  0  0  0
   20.1230  -34.8890   34.4840 F   0  0  0  0  0  0  0  0  0  0  0  0
   18.8513  -33.6825   39.5211 H   0  0  0  0  0  0  0  0  0  0  0  0
   17.6143  -34.2081   38.3295 H   0  0  0  0  0  0  0  0  0  0  0  0
   19.2416  -34.9687   38.3295 H   0  0  0  0  0  0  0  0  0  0  0  0
   18.9049  -31.3850   38.9589 H   0  0  0  0  0  0  0  0  0  0  0  0
   20.6383  -28.7046   41.3704 H   0  0  0  0  0  0  0  0  0  0  0  0
   20.7682  -26.4877   42.5071 H   0  0  0  0  0  0  0  0  0  0  0  0
   20.2892  -24.3969   41.2299 H   0  0  0  0  0  0  0  0  0  0  0  0
   20.2930  -23.8840   38.1870 H   0  0  0  0  0  0  0  0  0  0  0  0
   19.6400  -27.8980   34.7650 H   0  0  0  0  0  0  0  0  0  0  0  0
   20.3861  -30.1844   35.0889 H   0  0  0  0  0  0  0  0  0  0  0  0
   20.3046  -32.5468   34.3251 H   0  0  0  0  0  0  0  0  0  0  0  0
   20.0611  -35.3720   36.4290 H   0  0  0  0  0  0  0  0  0  0  0  0
   18.4760  -35.0283   35.5898 H   0  0  0  0  0  0  0  0  0  0  0  0
  1  2  1  0
  2  3  2  0
  3  4  1  0
  4  5  1  0
  5  6  1  0
  6  7  1  0
  7  8  2  0
  8  9  1  0
  9 10  2  0
 10 11  1  0
 11 12  1  0
 11 13  2  0
 13 14  1  0
 14 15  2  0
 14 16  1  0
 16 17  1  0
  4 18  2  0
 18 19  1  0
 19 20  2  0
 20 21  1  0
 21 22  1  0
 20  2  1  0
 16  5  2  0
 13  7  1  0
  1 23  1  0
  1 24  1  0
  1 25  1  0
  3 26  1  0
  8 27  1  0
  9 28  1  0
 10 29  1  0
 12 30  1  0
 17 31  1  0
 18 32  1  0
 19 33  1  0
 21 34  1  0
 21 35  1  0
M  END
>  <meeko>  (7) 
{"is_sidechain": [false], "free_energy": -6.617, "intermolecular_energy": -8.171, "internal_energy": 0.034}

$$$$
cand_037_out
     RDKit          3D

 35 37  0  0  0  0  0  0  0  0999 V2000
   20.0380  -25.3610   49.1150 C   0  0  0  0  0  0  0  0  0  0  0  0
   20.5800  -24.4500   48.0480 C   0  0  0  0  0  0  0  0  0  0  0  0
   20.1580  -24.6310   46.7180 C   0  0  0  0  0  0  0  0  0  0  0  0
   20.6290  -23.8160   45.6780 C   0  0  0  0  0  0  0  0  0  0  0  0
   20.1750  -24.0540   44.2910 C   0  0  0  0  0  0  0  0  0  0  0  0
   20.4440  -25.3440   43.8480 O   0  0  0  0  0  0  0  0  0  0  0  0
   20.0740  -25.7000   42.5770 C   0  0  0  0  0  0  0  0  0  0  0  0
   20.3770  -27.0000   42.1680 C   0  0  0  0  0  0  0  0  0  0  0  0
   20.0260  -27.4260   40.8860 C   0  0  0  0  0  0  0  0  0  0  0  0
   19.3710  -26.5560   40.0130 C   0  0  0  0  0  0  0  0  0  0  0  0
   19.0680  -25.2600   40.4220 C   0  0  0  0  0  0  0  0  0  0  0  0
   18.4260  -24.4600   39.5180 O   0  0  0  0  0  0  0  0  0  0  0  0
   19.4220  -24.8320   41.7050 C   0  0  0  0  0  0  0  0  0  0  0  0
   19.1230  -23.4780   42.1760 C   0  0  0  0  0  0  0  0  0  0  0  0
   18.5440  -22.6570   41.4690 O   0  0  0  0  0  0  0  0  0  0  0  0
   19.5460  -23.1220   43.5500 C   0  0  0  0  0  0  0  0  0  0  0  0
   19.2470  -21.8450   43.9890 O   0  0  0  0  0  0  0  0  0  0  0  0
   21.5590  -22.8180   45.9860 C   0  0  0  0  0  0  0  0  0  0  0  0
   21.9970  -22.6320   47.3000 C   0  0  0  0  0  0  0  0  0  0  0  0
   21.5270  -23.4480   48.3410 C   0  0  0  0  0  0  0  0  0  0  0  0
   22.0140  -23.1970   49.7450 C   0  0  0  0  0  0  0  0  0  0  0  0
   23.3610  -23.0000   49.8240 F   0  0  0  0  0  0  0  0  0  0  0  0
   20.2820  -24.9508   50.1060 H   0  0  0  0  0  0  0  0  0  0  0  0
   18.9459  -25.4400   49.0097 H   0  0  0  0  0  0  0  0  0  0  0  0
   20.4896  -26.3585   49.0097 H   0  0  0  0  0  0  0  0  0  0  0  0
   19.4403  -25.4322   46.4879 H   0  0  0  0  0  0  0  0  0  0  0  0
   20.8917  -27.6877   42.8552 H   0  0  0  0  0  0  0  0  0  0  0  0
   20.2661  -28.4497   40.5630 H   0  0  0  0  0  0  0  0  0  0  0  0
   19.0946  -26.8937   39.0033 H   0  0  0  0  0  0  0  0  0  0  0  0
   18.7930  -23.6310   39.2820 H   0  0  0  0  0  0  0  0  0  0  0  0
   18.9790  -21.1900   43.3750 H   0  0  0  0  0  0  0  0  0  0  0  0
   21.9499  -22.1726   45.1856 H   0  0  0  0  0  0  0  0  0  0  0  0
   22.7210  -21.8341   47.5219 H   0  0  0  0  0  0  0  0  0  0  0  0
   21.5073  -22.3020   50.1350 H   0  0  0  0  0  0  0  0  0  0  0  0
   21.7823  -24.0962   50.3347 H   0  0  0  0  0  0  0  0  0  0  0  0
  1  2  1  0
  2  3  2  0
  3  4  1  0
  4  5  1  0
  5  6  1  0
  6  7  1  0
  7  8  2  0
  8  9  1  0
  9 10  2  0
 10 11  1  0
 11 12  1  0
 11 13  2  0
 13 14  1  0
 14 15  2  0
 14 16  1  0
 16 17  1  0
  4 18  2  0
 18 19  1  0
 19 20  2  0
 20 21  1  0
 21 22  1  0
 20  2  1  0
 16  5  2  0
 13  7  1  0
  1 23  1  0
  1 24  1  0
  1 25  1  0
  3 26  1  0
  8 27  1  0
  9 28  1  0
 10 29  1  0
 12 30  1  0
 17 31  1  0
 18 32  1  0
 19 33  1  0
 21 34  1  0
 21 35  1  0
M  END
>  <meeko>  (8) 
{"is_sidechain": [false], "free_energy": -6.606, "intermolecular_energy": -7.859, "internal_energy": -0.265}

$$$$
cand_037_out
     RDKit          3D

 35 37  0  0  0  0  0  0  0  0999 V2000
   20.0200  -32.2520   35.5560 C   0  0  0  0  0  0  0  0  0  0  0  0
   19.6650  -31.6940   36.9080 C   0  0  0  0  0  0  0  0  0  0  0  0
   19.6880  -30.3000   37.0970 C   0  0  0  0  0  0  0  0  0  0  0  0
   19.3710  -29.7190   38.3340 C   0  0  0  0  0  0  0  0  0  0  0  0
   19.4260  -28.2500   38.4940 C   0  0  0  0  0  0  0  0  0  0  0  0
   18.6810  -27.5730   37.5350 O   0  0  0  0  0  0  0  0  0  0  0  0
   18.6440  -26.2030   37.5680 C   0  0  0  0  0  0  0  0  0  0  0  0
   17.8950  -25.5640   36.5780 C   0  0  0  0  0  0  0  0  0  0  0  0
   17.8160  -24.1710   36.5560 C   0  0  0  0  0  0  0  0  0  0  0  0
   18.4830  -23.4150   37.5220 C   0  0  0  0  0  0  0  0  0  0  0  0
   19.2290  -24.0540   38.5100 C   0  0  0  0  0  0  0  0  0  0  0  0
   19.8560  -23.2540   39.4250 O   0  0  0  0  0  0  0  0  0  0  0  0
   19.3100  -25.4490   38.5310 C   0  0  0  0  0  0  0  0  0  0  0  0
   20.0830  -26.1610   39.5500 C   0  0  0  0  0  0  0  0  0  0  0  0
   20.6910  -25.5680   40.4370 O   0  0  0  0  0  0  0  0  0  0  0  0
   20.1110  -27.6410   39.4800 C   0  0  0  0  0  0  0  0  0  0  0  0
   20.8330  -28.3030   40.4560 O   0  0  0  0  0  0  0  0  0  0  0  0
   19.0490  -30.5630   39.4010 C   0  0  0  0  0  0  0  0  0  0  0  0
   19.0330  -31.9510   39.2330 C   0  0  0  0  0  0  0  0  0  0  0  0
   19.3510  -32.5330   37.9960 C   0  0  0  0  0  0  0  0  0  0  0  0
   19.3020  -34.0330   37.8580 C   0  0  0  0  0  0  0  0  0  0  0  0
   19.2330  -34.6850   39.0540 F   0  0  0  0  0  0  0  0  0  0  0  0
   20.6065  -33.1740   35.6823 H   0  0  0  0  0  0  0  0  0  0  0  0
   19.0987  -32.4770   34.9988 H   0  0  0  0  0  0  0  0  0  0  0  0
   20.6142  -31.5128   34.9988 H   0  0  0  0  0  0  0  0  0  0  0  0
   19.9615  -29.6491   36.2534 H   0  0  0  0  0  0  0  0  0  0  0  0
   17.3680  -26.1577   35.8166 H   0  0  0  0  0  0  0  0  0  0  0  0
   17.2267  -23.6672   35.7756 H   0  0  0  0  0  0  0  0  0  0  0  0
   18.4196  -22.3170   37.5030 H   0  0  0  0  0  0  0  0  0  0  0  0
   20.6800  -23.5140   39.7870 H   0  0  0  0  0  0  0  0  0  0  0  0
   21.1970  -27.8240   41.1740 H   0  0  0  0  0  0  0  0  0  0  0  0
   18.8057  -30.1307   40.3828 H   0  0  0  0  0  0  0  0  0  0  0  0
   18.7672  -32.5965   40.0831 H   0  0  0  0  0  0  0  0  0  0  0  0
   18.4155  -34.2997   37.2638 H   0  0  0  0  0  0  0  0  0  0  0  0
   20.2379  -34.3451   37.3715 H   0  0  0  0  0  0  0  0  0  0  0  0
  1  2  1  0
  2  3  2  0
  3  4  1  0
  4  5  1  0
  5  6  1  0
  6  7  1  0
  7  8  2  0
  8  9  1  0
  9 10  2  0
 10 11  1  0
 11 12  1  0
 11 13  2  0
 13 14  1  0
 14 15  2  0
 14 16  1  0
 16 17  1  0
  4 18  2  0
 18 19  1  0
 19 20  2  0
 20 21  1  0
 21 22  1  0
 20  2  1  0
 16  5  2  0
 13  7  1  0
  1 23  1  0
  1 24  1  0
  1 25  1  0
  3 26  1  0
  8 27  1  0
  9 28  1  0
 10 29  1  0
 12 30  1  0
 17 31  1  0
 18 32  1  0
 19 33  1  0
 21 34  1  0
 21 35  1  0
M  END
>  <meeko>  (9) 
{"is_sidechain": [false], "free_energy": -6.503, "intermolecular_energy": -7.856, "internal_energy": -0.147}

$$$$
