cand_005_out
     RDKit          3D

 36 38  0  0  0  0  0  0  0  0999 V2000
   22.0970  -27.5940   41.8110 C   0  0  0  0  0  0  0  0  0  0  0  0
   20.8340  -27.1750   41.6660 C   0  0  0  0  0  0  0  0  0  0  0  0
   20.0580  -27.4120   40.4420 C   0  0  0  0  0  0  0  0  0  0  0  0
   20.0530  -28.7040   39.8850 C   0  0  0  0  0  0  0  0  0  0  0  0
   19.3470  -28.9940   38.7060 C   0  0  0  0  0  0  0  0  0  0  0  0
   19.3470  -30.3710   38.1690 C   0  0  0  0  0  0  0  0  0  0  0  0
   18.9160  -31.3130   39.0960 O   0  0  0  0  0  0  0  0  0  0  0  0
   18.8700  -32.6330   38.7260 C   0  0  0  0  0  0  0  0  0  0  0  0
   18.4190  -33.5440   39.6820 C   0  0  0  0  0  0  0  0  0  0  0  0
   18.3490  -34.9030   39.3710 C   0  0  0  0  0  0  0  0  0  0  0  0
   18.7300  -35.3530   38.1050 C   0  0  0  0  0  0  0  0  0  0  0  0
   19.1820  -34.4420   37.1530 C   0  0  0  0  0  0  0  0  0  0  0  0
   19.5390  -34.9490   35.9350 O   0  0  0  0  0  0  0  0  0  0  0  0
   19.2500  -33.0810   37.4650 C   0  0  0  0  0  0  0  0  0  0  0  0
   19.7180  -32.0920   36.4930 C   0  0  0  0  0  0  0  0  0  0  0  0
   20.0770  -32.4080   35.3610 O   0  0  0  0  0  0  0  0  0  0  0  0
   19.7470  -30.6730   36.9200 C   0  0  0  0  0  0  0  0  0  0  0  0
   20.2040  -29.7480   36.0010 O   0  0  0  0  0  0  0  0  0  0  0  0
   18.6260  -27.9640   38.0940 C   0  0  0  0  0  0  0  0  0  0  0  0
   18.6270  -26.6750   38.6340 C   0  0  0  0  0  0  0  0  0  0  0  0
   19.3420  -26.3800   39.8090 C   0  0  0  0  0  0  0  0  0  0  0  0
   19.3110  -24.9780   40.3690 C   0  0  0  0  0  0  0  0  0  0  0  0
   18.6820  -24.8980   41.5750 F   0  0  0  0  0  0  0  0  0  0  0  0
   18.6580  -24.0900   39.5630 F   0  0  0  0  0  0  0  0  0  0  0  0
   20.5540  -24.4480   40.5520 F   0  0  0  0  0  0  0  0  0  0  0  0
   22.6391  -27.3932   42.7469 H   0  0  0  0  0  0  0  0  0  0  0  0
   22.5928  -28.1391   40.9943 H   0  0  0  0  0  0  0  0  0  0  0  0
   20.3588  -26.6319   42.4962 H   0  0  0  0  0  0  0  0  0  0  0  0
   20.6155  -29.5063   40.3849 H   0  0  0  0  0  0  0  0  0  0  0  0
   18.1189  -33.1915   40.6798 H   0  0  0  0  0  0  0  0  0  0  0  0
   17.9930  -35.6209   40.1246 H   0  0  0  0  0  0  0  0  0  0  0  0
   18.6733  -36.4239   37.8602 H   0  0  0  0  0  0  0  0  0  0  0  0
   19.2660  -34.5190   35.1490 H   0  0  0  0  0  0  0  0  0  0  0  0
   20.6380  -28.9710   36.2930 H   0  0  0  0  0  0  0  0  0  0  0  0
   18.0523  -28.1704   37.1784 H   0  0  0  0  0  0  0  0  0  0  0  0
   18.0592  -25.8778   38.1319 H   0  0  0  0  0  0  0  0  0  0  0  0
  1  2  2  0
  2  3  1  0
  3  4  2  0
  4  5  1  0
  5  6  1  0
  6  7  1  0
  7  8  1  0
  8  9  2  0
  9 10  1  0
 10 11  2  0
 11 12  1  0
 12 13  1  0
 12 14  2  0
 14 15  1  0
 15 16  2  0
 15 17  1  0
 17 18  1  0
  5 19  2  0
 19 20  1  0
 20 21  2  0
 21 22  1  0
 22 23  1  0
 22 24  1  0
 22 25  1  0
 21  3  1  0
 17  6  2  0
 14  8  1  0
  1 26  1  0
  1 27  1  0
  2 28  1  0
  4 29  1  0
  9 30  1  0
 10 31  1  0
 11 32  1  0
 13 33  1  0
 18 34  1  0
 19 35  1  0
 20 36  1  0
M  END
>  <meeko>  (1) 
{"is_sidechain": [false], "free_energy": -8.135, "intermolecular_energy": -10.037, "internal_energy": -0.454}

$$$$
cand_005_out
     RDKit          3D

 36 38  0  0  0  0  0  0  0  0999 V2000
   18.5360  -33.7810   39.6980 C   0  0  0  0  0  0  0  0  0  0  0  0
   18.8490  -34.0430   38.4240 C   0  0  0  0  0  0  0  0  0  0  0  0
   19.2670  -32.9970   37.4810 C   0  0  0  0  0  0  0  0  0  0  0  0
   19.2840  -31.6600   37.9180 C   0  0  0  0  0  0  0  0  0  0  0  0
   19.6560  -30.6110   37.0620 C   0  0  0  0  0  0  0  0  0  0  0  0
   19.6850  -29.2240   37.5710 C   0  0  0  0  0  0  0  0  0  0  0  0
   20.0080  -29.1490   38.9200 O   0  0  0  0  0  0  0  0  0  0  0  0
   20.0680  -27.9170   39.5200 C   0  0  0  0  0  0  0  0  0  0  0  0
   20.4090  -27.8860   40.8730 C   0  0  0  0  0  0  0  0  0  0  0  0
   20.4870  -26.6640   41.5440 C   0  0  0  0  0  0  0  0  0  0  0  0
   20.2240  -25.4730   40.8640 C   0  0  0  0  0  0  0  0  0  0  0  0
   19.8820  -25.5070   39.5140 C   0  0  0  0  0  0  0  0  0  0  0  0
   19.6370  -24.3050   38.9100 O   0  0  0  0  0  0  0  0  0  0  0  0
   19.8060  -26.7300   38.8420 C   0  0  0  0  0  0  0  0  0  0  0  0
   19.4520  -26.8080   37.4240 C   0  0  0  0  0  0  0  0  0  0  0  0
   19.2000  -25.8070   36.7580 O   0  0  0  0  0  0  0  0  0  0  0  0
   19.4050  -28.1540   36.8050 C   0  0  0  0  0  0  0  0  0  0  0  0
   19.0550  -28.2190   35.4690 O   0  0  0  0  0  0  0  0  0  0  0  0
   20.0260  -30.9250   35.7510 C   0  0  0  0  0  0  0  0  0  0  0  0
   20.0090  -32.2480   35.3020 C   0  0  0  0  0  0  0  0  0  0  0  0
   19.6270  -33.2990   36.1550 C   0  0  0  0  0  0  0  0  0  0  0  0
   19.6300  -34.7180   35.6380 C   0  0  0  0  0  0  0  0  0  0  0  0
   19.7360  -34.7930   34.2820 F   0  0  0  0  0  0  0  0  0  0  0  0
   18.4940  -35.4070   35.9500 F   0  0  0  0  0  0  0  0  0  0  0  0
   20.6530  -35.4670   36.1410 F   0  0  0  0  0  0  0  0  0  0  0  0
   18.2281  -34.5974   40.3678 H   0  0  0  0  0  0  0  0  0  0  0  0
   18.5866  -32.7491   40.0758 H   0  0  0  0  0  0  0  0  0  0  0  0
   18.7911  -35.0824   38.0686 H   0  0  0  0  0  0  0  0  0  0  0  0
   18.9990  -31.4308   38.9554 H   0  0  0  0  0  0  0  0  0  0  0  0
   20.6161  -28.8233   41.4102 H   0  0  0  0  0  0  0  0  0  0  0  0
   20.7561  -26.6394   42.6103 H   0  0  0  0  0  0  0  0  0  0  0  0
   20.2867  -24.5106   41.3929 H   0  0  0  0  0  0  0  0  0  0  0  0
   20.2270  -23.9780   38.2590 H   0  0  0  0  0  0  0  0  0  0  0  0
   19.5970  -27.8130   34.8210 H   0  0  0  0  0  0  0  0  0  0  0  0
   20.3339  -30.1218   35.0654 H   0  0  0  0  0  0  0  0  0  0  0  0
   20.2991  -32.4712   34.2647 H   0  0  0  0  0  0  0  0  0  0  0  0
  1  2  2  0
  2  3  1  0
  3  4  2  0
  4  5  1  0
  5  6  1  0
  6  7  1  0
  7  8  1  0
  8  9  2  0
  9 10  1  0
 10 11  2  0
 11 12  1  0
 12 13  1  0
 12 14  2  0
 14 15  1  0
 15 16  2  0
 15 17  1  0
 17 18  1  0
  5 19  2  0
 19 20  1  0
 20 21  2  0
 21 22  1  0
 22 23  1  0
 22 24  1  0
 22 25  1  0
 21  3  1  0
 17  6  2  0
 14  8  1  0
  1 26  1  0
  1 27  1  0
  2 28  1  0
  4 29  1  0
  9 30  1  0
 10 31  1  0
 11 32  1  0
 13 33  1  0
 18 34  1  0
 19 35  1  0
 20 36  1  0
M  END
>  <meeko>  (2) 
{"is_sidechain": [false], "free_energy": -7.715, "intermolecular_energy": -9.877, "internal_energy": -0.096}

$$$$
cand_005_out
     RDKit          3D

 36 38  0  0  0  0  0  0  0  0999 V2000
   20.2480  -30.3080   34.3930 C   0  0  0  0  0  0  0  0  0  0  0  0
   20.4400  -31.3320   35.2320 C   0  0  0  0  0  0  0  0  0  0  0  0
   19.8570  -31.3690   36.5800 C   0  0  0  0  0  0  0  0  0  0  0  0
   19.7840  -30.1740   37.3190 C   0  0  0  0  0  0  0  0  0  0  0  0
   19.2550  -30.1440   38.6190 C   0  0  0  0  0  0  0  0  0  0  0  0
   19.1740  -28.8620   39.3490 C   0  0  0  0  0  0  0  0  0  0  0  0
   20.0810  -28.7790   40.3990 O   0  0  0  0  0  0  0  0  0  0  0  0
   20.1090  -27.6390   41.1620 C   0  0  0  0  0  0  0  0  0  0  0  0
   21.0440  -27.5920   42.1970 C   0  0  0  0  0  0  0  0  0  0  0  0
   21.1240  -26.4620   43.0120 C   0  0  0  0  0  0  0  0  0  0  0  0
   20.2710  -25.3780   42.7930 C   0  0  0  0  0  0  0  0  0  0  0  0
   19.3380  -25.4280   41.7600 C   0  0  0  0  0  0  0  0  0  0  0  0
   18.5350  -24.3330   41.6020 O   0  0  0  0  0  0  0  0  0  0  0  0
   19.2590  -26.5590   40.9440 C   0  0  0  0  0  0  0  0  0  0  0  0
   18.2940  -26.6510   39.8470 C   0  0  0  0  0  0  0  0  0  0  0  0
   17.5050  -25.7430   39.5950 O   0  0  0  0  0  0  0  0  0  0  0  0
   18.2960  -27.8910   39.0370 C   0  0  0  0  0  0  0  0  0  0  0  0
   17.3710  -27.9750   38.0120 O   0  0  0  0  0  0  0  0  0  0  0  0
   18.7820  -31.3380   39.1700 C   0  0  0  0  0  0  0  0  0  0  0  0
   18.8530  -32.5340   38.4500 C   0  0  0  0  0  0  0  0  0  0  0  0
   19.3920  -32.5680   37.1510 C   0  0  0  0  0  0  0  0  0  0  0  0
   19.4420  -33.8760   36.3980 C   0  0  0  0  0  0  0  0  0  0  0  0
   18.2110  -34.3310   36.0340 F   0  0  0  0  0  0  0  0  0  0  0  0
   20.0030  -34.8910   37.1200 F   0  0  0  0  0  0  0  0  0  0  0  0
   20.1760  -33.8040   35.2510 F   0  0  0  0  0  0  0  0  0  0  0  0
   20.7047  -30.3237   33.3924 H   0  0  0  0  0  0  0  0  0  0  0  0
   19.6334  -29.4502   34.7037 H   0  0  0  0  0  0  0  0  0  0  0  0
   21.0582  -32.1790   34.8998 H   0  0  0  0  0  0  0  0  0  0  0  0
   20.1504  -29.2404   36.8671 H   0  0  0  0  0  0  0  0  0  0  0  0
   21.7171  -28.4446   42.3702 H   0  0  0  0  0  0  0  0  0  0  0  0
   21.8603  -26.4250   43.8284 H   0  0  0  0  0  0  0  0  0  0  0  0
   20.3358  -24.4869   43.4347 H   0  0  0  0  0  0  0  0  0  0  0  0
   18.1580  -24.1450   40.7650 H   0  0  0  0  0  0  0  0  0  0  0  0
   17.0820  -28.8130   37.7080 H   0  0  0  0  0  0  0  0  0  0  0  0
   18.3491  -31.3366   40.1812 H   0  0  0  0  0  0  0  0  0  0  0  0
   18.4815  -33.4634   38.9064 H   0  0  0  0  0  0  0  0  0  0  0  0
  1  2  2  0
  2  3  1  0
  3  4  2  0
  4  5  1  0
  5  6  1  0
  6  7  1  0
  7  8  1  0
  8  9  2  0
  9 10  1  0
 10 11  2  0
 11 12  1  0
 12 13  1  0
 12 14  2  0
 14 15  1  0
 15 16  2  0
 15 17  1  0
 17 18  1  0
  5 19  2  0
 19 20  1  0
 20 21  2  0
 21 22  1  0
 22 23  1  0
 22 24  1  0
 22 25  1  0
 21  3  1  0
 17  6  2  0
 14  8  1  0
  1 26  1  0
  1 27  1  0
  2 28  1  0
  4 29  1  0
  9 30  1  0
 10 31  1  0
 11 32  1  0
 13 33  1  0
 18 34  1  0
 19 35  1  0
 20 36  1  0
M  END
>  <meeko>  (3) 
{"is_sidechain": [false], "free_energy": -7.522, "intermolecular_energy": -9.687, "internal_energy": -0.048}

$$$$
cand_005_out
     RDKit          3D

 36 38  0  0  0  0  0  0  0  0999 V2000
   18.1160  -25.3970   35.2300 C   0  0  0  0  0  0  0  0  0  0  0  0
   17.9470  -25.3360   36.5560 C   0  0  0  0  0  0  0  0  0  0  0  0
   18.6790  -26.2050   37.4860 C   0  0  0  0  0  0  0  0  0  0  0  0
   18.7240  -27.5870   37.2270 C   0  0  0  0  0  0  0  0  0  0  0  0
   19.3910  -28.4750   38.0870 C   0  0  0  0  0  0  0  0  0  0  0  0
   19.4360  -29.9160   37.7630 C   0  0  0  0  0  0  0  0  0  0  0  0
   19.0040  -30.7200   38.8110 O   0  0  0  0  0  0  0  0  0  0  0  0
   18.9980  -32.0810   38.6430 C   0  0  0  0  0  0  0  0  0  0  0  0
   18.5440  -32.8500   39.7160 C   0  0  0  0  0  0  0  0  0  0  0  0
   18.5130  -34.2420   39.6120 C   0  0  0  0  0  0  0  0  0  0  0  0
   18.9350  -34.8660   38.4360 C   0  0  0  0  0  0  0  0  0  0  0  0
   19.3880  -34.0960   37.3670 C   0  0  0  0  0  0  0  0  0  0  0  0
   19.7860  -34.7710   36.2460 O   0  0  0  0  0  0  0  0  0  0  0  0
   19.4180  -32.7030   37.4720 C   0  0  0  0  0  0  0  0  0  0  0  0
   19.8860  -31.8580   36.3710 C   0  0  0  0  0  0  0  0  0  0  0  0
   20.2800  -32.3310   35.3080 O   0  0  0  0  0  0  0  0  0  0  0  0
   19.8720  -30.3920   36.5820 C   0  0  0  0  0  0  0  0  0  0  0  0
   20.3300  -29.6020   35.5430 O   0  0  0  0  0  0  0  0  0  0  0  0
   20.0310  -27.9520   39.2140 C   0  0  0  0  0  0  0  0  0  0  0  0
   19.9890  -26.5810   39.4870 C   0  0  0  0  0  0  0  0  0  0  0  0
   19.3130  -25.6920   38.6330 C   0  0  0  0  0  0  0  0  0  0  0  0
   19.2990  -24.2160   38.9530 C   0  0  0  0  0  0  0  0  0  0  0  0
   18.0410  -23.7100   39.0850 F   0  0  0  0  0  0  0  0  0  0  0  0
   19.8960  -23.4510   37.9930 F   0  0  0  0  0  0  0  0  0  0  0  0
   19.9540  -23.9150   40.1100 F   0  0  0  0  0  0  0  0  0  0  0  0
   17.5454  -24.7257   34.5714 H   0  0  0  0  0  0  0  0  0  0  0  0
   18.8255  -26.1185   34.7986 H   0  0  0  0  0  0  0  0  0  0  0  0
   17.2322  -24.6068   36.9650 H   0  0  0  0  0  0  0  0  0  0  0  0
   18.2250  -27.9816   36.3296 H   0  0  0  0  0  0  0  0  0  0  0  0
   18.2110  -32.3597   40.6426 H   0  0  0  0  0  0  0  0  0  0  0  0
   18.1557  -34.8481   40.4576 H   0  0  0  0  0  0  0  0  0  0  0  0
   18.9098  -35.9627   38.3540 H   0  0  0  0  0  0  0  0  0  0  0  0
   20.2320  -34.3170   35.5580 H   0  0  0  0  0  0  0  0  0  0  0  0
   20.7010  -30.0000   34.7800 H   0  0  0  0  0  0  0  0  0  0  0  0
   20.5735  -28.6258   39.8935 H   0  0  0  0  0  0  0  0  0  0  0  0
   20.4929  -26.1921   40.3841 H   0  0  0  0  0  0  0  0  0  0  0  0
  1  2  2  0
  2  3  1  0
  3  4  2  0
  4  5  1  0
  5  6  1  0
  6  7  1  0
  7  8  1  0
  8  9  2  0
  9 10  1  0
 10 11  2  0
 11 12  1  0
 12 13  1  0
 12 14  2  0
 14 15  1  0
 15 16  2  0
 15 17  1  0
 17 18  1  0
  5 19  2  0
 19 20  1  0
 20 21  2  0
 21 22  1  0
 22 23  1  0
 22 24  1  0
 22 25  1  0
 21  3  1  0
 17  6  2  0
 14  8  1  0
  1 26  1  0
  1 27  1  0
  2 28  1  0
  4 29  1  0
  9 30  1  0
 10 31  1  0
 11 32  1  0
 13 33  1  0
 18 34  1  0
 19 35  1  0
 20 36  1  0
M  END
>  <meeko>  (4) 
{"is_sidechain": [false], "free_energy": -7.366, "intermolecular_energy": -9.173, "internal_energy": -0.37}

$$$$
cand_005_out
     RDKit          3D

 36 38  0  0  0  0  0  0  0  0999 V2000
   23.9860  -29.9180   42.3400 C   0  0  0  0  0  0  0  0  0  0  0  0
   23.9790  -28.5800   42.3240 C   0  0  0  0  0  0  0  0  0  0  0  0
   22.7370  -27.7970   42.3030 C   0  0  0  0  0  0  0  0  0  0  0  0
   22.0970  -27.5750   41.0700 C   0  0  0  0  0  0  0  0  0  0  0  0
   20.9170  -26.8200   40.9790 C   0  0  0  0  0  0  0  0  0  0  0  0
   20.2640  -26.6340   39.6660 C   0  0  0  0  0  0  0  0  0  0  0  0
   20.0360  -25.2970   39.3600 O   0  0  0  0  0  0  0  0  0  0  0  0
   19.4330  -24.9840   38.1680 C   0  0  0  0  0  0  0  0  0  0  0  0
   19.2350  -23.6300   37.8950 C   0  0  0  0  0  0  0  0  0  0  0  0
   18.6250  -23.2430   36.7000 C   0  0  0  0  0  0  0  0  0  0  0  0
   18.2120  -24.2080   35.7790 C   0  0  0  0  0  0  0  0  0  0  0  0
   18.4100  -25.5590   36.0550 C   0  0  0  0  0  0  0  0  0  0  0  0
   17.9810  -26.4500   35.1110 O   0  0  0  0  0  0  0  0  0  0  0  0
   19.0210  -25.9460   37.2510 C   0  0  0  0  0  0  0  0  0  0  0  0
   19.2480  -27.3540   37.5780 C   0  0  0  0  0  0  0  0  0  0  0  0
   18.9070  -28.2620   36.8240 O   0  0  0  0  0  0  0  0  0  0  0  0
   19.9100  -27.6580   38.8690 C   0  0  0  0  0  0  0  0  0  0  0  0
   20.1060  -28.9920   39.1760 O   0  0  0  0  0  0  0  0  0  0  0  0
   20.3730  -26.2940   42.1550 C   0  0  0  0  0  0  0  0  0  0  0  0
   21.0010  -26.5020   43.3860 C   0  0  0  0  0  0  0  0  0  0  0  0
   22.1890  -27.2500   43.4780 C   0  0  0  0  0  0  0  0  0  0  0  0
   22.8330  -27.4630   44.8270 C   0  0  0  0  0  0  0  0  0  0  0  0
   22.3810  -26.5990   45.7780 F   0  0  0  0  0  0  0  0  0  0  0  0
   24.1890  -27.3010   44.8080 F   0  0  0  0  0  0  0  0  0  0  0  0
   22.6300  -28.7160   45.3240 F   0  0  0  0  0  0  0  0  0  0  0  0
   24.9415  -30.4629   42.3555 H   0  0  0  0  0  0  0  0  0  0  0  0
   23.0363  -30.4730   42.3377 H   0  0  0  0  0  0  0  0  0  0  0  0
   24.9407  -28.0461   42.3267 H   0  0  0  0  0  0  0  0  0  0  0  0
   22.5318  -28.0035   40.1549 H   0  0  0  0  0  0  0  0  0  0  0  0
   19.5589  -22.8687   38.6199 H   0  0  0  0  0  0  0  0  0  0  0  0
   18.4695  -22.1758   36.4837 H   0  0  0  0  0  0  0  0  0  0  0  0
   17.7315  -23.9021   34.8379 H   0  0  0  0  0  0  0  0  0  0  0  0
   18.1130  -26.2690   34.2010 H   0  0  0  0  0  0  0  0  0  0  0  0
   20.0640  -29.6400   38.5020 H   0  0  0  0  0  0  0  0  0  0  0  0
   19.4415  -25.7107   42.1107 H   0  0  0  0  0  0  0  0  0  0  0  0
   20.5592  -26.0739   44.2979 H   0  0  0  0  0  0  0  0  0  0  0  0
  1  2  2  0
  2  3  1  0
  3  4  2  0
  4  5  1  0
  5  6  1  0
  6  7  1  0
  7  8  1  0
  8  9  2  0
  9 10  1  0
 10 11  2  0
 11 12  1  0
 12 13  1  0
 12 14  2  0
 14 15  1  0
 15 16  2  0
 15 17  1  0
 17 18  1  0
  5 19  2  0
 19 20  1  0
 20 21  2  0
 21 22  1  0
 22 23  1  0
 22 24  1  0
 22 25  1  0
 21  3  1  0
 17  6  2  0
 14  8  1  0
  1 26  1  0
  1 27  1  0
  2 28  1  0
  4 29  1  0
  9 30  1  0
 10 31  1  0
 11 32  1  0
 13 33  1  0
 18 34  1  0
 19 35  1  0
 20 36  1  0
M  END
>  <meeko>  (5) 
{"is_sidechain": [false], "free_energy": -7.364, "intermolecular_energy": -9.208, "internal_energy": -0.332}

$$$$
cand_005_out
     RDKit          3D

 36 38  0  0  0  0  0  0  0  0999 V2000
   18.6130  -33.6160   36.8390 C   0  0  0  0  0  0  0  0  0  0  0  0
   19.7140  -33.0260   36.3580 C   0  0  0  0  0  0  0  0  0  0  0  0
   19.7660  -31.5950   36.0350 C   0  0  0  0  0  0  0  0  0  0  0  0
   19.5640  -30.6600   37.0680 C   0  0  0  0  0  0  0  0  0  0  0  0
   19.5830  -29.2780   36.8230 C   0  0  0  0  0  0  0  0  0  0  0  0
   19.3910  -28.3320   37.9420 C   0  0  0  0  0  0  0  0  0  0  0  0
   20.3080  -28.5170   38.9700 O   0  0  0  0  0  0  0  0  0  0  0  0
   20.2390  -27.7040   40.0730 C   0  0  0  0  0  0  0  0  0  0  0  0
   21.1870  -27.9150   41.0760 C   0  0  0  0  0  0  0  0  0  0  0  0
   21.1730  -27.1240   42.2250 C   0  0  0  0  0  0  0  0  0  0  0  0
   20.2120  -26.1200   42.3730 C   0  0  0  0  0  0  0  0  0  0  0  0
   19.2670  -25.9120   41.3710 C   0  0  0  0  0  0  0  0  0  0  0  0
   18.3560  -24.9140   41.5810 O   0  0  0  0  0  0  0  0  0  0  0  0
   19.2830  -26.7050   40.2210 C   0  0  0  0  0  0  0  0  0  0  0  0
   18.3080  -26.5180   39.1440 C   0  0  0  0  0  0  0  0  0  0  0  0
   17.4280  -25.6620   39.2030 O   0  0  0  0  0  0  0  0  0  0  0  0
   18.4150  -27.4060   37.9640 C   0  0  0  0  0  0  0  0  0  0  0  0
   17.4810  -27.2320   36.9590 O   0  0  0  0  0  0  0  0  0  0  0  0
   19.8240  -28.8390   35.5180 C   0  0  0  0  0  0  0  0  0  0  0  0
   20.0210  -29.7550   34.4820 C   0  0  0  0  0  0  0  0  0  0  0  0
   19.9920  -31.1410   34.7230 C   0  0  0  0  0  0  0  0  0  0  0  0
   20.2210  -32.1010   33.5800 C   0  0  0  0  0  0  0  0  0  0  0  0
   19.4400  -33.2150   33.6530 F   0  0  0  0  0  0  0  0  0  0  0  0
   21.5040  -32.5640   33.5150 F   0  0  0  0  0  0  0  0  0  0  0  0
   19.9790  -31.5450   32.3590 F   0  0  0  0  0  0  0  0  0  0  0  0
   18.6206  -34.6921   37.0669 H   0  0  0  0  0  0  0  0  0  0  0  0
   17.7006  -33.0247   37.0064 H   0  0  0  0  0  0  0  0  0  0  0  0
   20.6146  -33.6371   36.1986 H   0  0  0  0  0  0  0  0  0  0  0  0
   19.3870  -31.0212   38.0918 H   0  0  0  0  0  0  0  0  0  0  0  0
   21.9443  -28.7043   40.9603 H   0  0  0  0  0  0  0  0  0  0  0  0
   21.9194  -27.2907   43.0157 H   0  0  0  0  0  0  0  0  0  0  0  0
   20.2019  -25.4956   43.2786 H   0  0  0  0  0  0  0  0  0  0  0  0
   17.6830  -24.7530   40.9490 H   0  0  0  0  0  0  0  0  0  0  0  0
   17.1200  -26.3830   36.7950 H   0  0  0  0  0  0  0  0  0  0  0  0
   19.8589  -27.7605   35.3046 H   0  0  0  0  0  0  0  0  0  0  0  0
   20.2017  -29.3869   33.4613 H   0  0  0  0  0  0  0  0  0  0  0  0
  1  2  2  0
  2  3  1  0
  3  4  2  0
  4  5  1  0
  5  6  1  0
  6  7  1  0
  7  8  1  0
  8  9  2  0
  9 10  1  0
 10 11  2  0
 11 12  1  0
 12 13  1  0
 12 14  2  0
 14 15  1  0
 15 16  2  0
 15 17  1  0
 17 18  1  0
  5 19  2  0
 19 20  1  0
 20 21  2  0
 21 22  1  0
 22 23  1  0
 22 24  1  0
 22 25  1  0
 21  3  1  0
 17  6  2  0
 14  8  1  0
  1 26  1  0
  1 27  1  0
  2 28  1  0
  4 29  1  0
  9 30  1  0
 10 31  1  0
 11 32  1  0
 13 33  1  0
 18 34  1  0
 19 35  1  0
 20 36  1  0
M  END
>  <meeko>  (6) 
{"is_sidechain": [false], "free_energy": -7.326, "intermolecular_energy": -9.189, "internal_energy": -0.304}

$$$$
cand_005_out
     RDKit          3D

 36 38  0  0  0  0  0  0  0  0999 V2000
   19.9850  -32.6320   34.8090 C   0  0  0  0  0  0  0  0  0  0  0  0
   19.6260  -33.2660   35.9310 C   0  0  0  0  0  0  0  0  0  0  0  0
   19.4240  -32.5650   37.2060 C   0  0  0  0  0  0  0  0  0  0  0  0
   19.4800  -31.1590   37.2200 C   0  0  0  0  0  0  0  0  0  0  0  0
   19.3140  -30.4290   38.4080 C   0  0  0  0  0  0  0  0  0  0  0  0
   19.3550  -28.9520   38.3740 C   0  0  0  0  0  0  0  0  0  0  0  0
   18.7970  -28.4220   37.2170 O   0  0  0  0  0  0  0  0  0  0  0  0
   18.7730  -27.0600   37.0570 C   0  0  0  0  0  0  0  0  0  0  0  0
   18.1910  -26.5690   35.8860 C   0  0  0  0  0  0  0  0  0  0  0  0
   18.1360  -25.1930   35.6610 C   0  0  0  0  0  0  0  0  0  0  0  0
   18.6600  -24.3060   36.6030 C   0  0  0  0  0  0  0  0  0  0  0  0
   19.2410  -24.7980   37.7700 C   0  0  0  0  0  0  0  0  0  0  0  0
   19.7350  -23.8750   38.6500 O   0  0  0  0  0  0  0  0  0  0  0  0
   19.2950  -26.1760   37.9960 C   0  0  0  0  0  0  0  0  0  0  0  0
   19.8960  -26.7340   39.2090 C   0  0  0  0  0  0  0  0  0  0  0  0
   20.3850  -26.0210   40.0820 O   0  0  0  0  0  0  0  0  0  0  0  0
   19.8980  -28.2080   39.3550 C   0  0  0  0  0  0  0  0  0  0  0  0
   20.4800  -28.7270   40.4970 O   0  0  0  0  0  0  0  0  0  0  0  0
   19.0730  -31.1330   39.5920 C   0  0  0  0  0  0  0  0  0  0  0  0
   19.0190  -32.5300   39.5920 C   0  0  0  0  0  0  0  0  0  0  0  0
   19.1970  -33.2630   38.4050 C   0  0  0  0  0  0  0  0  0  0  0  0
   19.1210  -34.7720   38.4420 C   0  0  0  0  0  0  0  0  0  0  0  0
   20.3120  -35.3740   38.1690 F   0  0  0  0  0  0  0  0  0  0  0  0
   18.2380  -35.2890   37.5380 F   0  0  0  0  0  0  0  0  0  0  0  0
   18.7190  -35.2560   39.6520 F   0  0  0  0  0  0  0  0  0  0  0  0
   20.1246  -33.1996   33.8772 H   0  0  0  0  0  0  0  0  0  0  0  0
   20.1406  -31.5431   34.8183 H   0  0  0  0  0  0  0  0  0  0  0  0
   19.4762  -34.3552   35.8975 H   0  0  0  0  0  0  0  0  0  0  0  0
   19.6580  -30.6191   36.2783 H   0  0  0  0  0  0  0  0  0  0  0  0
   17.7767  -27.2658   35.1425 H   0  0  0  0  0  0  0  0  0  0  0  0
   17.6784  -24.8061   34.7386 H   0  0  0  0  0  0  0  0  0  0  0  0
   18.6144  -23.2215   36.4245 H   0  0  0  0  0  0  0  0  0  0  0  0
   19.1680  -23.4770   39.2800 H   0  0  0  0  0  0  0  0  0  0  0  0
   19.9730  -29.2490   41.0870 H   0  0  0  0  0  0  0  0  0  0  0  0
   18.9245  -30.5822   40.5325 H   0  0  0  0  0  0  0  0  0  0  0  0
   18.8343  -33.0644   40.5355 H   0  0  0  0  0  0  0  0  0  0  0  0
  1  2  2  0
  2  3  1  0
  3  4  2  0
  4  5  1  0
  5  6  1  0
  6  7  1  0
  7  8  1  0
  8  9  2  0
  9 10  1  0
 10 11  2  0
 11 12  1  0
 12 13  1  0
 12 14  2  0
 14 15  1  0
 15 16  2  0
 15 17  1  0
 17 18  1  0
  5 19  2  0
 19 20  1  0
 20 21  2  0
 21 22  1  0
 22 23  1  0
 22 24  1  0
 22 25  1  0
 21  3  1  0
 17  6  2  0
 14  8  1  0
  1 26  1  0
  1 27  1  0
  2 28  1  0
  4 29  1  0
  9 30  1  0
 10 31  1  0
 11 32  1  0
 13 33  1  0
 18 34  1  0
 19 35  1  0
 20 36  1  0
M  END
>  <meeko>  (7) 
{"is_sidechain": [false], "free_energy": -7.227, "intermolecular_energy": -9.186, "internal_energy": -0.186}

$$$$
cand_005_out
     RDKit          3D

 36 38  0  0  0  0  0  0  0  0999 V2000
   21.7140  -27.5570   41.8090 C   0  0  0  0  0  0  0  0  0  0  0  0
   20.4130  -27.4890   41.5060 C   0  0  0  0  0  0  0  0  0  0  0  0
   19.9160  -27.5830   40.1270 C   0  0  0  0  0  0  0  0  0  0  0  0
   19.9490  -28.8310   39.4800 C   0  0  0  0  0  0  0  0  0  0  0  0
   19.5070  -28.9850   38.1560 C   0  0  0  0  0  0  0  0  0  0  0  0
   19.5350  -30.3200   37.5230 C   0  0  0  0  0  0  0  0  0  0  0  0
   19.9170  -30.2770   36.1870 O   0  0  0  0  0  0  0  0  0  0  0  0
   19.9830  -31.4500   35.4790 C   0  0  0  0  0  0  0  0  0  0  0  0
   20.3840  -31.3630   34.1450 C   0  0  0  0  0  0  0  0  0  0  0  0
   20.4700  -32.5190   33.3670 C   0  0  0  0  0  0  0  0  0  0  0  0
   20.1560  -33.7620   33.9210 C   0  0  0  0  0  0  0  0  0  0  0  0
   19.7540  -33.8450   35.2530 C   0  0  0  0  0  0  0  0  0  0  0  0
   19.4610  -35.0920   35.7310 O   0  0  0  0  0  0  0  0  0  0  0  0
   19.6690  -32.6880   36.0310 C   0  0  0  0  0  0  0  0  0  0  0  0
   19.2530  -32.7330   37.4340 C   0  0  0  0  0  0  0  0  0  0  0  0
   18.9530  -33.7860   37.9920 O   0  0  0  0  0  0  0  0  0  0  0  0
   19.2010  -31.4500   38.1730 C   0  0  0  0  0  0  0  0  0  0  0  0
   18.7920  -31.5000   39.4930 O   0  0  0  0  0  0  0  0  0  0  0  0
   19.0130  -27.8610   37.4870 C   0  0  0  0  0  0  0  0  0  0  0  0
   18.9790  -26.6140   38.1160 C   0  0  0  0  0  0  0  0  0  0  0  0
   19.4320  -26.4560   39.4390 C   0  0  0  0  0  0  0  0  0  0  0  0
   19.3700  -25.0940   40.0910 C   0  0  0  0  0  0  0  0  0  0  0  0
   18.5640  -25.0630   41.1880 F   0  0  0  0  0  0  0  0  0  0  0  0
   18.8890  -24.1220   39.2620 F   0  0  0  0  0  0  0  0  0  0  0  0
   20.5900  -24.6430   40.5010 F   0  0  0  0  0  0  0  0  0  0  0  0
   22.0393  -27.4817   42.8571 H   0  0  0  0  0  0  0  0  0  0  0  0
   22.4587  -27.6883   41.0101 H   0  0  0  0  0  0  0  0  0  0  0  0
   19.6867  -27.3575   42.3216 H   0  0  0  0  0  0  0  0  0  0  0  0
   20.3302  -29.7078   40.0240 H   0  0  0  0  0  0  0  0  0  0  0  0
   20.6320  -30.3848   33.7072 H   0  0  0  0  0  0  0  0  0  0  0  0
   20.7857  -32.4507   32.3155 H   0  0  0  0  0  0  0  0  0  0  0  0
   20.2257  -34.6727   33.3080 H   0  0  0  0  0  0  0  0  0  0  0  0
   18.6900  -35.2280   36.2460 H   0  0  0  0  0  0  0  0  0  0  0  0
   18.7850  -32.3170   39.9510 H   0  0  0  0  0  0  0  0  0  0  0  0
   18.6472  -27.9596   36.4543 H   0  0  0  0  0  0  0  0  0  0  0  0
   18.5920  -25.7419   37.5685 H   0  0  0  0  0  0  0  0  0  0  0  0
  1  2  2  0
  2  3  1  0
  3  4  2  0
  4  5  1  0
  5  6  1  0
  6  7  1  0
  7  8  1  0
  8  9  2  0
  9 10  1  0
 10 11  2  0
 11 12  1  0
 12 13  1  0
 12 14  2  0
 14 15  1  0
 15 16  2  0
 15 17  1  0
 17 18  1  0
  5 19  2  0
 19 20  1  0
 20 21  2  0
 21 22  1  0
 22 23  1  0
 22 24  1  0
 22 25  1  0
 21  3  1  0
 17  6  2  0
 14  8  1  0
  1 26  1  0
  1 27  1  0
  2 28  1  0
  4 29  1  0
  9 30  1  0
 10 31  1  0
 11 32  1  0
 13 33  1  0
 18 34  1  0
 19 35  1  0
 20 36  1  0
M  END
>  <meeko>  (8) 
{"is_sidechain": [false], "free_energy": -7.127, "intermolecular_energy": -9.01, "internal_energy": -0.238}

$$$$
cand_005_out
     RDKit          3D

 36 38  0  0  0  0  0  0  0  0999 V2000
   19.2380  -23.1740   38.1910 C   0  0  0  0  0  0  0  0  0  0  0  0
   19.5910  -24.3200   37.5990 C   0  0  0  0  0  0  0  0  0  0  0  0
   19.5540  -25.6130   38.2940 C   0  0  0  0  0  0  0  0  0  0  0  0
   20.3480  -25.7870   39.4430 C   0  0  0  0  0  0  0  0  0  0  0  0
   20.3720  -27.0040   40.1430 C   0  0  0  0  0  0  0  0  0  0  0  0
   21.2000  -27.1340   41.3600 C   0  0  0  0  0  0  0  0  0  0  0  0
   22.1460  -28.1480   41.2650 O   0  0  0  0  0  0  0  0  0  0  0  0
   22.9800  -28.3770   42.3290 C   0  0  0  0  0  0  0  0  0  0  0  0
   23.9240  -29.3960   42.1860 C   0  0  0  0  0  0  0  0  0  0  0  0
   24.8030  -29.6820   43.2320 C   0  0  0  0  0  0  0  0  0  0  0  0
   24.7400  -28.9520   44.4210 C   0  0  0  0  0  0  0  0  0  0  0  0
   23.7970  -27.9360   44.5610 C   0  0  0  0  0  0  0  0  0  0  0  0
   23.7890  -27.2610   45.7500 O   0  0  0  0  0  0  0  0  0  0  0  0
   22.9180  -27.6490   43.5130 C   0  0  0  0  0  0  0  0  0  0  0  0
   21.9130  -26.5900   43.6200 C   0  0  0  0  0  0  0  0  0  0  0  0
   21.7890  -25.9080   44.6350 O   0  0  0  0  0  0  0  0  0  0  0  0
   21.0330  -26.3620   42.4500 C   0  0  0  0  0  0  0  0  0  0  0  0
   20.0770  -25.3700   42.5650 O   0  0  0  0  0  0  0  0  0  0  0  0
   19.5720  -28.0520   39.6790 C   0  0  0  0  0  0  0  0  0  0  0  0
   18.7830  -27.8950   38.5360 C   0  0  0  0  0  0  0  0  0  0  0  0
   18.7650  -26.6800   37.8280 C   0  0  0  0  0  0  0  0  0  0  0  0
   17.8920  -26.5440   36.6030 C   0  0  0  0  0  0  0  0  0  0  0  0
   17.0820  -25.4500   36.6420 F   0  0  0  0  0  0  0  0  0  0  0  0
   17.0540  -27.6070   36.4180 F   0  0  0  0  0  0  0  0  0  0  0  0
   18.6070  -26.4470   35.4460 F   0  0  0  0  0  0  0  0  0  0  0  0
   19.2820  -22.2288   37.6300 H   0  0  0  0  0  0  0  0  0  0  0  0
   18.9037  -23.1765   39.2390 H   0  0  0  0  0  0  0  0  0  0  0  0
   19.9220  -24.2930   36.5503 H   0  0  0  0  0  0  0  0  0  0  0  0
   20.9646  -24.9495   39.8013 H   0  0  0  0  0  0  0  0  0  0  0  0
   23.9749  -29.9724   41.2505 H   0  0  0  0  0  0  0  0  0  0  0  0
   25.5471  -30.4843   43.1195 H   0  0  0  0  0  0  0  0  0  0  0  0
   25.4330  -29.1786   45.2447 H   0  0  0  0  0  0  0  0  0  0  0  0
   22.9800  -26.9620   46.1150 H   0  0  0  0  0  0  0  0  0  0  0  0
   19.7040  -25.1720   43.4020 H   0  0  0  0  0  0  0  0  0  0  0  0
   19.5632  -29.0103   40.2190 H   0  0  0  0  0  0  0  0  0  0  0  0
   18.1662  -28.7353   38.1846 H   0  0  0  0  0  0  0  0  0  0  0  0
  1  2  2  0
  2  3  1  0
  3  4  2  0
  4  5  1  0
  5  6  1  0
  6  7  1  0
  7  8  1  0
  8  9  2  0
  9 10  1  0
 10 11  2  0
 11 12  1  0
 12 13  1  0
 12 14  2  0
 14 15  1  0
 15 16  2  0
 15 17  1  0
 17 18  1  0
  5 19  2  0
 19 20  1  0
 20 21  2  0
 21 22  1  0
 22 23  1  0
 22 24  1  0
 22 25  1  0
 21  3  1  0
 17  6  2  0
 14  8  1  0
  1 26  1  0
  1 27  1  0
  2 28  1  0
  4 29  1  0
  9 30  1  0
 10 31  1  0
 11 32  1  0
 13 33  1  0
 18 34  1  0
 19 35  1  0
 20 36  1  0
M  END
>  <meeko>  (9) 
{"is_sidechain": [false], "free_energy": -7.11, "intermolecular_energy": -8.792, "internal_energy": -0.434}

$$$$
