cand_051_out
     RDKit          3D

 44 46  0  0  0  0  0  0  0  0999 V2000
   21.0210  -27.1470   41.9160 C   0  0  0  0  0  0  0  0  0  0  0  0
   20.0210  -27.4440   40.8330 C   0  0  0  0  0  0  0  0  0  0  0  0
   20.0780  -28.6930   40.1860 C   0  0  0  0  0  0  0  0  0  0  0  0
   19.1820  -29.0390   39.1620 C   0  0  0  0  0  0  0  0  0  0  0  0
   19.2960  -30.3530   38.4950 C   0  0  0  0  0  0  0  0  0  0  0  0
   18.9020  -31.4080   39.3110 O   0  0  0  0  0  0  0  0  0  0  0  0
   18.9580  -32.6860   38.8160 C   0  0  0  0  0  0  0  0  0  0  0  0
   18.5650  -33.7160   39.6730 C   0  0  0  0  0  0  0  0  0  0  0  0
   18.5960  -35.0400   39.2300 C   0  0  0  0  0  0  0  0  0  0  0  0
   19.0190  -35.3350   37.9330 C   0  0  0  0  0  0  0  0  0  0  0  0
   19.4090  -34.3060   37.0800 C   0  0  0  0  0  0  0  0  0  0  0  0
   19.8100  -34.6650   35.8220 O   0  0  0  0  0  0  0  0  0  0  0  0
   19.3790  -32.9800   37.5220 C   0  0  0  0  0  0  0  0  0  0  0  0
   19.7800  -31.8700   36.6580 C   0  0  0  0  0  0  0  0  0  0  0  0
   20.1560  -32.0490   35.5010 O   0  0  0  0  0  0  0  0  0  0  0  0
   19.7180  -30.5030   37.2260 C   0  0  0  0  0  0  0  0  0  0  0  0
   20.0870  -29.4600   36.3970 O   0  0  0  0  0  0  0  0  0  0  0  0
   18.2260  -28.0970   38.7740 C   0  0  0  0  0  0  0  0  0  0  0  0
   18.1560  -26.8530   39.4040 C   0  0  0  0  0  0  0  0  0  0  0  0
   19.0430  -26.5090   40.4380 C   0  0  0  0  0  0  0  0  0  0  0  0
   18.9050  -25.1420   41.0780 C   0  0  0  0  0  0  0  0  0  0  0  0
   19.8280  -24.0680   40.4660 C   0  0  0  0  0  0  0  0  0  0  0  0
   20.0120  -22.9170   41.4590 C   0  0  0  0  0  0  0  0  0  0  0  0
   19.2850  -23.5230   39.1430 C   0  0  0  0  0  0  0  0  0  0  0  0
   20.5488  -27.2872   42.8996 H   0  0  0  0  0  0  0  0  0  0  0  0
   21.8786  -27.8292   41.8203 H   0  0  0  0  0  0  0  0  0  0  0  0
   21.3671  -26.1073   41.8203 H   0  0  0  0  0  0  0  0  0  0  0  0
   20.8464  -29.4185   40.4914 H   0  0  0  0  0  0  0  0  0  0  0  0
   18.2315  -33.4849   40.6954 H   0  0  0  0  0  0  0  0  0  0  0  0
   18.2865  -35.8519   39.9045 H   0  0  0  0  0  0  0  0  0  0  0  0
   19.0442  -36.3783   37.5854 H   0  0  0  0  0  0  0  0  0  0  0  0
   19.1730  -34.8800   35.1700 H   0  0  0  0  0  0  0  0  0  0  0  0
   20.0240  -29.5570   35.4660 H   0  0  0  0  0  0  0  0  0  0  0  0
   17.5215  -28.3378   37.9642 H   0  0  0  0  0  0  0  0  0  0  0  0
   17.3921  -26.1286   39.0849 H   0  0  0  0  0  0  0  0  0  0  0  0
   17.8629  -24.8094   40.9626 H   0  0  0  0  0  0  0  0  0  0  0  0
   19.1994  -25.2523   42.1321 H   0  0  0  0  0  0  0  0  0  0  0  0
   20.7960  -24.5464   40.2560 H   0  0  0  0  0  0  0  0  0  0  0  0
   19.9499  -23.3055   42.4862 H   0  0  0  0  0  0  0  0  0  0  0  0
   20.9960  -22.4511   41.3021 H   0  0  0  0  0  0  0  0  0  0  0  0
   19.2223  -22.1675   41.3021 H   0  0  0  0  0  0  0  0  0  0  0  0
   18.5221  -22.7573   39.3474 H   0  0  0  0  0  0  0  0  0  0  0  0
   20.1075  -23.0761   38.5654 H   0  0  0  0  0  0  0  0  0  0  0  0
   18.8350  -24.3439   38.5654 H   0  0  0  0  0  0  0  0  0  0  0  0
  1  2  1  0
  2  3  2  0
  3  4  1  0
  4  5  1  0
  5  6  1  0
  6  7  1  0
  7  8  2  0
  8  9  1  0
  9 10  2  0
 10 11  1  0
 11 12  1  0
 11 13  2  0
 13 14  1  0
 14 15  2  0
 14 16  1  0
 16 17  1  0
  4 18  2  0
 18 19  1  0
 19 20  2  0
 20 21  1  0
 21 22  1  0
 22 23  1  0
 22 24  1  0
 20  2  1  0
 16  5  2  0
 13  7  1  0
  1 25  1  0
  1 26  1  0
  1 27  1  0
  3 28  1  0
  8 29  1  0
  9 30  1  0
 10 31  1  0
 12 32  1  0
 17 33  1  0
 18 34  1  0
 19 35  1  0
 21 36  1  0
 21 37  1  0
 22 38  1  0
 23 39  1  0
 23 40  1  0
 23 41  1  0
 24 42  1  0
 24 43  1  0
 24 44  1  0
M  END
>  <meeko>  (1) 
{"is_sidechain": [false], "free_energy": -7.895, "intermolecular_energy": -9.741, "internal_energy": -0.575}

$$$$
cand_051_out
     RDKit          3D

 44 46  0  0  0  0  0  0  0  0999 V2000
   19.3860  -24.7150   37.4660 C   0  0  0  0  0  0  0  0  0  0  0  0
   19.4840  -26.0310   38.1880 C   0  0  0  0  0  0  0  0  0  0  0  0
   20.2280  -26.0920   39.3820 C   0  0  0  0  0  0  0  0  0  0  0  0
   20.3670  -27.2850   40.1080 C   0  0  0  0  0  0  0  0  0  0  0  0
   21.1780  -27.3060   41.3440 C   0  0  0  0  0  0  0  0  0  0  0  0
   22.1850  -28.2640   41.3120 O   0  0  0  0  0  0  0  0  0  0  0  0
   23.0140  -28.3920   42.3980 C   0  0  0  0  0  0  0  0  0  0  0  0
   24.0020  -29.3750   42.3290 C   0  0  0  0  0  0  0  0  0  0  0  0
   24.8800  -29.5560   43.4000 C   0  0  0  0  0  0  0  0  0  0  0  0
   24.7720  -28.7540   44.5380 C   0  0  0  0  0  0  0  0  0  0  0  0
   23.7850  -27.7730   44.6030 C   0  0  0  0  0  0  0  0  0  0  0  0
   23.7360  -27.0220   45.7460 O   0  0  0  0  0  0  0  0  0  0  0  0
   22.9060  -27.5920   43.5320 C   0  0  0  0  0  0  0  0  0  0  0  0
   21.8560  -26.5740   43.5600 C   0  0  0  0  0  0  0  0  0  0  0  0
   21.7020  -25.8240   44.5230 O   0  0  0  0  0  0  0  0  0  0  0  0
   20.9710  -26.4690   42.3770 C   0  0  0  0  0  0  0  0  0  0  0  0
   19.9910  -25.4940   42.4090 O   0  0  0  0  0  0  0  0  0  0  0  0
   19.7620  -28.4400   39.6050 C   0  0  0  0  0  0  0  0  0  0  0  0
   19.0230  -28.3970   38.4210 C   0  0  0  0  0  0  0  0  0  0  0  0
   18.8690  -27.2010   37.7010 C   0  0  0  0  0  0  0  0  0  0  0  0
   18.0490  -27.2310   36.4250 C   0  0  0  0  0  0  0  0  0  0  0  0
   18.8960  -27.2500   35.1360 C   0  0  0  0  0  0  0  0  0  0  0  0
   18.0730  -26.6980   33.9690 C   0  0  0  0  0  0  0  0  0  0  0  0
   19.3970  -28.6550   34.7930 C   0  0  0  0  0  0  0  0  0  0  0  0
   19.3251  -23.8978   38.1998 H   0  0  0  0  0  0  0  0  0  0  0  0
   20.2763  -24.5757   36.8351 H   0  0  0  0  0  0  0  0  0  0  0  0
   18.4849  -24.7091   36.8351 H   0  0  0  0  0  0  0  0  0  0  0  0
   20.7139  -25.1789   39.7562 H   0  0  0  0  0  0  0  0  0  0  0  0
   24.0892  -30.0064   41.4325 H   0  0  0  0  0  0  0  0  0  0  0  0
   25.6580  -30.3318   43.3470 H   0  0  0  0  0  0  0  0  0  0  0  0
   25.4644  -28.8964   45.3808 H   0  0  0  0  0  0  0  0  0  0  0  0
   23.4860  -27.4190   46.5570 H   0  0  0  0  0  0  0  0  0  0  0  0
   19.3300  -25.5150   43.0730 H   0  0  0  0  0  0  0  0  0  0  0  0
   19.8689  -29.3914   40.1466 H   0  0  0  0  0  0  0  0  0  0  0  0
   18.5525  -29.3175   38.0450 H   0  0  0  0  0  0  0  0  0  0  0  0
   17.4200  -28.1333   36.4390 H   0  0  0  0  0  0  0  0  0  0  0  0
   17.4581  -26.3034   36.4042 H   0  0  0  0  0  0  0  0  0  0  0  0
   19.7782  -26.6167   35.3111 H   0  0  0  0  0  0  0  0  0  0  0  0
   17.2194  -26.1255   34.3608 H   0  0  0  0  0  0  0  0  0  0  0  0
   18.7044  -26.0401   33.3539 H   0  0  0  0  0  0  0  0  0  0  0  0
   17.7039  -27.5319   33.3539 H   0  0  0  0  0  0  0  0  0  0  0  0
   19.5951  -29.2105   35.7215 H   0  0  0  0  0  0  0  0  0  0  0  0
   18.6320  -29.1838   34.2055 H   0  0  0  0  0  0  0  0  0  0  0  0
   20.3240  -28.5805   34.2055 H   0  0  0  0  0  0  0  0  0  0  0  0
  1  2  1  0
  2  3  2  0
  3  4  1  0
  4  5  1  0
  5  6  1  0
  6  7  1  0
  7  8  2  0
  8  9  1  0
  9 10  2  0
 10 11  1  0
 11 12  1  0
 11 13  2  0
 13 14  1  0
 14 15  2  0
 14 16  1  0
 16 17  1  0
  4 18  2  0
 18 19  1  0
 19 20  2  0
 20 21  1  0
 21 22  1  0
 22 23  1  0
 22 24  1  0
 20  2  1  0
 16  5  2  0
 13  7  1  0
  1 25  1  0
  1 26  1  0
  1 27  1  0
  3 28  1  0
  8 29  1  0
  9 30  1  0
 10 31  1  0
 12 32  1  0
 17 33  1  0
 18 34  1  0
 19 35  1  0
 21 36  1  0
 21 37  1  0
 22 38  1  0
 23 39  1  0
 23 40  1  0
 23 41  1  0
 24 42  1  0
 24 43  1  0
 24 44  1  0
M  END
>  <meeko>  (2) 
{"is_sidechain": [false], "free_energy": -7.209, "intermolecular_energy": -9.056, "internal_energy": -0.414}

$$$$
cand_051_out
     RDKit          3D

 44 46  0  0  0  0  0  0  0  0999 V2000
   21.1250  -27.1890   41.9340 C   0  0  0  0  0  0  0  0  0  0  0  0
   20.1420  -27.3070   40.8020 C   0  0  0  0  0  0  0  0  0  0  0  0
   20.2430  -28.4100   39.9330 C   0  0  0  0  0  0  0  0  0  0  0  0
   19.3650  -28.5860   38.8520 C   0  0  0  0  0  0  0  0  0  0  0  0
   19.5260  -29.7480   37.9520 C   0  0  0  0  0  0  0  0  0  0  0  0
   19.8990  -29.3830   36.6630 O   0  0  0  0  0  0  0  0  0  0  0  0
   20.0830  -30.3660   35.7230 C   0  0  0  0  0  0  0  0  0  0  0  0
   20.4430  -29.9550   34.4380 C   0  0  0  0  0  0  0  0  0  0  0  0
   20.6480  -30.9050   33.4360 C   0  0  0  0  0  0  0  0  0  0  0  0
   20.4930  -32.2640   33.7160 C   0  0  0  0  0  0  0  0  0  0  0  0
   20.1340  -32.6710   34.9980 C   0  0  0  0  0  0  0  0  0  0  0  0
   20.0010  -34.0170   35.2040 O   0  0  0  0  0  0  0  0  0  0  0  0
   19.9290  -31.7210   36.0020 C   0  0  0  0  0  0  0  0  0  0  0  0
   19.5510  -32.1050   37.3620 C   0  0  0  0  0  0  0  0  0  0  0  0
   19.4040  -33.2820   37.6890 O   0  0  0  0  0  0  0  0  0  0  0  0
   19.3490  -31.0210   38.3500 C   0  0  0  0  0  0  0  0  0  0  0  0
   19.0060  -31.3970   39.6360 O   0  0  0  0  0  0  0  0  0  0  0  0
   18.3810  -27.6180   38.6350 C   0  0  0  0  0  0  0  0  0  0  0  0
   18.2680  -26.5160   39.4860 C   0  0  0  0  0  0  0  0  0  0  0  0
   19.1360  -26.3460   40.5770 C   0  0  0  0  0  0  0  0  0  0  0  0
   18.9500  -25.1270   41.4600 C   0  0  0  0  0  0  0  0  0  0  0  0
   19.7940  -23.9090   41.0320 C   0  0  0  0  0  0  0  0  0  0  0  0
   19.7140  -22.8210   42.1060 C   0  0  0  0  0  0  0  0  0  0  0  0
   19.3440  -23.3370   39.6860 C   0  0  0  0  0  0  0  0  0  0  0  0
   20.5896  -27.2533   42.8927 H   0  0  0  0  0  0  0  0  0  0  0  0
   21.8593  -28.0055   41.8686 H   0  0  0  0  0  0  0  0  0  0  0  0
   21.6452  -26.2220   41.8686 H   0  0  0  0  0  0  0  0  0  0  0  0
   21.0330  -29.1556   40.1062 H   0  0  0  0  0  0  0  0  0  0  0  0
   20.5648  -28.8846   34.2157 H   0  0  0  0  0  0  0  0  0  0  0  0
   20.9323  -30.5822   32.4236 H   0  0  0  0  0  0  0  0  0  0  0  0
   20.6542  -33.0115   32.9253 H   0  0  0  0  0  0  0  0  0  0  0  0
   19.8080  -34.5840   34.4840 H   0  0  0  0  0  0  0  0  0  0  0  0
   19.3030  -30.8910   40.3670 H   0  0  0  0  0  0  0  0  0  0  0  0
   17.6892  -27.7247   37.7865 H   0  0  0  0  0  0  0  0  0  0  0  0
   17.4844  -25.7672   39.2981 H   0  0  0  0  0  0  0  0  0  0  0  0
   17.8887  -24.8391   41.4335 H   0  0  0  0  0  0  0  0  0  0  0  0
   19.2866  -25.4095   42.4684 H   0  0  0  0  0  0  0  0  0  0  0  0
   20.8328  -24.2518   40.9164 H   0  0  0  0  0  0  0  0  0  0  0  0
   19.7482  -23.2860   43.1023 H   0  0  0  0  0  0  0  0  0  0  0  0
   20.5639  -22.1317   41.9937 H   0  0  0  0  0  0  0  0  0  0  0  0
   18.7724  -22.2635   41.9937 H   0  0  0  0  0  0  0  0  0  0  0  0
   18.6721  -22.4829   39.8567 H   0  0  0  0  0  0  0  0  0  0  0  0
   20.2241  -23.0031   39.1168 H   0  0  0  0  0  0  0  0  0  0  0  0
   18.8123  -24.1138   39.1168 H   0  0  0  0  0  0  0  0  0  0  0  0
  1  2  1  0
  2  3  2  0
  3  4  1  0
  4  5  1  0
  5  6  1  0
  6  7  1  0
  7  8  2  0
  8  9  1  0
  9 10  2  0
 10 11  1  0
 11 12  1  0
 11 13  2  0
 13 14  1  0
 14 15  2  0
 14 16  1  0
 16 17  1  0
  4 18  2  0
 18 19  1  0
 19 20  2  0
 20 21  1  0
 21 22  1  0
 22 23  1  0
 22 24  1  0
 20  2  1  0
 16  5  2  0
 13  7  1  0
  1 25  1  0
  1 26  1  0
  1 27  1  0
  3 28  1  0
  8 29  1  0
  9 30  1  0
 10 31  1  0
 12 32  1  0
 17 33  1  0
 18 34  1  0
 19 35  1  0
 21 36  1  0
 21 37  1  0
 22 38  1  0
 23 39  1  0
 23 40  1  0
 23 41  1  0
 24 42  1  0
 24 43  1  0
 24 44  1  0
M  END
>  <meeko>  (3) 
{"is_sidechain": [false], "free_energy": -7.146, "intermolecular_energy": -8.951, "internal_energy": -0.44}

$$$$
cand_051_out
     RDKit          3D

 44 46  0  0  0  0  0  0  0  0999 V2000
   18.7260  -25.3840   37.3540 C   0  0  0  0  0  0  0  0  0  0  0  0
   18.9530  -26.7970   37.8140 C   0  0  0  0  0  0  0  0  0  0  0  0
   19.2550  -27.7790   36.8520 C   0  0  0  0  0  0  0  0  0  0  0  0
   19.4760  -29.1200   37.2050 C   0  0  0  0  0  0  0  0  0  0  0  0
   19.7660  -30.1210   36.1570 C   0  0  0  0  0  0  0  0  0  0  0  0
   19.4960  -31.4230   36.5640 O   0  0  0  0  0  0  0  0  0  0  0  0
   19.7220  -32.4530   35.6870 C   0  0  0  0  0  0  0  0  0  0  0  0
   19.4500  -33.7440   36.1420 C   0  0  0  0  0  0  0  0  0  0  0  0
   19.6560  -34.8370   35.2970 C   0  0  0  0  0  0  0  0  0  0  0  0
   20.1330  -34.6410   34.0000 C   0  0  0  0  0  0  0  0  0  0  0  0
   20.4020  -33.3510   33.5490 C   0  0  0  0  0  0  0  0  0  0  0  0
   20.8660  -33.2300   32.2670 O   0  0  0  0  0  0  0  0  0  0  0  0
   20.1970  -32.2560   34.3930 C   0  0  0  0  0  0  0  0  0  0  0  0
   20.4680  -30.8860   33.9590 C   0  0  0  0  0  0  0  0  0  0  0  0
   20.8810  -30.6310   32.8290 O   0  0  0  0  0  0  0  0  0  0  0  0
   20.2240  -29.7980   34.9340 C   0  0  0  0  0  0  0  0  0  0  0  0
   20.4700  -28.5050   34.5080 O   0  0  0  0  0  0  0  0  0  0  0  0
   19.3680  -29.4750   38.5520 C   0  0  0  0  0  0  0  0  0  0  0  0
   19.0660  -28.5140   39.5200 C   0  0  0  0  0  0  0  0  0  0  0  0
   18.8600  -27.1690   39.1700 C   0  0  0  0  0  0  0  0  0  0  0  0
   18.5400  -26.1810   40.2750 C   0  0  0  0  0  0  0  0  0  0  0  0
   19.7830  -25.6490   41.0190 C   0  0  0  0  0  0  0  0  0  0  0  0
   19.7990  -26.1880   42.4510 C   0  0  0  0  0  0  0  0  0  0  0  0
   19.8290  -24.1190   41.0450 C   0  0  0  0  0  0  0  0  0  0  0  0
   18.6203  -24.7260   38.2291 H   0  0  0  0  0  0  0  0  0  0  0  0
   19.5826  -25.0535   36.7481 H   0  0  0  0  0  0  0  0  0  0  0  0
   17.8090  -25.3385   36.7481 H   0  0  0  0  0  0  0  0  0  0  0  0
   19.3198  -27.4876   35.7933 H   0  0  0  0  0  0  0  0  0  0  0  0
   19.0742  -33.9005   37.1639 H   0  0  0  0  0  0  0  0  0  0  0  0
   19.4417  -35.8549   35.6547 H   0  0  0  0  0  0  0  0  0  0  0  0
   20.2960  -35.5027   33.3360 H   0  0  0  0  0  0  0  0  0  0  0  0
   21.5810  -32.6540   32.0800 H   0  0  0  0  0  0  0  0  0  0  0  0
   20.6580  -27.8340   35.1340 H   0  0  0  0  0  0  0  0  0  0  0  0
   19.5223  -30.5216   38.8533 H   0  0  0  0  0  0  0  0  0  0  0  0
   18.9881  -28.8157   40.5749 H   0  0  0  0  0  0  0  0  0  0  0  0
   18.0096  -25.3255   39.8315 H   0  0  0  0  0  0  0  0  0  0  0  0
   17.9304  -26.7183   41.0164 H   0  0  0  0  0  0  0  0  0  0  0  0
   20.6708  -26.0000   40.4726 H   0  0  0  0  0  0  0  0  0  0  0  0
   19.7740  -25.3470   43.1596 H   0  0  0  0  0  0  0  0  0  0  0  0
   18.9195  -26.8289   42.6114 H   0  0  0  0  0  0  0  0  0  0  0  0
   20.7150  -26.7756   42.6114 H   0  0  0  0  0  0  0  0  0  0  0  0
   19.8395  -23.7702   42.0882 H   0  0  0  0  0  0  0  0  0  0  0  0
   20.7380  -23.7707   40.5328 H   0  0  0  0  0  0  0  0  0  0  0  0
   18.9425  -23.7168   40.5328 H   0  0  0  0  0  0  0  0  0  0  0  0
  1  2  1  0
  2  3  2  0
  3  4  1  0
  4  5  1  0
  5  6  1  0
  6  7  1  0
  7  8  2  0
  8  9  1  0
  9 10  2  0
 10 11  1  0
 11 12  1  0
 11 13  2  0
 13 14  1  0
 14 15  2  0
 14 16  1  0
 16 17  1  0
  4 18  2  0
 18 19  1  0
 19 20  2  0
 20 21  1  0
 21 22  1  0
 22 23  1  0
 22 24  1  0
 20  2  1  0
 16  5  2  0
 13  7  1  0
  1 25  1  0
  1 26  1  0
  1 27  1  0
  3 28  1  0
  8 29  1  0
  9 30  1  0
 10 31  1  0
 12 32  1  0
 17 33  1  0
 18 34  1  0
 19 35  1  0
 21 36  1  0
 21 37  1  0
 22 38  1  0
 23 39  1  0
 23 40  1  0
 23 41  1  0
 24 42  1  0
 24 43  1  0
 24 44  1  0
M  END
>  <meeko>  (4) 
{"is_sidechain": [false], "free_energy": -7.059, "intermolecular_energy": -9.162, "internal_energy": -0.122}

$$$$
cand_051_out
     RDKit          3D

 44 46  0  0  0  0  0  0  0  0999 V2000
   19.9190  -25.3380   43.6280 C   0  0  0  0  0  0  0  0  0  0  0  0
   20.2370  -25.9060   42.2730 C   0  0  0  0  0  0  0  0  0  0  0  0
   19.5860  -25.3680   41.1460 C   0  0  0  0  0  0  0  0  0  0  0  0
   19.8280  -25.8490   39.8500 C   0  0  0  0  0  0  0  0  0  0  0  0
   19.1030  -25.2690   38.7000 C   0  0  0  0  0  0  0  0  0  0  0  0
   19.5280  -23.9830   38.3870 O   0  0  0  0  0  0  0  0  0  0  0  0
   18.9370  -23.3250   37.3390 C   0  0  0  0  0  0  0  0  0  0  0  0
   19.3850  -22.0310   37.0680 C   0  0  0  0  0  0  0  0  0  0  0  0
   18.8260  -21.3070   36.0130 C   0  0  0  0  0  0  0  0  0  0  0  0
   17.8220  -21.8760   35.2280 C   0  0  0  0  0  0  0  0  0  0  0  0
   17.3770  -23.1670   35.5000 C   0  0  0  0  0  0  0  0  0  0  0  0
   16.3910  -23.6640   34.6910 O   0  0  0  0  0  0  0  0  0  0  0  0
   17.9350  -23.8920   36.5560 C   0  0  0  0  0  0  0  0  0  0  0  0
   17.4970  -25.2510   36.8750 C   0  0  0  0  0  0  0  0  0  0  0  0
   16.6230  -25.8220   36.2260 O   0  0  0  0  0  0  0  0  0  0  0  0
   18.1480  -25.9290   38.0200 C   0  0  0  0  0  0  0  0  0  0  0  0
   17.7350  -27.2180   38.3040 O   0  0  0  0  0  0  0  0  0  0  0  0
   20.7290  -26.9060   39.6950 C   0  0  0  0  0  0  0  0  0  0  0  0
   21.3820  -27.4530   40.8020 C   0  0  0  0  0  0  0  0  0  0  0  0
   21.1520  -26.9630   42.0980 C   0  0  0  0  0  0  0  0  0  0  0  0
   21.9000  -27.6040   43.2510 C   0  0  0  0  0  0  0  0  0  0  0  0
   23.4330  -27.6110   43.0770 C   0  0  0  0  0  0  0  0  0  0  0  0
   23.9390  -29.0540   42.9990 C   0  0  0  0  0  0  0  0  0  0  0  0
   24.1470  -26.8760   44.2140 C   0  0  0  0  0  0  0  0  0  0  0  0
   20.2981  -26.0151   44.4076 H   0  0  0  0  0  0  0  0  0  0  0  0
   20.3968  -24.3529   43.7340 H   0  0  0  0  0  0  0  0  0  0  0  0
   18.8294  -25.2304   43.7340 H   0  0  0  0  0  0  0  0  0  0  0  0
   18.8672  -24.5472   41.2856 H   0  0  0  0  0  0  0  0  0  0  0  0
   20.1775  -21.5822   37.6849 H   0  0  0  0  0  0  0  0  0  0  0  0
   19.1775  -20.2866   35.8002 H   0  0  0  0  0  0  0  0  0  0  0  0
   17.3831  -21.3057   34.3961 H   0  0  0  0  0  0  0  0  0  0  0  0
   16.1220  -24.5570   34.7740 H   0  0  0  0  0  0  0  0  0  0  0  0
   17.1930  -27.3830   39.0510 H   0  0  0  0  0  0  0  0  0  0  0  0
   20.9259  -27.3111   38.6915 H   0  0  0  0  0  0  0  0  0  0  0  0
   22.0893  -28.2827   40.6561 H   0  0  0  0  0  0  0  0  0  0  0  0
   21.6586  -27.0505   44.1704 H   0  0  0  0  0  0  0  0  0  0  0  0
   21.5794  -28.6554   43.2935 H   0  0  0  0  0  0  0  0  0  0  0  0
   23.6616  -27.0790   42.1417 H   0  0  0  0  0  0  0  0  0  0  0  0
   24.0777  -29.4494   44.0161 H   0  0  0  0  0  0  0  0  0  0  0  0
   23.2039  -29.6718   42.4624 H   0  0  0  0  0  0  0  0  0  0  0  0
   24.8990  -29.0774   42.4624 H   0  0  0  0  0  0  0  0  0  0  0  0
   23.7812  -27.2525   45.1807 H   0  0  0  0  0  0  0  0  0  0  0  0
   25.2307  -27.0494   44.1392 H   0  0  0  0  0  0  0  0  0  0  0  0
   23.9422  -25.7978   44.1392 H   0  0  0  0  0  0  0  0  0  0  0  0
  1  2  1  0
  2  3  2  0
  3  4  1  0
  4  5  1  0
  5  6  1  0
  6  7  1  0
  7  8  2  0
  8  9  1  0
  9 10  2  0
 10 11  1  0
 11 12  1  0
 11 13  2  0
 13 14  1  0
 14 15  2  0
 14 16  1  0
 16 17  1  0
  4 18  2  0
 18 19  1  0
 19 20  2  0
 20 21  1  0
 21 22  1  0
 22 23  1  0
 22 24  1  0
 20  2  1  0
 16  5  2  0
 13  7  1  0
  1 25  1  0
  1 26  1  0
  1 27  1  0
  3 28  1  0
  8 29  1  0
  9 30  1  0
 10 31  1  0
 12 32  1  0
 17 33  1  0
 18 34  1  0
 19 35  1  0
 21 36  1  0
 21 37  1  0
 22 38  1  0
 23 39  1  0
 23 40  1  0
 23 41  1  0
 24 42  1  0
 24 43  1  0
 24 44  1  0
M  END
>  <meeko>  (5) 
{"is_sidechain": [false], "free_energy": -6.972, "intermolecular_energy": -8.553, "internal_energy": -0.624}

$$$$
cand_051_out
     RDKit          3D

 44 46  0  0  0  0  0  0  0  0999 V2000
   17.7560  -22.9230   46.0950 C   0  0  0  0  0  0  0  0  0  0  0  0
   18.9760  -23.6520   45.6040 C   0  0  0  0  0  0  0  0  0  0  0  0
   18.9900  -24.1280   44.2790 C   0  0  0  0  0  0  0  0  0  0  0  0
   20.0920  -24.8210   43.7520 C   0  0  0  0  0  0  0  0  0  0  0  0
   20.0510  -25.3230   42.3620 C   0  0  0  0  0  0  0  0  0  0  0  0
   19.7160  -24.3360   41.4420 O   0  0  0  0  0  0  0  0  0  0  0  0
   19.6420  -24.6660   40.1120 C   0  0  0  0  0  0  0  0  0  0  0  0
   19.2880  -23.6480   39.2250 C   0  0  0  0  0  0  0  0  0  0  0  0
   19.1970  -23.9170   37.8580 C   0  0  0  0  0  0  0  0  0  0  0  0
   19.4580  -25.2010   37.3770 C   0  0  0  0  0  0  0  0  0  0  0  0
   19.8110  -26.2150   38.2650 C   0  0  0  0  0  0  0  0  0  0  0  0
   20.0550  -27.4490   37.7270 O   0  0  0  0  0  0  0  0  0  0  0  0
   19.9020  -25.9470   39.6340 C   0  0  0  0  0  0  0  0  0  0  0  0
   20.2690  -26.9820   40.5990 C   0  0  0  0  0  0  0  0  0  0  0  0
   20.5220  -28.1350   40.2530 O   0  0  0  0  0  0  0  0  0  0  0  0
   20.3300  -26.5960   42.0280 C   0  0  0  0  0  0  0  0  0  0  0  0
   20.6910  -27.5800   42.9300 O   0  0  0  0  0  0  0  0  0  0  0  0
   21.1880  -25.0530   44.5860 C   0  0  0  0  0  0  0  0  0  0  0  0
   21.1900  -24.5900   45.9040 C   0  0  0  0  0  0  0  0  0  0  0  0
   20.0950  -23.8840   46.4290 C   0  0  0  0  0  0  0  0  0  0  0  0
   20.1700  -23.4080   47.8670 C   0  0  0  0  0  0  0  0  0  0  0  0
   20.9770  -24.3410   48.7940 C   0  0  0  0  0  0  0  0  0  0  0  0
   20.0320  -25.3290   49.4830 C   0  0  0  0  0  0  0  0  0  0  0  0
   21.7680  -23.5640   49.8490 C   0  0  0  0  0  0  0  0  0  0  0  0
   17.7492  -22.9189   47.1950 H   0  0  0  0  0  0  0  0  0  0  0  0
   17.7738  -21.8874   45.7246 H   0  0  0  0  0  0  0  0  0  0  0  0
   16.8524  -23.4294   45.7246 H   0  0  0  0  0  0  0  0  0  0  0  0
   18.1131  -23.9521   43.6386 H   0  0  0  0  0  0  0  0  0  0  0  0
   19.0811  -22.6357   39.6023 H   0  0  0  0  0  0  0  0  0  0  0  0
   18.9189  -23.1150   37.1583 H   0  0  0  0  0  0  0  0  0  0  0  0
   19.3852  -25.4118   36.2998 H   0  0  0  0  0  0  0  0  0  0  0  0
   20.8170  -27.9300   37.9830 H   0  0  0  0  0  0  0  0  0  0  0  0
   21.1380  -27.3480   43.7210 H   0  0  0  0  0  0  0  0  0  0  0  0
   22.0579  -25.6056   44.2014 H   0  0  0  0  0  0  0  0  0  0  0  0
   22.0651  -24.7818   46.5424 H   0  0  0  0  0  0  0  0  0  0  0  0
   20.6428  -22.4149   47.8787 H   0  0  0  0  0  0  0  0  0  0  0  0
   19.1394  -23.3902   48.2512 H   0  0  0  0  0  0  0  0  0  0  0  0
   21.7011  -24.8834   48.1684 H   0  0  0  0  0  0  0  0  0  0  0  0
   20.1283  -25.2283   50.5741 H   0  0  0  0  0  0  0  0  0  0  0  0
   18.9953  -25.1135   49.1850 H   0  0  0  0  0  0  0  0  0  0  0  0
   20.2934  -26.3551   49.1850 H   0  0  0  0  0  0  0  0  0  0  0  0
   21.4475  -23.8788   50.8531 H   0  0  0  0  0  0  0  0  0  0  0  0
   22.8419  -23.7681   49.7261 H   0  0  0  0  0  0  0  0  0  0  0  0
   21.5831  -22.4866   49.7261 H   0  0  0  0  0  0  0  0  0  0  0  0
  1  2  1  0
  2  3  2  0
  3  4  1  0
  4  5  1  0
  5  6  1  0
  6  7  1  0
  7  8  2  0
  8  9  1  0
  9 10  2  0
 10 11  1  0
 11 12  1  0
 11 13  2  0
 13 14  1  0
 14 15  2  0
 14 16  1  0
 16 17  1  0
  4 18  2  0
 18 19  1  0
 19 20  2  0
 20 21  1  0
 21 22  1  0
 22 23  1  0
 22 24  1  0
 20  2  1  0
 16  5  2  0
 13  7  1  0
  1 25  1  0
  1 26  1  0
  1 27  1  0
  3 28  1  0
  8 29  1  0
  9 30  1  0
 10 31  1  0
 12 32  1  0
 17 33  1  0
 18 34  1  0
 19 35  1  0
 21 36  1  0
 21 37  1  0
 22 38  1  0
 23 39  1  0
 23 40  1  0
 23 41  1  0
 24 42  1  0
 24 43  1  0
 24 44  1  0
M  END
>  <meeko>  (6) 
{"is_sidechain": [false], "free_energy": -6.965, "intermolecular_energy": -8.714, "internal_energy": -0.454}

$$$$
cand_051_out
     RDKit          3D

 44 46  0  0  0  0  0  0  0  0999 V2000
   20.3590  -31.3400   35.4360 C   0  0  0  0  0  0  0  0  0  0  0  0
   19.8410  -30.9410   36.7900 C   0  0  0  0  0  0  0  0  0  0  0  0
   19.8570  -29.5790   37.1440 C   0  0  0  0  0  0  0  0  0  0  0  0
   19.3940  -29.1320   38.3920 C   0  0  0  0  0  0  0  0  0  0  0  0
   19.4530  -27.6930   38.7280 C   0  0  0  0  0  0  0  0  0  0  0  0
   18.6490  -26.9140   37.9030 O   0  0  0  0  0  0  0  0  0  0  0  0
   18.6100  -25.5570   38.1060 C   0  0  0  0  0  0  0  0  0  0  0  0
   17.8020  -24.8120   37.2460 C   0  0  0  0  0  0  0  0  0  0  0  0
   17.7150  -23.4260   37.3990 C   0  0  0  0  0  0  0  0  0  0  0  0
   18.4350  -22.7870   38.4100 C   0  0  0  0  0  0  0  0  0  0  0  0
   19.2400  -23.5340   39.2660 C   0  0  0  0  0  0  0  0  0  0  0  0
   19.9170  -22.8440   40.2350 O   0  0  0  0  0  0  0  0  0  0  0  0
   19.3280  -24.9200   39.1130 C   0  0  0  0  0  0  0  0  0  0  0  0
   20.1620  -25.7410   39.9910 C   0  0  0  0  0  0  0  0  0  0  0  0
   20.8190  -25.2530   40.9080 O   0  0  0  0  0  0  0  0  0  0  0  0
   20.1910  -27.2010   39.7390 C   0  0  0  0  0  0  0  0  0  0  0  0
   20.9720  -27.9690   40.5830 O   0  0  0  0  0  0  0  0  0  0  0  0
   18.9270  -30.0820   39.3040 C   0  0  0  0  0  0  0  0  0  0  0  0
   18.9070  -31.4380   38.9700 C   0  0  0  0  0  0  0  0  0  0  0  0
   19.3560  -31.8860   37.7160 C   0  0  0  0  0  0  0  0  0  0  0  0
   19.3000  -33.3730   37.4230 C   0  0  0  0  0  0  0  0  0  0  0  0
   19.5880  -34.2650   38.6480 C   0  0  0  0  0  0  0  0  0  0  0  0
   20.4320  -35.4700   38.2240 C   0  0  0  0  0  0  0  0  0  0  0  0
   18.3040  -34.7490   39.3260 C   0  0  0  0  0  0  0  0  0  0  0  0
   21.2252  -32.0072   35.5568 H   0  0  0  0  0  0  0  0  0  0  0  0
   19.5673  -31.8639   34.8803 H   0  0  0  0  0  0  0  0  0  0  0  0
   20.6635  -30.4408   34.8803 H   0  0  0  0  0  0  0  0  0  0  0  0
   20.2431  -28.8438   36.4226 H   0  0  0  0  0  0  0  0  0  0  0  0
   17.2346  -25.3151   36.4491 H   0  0  0  0  0  0  0  0  0  0  0  0
   17.0784  -22.8375   36.7220 H   0  0  0  0  0  0  0  0  0  0  0  0
   18.3665  -21.6957   38.5301 H   0  0  0  0  0  0  0  0  0  0  0  0
   19.6800  -22.9460   41.1350 H   0  0  0  0  0  0  0  0  0  0  0  0
   21.1970  -27.6470   41.4350 H   0  0  0  0  0  0  0  0  0  0  0  0
   18.5720  -29.7591   40.2938 H   0  0  0  0  0  0  0  0  0  0  0  0
   18.5329  -32.1688   39.7021 H   0  0  0  0  0  0  0  0  0  0  0  0
   18.2943  -33.6141   37.0483 H   0  0  0  0  0  0  0  0  0  0  0  0
   20.0883  -33.5819   36.6848 H   0  0  0  0  0  0  0  0  0  0  0  0
   20.1395  -33.6547   39.3783 H   0  0  0  0  0  0  0  0  0  0  0  0
   20.7989  -35.9938   39.1190 H   0  0  0  0  0  0  0  0  0  0  0  0
   19.8161  -36.1562   37.6242 H   0  0  0  0  0  0  0  0  0  0  0  0
   21.2874  -35.1257   37.6242 H   0  0  0  0  0  0  0  0  0  0  0  0
   18.4263  -34.7029   40.4182 H   0  0  0  0  0  0  0  0  0  0  0  0
   17.4647  -34.1056   39.0235 H   0  0  0  0  0  0  0  0  0  0  0  0
   18.0983  -35.7864   39.0235 H   0  0  0  0  0  0  0  0  0  0  0  0
  1  2  1  0
  2  3  2  0
  3  4  1  0
  4  5  1  0
  5  6  1  0
  6  7  1  0
  7  8  2  0
  8  9  1  0
  9 10  2  0
 10 11  1  0
 11 12  1  0
 11 13  2  0
 13 14  1  0
 14 15  2  0
 14 16  1  0
 16 17  1  0
  4 18  2  0
 18 19  1  0
 19 20  2  0
 20 21  1  0
 21 22  1  0
 22 23  1  0
 22 24  1  0
 20  2  1  0
 16  5  2  0
 13  7  1  0
  1 25  1  0
  1 26  1  0
  1 27  1  0
  3 28  1  0
  8 29  1  0
  9 30  1  0
 10 31  1  0
 12 32  1  0
 17 33  1  0
 18 34  1  0
 19 35  1  0
 21 36  1  0
 21 37  1  0
 22 38  1  0
 23 39  1  0
 23 40  1  0
 23 41  1  0
 24 42  1  0
 24 43  1  0
 24 44  1  0
M  END
>  <meeko>  (7) 
{"is_sidechain": [false], "free_energy": -6.901, "intermolecular_energy": -8.7, "internal_energy": -0.39}

$$$$
cand_051_out
     RDKit          3D

 44 46  0  0  0  0  0  0  0  0999 V2000
   17.5830  -22.5960   46.0940 C   0  0  0  0  0  0  0  0  0  0  0  0
   18.7380  -23.3690   45.5190 C   0  0  0  0  0  0  0  0  0  0  0  0
   18.7210  -23.6880   44.1480 C   0  0  0  0  0  0  0  0  0  0  0  0
   19.7610  -24.4100   43.5420 C   0  0  0  0  0  0  0  0  0  0  0  0
   19.6880  -24.7430   42.1040 C   0  0  0  0  0  0  0  0  0  0  0  0
   19.5890  -26.1100   41.8710 O   0  0  0  0  0  0  0  0  0  0  0  0
   19.5130  -26.5590   40.5770 C   0  0  0  0  0  0  0  0  0  0  0  0
   19.4290  -27.9390   40.3880 C   0  0  0  0  0  0  0  0  0  0  0  0
   19.3460  -28.4620   39.0960 C   0  0  0  0  0  0  0  0  0  0  0  0
   19.3470  -27.6060   37.9930 C   0  0  0  0  0  0  0  0  0  0  0  0
   19.4310  -26.2290   38.1840 C   0  0  0  0  0  0  0  0  0  0  0  0
   19.4260  -25.4490   37.0600 O   0  0  0  0  0  0  0  0  0  0  0  0
   19.5140  -25.7050   39.4770 C   0  0  0  0  0  0  0  0  0  0  0  0
   19.6030  -24.2660   39.7220 C   0  0  0  0  0  0  0  0  0  0  0  0
   19.6020  -23.4480   38.8030 O   0  0  0  0  0  0  0  0  0  0  0  0
   19.6950  -23.8150   41.1300 C   0  0  0  0  0  0  0  0  0  0  0  0
   19.7650  -22.4510   41.3500 O   0  0  0  0  0  0  0  0  0  0  0  0
   20.8260  -24.8330   44.3420 C   0  0  0  0  0  0  0  0  0  0  0  0
   20.8580  -24.5270   45.7040 C   0  0  0  0  0  0  0  0  0  0  0  0
   19.8250  -23.7920   46.3100 C   0  0  0  0  0  0  0  0  0  0  0  0
   19.9310  -23.4940   47.7930 C   0  0  0  0  0  0  0  0  0  0  0  0
   20.7990  -24.5020   48.5740 C   0  0  0  0  0  0  0  0  0  0  0  0
   19.9040  -25.5600   49.2260 C   0  0  0  0  0  0  0  0  0  0  0  0
   21.6530  -23.8200   49.6460 C   0  0  0  0  0  0  0  0  0  0  0  0
   17.6309  -22.6281   47.1925 H   0  0  0  0  0  0  0  0  0  0  0  0
   17.6362  -21.5509   45.7550 H   0  0  0  0  0  0  0  0  0  0  0  0
   16.6371  -23.0437   45.7550 H   0  0  0  0  0  0  0  0  0  0  0  0
   17.8684  -23.3622   43.5341 H   0  0  0  0  0  0  0  0  0  0  0  0
   19.4282  -28.6144   41.2563 H   0  0  0  0  0  0  0  0  0  0  0  0
   19.2797  -29.5498   38.9470 H   0  0  0  0  0  0  0  0  0  0  0  0
   19.2816  -28.0183   36.9753 H   0  0  0  0  0  0  0  0  0  0  0  0
   20.1230  -25.5180   36.4380 H   0  0  0  0  0  0  0  0  0  0  0  0
   19.5880  -21.8540   40.6490 H   0  0  0  0  0  0  0  0  0  0  0  0
   21.6469  -25.4125   43.8944 H   0  0  0  0  0  0  0  0  0  0  0  0
   21.7077  -24.8676   46.3139 H   0  0  0  0  0  0  0  0  0  0  0  0
   20.3697  -22.4926   47.9143 H   0  0  0  0  0  0  0  0  0  0  0  0
   18.9136  -23.5629   48.2054 H   0  0  0  0  0  0  0  0  0  0  0  0
   21.4831  -24.9758   47.8546 H   0  0  0  0  0  0  0  0  0  0  0  0
   19.9749  -25.4762   50.3205 H   0  0  0  0  0  0  0  0  0  0  0  0
   18.8614  -25.4018   48.9129 H   0  0  0  0  0  0  0  0  0  0  0  0
   20.2328  -26.5619   48.9129 H   0  0  0  0  0  0  0  0  0  0  0  0
   21.2901  -24.1098   50.6431 H   0  0  0  0  0  0  0  0  0  0  0  0
   22.7017  -24.1319   49.5326 H   0  0  0  0  0  0  0  0  0  0  0  0
   21.5808  -22.7282   49.5326 H   0  0  0  0  0  0  0  0  0  0  0  0
  1  2  1  0
  2  3  2  0
  3  4  1  0
  4  5  1  0
  5  6  1  0
  6  7  1  0
  7  8  2  0
  8  9  1  0
  9 10  2  0
 10 11  1  0
 11 12  1  0
 11 13  2  0
 13 14  1  0
 14 15  2  0
 14 16  1  0
 16 17  1  0
  4 18  2  0
 18 19  1  0
 19 20  2  0
 20 21  1  0
 21 22  1  0
 22 23  1  0
 22 24  1  0
 20  2  1  0
 16  5  2  0
 13  7  1  0
  1 25  1  0
  1 26  1  0
  1 27  1  0
  3 28  1  0
  8 29  1  0
  9 30  1  0
 10 31  1  0
 12 32  1  0
 17 33  1  0
 18 34  1  0
 19 35  1  0
 21 36  1  0
 21 37  1  0
 22 38  1  0
 23 39  1  0
 23 40  1  0
 23 41  1  0
 24 42  1  0
 24 43  1  0
 24 44  1  0
M  END
>  <meeko>  (8) 
{"is_sidechain": [false], "free_energy": -6.893, "intermolecular_energy": -8.514, "internal_energy": -0.565}

$$$$
cand_051_out
     RDKit          3D

 44 46  0  0  0  0  0  0  0  0999 V2000
   19.7310  -22.1930   42.7270 C   0  0  0  0  0  0  0  0  0  0  0  0
   19.6760  -23.6310   42.2910 C   0  0  0  0  0  0  0  0  0  0  0  0
   19.5110  -23.9150   40.9220 C   0  0  0  0  0  0  0  0  0  0  0  0
   19.4460  -25.2330   40.4420 C   0  0  0  0  0  0  0  0  0  0  0  0
   19.2480  -25.4820   38.9980 C   0  0  0  0  0  0  0  0  0  0  0  0
   18.1470  -24.8080   38.4810 O   0  0  0  0  0  0  0  0  0  0  0  0
   17.8470  -24.9510   37.1490 C   0  0  0  0  0  0  0  0  0  0  0  0
   16.7260  -24.2680   36.6750 C   0  0  0  0  0  0  0  0  0  0  0  0
   16.3660  -24.3700   35.3300 C   0  0  0  0  0  0  0  0  0  0  0  0
   17.1270  -25.1520   34.4590 C   0  0  0  0  0  0  0  0  0  0  0  0
   18.2450  -25.8320   34.9350 C   0  0  0  0  0  0  0  0  0  0  0  0
   18.9460  -26.5790   34.0270 O   0  0  0  0  0  0  0  0  0  0  0  0
   18.6050  -25.7310   36.2810 C   0  0  0  0  0  0  0  0  0  0  0  0
   19.7720  -26.4290   36.8210 C   0  0  0  0  0  0  0  0  0  0  0  0
   20.4950  -27.1300   36.1160 O   0  0  0  0  0  0  0  0  0  0  0  0
   20.0620  -26.2620   38.2640 C   0  0  0  0  0  0  0  0  0  0  0  0
   21.1760  -26.9150   38.7610 O   0  0  0  0  0  0  0  0  0  0  0  0
   19.5280  -26.2790   41.3640 C   0  0  0  0  0  0  0  0  0  0  0  0
   19.6900  -26.0140   42.7260 C   0  0  0  0  0  0  0  0  0  0  0  0
   19.7700  -24.6970   43.2080 C   0  0  0  0  0  0  0  0  0  0  0  0
   19.9490  -24.4880   44.6990 C   0  0  0  0  0  0  0  0  0  0  0  0
   21.4020  -24.1820   45.1190 C   0  0  0  0  0  0  0  0  0  0  0  0
   22.1490  -25.4900   45.3890 C   0  0  0  0  0  0  0  0  0  0  0  0
   21.4690  -23.2870   46.3590 C   0  0  0  0  0  0  0  0  0  0  0  0
   19.7329  -22.1428   43.8259 H   0  0  0  0  0  0  0  0  0  0  0  0
   20.6476  -21.7264   42.3371 H   0  0  0  0  0  0  0  0  0  0  0  0
   18.8527  -21.6578   42.3371 H   0  0  0  0  0  0  0  0  0  0  0  0
   19.4308  -23.0815   40.2087 H   0  0  0  0  0  0  0  0  0  0  0  0
   16.1270  -23.6502   37.3602 H   0  0  0  0  0  0  0  0  0  0  0  0
   15.4815  -23.8335   34.9560 H   0  0  0  0  0  0  0  0  0  0  0  0
   16.8440  -25.2308   33.3990 H   0  0  0  0  0  0  0  0  0  0  0  0
   19.6730  -26.2030   33.5720 H   0  0  0  0  0  0  0  0  0  0  0  0
   21.3050  -27.8250   38.5790 H   0  0  0  0  0  0  0  0  0  0  0  0
   19.4645  -27.3201   41.0147 H   0  0  0  0  0  0  0  0  0  0  0  0
   19.7562  -26.8527   43.4346 H   0  0  0  0  0  0  0  0  0  0  0  0
   19.3143  -23.6447   45.0089 H   0  0  0  0  0  0  0  0  0  0  0  0
   19.6677  -25.4318   45.1891 H   0  0  0  0  0  0  0  0  0  0  0  0
   21.8777  -23.6382   44.2896 H   0  0  0  0  0  0  0  0  0  0  0  0
   22.2372  -25.6445   46.4745 H   0  0  0  0  0  0  0  0  0  0  0  0
   21.5934  -26.3283   44.9433 H   0  0  0  0  0  0  0  0  0  0  0  0
   23.1533  -25.4374   44.9433 H   0  0  0  0  0  0  0  0  0  0  0  0
   21.4223  -23.9104   47.2641 H   0  0  0  0  0  0  0  0  0  0  0  0
   22.4120  -22.7208   46.3520 H   0  0  0  0  0  0  0  0  0  0  0  0
   20.6208  -22.5867   46.3520 H   0  0  0  0  0  0  0  0  0  0  0  0
  1  2  1  0
  2  3  2  0
  3  4  1  0
  4  5  1  0
  5  6  1  0
  6  7  1  0
  7  8  2  0
  8  9  1  0
  9 10  2  0
 10 11  1  0
 11 12  1  0
 11 13  2  0
 13 14  1  0
 14 15  2  0
 14 16  1  0
 16 17  1  0
  4 18  2  0
 18 19  1  0
 19 20  2  0
 20 21  1  0
 21 22  1  0
 22 23  1  0
 22 24  1  0
 20  2  1  0
 16  5  2  0
 13  7  1  0
  1 25  1  0
  1 26  1  0
  1 27  1  0
  3 28  1  0
  8 29  1  0
  9 30  1  0
 10 31  1  0
 12 32  1  0
 17 33  1  0
 18 34  1  0
 19 35  1  0
 21 36  1  0
 21 37  1  0
 22 38  1  0
 23 39  1  0
 23 40  1  0
 23 41  1  0
 24 42  1  0
 24 43  1  0
 24 44  1  0
M  END
>  <meeko>  (9) 
{"is_sidechain": [false], "free_energy": -6.848, "intermolecular_energy": -8.528, "internal_energy": -0.496}

$$$$
