cand_006_out
     RDKit          3D

 47 50  0  0  0  0  0  0  0  0999 V2000
   19.6880  -24.9780   40.3530 C   0  0  0  0  0  0  0  0  0  0  0  0
   19.6500  -26.3770   39.8000 C   0  0  0  0  0  0  0  0  0  0  0  0
   18.8420  -26.6650   38.6920 C   0  0  0  0  0  0  0  0  0  0  0  0
   18.7950  -27.9550   38.1610 C   0  0  0  0  0  0  0  0  0  0  0  0
   19.5580  -28.9860   38.7200 C   0  0  0  0  0  0  0  0  0  0  0  0
   19.4750  -30.3510   38.1590 C   0  0  0  0  0  0  0  0  0  0  0  0
   19.0510  -31.2930   39.0900 O   0  0  0  0  0  0  0  0  0  0  0  0
   18.9280  -32.6020   38.7010 C   0  0  0  0  0  0  0  0  0  0  0  0
   18.5140  -33.5150   39.6720 C   0  0  0  0  0  0  0  0  0  0  0  0
   18.3680  -34.8640   39.3420 C   0  0  0  0  0  0  0  0  0  0  0  0
   18.6350  -35.3000   38.0420 C   0  0  0  0  0  0  0  0  0  0  0  0
   19.0480  -34.3870   37.0750 C   0  0  0  0  0  0  0  0  0  0  0  0
   19.2920  -34.8810   35.8230 O   0  0  0  0  0  0  0  0  0  0  0  0
   19.1960  -33.0370   37.4070 C   0  0  0  0  0  0  0  0  0  0  0  0
   19.6270  -32.0450   36.4210 C   0  0  0  0  0  0  0  0  0  0  0  0
   19.8740  -32.3480   35.2560 O   0  0  0  0  0  0  0  0  0  0  0  0
   19.7590  -30.6410   36.8760 C   0  0  0  0  0  0  0  0  0  0  0  0
   20.1550  -29.7100   35.9320 O   0  0  0  0  0  0  0  0  0  0  0  0
   20.3570  -28.6960   39.8370 C   0  0  0  0  0  0  0  0  0  0  0  0
   20.4200  -27.4020   40.3850 C   0  0  0  0  0  0  0  0  0  0  0  0
   21.2330  -27.0970   41.5020 N   0  0  0  0  0  0  0  0  0  0  0  0
   22.3800  -28.0130   41.6200 C   0  0  0  0  0  0  0  0  0  0  0  0
   23.3280  -27.4870   42.6970 C   0  0  0  0  0  0  0  0  0  0  0  0
   22.6000  -27.2890   44.0270 C   0  0  0  0  0  0  0  0  0  0  0  0
   21.3590  -26.4150   43.8440 C   0  0  0  0  0  0  0  0  0  0  0  0
   20.4530  -26.9650   42.7430 C   0  0  0  0  0  0  0  0  0  0  0  0
   19.6869  -25.0181   41.4523 H   0  0  0  0  0  0  0  0  0  0  0  0
   20.6002  -24.4710   40.0055 H   0  0  0  0  0  0  0  0  0  0  0  0
   18.8046  -24.4222   40.0055 H   0  0  0  0  0  0  0  0  0  0  0  0
   18.2386  -25.8663   38.2360 H   0  0  0  0  0  0  0  0  0  0  0  0
   18.1512  -28.1633   37.2937 H   0  0  0  0  0  0  0  0  0  0  0  0
   18.3030  -33.1725   40.6958 H   0  0  0  0  0  0  0  0  0  0  0  0
   18.0423  -35.5844   40.1068 H   0  0  0  0  0  0  0  0  0  0  0  0
   18.5192  -36.3627   37.7826 H   0  0  0  0  0  0  0  0  0  0  0  0
   19.7330  -35.7000   35.7210 H   0  0  0  0  0  0  0  0  0  0  0  0
   20.6530  -28.9610   36.1940 H   0  0  0  0  0  0  0  0  0  0  0  0
   20.9492  -29.5015   40.2957 H   0  0  0  0  0  0  0  0  0  0  0  0
   22.0241  -29.0156   41.8996 H   0  0  0  0  0  0  0  0  0  0  0  0
   22.9083  -28.0731   40.6570 H   0  0  0  0  0  0  0  0  0  0  0  0
   24.1451  -28.2095   42.8395 H   0  0  0  0  0  0  0  0  0  0  0  0
   23.7227  -26.5143   42.3682 H   0  0  0  0  0  0  0  0  0  0  0  0
   22.2950  -28.2700   44.4203 H   0  0  0  0  0  0  0  0  0  0  0  0
   23.2820  -26.7887   44.7302 H   0  0  0  0  0  0  0  0  0  0  0  0
   20.7977  -26.3864   44.7896 H   0  0  0  0  0  0  0  0  0  0  0  0
   21.6841  -25.4046   43.5551 H   0  0  0  0  0  0  0  0  0  0  0  0
   20.0659  -27.9503   43.0418 H   0  0  0  0  0  0  0  0  0  0  0  0
   19.6083  -26.2796   42.5799 H   0  0  0  0  0  0  0  0  0  0  0  0
  1  2  1  0
  2  3  2  0
  3  4  1  0
  4  5  2  0
  5  6  1  0
  6  7  1  0
  7  8  1  0
  8  9  2  0
  9 10  1  0
 10 11  2  0
 11 12  1  0
 12 13  1  0
 12 14  2  0
 14 15  1  0
 15 16  2  0
 15 17  1  0
 17 18  1  0
  5 19  1  0
 19 20  2  0
 20 21  1  0
 21 22  1  0
 22 23  1  0
 23 24  1  0
 24 25  1  0
 25 26  1  0
 20  2  1  0
 26 21  1  0
 17  6  2  0
 14  8  1  0
  1 27  1  0
  1 28  1  0
  1 29  1  0
  3 30  1  0
  4 31  1  0
  9 32  1  0
 10 33  1  0
 11 34  1  0
 13 35  1  0
 18 36  1  0
 19 37  1  0
 22 38  1  0
 22 39  1  0
 23 40  1  0
 23 41  1  0
 24 42  1  0
 24 43  1  0
 25 44  1  0
 25 45  1  0
 26 46  1  0
 26 47  1  0
M  END
>  <meeko>  (1) 
{"is_sidechain": [false], "free_energy": -8.421, "intermolecular_energy": -9.898, "internal_energy": -0.273}

$$$$
cand_006_out
     RDKit          3D

 47 50  0  0  0  0  0  0  0  0999 V2000
   20.2730  -32.0740   34.3350 C   0  0  0  0  0  0  0  0  0  0  0  0
   20.0340  -31.0690   35.4290 C   0  0  0  0  0  0  0  0  0  0  0  0
   20.1020  -29.6990   35.1420 C   0  0  0  0  0  0  0  0  0  0  0  0
   19.8800  -28.7510   36.1410 C   0  0  0  0  0  0  0  0  0  0  0  0
   19.5790  -29.1480   37.4490 C   0  0  0  0  0  0  0  0  0  0  0  0
   19.3720  -28.1280   38.4990 C   0  0  0  0  0  0  0  0  0  0  0  0
   20.2380  -28.2790   39.5770 O   0  0  0  0  0  0  0  0  0  0  0  0
   20.1550  -27.3960   40.6240 C   0  0  0  0  0  0  0  0  0  0  0  0
   21.0330  -27.5950   41.6900 C   0  0  0  0  0  0  0  0  0  0  0  0
   21.0020  -26.7320   42.7880 C   0  0  0  0  0  0  0  0  0  0  0  0
   20.0940  -25.6710   42.8180 C   0  0  0  0  0  0  0  0  0  0  0  0
   19.2200  -25.4750   41.7520 C   0  0  0  0  0  0  0  0  0  0  0  0
   18.3580  -24.4170   41.8470 O   0  0  0  0  0  0  0  0  0  0  0  0
   19.2500  -26.3400   40.6550 C   0  0  0  0  0  0  0  0  0  0  0  0
   18.3490  -26.1700   39.5150 C   0  0  0  0  0  0  0  0  0  0  0  0
   17.5280  -25.2560   39.4640 O   0  0  0  0  0  0  0  0  0  0  0  0
   18.4570  -27.1450   38.4050 C   0  0  0  0  0  0  0  0  0  0  0  0
   17.6090  -26.9660   37.3270 O   0  0  0  0  0  0  0  0  0  0  0  0
   19.5230  -30.5200   37.7350 C   0  0  0  0  0  0  0  0  0  0  0  0
   19.7410  -31.4920   36.7410 C   0  0  0  0  0  0  0  0  0  0  0  0
   19.6730  -32.8770   37.0170 N   0  0  0  0  0  0  0  0  0  0  0  0
   18.7270  -33.5750   36.1290 C   0  0  0  0  0  0  0  0  0  0  0  0
   18.8790  -35.0840   36.3270 C   0  0  0  0  0  0  0  0  0  0  0  0
   18.6950  -35.4700   37.7940 C   0  0  0  0  0  0  0  0  0  0  0  0
   19.6230  -34.6540   38.6940 C   0  0  0  0  0  0  0  0  0  0  0  0
   19.4550  -33.1550   38.4450 C   0  0  0  0  0  0  0  0  0  0  0  0
   20.5057  -33.0525   34.7804 H   0  0  0  0  0  0  0  0  0  0  0  0
   19.3702  -32.1599   33.7124 H   0  0  0  0  0  0  0  0  0  0  0  0
   21.1178  -31.7443   33.7124 H   0  0  0  0  0  0  0  0  0  0  0  0
   20.3327  -29.3679   34.1187 H   0  0  0  0  0  0  0  0  0  0  0  0
   19.9422  -27.6799   35.8982 H   0  0  0  0  0  0  0  0  0  0  0  0
   21.7485  -28.4302   41.6658 H   0  0  0  0  0  0  0  0  0  0  0  0
   21.6930  -26.8881   43.6295 H   0  0  0  0  0  0  0  0  0  0  0  0
   20.0695  -24.9913   43.6825 H   0  0  0  0  0  0  0  0  0  0  0  0
   18.4780  -23.7740   42.5170 H   0  0  0  0  0  0  0  0  0  0  0  0
   16.6970  -27.1630   37.4110 H   0  0  0  0  0  0  0  0  0  0  0  0
   19.3030  -30.8446   38.7627 H   0  0  0  0  0  0  0  0  0  0  0  0
   17.6984  -33.2725   36.3751 H   0  0  0  0  0  0  0  0  0  0  0  0
   18.9391  -33.3144   35.0816 H   0  0  0  0  0  0  0  0  0  0  0  0
   18.1216  -35.6034   35.7216 H   0  0  0  0  0  0  0  0  0  0  0  0
   19.8924  -35.3760   36.0144 H   0  0  0  0  0  0  0  0  0  0  0  0
   17.6517  -35.2819   38.0876 H   0  0  0  0  0  0  0  0  0  0  0  0
   18.9410  -36.5358   37.9102 H   0  0  0  0  0  0  0  0  0  0  0  0
   19.3861  -34.8720   39.7458 H   0  0  0  0  0  0  0  0  0  0  0  0
   20.6628  -34.9312   38.4658 H   0  0  0  0  0  0  0  0  0  0  0  0
   18.4383  -32.8460   38.7294 H   0  0  0  0  0  0  0  0  0  0  0  0
   20.1855  -32.5951   39.0473 H   0  0  0  0  0  0  0  0  0  0  0  0
  1  2  1  0
  2  3  2  0
  3  4  1  0
  4  5  2  0
  5  6  1  0
  6  7  1  0
  7  8  1  0
  8  9  2  0
  9 10  1  0
 10 11  2  0
 11 12  1  0
 12 13  1  0
 12 14  2  0
 14 15  1  0
 15 16  2  0
 15 17  1  0
 17 18  1  0
  5 19  1  0
 19 20  2  0
 20 21  1  0
 21 22  1  0
 22 23  1  0
 23 24  1  0
 24 25  1  0
 25 26  1  0
 20  2  1  0
 26 21  1  0
 17  6  2  0
 14  8  1  0
  1 27  1  0
  1 28  1  0
  1 29  1  0
  3 30  1  0
  4 31  1  0
  9 32  1  0
 10 33  1  0
 11 34  1  0
 13 35  1  0
 18 36  1  0
 19 37  1  0
 22 38  1  0
 22 39  1  0
 23 40  1  0
 23 41  1  0
 24 42  1  0
 24 43  1  0
 25 44  1  0
 25 45  1  0
 26 46  1  0
 26 47  1  0
M  END
>  <meeko>  (2) 
{"is_sidechain": [false], "free_energy": -8.189, "intermolecular_energy": -10.163, "internal_energy": 0.265}

$$$$
cand_006_out
     RDKit          3D

 47 50  0  0  0  0  0  0  0  0999 V2000
   19.6450  -24.6630   40.7670 C   0  0  0  0  0  0  0  0  0  0  0  0
   19.5860  -26.0210   40.1220 C   0  0  0  0  0  0  0  0  0  0  0  0
   20.0650  -27.1410   40.8160 C   0  0  0  0  0  0  0  0  0  0  0  0
   20.0160  -28.4100   40.2380 C   0  0  0  0  0  0  0  0  0  0  0  0
   19.4820  -28.5920   38.9570 C   0  0  0  0  0  0  0  0  0  0  0  0
   19.4620  -29.9410   38.3530 C   0  0  0  0  0  0  0  0  0  0  0  0
   19.0800  -30.9310   39.2520 O   0  0  0  0  0  0  0  0  0  0  0  0
   19.0180  -32.2320   38.8220 C   0  0  0  0  0  0  0  0  0  0  0  0
   18.6440  -33.1930   39.7620 C   0  0  0  0  0  0  0  0  0  0  0  0
   18.5610  -34.5360   39.3890 C   0  0  0  0  0  0  0  0  0  0  0  0
   18.8490  -34.9170   38.0770 C   0  0  0  0  0  0  0  0  0  0  0  0
   19.2210  -33.9560   37.1410 C   0  0  0  0  0  0  0  0  0  0  0  0
   19.4890  -34.3990   35.8750 O   0  0  0  0  0  0  0  0  0  0  0  0
   19.3070  -32.6120   37.5150 C   0  0  0  0  0  0  0  0  0  0  0  0
   19.6930  -31.5700   36.5630 C   0  0  0  0  0  0  0  0  0  0  0  0
   19.9560  -31.8250   35.3890 O   0  0  0  0  0  0  0  0  0  0  0  0
   19.7610  -30.1770   37.0620 C   0  0  0  0  0  0  0  0  0  0  0  0
   20.1150  -29.2000   36.1490 O   0  0  0  0  0  0  0  0  0  0  0  0
   19.0130  -27.4680   38.2630 C   0  0  0  0  0  0  0  0  0  0  0  0
   19.0520  -26.1800   38.8290 C   0  0  0  0  0  0  0  0  0  0  0  0
   18.5690  -25.0420   38.1410 N   0  0  0  0  0  0  0  0  0  0  0  0
   17.6510  -25.4020   37.0470 C   0  0  0  0  0  0  0  0  0  0  0  0
   16.9960  -24.1300   36.5070 C   0  0  0  0  0  0  0  0  0  0  0  0
   18.0480  -23.1090   36.0740 C   0  0  0  0  0  0  0  0  0  0  0  0
   19.0420  -22.8360   37.2020 C   0  0  0  0  0  0  0  0  0  0  0  0
   19.6520  -24.1360   37.7270 C   0  0  0  0  0  0  0  0  0  0  0  0
   19.6401  -24.7762   41.8611 H   0  0  0  0  0  0  0  0  0  0  0  0
   20.5663  -24.1489   40.4557 H   0  0  0  0  0  0  0  0  0  0  0  0
   18.7717  -24.0710   40.4557 H   0  0  0  0  0  0  0  0  0  0  0  0
   20.4835  -27.0182   41.8259 H   0  0  0  0  0  0  0  0  0  0  0  0
   20.4012  -29.2768   40.7950 H   0  0  0  0  0  0  0  0  0  0  0  0
   18.4149  -32.8931   40.7952 H   0  0  0  0  0  0  0  0  0  0  0  0
   18.2684  -35.2948   40.1297 H   0  0  0  0  0  0  0  0  0  0  0  0
   18.7821  -35.9750   37.7834 H   0  0  0  0  0  0  0  0  0  0  0  0
   19.0640  -34.0030   35.1400 H   0  0  0  0  0  0  0  0  0  0  0  0
   19.4520  -28.7490   35.6650 H   0  0  0  0  0  0  0  0  0  0  0  0
   18.6039  -27.5959   37.2499 H   0  0  0  0  0  0  0  0  0  0  0  0
   18.2133  -25.8975   36.2418 H   0  0  0  0  0  0  0  0  0  0  0  0
   16.8771  -26.0878   37.4221 H   0  0  0  0  0  0  0  0  0  0  0  0
   16.3691  -24.3888   35.6410 H   0  0  0  0  0  0  0  0  0  0  0  0
   16.3864  -23.6848   37.3071 H   0  0  0  0  0  0  0  0  0  0  0  0
   18.5921  -23.5007   35.2019 H   0  0  0  0  0  0  0  0  0  0  0  0
   17.5392  -22.1676   35.8194 H   0  0  0  0  0  0  0  0  0  0  0  0
   19.8469  -22.1894   36.8225 H   0  0  0  0  0  0  0  0  0  0  0  0
   18.5064  -22.3440   38.0272 H   0  0  0  0  0  0  0  0  0  0  0  0
   20.2466  -24.6111   36.9329 H   0  0  0  0  0  0  0  0  0  0  0  0
   20.3036  -23.9196   38.5864 H   0  0  0  0  0  0  0  0  0  0  0  0
  1  2  1  0
  2  3  2  0
  3  4  1  0
  4  5  2  0
  5  6  1  0
  6  7  1  0
  7  8  1  0
  8  9  2  0
  9 10  1  0
 10 11  2  0
 11 12  1  0
 12 13  1  0
 12 14  2  0
 14 15  1  0
 15 16  2  0
 15 17  1  0
 17 18  1  0
  5 19  1  0
 19 20  2  0
 20 21  1  0
 21 22  1  0
 22 23  1  0
 23 24  1  0
 24 25  1  0
 25 26  1  0
 20  2  1  0
 26 21  1  0
 17  6  2  0
 14  8  1  0
  1 27  1  0
  1 28  1  0
  1 29  1  0
  3 30  1  0
  4 31  1  0
  9 32  1  0
 10 33  1  0
 11 34  1  0
 13 35  1  0
 18 36  1  0
 19 37  1  0
 22 38  1  0
 22 39  1  0
 23 40  1  0
 23 41  1  0
 24 42  1  0
 24 43  1  0
 25 44  1  0
 25 45  1  0
 26 46  1  0
 26 47  1  0
M  END
>  <meeko>  (3) 
{"is_sidechain": [false], "free_energy": -7.825, "intermolecular_energy": -9.504, "internal_energy": 0.033}

$$$$
cand_006_out
     RDKit          3D

 47 50  0  0  0  0  0  0  0  0999 V2000
   18.7300  -26.4960   40.6480 C   0  0  0  0  0  0  0  0  0  0  0  0
   19.0030  -27.4310   39.5010 C   0  0  0  0  0  0  0  0  0  0  0  0
   19.3350  -28.7680   39.7580 C   0  0  0  0  0  0  0  0  0  0  0  0
   19.5890  -29.6520   38.7090 C   0  0  0  0  0  0  0  0  0  0  0  0
   19.5100  -29.2240   37.3780 C   0  0  0  0  0  0  0  0  0  0  0  0
   19.8060  -30.1700   36.2820 C   0  0  0  0  0  0  0  0  0  0  0  0
   19.4590  -31.4810   36.5910 O   0  0  0  0  0  0  0  0  0  0  0  0
   19.6800  -32.4630   35.6590 C   0  0  0  0  0  0  0  0  0  0  0  0
   19.3310  -33.7660   36.0180 C   0  0  0  0  0  0  0  0  0  0  0  0
   19.5280  -34.8140   35.1160 C   0  0  0  0  0  0  0  0  0  0  0  0
   20.0740  -34.5580   33.8560 C   0  0  0  0  0  0  0  0  0  0  0  0
   20.4210  -33.2580   33.5000 C   0  0  0  0  0  0  0  0  0  0  0  0
   20.9490  -33.0790   32.2520 O   0  0  0  0  0  0  0  0  0  0  0  0
   20.2240  -32.2100   34.4050 C   0  0  0  0  0  0  0  0  0  0  0  0
   20.5750  -30.8290   34.0710 C   0  0  0  0  0  0  0  0  0  0  0  0
   21.0530  -30.5230   32.9810 O   0  0  0  0  0  0  0  0  0  0  0  0
   20.3340  -29.7930   35.1030 C   0  0  0  0  0  0  0  0  0  0  0  0
   20.6580  -28.4900   34.7710 O   0  0  0  0  0  0  0  0  0  0  0  0
   19.1880  -27.8830   37.1260 C   0  0  0  0  0  0  0  0  0  0  0  0
   18.9270  -26.9760   38.1700 C   0  0  0  0  0  0  0  0  0  0  0  0
   18.5880  -25.6250   37.9250 N   0  0  0  0  0  0  0  0  0  0  0  0
   17.7150  -25.4760   36.7480 C   0  0  0  0  0  0  0  0  0  0  0  0
   17.2070  -24.0350   36.6840 C   0  0  0  0  0  0  0  0  0  0  0  0
   18.3680  -23.0400   36.6790 C   0  0  0  0  0  0  0  0  0  0  0  0
   19.3070  -23.2900   37.8590 C   0  0  0  0  0  0  0  0  0  0  0  0
   19.7690  -24.7470   37.8970 C   0  0  0  0  0  0  0  0  0  0  0  0
   18.8850  -27.0270   41.5988 H   0  0  0  0  0  0  0  0  0  0  0  0
   19.4148  -25.6370   40.5918 H   0  0  0  0  0  0  0  0  0  0  0  0
   17.6906  -26.1405   40.5918 H   0  0  0  0  0  0  0  0  0  0  0  0
   19.3959  -29.1240   40.7970 H   0  0  0  0  0  0  0  0  0  0  0  0
   19.8542  -30.6965   38.9298 H   0  0  0  0  0  0  0  0  0  0  0  0
   18.9012  -33.9672   37.0104 H   0  0  0  0  0  0  0  0  0  0  0  0
   19.2532  -35.8411   35.3979 H   0  0  0  0  0  0  0  0  0  0  0  0
   20.2296  -35.3833   33.1456 H   0  0  0  0  0  0  0  0  0  0  0  0
   21.8400  -32.8070   32.1540 H   0  0  0  0  0  0  0  0  0  0  0  0
   20.2620  -28.0840   34.0250 H   0  0  0  0  0  0  0  0  0  0  0  0
   19.1380  -27.5306   36.0852 H   0  0  0  0  0  0  0  0  0  0  0  0
   18.2838  -25.7074   35.8353 H   0  0  0  0  0  0  0  0  0  0  0  0
   16.8630  -26.1672   36.8274 H   0  0  0  0  0  0  0  0  0  0  0  0
   16.6170  -23.9029   35.7650 H   0  0  0  0  0  0  0  0  0  0  0  0
   16.5878  -23.8438   37.5728 H   0  0  0  0  0  0  0  0  0  0  0  0
   18.9318  -23.1494   35.7408 H   0  0  0  0  0  0  0  0  0  0  0  0
   17.9588  -22.0226   36.7655 H   0  0  0  0  0  0  0  0  0  0  0  0
   20.1867  -22.6367   37.7625 H   0  0  0  0  0  0  0  0  0  0  0  0
   18.7632  -23.0720   38.7900 H   0  0  0  0  0  0  0  0  0  0  0  0
   20.3703  -24.9664   37.0024 H   0  0  0  0  0  0  0  0  0  0  0  0
   20.3806  -24.9190   38.7949 H   0  0  0  0  0  0  0  0  0  0  0  0
  1  2  1  0
  2  3  2  0
  3  4  1  0
  4  5  2  0
  5  6  1  0
  6  7  1  0
  7  8  1  0
  8  9  2  0
  9 10  1  0
 10 11  2  0
 11 12  1  0
 12 13  1  0
 12 14  2  0
 14 15  1  0
 15 16  2  0
 15 17  1  0
 17 18  1  0
  5 19  1  0
 19 20  2  0
 20 21  1  0
 21 22  1  0
 22 23  1  0
 23 24  1  0
 24 25  1  0
 25 26  1  0
 20  2  1  0
 26 21  1  0
 17  6  2  0
 14  8  1  0
  1 27  1  0
  1 28  1  0
  1 29  1  0
  3 30  1  0
  4 31  1  0
  9 32  1  0
 10 33  1  0
 11 34  1  0
 13 35  1  0
 18 36  1  0
 19 37  1  0
 22 38  1  0
 22 39  1  0
 23 40  1  0
 23 41  1  0
 24 42  1  0
 24 43  1  0
 25 44  1  0
 25 45  1  0
 26 46  1  0
 26 47  1  0
M  END
>  <meeko>  (4) 
{"is_sidechain": [false], "free_energy": -7.673, "intermolecular_energy": -9.134, "internal_energy": -0.158}

$$$$
cand_006_out
     RDKit          3D

 47 50  0  0  0  0  0  0  0  0999 V2000
   18.7610  -28.6310   35.8640 C   0  0  0  0  0  0  0  0  0  0  0  0
   19.2830  -28.2930   37.2340 C   0  0  0  0  0  0  0  0  0  0  0  0
   19.5980  -26.9640   37.5490 C   0  0  0  0  0  0  0  0  0  0  0  0
   20.0800  -26.6280   38.8150 C   0  0  0  0  0  0  0  0  0  0  0  0
   20.2510  -27.6090   39.7980 C   0  0  0  0  0  0  0  0  0  0  0  0
   20.7870  -27.2370   41.1250 C   0  0  0  0  0  0  0  0  0  0  0  0
   21.9590  -27.9130   41.4450 O   0  0  0  0  0  0  0  0  0  0  0  0
   22.5640  -27.6610   42.6490 C   0  0  0  0  0  0  0  0  0  0  0  0
   23.7290  -28.3740   42.9340 C   0  0  0  0  0  0  0  0  0  0  0  0
   24.3960  -28.1640   44.1430 C   0  0  0  0  0  0  0  0  0  0  0  0
   23.8980  -27.2410   45.0650 C   0  0  0  0  0  0  0  0  0  0  0  0
   22.7360  -26.5310   44.7780 C   0  0  0  0  0  0  0  0  0  0  0  0
   22.3050  -25.6440   45.7260 O   0  0  0  0  0  0  0  0  0  0  0  0
   22.0680  -26.7430   43.5690 C   0  0  0  0  0  0  0  0  0  0  0  0
   20.8430  -26.0180   43.2280 C   0  0  0  0  0  0  0  0  0  0  0  0
   20.3470  -25.1850   43.9840 O   0  0  0  0  0  0  0  0  0  0  0  0
   20.2080  -26.3210   41.9240 C   0  0  0  0  0  0  0  0  0  0  0  0
   19.0590  -25.6200   41.6080 O   0  0  0  0  0  0  0  0  0  0  0  0
   19.9450  -28.9400   39.4750 C   0  0  0  0  0  0  0  0  0  0  0  0
   19.4560  -29.2980   38.2050 C   0  0  0  0  0  0  0  0  0  0  0  0
   19.1320  -30.6350   37.8750 N   0  0  0  0  0  0  0  0  0  0  0  0
   18.8660  -31.4540   39.0710 C   0  0  0  0  0  0  0  0  0  0  0  0
   18.3020  -32.8060   38.6330 C   0  0  0  0  0  0  0  0  0  0  0  0
   19.2380  -33.5020   37.6450 C   0  0  0  0  0  0  0  0  0  0  0  0
   19.5700  -32.5840   36.4680 C   0  0  0  0  0  0  0  0  0  0  0  0
   20.1070  -31.2370   36.9530 C   0  0  0  0  0  0  0  0  0  0  0  0
   17.8411  -29.2266   35.9588 H   0  0  0  0  0  0  0  0  0  0  0  0
   18.5420  -27.7028   35.3158 H   0  0  0  0  0  0  0  0  0  0  0  0
   19.5183  -29.2106   35.3158 H   0  0  0  0  0  0  0  0  0  0  0  0
   19.4640  -26.1782   36.7910 H   0  0  0  0  0  0  0  0  0  0  0  0
   20.3281  -25.5808   39.0424 H   0  0  0  0  0  0  0  0  0  0  0  0
   24.1216  -29.1006   42.2074 H   0  0  0  0  0  0  0  0  0  0  0  0
   25.3142  -28.7260   44.3691 H   0  0  0  0  0  0  0  0  0  0  0  0
   24.4236  -27.0753   46.0170 H   0  0  0  0  0  0  0  0  0  0  0  0
   21.4570  -25.7440   46.1100 H   0  0  0  0  0  0  0  0  0  0  0  0
   18.3010  -25.6930   42.1530 H   0  0  0  0  0  0  0  0  0  0  0  0
   20.0911  -29.7230   40.2336 H   0  0  0  0  0  0  0  0  0  0  0  0
   19.8018  -31.6078   39.6283 H   0  0  0  0  0  0  0  0  0  0  0  0
   18.1402  -30.9408   39.7190 H   0  0  0  0  0  0  0  0  0  0  0  0
   18.1754  -33.4458   39.5188 H   0  0  0  0  0  0  0  0  0  0  0  0
   17.3356  -32.6356   38.1360 H   0  0  0  0  0  0  0  0  0  0  0  0
   20.1694  -33.7750   38.1626 H   0  0  0  0  0  0  0  0  0  0  0  0
   18.7353  -34.4009   37.2585 H   0  0  0  0  0  0  0  0  0  0  0  0
   20.3311  -33.0683   35.8386 H   0  0  0  0  0  0  0  0  0  0  0  0
   18.6487  -32.4059   35.8939 H   0  0  0  0  0  0  0  0  0  0  0  0
   21.0634  -31.3879   37.4751 H   0  0  0  0  0  0  0  0  0  0  0  0
   20.2656  -30.5695   36.0932 H   0  0  0  0  0  0  0  0  0  0  0  0
  1  2  1  0
  2  3  2  0
  3  4  1  0
  4  5  2  0
  5  6  1  0
  6  7  1  0
  7  8  1  0
  8  9  2  0
  9 10  1  0
 10 11  2  0
 11 12  1  0
 12 13  1  0
 12 14  2  0
 14 15  1  0
 15 16  2  0
 15 17  1  0
 17 18  1  0
  5 19  1  0
 19 20  2  0
 20 21  1  0
 21 22  1  0
 22 23  1  0
 23 24  1  0
 24 25  1  0
 25 26  1  0
 20  2  1  0
 26 21  1  0
 17  6  2  0
 14  8  1  0
  1 27  1  0
  1 28  1  0
  1 29  1  0
  3 30  1  0
  4 31  1  0
  9 32  1  0
 10 33  1  0
 11 34  1  0
 13 35  1  0
 18 36  1  0
 19 37  1  0
 22 38  1  0
 22 39  1  0
 23 40  1  0
 23 41  1  0
 24 42  1  0
 24 43  1  0
 25 44  1  0
 25 45  1  0
 26 46  1  0
 26 47  1  0
M  END
>  <meeko>  (5) 
{"is_sidechain": [false], "free_energy": -7.658, "intermolecular_energy": -9.077, "internal_energy": -0.197}

$$$$
cand_006_out
     RDKit          3D

 47 50  0  0  0  0  0  0  0  0999 V2000
   17.6780  -27.1350   36.4860 C   0  0  0  0  0  0  0  0  0  0  0  0
   18.5310  -27.1110   37.7260 C   0  0  0  0  0  0  0  0  0  0  0  0
   18.8910  -28.3160   38.3450 C   0  0  0  0  0  0  0  0  0  0  0  0
   19.6840  -28.3170   39.4930 C   0  0  0  0  0  0  0  0  0  0  0  0
   20.1410  -27.1150   40.0460 C   0  0  0  0  0  0  0  0  0  0  0  0
   20.9600  -27.1360   41.2770 C   0  0  0  0  0  0  0  0  0  0  0  0
   21.9800  -28.0790   41.2330 O   0  0  0  0  0  0  0  0  0  0  0  0
   22.8170  -28.2040   42.3110 C   0  0  0  0  0  0  0  0  0  0  0  0
   23.8180  -29.1740   42.2280 C   0  0  0  0  0  0  0  0  0  0  0  0
   24.7050  -29.3530   43.2910 C   0  0  0  0  0  0  0  0  0  0  0  0
   24.5920  -28.5610   44.4360 C   0  0  0  0  0  0  0  0  0  0  0  0
   23.5940  -27.5940   44.5170 C   0  0  0  0  0  0  0  0  0  0  0  0
   23.5420  -26.8540   45.6660 O   0  0  0  0  0  0  0  0  0  0  0  0
   22.7050  -27.4170   43.4520 C   0  0  0  0  0  0  0  0  0  0  0  0
   21.6420  -26.4120   43.4960 C   0  0  0  0  0  0  0  0  0  0  0  0
   21.4830  -25.6730   44.4660 O   0  0  0  0  0  0  0  0  0  0  0  0
   20.7480  -26.3100   42.3190 C   0  0  0  0  0  0  0  0  0  0  0  0
   19.7560  -25.3480   42.3670 O   0  0  0  0  0  0  0  0  0  0  0  0
   19.7690  -25.9110   39.4300 C   0  0  0  0  0  0  0  0  0  0  0  0
   18.9720  -25.8900   38.2700 C   0  0  0  0  0  0  0  0  0  0  0  0
   18.6040  -24.6810   37.6350 N   0  0  0  0  0  0  0  0  0  0  0  0
   19.5870  -23.6100   37.8650 C   0  0  0  0  0  0  0  0  0  0  0  0
   19.2470  -22.4190   36.9670 C   0  0  0  0  0  0  0  0  0  0  0  0
   17.8090  -21.9510   37.1940 C   0  0  0  0  0  0  0  0  0  0  0  0
   16.8260  -23.1120   37.0440 C   0  0  0  0  0  0  0  0  0  0  0  0
   17.2200  -24.2870   37.9400 C   0  0  0  0  0  0  0  0  0  0  0  0
   16.6162  -27.1649   36.7719 H   0  0  0  0  0  0  0  0  0  0  0  0
   17.8720  -26.2310   35.8900 H   0  0  0  0  0  0  0  0  0  0  0  0
   17.9225  -28.0266   35.8900 H   0  0  0  0  0  0  0  0  0  0  0  0
   18.5449  -29.2704   37.9215 H   0  0  0  0  0  0  0  0  0  0  0  0
   19.9528  -29.2719   39.9683 H   0  0  0  0  0  0  0  0  0  0  0  0
   23.9076  -29.7967   41.3256 H   0  0  0  0  0  0  0  0  0  0  0  0
   25.4930  -30.1178   43.2269 H   0  0  0  0  0  0  0  0  0  0  0  0
   25.2914  -28.7014   45.2734 H   0  0  0  0  0  0  0  0  0  0  0  0
   23.5020  -25.9200   45.6200 H   0  0  0  0  0  0  0  0  0  0  0  0
   19.6040  -24.7950   41.6260 H   0  0  0  0  0  0  0  0  0  0  0  0
   20.1087  -24.9592   39.8644 H   0  0  0  0  0  0  0  0  0  0  0  0
   19.5526  -23.2983   38.9194 H   0  0  0  0  0  0  0  0  0  0  0  0
   20.5970  -23.9763   37.6291 H   0  0  0  0  0  0  0  0  0  0  0  0
   19.9344  -21.5906   37.1935 H   0  0  0  0  0  0  0  0  0  0  0  0
   19.3510  -22.7319   35.9176 H   0  0  0  0  0  0  0  0  0  0  0  0
   17.7220  -21.5345   38.2084 H   0  0  0  0  0  0  0  0  0  0  0  0
   17.5660  -21.1861   36.4417 H   0  0  0  0  0  0  0  0  0  0  0  0
   15.8192  -22.7686   37.3240 H   0  0  0  0  0  0  0  0  0  0  0  0
   16.8423  -23.4502   35.9974 H   0  0  0  0  0  0  0  0  0  0  0  0
   17.1466  -23.9863   38.9955 H   0  0  0  0  0  0  0  0  0  0  0  0
   16.5441  -25.1354   37.7576 H   0  0  0  0  0  0  0  0  0  0  0  0
  1  2  1  0
  2  3  2  0
  3  4  1  0
  4  5  2  0
  5  6  1  0
  6  7  1  0
  7  8  1  0
  8  9  2  0
  9 10  1  0
 10 11  2  0
 11 12  1  0
 12 13  1  0
 12 14  2  0
 14 15  1  0
 15 16  2  0
 15 17  1  0
 17 18  1  0
  5 19  1  0
 19 20  2  0
 20 21  1  0
 21 22  1  0
 22 23  1  0
 23 24  1  0
 24 25  1  0
 25 26  1  0
 20  2  1  0
 26 21  1  0
 17  6  2  0
 14  8  1  0
  1 27  1  0
  1 28  1  0
  1 29  1  0
  3 30  1  0
  4 31  1  0
  9 32  1  0
 10 33  1  0
 11 34  1  0
 13 35  1  0
 18 36  1  0
 19 37  1  0
 22 38  1  0
 22 39  1  0
 23 40  1  0
 23 41  1  0
 24 42  1  0
 24 43  1  0
 25 44  1  0
 25 45  1  0
 26 46  1  0
 26 47  1  0
M  END
>  <meeko>  (6) 
{"is_sidechain": [false], "free_energy": -7.6, "intermolecular_energy": -9.039, "internal_energy": -0.167}

$$$$
cand_006_out
     RDKit          3D

 47 50  0  0  0  0  0  0  0  0999 V2000
   19.3520  -20.8300   48.9580 C   0  0  0  0  0  0  0  0  0  0  0  0
   19.7440  -21.8330   47.9070 C   0  0  0  0  0  0  0  0  0  0  0  0
   18.7530  -22.5690   47.2450 C   0  0  0  0  0  0  0  0  0  0  0  0
   19.0950  -23.5020   46.2650 C   0  0  0  0  0  0  0  0  0  0  0  0
   20.4340  -23.7170   45.9180 C   0  0  0  0  0  0  0  0  0  0  0  0
   20.7770  -24.7270   44.8950 C   0  0  0  0  0  0  0  0  0  0  0  0
   21.9560  -25.4070   45.1810 O   0  0  0  0  0  0  0  0  0  0  0  0
   22.3910  -26.3750   44.3130 C   0  0  0  0  0  0  0  0  0  0  0  0
   23.5870  -27.0210   44.6320 C   0  0  0  0  0  0  0  0  0  0  0  0
   24.0860  -28.0170   43.7910 C   0  0  0  0  0  0  0  0  0  0  0  0
   23.3900  -28.3690   42.6330 C   0  0  0  0  0  0  0  0  0  0  0  0
   22.1970  -27.7240   42.3170 C   0  0  0  0  0  0  0  0  0  0  0  0
   21.5670  -28.1180   41.1680 O   0  0  0  0  0  0  0  0  0  0  0  0
   21.6990  -26.7250   43.1580 C   0  0  0  0  0  0  0  0  0  0  0  0
   20.4490  -26.0220   42.8640 C   0  0  0  0  0  0  0  0  0  0  0  0
   19.7760  -26.2800   41.8680 O   0  0  0  0  0  0  0  0  0  0  0  0
   20.0120  -24.9750   43.8160 C   0  0  0  0  0  0  0  0  0  0  0  0
   18.8230  -24.3270   43.5330 O   0  0  0  0  0  0  0  0  0  0  0  0
   21.4240  -22.9860   46.5920 C   0  0  0  0  0  0  0  0  0  0  0  0
   21.0990  -22.0390   47.5810 C   0  0  0  0  0  0  0  0  0  0  0  0
   22.0900  -21.2880   48.2560 N   0  0  0  0  0  0  0  0  0  0  0  0
   22.6940  -20.2620   47.3900 C   0  0  0  0  0  0  0  0  0  0  0  0
   23.5760  -19.3480   48.2420 C   0  0  0  0  0  0  0  0  0  0  0  0
   24.6240  -20.1520   49.0120 C   0  0  0  0  0  0  0  0  0  0  0  0
   23.9670  -21.2710   49.8200 C   0  0  0  0  0  0  0  0  0  0  0  0
   23.0760  -22.1430   48.9340 C   0  0  0  0  0  0  0  0  0  0  0  0
   19.5202  -21.2603   49.9563 H   0  0  0  0  0  0  0  0  0  0  0  0
   19.9612  -19.9213   48.8430 H   0  0  0  0  0  0  0  0  0  0  0  0
   18.2881  -20.5752   48.8430 H   0  0  0  0  0  0  0  0  0  0  0  0
   17.6948  -22.4101   47.5000 H   0  0  0  0  0  0  0  0  0  0  0  0
   18.3035  -24.0748   45.7596 H   0  0  0  0  0  0  0  0  0  0  0  0
   24.1353  -26.7454   45.5449 H   0  0  0  0  0  0  0  0  0  0  0  0
   25.0289  -28.5253   44.0409 H   0  0  0  0  0  0  0  0  0  0  0  0
   23.7834  -29.1547   41.9712 H   0  0  0  0  0  0  0  0  0  0  0  0
   21.6920  -27.6350   40.3760 H   0  0  0  0  0  0  0  0  0  0  0  0
   18.8010  -23.6500   42.8870 H   0  0  0  0  0  0  0  0  0  0  0  0
   22.4811  -23.1575   46.3410 H   0  0  0  0  0  0  0  0  0  0  0  0
   23.3056  -20.7470   46.6150 H   0  0  0  0  0  0  0  0  0  0  0  0
   21.9025  -19.6701   46.9071 H   0  0  0  0  0  0  0  0  0  0  0  0
   24.0870  -18.6285   47.5853 H   0  0  0  0  0  0  0  0  0  0  0  0
   22.9364  -18.8243   48.9677 H   0  0  0  0  0  0  0  0  0  0  0  0
   25.3356  -20.5930   48.2984 H   0  0  0  0  0  0  0  0  0  0  0  0
   25.1453  -19.4764   49.7062 H   0  0  0  0  0  0  0  0  0  0  0  0
   24.7517  -21.8985   50.2679 H   0  0  0  0  0  0  0  0  0  0  0  0
   23.3416  -20.8152   50.6017 H   0  0  0  0  0  0  0  0  0  0  0  0
   23.6938  -22.6591   48.1843 H   0  0  0  0  0  0  0  0  0  0  0  0
   22.5568  -22.8909   49.5513 H   0  0  0  0  0  0  0  0  0  0  0  0
  1  2  1  0
  2  3  2  0
  3  4  1  0
  4  5  2  0
  5  6  1  0
  6  7  1  0
  7  8  1  0
  8  9  2  0
  9 10  1  0
 10 11  2  0
 11 12  1  0
 12 13  1  0
 12 14  2  0
 14 15  1  0
 15 16  2  0
 15 17  1  0
 17 18  1  0
  5 19  1  0
 19 20  2  0
 20 21  1  0
 21 22  1  0
 22 23  1  0
 23 24  1  0
 24 25  1  0
 25 26  1  0
 20  2  1  0
 26 21  1  0
 17  6  2  0
 14  8  1  0
  1 27  1  0
  1 28  1  0
  1 29  1  0
  3 30  1  0
  4 31  1  0
  9 32  1  0
 10 33  1  0
 11 34  1  0
 13 35  1  0
 18 36  1  0
 19 37  1  0
 22 38  1  0
 22 39  1  0
 23 40  1  0
 23 41  1  0
 24 42  1  0
 24 43  1  0
 25 44  1  0
 25 45  1  0
 26 46  1  0
 26 47  1  0
M  END
>  <meeko>  (7) 
{"is_sidechain": [false], "free_energy": -7.489, "intermolecular_energy": -8.756, "internal_energy": -0.32}

$$$$
cand_006_out
     RDKit          3D

 47 50  0  0  0  0  0  0  0  0999 V2000
   19.3120  -33.9720   38.1020 C   0  0  0  0  0  0  0  0  0  0  0  0
   19.3350  -32.4670   38.1220 C   0  0  0  0  0  0  0  0  0  0  0  0
   18.9880  -31.7820   39.2940 C   0  0  0  0  0  0  0  0  0  0  0  0
   19.0070  -30.3880   39.3350 C   0  0  0  0  0  0  0  0  0  0  0  0
   19.3790  -29.6440   38.2090 C   0  0  0  0  0  0  0  0  0  0  0  0
   19.3680  -28.1670   38.2650 C   0  0  0  0  0  0  0  0  0  0  0  0
   18.4780  -27.5980   37.3610 O   0  0  0  0  0  0  0  0  0  0  0  0
   18.3660  -26.2320   37.3100 C   0  0  0  0  0  0  0  0  0  0  0  0
   17.4710  -25.7050   36.3770 C   0  0  0  0  0  0  0  0  0  0  0  0
   17.3090  -24.3220   36.2730 C   0  0  0  0  0  0  0  0  0  0  0  0
   18.0390  -23.4680   37.1010 C   0  0  0  0  0  0  0  0  0  0  0  0
   18.9310  -23.9960   38.0300 C   0  0  0  0  0  0  0  0  0  0  0  0
   19.6140  -23.1020   38.8090 O   0  0  0  0  0  0  0  0  0  0  0  0
   19.0950  -25.3810   38.1330 C   0  0  0  0  0  0  0  0  0  0  0  0
   20.0210  -25.9770   39.0960 C   0  0  0  0  0  0  0  0  0  0  0  0
   20.6940  -25.2920   39.8640 O   0  0  0  0  0  0  0  0  0  0  0  0
   20.1260  -27.4550   39.1200 C   0  0  0  0  0  0  0  0  0  0  0  0
   20.9950  -28.0080   40.0440 O   0  0  0  0  0  0  0  0  0  0  0  0
   19.7150  -30.3340   37.0340 C   0  0  0  0  0  0  0  0  0  0  0  0
   19.7040  -31.7400   36.9730 C   0  0  0  0  0  0  0  0  0  0  0  0
   20.0540  -32.4430   35.7980 N   0  0  0  0  0  0  0  0  0  0  0  0
   20.2180  -31.5460   34.6410 C   0  0  0  0  0  0  0  0  0  0  0  0
   20.8160  -32.3370   33.4780 C   0  0  0  0  0  0  0  0  0  0  0  0
   19.9660  -33.5640   33.1490 C   0  0  0  0  0  0  0  0  0  0  0  0
   19.7350  -34.4190   34.3950 C   0  0  0  0  0  0  0  0  0  0  0  0
   19.1600  -33.5820   35.5380 C   0  0  0  0  0  0  0  0  0  0  0  0
   19.3062  -34.3524   39.1341 H   0  0  0  0  0  0  0  0  0  0  0  0
   18.4085  -34.3180   37.5786 H   0  0  0  0  0  0  0  0  0  0  0  0
   20.2045  -34.3454   37.5786 H   0  0  0  0  0  0  0  0  0  0  0  0
   18.6977  -32.3493   40.1906 H   0  0  0  0  0  0  0  0  0  0  0  0
   18.7265  -29.8673   40.2625 H   0  0  0  0  0  0  0  0  0  0  0  0
   16.8946  -26.3779   35.7251 H   0  0  0  0  0  0  0  0  0  0  0  0
   16.6052  -23.9051   35.5376 H   0  0  0  0  0  0  0  0  0  0  0  0
   17.9096  -22.3787   37.0195 H   0  0  0  0  0  0  0  0  0  0  0  0
   20.3260  -22.6140   38.4470 H   0  0  0  0  0  0  0  0  0  0  0  0
   21.4950  -28.7670   39.8190 H   0  0  0  0  0  0  0  0  0  0  0  0
   19.9942  -29.7610   36.1375 H   0  0  0  0  0  0  0  0  0  0  0  0
   19.2385  -31.1413   34.3465 H   0  0  0  0  0  0  0  0  0  0  0  0
   20.8872  -30.7146   34.9076 H   0  0  0  0  0  0  0  0  0  0  0  0
   20.8673  -31.6879   32.5914 H   0  0  0  0  0  0  0  0  0  0  0  0
   21.8210  -32.6772   33.7684 H   0  0  0  0  0  0  0  0  0  0  0  0
   18.9940  -33.2332   32.7542 H   0  0  0  0  0  0  0  0  0  0  0  0
   20.4989  -34.1699   32.4014 H   0  0  0  0  0  0  0  0  0  0  0  0
   19.0292  -35.2266   34.1508 H   0  0  0  0  0  0  0  0  0  0  0  0
   20.7011  -34.8343   34.7178 H   0  0  0  0  0  0  0  0  0  0  0  0
   18.1631  -33.2112   35.2576 H   0  0  0  0  0  0  0  0  0  0  0  0
   19.0750  -34.2005   36.4437 H   0  0  0  0  0  0  0  0  0  0  0  0
  1  2  1  0
  2  3  2  0
  3  4  1  0
  4  5  2  0
  5  6  1  0
  6  7  1  0
  7  8  1  0
  8  9  2  0
  9 10  1  0
 10 11  2  0
 11 12  1  0
 12 13  1  0
 12 14  2  0
 14 15  1  0
 15 16  2  0
 15 17  1  0
 17 18  1  0
  5 19  1  0
 19 20  2  0
 20 21  1  0
 21 22  1  0
 22 23  1  0
 23 24  1  0
 24 25  1  0
 25 26  1  0
 20  2  1  0
 26 21  1  0
 17  6  2  0
 14  8  1  0
  1 27  1  0
  1 28  1  0
  1 29  1  0
  3 30  1  0
  4 31  1  0
  9 32  1  0
 10 33  1  0
 11 34  1  0
 13 35  1  0
 18 36  1  0
 19 37  1  0
 22 38  1  0
 22 39  1  0
 23 40  1  0
 23 41  1  0
 24 42  1  0
 24 43  1  0
 25 44  1  0
 25 45  1  0
 26 46  1  0
 26 47  1  0
M  END
>  <meeko>  (8) 
{"is_sidechain": [false], "free_energy": -7.369, "intermolecular_energy": -9.53, "internal_energy": 0.595}

$$$$
cand_006_out
     RDKit          3D

 47 50  0  0  0  0  0  0  0  0999 V2000
   19.6900  -24.8410   38.3700 C   0  0  0  0  0  0  0  0  0  0  0  0
   19.6810  -26.3020   38.0100 C   0  0  0  0  0  0  0  0  0  0  0  0
   19.3170  -26.6970   36.7160 C   0  0  0  0  0  0  0  0  0  0  0  0
   19.3050  -28.0470   36.3600 C   0  0  0  0  0  0  0  0  0  0  0  0
   19.6620  -29.0330   37.2870 C   0  0  0  0  0  0  0  0  0  0  0  0
   19.6190  -30.4580   36.8980 C   0  0  0  0  0  0  0  0  0  0  0  0
   19.9880  -30.6690   35.5740 O   0  0  0  0  0  0  0  0  0  0  0  0
   19.9930  -31.9490   35.0820 C   0  0  0  0  0  0  0  0  0  0  0  0
   20.3560  -32.1110   33.7440 C   0  0  0  0  0  0  0  0  0  0  0  0
   20.3820  -33.3880   33.1800 C   0  0  0  0  0  0  0  0  0  0  0  0
   20.0470  -34.5020   33.9530 C   0  0  0  0  0  0  0  0  0  0  0  0
   19.6860  -34.3370   35.2880 C   0  0  0  0  0  0  0  0  0  0  0  0
   19.3700  -35.4700   35.9860 O   0  0  0  0  0  0  0  0  0  0  0  0
   19.6580  -33.0580   35.8510 C   0  0  0  0  0  0  0  0  0  0  0  0
   19.2840  -32.8410   37.2490 C   0  0  0  0  0  0  0  0  0  0  0  0
   18.9830  -33.7710   37.9960 O   0  0  0  0  0  0  0  0  0  0  0  0
   19.2790  -31.4460   37.7480 C   0  0  0  0  0  0  0  0  0  0  0  0
   18.9360  -31.2540   39.0740 O   0  0  0  0  0  0  0  0  0  0  0  0
   20.0150  -28.6340   38.5850 C   0  0  0  0  0  0  0  0  0  0  0  0
   20.0360  -27.2780   38.9620 C   0  0  0  0  0  0  0  0  0  0  0  0
   20.4030  -26.8660   40.2640 N   0  0  0  0  0  0  0  0  0  0  0  0
   21.4620  -27.7150   40.8370 C   0  0  0  0  0  0  0  0  0  0  0  0
   21.9650  -27.0760   42.1320 C   0  0  0  0  0  0  0  0  0  0  0  0
   20.8160  -26.8350   43.1120 C   0  0  0  0  0  0  0  0  0  0  0  0
   19.6930  -26.0370   42.4500 C   0  0  0  0  0  0  0  0  0  0  0  0
   19.2390  -26.6980   41.1480 C   0  0  0  0  0  0  0  0  0  0  0  0
   19.6907  -24.7331   39.4647 H   0  0  0  0  0  0  0  0  0  0  0  0
   20.5911  -24.3665   37.9542 H   0  0  0  0  0  0  0  0  0  0  0  0
   18.7948  -24.3554   37.9542 H   0  0  0  0  0  0  0  0  0  0  0  0
   19.0378  -25.9356   35.9728 H   0  0  0  0  0  0  0  0  0  0  0  0
   19.0120  -28.3386   35.3406 H   0  0  0  0  0  0  0  0  0  0  0  0
   20.6211  -31.2342   33.1350 H   0  0  0  0  0  0  0  0  0  0  0  0
   20.6667  -33.5169   32.1253 H   0  0  0  0  0  0  0  0  0  0  0  0
   20.0682  -35.5078   33.5082 H   0  0  0  0  0  0  0  0  0  0  0  0
   18.4990  -35.5970   36.3030 H   0  0  0  0  0  0  0  0  0  0  0  0
   18.0640  -31.4360   39.3630 H   0  0  0  0  0  0  0  0  0  0  0  0
   20.2822  -29.4007   39.3272 H   0  0  0  0  0  0  0  0  0  0  0  0
   21.0573  -28.7150   41.0520 H   0  0  0  0  0  0  0  0  0  0  0  0
   22.2921  -27.8082   40.1213 H   0  0  0  0  0  0  0  0  0  0  0  0
   22.7015  -27.7457   42.6001 H   0  0  0  0  0  0  0  0  0  0  0  0
   22.4232  -26.1065   41.8871 H   0  0  0  0  0  0  0  0  0  0  0  0
   20.4194  -27.8046   43.4475 H   0  0  0  0  0  0  0  0  0  0  0  0
   21.1988  -26.2596   43.9678 H   0  0  0  0  0  0  0  0  0  0  0  0
   18.8385  -25.9795   43.1403 H   0  0  0  0  0  0  0  0  0  0  0  0
   20.0712  -25.0307   42.2167 H   0  0  0  0  0  0  0  0  0  0  0  0
   18.7982  -27.6815   41.3680 H   0  0  0  0  0  0  0  0  0  0  0  0
   18.4857  -26.0667   40.6541 H   0  0  0  0  0  0  0  0  0  0  0  0
  1  2  1  0
  2  3  2  0
  3  4  1  0
  4  5  2  0
  5  6  1  0
  6  7  1  0
  7  8  1  0
  8  9  2  0
  9 10  1  0
 10 11  2  0
 11 12  1  0
 12 13  1  0
 12 14  2  0
 14 15  1  0
 15 16  2  0
 15 17  1  0
 17 18  1  0
  5 19  1  0
 19 20  2  0
 20 21  1  0
 21 22  1  0
 22 23  1  0
 23 24  1  0
 24 25  1  0
 25 26  1  0
 20  2  1  0
 26 21  1  0
 17  6  2  0
 14  8  1  0
  1 27  1  0
  1 28  1  0
  1 29  1  0
  3 30  1  0
  4 31  1  0
  9 32  1  0
 10 33  1  0
 11 34  1  0
 13 35  1  0
 18 36  1  0
 19 37  1  0
 22 38  1  0
 22 39  1  0
 23 40  1  0
 23 41  1  0
 24 42  1  0
 24 43  1  0
 25 44  1  0
 25 45  1  0
 26 46  1  0
 26 47  1  0
M  END
>  <meeko>  (9) 
{"is_sidechain": [false], "free_energy": -7.282, "intermolecular_energy": -8.672, "internal_energy": -0.161}

$$$$
