cand_055_out
     RDKit          3D

 41 43  0  0  0  0  0  0  0  0999 V2000
   19.1400  -23.2310   39.4140 C   0  0  0  0  0  0  0  0  0  0  0  0
   19.9030  -24.0670   40.4290 C   0  0  0  0  0  0  0  0  0  0  0  0
   18.9960  -25.1080   41.0880 C   0  0  0  0  0  0  0  0  0  0  0  0
   19.1190  -26.4620   40.4240 C   0  0  0  0  0  0  0  0  0  0  0  0
   18.2140  -26.7880   39.4010 C   0  0  0  0  0  0  0  0  0  0  0  0
   18.2710  -28.0260   38.7560 C   0  0  0  0  0  0  0  0  0  0  0  0
   19.2370  -28.9710   39.1120 C   0  0  0  0  0  0  0  0  0  0  0  0
   19.3050  -30.2980   38.4630 C   0  0  0  0  0  0  0  0  0  0  0  0
   18.8970  -31.3300   39.3000 O   0  0  0  0  0  0  0  0  0  0  0  0
   18.9100  -32.6150   38.8240 C   0  0  0  0  0  0  0  0  0  0  0  0
   18.4780  -33.6180   39.6930 C   0  0  0  0  0  0  0  0  0  0  0  0
   18.4680  -34.9500   39.2710 C   0  0  0  0  0  0  0  0  0  0  0  0
   18.8910  -35.2780   37.9810 C   0  0  0  0  0  0  0  0  0  0  0  0
   19.3200  -34.2750   37.1160 C   0  0  0  0  0  0  0  0  0  0  0  0
   19.7210  -34.6670   35.8680 O   0  0  0  0  0  0  0  0  0  0  0  0
   19.3290  -32.9430   37.5380 C   0  0  0  0  0  0  0  0  0  0  0  0
   19.7740  -31.8600   36.6600 C   0  0  0  0  0  0  0  0  0  0  0  0
   20.1660  -32.0700   35.5150 O   0  0  0  0  0  0  0  0  0  0  0  0
   19.7380  -30.4810   37.2020 C   0  0  0  0  0  0  0  0  0  0  0  0
   20.1720  -29.4670   36.3670 O   0  0  0  0  0  0  0  0  0  0  0  0
   20.1330  -28.6510   40.1440 C   0  0  0  0  0  0  0  0  0  0  0  0
   20.0850  -27.4120   40.8100 C   0  0  0  0  0  0  0  0  0  0  0  0
   21.0880  -27.1320   41.8950 C   0  0  0  0  0  0  0  0  0  0  0  0
   18.4892  -22.5180   39.9413 H   0  0  0  0  0  0  0  0  0  0  0  0
   19.8527  -22.6796   38.7831 H   0  0  0  0  0  0  0  0  0  0  0  0
   18.5260  -23.8905   38.7831 H   0  0  0  0  0  0  0  0  0  0  0  0
   20.7292  -24.5837   39.9187 H   0  0  0  0  0  0  0  0  0  0  0  0
   20.2869  -23.3964   41.2119 H   0  0  0  0  0  0  0  0  0  0  0  0
   19.2759  -25.2043   42.1474 H   0  0  0  0  0  0  0  0  0  0  0  0
   17.9547  -24.7693   40.9831 H   0  0  0  0  0  0  0  0  0  0  0  0
   17.4480  -26.0570   39.1027 H   0  0  0  0  0  0  0  0  0  0  0  0
   17.5484  -28.2592   37.9601 H   0  0  0  0  0  0  0  0  0  0  0  0
   18.1456  -33.3601   40.7094 H   0  0  0  0  0  0  0  0  0  0  0  0
   18.1267  -35.7408   39.9552 H   0  0  0  0  0  0  0  0  0  0  0  0
   18.8852  -36.3267   37.6491 H   0  0  0  0  0  0  0  0  0  0  0  0
   19.1920  -35.2580   35.3690 H   0  0  0  0  0  0  0  0  0  0  0  0
   20.3380  -29.6440   35.4630 H   0  0  0  0  0  0  0  0  0  0  0  0
   20.8934  -29.3886   40.4403 H   0  0  0  0  0  0  0  0  0  0  0  0
   20.6119  -27.2649   42.8777 H   0  0  0  0  0  0  0  0  0  0  0  0
   21.9344  -27.8282   41.8005 H   0  0  0  0  0  0  0  0  0  0  0  0
   21.4514  -26.0981   41.8005 H   0  0  0  0  0  0  0  0  0  0  0  0
  1  2  1  0
  2  3  1  0
  3  4  1  0
  4  5  2  0
  5  6  1  0
  6  7  2  0
  7  8  1  0
  8  9  1  0
  9 10  1  0
 10 11  2  0
 11 12  1  0
 12 13  2  0
 13 14  1  0
 14 15  1  0
 14 16  2  0
 16 17  1  0
 17 18  2  0
 17 19  1  0
 19 20  1  0
  7 21  1  0
 21 22  2  0
 22 23  1  0
 22  4  1  0
 19  8  2  0
 16 10  1  0
  1 24  1  0
  1 25  1  0
  1 26  1  0
  2 27  1  0
  2 28  1  0
  3 29  1  0
  3 30  1  0
  5 31  1  0
  6 32  1  0
 11 33  1  0
 12 34  1  0
 13 35  1  0
 15 36  1  0
 20 37  1  0
 21 38  1  0
 23 39  1  0
 23 40  1  0
 23 41  1  0
M  END
>  <meeko>  (1) 
{"is_sidechain": [false], "free_energy": -7.736, "intermolecular_energy": -9.545, "internal_energy": -0.531}

$$$$
cand_055_out
     RDKit          3D

 41 43  0  0  0  0  0  0  0  0999 V2000
   20.0990  -34.8240   34.1350 C   0  0  0  0  0  0  0  0  0  0  0  0
   19.7040  -33.5680   34.8950 C   0  0  0  0  0  0  0  0  0  0  0  0
   19.6140  -33.8300   36.3990 C   0  0  0  0  0  0  0  0  0  0  0  0
   19.4760  -32.5460   37.1870 C   0  0  0  0  0  0  0  0  0  0  0  0
   19.9130  -31.3500   36.5940 C   0  0  0  0  0  0  0  0  0  0  0  0
   19.8210  -30.1330   37.2750 C   0  0  0  0  0  0  0  0  0  0  0  0
   19.2850  -30.0780   38.5640 C   0  0  0  0  0  0  0  0  0  0  0  0
   19.1980  -28.8070   39.3170 C   0  0  0  0  0  0  0  0  0  0  0  0
   20.0870  -28.7500   40.3850 O   0  0  0  0  0  0  0  0  0  0  0  0
   20.1110  -27.6250   41.1680 C   0  0  0  0  0  0  0  0  0  0  0  0
   21.0280  -27.6050   42.2200 C   0  0  0  0  0  0  0  0  0  0  0  0
   21.1040  -26.4900   43.0570 C   0  0  0  0  0  0  0  0  0  0  0  0
   20.2610  -25.3970   42.8450 C   0  0  0  0  0  0  0  0  0  0  0  0
   19.3480  -25.4200   41.7940 C   0  0  0  0  0  0  0  0  0  0  0  0
   18.5520  -24.3160   41.6440 O   0  0  0  0  0  0  0  0  0  0  0  0
   19.2730  -26.5350   40.9560 C   0  0  0  0  0  0  0  0  0  0  0  0
   18.3260  -26.6000   39.8420 C   0  0  0  0  0  0  0  0  0  0  0  0
   17.5480  -25.6810   39.5950 O   0  0  0  0  0  0  0  0  0  0  0  0
   18.3320  -27.8240   39.0080 C   0  0  0  0  0  0  0  0  0  0  0  0
   17.4240  -27.8790   37.9660 O   0  0  0  0  0  0  0  0  0  0  0  0
   18.8630  -31.2740   39.1630 C   0  0  0  0  0  0  0  0  0  0  0  0
   18.9550  -32.5100   38.4950 C   0  0  0  0  0  0  0  0  0  0  0  0
   18.4670  -33.7500   39.1910 C   0  0  0  0  0  0  0  0  0  0  0  0
   20.3498  -35.6215   34.8499 H   0  0  0  0  0  0  0  0  0  0  0  0
   19.2597  -35.1491   33.5026 H   0  0  0  0  0  0  0  0  0  0  0  0
   20.9733  -34.6102   33.5026 H   0  0  0  0  0  0  0  0  0  0  0  0
   20.4573  -32.7875   34.7123 H   0  0  0  0  0  0  0  0  0  0  0  0
   18.7138  -33.2461   34.5402 H   0  0  0  0  0  0  0  0  0  0  0  0
   18.7383  -34.4653   36.5977 H   0  0  0  0  0  0  0  0  0  0  0  0
   20.5433  -34.3264   36.7152 H   0  0  0  0  0  0  0  0  0  0  0  0
   20.3341  -31.3716   35.5780 H   0  0  0  0  0  0  0  0  0  0  0  0
   20.1738  -29.2100   36.7917 H   0  0  0  0  0  0  0  0  0  0  0  0
   21.6902  -28.4668   42.3896 H   0  0  0  0  0  0  0  0  0  0  0  0
   21.8287  -26.4725   43.8843 H   0  0  0  0  0  0  0  0  0  0  0  0
   20.3181  -24.5201   43.5067 H   0  0  0  0  0  0  0  0  0  0  0  0
   18.1890  -23.8940   42.3970 H   0  0  0  0  0  0  0  0  0  0  0  0
   17.2030  -27.0990   37.4960 H   0  0  0  0  0  0  0  0  0  0  0  0
   18.4491  -31.2456   40.1818 H   0  0  0  0  0  0  0  0  0  0  0  0
   18.5238  -33.6057   40.2800 H   0  0  0  0  0  0  0  0  0  0  0  0
   17.4243  -33.9469   38.9011 H   0  0  0  0  0  0  0  0  0  0  0  0
   19.0958  -34.6047   38.9011 H   0  0  0  0  0  0  0  0  0  0  0  0
  1  2  1  0
  2  3  1  0
  3  4  1  0
  4  5  2  0
  5  6  1  0
  6  7  2  0
  7  8  1  0
  8  9  1  0
  9 10  1  0
 10 11  2  0
 11 12  1  0
 12 13  2  0
 13 14  1  0
 14 15  1  0
 14 16  2  0
 16 17  1  0
 17 18  2  0
 17 19  1  0
 19 20  1  0
  7 21  1  0
 21 22  2  0
 22 23  1  0
 22  4  1  0
 19  8  2  0
 16 10  1  0
  1 24  1  0
  1 25  1  0
  1 26  1  0
  2 27  1  0
  2 28  1  0
  3 29  1  0
  3 30  1  0
  5 31  1  0
  6 32  1  0
 11 33  1  0
 12 34  1  0
 13 35  1  0
 15 36  1  0
 20 37  1  0
 21 38  1  0
 23 39  1  0
 23 40  1  0
 23 41  1  0
M  END
>  <meeko>  (2) 
{"is_sidechain": [false], "free_energy": -7.725, "intermolecular_energy": -9.575, "internal_energy": -0.487}

$$$$
cand_055_out
     RDKit          3D

 41 43  0  0  0  0  0  0  0  0999 V2000
   20.0460  -35.4700   38.0800 C   0  0  0  0  0  0  0  0  0  0  0  0
   18.9270  -35.0040   37.1640 C   0  0  0  0  0  0  0  0  0  0  0  0
   19.3810  -33.8450   36.2730 C   0  0  0  0  0  0  0  0  0  0  0  0
   19.3530  -32.5250   37.0110 C   0  0  0  0  0  0  0  0  0  0  0  0
   18.7790  -32.4890   38.2930 C   0  0  0  0  0  0  0  0  0  0  0  0
   18.7160  -31.2970   39.0190 C   0  0  0  0  0  0  0  0  0  0  0  0
   19.2280  -30.1110   38.4890 C   0  0  0  0  0  0  0  0  0  0  0  0
   19.1520  -28.8310   39.2260 C   0  0  0  0  0  0  0  0  0  0  0  0
   20.0500  -28.7650   40.2860 O   0  0  0  0  0  0  0  0  0  0  0  0
   20.0850  -27.6310   41.0560 C   0  0  0  0  0  0  0  0  0  0  0  0
   21.0110  -27.6020   42.1000 C   0  0  0  0  0  0  0  0  0  0  0  0
   21.0980  -26.4770   42.9230 C   0  0  0  0  0  0  0  0  0  0  0  0
   20.2580  -25.3830   42.7040 C   0  0  0  0  0  0  0  0  0  0  0  0
   19.3360  -25.4140   41.6610 C   0  0  0  0  0  0  0  0  0  0  0  0
   18.5440  -24.3100   41.5040 O   0  0  0  0  0  0  0  0  0  0  0  0
   19.2500  -26.5400   40.8380 C   0  0  0  0  0  0  0  0  0  0  0  0
   18.2940  -26.6140   39.7320 C   0  0  0  0  0  0  0  0  0  0  0  0
   17.5180  -25.6940   39.4800 O   0  0  0  0  0  0  0  0  0  0  0  0
   18.2880  -27.8480   38.9130 C   0  0  0  0  0  0  0  0  0  0  0  0
   17.3710  -27.9120   37.8780 O   0  0  0  0  0  0  0  0  0  0  0  0
   19.7880  -30.1430   37.2020 C   0  0  0  0  0  0  0  0  0  0  0  0
   19.8530  -31.3330   36.4530 C   0  0  0  0  0  0  0  0  0  0  0  0
   20.4830  -31.2960   35.0880 C   0  0  0  0  0  0  0  0  0  0  0  0
   19.7388  -35.3421   39.1285 H   0  0  0  0  0  0  0  0  0  0  0  0
   20.2594  -36.5318   37.8874 H   0  0  0  0  0  0  0  0  0  0  0  0
   20.9499  -34.8735   37.8874 H   0  0  0  0  0  0  0  0  0  0  0  0
   18.6130  -35.8438   36.5266 H   0  0  0  0  0  0  0  0  0  0  0  0
   18.0915  -34.6542   37.7882 H   0  0  0  0  0  0  0  0  0  0  0  0
   20.4081  -34.0400   35.9309 H   0  0  0  0  0  0  0  0  0  0  0  0
   18.6874  -33.7758   35.4220 H   0  0  0  0  0  0  0  0  0  0  0  0
   18.3734  -33.4127   38.7314 H   0  0  0  0  0  0  0  0  0  0  0  0
   18.2580  -31.2928   40.0191 H   0  0  0  0  0  0  0  0  0  0  0  0
   21.6715  -28.4642   42.2743 H   0  0  0  0  0  0  0  0  0  0  0  0
   21.8290  -26.4526   43.7446 H   0  0  0  0  0  0  0  0  0  0  0  0
   20.3246  -24.4983   43.3543 H   0  0  0  0  0  0  0  0  0  0  0  0
   18.5470  -23.6340   42.1540 H   0  0  0  0  0  0  0  0  0  0  0  0
   17.5700  -28.4050   37.1070 H   0  0  0  0  0  0  0  0  0  0  0  0
   20.1863  -29.2141   36.7677 H   0  0  0  0  0  0  0  0  0  0  0  0
   21.5763  -31.2318   35.1904 H   0  0  0  0  0  0  0  0  0  0  0  0
   20.2194  -32.2112   34.5376 H   0  0  0  0  0  0  0  0  0  0  0  0
   20.1141  -30.4180   34.5376 H   0  0  0  0  0  0  0  0  0  0  0  0
  1  2  1  0
  2  3  1  0
  3  4  1  0
  4  5  2  0
  5  6  1  0
  6  7  2  0
  7  8  1  0
  8  9  1  0
  9 10  1  0
 10 11  2  0
 11 12  1  0
 12 13  2  0
 13 14  1  0
 14 15  1  0
 14 16  2  0
 16 17  1  0
 17 18  2  0
 17 19  1  0
 19 20  1  0
  7 21  1  0
 21 22  2  0
 22 23  1  0
 22  4  1  0
 19  8  2  0
 16 10  1  0
  1 24  1  0
  1 25  1  0
  1 26  1  0
  2 27  1  0
  2 28  1  0
  3 29  1  0
  3 30  1  0
  5 31  1  0
  6 32  1  0
 11 33  1  0
 12 34  1  0
 13 35  1  0
 15 36  1  0
 20 37  1  0
 21 38  1  0
 23 39  1  0
 23 40  1  0
 23 41  1  0
M  END
>  <meeko>  (3) 
{"is_sidechain": [false], "free_energy": -7.25, "intermolecular_energy": -9.185, "internal_energy": -0.291}

$$$$
cand_055_out
     RDKit          3D

 41 43  0  0  0  0  0  0  0  0999 V2000
   18.2800  -35.4680   39.3760 C   0  0  0  0  0  0  0  0  0  0  0  0
   19.4990  -34.7040   38.8840 C   0  0  0  0  0  0  0  0  0  0  0  0
   19.1910  -33.9290   37.6020 C   0  0  0  0  0  0  0  0  0  0  0  0
   19.2830  -32.4340   37.8120 C   0  0  0  0  0  0  0  0  0  0  0  0
   18.9220  -31.9130   39.0660 C   0  0  0  0  0  0  0  0  0  0  0  0
   18.9770  -30.5400   39.3180 C   0  0  0  0  0  0  0  0  0  0  0  0
   19.3980  -29.6500   38.3260 C   0  0  0  0  0  0  0  0  0  0  0  0
   19.4420  -28.1900   38.5590 C   0  0  0  0  0  0  0  0  0  0  0  0
   18.7230  -27.4700   37.6110 O   0  0  0  0  0  0  0  0  0  0  0  0
   18.6800  -26.1040   37.7080 C   0  0  0  0  0  0  0  0  0  0  0  0
   17.9350  -25.4230   36.7440 C   0  0  0  0  0  0  0  0  0  0  0  0
   17.8510  -24.0290   36.7840 C   0  0  0  0  0  0  0  0  0  0  0  0
   18.5130  -23.3170   37.7860 C   0  0  0  0  0  0  0  0  0  0  0  0
   19.2550  -23.9990   38.7470 C   0  0  0  0  0  0  0  0  0  0  0  0
   19.8790  -23.2400   39.6980 O   0  0  0  0  0  0  0  0  0  0  0  0
   19.3380  -25.3930   38.7060 C   0  0  0  0  0  0  0  0  0  0  0  0
   20.1080  -26.1480   39.6960 C   0  0  0  0  0  0  0  0  0  0  0  0
   20.7230  -25.5920   40.6040 O   0  0  0  0  0  0  0  0  0  0  0  0
   20.1260  -27.6240   39.5700 C   0  0  0  0  0  0  0  0  0  0  0  0
   20.8680  -28.3250   40.5030 O   0  0  0  0  0  0  0  0  0  0  0  0
   19.7440  -30.1680   37.0690 C   0  0  0  0  0  0  0  0  0  0  0  0
   19.6880  -31.5480   36.7950 C   0  0  0  0  0  0  0  0  0  0  0  0
   20.0910  -32.0330   35.4300 C   0  0  0  0  0  0  0  0  0  0  0  0
   18.2704  -35.4740   40.4759 H   0  0  0  0  0  0  0  0  0  0  0  0
   17.3669  -34.9803   39.0040 H   0  0  0  0  0  0  0  0  0  0  0  0
   18.3208  -36.5024   39.0040 H   0  0  0  0  0  0  0  0  0  0  0  0
   19.8160  -33.9954   39.6633 H   0  0  0  0  0  0  0  0  0  0  0  0
   20.2978  -35.4285   38.6674 H   0  0  0  0  0  0  0  0  0  0  0  0
   19.9123  -34.2243   36.8257 H   0  0  0  0  0  0  0  0  0  0  0  0
   18.1614  -34.1682   37.2976 H   0  0  0  0  0  0  0  0  0  0  0  0
   18.5910  -32.5968   39.8616 H   0  0  0  0  0  0  0  0  0  0  0  0
   18.6861  -30.1556   40.3068 H   0  0  0  0  0  0  0  0  0  0  0  0
   17.4144  -25.9834   35.9534 H   0  0  0  0  0  0  0  0  0  0  0  0
   17.2628  -23.4919   36.0254 H   0  0  0  0  0  0  0  0  0  0  0  0
   18.4486  -22.2193   37.8163 H   0  0  0  0  0  0  0  0  0  0  0  0
   20.1880  -23.6390   40.4880 H   0  0  0  0  0  0  0  0  0  0  0  0
   21.7840  -28.4610   40.3670 H   0  0  0  0  0  0  0  0  0  0  0  0
   20.0677  -29.4776   36.2762 H   0  0  0  0  0  0  0  0  0  0  0  0
   20.7910  -32.8754   35.5321 H   0  0  0  0  0  0  0  0  0  0  0  0
   19.1976  -32.3632   34.8797 H   0  0  0  0  0  0  0  0  0  0  0  0
   20.5792  -31.2152   34.8797 H   0  0  0  0  0  0  0  0  0  0  0  0
  1  2  1  0
  2  3  1  0
  3  4  1  0
  4  5  2  0
  5  6  1  0
  6  7  2  0
  7  8  1  0
  8  9  1  0
  9 10  1  0
 10 11  2  0
 11 12  1  0
 12 13  2  0
 13 14  1  0
 14 15  1  0
 14 16  2  0
 16 17  1  0
 17 18  2  0
 17 19  1  0
 19 20  1  0
  7 21  1  0
 21 22  2  0
 22 23  1  0
 22  4  1  0
 19  8  2  0
 16 10  1  0
  1 24  1  0
  1 25  1  0
  1 26  1  0
  2 27  1  0
  2 28  1  0
  3 29  1  0
  3 30  1  0
  5 31  1  0
  6 32  1  0
 11 33  1  0
 12 34  1  0
 13 35  1  0
 15 36  1  0
 20 37  1  0
 21 38  1  0
 23 39  1  0
 23 40  1  0
 23 41  1  0
M  END
>  <meeko>  (4) 
{"is_sidechain": [false], "free_energy": -6.999, "intermolecular_energy": -8.799, "internal_energy": -0.367}

$$$$
cand_055_out
     RDKit          3D

 41 43  0  0  0  0  0  0  0  0999 V2000
   19.8760  -25.5960   49.1400 C   0  0  0  0  0  0  0  0  0  0  0  0
   20.9480  -24.5200   49.0860 C   0  0  0  0  0  0  0  0  0  0  0  0
   20.5700  -23.4050   48.1090 C   0  0  0  0  0  0  0  0  0  0  0  0
   20.4530  -23.9170   46.6900 C   0  0  0  0  0  0  0  0  0  0  0  0
   21.5400  -24.6190   46.1420 C   0  0  0  0  0  0  0  0  0  0  0  0
   21.4960  -25.1070   44.8350 C   0  0  0  0  0  0  0  0  0  0  0  0
   20.3630  -24.9130   44.0390 C   0  0  0  0  0  0  0  0  0  0  0  0
   20.2990  -25.3990   42.6440 C   0  0  0  0  0  0  0  0  0  0  0  0
   19.9230  -24.4080   41.7440 O   0  0  0  0  0  0  0  0  0  0  0  0
   19.8240  -24.7240   40.4130 C   0  0  0  0  0  0  0  0  0  0  0  0
   19.4580  -23.6950   39.5440 C   0  0  0  0  0  0  0  0  0  0  0  0
   19.3370  -23.9490   38.1760 C   0  0  0  0  0  0  0  0  0  0  0  0
   19.5820  -25.2300   37.6770 C   0  0  0  0  0  0  0  0  0  0  0  0
   19.9480  -26.2540   38.5470 C   0  0  0  0  0  0  0  0  0  0  0  0
   20.1710  -27.4850   37.9930 O   0  0  0  0  0  0  0  0  0  0  0  0
   20.0690  -26.0000   39.9160 C   0  0  0  0  0  0  0  0  0  0  0  0
   20.4500  -27.0480   40.8640 C   0  0  0  0  0  0  0  0  0  0  0  0
   20.6750  -28.2010   40.5030 O   0  0  0  0  0  0  0  0  0  0  0  0
   20.5580  -26.6730   42.2930 C   0  0  0  0  0  0  0  0  0  0  0  0
   20.9070  -27.6740   43.1810 O   0  0  0  0  0  0  0  0  0  0  0  0
   19.2840  -24.1990   44.5800 C   0  0  0  0  0  0  0  0  0  0  0  0
   19.3140  -23.6930   45.8940 C   0  0  0  0  0  0  0  0  0  0  0  0
   18.1130  -22.9520   46.4130 C   0  0  0  0  0  0  0  0  0  0  0  0
   19.6434  -25.8295   50.1895 H   0  0  0  0  0  0  0  0  0  0  0  0
   18.9681  -25.2347   48.6348 H   0  0  0  0  0  0  0  0  0  0  0  0
   20.2406  -26.5025   48.6348 H   0  0  0  0  0  0  0  0  0  0  0  0
   21.0734  -24.0888   50.0902 H   0  0  0  0  0  0  0  0  0  0  0  0
   21.8847  -24.9812   48.7398 H   0  0  0  0  0  0  0  0  0  0  0  0
   19.6037  -22.9769   48.4139 H   0  0  0  0  0  0  0  0  0  0  0  0
   21.3647  -22.6448   48.1337 H   0  0  0  0  0  0  0  0  0  0  0  0
   22.4396  -24.7865   46.7525 H   0  0  0  0  0  0  0  0  0  0  0  0
   22.3615  -25.6497   44.4271 H   0  0  0  0  0  0  0  0  0  0  0  0
   19.2651  -22.6855   39.9360 H   0  0  0  0  0  0  0  0  0  0  0  0
   19.0482  -23.1386   37.4905 H   0  0  0  0  0  0  0  0  0  0  0  0
   19.4862  -25.4297   36.5995 H   0  0  0  0  0  0  0  0  0  0  0  0
   19.8220  -28.2530   38.4020 H   0  0  0  0  0  0  0  0  0  0  0  0
   21.6750  -27.5850   43.7090 H   0  0  0  0  0  0  0  0  0  0  0  0
   18.3903  -24.0296   43.9615 H   0  0  0  0  0  0  0  0  0  0  0  0
   18.1248  -22.9593   47.5129 H   0  0  0  0  0  0  0  0  0  0  0  0
   18.1394  -21.9130   46.0529 H   0  0  0  0  0  0  0  0  0  0  0  0
   17.1962  -23.4417   46.0529 H   0  0  0  0  0  0  0  0  0  0  0  0
  1  2  1  0
  2  3  1  0
  3  4  1  0
  4  5  2  0
  5  6  1  0
  6  7  2  0
  7  8  1  0
  8  9  1  0
  9 10  1  0
 10 11  2  0
 11 12  1  0
 12 13  2  0
 13 14  1  0
 14 15  1  0
 14 16  2  0
 16 17  1  0
 17 18  2  0
 17 19  1  0
 19 20  1  0
  7 21  1  0
 21 22  2  0
 22 23  1  0
 22  4  1  0
 19  8  2  0
 16 10  1  0
  1 24  1  0
  1 25  1  0
  1 26  1  0
  2 27  1  0
  2 28  1  0
  3 29  1  0
  3 30  1  0
  5 31  1  0
  6 32  1  0
 11 33  1  0
 12 34  1  0
 13 35  1  0
 15 36  1  0
 20 37  1  0
 21 38  1  0
 23 39  1  0
 23 40  1  0
 23 41  1  0
M  END
>  <meeko>  (5) 
{"is_sidechain": [false], "free_energy": -6.919, "intermolecular_energy": -8.593, "internal_energy": -0.475}

$$$$
cand_055_out
     RDKit          3D

 41 43  0  0  0  0  0  0  0  0999 V2000
   18.2010  -26.5530   34.1410 C   0  0  0  0  0  0  0  0  0  0  0  0
   18.7050  -27.4280   35.2770 C   0  0  0  0  0  0  0  0  0  0  0  0
   17.8900  -27.2090   36.5540 C   0  0  0  0  0  0  0  0  0  0  0  0
   18.7690  -27.1910   37.7850 C   0  0  0  0  0  0  0  0  0  0  0  0
   18.8750  -28.3680   38.5450 C   0  0  0  0  0  0  0  0  0  0  0  0
   19.6630  -28.4110   39.6980 C   0  0  0  0  0  0  0  0  0  0  0  0
   20.3700  -27.2820   40.1210 C   0  0  0  0  0  0  0  0  0  0  0  0
   21.1930  -27.2930   41.3500 C   0  0  0  0  0  0  0  0  0  0  0  0
   22.1730  -28.2790   41.3350 O   0  0  0  0  0  0  0  0  0  0  0  0
   23.0080  -28.4010   42.4150 C   0  0  0  0  0  0  0  0  0  0  0  0
   23.9870  -29.3940   42.3520 C   0  0  0  0  0  0  0  0  0  0  0  0
   24.8690  -29.5730   43.4190 C   0  0  0  0  0  0  0  0  0  0  0  0
   24.7720  -28.7600   44.5510 C   0  0  0  0  0  0  0  0  0  0  0  0
   23.7950  -27.7690   44.6110 C   0  0  0  0  0  0  0  0  0  0  0  0
   23.7560  -27.0100   45.7490 O   0  0  0  0  0  0  0  0  0  0  0  0
   22.9130  -27.5910   43.5420 C   0  0  0  0  0  0  0  0  0  0  0  0
   21.8720  -26.5620   43.5670 C   0  0  0  0  0  0  0  0  0  0  0  0
   21.7190  -25.8130   44.5290 O   0  0  0  0  0  0  0  0  0  0  0  0
   20.9920  -26.4500   42.3790 C   0  0  0  0  0  0  0  0  0  0  0  0
   20.0040  -25.4830   42.4190 O   0  0  0  0  0  0  0  0  0  0  0  0
   20.2520  -26.1020   39.3700 C   0  0  0  0  0  0  0  0  0  0  0  0
   19.4570  -26.0380   38.2100 C   0  0  0  0  0  0  0  0  0  0  0  0
   19.3910  -24.7450   37.4460 C   0  0  0  0  0  0  0  0  0  0  0  0
   17.6925  -25.6702   34.5560 H   0  0  0  0  0  0  0  0  0  0  0  0
   19.0511  -26.2295   33.5224 H   0  0  0  0  0  0  0  0  0  0  0  0
   17.4946  -27.1260   33.5224 H   0  0  0  0  0  0  0  0  0  0  0  0
   18.6254  -28.4836   34.9782 H   0  0  0  0  0  0  0  0  0  0  0  0
   19.7514  -27.1588   35.4835 H   0  0  0  0  0  0  0  0  0  0  0  0
   17.3624  -26.2467   36.4791 H   0  0  0  0  0  0  0  0  0  0  0  0
   17.1793  -28.0427   36.6534 H   0  0  0  0  0  0  0  0  0  0  0  0
   18.3295  -29.2689   38.2276 H   0  0  0  0  0  0  0  0  0  0  0  0
   19.7276  -29.3430   40.2788 H   0  0  0  0  0  0  0  0  0  0  0  0
   24.0634  -30.0354   41.4616 H   0  0  0  0  0  0  0  0  0  0  0  0
   25.6411  -30.3549   43.3685 H   0  0  0  0  0  0  0  0  0  0  0  0
   25.4655  -28.9021   45.3929 H   0  0  0  0  0  0  0  0  0  0  0  0
   23.7880  -27.4230   46.5890 H   0  0  0  0  0  0  0  0  0  0  0  0
   20.0650  -24.7280   41.8670 H   0  0  0  0  0  0  0  0  0  0  0  0
   20.7954  -25.2031   39.6967 H   0  0  0  0  0  0  0  0  0  0  0  0
   19.3480  -23.9032   38.1528 H   0  0  0  0  0  0  0  0  0  0  0  0
   20.2853  -24.6470   36.8131 H   0  0  0  0  0  0  0  0  0  0  0  0
   18.4914  -24.7386   36.8131 H   0  0  0  0  0  0  0  0  0  0  0  0
  1  2  1  0
  2  3  1  0
  3  4  1  0
  4  5  2  0
  5  6  1  0
  6  7  2  0
  7  8  1  0
  8  9  1  0
  9 10  1  0
 10 11  2  0
 11 12  1  0
 12 13  2  0
 13 14  1  0
 14 15  1  0
 14 16  2  0
 16 17  1  0
 17 18  2  0
 17 19  1  0
 19 20  1  0
  7 21  1  0
 21 22  2  0
 22 23  1  0
 22  4  1  0
 19  8  2  0
 16 10  1  0
  1 24  1  0
  1 25  1  0
  1 26  1  0
  2 27  1  0
  2 28  1  0
  3 29  1  0
  3 30  1  0
  5 31  1  0
  6 32  1  0
 11 33  1  0
 12 34  1  0
 13 35  1  0
 15 36  1  0
 20 37  1  0
 21 38  1  0
 23 39  1  0
 23 40  1  0
 23 41  1  0
M  END
>  <meeko>  (6) 
{"is_sidechain": [false], "free_energy": -6.9, "intermolecular_energy": -8.704, "internal_energy": -0.341}

$$$$
cand_055_out
     RDKit          3D

 41 43  0  0  0  0  0  0  0  0999 V2000
   19.7700  -22.8440   41.8230 C   0  0  0  0  0  0  0  0  0  0  0  0
   19.6850  -23.9450   40.7780 C   0  0  0  0  0  0  0  0  0  0  0  0
   18.9500  -25.1730   41.3200 C   0  0  0  0  0  0  0  0  0  0  0  0
   19.1430  -26.3810   40.4310 C   0  0  0  0  0  0  0  0  0  0  0  0
   18.2970  -26.5340   39.3210 C   0  0  0  0  0  0  0  0  0  0  0  0
   18.4190  -27.6340   38.4680 C   0  0  0  0  0  0  0  0  0  0  0  0
   19.3940  -28.6090   38.6980 C   0  0  0  0  0  0  0  0  0  0  0  0
   19.5300  -29.7960   37.8260 C   0  0  0  0  0  0  0  0  0  0  0  0
   19.8490  -29.4670   36.5130 O   0  0  0  0  0  0  0  0  0  0  0  0
   20.0050  -30.4740   35.5960 C   0  0  0  0  0  0  0  0  0  0  0  0
   20.3390  -30.0990   34.2940 C   0  0  0  0  0  0  0  0  0  0  0  0
   20.5110  -31.0760   33.3100 C   0  0  0  0  0  0  0  0  0  0  0  0
   20.3480  -32.4260   33.6280 C   0  0  0  0  0  0  0  0  0  0  0  0
   20.0150  -32.7970   34.9290 C   0  0  0  0  0  0  0  0  0  0  0  0
   19.8690  -34.1350   35.1710 O   0  0  0  0  0  0  0  0  0  0  0  0
   19.8430  -31.8190   35.9120 C   0  0  0  0  0  0  0  0  0  0  0  0
   19.4930  -32.1670   37.2900 C   0  0  0  0  0  0  0  0  0  0  0  0
   19.3260  -33.3310   37.6460 O   0  0  0  0  0  0  0  0  0  0  0  0
   19.3410  -31.0560   38.2590 C   0  0  0  0  0  0  0  0  0  0  0  0
   18.9970  -31.3950   39.5550 O   0  0  0  0  0  0  0  0  0  0  0  0
   20.2300  -28.4650   39.8160 C   0  0  0  0  0  0  0  0  0  0  0  0
   20.1150  -27.3670   40.6900 C   0  0  0  0  0  0  0  0  0  0  0  0
   21.0570  -27.2680   41.8580 C   0  0  0  0  0  0  0  0  0  0  0  0
   19.7356  -23.2892   42.8283 H   0  0  0  0  0  0  0  0  0  0  0  0
   20.7134  -22.2922   41.6984 H   0  0  0  0  0  0  0  0  0  0  0  0
   18.9225  -22.1540   41.6984 H   0  0  0  0  0  0  0  0  0  0  0  0
   19.1447  -23.5634   39.8991 H   0  0  0  0  0  0  0  0  0  0  0  0
   20.7080  -24.2452   40.5070 H   0  0  0  0  0  0  0  0  0  0  0  0
   19.3357  -25.4045   42.3238 H   0  0  0  0  0  0  0  0  0  0  0  0
   17.8752  -24.9411   41.3530 H   0  0  0  0  0  0  0  0  0  0  0  0
   17.5259  -25.7758   39.1196 H   0  0  0  0  0  0  0  0  0  0  0  0
   17.7413  -27.7337   37.6073 H   0  0  0  0  0  0  0  0  0  0  0  0
   20.4667  -29.0357   34.0427 H   0  0  0  0  0  0  0  0  0  0  0  0
   20.7751  -30.7814   32.2836 H   0  0  0  0  0  0  0  0  0  0  0  0
   20.4822  -33.1949   32.8529 H   0  0  0  0  0  0  0  0  0  0  0  0
   20.3950  -34.7560   34.7060 H   0  0  0  0  0  0  0  0  0  0  0  0
   19.4380  -32.1000   39.9870 H   0  0  0  0  0  0  0  0  0  0  0  0
   20.9951  -29.2299   40.0147 H   0  0  0  0  0  0  0  0  0  0  0  0
   20.4856  -27.3281   42.7960 H   0  0  0  0  0  0  0  0  0  0  0  0
   21.7811  -28.0950   41.8162 H   0  0  0  0  0  0  0  0  0  0  0  0
   21.5934  -26.3085   41.8162 H   0  0  0  0  0  0  0  0  0  0  0  0
  1  2  1  0
  2  3  1  0
  3  4  1  0
  4  5  2  0
  5  6  1  0
  6  7  2  0
  7  8  1  0
  8  9  1  0
  9 10  1  0
 10 11  2  0
 11 12  1  0
 12 13  2  0
 13 14  1  0
 14 15  1  0
 14 16  2  0
 16 17  1  0
 17 18  2  0
 17 19  1  0
 19 20  1  0
  7 21  1  0
 21 22  2  0
 22 23  1  0
 22  4  1  0
 19  8  2  0
 16 10  1  0
  1 24  1  0
  1 25  1  0
  1 26  1  0
  2 27  1  0
  2 28  1  0
  3 29  1  0
  3 30  1  0
  5 31  1  0
  6 32  1  0
 11 33  1  0
 12 34  1  0
 13 35  1  0
 15 36  1  0
 20 37  1  0
 21 38  1  0
 23 39  1  0
 23 40  1  0
 23 41  1  0
M  END
>  <meeko>  (7) 
{"is_sidechain": [false], "free_energy": -6.833, "intermolecular_energy": -8.554, "internal_energy": -0.409}

$$$$
cand_055_out
     RDKit          3D

 41 43  0  0  0  0  0  0  0  0999 V2000
   24.9810  -30.6380   43.8820 C   0  0  0  0  0  0  0  0  0  0  0  0
   25.3380  -29.1670   44.0180 C   0  0  0  0  0  0  0  0  0  0  0  0
   24.2050  -28.3760   44.6740 C   0  0  0  0  0  0  0  0  0  0  0  0
   23.2080  -27.8710   43.6540 C   0  0  0  0  0  0  0  0  0  0  0  0
   23.2680  -28.3890   42.3490 C   0  0  0  0  0  0  0  0  0  0  0  0
   22.3820  -27.9550   41.3610 C   0  0  0  0  0  0  0  0  0  0  0  0
   21.4080  -26.9950   41.6490 C   0  0  0  0  0  0  0  0  0  0  0  0
   20.4730  -26.5000   40.6160 C   0  0  0  0  0  0  0  0  0  0  0  0
   20.3680  -25.1140   40.6010 O   0  0  0  0  0  0  0  0  0  0  0  0
   19.5340  -24.5210   39.6900 C   0  0  0  0  0  0  0  0  0  0  0  0
   19.4710  -23.1260   39.7010 C   0  0  0  0  0  0  0  0  0  0  0  0
   18.6390  -22.4590   38.7990 C   0  0  0  0  0  0  0  0  0  0  0  0
   17.8680  -23.1850   37.8880 C   0  0  0  0  0  0  0  0  0  0  0  0
   17.9340  -24.5760   37.8790 C   0  0  0  0  0  0  0  0  0  0  0  0
   17.1520  -25.2250   36.9620 O   0  0  0  0  0  0  0  0  0  0  0  0
   18.7670  -25.2430   38.7810 C   0  0  0  0  0  0  0  0  0  0  0  0
   18.8640  -26.7040   38.8050 C   0  0  0  0  0  0  0  0  0  0  0  0
   18.2130  -27.4120   38.0400 O   0  0  0  0  0  0  0  0  0  0  0  0
   19.7820  -27.3130   39.7950 C   0  0  0  0  0  0  0  0  0  0  0  0
   19.8560  -28.6940   39.8160 O   0  0  0  0  0  0  0  0  0  0  0  0
   21.3570  -26.4660   42.9480 C   0  0  0  0  0  0  0  0  0  0  0  0
   22.2480  -26.8860   43.9540 C   0  0  0  0  0  0  0  0  0  0  0  0
   22.1240  -26.2880   45.3280 C   0  0  0  0  0  0  0  0  0  0  0  0
   24.8730  -31.0831   44.8821 H   0  0  0  0  0  0  0  0  0  0  0  0
   24.0330  -30.7360   43.3327 H   0  0  0  0  0  0  0  0  0  0  0  0
   25.7786  -31.1596   43.3327 H   0  0  0  0  0  0  0  0  0  0  0  0
   26.2436  -29.0741   44.6355 H   0  0  0  0  0  0  0  0  0  0  0  0
   25.5083  -28.7576   43.0113 H   0  0  0  0  0  0  0  0  0  0  0  0
   23.6830  -29.0285   45.3893 H   0  0  0  0  0  0  0  0  0  0  0  0
   24.6454  -27.5052   45.1816 H   0  0  0  0  0  0  0  0  0  0  0  0
   24.0247  -29.1482   42.1021 H   0  0  0  0  0  0  0  0  0  0  0  0
   22.4513  -28.3728   40.3458 H   0  0  0  0  0  0  0  0  0  0  0  0
   20.0759  -22.5531   40.4192 H   0  0  0  0  0  0  0  0  0  0  0  0
   18.5908  -21.3601   38.8060 H   0  0  0  0  0  0  0  0  0  0  0  0
   17.2106  -22.6594   37.1798 H   0  0  0  0  0  0  0  0  0  0  0  0
   17.0280  -24.8580   36.1090 H   0  0  0  0  0  0  0  0  0  0  0  0
   19.9460  -29.1450   40.6320 H   0  0  0  0  0  0  0  0  0  0  0  0
   20.6011  -25.7033   43.1864 H   0  0  0  0  0  0  0  0  0  0  0  0
   22.2862  -27.0701   46.0843 H   0  0  0  0  0  0  0  0  0  0  0  0
   22.8770  -25.4958   45.4524 H   0  0  0  0  0  0  0  0  0  0  0  0
   21.1181  -25.8606   45.4524 H   0  0  0  0  0  0  0  0  0  0  0  0
  1  2  1  0
  2  3  1  0
  3  4  1  0
  4  5  2  0
  5  6  1  0
  6  7  2  0
  7  8  1  0
  8  9  1  0
  9 10  1  0
 10 11  2  0
 11 12  1  0
 12 13  2  0
 13 14  1  0
 14 15  1  0
 14 16  2  0
 16 17  1  0
 17 18  2  0
 17 19  1  0
 19 20  1  0
  7 21  1  0
 21 22  2  0
 22 23  1  0
 22  4  1  0
 19  8  2  0
 16 10  1  0
  1 24  1  0
  1 25  1  0
  1 26  1  0
  2 27  1  0
  2 28  1  0
  3 29  1  0
  3 30  1  0
  5 31  1  0
  6 32  1  0
 11 33  1  0
 12 34  1  0
 13 35  1  0
 15 36  1  0
 20 37  1  0
 21 38  1  0
 23 39  1  0
 23 40  1  0
 23 41  1  0
M  END
>  <meeko>  (8) 
{"is_sidechain": [false], "free_energy": -6.65, "intermolecular_energy": -8.702, "internal_energy": -0.035}

$$$$
cand_055_out
     RDKit          3D

 41 43  0  0  0  0  0  0  0  0999 V2000
   19.9400  -25.5200   49.3100 C   0  0  0  0  0  0  0  0  0  0  0  0
   20.6920  -24.3080   48.7840 C   0  0  0  0  0  0  0  0  0  0  0  0
   19.7550  -23.3430   48.0560 C   0  0  0  0  0  0  0  0  0  0  0  0
   19.6830  -23.6390   46.5740 C   0  0  0  0  0  0  0  0  0  0  0  0
   20.7400  -24.3520   45.9840 C   0  0  0  0  0  0  0  0  0  0  0  0
   20.7360  -24.6480   44.6190 C   0  0  0  0  0  0  0  0  0  0  0  0
   19.6730  -24.2450   43.8060 C   0  0  0  0  0  0  0  0  0  0  0  0
   19.6540  -24.5240   42.3540 C   0  0  0  0  0  0  0  0  0  0  0  0
   19.6550  -25.8840   42.0650 O   0  0  0  0  0  0  0  0  0  0  0  0
   19.6380  -26.2840   40.7540 C   0  0  0  0  0  0  0  0  0  0  0  0
   19.6250  -27.6590   40.5110 C   0  0  0  0  0  0  0  0  0  0  0  0
   19.6090  -28.1340   39.1970 C   0  0  0  0  0  0  0  0  0  0  0  0
   19.6080  -27.2350   38.1280 C   0  0  0  0  0  0  0  0  0  0  0  0
   19.6210  -25.8650   38.3740 C   0  0  0  0  0  0  0  0  0  0  0  0
   19.6210  -25.0410   37.2810 O   0  0  0  0  0  0  0  0  0  0  0  0
   19.6360  -25.3900   39.6880 C   0  0  0  0  0  0  0  0  0  0  0  0
   19.6510  -23.9580   39.9900 C   0  0  0  0  0  0  0  0  0  0  0  0
   19.6570  -23.1060   39.1040 O   0  0  0  0  0  0  0  0  0  0  0  0
   19.6580  -23.5580   41.4160 C   0  0  0  0  0  0  0  0  0  0  0  0
   19.6850  -22.2020   41.6890 O   0  0  0  0  0  0  0  0  0  0  0  0
   18.6240  -23.5200   44.3920 C   0  0  0  0  0  0  0  0  0  0  0  0
   18.6150  -23.2060   45.7640 C   0  0  0  0  0  0  0  0  0  0  0  0
   17.4490  -22.4410   46.3260 C   0  0  0  0  0  0  0  0  0  0  0  0
   19.9478  -25.5074   50.4099 H   0  0  0  0  0  0  0  0  0  0  0  0
   18.9009  -25.4913   48.9504 H   0  0  0  0  0  0  0  0  0  0  0  0
   20.4272  -26.4383   48.9504 H   0  0  0  0  0  0  0  0  0  0  0  0
   21.1604  -23.7827   49.6294 H   0  0  0  0  0  0  0  0  0  0  0  0
   21.4535  -24.6558   48.0705 H   0  0  0  0  0  0  0  0  0  0  0  0
   18.7467  -23.4333   48.4864 H   0  0  0  0  0  0  0  0  0  0  0  0
   20.1493  -22.3239   48.1819 H   0  0  0  0  0  0  0  0  0  0  0  0
   21.5842  -24.6824   46.6070 H   0  0  0  0  0  0  0  0  0  0  0  0
   21.5776  -25.2036   44.1796 H   0  0  0  0  0  0  0  0  0  0  0  0
   19.6274  -28.3672   41.3527 H   0  0  0  0  0  0  0  0  0  0  0  0
   19.5972  -29.2169   39.0043 H   0  0  0  0  0  0  0  0  0  0  0  0
   19.5970  -27.6090   37.0936 H   0  0  0  0  0  0  0  0  0  0  0  0
   19.8450  -25.3820   36.4380 H   0  0  0  0  0  0  0  0  0  0  0  0
   19.8110  -21.9040   42.5680 H   0  0  0  0  0  0  0  0  0  0  0  0
   17.7858  -23.1880   43.7618 H   0  0  0  0  0  0  0  0  0  0  0  0
   17.4888  -22.4671   47.4250 H   0  0  0  0  0  0  0  0  0  0  0  0
   17.4953  -21.3972   45.9821 H   0  0  0  0  0  0  0  0  0  0  0  0
   16.5099  -22.8991   45.9821 H   0  0  0  0  0  0  0  0  0  0  0  0
  1  2  1  0
  2  3  1  0
  3  4  1  0
  4  5  2  0
  5  6  1  0
  6  7  2  0
  7  8  1  0
  8  9  1  0
  9 10  1  0
 10 11  2  0
 11 12  1  0
 12 13  2  0
 13 14  1  0
 14 15  1  0
 14 16  2  0
 16 17  1  0
 17 18  2  0
 17 19  1  0
 19 20  1  0
  7 21  1  0
 21 22  2  0
 22 23  1  0
 22  4  1  0
 19  8  2  0
 16 10  1  0
  1 24  1  0
  1 25  1  0
  1 26  1  0
  2 27  1  0
  2 28  1  0
  3 29  1  0
  3 30  1  0
  5 31  1  0
  6 32  1  0
 11 33  1  0
 12 34  1  0
 13 35  1  0
 15 36  1  0
 20 37  1  0
 21 38  1  0
 23 39  1  0
 23 40  1  0
 23 41  1  0
M  END
>  <meeko>  (9) 
{"is_sidechain": [false], "free_energy": -6.626, "intermolecular_energy": -8.282, "internal_energy": -0.425}

$$$$
