cand_017_out
     RDKit          3D

 38 40  0  0  0  0  0  0  0  0999 V2000
   22.2690  -27.6970   41.8420 C   0  0  0  0  0  0  0  0  0  0  0  0
   20.8770  -27.0960   41.9880 C   0  0  0  0  0  0  0  0  0  0  0  0
   20.0270  -27.3340   40.7590 C   0  0  0  0  0  0  0  0  0  0  0  0
   20.0730  -28.6070   40.1560 C   0  0  0  0  0  0  0  0  0  0  0  0
   19.3130  -28.9140   39.0190 C   0  0  0  0  0  0  0  0  0  0  0  0
   19.3440  -30.2570   38.4020 C   0  0  0  0  0  0  0  0  0  0  0  0
   18.9030  -31.2570   39.2610 O   0  0  0  0  0  0  0  0  0  0  0  0
   18.8810  -32.5530   38.8130 C   0  0  0  0  0  0  0  0  0  0  0  0
   18.4470  -33.5260   39.7140 C   0  0  0  0  0  0  0  0  0  0  0  0
   18.3980  -34.8670   39.3220 C   0  0  0  0  0  0  0  0  0  0  0  0
   18.7840  -35.2320   38.0310 C   0  0  0  0  0  0  0  0  0  0  0  0
   19.2170  -34.2580   37.1340 C   0  0  0  0  0  0  0  0  0  0  0  0
   19.5790  -34.6860   35.8860 O   0  0  0  0  0  0  0  0  0  0  0  0
   19.2660  -32.9180   37.5270 C   0  0  0  0  0  0  0  0  0  0  0  0
   19.7150  -31.8640   36.6170 C   0  0  0  0  0  0  0  0  0  0  0  0
   20.0630  -32.1050   35.4620 O   0  0  0  0  0  0  0  0  0  0  0  0
   19.7370  -30.4760   37.1330 C   0  0  0  0  0  0  0  0  0  0  0  0
   20.1510  -29.4860   36.2600 O   0  0  0  0  0  0  0  0  0  0  0  0
   18.4770  -27.9240   38.4930 C   0  0  0  0  0  0  0  0  0  0  0  0
   18.4150  -26.6580   39.0800 C   0  0  0  0  0  0  0  0  0  0  0  0
   19.1800  -26.3440   40.2160 C   0  0  0  0  0  0  0  0  0  0  0  0
   19.0900  -24.9510   40.7960 C   0  0  0  0  0  0  0  0  0  0  0  0
   20.1870  -24.1870   40.5300 F   0  0  0  0  0  0  0  0  0  0  0  0
   18.9610  -24.9340   42.1550 F   0  0  0  0  0  0  0  0  0  0  0  0
   22.6953  -27.8811   42.8392 H   0  0  0  0  0  0  0  0  0  0  0  0
   22.2024  -28.6465   41.2907 H   0  0  0  0  0  0  0  0  0  0  0  0
   22.9145  -26.9974   41.2907 H   0  0  0  0  0  0  0  0  0  0  0  0
   20.3816  -27.5537   42.8569 H   0  0  0  0  0  0  0  0  0  0  0  0
   20.9873  -26.0096   42.1206 H   0  0  0  0  0  0  0  0  0  0  0  0
   20.7233  -29.3810   40.5896 H   0  0  0  0  0  0  0  0  0  0  0  0
   18.1438  -33.2383   40.7315 H   0  0  0  0  0  0  0  0  0  0  0  0
   18.0552  -35.6349   40.0311 H   0  0  0  0  0  0  0  0  0  0  0  0
   18.7463  -36.2872   37.7225 H   0  0  0  0  0  0  0  0  0  0  0  0
   20.3780  -35.1600   35.7660 H   0  0  0  0  0  0  0  0  0  0  0  0
   20.4410  -28.6600   36.5930 H   0  0  0  0  0  0  0  0  0  0  0  0
   17.8620  -28.1445   37.6080 H   0  0  0  0  0  0  0  0  0  0  0  0
   17.7552  -25.8929   38.6450 H   0  0  0  0  0  0  0  0  0  0  0  0
   18.1912  -24.5441   40.3096 H   0  0  0  0  0  0  0  0  0  0  0  0
  1  2  1  0
  2  3  1  0
  3  4  2  0
  4  5  1  0
  5  6  1  0
  6  7  1  0
  7  8  1  0
  8  9  2  0
  9 10  1  0
 10 11  2  0
 11 12  1  0
 12 13  1  0
 12 14  2  0
 14 15  1  0
 15 16  2  0
 15 17  1  0
 17 18  1  0
  5 19  2  0
 19 20  1  0
 20 21  2  0
 21 22  1  0
 22 23  1  0
 22 24  1  0
 21  3  1  0
 17  6  2  0
 14  8  1  0
  1 25  1  0
  1 26  1  0
  1 27  1  0
  2 28  1  0
  2 29  1  0
  4 30  1  0
  9 31  1  0
 10 32  1  0
 11 33  1  0
 13 34  1  0
 18 35  1  0
 19 36  1  0
 20 37  1  0
 22 38  1  0
M  END
>  <meeko>  (1) 
{"is_sidechain": [false], "free_energy": -8.122, "intermolecular_energy": -10.021, "internal_energy": -0.351}

$$$$
cand_017_out
     RDKit          3D

 38 40  0  0  0  0  0  0  0  0999 V2000
   18.6300  -33.6300   39.7320 C   0  0  0  0  0  0  0  0  0  0  0  0
   19.1190  -33.6980   38.2920 C   0  0  0  0  0  0  0  0  0  0  0  0
   19.3510  -32.3220   37.7070 C   0  0  0  0  0  0  0  0  0  0  0  0
   19.1990  -31.2060   38.5560 C   0  0  0  0  0  0  0  0  0  0  0  0
   19.4010  -29.8970   38.0970 C   0  0  0  0  0  0  0  0  0  0  0  0
   19.2660  -28.7290   38.9940 C   0  0  0  0  0  0  0  0  0  0  0  0
   20.2130  -28.7170   40.0110 O   0  0  0  0  0  0  0  0  0  0  0  0
   20.2000  -27.6860   40.9160 C   0  0  0  0  0  0  0  0  0  0  0  0
   21.1590  -27.7220   41.9300 C   0  0  0  0  0  0  0  0  0  0  0  0
   21.2020  -26.7010   42.8840 C   0  0  0  0  0  0  0  0  0  0  0  0
   20.2880  -25.6490   42.8230 C   0  0  0  0  0  0  0  0  0  0  0  0
   19.3330  -25.6150   41.8110 C   0  0  0  0  0  0  0  0  0  0  0  0
   18.4690  -24.5540   41.8110 O   0  0  0  0  0  0  0  0  0  0  0  0
   19.2890  -26.6360   40.8570 C   0  0  0  0  0  0  0  0  0  0  0  0
   18.3020  -26.6410   39.7770 C   0  0  0  0  0  0  0  0  0  0  0  0
   17.4680  -25.7440   39.6520 O   0  0  0  0  0  0  0  0  0  0  0  0
   18.3350  -27.7720   38.8220 C   0  0  0  0  0  0  0  0  0  0  0  0
   17.4050  -27.7600   37.7990 O   0  0  0  0  0  0  0  0  0  0  0  0
   19.7800  -29.7120   36.7650 C   0  0  0  0  0  0  0  0  0  0  0  0
   19.9390  -30.8060   35.9100 C   0  0  0  0  0  0  0  0  0  0  0  0
   19.7320  -32.1200   36.3640 C   0  0  0  0  0  0  0  0  0  0  0  0
   19.8960  -33.2640   35.3900 C   0  0  0  0  0  0  0  0  0  0  0  0
   20.2440  -32.8560   34.1370 F   0  0  0  0  0  0  0  0  0  0  0  0
   18.7620  -34.0060   35.2250 F   0  0  0  0  0  0  0  0  0  0  0  0
   19.4839  -33.7487   40.4152 H   0  0  0  0  0  0  0  0  0  0  0  0
   18.1501  -32.6565   39.9107 H   0  0  0  0  0  0  0  0  0  0  0  0
   17.9027  -34.4356   39.9107 H   0  0  0  0  0  0  0  0  0  0  0  0
   20.0643  -34.2599   38.2640 H   0  0  0  0  0  0  0  0  0  0  0  0
   18.3426  -34.1958   37.6925 H   0  0  0  0  0  0  0  0  0  0  0  0
   18.9144  -31.3671   39.6063 H   0  0  0  0  0  0  0  0  0  0  0  0
   21.8793  -28.5520   41.9782 H   0  0  0  0  0  0  0  0  0  0  0  0
   21.9572  -26.7272   43.6834 H   0  0  0  0  0  0  0  0  0  0  0  0
   20.3220  -24.8465   43.5745 H   0  0  0  0  0  0  0  0  0  0  0  0
   18.1520  -24.2080   41.0000 H   0  0  0  0  0  0  0  0  0  0  0  0
   17.4390  -27.0910   37.1440 H   0  0  0  0  0  0  0  0  0  0  0  0
   19.9551  -28.6946   36.3853 H   0  0  0  0  0  0  0  0  0  0  0  0
   20.2313  -30.6357   34.8633 H   0  0  0  0  0  0  0  0  0  0  0  0
   20.6946  -33.8628   35.8522 H   0  0  0  0  0  0  0  0  0  0  0  0
  1  2  1  0
  2  3  1  0
  3  4  2  0
  4  5  1  0
  5  6  1  0
  6  7  1  0
  7  8  1  0
  8  9  2  0
  9 10  1  0
 10 11  2  0
 11 12  1  0
 12 13  1  0
 12 14  2  0
 14 15  1  0
 15 16  2  0
 15 17  1  0
 17 18  1  0
  5 19  2  0
 19 20  1  0
 20 21  2  0
 21 22  1  0
 22 23  1  0
 22 24  1  0
 21  3  1  0
 17  6  2  0
 14  8  1  0
  1 25  1  0
  1 26  1  0
  1 27  1  0
  2 28  1  0
  2 29  1  0
  4 30  1  0
  9 31  1  0
 10 32  1  0
 11 33  1  0
 13 34  1  0
 18 35  1  0
 19 36  1  0
 20 37  1  0
 22 38  1  0
M  END
>  <meeko>  (2) 
{"is_sidechain": [false], "free_energy": -8.005, "intermolecular_energy": -9.761, "internal_energy": -0.468}

$$$$
cand_017_out
     RDKit          3D

 38 40  0  0  0  0  0  0  0  0999 V2000
   20.1150  -29.9600   34.2420 C   0  0  0  0  0  0  0  0  0  0  0  0
   20.6210  -31.1760   35.0060 C   0  0  0  0  0  0  0  0  0  0  0  0
   20.0140  -31.2680   36.3900 C   0  0  0  0  0  0  0  0  0  0  0  0
   19.9140  -30.0840   37.1500 C   0  0  0  0  0  0  0  0  0  0  0  0
   19.3600  -30.0790   38.4380 C   0  0  0  0  0  0  0  0  0  0  0  0
   19.2330  -28.8330   39.2240 C   0  0  0  0  0  0  0  0  0  0  0  0
   20.1460  -28.7580   40.2690 O   0  0  0  0  0  0  0  0  0  0  0  0
   20.1360  -27.6530   41.0800 C   0  0  0  0  0  0  0  0  0  0  0  0
   21.0590  -27.6260   42.1270 C   0  0  0  0  0  0  0  0  0  0  0  0
   21.1030  -26.5280   42.9890 C   0  0  0  0  0  0  0  0  0  0  0  0
   20.2260  -25.4580   42.8040 C   0  0  0  0  0  0  0  0  0  0  0  0
   19.3070  -25.4860   41.7590 C   0  0  0  0  0  0  0  0  0  0  0  0
   18.4780  -24.4040   41.6360 O   0  0  0  0  0  0  0  0  0  0  0  0
   19.2620  -26.5850   40.8970 C   0  0  0  0  0  0  0  0  0  0  0  0
   18.3110  -26.6560   39.7870 C   0  0  0  0  0  0  0  0  0  0  0  0
   17.5120  -25.7510   39.5550 O   0  0  0  0  0  0  0  0  0  0  0  0
   18.3400  -27.8680   38.9360 C   0  0  0  0  0  0  0  0  0  0  0  0
   17.4460  -27.9190   37.8820 O   0  0  0  0  0  0  0  0  0  0  0  0
   18.8820  -31.2840   38.9590 C   0  0  0  0  0  0  0  0  0  0  0  0
   18.9700  -32.4660   38.2190 C   0  0  0  0  0  0  0  0  0  0  0  0
   19.5300  -32.4770   36.9300 C   0  0  0  0  0  0  0  0  0  0  0  0
   19.6190  -33.7890   36.1830 C   0  0  0  0  0  0  0  0  0  0  0  0
   18.8790  -33.8060   35.0390 F   0  0  0  0  0  0  0  0  0  0  0  0
   19.1850  -34.8600   36.9090 F   0  0  0  0  0  0  0  0  0  0  0  0
   19.7932  -29.1867   34.9551 H   0  0  0  0  0  0  0  0  0  0  0  0
   20.9223  -29.5623   33.6095 H   0  0  0  0  0  0  0  0  0  0  0  0
   19.2639  -30.2524   33.6095 H   0  0  0  0  0  0  0  0  0  0  0  0
   20.3597  -32.0838   34.4424 H   0  0  0  0  0  0  0  0  0  0  0  0
   21.7108  -31.0779   35.1183 H   0  0  0  0  0  0  0  0  0  0  0  0
   20.2803  -29.1397   36.7209 H   0  0  0  0  0  0  0  0  0  0  0  0
   21.7509  -28.4686   42.2729 H   0  0  0  0  0  0  0  0  0  0  0  0
   21.8296  -26.5064   43.8146 H   0  0  0  0  0  0  0  0  0  0  0  0
   20.2611  -24.5936   43.4833 H   0  0  0  0  0  0  0  0  0  0  0  0
   17.6730  -24.4830   41.1650 H   0  0  0  0  0  0  0  0  0  0  0  0
   17.4350  -27.2330   37.2450 H   0  0  0  0  0  0  0  0  0  0  0  0
   18.4316  -31.3024   39.9624 H   0  0  0  0  0  0  0  0  0  0  0  0
   18.5944  -33.4044   38.6530 H   0  0  0  0  0  0  0  0  0  0  0  0
   20.6941  -33.8711   35.9653 H   0  0  0  0  0  0  0  0  0  0  0  0
  1  2  1  0
  2  3  1  0
  3  4  2  0
  4  5  1  0
  5  6  1  0
  6  7  1  0
  7  8  1  0
  8  9  2  0
  9 10  1  0
 10 11  2  0
 11 12  1  0
 12 13  1  0
 12 14  2  0
 14 15  1  0
 15 16  2  0
 15 17  1  0
 17 18  1  0
  5 19  2  0
 19 20  1  0
 20 21  2  0
 21 22  1  0
 22 23  1  0
 22 24  1  0
 21  3  1  0
 17  6  2  0
 14  8  1  0
  1 25  1  0
  1 26  1  0
  1 27  1  0
  2 28  1  0
  2 29  1  0
  4 30  1  0
  9 31  1  0
 10 32  1  0
 11 33  1  0
 13 34  1  0
 18 35  1  0
 19 36  1  0
 20 37  1  0
 22 38  1  0
M  END
>  <meeko>  (3) 
{"is_sidechain": [false], "free_energy": -7.849, "intermolecular_energy": -9.458, "internal_energy": -0.578}

$$$$
cand_017_out
     RDKit          3D

 38 40  0  0  0  0  0  0  0  0999 V2000
   18.6320  -24.7870   36.9620 C   0  0  0  0  0  0  0  0  0  0  0  0
   17.8650  -25.2800   38.1810 C   0  0  0  0  0  0  0  0  0  0  0  0
   18.6190  -26.3610   38.9240 C   0  0  0  0  0  0  0  0  0  0  0  0
   18.6550  -27.6530   38.3600 C   0  0  0  0  0  0  0  0  0  0  0  0
   19.3350  -28.7110   38.9800 C   0  0  0  0  0  0  0  0  0  0  0  0
   19.3930  -30.0580   38.3750 C   0  0  0  0  0  0  0  0  0  0  0  0
   18.9500  -31.0560   39.2350 O   0  0  0  0  0  0  0  0  0  0  0  0
   18.9520  -32.3560   38.7990 C   0  0  0  0  0  0  0  0  0  0  0  0
   18.5150  -33.3270   39.7010 C   0  0  0  0  0  0  0  0  0  0  0  0
   18.4890  -34.6710   39.3190 C   0  0  0  0  0  0  0  0  0  0  0  0
   18.9010  -35.0420   38.0390 C   0  0  0  0  0  0  0  0  0  0  0  0
   19.3370  -34.0720   37.1410 C   0  0  0  0  0  0  0  0  0  0  0  0
   19.7260  -34.5050   35.9030 O   0  0  0  0  0  0  0  0  0  0  0  0
   19.3630  -32.7280   37.5230 C   0  0  0  0  0  0  0  0  0  0  0  0
   19.8150  -31.6760   36.6110 C   0  0  0  0  0  0  0  0  0  0  0  0
   20.1860  -31.9220   35.4640 O   0  0  0  0  0  0  0  0  0  0  0  0
   19.8100  -30.2830   37.1160 C   0  0  0  0  0  0  0  0  0  0  0  0
   20.2270  -29.2960   36.2410 O   0  0  0  0  0  0  0  0  0  0  0  0
   20.0060  -28.4550   40.1800 C   0  0  0  0  0  0  0  0  0  0  0  0
   19.9840  -27.1800   40.7510 C   0  0  0  0  0  0  0  0  0  0  0  0
   19.2980  -26.1190   40.1370 C   0  0  0  0  0  0  0  0  0  0  0  0
   19.2890  -24.7660   40.8110 C   0  0  0  0  0  0  0  0  0  0  0  0
   20.0750  -23.8470   40.1820 F   0  0  0  0  0  0  0  0  0  0  0  0
   19.7360  -24.7970   42.1010 F   0  0  0  0  0  0  0  0  0  0  0  0
   19.5154  -24.2192   37.2896 H   0  0  0  0  0  0  0  0  0  0  0  0
   18.9531  -25.6483   36.3578 H   0  0  0  0  0  0  0  0  0  0  0  0
   17.9818  -24.1372   36.3578 H   0  0  0  0  0  0  0  0  0  0  0  0
   17.6963  -24.4324   38.8615 H   0  0  0  0  0  0  0  0  0  0  0  0
   16.9122  -25.7064   37.8342 H   0  0  0  0  0  0  0  0  0  0  0  0
   18.1355  -27.8358   37.4078 H   0  0  0  0  0  0  0  0  0  0  0  0
   18.1915  -33.0350   40.7110 H   0  0  0  0  0  0  0  0  0  0  0  0
   18.1433  -35.4372   40.0285 H   0  0  0  0  0  0  0  0  0  0  0  0
   18.8813  -36.1003   37.7395 H   0  0  0  0  0  0  0  0  0  0  0  0
   19.3130  -35.2520   35.5170 H   0  0  0  0  0  0  0  0  0  0  0  0
   19.9600  -28.4080   36.3760 H   0  0  0  0  0  0  0  0  0  0  0  0
   20.5567  -29.2657   40.6794 H   0  0  0  0  0  0  0  0  0  0  0  0
   20.5136  -27.0038   41.6989 H   0  0  0  0  0  0  0  0  0  0  0  0
   18.2272  -24.4818   40.7675 H   0  0  0  0  0  0  0  0  0  0  0  0
  1  2  1  0
  2  3  1  0
  3  4  2  0
  4  5  1  0
  5  6  1  0
  6  7  1  0
  7  8  1  0
  8  9  2  0
  9 10  1  0
 10 11  2  0
 11 12  1  0
 12 13  1  0
 12 14  2  0
 14 15  1  0
 15 16  2  0
 15 17  1  0
 17 18  1  0
  5 19  2  0
 19 20  1  0
 20 21  2  0
 21 22  1  0
 22 23  1  0
 22 24  1  0
 21  3  1  0
 17  6  2  0
 14  8  1  0
  1 25  1  0
  1 26  1  0
  1 27  1  0
  2 28  1  0
  2 29  1  0
  4 30  1  0
  9 31  1  0
 10 32  1  0
 11 33  1  0
 13 34  1  0
 18 35  1  0
 19 36  1  0
 20 37  1  0
 22 38  1  0
M  END
>  <meeko>  (4) 
{"is_sidechain": [false], "free_energy": -7.64, "intermolecular_energy": -9.276, "internal_energy": -0.501}

$$$$
cand_017_out
     RDKit          3D

 38 40  0  0  0  0  0  0  0  0999 V2000
   21.9780  -25.1580   45.4080 C   0  0  0  0  0  0  0  0  0  0  0  0
   22.7290  -26.4820   45.3910 C   0  0  0  0  0  0  0  0  0  0  0  0
   22.7360  -27.1110   44.0140 C   0  0  0  0  0  0  0  0  0  0  0  0
   21.7570  -26.6930   43.0890 C   0  0  0  0  0  0  0  0  0  0  0  0
   21.6960  -27.2200   41.7910 C   0  0  0  0  0  0  0  0  0  0  0  0
   20.6840  -26.7630   40.8140 C   0  0  0  0  0  0  0  0  0  0  0  0
   20.5840  -25.3790   40.7470 O   0  0  0  0  0  0  0  0  0  0  0  0
   19.6820  -24.8210   39.8790 C   0  0  0  0  0  0  0  0  0  0  0  0
   19.6020  -23.4280   39.8560 C   0  0  0  0  0  0  0  0  0  0  0  0
   18.7050  -22.7950   38.9920 C   0  0  0  0  0  0  0  0  0  0  0  0
   17.8880  -23.5540   38.1540 C   0  0  0  0  0  0  0  0  0  0  0  0
   17.9690  -24.9440   38.1780 C   0  0  0  0  0  0  0  0  0  0  0  0
   17.1400  -25.6260   37.3290 O   0  0  0  0  0  0  0  0  0  0  0  0
   18.8660  -25.5770   39.0420 C   0  0  0  0  0  0  0  0  0  0  0  0
   18.9830  -27.0350   39.1010 C   0  0  0  0  0  0  0  0  0  0  0  0
   18.3030  -27.7720   38.3880 O   0  0  0  0  0  0  0  0  0  0  0  0
   19.9590  -27.6070   40.0560 C   0  0  0  0  0  0  0  0  0  0  0  0
   20.0700  -28.9850   40.0940 O   0  0  0  0  0  0  0  0  0  0  0  0
   22.6500  -28.1700   41.4150 C   0  0  0  0  0  0  0  0  0  0  0  0
   23.6290  -28.5930   42.3170 C   0  0  0  0  0  0  0  0  0  0  0  0
   23.6910  -28.0730   43.6210 C   0  0  0  0  0  0  0  0  0  0  0  0
   24.7580  -28.5830   44.5630 C   0  0  0  0  0  0  0  0  0  0  0  0
   25.6710  -29.3890   43.9520 F   0  0  0  0  0  0  0  0  0  0  0  0
   24.2630  -29.3200   45.5990 F   0  0  0  0  0  0  0  0  0  0  0  0
   21.8028  -24.8492   46.4491 H   0  0  0  0  0  0  0  0  0  0  0  0
   22.5755  -24.3909   44.8936 H   0  0  0  0  0  0  0  0  0  0  0  0
   21.0130  -25.2772   44.8936 H   0  0  0  0  0  0  0  0  0  0  0  0
   23.7679  -26.3053   45.7063 H   0  0  0  0  0  0  0  0  0  0  0  0
   22.2174  -27.1723   46.0778 H   0  0  0  0  0  0  0  0  0  0  0  0
   21.0219  -25.9336   43.3937 H   0  0  0  0  0  0  0  0  0  0  0  0
   20.2447  -22.8288   40.5177 H   0  0  0  0  0  0  0  0  0  0  0  0
   18.6429  -21.6969   38.9725 H   0  0  0  0  0  0  0  0  0  0  0  0
   17.1807  -23.0552   37.4751 H   0  0  0  0  0  0  0  0  0  0  0  0
   16.7900  -25.2000   36.5730 H   0  0  0  0  0  0  0  0  0  0  0  0
   20.8720  -29.3820   40.3690 H   0  0  0  0  0  0  0  0  0  0  0  0
   22.6295  -28.5889   40.3981 H   0  0  0  0  0  0  0  0  0  0  0  0
   24.3649  -29.3470   42.0008 H   0  0  0  0  0  0  0  0  0  0  0  0
   25.2233  -27.6553   44.9275 H   0  0  0  0  0  0  0  0  0  0  0  0
  1  2  1  0
  2  3  1  0
  3  4  2  0
  4  5  1  0
  5  6  1  0
  6  7  1  0
  7  8  1  0
  8  9  2  0
  9 10  1  0
 10 11  2  0
 11 12  1  0
 12 13  1  0
 12 14  2  0
 14 15  1  0
 15 16  2  0
 15 17  1  0
 17 18  1  0
  5 19  2  0
 19 20  1  0
 20 21  2  0
 21 22  1  0
 22 23  1  0
 22 24  1  0
 21  3  1  0
 17  6  2  0
 14  8  1  0
  1 25  1  0
  1 26  1  0
  1 27  1  0
  2 28  1  0
  2 29  1  0
  4 30  1  0
  9 31  1  0
 10 32  1  0
 11 33  1  0
 13 34  1  0
 18 35  1  0
 19 36  1  0
 20 37  1  0
 22 38  1  0
M  END
>  <meeko>  (5) 
{"is_sidechain": [false], "free_energy": -7.383, "intermolecular_energy": -9.133, "internal_energy": -0.328}

$$$$
cand_017_out
     RDKit          3D

 38 40  0  0  0  0  0  0  0  0999 V2000
   20.5180  -31.2060   34.6090 C   0  0  0  0  0  0  0  0  0  0  0  0
   20.0180  -32.2670   35.5800 C   0  0  0  0  0  0  0  0  0  0  0  0
   19.6760  -31.6800   36.9330 C   0  0  0  0  0  0  0  0  0  0  0  0
   19.7290  -30.2780   37.0810 C   0  0  0  0  0  0  0  0  0  0  0  0
   19.4220  -29.6520   38.2960 C   0  0  0  0  0  0  0  0  0  0  0  0
   19.4540  -28.1810   38.4440 C   0  0  0  0  0  0  0  0  0  0  0  0
   18.6700  -27.5270   37.5010 O   0  0  0  0  0  0  0  0  0  0  0  0
   18.6100  -26.1570   37.5250 C   0  0  0  0  0  0  0  0  0  0  0  0
   17.8240  -25.5400   36.5510 C   0  0  0  0  0  0  0  0  0  0  0  0
   17.7180  -24.1470   36.5200 C   0  0  0  0  0  0  0  0  0  0  0  0
   18.3980  -23.3740   37.4610 C   0  0  0  0  0  0  0  0  0  0  0  0
   19.1820  -23.9910   38.4320 C   0  0  0  0  0  0  0  0  0  0  0  0
   19.8200  -23.1720   39.3230 O   0  0  0  0  0  0  0  0  0  0  0  0
   19.2880  -25.3840   38.4630 C   0  0  0  0  0  0  0  0  0  0  0  0
   20.1020  -26.0740   39.4650 C   0  0  0  0  0  0  0  0  0  0  0  0
   20.7240  -25.4620   40.3320 O   0  0  0  0  0  0  0  0  0  0  0  0
   20.1530  -27.5530   39.4060 C   0  0  0  0  0  0  0  0  0  0  0  0
   20.9150  -28.1940   40.3660 O   0  0  0  0  0  0  0  0  0  0  0  0
   19.0360  -30.4530   39.3760 C   0  0  0  0  0  0  0  0  0  0  0  0
   18.9740  -31.8430   39.2470 C   0  0  0  0  0  0  0  0  0  0  0  0
   19.2870  -32.4750   38.0310 C   0  0  0  0  0  0  0  0  0  0  0  0
   19.2250  -33.9830   37.9550 C   0  0  0  0  0  0  0  0  0  0  0  0
   18.1270  -34.4420   37.2900 F   0  0  0  0  0  0  0  0  0  0  0  0
   19.1840  -34.5900   39.1770 F   0  0  0  0  0  0  0  0  0  0  0  0
   20.9203  -30.3523   35.1740 H   0  0  0  0  0  0  0  0  0  0  0  0
   21.3099  -31.6325   33.9757 H   0  0  0  0  0  0  0  0  0  0  0  0
   19.6850  -30.8668   33.9757 H   0  0  0  0  0  0  0  0  0  0  0  0
   19.1174  -32.7378   35.1590 H   0  0  0  0  0  0  0  0  0  0  0  0
   20.8221  -33.0040   35.7223 H   0  0  0  0  0  0  0  0  0  0  0  0
   20.0193  -29.6596   36.2189 H   0  0  0  0  0  0  0  0  0  0  0  0
   17.2884  -26.1496   35.8083 H   0  0  0  0  0  0  0  0  0  0  0  0
   17.0979  -23.6598   35.7531 H   0  0  0  0  0  0  0  0  0  0  0  0
   18.3149  -22.2774   37.4359 H   0  0  0  0  0  0  0  0  0  0  0  0
   20.0320  -23.4870   40.1800 H   0  0  0  0  0  0  0  0  0  0  0  0
   21.7540  -27.8530   40.6030 H   0  0  0  0  0  0  0  0  0  0  0  0
   18.7786  -29.9836   40.3370 H   0  0  0  0  0  0  0  0  0  0  0  0
   18.6751  -32.4533   40.1120 H   0  0  0  0  0  0  0  0  0  0  0  0
   20.1526  -34.2358   37.4206 H   0  0  0  0  0  0  0  0  0  0  0  0
  1  2  1  0
  2  3  1  0
  3  4  2  0
  4  5  1  0
  5  6  1  0
  6  7  1  0
  7  8  1  0
  8  9  2  0
  9 10  1  0
 10 11  2  0
 11 12  1  0
 12 13  1  0
 12 14  2  0
 14 15  1  0
 15 16  2  0
 15 17  1  0
 17 18  1  0
  5 19  2  0
 19 20  1  0
 20 21  2  0
 21 22  1  0
 22 23  1  0
 22 24  1  0
 21  3  1  0
 17  6  2  0
 14  8  1  0
  1 25  1  0
  1 26  1  0
  1 27  1  0
  2 28  1  0
  2 29  1  0
  4 30  1  0
  9 31  1  0
 10 32  1  0
 11 33  1  0
 13 34  1  0
 18 35  1  0
 19 36  1  0
 20 37  1  0
 22 38  1  0
M  END
>  <meeko>  (6) 
{"is_sidechain": [false], "free_energy": -7.265, "intermolecular_energy": -8.883, "internal_energy": -0.432}

$$$$
cand_017_out
     RDKit          3D

 38 40  0  0  0  0  0  0  0  0999 V2000
   19.3080  -23.5670   38.1700 C   0  0  0  0  0  0  0  0  0  0  0  0
   19.5930  -24.7820   37.2990 C   0  0  0  0  0  0  0  0  0  0  0  0
   19.6010  -26.0650   38.1020 C   0  0  0  0  0  0  0  0  0  0  0  0
   20.3780  -26.1060   39.2790 C   0  0  0  0  0  0  0  0  0  0  0  0
   20.4370  -27.2520   40.0840 C   0  0  0  0  0  0  0  0  0  0  0  0
   21.2320  -27.2860   41.3300 C   0  0  0  0  0  0  0  0  0  0  0  0
   22.2250  -28.2580   41.3110 O   0  0  0  0  0  0  0  0  0  0  0  0
   23.0370  -28.3980   42.4070 C   0  0  0  0  0  0  0  0  0  0  0  0
   24.0100  -29.3970   42.3520 C   0  0  0  0  0  0  0  0  0  0  0  0
   24.8720  -29.5910   43.4340 C   0  0  0  0  0  0  0  0  0  0  0  0
   24.7600  -28.7880   44.5700 C   0  0  0  0  0  0  0  0  0  0  0  0
   23.7880  -27.7920   44.6230 C   0  0  0  0  0  0  0  0  0  0  0  0
   23.7350  -27.0410   45.7660 O   0  0  0  0  0  0  0  0  0  0  0  0
   22.9260  -27.5980   43.5400 C   0  0  0  0  0  0  0  0  0  0  0  0
   21.8910  -26.5640   43.5550 C   0  0  0  0  0  0  0  0  0  0  0  0
   21.7340  -25.8120   44.5150 O   0  0  0  0  0  0  0  0  0  0  0  0
   21.0240  -26.4450   42.3600 C   0  0  0  0  0  0  0  0  0  0  0  0
   20.0570  -25.4560   42.3790 O   0  0  0  0  0  0  0  0  0  0  0  0
   19.6850  -28.3680   39.7060 C   0  0  0  0  0  0  0  0  0  0  0  0
   18.9060  -28.3440   38.5460 C   0  0  0  0  0  0  0  0  0  0  0  0
   18.8490  -27.2000   37.7320 C   0  0  0  0  0  0  0  0  0  0  0  0
   18.0080  -27.2370   36.4760 C   0  0  0  0  0  0  0  0  0  0  0  0
   18.7440  -27.1220   35.3350 F   0  0  0  0  0  0  0  0  0  0  0  0
   17.0830  -26.2360   36.4100 F   0  0  0  0  0  0  0  0  0  0  0  0
   19.3749  -23.8521   39.2303 H   0  0  0  0  0  0  0  0  0  0  0  0
   20.0460  -22.7802   37.9546 H   0  0  0  0  0  0  0  0  0  0  0  0
   18.2971  -23.1904   37.9546 H   0  0  0  0  0  0  0  0  0  0  0  0
   18.8163  -24.8532   36.5233 H   0  0  0  0  0  0  0  0  0  0  0  0
   20.5901  -24.6540   36.8525 H   0  0  0  0  0  0  0  0  0  0  0  0
   20.9526  -25.2152   39.5726 H   0  0  0  0  0  0  0  0  0  0  0  0
   24.0980  -30.0311   41.4574 H   0  0  0  0  0  0  0  0  0  0  0  0
   25.6398  -30.3775   43.3906 H   0  0  0  0  0  0  0  0  0  0  0  0
   25.4384  -28.9415   45.4222 H   0  0  0  0  0  0  0  0  0  0  0  0
   22.9220  -26.6690   46.0440 H   0  0  0  0  0  0  0  0  0  0  0  0
   19.6720  -25.1620   41.5780 H   0  0  0  0  0  0  0  0  0  0  0  0
   19.7066  -29.2748   40.3282 H   0  0  0  0  0  0  0  0  0  0  0  0
   18.3273  -29.2363   38.2652 H   0  0  0  0  0  0  0  0  0  0  0  0
   17.5195  -28.2205   36.5402 H   0  0  0  0  0  0  0  0  0  0  0  0
  1  2  1  0
  2  3  1  0
  3  4  2  0
  4  5  1  0
  5  6  1  0
  6  7  1  0
  7  8  1  0
  8  9  2  0
  9 10  1  0
 10 11  2  0
 11 12  1  0
 12 13  1  0
 12 14  2  0
 14 15  1  0
 15 16  2  0
 15 17  1  0
 17 18  1  0
  5 19  2  0
 19 20  1  0
 20 21  2  0
 21 22  1  0
 22 23  1  0
 22 24  1  0
 21  3  1  0
 17  6  2  0
 14  8  1  0
  1 25  1  0
  1 26  1  0
  1 27  1  0
  2 28  1  0
  2 29  1  0
  4 30  1  0
  9 31  1  0
 10 32  1  0
 11 33  1  0
 13 34  1  0
 18 35  1  0
 19 36  1  0
 20 37  1  0
 22 38  1  0
M  END
>  <meeko>  (7) 
{"is_sidechain": [false], "free_energy": -7.253, "intermolecular_energy": -8.882, "internal_energy": -0.419}

$$$$
cand_017_out
     RDKit          3D

 38 40  0  0  0  0  0  0  0  0999 V2000
   22.1110  -27.5660   41.9010 C   0  0  0  0  0  0  0  0  0  0  0  0
   20.5980  -27.4520   41.7860 C   0  0  0  0  0  0  0  0  0  0  0  0
   20.1350  -27.4870   40.3460 C   0  0  0  0  0  0  0  0  0  0  0  0
   20.1080  -28.7330   39.6870 C   0  0  0  0  0  0  0  0  0  0  0  0
   19.6870  -28.8560   38.3560 C   0  0  0  0  0  0  0  0  0  0  0  0
   19.6360  -30.1670   37.6740 C   0  0  0  0  0  0  0  0  0  0  0  0
   20.0120  -30.0960   36.3380 O   0  0  0  0  0  0  0  0  0  0  0  0
   20.0080  -31.2430   35.5870 C   0  0  0  0  0  0  0  0  0  0  0  0
   20.3770  -31.1240   34.2460 C   0  0  0  0  0  0  0  0  0  0  0  0
   20.3970  -32.2550   33.4260 C   0  0  0  0  0  0  0  0  0  0  0  0
   20.0480  -33.5020   33.9450 C   0  0  0  0  0  0  0  0  0  0  0  0
   19.6810  -33.6190   35.2830 C   0  0  0  0  0  0  0  0  0  0  0  0
   19.3520  -34.8710   35.7270 O   0  0  0  0  0  0  0  0  0  0  0  0
   19.6610  -32.4880   36.1040 C   0  0  0  0  0  0  0  0  0  0  0  0
   19.2800  -32.5650   37.5150 C   0  0  0  0  0  0  0  0  0  0  0  0
   18.9670  -33.6290   38.0480 O   0  0  0  0  0  0  0  0  0  0  0  0
   19.2840  -31.3070   38.2960 C   0  0  0  0  0  0  0  0  0  0  0  0
   18.9350  -31.3940   39.6320 O   0  0  0  0  0  0  0  0  0  0  0  0
   19.2690  -27.7040   37.6830 C   0  0  0  0  0  0  0  0  0  0  0  0
   19.2850  -26.4600   38.3210 C   0  0  0  0  0  0  0  0  0  0  0  0
   19.7120  -26.3320   39.6540 C   0  0  0  0  0  0  0  0  0  0  0  0
   19.7300  -24.9590   40.2870 C   0  0  0  0  0  0  0  0  0  0  0  0
   18.7120  -24.7620   41.1700 F   0  0  0  0  0  0  0  0  0  0  0  0
   19.6250  -23.9410   39.3830 F   0  0  0  0  0  0  0  0  0  0  0  0
   22.3974  -27.5876   42.9628 H   0  0  0  0  0  0  0  0  0  0  0  0
   22.4472  -28.4920   41.4117 H   0  0  0  0  0  0  0  0  0  0  0  0
   22.5821  -26.7008   41.4117 H   0  0  0  0  0  0  0  0  0  0  0  0
   20.1364  -28.2906   42.3280 H   0  0  0  0  0  0  0  0  0  0  0  0
   20.2963  -26.4858   42.2166 H   0  0  0  0  0  0  0  0  0  0  0  0
   20.4262  -29.6336   40.2326 H   0  0  0  0  0  0  0  0  0  0  0  0
   20.6516  -30.1411   33.8355 H   0  0  0  0  0  0  0  0  0  0  0  0
   20.6884  -32.1621   32.3694 H   0  0  0  0  0  0  0  0  0  0  0  0
   20.0627  -34.3915   33.2981 H   0  0  0  0  0  0  0  0  0  0  0  0
   20.0000  -35.4060   36.1400 H   0  0  0  0  0  0  0  0  0  0  0  0
   18.0340  -31.3540   39.8840 H   0  0  0  0  0  0  0  0  0  0  0  0
   18.9241  -27.7771   36.6410 H   0  0  0  0  0  0  0  0  0  0  0  0
   18.9577  -25.5659   37.7701 H   0  0  0  0  0  0  0  0  0  0  0  0
   20.7070  -24.9381   40.7921 H   0  0  0  0  0  0  0  0  0  0  0  0
  1  2  1  0
  2  3  1  0
  3  4  2  0
  4  5  1  0
  5  6  1  0
  6  7  1  0
  7  8  1  0
  8  9  2  0
  9 10  1  0
 10 11  2  0
 11 12  1  0
 12 13  1  0
 12 14  2  0
 14 15  1  0
 15 16  2  0
 15 17  1  0
 17 18  1  0
  5 19  2  0
 19 20  1  0
 20 21  2  0
 21 22  1  0
 22 23  1  0
 22 24  1  0
 21  3  1  0
 17  6  2  0
 14  8  1  0
  1 25  1  0
  1 26  1  0
  1 27  1  0
  2 28  1  0
  2 29  1  0
  4 30  1  0
  9 31  1  0
 10 32  1  0
 11 33  1  0
 13 34  1  0
 18 35  1  0
 19 36  1  0
 20 37  1  0
 22 38  1  0
M  END
>  <meeko>  (8) 
{"is_sidechain": [false], "free_energy": -7.177, "intermolecular_energy": -8.944, "internal_energy": -0.263}

$$$$
cand_017_out
     RDKit          3D

 38 40  0  0  0  0  0  0  0  0999 V2000
   23.8380  -29.9490   42.3380 C   0  0  0  0  0  0  0  0  0  0  0  0
   24.0220  -28.4380   42.3600 C   0  0  0  0  0  0  0  0  0  0  0  0
   22.6980  -27.7050   42.3380 C   0  0  0  0  0  0  0  0  0  0  0  0
   22.0880  -27.4770   41.0870 C   0  0  0  0  0  0  0  0  0  0  0  0
   20.8590  -26.8120   40.9770 C   0  0  0  0  0  0  0  0  0  0  0  0
   20.2080  -26.5940   39.6670 C   0  0  0  0  0  0  0  0  0  0  0  0
   20.0120  -25.2490   39.3780 O   0  0  0  0  0  0  0  0  0  0  0  0
   19.4160  -24.9060   38.1920 C   0  0  0  0  0  0  0  0  0  0  0  0
   19.2230  -23.5450   37.9500 C   0  0  0  0  0  0  0  0  0  0  0  0
   18.6240  -23.1270   36.7590 C   0  0  0  0  0  0  0  0  0  0  0  0
   18.2160  -24.0690   35.8130 C   0  0  0  0  0  0  0  0  0  0  0  0
   18.4090  -25.4260   36.0570 C   0  0  0  0  0  0  0  0  0  0  0  0
   17.9880  -26.2940   35.0870 O   0  0  0  0  0  0  0  0  0  0  0  0
   19.0090  -25.8440   37.2480 C   0  0  0  0  0  0  0  0  0  0  0  0
   19.2300  -27.2590   37.5450 C   0  0  0  0  0  0  0  0  0  0  0  0
   18.9060  -28.1480   36.7580 O   0  0  0  0  0  0  0  0  0  0  0  0
   19.8660  -27.5980   38.8380 C   0  0  0  0  0  0  0  0  0  0  0  0
   20.0820  -28.9380   39.1030 O   0  0  0  0  0  0  0  0  0  0  0  0
   20.2260  -26.3870   42.1490 C   0  0  0  0  0  0  0  0  0  0  0  0
   20.8140  -26.6090   43.3970 C   0  0  0  0  0  0  0  0  0  0  0  0
   22.0490  -27.2700   43.5120 C   0  0  0  0  0  0  0  0  0  0  0  0
   22.6500  -27.4620   44.8860 C   0  0  0  0  0  0  0  0  0  0  0  0
   23.8910  -26.9150   45.0100 F   0  0  0  0  0  0  0  0  0  0  0  0
   22.7970  -28.7730   45.2370 F   0  0  0  0  0  0  0  0  0  0  0  0
   23.7919  -30.3278   43.3697 H   0  0  0  0  0  0  0  0  0  0  0  0
   22.9030  -30.1969   41.8142 H   0  0  0  0  0  0  0  0  0  0  0  0
   24.6861  -30.4141   41.8142 H   0  0  0  0  0  0  0  0  0  0  0  0
   24.5667  -28.1599   43.2743 H   0  0  0  0  0  0  0  0  0  0  0  0
   24.5841  -28.1511   41.4590 H   0  0  0  0  0  0  0  0  0  0  0  0
   22.5897  -27.8302   40.1740 H   0  0  0  0  0  0  0  0  0  0  0  0
   19.5421  -22.8024   38.6961 H   0  0  0  0  0  0  0  0  0  0  0  0
   18.4737  -22.0544   36.5665 H   0  0  0  0  0  0  0  0  0  0  0  0
   17.7427  -23.7396   34.8762 H   0  0  0  0  0  0  0  0  0  0  0  0
   17.8620  -27.1990   35.2910 H   0  0  0  0  0  0  0  0  0  0  0  0
   20.1540  -29.2350   39.9880 H   0  0  0  0  0  0  0  0  0  0  0  0
   19.2555  -25.8728   42.0880 H   0  0  0  0  0  0  0  0  0  0  0  0
   20.3012  -26.2602   44.3055 H   0  0  0  0  0  0  0  0  0  0  0  0
   21.9241  -26.9577   45.5408 H   0  0  0  0  0  0  0  0  0  0  0  0
  1  2  1  0
  2  3  1  0
  3  4  2  0
  4  5  1  0
  5  6  1  0
  6  7  1  0
  7  8  1  0
  8  9  2  0
  9 10  1  0
 10 11  2  0
 11 12  1  0
 12 13  1  0
 12 14  2  0
 14 15  1  0
 15 16  2  0
 15 17  1  0
 17 18  1  0
  5 19  2  0
 19 20  1  0
 20 21  2  0
 21 22  1  0
 22 23  1  0
 22 24  1  0
 21  3  1  0
 17  6  2  0
 14  8  1  0
  1 25  1  0
  1 26  1  0
  1 27  1  0
  2 28  1  0
  2 29  1  0
  4 30  1  0
  9 31  1  0
 10 32  1  0
 11 33  1  0
 13 34  1  0
 18 35  1  0
 19 36  1  0
 20 37  1  0
 22 38  1  0
M  END
>  <meeko>  (9) 
{"is_sidechain": [false], "free_energy": -7.137, "intermolecular_energy": -8.698, "internal_energy": -0.46}

$$$$
