cand_048_out
     RDKit          3D

 37 39  0  0  0  0  0  0  0  0999 V2000
   19.6120  -24.0210   40.4110 C   0  0  0  0  0  0  0  0  0  0  0  0
   19.0010  -25.1010   40.9130 C   0  0  0  0  0  0  0  0  0  0  0  0
   19.0950  -26.4480   40.3220 C   0  0  0  0  0  0  0  0  0  0  0  0
   18.2370  -26.7950   39.2650 C   0  0  0  0  0  0  0  0  0  0  0  0
   18.3220  -28.0470   38.6500 C   0  0  0  0  0  0  0  0  0  0  0  0
   19.2730  -28.9840   39.0660 C   0  0  0  0  0  0  0  0  0  0  0  0
   19.3260  -30.3140   38.4250 C   0  0  0  0  0  0  0  0  0  0  0  0
   18.8760  -31.3340   39.2570 O   0  0  0  0  0  0  0  0  0  0  0  0
   18.8730  -32.6220   38.7850 C   0  0  0  0  0  0  0  0  0  0  0  0
   18.4290  -33.6150   39.6590 C   0  0  0  0  0  0  0  0  0  0  0  0
   18.3990  -34.9470   39.2420 C   0  0  0  0  0  0  0  0  0  0  0  0
   18.8110  -35.2850   37.9520 C   0  0  0  0  0  0  0  0  0  0  0  0
   19.2540  -34.2920   37.0820 C   0  0  0  0  0  0  0  0  0  0  0  0
   19.6420  -34.6930   35.8330 O   0  0  0  0  0  0  0  0  0  0  0  0
   19.2850  -32.9590   37.5000 C   0  0  0  0  0  0  0  0  0  0  0  0
   19.7430  -31.8850   36.6180 C   0  0  0  0  0  0  0  0  0  0  0  0
   20.1140  -32.1020   35.4660 O   0  0  0  0  0  0  0  0  0  0  0  0
   19.7440  -30.5070   37.1610 C   0  0  0  0  0  0  0  0  0  0  0  0
   20.1660  -29.4970   36.3150 O   0  0  0  0  0  0  0  0  0  0  0  0
   20.1310  -28.6400   40.1220 C   0  0  0  0  0  0  0  0  0  0  0  0
   20.0700  -27.3780   40.7430 C   0  0  0  0  0  0  0  0  0  0  0  0
   20.9780  -27.0860   41.8680 C   0  0  0  0  0  0  0  0  0  0  0  0
   22.2050  -27.6110   41.9870 C   0  0  0  0  0  0  0  0  0  0  0  0
   19.4976  -23.0449   40.9051 H   0  0  0  0  0  0  0  0  0  0  0  0
   20.2285  -24.1096   39.5043 H   0  0  0  0  0  0  0  0  0  0  0  0
   18.3924  -24.9758   41.8207 H   0  0  0  0  0  0  0  0  0  0  0  0
   17.4868  -26.0701   38.9161 H   0  0  0  0  0  0  0  0  0  0  0  0
   17.6334  -28.2981   37.8298 H   0  0  0  0  0  0  0  0  0  0  0  0
   18.1030  -33.3486   40.6753 H   0  0  0  0  0  0  0  0  0  0  0  0
   18.0504  -35.7307   39.9306 H   0  0  0  0  0  0  0  0  0  0  0  0
   18.7858  -36.3343   37.6230 H   0  0  0  0  0  0  0  0  0  0  0  0
   19.1310  -35.3210   35.3620 H   0  0  0  0  0  0  0  0  0  0  0  0
   20.6520  -29.7060   35.5420 H   0  0  0  0  0  0  0  0  0  0  0  0
   20.8700  -29.3751   40.4734 H   0  0  0  0  0  0  0  0  0  0  0  0
   20.6285  -26.3991   42.6529 H   0  0  0  0  0  0  0  0  0  0  0  0
   22.8327  -27.3516   42.8523 H   0  0  0  0  0  0  0  0  0  0  0  0
   22.5847  -28.3014   41.2194 H   0  0  0  0  0  0  0  0  0  0  0  0
  1  2  2  0
  2  3  1  0
  3  4  2  0
  4  5  1  0
  5  6  2  0
  6  7  1  0
  7  8  1  0
  8  9  1  0
  9 10  2  0
 10 11  1  0
 11 12  2  0
 12 13  1  0
 13 14  1  0
 13 15  2  0
 15 16  1  0
 16 17  2  0
 16 18  1  0
 18 19  1  0
  6 20  1  0
 20 21  2  0
 21 22  1  0
 22 23  2  0
 21  3  1  0
 18  7  2  0
 15  9  1  0
  1 24  1  0
  1 25  1  0
  2 26  1  0
  4 27  1  0
  5 28  1  0
 10 29  1  0
 11 30  1  0
 12 31  1  0
 14 32  1  0
 19 33  1  0
 20 34  1  0
 22 35  1  0
 23 36  1  0
 23 37  1  0
M  END
>  <meeko>  (1) 
{"is_sidechain": [false], "free_energy": -7.99, "intermolecular_energy": -9.859, "internal_energy": -0.557}

$$$$
cand_048_out
     RDKit          3D

 37 39  0  0  0  0  0  0  0  0999 V2000
   19.7540  -33.5010   34.3250 C   0  0  0  0  0  0  0  0  0  0  0  0
   19.7270  -33.5870   35.6610 C   0  0  0  0  0  0  0  0  0  0  0  0
   19.6060  -32.4240   36.5570 C   0  0  0  0  0  0  0  0  0  0  0  0
   20.0780  -31.1730   36.1250 C   0  0  0  0  0  0  0  0  0  0  0  0
   19.9450  -30.0380   36.9290 C   0  0  0  0  0  0  0  0  0  0  0  0
   19.3280  -30.1160   38.1810 C   0  0  0  0  0  0  0  0  0  0  0  0
   19.2270  -28.9110   39.0290 C   0  0  0  0  0  0  0  0  0  0  0  0
   20.1520  -28.8990   40.0660 O   0  0  0  0  0  0  0  0  0  0  0  0
   20.1660  -27.8350   40.9310 C   0  0  0  0  0  0  0  0  0  0  0  0
   21.1000  -27.8730   41.9670 C   0  0  0  0  0  0  0  0  0  0  0  0
   21.1690  -26.8210   42.8820 C   0  0  0  0  0  0  0  0  0  0  0  0
   20.3050  -25.7310   42.7610 C   0  0  0  0  0  0  0  0  0  0  0  0
   19.3730  -25.6960   41.7270 C   0  0  0  0  0  0  0  0  0  0  0  0
   18.5580  -24.5990   41.6670 O   0  0  0  0  0  0  0  0  0  0  0  0
   19.3040  -26.7500   40.8110 C   0  0  0  0  0  0  0  0  0  0  0  0
   18.3400  -26.7520   39.7100 C   0  0  0  0  0  0  0  0  0  0  0  0
   17.5520  -25.8260   39.5330 O   0  0  0  0  0  0  0  0  0  0  0  0
   18.3440  -27.9210   38.8000 C   0  0  0  0  0  0  0  0  0  0  0  0
   17.4390  -27.9080   37.7550 O   0  0  0  0  0  0  0  0  0  0  0  0
   18.8560  -31.3640   38.6140 C   0  0  0  0  0  0  0  0  0  0  0  0
   18.9680  -32.5170   37.8130 C   0  0  0  0  0  0  0  0  0  0  0  0
   18.4800  -33.8060   38.3360 C   0  0  0  0  0  0  0  0  0  0  0  0
   18.5650  -34.1650   39.6240 C   0  0  0  0  0  0  0  0  0  0  0  0
   19.8465  -34.4130   33.7169 H   0  0  0  0  0  0  0  0  0  0  0  0
   19.6837  -32.5184   33.8356 H   0  0  0  0  0  0  0  0  0  0  0  0
   19.7995  -34.5856   36.1166 H   0  0  0  0  0  0  0  0  0  0  0  0
   20.5591  -31.0859   35.1396 H   0  0  0  0  0  0  0  0  0  0  0  0
   20.3305  -29.0714   36.5725 H   0  0  0  0  0  0  0  0  0  0  0  0
   21.7814  -28.7312   42.0626 H   0  0  0  0  0  0  0  0  0  0  0  0
   21.9048  -26.8509   43.6991 H   0  0  0  0  0  0  0  0  0  0  0  0
   20.3604  -24.9014   43.4812 H   0  0  0  0  0  0  0  0  0  0  0  0
   17.6310  -24.7070   41.5810 H   0  0  0  0  0  0  0  0  0  0  0  0
   17.7460  -27.8680   36.8710 H   0  0  0  0  0  0  0  0  0  0  0  0
   18.3860  -31.4442   39.6053 H   0  0  0  0  0  0  0  0  0  0  0  0
   18.0204  -34.5126   37.6293 H   0  0  0  0  0  0  0  0  0  0  0  0
   18.1807  -35.1432   39.9488 H   0  0  0  0  0  0  0  0  0  0  0  0
   19.0190  -33.4816   40.3566 H   0  0  0  0  0  0  0  0  0  0  0  0
  1  2  2  0
  2  3  1  0
  3  4  2  0
  4  5  1  0
  5  6  2  0
  6  7  1  0
  7  8  1  0
  8  9  1  0
  9 10  2  0
 10 11  1  0
 11 12  2  0
 12 13  1  0
 13 14  1  0
 13 15  2  0
 15 16  1  0
 16 17  2  0
 16 18  1  0
 18 19  1  0
  6 20  1  0
 20 21  2  0
 21 22  1  0
 22 23  2  0
 21  3  1  0
 18  7  2  0
 15  9  1  0
  1 24  1  0
  1 25  1  0
  2 26  1  0
  4 27  1  0
  5 28  1  0
 10 29  1  0
 11 30  1  0
 12 31  1  0
 14 32  1  0
 19 33  1  0
 20 34  1  0
 22 35  1  0
 23 36  1  0
 23 37  1  0
M  END
>  <meeko>  (2) 
{"is_sidechain": [false], "free_energy": -7.621, "intermolecular_energy": -9.372, "internal_energy": -0.588}

$$$$
cand_048_out
     RDKit          3D

 37 39  0  0  0  0  0  0  0  0999 V2000
   18.8980  -34.8220   36.4730 C   0  0  0  0  0  0  0  0  0  0  0  0
   19.5930  -33.7210   36.1620 C   0  0  0  0  0  0  0  0  0  0  0  0
   19.4900  -32.4480   36.8990 C   0  0  0  0  0  0  0  0  0  0  0  0
   18.9810  -32.4530   38.2080 C   0  0  0  0  0  0  0  0  0  0  0  0
   18.9040  -31.2750   38.9550 C   0  0  0  0  0  0  0  0  0  0  0  0
   19.3450  -30.0600   38.4200 C   0  0  0  0  0  0  0  0  0  0  0  0
   19.2250  -28.8200   39.2130 C   0  0  0  0  0  0  0  0  0  0  0  0
   20.1390  -28.7560   40.2590 O   0  0  0  0  0  0  0  0  0  0  0  0
   20.1350  -27.6550   41.0780 C   0  0  0  0  0  0  0  0  0  0  0  0
   21.0580  -27.6410   42.1240 C   0  0  0  0  0  0  0  0  0  0  0  0
   21.1080  -26.5490   42.9930 C   0  0  0  0  0  0  0  0  0  0  0  0
   20.2370  -25.4720   42.8150 C   0  0  0  0  0  0  0  0  0  0  0  0
   19.3170  -25.4890   41.7700 C   0  0  0  0  0  0  0  0  0  0  0  0
   18.4950  -24.4030   41.6540 O   0  0  0  0  0  0  0  0  0  0  0  0
   19.2660  -26.5830   40.9010 C   0  0  0  0  0  0  0  0  0  0  0  0
   18.3150  -26.6400   39.7910 C   0  0  0  0  0  0  0  0  0  0  0  0
   17.5220  -25.7290   39.5640 O   0  0  0  0  0  0  0  0  0  0  0  0
   18.3370  -27.8480   38.9320 C   0  0  0  0  0  0  0  0  0  0  0  0
   17.4440  -27.8870   37.8780 O   0  0  0  0  0  0  0  0  0  0  0  0
   19.8540  -30.0530   37.1130 C   0  0  0  0  0  0  0  0  0  0  0  0
   19.9520  -31.2330   36.3500 C   0  0  0  0  0  0  0  0  0  0  0  0
   20.4680  -31.1560   34.9710 C   0  0  0  0  0  0  0  0  0  0  0  0
   20.3990  -30.0540   34.2120 C   0  0  0  0  0  0  0  0  0  0  0  0
   19.0249  -35.7388   35.8785 H   0  0  0  0  0  0  0  0  0  0  0  0
   18.2000  -34.8100   37.3231 H   0  0  0  0  0  0  0  0  0  0  0  0
   20.2819  -33.7688   35.3058 H   0  0  0  0  0  0  0  0  0  0  0  0
   18.6377  -33.3991   38.6519 H   0  0  0  0  0  0  0  0  0  0  0  0
   18.4922  -31.3031   39.9746 H   0  0  0  0  0  0  0  0  0  0  0  0
   21.7451  -28.4885   42.2640 H   0  0  0  0  0  0  0  0  0  0  0  0
   21.8345  -26.5371   43.8189 H   0  0  0  0  0  0  0  0  0  0  0  0
   20.2777  -24.6117   43.4992 H   0  0  0  0  0  0  0  0  0  0  0  0
   18.8370  -23.5400   41.7810 H   0  0  0  0  0  0  0  0  0  0  0  0
   16.5940  -28.2610   37.9980 H   0  0  0  0  0  0  0  0  0  0  0  0
   20.1853  -29.1011   36.6723 H   0  0  0  0  0  0  0  0  0  0  0  0
   20.9360  -32.0539   34.5411 H   0  0  0  0  0  0  0  0  0  0  0  0
   20.8041  -30.0643   33.1894 H   0  0  0  0  0  0  0  0  0  0  0  0
   19.9373  -29.1390   34.6115 H   0  0  0  0  0  0  0  0  0  0  0  0
  1  2  2  0
  2  3  1  0
  3  4  2  0
  4  5  1  0
  5  6  2  0
  6  7  1  0
  7  8  1  0
  8  9  1  0
  9 10  2  0
 10 11  1  0
 11 12  2  0
 12 13  1  0
 13 14  1  0
 13 15  2  0
 15 16  1  0
 16 17  2  0
 16 18  1  0
 18 19  1  0
  6 20  1  0
 20 21  2  0
 21 22  1  0
 22 23  2  0
 21  3  1  0
 18  7  2  0
 15  9  1  0
  1 24  1  0
  1 25  1  0
  2 26  1  0
  4 27  1  0
  5 28  1  0
 10 29  1  0
 11 30  1  0
 12 31  1  0
 14 32  1  0
 19 33  1  0
 20 34  1  0
 22 35  1  0
 23 36  1  0
 23 37  1  0
M  END
>  <meeko>  (3) 
{"is_sidechain": [false], "free_energy": -7.575, "intermolecular_energy": -9.349, "internal_energy": -0.555}

$$$$
cand_048_out
     RDKit          3D

 37 39  0  0  0  0  0  0  0  0999 V2000
   19.4120  -24.3860   41.8040 C   0  0  0  0  0  0  0  0  0  0  0  0
   19.4480  -24.6210   40.4860 C   0  0  0  0  0  0  0  0  0  0  0  0
   19.4430  -25.9700   39.8920 C   0  0  0  0  0  0  0  0  0  0  0  0
   20.1200  -27.0110   40.5480 C   0  0  0  0  0  0  0  0  0  0  0  0
   20.1040  -28.3120   40.0390 C   0  0  0  0  0  0  0  0  0  0  0  0
   19.4040  -28.6120   38.8670 C   0  0  0  0  0  0  0  0  0  0  0  0
   19.4270  -29.9880   38.3270 C   0  0  0  0  0  0  0  0  0  0  0  0
   18.9980  -30.9370   39.2470 O   0  0  0  0  0  0  0  0  0  0  0  0
   18.9710  -32.2570   38.8740 C   0  0  0  0  0  0  0  0  0  0  0  0
   18.5490  -33.1780   39.8340 C   0  0  0  0  0  0  0  0  0  0  0  0
   18.4970  -34.5370   39.5200 C   0  0  0  0  0  0  0  0  0  0  0  0
   18.8650  -34.9750   38.2460 C   0  0  0  0  0  0  0  0  0  0  0  0
   19.2870  -34.0550   37.2900 C   0  0  0  0  0  0  0  0  0  0  0  0
   19.6330  -34.5520   36.0650 O   0  0  0  0  0  0  0  0  0  0  0  0
   19.3400  -32.6940   37.6060 C   0  0  0  0  0  0  0  0  0  0  0  0
   19.7770  -31.6940   36.6310 C   0  0  0  0  0  0  0  0  0  0  0  0
   20.1100  -32.0000   35.4880 O   0  0  0  0  0  0  0  0  0  0  0  0
   19.8050  -30.2780   37.0680 C   0  0  0  0  0  0  0  0  0  0  0  0
   20.2050  -29.3390   36.1360 O   0  0  0  0  0  0  0  0  0  0  0  0
   18.7270  -27.5740   38.2100 C   0  0  0  0  0  0  0  0  0  0  0  0
   18.7190  -26.2600   38.7160 C   0  0  0  0  0  0  0  0  0  0  0  0
   18.0150  -25.2050   37.9640 C   0  0  0  0  0  0  0  0  0  0  0  0
   18.4820  -24.6600   36.8330 C   0  0  0  0  0  0  0  0  0  0  0  0
   19.4183  -23.3518   42.1786 H   0  0  0  0  0  0  0  0  0  0  0  0
   19.3761  -25.2272   42.5119 H   0  0  0  0  0  0  0  0  0  0  0  0
   19.4834  -23.7564   39.8068 H   0  0  0  0  0  0  0  0  0  0  0  0
   20.6709  -26.7989   41.4762 H   0  0  0  0  0  0  0  0  0  0  0  0
   20.6484  -29.1091   40.5665 H   0  0  0  0  0  0  0  0  0  0  0  0
   18.2577  -32.8332   40.8371 H   0  0  0  0  0  0  0  0  0  0  0  0
   18.1659  -35.2636   40.2766 H   0  0  0  0  0  0  0  0  0  0  0  0
   18.8215  -36.0458   37.9981 H   0  0  0  0  0  0  0  0  0  0  0  0
   20.4930  -34.4050   35.7240 H   0  0  0  0  0  0  0  0  0  0  0  0
   20.8130  -29.5770   35.4640 H   0  0  0  0  0  0  0  0  0  0  0  0
   18.1887  -27.7920   37.2758 H   0  0  0  0  0  0  0  0  0  0  0  0
   17.0515  -24.8450   38.3540 H   0  0  0  0  0  0  0  0  0  0  0  0
   17.9051  -23.8754   36.3215 H   0  0  0  0  0  0  0  0  0  0  0  0
   19.4424  -24.9970   36.4158 H   0  0  0  0  0  0  0  0  0  0  0  0
  1  2  2  0
  2  3  1  0
  3  4  2  0
  4  5  1  0
  5  6  2  0
  6  7  1  0
  7  8  1  0
  8  9  1  0
  9 10  2  0
 10 11  1  0
 11 12  2  0
 12 13  1  0
 13 14  1  0
 13 15  2  0
 15 16  1  0
 16 17  2  0
 16 18  1  0
 18 19  1  0
  6 20  1  0
 20 21  2  0
 21 22  1  0
 22 23  2  0
 21  3  1  0
 18  7  2  0
 15  9  1  0
  1 24  1  0
  1 25  1  0
  2 26  1  0
  4 27  1  0
  5 28  1  0
 10 29  1  0
 11 30  1  0
 12 31  1  0
 14 32  1  0
 19 33  1  0
 20 34  1  0
 22 35  1  0
 23 36  1  0
 23 37  1  0
M  END
>  <meeko>  (4) 
{"is_sidechain": [false], "free_energy": -7.243, "intermolecular_energy": -9.08, "internal_energy": -0.414}

$$$$
cand_048_out
     RDKit          3D

 37 39  0  0  0  0  0  0  0  0999 V2000
   19.4770  -23.8110   41.2310 C   0  0  0  0  0  0  0  0  0  0  0  0
   19.0580  -25.0390   41.5600 C   0  0  0  0  0  0  0  0  0  0  0  0
   19.2170  -26.2210   40.6940 C   0  0  0  0  0  0  0  0  0  0  0  0
   18.4330  -26.3310   39.5340 C   0  0  0  0  0  0  0  0  0  0  0  0
   18.5820  -27.4160   38.6660 C   0  0  0  0  0  0  0  0  0  0  0  0
   19.5250  -28.4150   38.9250 C   0  0  0  0  0  0  0  0  0  0  0  0
   19.6450  -29.5700   38.0120 C   0  0  0  0  0  0  0  0  0  0  0  0
   19.9330  -29.1990   36.7040 O   0  0  0  0  0  0  0  0  0  0  0  0
   20.0690  -30.1760   35.7510 C   0  0  0  0  0  0  0  0  0  0  0  0
   20.3420  -29.7570   34.4480 C   0  0  0  0  0  0  0  0  0  0  0  0
   20.4940  -30.7010   33.4310 C   0  0  0  0  0  0  0  0  0  0  0  0
   20.3750  -32.0620   33.7160 C   0  0  0  0  0  0  0  0  0  0  0  0
   20.1020  -32.4780   35.0160 C   0  0  0  0  0  0  0  0  0  0  0  0
   19.9990  -33.8250   35.2250 O   0  0  0  0  0  0  0  0  0  0  0  0
   19.9490  -31.5330   36.0350 C   0  0  0  0  0  0  0  0  0  0  0  0
   19.6620  -31.9270   37.4140 C   0  0  0  0  0  0  0  0  0  0  0  0
   19.5500  -33.1050   37.7450 O   0  0  0  0  0  0  0  0  0  0  0  0
   19.5100  -30.8470   38.4170 C   0  0  0  0  0  0  0  0  0  0  0  0
   19.2530  -31.2290   39.7210 O   0  0  0  0  0  0  0  0  0  0  0  0
   20.3100  -28.3070   40.0830 C   0  0  0  0  0  0  0  0  0  0  0  0
   20.1840  -27.2140   40.9620 C   0  0  0  0  0  0  0  0  0  0  0  0
   21.0160  -27.1720   42.1790 C   0  0  0  0  0  0  0  0  0  0  0  0
   22.3060  -27.5300   42.2100 C   0  0  0  0  0  0  0  0  0  0  0  0
   19.3251  -22.9731   41.9273 H   0  0  0  0  0  0  0  0  0  0  0  0
   19.9732  -23.6398   40.2643 H   0  0  0  0  0  0  0  0  0  0  0  0
   18.5658  -25.1740   42.5345 H   0  0  0  0  0  0  0  0  0  0  0  0
   17.6909  -25.5519   39.3054 H   0  0  0  0  0  0  0  0  0  0  0  0
   17.9499  -27.4848   37.7684 H   0  0  0  0  0  0  0  0  0  0  0  0
   20.4372  -28.6845   34.2228 H   0  0  0  0  0  0  0  0  0  0  0  0
   20.7079  -30.3717   32.4035 H   0  0  0  0  0  0  0  0  0  0  0  0
   20.4968  -32.8052   32.9142 H   0  0  0  0  0  0  0  0  0  0  0  0
   19.7330  -34.1510   36.0620 H   0  0  0  0  0  0  0  0  0  0  0  0
   19.8670  -31.7660   40.1810 H   0  0  0  0  0  0  0  0  0  0  0  0
   21.0422  -29.0959   40.3099 H   0  0  0  0  0  0  0  0  0  0  0  0
   20.5506  -26.8271   43.1141 H   0  0  0  0  0  0  0  0  0  0  0  0
   22.8697  -27.4745   43.1530 H   0  0  0  0  0  0  0  0  0  0  0  0
   22.8020  -27.8795   41.2925 H   0  0  0  0  0  0  0  0  0  0  0  0
  1  2  2  0
  2  3  1  0
  3  4  2  0
  4  5  1  0
  5  6  2  0
  6  7  1  0
  7  8  1  0
  8  9  1  0
  9 10  2  0
 10 11  1  0
 11 12  2  0
 12 13  1  0
 13 14  1  0
 13 15  2  0
 15 16  1  0
 16 17  2  0
 16 18  1  0
 18 19  1  0
  6 20  1  0
 20 21  2  0
 21 22  1  0
 22 23  2  0
 21  3  1  0
 18  7  2  0
 15  9  1  0
  1 24  1  0
  1 25  1  0
  2 26  1  0
  4 27  1  0
  5 28  1  0
 10 29  1  0
 11 30  1  0
 12 31  1  0
 14 32  1  0
 19 33  1  0
 20 34  1  0
 22 35  1  0
 23 36  1  0
 23 37  1  0
M  END
>  <meeko>  (5) 
{"is_sidechain": [false], "free_energy": -7.052, "intermolecular_energy": -8.805, "internal_energy": -0.453}

$$$$
cand_048_out
     RDKit          3D

 37 39  0  0  0  0  0  0  0  0999 V2000
   18.4750  -27.6060   35.3360 C   0  0  0  0  0  0  0  0  0  0  0  0
   18.0050  -27.2090   36.5250 C   0  0  0  0  0  0  0  0  0  0  0  0
   18.8120  -27.1810   37.7590 C   0  0  0  0  0  0  0  0  0  0  0  0
   18.9100  -28.3430   38.5410 C   0  0  0  0  0  0  0  0  0  0  0  0
   19.6960  -28.3690   39.6950 C   0  0  0  0  0  0  0  0  0  0  0  0
   20.4150  -27.2390   40.0960 C   0  0  0  0  0  0  0  0  0  0  0  0
   21.2150  -27.2770   41.3370 C   0  0  0  0  0  0  0  0  0  0  0  0
   22.2120  -28.2450   41.3100 O   0  0  0  0  0  0  0  0  0  0  0  0
   23.0280  -28.3880   42.4030 C   0  0  0  0  0  0  0  0  0  0  0  0
   24.0050  -29.3830   42.3380 C   0  0  0  0  0  0  0  0  0  0  0  0
   24.8700  -29.5810   43.4160 C   0  0  0  0  0  0  0  0  0  0  0  0
   24.7610  -28.7830   44.5560 C   0  0  0  0  0  0  0  0  0  0  0  0
   23.7860  -27.7910   44.6180 C   0  0  0  0  0  0  0  0  0  0  0  0
   23.7350  -27.0460   45.7640 O   0  0  0  0  0  0  0  0  0  0  0  0
   22.9190  -27.5940   43.5400 C   0  0  0  0  0  0  0  0  0  0  0  0
   21.8810  -26.5630   43.5640 C   0  0  0  0  0  0  0  0  0  0  0  0
   21.7260  -25.8170   44.5280 O   0  0  0  0  0  0  0  0  0  0  0  0
   21.0080  -26.4420   42.3720 C   0  0  0  0  0  0  0  0  0  0  0  0
   20.0400  -25.4560   42.3990 O   0  0  0  0  0  0  0  0  0  0  0  0
   20.3190  -26.0770   39.3160 C   0  0  0  0  0  0  0  0  0  0  0  0
   19.5430  -26.0360   38.1410 C   0  0  0  0  0  0  0  0  0  0  0  0
   19.4570  -24.7760   37.3810 C   0  0  0  0  0  0  0  0  0  0  0  0
   19.3700  -23.5670   37.9520 C   0  0  0  0  0  0  0  0  0  0  0  0
   17.8164  -27.6016   34.4549 H   0  0  0  0  0  0  0  0  0  0  0  0
   19.5197  -27.9366   35.2401 H   0  0  0  0  0  0  0  0  0  0  0  0
   16.9556  -26.8847   36.5850 H   0  0  0  0  0  0  0  0  0  0  0  0
   18.3594  -29.2465   38.2401 H   0  0  0  0  0  0  0  0  0  0  0  0
   19.7500  -29.2891   40.2954 H   0  0  0  0  0  0  0  0  0  0  0  0
   24.0933  -30.0102   41.4387 H   0  0  0  0  0  0  0  0  0  0  0  0
   25.6382  -30.3667   43.3668 H   0  0  0  0  0  0  0  0  0  0  0  0
   25.4443  -28.9376   45.4041 H   0  0  0  0  0  0  0  0  0  0  0  0
   22.9520  -27.0300   46.2790 H   0  0  0  0  0  0  0  0  0  0  0  0
   20.2880  -24.5580   42.5000 H   0  0  0  0  0  0  0  0  0  0  0  0
   20.8638  -25.1744   39.6300 H   0  0  0  0  0  0  0  0  0  0  0  0
   19.4647  -24.8314   36.2824 H   0  0  0  0  0  0  0  0  0  0  0  0
   19.3088  -22.6655   37.3246 H   0  0  0  0  0  0  0  0  0  0  0  0
   19.3598  -23.4759   39.0482 H   0  0  0  0  0  0  0  0  0  0  0  0
  1  2  2  0
  2  3  1  0
  3  4  2  0
  4  5  1  0
  5  6  2  0
  6  7  1  0
  7  8  1  0
  8  9  1  0
  9 10  2  0
 10 11  1  0
 11 12  2  0
 12 13  1  0
 13 14  1  0
 13 15  2  0
 15 16  1  0
 16 17  2  0
 16 18  1  0
 18 19  1  0
  6 20  1  0
 20 21  2  0
 21 22  1  0
 22 23  2  0
 21  3  1  0
 18  7  2  0
 15  9  1  0
  1 24  1  0
  1 25  1  0
  2 26  1  0
  4 27  1  0
  5 28  1  0
 10 29  1  0
 11 30  1  0
 12 31  1  0
 14 32  1  0
 19 33  1  0
 20 34  1  0
 22 35  1  0
 23 36  1  0
 23 37  1  0
M  END
>  <meeko>  (6) 
{"is_sidechain": [false], "free_energy": -7.044, "intermolecular_energy": -8.808, "internal_energy": -0.44}

$$$$
cand_048_out
     RDKit          3D

 37 39  0  0  0  0  0  0  0  0999 V2000
   25.2920  -29.3950   44.2870 C   0  0  0  0  0  0  0  0  0  0  0  0
   24.3920  -28.4450   44.5710 C   0  0  0  0  0  0  0  0  0  0  0  0
   23.4030  -27.9350   43.6060 C   0  0  0  0  0  0  0  0  0  0  0  0
   23.3960  -28.4450   42.2970 C   0  0  0  0  0  0  0  0  0  0  0  0
   22.4490  -28.0160   41.3630 C   0  0  0  0  0  0  0  0  0  0  0  0
   21.4760  -27.0750   41.7120 C   0  0  0  0  0  0  0  0  0  0  0  0
   20.5030  -26.6110   40.7010 C   0  0  0  0  0  0  0  0  0  0  0  0
   20.4140  -25.2260   40.6330 O   0  0  0  0  0  0  0  0  0  0  0  0
   19.5450  -24.6610   39.7340 C   0  0  0  0  0  0  0  0  0  0  0  0
   19.4750  -23.2680   39.7100 C   0  0  0  0  0  0  0  0  0  0  0  0
   18.6120  -22.6280   38.8180 C   0  0  0  0  0  0  0  0  0  0  0  0
   17.8210  -23.3820   37.9490 C   0  0  0  0  0  0  0  0  0  0  0  0
   17.8920  -24.7720   37.9750 C   0  0  0  0  0  0  0  0  0  0  0  0
   17.0900  -25.4480   37.0970 O   0  0  0  0  0  0  0  0  0  0  0  0
   18.7550  -25.4120   38.8690 C   0  0  0  0  0  0  0  0  0  0  0  0
   18.8600  -26.8700   38.9280 C   0  0  0  0  0  0  0  0  0  0  0  0
   18.2020  -27.6010   38.1910 O   0  0  0  0  0  0  0  0  0  0  0  0
   19.8000  -27.4490   39.9170 C   0  0  0  0  0  0  0  0  0  0  0  0
   19.9030  -28.8270   39.9560 O   0  0  0  0  0  0  0  0  0  0  0  0
   21.4810  -26.5650   43.0190 C   0  0  0  0  0  0  0  0  0  0  0  0
   22.4180  -26.9950   43.9780 C   0  0  0  0  0  0  0  0  0  0  0  0
   22.3920  -26.3990   45.3260 C   0  0  0  0  0  0  0  0  0  0  0  0
   22.0370  -25.1300   45.5710 C   0  0  0  0  0  0  0  0  0  0  0  0
   26.0020  -29.7283   45.0583 H   0  0  0  0  0  0  0  0  0  0  0  0
   25.3214  -29.8421   43.2824 H   0  0  0  0  0  0  0  0  0  0  0  0
   24.3913  -28.0201   45.5856 H   0  0  0  0  0  0  0  0  0  0  0  0
   24.1470  -29.1930   42.0029 H   0  0  0  0  0  0  0  0  0  0  0  0
   22.4695  -28.4235   40.3415 H   0  0  0  0  0  0  0  0  0  0  0  0
   20.0994  -22.6739   40.3935 H   0  0  0  0  0  0  0  0  0  0  0  0
   18.5554  -21.5296   38.8000 H   0  0  0  0  0  0  0  0  0  0  0  0
   17.1426  -22.8783   37.2447 H   0  0  0  0  0  0  0  0  0  0  0  0
   17.1590  -26.3790   37.0200 H   0  0  0  0  0  0  0  0  0  0  0  0
   20.5120  -29.2670   39.3970 H   0  0  0  0  0  0  0  0  0  0  0  0
   20.7333  -25.8094   43.3020 H   0  0  0  0  0  0  0  0  0  0  0  0
   22.6801  -27.0313   46.1788 H   0  0  0  0  0  0  0  0  0  0  0  0
   22.0393  -24.7476   46.6024 H   0  0  0  0  0  0  0  0  0  0  0  0
   21.7433  -24.4709   44.7407 H   0  0  0  0  0  0  0  0  0  0  0  0
  1  2  2  0
  2  3  1  0
  3  4  2  0
  4  5  1  0
  5  6  2  0
  6  7  1  0
  7  8  1  0
  8  9  1  0
  9 10  2  0
 10 11  1  0
 11 12  2  0
 12 13  1  0
 13 14  1  0
 13 15  2  0
 15 16  1  0
 16 17  2  0
 16 18  1  0
 18 19  1  0
  6 20  1  0
 20 21  2  0
 21 22  1  0
 22 23  2  0
 21  3  1  0
 18  7  2  0
 15  9  1  0
  1 24  1  0
  1 25  1  0
  2 26  1  0
  4 27  1  0
  5 28  1  0
 10 29  1  0
 11 30  1  0
 12 31  1  0
 14 32  1  0
 19 33  1  0
 20 34  1  0
 22 35  1  0
 23 36  1  0
 23 37  1  0
M  END
>  <meeko>  (7) 
{"is_sidechain": [false], "free_energy": -6.984, "intermolecular_energy": -8.845, "internal_energy": -0.33}

$$$$
cand_048_out
     RDKit          3D

 37 39  0  0  0  0  0  0  0  0999 V2000
   19.0580  -34.8380   38.9110 C   0  0  0  0  0  0  0  0  0  0  0  0
   19.1600  -34.0170   37.8590 C   0  0  0  0  0  0  0  0  0  0  0  0
   19.2240  -32.5480   37.9660 C   0  0  0  0  0  0  0  0  0  0  0  0
   18.8950  -31.9350   39.1860 C   0  0  0  0  0  0  0  0  0  0  0  0
   18.9810  -30.5480   39.3400 C   0  0  0  0  0  0  0  0  0  0  0  0
   19.4100  -29.7370   38.2850 C   0  0  0  0  0  0  0  0  0  0  0  0
   19.4630  -28.2710   38.4580 C   0  0  0  0  0  0  0  0  0  0  0  0
   18.7670  -27.5830   37.4710 O   0  0  0  0  0  0  0  0  0  0  0  0
   18.7370  -26.2130   37.5130 C   0  0  0  0  0  0  0  0  0  0  0  0
   18.0400  -25.5630   36.4930 C   0  0  0  0  0  0  0  0  0  0  0  0
   17.9690  -24.1690   36.4760 C   0  0  0  0  0  0  0  0  0  0  0  0
   18.5930  -23.4250   37.4790 C   0  0  0  0  0  0  0  0  0  0  0  0
   19.2890  -24.0750   38.4960 C   0  0  0  0  0  0  0  0  0  0  0  0
   19.8760  -23.2860   39.4450 O   0  0  0  0  0  0  0  0  0  0  0  0
   19.3600  -25.4710   38.5110 C   0  0  0  0  0  0  0  0  0  0  0  0
   20.0800  -26.1930   39.5610 C   0  0  0  0  0  0  0  0  0  0  0  0
   20.6490  -25.6100   40.4810 O   0  0  0  0  0  0  0  0  0  0  0  0
   20.1030  -27.6730   39.4810 C   0  0  0  0  0  0  0  0  0  0  0  0
   20.7730  -28.3470   40.4840 O   0  0  0  0  0  0  0  0  0  0  0  0
   19.7400  -30.3480   37.0660 C   0  0  0  0  0  0  0  0  0  0  0  0
   19.6720  -31.7440   36.8960 C   0  0  0  0  0  0  0  0  0  0  0  0
   20.0030  -32.3240   35.5810 C   0  0  0  0  0  0  0  0  0  0  0  0
   20.4160  -31.6010   34.5330 C   0  0  0  0  0  0  0  0  0  0  0  0
   19.0150  -35.9263   38.7572 H   0  0  0  0  0  0  0  0  0  0  0  0
   19.0171  -34.4245   39.9295 H   0  0  0  0  0  0  0  0  0  0  0  0
   19.1984  -34.4648   36.8550 H   0  0  0  0  0  0  0  0  0  0  0  0
   18.5649  -32.5550   40.0326 H   0  0  0  0  0  0  0  0  0  0  0  0
   18.7081  -30.0897   40.3020 H   0  0  0  0  0  0  0  0  0  0  0  0
   17.5471  -26.1489   35.7032 H   0  0  0  0  0  0  0  0  0  0  0  0
   17.4210  -23.6564   35.6717 H   0  0  0  0  0  0  0  0  0  0  0  0
   18.5352  -22.3266   37.4664 H   0  0  0  0  0  0  0  0  0  0  0  0
   19.3450  -22.8120   40.0550 H   0  0  0  0  0  0  0  0  0  0  0  0
   20.5350  -28.2120   41.3800 H   0  0  0  0  0  0  0  0  0  0  0  0
   20.0601  -29.7203   36.2213 H   0  0  0  0  0  0  0  0  0  0  0  0
   19.9049  -33.4123   35.4543 H   0  0  0  0  0  0  0  0  0  0  0  0
   20.6466  -32.0975   33.5789 H   0  0  0  0  0  0  0  0  0  0  0  0
   20.5248  -30.5103   34.6258 H   0  0  0  0  0  0  0  0  0  0  0  0
  1  2  2  0
  2  3  1  0
  3  4  2  0
  4  5  1  0
  5  6  2  0
  6  7  1  0
  7  8  1  0
  8  9  1  0
  9 10  2  0
 10 11  1  0
 11 12  2  0
 12 13  1  0
 13 14  1  0
 13 15  2  0
 15 16  1  0
 16 17  2  0
 16 18  1  0
 18 19  1  0
  6 20  1  0
 20 21  2  0
 21 22  1  0
 22 23  2  0
 21  3  1  0
 18  7  2  0
 15  9  1  0
  1 24  1  0
  1 25  1  0
  2 26  1  0
  4 27  1  0
  5 28  1  0
 10 29  1  0
 11 30  1  0
 12 31  1  0
 14 32  1  0
 19 33  1  0
 20 34  1  0
 22 35  1  0
 23 36  1  0
 23 37  1  0
M  END
>  <meeko>  (8) 
{"is_sidechain": [false], "free_energy": -6.779, "intermolecular_energy": -8.56, "internal_energy": -0.362}

$$$$
cand_048_out
     RDKit          3D

 37 39  0  0  0  0  0  0  0  0999 V2000
   20.1740  -24.6650   49.0570 C   0  0  0  0  0  0  0  0  0  0  0  0
   20.3410  -23.7670   48.0780 C   0  0  0  0  0  0  0  0  0  0  0  0
   20.2820  -24.0960   46.6420 C   0  0  0  0  0  0  0  0  0  0  0  0
   21.3540  -24.7850   46.0520 C   0  0  0  0  0  0  0  0  0  0  0  0
   21.3190  -25.1510   44.7040 C   0  0  0  0  0  0  0  0  0  0  0  0
   20.2090  -24.8490   43.9100 C   0  0  0  0  0  0  0  0  0  0  0  0
   20.2050  -25.2150   42.4790 C   0  0  0  0  0  0  0  0  0  0  0  0
   19.8230  -24.1650   41.6520 O   0  0  0  0  0  0  0  0  0  0  0  0
   19.7760  -24.3710   40.2970 C   0  0  0  0  0  0  0  0  0  0  0  0
   19.3720  -23.2940   39.5060 C   0  0  0  0  0  0  0  0  0  0  0  0
   19.3030  -23.4360   38.1190 C   0  0  0  0  0  0  0  0  0  0  0  0
   19.6400  -24.6520   37.5230 C   0  0  0  0  0  0  0  0  0  0  0  0
   20.0420  -25.7250   38.3140 C   0  0  0  0  0  0  0  0  0  0  0  0
   20.3580  -26.8870   37.6650 O   0  0  0  0  0  0  0  0  0  0  0  0
   20.1100  -25.5830   39.7030 C   0  0  0  0  0  0  0  0  0  0  0  0
   20.5280  -26.6860   40.5700 C   0  0  0  0  0  0  0  0  0  0  0  0
   20.8460  -27.7840   40.1200 O   0  0  0  0  0  0  0  0  0  0  0  0
   20.5580  -26.4340   42.0300 C   0  0  0  0  0  0  0  0  0  0  0  0
   20.9670  -27.4760   42.8400 O   0  0  0  0  0  0  0  0  0  0  0  0
   19.1370  -24.1600   44.4980 C   0  0  0  0  0  0  0  0  0  0  0  0
   19.1480  -23.7960   45.8580 C   0  0  0  0  0  0  0  0  0  0  0  0
   18.0050  -23.0470   46.4100 C   0  0  0  0  0  0  0  0  0  0  0  0
   16.8630  -22.8350   45.7420 C   0  0  0  0  0  0  0  0  0  0  0  0
   20.2311  -24.3488   50.1090 H   0  0  0  0  0  0  0  0  0  0  0  0
   19.9797  -25.7190   48.8093 H   0  0  0  0  0  0  0  0  0  0  0  0
   20.5336  -22.7219   48.3619 H   0  0  0  0  0  0  0  0  0  0  0  0
   22.2343  -25.0404   46.6601 H   0  0  0  0  0  0  0  0  0  0  0  0
   22.1747  -25.6829   44.2626 H   0  0  0  0  0  0  0  0  0  0  0  0
   19.1083  -22.3346   39.9751 H   0  0  0  0  0  0  0  0  0  0  0  0
   18.9827  -22.5885   37.4952 H   0  0  0  0  0  0  0  0  0  0  0  0
   19.5881  -24.7626   36.4298 H   0  0  0  0  0  0  0  0  0  0  0  0
   20.6900  -26.8600   36.7890 H   0  0  0  0  0  0  0  0  0  0  0  0
   21.8660  -27.7410   42.8440 H   0  0  0  0  0  0  0  0  0  0  0  0
   18.2655  -23.8975   43.8802 H   0  0  0  0  0  0  0  0  0  0  0  0
   18.0945  -22.6391   47.4276 H   0  0  0  0  0  0  0  0  0  0  0  0
   16.0476  -22.2666   46.2132 H   0  0  0  0  0  0  0  0  0  0  0  0
   16.7409  -23.2293   44.7224 H   0  0  0  0  0  0  0  0  0  0  0  0
  1  2  2  0
  2  3  1  0
  3  4  2  0
  4  5  1  0
  5  6  2  0
  6  7  1  0
  7  8  1  0
  8  9  1  0
  9 10  2  0
 10 11  1  0
 11 12  2  0
 12 13  1  0
 13 14  1  0
 13 15  2  0
 15 16  1  0
 16 17  2  0
 16 18  1  0
 18 19  1  0
  6 20  1  0
 20 21  2  0
 21 22  1  0
 22 23  2  0
 21  3  1  0
 18  7  2  0
 15  9  1  0
  1 24  1  0
  1 25  1  0
  2 26  1  0
  4 27  1  0
  5 28  1  0
 10 29  1  0
 11 30  1  0
 12 31  1  0
 14 32  1  0
 19 33  1  0
 20 34  1  0
 22 35  1  0
 23 36  1  0
 23 37  1  0
M  END
>  <meeko>  (9) 
{"is_sidechain": [false], "free_energy": -6.503, "intermolecular_energy": -8.251, "internal_energy": -0.33}

$$$$
