cand_049_out
     RDKit          3D

 47 49  0  0  0  0  0  0  0  0999 V2000
   22.2620  -27.6170   41.8510 C   0  0  0  0  0  0  0  0  0  0  0  0
   20.8400  -27.1530   42.1400 C   0  0  0  0  0  0  0  0  0  0  0  0
   19.9270  -27.3680   40.9530 C   0  0  0  0  0  0  0  0  0  0  0  0
   19.9970  -28.6080   40.2850 C   0  0  0  0  0  0  0  0  0  0  0  0
   19.1620  -28.9170   39.2010 C   0  0  0  0  0  0  0  0  0  0  0  0
   19.2960  -30.2210   38.5160 C   0  0  0  0  0  0  0  0  0  0  0  0
   18.9030  -31.2910   39.3110 O   0  0  0  0  0  0  0  0  0  0  0  0
   18.9760  -32.5600   38.7980 C   0  0  0  0  0  0  0  0  0  0  0  0
   18.5860  -33.6060   39.6360 C   0  0  0  0  0  0  0  0  0  0  0  0
   18.6340  -34.9230   39.1750 C   0  0  0  0  0  0  0  0  0  0  0  0
   19.0710  -35.1950   37.8770 C   0  0  0  0  0  0  0  0  0  0  0  0
   19.4600  -34.1500   37.0430 C   0  0  0  0  0  0  0  0  0  0  0  0
   19.8770  -34.4870   35.7850 O   0  0  0  0  0  0  0  0  0  0  0  0
   19.4130  -32.8320   37.5050 C   0  0  0  0  0  0  0  0  0  0  0  0
   19.8130  -31.7050   36.6620 C   0  0  0  0  0  0  0  0  0  0  0  0
   20.2020  -31.8630   35.5060 O   0  0  0  0  0  0  0  0  0  0  0  0
   19.7320  -30.3470   37.2490 C   0  0  0  0  0  0  0  0  0  0  0  0
   20.0990  -29.2890   36.4370 O   0  0  0  0  0  0  0  0  0  0  0  0
   18.2460  -27.9520   38.7770 C   0  0  0  0  0  0  0  0  0  0  0  0
   18.1580  -26.7200   39.4290 C   0  0  0  0  0  0  0  0  0  0  0  0
   18.9900  -26.4090   40.5180 C   0  0  0  0  0  0  0  0  0  0  0  0
   18.8430  -25.0480   41.1670 C   0  0  0  0  0  0  0  0  0  0  0  0
   19.8120  -23.9830   40.6140 C   0  0  0  0  0  0  0  0  0  0  0  0
   19.3270  -23.3870   39.2900 C   0  0  0  0  0  0  0  0  0  0  0  0
   19.9910  -22.8640   41.6440 C   0  0  0  0  0  0  0  0  0  0  0  0
   22.7913  -27.7897   42.7997 H   0  0  0  0  0  0  0  0  0  0  0  0
   22.2321  -28.5520   41.2723 H   0  0  0  0  0  0  0  0  0  0  0  0
   22.7893  -26.8443   41.2723 H   0  0  0  0  0  0  0  0  0  0  0  0
   20.4481  -27.7191   42.9978 H   0  0  0  0  0  0  0  0  0  0  0  0
   20.8695  -26.0752   42.3580 H   0  0  0  0  0  0  0  0  0  0  0  0
   20.7288  -29.3558   40.6244 H   0  0  0  0  0  0  0  0  0  0  0  0
   18.2412  -33.3929   40.6586 H   0  0  0  0  0  0  0  0  0  0  0  0
   18.3271  -35.7475   39.8353 H   0  0  0  0  0  0  0  0  0  0  0  0
   19.1079  -36.2327   37.5140 H   0  0  0  0  0  0  0  0  0  0  0  0
   19.8130  -35.3750   35.4910 H   0  0  0  0  0  0  0  0  0  0  0  0
   20.9230  -29.3050   35.9900 H   0  0  0  0  0  0  0  0  0  0  0  0
   17.5877  -28.1641   37.9216 H   0  0  0  0  0  0  0  0  0  0  0  0
   17.4228  -25.9784   39.0832 H   0  0  0  0  0  0  0  0  0  0  0  0
   17.8133  -24.6966   41.0050 H   0  0  0  0  0  0  0  0  0  0  0  0
   19.0835  -25.1753   42.2328 H   0  0  0  0  0  0  0  0  0  0  0  0
   20.7733  -24.4816   40.4210 H   0  0  0  0  0  0  0  0  0  0  0  0
   18.6447  -22.5485   39.4934 H   0  0  0  0  0  0  0  0  0  0  0  0
   20.1905  -23.0252   38.7126 H   0  0  0  0  0  0  0  0  0  0  0  0
   18.7973  -24.1590   38.7126 H   0  0  0  0  0  0  0  0  0  0  0  0
   19.9237  -23.2849   42.6581 H   0  0  0  0  0  0  0  0  0  0  0  0
   20.9758  -22.3935   41.5069 H   0  0  0  0  0  0  0  0  0  0  0  0
   19.2021  -22.1098   41.5069 H   0  0  0  0  0  0  0  0  0  0  0  0
  1  2  1  0
  2  3  1  0
  3  4  2  0
  4  5  1  0
  5  6  1  0
  6  7  1  0
  7  8  1  0
  8  9  2  0
  9 10  1  0
 10 11  2  0
 11 12  1  0
 12 13  1  0
 12 14  2  0
 14 15  1  0
 15 16  2  0
 15 17  1  0
 17 18  1  0
  5 19  2  0
 19 20  1  0
 20 21  2  0
 21 22  1  0
 22 23  1  0
 23 24  1  0
 23 25  1  0
 21  3  1  0
 17  6  2  0
 14  8  1  0
  1 26  1  0
  1 27  1  0
  1 28  1  0
  2 29  1  0
  2 30  1  0
  4 31  1  0
  9 32  1  0
 10 33  1  0
 11 34  1  0
 13 35  1  0
 18 36  1  0
 19 37  1  0
 20 38  1  0
 22 39  1  0
 22 40  1  0
 23 41  1  0
 24 42  1  0
 24 43  1  0
 24 44  1  0
 25 45  1  0
 25 46  1  0
 25 47  1  0
M  END
>  <meeko>  (1) 
{"is_sidechain": [false], "free_energy": -8.01, "intermolecular_energy": -10.352, "internal_energy": -0.771}

$$$$
cand_049_out
     RDKit          3D

 47 49  0  0  0  0  0  0  0  0999 V2000
   22.2610  -27.6120   41.8820 C   0  0  0  0  0  0  0  0  0  0  0  0
   20.8140  -27.2240   42.1580 C   0  0  0  0  0  0  0  0  0  0  0  0
   19.9820  -27.2200   40.8950 C   0  0  0  0  0  0  0  0  0  0  0  0
   20.0920  -28.3290   40.0310 C   0  0  0  0  0  0  0  0  0  0  0  0
   19.3310  -28.4350   38.8570 C   0  0  0  0  0  0  0  0  0  0  0  0
   19.5060  -29.6050   37.9690 C   0  0  0  0  0  0  0  0  0  0  0  0
   19.8160  -29.2480   36.6620 O   0  0  0  0  0  0  0  0  0  0  0  0
   20.0040  -30.2370   35.7310 C   0  0  0  0  0  0  0  0  0  0  0  0
   20.3000  -29.8340   34.4290 C   0  0  0  0  0  0  0  0  0  0  0  0
   20.5060  -30.7910   33.4330 C   0  0  0  0  0  0  0  0  0  0  0  0
   20.4170  -32.1500   33.7390 C   0  0  0  0  0  0  0  0  0  0  0  0
   20.1220  -32.5510   35.0400 C   0  0  0  0  0  0  0  0  0  0  0  0
   20.0510  -33.8970   35.2710 O   0  0  0  0  0  0  0  0  0  0  0  0
   19.9160  -31.5920   36.0360 C   0  0  0  0  0  0  0  0  0  0  0  0
   19.6040  -31.9690   37.4160 C   0  0  0  0  0  0  0  0  0  0  0  0
   19.5160  -33.1450   37.7650 O   0  0  0  0  0  0  0  0  0  0  0  0
   19.3960  -30.8770   38.3940 C   0  0  0  0  0  0  0  0  0  0  0  0
   19.1150  -31.2460   39.6970 O   0  0  0  0  0  0  0  0  0  0  0  0
   18.4500  -27.3980   38.5450 C   0  0  0  0  0  0  0  0  0  0  0  0
   18.3230  -26.2940   39.3910 C   0  0  0  0  0  0  0  0  0  0  0  0
   19.0810  -26.1860   40.5700 C   0  0  0  0  0  0  0  0  0  0  0  0
   18.8950  -24.9530   41.4310 C   0  0  0  0  0  0  0  0  0  0  0  0
   19.7990  -23.7690   41.0310 C   0  0  0  0  0  0  0  0  0  0  0  0
   19.2810  -23.0360   39.7910 C   0  0  0  0  0  0  0  0  0  0  0  0
   19.9070  -22.7850   42.2000 C   0  0  0  0  0  0  0  0  0  0  0  0
   22.7908  -27.7541   42.8355 H   0  0  0  0  0  0  0  0  0  0  0  0
   22.2859  -28.5486   41.3056 H   0  0  0  0  0  0  0  0  0  0  0  0
   22.7512  -26.8136   41.3056 H   0  0  0  0  0  0  0  0  0  0  0  0
   20.3812  -27.9451   42.8670 H   0  0  0  0  0  0  0  0  0  0  0  0
   20.8069  -26.2061   42.5749 H   0  0  0  0  0  0  0  0  0  0  0  0
   20.7957  -29.1354   40.2851 H   0  0  0  0  0  0  0  0  0  0  0  0
   20.3711  -28.7633   34.1869 H   0  0  0  0  0  0  0  0  0  0  0  0
   20.7387  -30.4734   32.4059 H   0  0  0  0  0  0  0  0  0  0  0  0
   20.5796  -32.9032   32.9540 H   0  0  0  0  0  0  0  0  0  0  0  0
   20.8370  -34.3920   35.3980 H   0  0  0  0  0  0  0  0  0  0  0  0
   19.8070  -31.3020   40.3270 H   0  0  0  0  0  0  0  0  0  0  0  0
   17.8503  -27.4509   37.6244 H   0  0  0  0  0  0  0  0  0  0  0  0
   17.6158  -25.4931   39.1296 H   0  0  0  0  0  0  0  0  0  0  0  0
   17.8464  -24.6303   41.3518 H   0  0  0  0  0  0  0  0  0  0  0  0
   19.1738  -25.2351   42.4570 H   0  0  0  0  0  0  0  0  0  0  0  0
   20.7895  -24.1791   40.7846 H   0  0  0  0  0  0  0  0  0  0  0  0
   18.6721  -22.1743   40.1021 H   0  0  0  0  0  0  0  0  0  0  0  0
   20.1328  -22.6851   39.1899 H   0  0  0  0  0  0  0  0  0  0  0  0
   18.6659  -23.7218   39.1899 H   0  0  0  0  0  0  0  0  0  0  0  0
   19.8465  -23.3362   43.1500 H   0  0  0  0  0  0  0  0  0  0  0  0
   20.8688  -22.2541   42.1447 H   0  0  0  0  0  0  0  0  0  0  0  0
   19.0832  -22.0581   42.1447 H   0  0  0  0  0  0  0  0  0  0  0  0
  1  2  1  0
  2  3  1  0
  3  4  2  0
  4  5  1  0
  5  6  1  0
  6  7  1  0
  7  8  1  0
  8  9  2  0
  9 10  1  0
 10 11  2  0
 11 12  1  0
 12 13  1  0
 12 14  2  0
 14 15  1  0
 15 16  2  0
 15 17  1  0
 17 18  1  0
  5 19  2  0
 19 20  1  0
 20 21  2  0
 21 22  1  0
 22 23  1  0
 23 24  1  0
 23 25  1  0
 21  3  1  0
 17  6  2  0
 14  8  1  0
  1 26  1  0
  1 27  1  0
  1 28  1  0
  2 29  1  0
  2 30  1  0
  4 31  1  0
  9 32  1  0
 10 33  1  0
 11 34  1  0
 13 35  1  0
 18 36  1  0
 19 37  1  0
 20 38  1  0
 22 39  1  0
 22 40  1  0
 23 41  1  0
 24 42  1  0
 24 43  1  0
 24 44  1  0
 25 45  1  0
 25 46  1  0
 25 47  1  0
M  END
>  <meeko>  (2) 
{"is_sidechain": [false], "free_energy": -7.35, "intermolecular_energy": -9.707, "internal_energy": -0.563}

$$$$
cand_049_out
     RDKit          3D

 47 49  0  0  0  0  0  0  0  0999 V2000
   18.8200  -33.6590   39.2010 C   0  0  0  0  0  0  0  0  0  0  0  0
   19.0430  -33.6820   37.6950 C   0  0  0  0  0  0  0  0  0  0  0  0
   19.3370  -32.3030   37.1490 C   0  0  0  0  0  0  0  0  0  0  0  0
   19.2090  -31.2060   38.0260 C   0  0  0  0  0  0  0  0  0  0  0  0
   19.4980  -29.8940   37.6240 C   0  0  0  0  0  0  0  0  0  0  0  0
   19.3180  -28.7750   38.5730 C   0  0  0  0  0  0  0  0  0  0  0  0
   20.2220  -28.8120   39.6290 O   0  0  0  0  0  0  0  0  0  0  0  0
   20.1660  -27.8310   40.5850 C   0  0  0  0  0  0  0  0  0  0  0  0
   21.0830  -27.9160   41.6340 C   0  0  0  0  0  0  0  0  0  0  0  0
   21.0810  -26.9470   42.6400 C   0  0  0  0  0  0  0  0  0  0  0  0
   20.1640  -25.8950   42.5980 C   0  0  0  0  0  0  0  0  0  0  0  0
   19.2510  -25.8130   41.5500 C   0  0  0  0  0  0  0  0  0  0  0  0
   18.3820  -24.7570   41.5700 O   0  0  0  0  0  0  0  0  0  0  0  0
   19.2530  -26.7830   40.5440 C   0  0  0  0  0  0  0  0  0  0  0  0
   18.3090  -26.7340   39.4250 C   0  0  0  0  0  0  0  0  0  0  0  0
   17.4780  -25.8360   39.3140 O   0  0  0  0  0  0  0  0  0  0  0  0
   18.3890  -27.8140   38.4150 C   0  0  0  0  0  0  0  0  0  0  0  0
   17.5020  -27.7500   37.3550 O   0  0  0  0  0  0  0  0  0  0  0  0
   19.9170  -29.6840   36.3080 C   0  0  0  0  0  0  0  0  0  0  0  0
   20.0560  -30.7580   35.4260 C   0  0  0  0  0  0  0  0  0  0  0  0
   19.7710  -32.0740   35.8270 C   0  0  0  0  0  0  0  0  0  0  0  0
   19.9350  -33.1850   34.8100 C   0  0  0  0  0  0  0  0  0  0  0  0
   20.6870  -32.7580   33.5330 C   0  0  0  0  0  0  0  0  0  0  0  0
   21.4560  -33.9180   32.8960 C   0  0  0  0  0  0  0  0  0  0  0  0
   19.6940  -32.1840   32.5180 C   0  0  0  0  0  0  0  0  0  0  0  0
   19.7867  -33.7587   39.7164 H   0  0  0  0  0  0  0  0  0  0  0  0
   18.3482  -32.7074   39.4873 H   0  0  0  0  0  0  0  0  0  0  0  0
   18.1640  -34.4943   39.4873 H   0  0  0  0  0  0  0  0  0  0  0  0
   19.8939  -34.3422   37.4712 H   0  0  0  0  0  0  0  0  0  0  0  0
   18.1217  -34.0486   37.2188 H   0  0  0  0  0  0  0  0  0  0  0  0
   18.8719  -31.3851   39.0576 H   0  0  0  0  0  0  0  0  0  0  0  0
   21.8058  -28.7445   41.6683 H   0  0  0  0  0  0  0  0  0  0  0  0
   21.8033  -27.0128   43.4670 H   0  0  0  0  0  0  0  0  0  0  0  0
   20.1628  -25.1327   43.3910 H   0  0  0  0  0  0  0  0  0  0  0  0
   17.8770  -24.5510   40.8070 H   0  0  0  0  0  0  0  0  0  0  0  0
   16.5830  -27.8530   37.5070 H   0  0  0  0  0  0  0  0  0  0  0  0
   20.1395  -28.6634   35.9632 H   0  0  0  0  0  0  0  0  0  0  0  0
   20.3954  -30.5697   34.3968 H   0  0  0  0  0  0  0  0  0  0  0  0
   20.4932  -34.0069   35.2821 H   0  0  0  0  0  0  0  0  0  0  0  0
   18.9233  -33.4850   34.4993 H   0  0  0  0  0  0  0  0  0  0  0  0
   21.4216  -31.9927   33.8239 H   0  0  0  0  0  0  0  0  0  0  0  0
   21.8787  -34.5556   33.6864 H   0  0  0  0  0  0  0  0  0  0  0  0
   20.7724  -34.5123   32.2719 H   0  0  0  0  0  0  0  0  0  0  0  0
   22.2696  -33.5198   32.2719 H   0  0  0  0  0  0  0  0  0  0  0  0
   18.8612  -31.7026   33.0517 H   0  0  0  0  0  0  0  0  0  0  0  0
   20.2033  -31.4410   31.8867 H   0  0  0  0  0  0  0  0  0  0  0  0
   19.3043  -32.9961   31.8867 H   0  0  0  0  0  0  0  0  0  0  0  0
  1  2  1  0
  2  3  1  0
  3  4  2  0
  4  5  1  0
  5  6  1  0
  6  7  1  0
  7  8  1  0
  8  9  2  0
  9 10  1  0
 10 11  2  0
 11 12  1  0
 12 13  1  0
 12 14  2  0
 14 15  1  0
 15 16  2  0
 15 17  1  0
 17 18  1  0
  5 19  2  0
 19 20  1  0
 20 21  2  0
 21 22  1  0
 22 23  1  0
 23 24  1  0
 23 25  1  0
 21  3  1  0
 17  6  2  0
 14  8  1  0
  1 26  1  0
  1 27  1  0
  1 28  1  0
  2 29  1  0
  2 30  1  0
  4 31  1  0
  9 32  1  0
 10 33  1  0
 11 34  1  0
 13 35  1  0
 18 36  1  0
 19 37  1  0
 20 38  1  0
 22 39  1  0
 22 40  1  0
 23 41  1  0
 24 42  1  0
 24 43  1  0
 24 44  1  0
 25 45  1  0
 25 46  1  0
 25 47  1  0
M  END
>  <meeko>  (3) 
{"is_sidechain": [false], "free_energy": -7.294, "intermolecular_energy": -9.713, "internal_energy": -0.484}

$$$$
cand_049_out
     RDKit          3D

 47 49  0  0  0  0  0  0  0  0999 V2000
   22.9650  -27.9670   42.3420 C   0  0  0  0  0  0  0  0  0  0  0  0
   21.7310  -27.2430   42.8640 C   0  0  0  0  0  0  0  0  0  0  0  0
   20.6440  -27.1560   41.8160 C   0  0  0  0  0  0  0  0  0  0  0  0
   20.5740  -28.1860   40.8540 C   0  0  0  0  0  0  0  0  0  0  0  0
   19.5780  -28.2140   39.8680 C   0  0  0  0  0  0  0  0  0  0  0  0
   19.5650  -29.3010   38.8640 C   0  0  0  0  0  0  0  0  0  0  0  0
   19.3460  -30.5530   39.4260 O   0  0  0  0  0  0  0  0  0  0  0  0
   19.3100  -31.6510   38.6070 C   0  0  0  0  0  0  0  0  0  0  0  0
   19.1020  -32.8890   39.2150 C   0  0  0  0  0  0  0  0  0  0  0  0
   19.0520  -34.0490   38.4380 C   0  0  0  0  0  0  0  0  0  0  0  0
   19.2110  -33.9690   37.0530 C   0  0  0  0  0  0  0  0  0  0  0  0
   19.4180  -32.7330   36.4470 C   0  0  0  0  0  0  0  0  0  0  0  0
   19.5650  -32.7270   35.0880 O   0  0  0  0  0  0  0  0  0  0  0  0
   19.4680  -31.5730   37.2260 C   0  0  0  0  0  0  0  0  0  0  0  0
   19.6850  -30.2530   36.6310 C   0  0  0  0  0  0  0  0  0  0  0  0
   19.8250  -30.1020   35.4190 O   0  0  0  0  0  0  0  0  0  0  0  0
   19.7280  -29.0890   37.5450 C   0  0  0  0  0  0  0  0  0  0  0  0
   19.9200  -27.8450   36.9690 O   0  0  0  0  0  0  0  0  0  0  0  0
   18.6400  -27.1800   39.8450 C   0  0  0  0  0  0  0  0  0  0  0  0
   18.6900  -26.1540   40.7920 C   0  0  0  0  0  0  0  0  0  0  0  0
   19.6850  -26.1250   41.7840 C   0  0  0  0  0  0  0  0  0  0  0  0
   19.6800  -24.9740   42.7700 C   0  0  0  0  0  0  0  0  0  0  0  0
   19.0240  -23.6880   42.2270 C   0  0  0  0  0  0  0  0  0  0  0  0
   18.5490  -22.7600   43.3480 C   0  0  0  0  0  0  0  0  0  0  0  0
   20.0160  -22.9420   41.3300 C   0  0  0  0  0  0  0  0  0  0  0  0
   23.5687  -28.3212   43.1906 H   0  0  0  0  0  0  0  0  0  0  0  0
   22.6543  -28.8260   41.7292 H   0  0  0  0  0  0  0  0  0  0  0  0
   23.5633  -27.2767   41.7292 H   0  0  0  0  0  0  0  0  0  0  0  0
   21.3413  -27.7878   43.7365 H   0  0  0  0  0  0  0  0  0  0  0  0
   22.0257  -26.2187   43.1360 H   0  0  0  0  0  0  0  0  0  0  0  0
   21.3233  -28.9909   40.8786 H   0  0  0  0  0  0  0  0  0  0  0  0
   18.9774  -32.9520   40.3061 H   0  0  0  0  0  0  0  0  0  0  0  0
   18.8874  -35.0253   38.9172 H   0  0  0  0  0  0  0  0  0  0  0  0
   19.1727  -34.8823   36.4411 H   0  0  0  0  0  0  0  0  0  0  0  0
   19.3170  -33.4790   34.5860 H   0  0  0  0  0  0  0  0  0  0  0  0
   20.5990  -27.7230   36.3350 H   0  0  0  0  0  0  0  0  0  0  0  0
   17.8549  -27.1731   39.0746 H   0  0  0  0  0  0  0  0  0  0  0  0
   17.9361  -25.3536   40.7605 H   0  0  0  0  0  0  0  0  0  0  0  0
   19.1301  -25.2903   43.6687 H   0  0  0  0  0  0  0  0  0  0  0  0
   20.7317  -24.7308   42.9818 H   0  0  0  0  0  0  0  0  0  0  0  0
   18.1385  -23.9893   41.6482 H   0  0  0  0  0  0  0  0  0  0  0  0
   18.7813  -23.2138   44.3228 H   0  0  0  0  0  0  0  0  0  0  0  0
   19.0617  -21.7905   43.2634 H   0  0  0  0  0  0  0  0  0  0  0  0
   17.4627  -22.6089   43.2634 H   0  0  0  0  0  0  0  0  0  0  0  0
   20.7390  -22.3983   41.9558 H   0  0  0  0  0  0  0  0  0  0  0  0
   20.5506  -23.6638   40.6949 H   0  0  0  0  0  0  0  0  0  0  0  0
   19.4710  -22.2281   40.6949 H   0  0  0  0  0  0  0  0  0  0  0  0
  1  2  1  0
  2  3  1  0
  3  4  2  0
  4  5  1  0
  5  6  1  0
  6  7  1  0
  7  8  1  0
  8  9  2  0
  9 10  1  0
 10 11  2  0
 11 12  1  0
 12 13  1  0
 12 14  2  0
 14 15  1  0
 15 16  2  0
 15 17  1  0
 17 18  1  0
  5 19  2  0
 19 20  1  0
 20 21  2  0
 21 22  1  0
 22 23  1  0
 23 24  1  0
 23 25  1  0
 21  3  1  0
 17  6  2  0
 14  8  1  0
  1 26  1  0
  1 27  1  0
  1 28  1  0
  2 29  1  0
  2 30  1  0
  4 31  1  0
  9 32  1  0
 10 33  1  0
 11 34  1  0
 13 35  1  0
 18 36  1  0
 19 37  1  0
 20 38  1  0
 22 39  1  0
 22 40  1  0
 23 41  1  0
 24 42  1  0
 24 43  1  0
 24 44  1  0
 25 45  1  0
 25 46  1  0
 25 47  1  0
M  END
>  <meeko>  (4) 
{"is_sidechain": [false], "free_energy": -7.29, "intermolecular_energy": -9.516, "internal_energy": -0.676}

$$$$
cand_049_out
     RDKit          3D

 47 49  0  0  0  0  0  0  0  0999 V2000
   19.2650  -23.5450   38.4430 C   0  0  0  0  0  0  0  0  0  0  0  0
   19.4620  -24.7000   37.4700 C   0  0  0  0  0  0  0  0  0  0  0  0
   19.5290  -26.0320   38.1830 C   0  0  0  0  0  0  0  0  0  0  0  0
   20.2720  -26.1010   39.3800 C   0  0  0  0  0  0  0  0  0  0  0  0
   20.3600  -27.2810   40.1330 C   0  0  0  0  0  0  0  0  0  0  0  0
   21.1770  -27.3090   41.3650 C   0  0  0  0  0  0  0  0  0  0  0  0
   22.1800  -28.2720   41.3260 O   0  0  0  0  0  0  0  0  0  0  0  0
   23.0130  -28.4060   42.4060 C   0  0  0  0  0  0  0  0  0  0  0  0
   23.9960  -29.3940   42.3290 C   0  0  0  0  0  0  0  0  0  0  0  0
   24.8800  -29.5820   43.3940 C   0  0  0  0  0  0  0  0  0  0  0  0
   24.7810  -28.7830   44.5350 C   0  0  0  0  0  0  0  0  0  0  0  0
   23.8000  -27.7980   44.6090 C   0  0  0  0  0  0  0  0  0  0  0  0
   23.7600  -27.0510   45.7540 O   0  0  0  0  0  0  0  0  0  0  0  0
   22.9160  -27.6110   43.5430 C   0  0  0  0  0  0  0  0  0  0  0  0
   21.8700  -26.5870   43.5800 C   0  0  0  0  0  0  0  0  0  0  0  0
   21.7250  -25.8400   44.5460 O   0  0  0  0  0  0  0  0  0  0  0  0
   20.9800  -26.4740   42.4020 C   0  0  0  0  0  0  0  0  0  0  0  0
   20.0040  -25.4940   42.4430 O   0  0  0  0  0  0  0  0  0  0  0  0
   19.6920  -28.4150   39.6660 C   0  0  0  0  0  0  0  0  0  0  0  0
   18.9450  -28.3640   38.4860 C   0  0  0  0  0  0  0  0  0  0  0  0
   18.8520  -27.1830   37.7310 C   0  0  0  0  0  0  0  0  0  0  0  0
   18.0330  -27.2100   36.4560 C   0  0  0  0  0  0  0  0  0  0  0  0
   18.8800  -27.2000   35.1680 C   0  0  0  0  0  0  0  0  0  0  0  0
   19.3140  -28.6070   34.7470 C   0  0  0  0  0  0  0  0  0  0  0  0
   18.0850  -26.5490   34.0320 C   0  0  0  0  0  0  0  0  0  0  0  0
   19.3290  -23.9201   39.4751 H   0  0  0  0  0  0  0  0  0  0  0  0
   20.0472  -22.7894   38.2783 H   0  0  0  0  0  0  0  0  0  0  0  0
   18.2765  -23.0914   38.2783 H   0  0  0  0  0  0  0  0  0  0  0  0
   18.6196  -24.7170   36.7628 H   0  0  0  0  0  0  0  0  0  0  0  0
   20.4165  -24.5453   36.9456 H   0  0  0  0  0  0  0  0  0  0  0  0
   20.7983  -25.2021   39.7336 H   0  0  0  0  0  0  0  0  0  0  0  0
   24.0744  -30.0239   41.4306 H   0  0  0  0  0  0  0  0  0  0  0  0
   25.6550  -30.3603   43.3339 H   0  0  0  0  0  0  0  0  0  0  0  0
   25.4769  -28.9317   45.3738 H   0  0  0  0  0  0  0  0  0  0  0  0
   24.5430  -26.9100   46.2490 H   0  0  0  0  0  0  0  0  0  0  0  0
   19.1050  -25.7230   42.3090 H   0  0  0  0  0  0  0  0  0  0  0  0
   19.7543  -29.3563   40.2317 H   0  0  0  0  0  0  0  0  0  0  0  0
   18.4193  -29.2667   38.1415 H   0  0  0  0  0  0  0  0  0  0  0  0
   17.4181  -28.1221   36.4588 H   0  0  0  0  0  0  0  0  0  0  0  0
   17.4274  -26.2917   36.4465 H   0  0  0  0  0  0  0  0  0  0  0  0
   19.7906  -26.6197   35.3780 H   0  0  0  0  0  0  0  0  0  0  0  0
   19.5019  -29.2163   35.6433 H   0  0  0  0  0  0  0  0  0  0  0  0
   18.5177  -29.0724   34.1476 H   0  0  0  0  0  0  0  0  0  0  0  0
   20.2341  -28.5429   34.1476 H   0  0  0  0  0  0  0  0  0  0  0  0
   17.2996  -25.9059   34.4558 H   0  0  0  0  0  0  0  0  0  0  0  0
   18.7613  -25.9419   33.4122 H   0  0  0  0  0  0  0  0  0  0  0  0
   17.6232  -27.3317   33.4122 H   0  0  0  0  0  0  0  0  0  0  0  0
  1  2  1  0
  2  3  1  0
  3  4  2  0
  4  5  1  0
  5  6  1  0
  6  7  1  0
  7  8  1  0
  8  9  2  0
  9 10  1  0
 10 11  2  0
 11 12  1  0
 12 13  1  0
 12 14  2  0
 14 15  1  0
 15 16  2  0
 15 17  1  0
 17 18  1  0
  5 19  2  0
 19 20  1  0
 20 21  2  0
 21 22  1  0
 22 23  1  0
 23 24  1  0
 23 25  1  0
 21  3  1  0
 17  6  2  0
 14  8  1  0
  1 26  1  0
  1 27  1  0
  1 28  1  0
  2 29  1  0
  2 30  1  0
  4 31  1  0
  9 32  1  0
 10 33  1  0
 11 34  1  0
 13 35  1  0
 18 36  1  0
 19 37  1  0
 20 38  1  0
 22 39  1  0
 22 40  1  0
 23 41  1  0
 24 42  1  0
 24 43  1  0
 24 44  1  0
 25 45  1  0
 25 46  1  0
 25 47  1  0
M  END
>  <meeko>  (5) 
{"is_sidechain": [false], "free_energy": -7.166, "intermolecular_energy": -9.392, "internal_energy": -0.64}

$$$$
cand_049_out
     RDKit          3D

 47 49  0  0  0  0  0  0  0  0999 V2000
   19.5990  -23.8540   43.5590 C   0  0  0  0  0  0  0  0  0  0  0  0
   19.8980  -25.3450   43.6440 C   0  0  0  0  0  0  0  0  0  0  0  0
   20.2280  -25.9310   42.2880 C   0  0  0  0  0  0  0  0  0  0  0  0
   19.5770  -25.3890   41.1610 C   0  0  0  0  0  0  0  0  0  0  0  0
   19.8460  -25.8380   39.8600 C   0  0  0  0  0  0  0  0  0  0  0  0
   19.1140  -25.2570   38.7140 C   0  0  0  0  0  0  0  0  0  0  0  0
   19.5330  -23.9690   38.4020 O   0  0  0  0  0  0  0  0  0  0  0  0
   18.9360  -23.3110   37.3570 C   0  0  0  0  0  0  0  0  0  0  0  0
   19.3780  -22.0150   37.0890 C   0  0  0  0  0  0  0  0  0  0  0  0
   18.8130  -21.2900   36.0370 C   0  0  0  0  0  0  0  0  0  0  0  0
   17.8070  -21.8610   35.2550 C   0  0  0  0  0  0  0  0  0  0  0  0
   17.3680  -23.1550   35.5240 C   0  0  0  0  0  0  0  0  0  0  0  0
   16.3820  -23.6530   34.7190 O   0  0  0  0  0  0  0  0  0  0  0  0
   17.9340  -23.8790   36.5770 C   0  0  0  0  0  0  0  0  0  0  0  0
   17.5010  -25.2410   36.8950 C   0  0  0  0  0  0  0  0  0  0  0  0
   16.6270  -25.8140   36.2480 O   0  0  0  0  0  0  0  0  0  0  0  0
   18.1590  -25.9200   38.0360 C   0  0  0  0  0  0  0  0  0  0  0  0
   17.7520  -27.2120   38.3180 O   0  0  0  0  0  0  0  0  0  0  0  0
   20.7850  -26.8590   39.6940 C   0  0  0  0  0  0  0  0  0  0  0  0
   21.4440  -27.4040   40.7980 C   0  0  0  0  0  0  0  0  0  0  0  0
   21.1800  -26.9540   42.1020 C   0  0  0  0  0  0  0  0  0  0  0  0
   21.9270  -27.6020   43.2500 C   0  0  0  0  0  0  0  0  0  0  0  0
   23.4600  -27.6080   43.0750 C   0  0  0  0  0  0  0  0  0  0  0  0
   24.1770  -26.8700   44.2080 C   0  0  0  0  0  0  0  0  0  0  0  0
   23.9650  -29.0520   43.0030 C   0  0  0  0  0  0  0  0  0  0  0  0
   19.5156  -23.4383   44.5740 H   0  0  0  0  0  0  0  0  0  0  0  0
   20.4133  -23.3468   43.0208 H   0  0  0  0  0  0  0  0  0  0  0  0
   18.6521  -23.7000   43.0208 H   0  0  0  0  0  0  0  0  0  0  0  0
   20.7551  -25.4984   44.3162 H   0  0  0  0  0  0  0  0  0  0  0  0
   18.9998  -25.8523   44.0260 H   0  0  0  0  0  0  0  0  0  0  0  0
   18.8355  -24.5896   41.3066 H   0  0  0  0  0  0  0  0  0  0  0  0
   20.1702  -21.5648   37.7052 H   0  0  0  0  0  0  0  0  0  0  0  0
   19.1610  -20.2684   35.8245 H   0  0  0  0  0  0  0  0  0  0  0  0
   17.3617  -21.2894   34.4274 H   0  0  0  0  0  0  0  0  0  0  0  0
   16.0650  -24.5250   34.8510 H   0  0  0  0  0  0  0  0  0  0  0  0
   18.3570  -27.8230   38.6900 H   0  0  0  0  0  0  0  0  0  0  0  0
   21.0071  -27.2368   38.6851 H   0  0  0  0  0  0  0  0  0  0  0  0
   22.1850  -28.2021   40.6432 H   0  0  0  0  0  0  0  0  0  0  0  0
   21.6860  -27.0542   44.1730 H   0  0  0  0  0  0  0  0  0  0  0  0
   21.6059  -28.6535   43.2865 H   0  0  0  0  0  0  0  0  0  0  0  0
   23.6868  -27.0776   42.1384 H   0  0  0  0  0  0  0  0  0  0  0  0
   23.8138  -27.2438   45.1767 H   0  0  0  0  0  0  0  0  0  0  0  0
   25.2605  -27.0437   44.1308 H   0  0  0  0  0  0  0  0  0  0  0  0
   23.9721  -25.7920   44.1308 H   0  0  0  0  0  0  0  0  0  0  0  0
   24.1020  -29.4438   44.0217 H   0  0  0  0  0  0  0  0  0  0  0  0
   23.2301  -29.6712   42.4678 H   0  0  0  0  0  0  0  0  0  0  0  0
   24.9257  -29.0782   42.4678 H   0  0  0  0  0  0  0  0  0  0  0  0
  1  2  1  0
  2  3  1  0
  3  4  2  0
  4  5  1  0
  5  6  1  0
  6  7  1  0
  7  8  1  0
  8  9  2  0
  9 10  1  0
 10 11  2  0
 11 12  1  0
 12 13  1  0
 12 14  2  0
 14 15  1  0
 15 16  2  0
 15 17  1  0
 17 18  1  0
  5 19  2  0
 19 20  1  0
 20 21  2  0
 21 22  1  0
 22 23  1  0
 23 24  1  0
 23 25  1  0
 21  3  1  0
 17  6  2  0
 14  8  1  0
  1 26  1  0
  1 27  1  0
  1 28  1  0
  2 29  1  0
  2 30  1  0
  4 31  1  0
  9 32  1  0
 10 33  1  0
 11 34  1  0
 13 35  1  0
 18 36  1  0
 19 37  1  0
 20 38  1  0
 22 39  1  0
 22 40  1  0
 23 41  1  0
 24 42  1  0
 24 43  1  0
 24 44  1  0
 25 45  1  0
 25 46  1  0
 25 47  1  0
M  END
>  <meeko>  (6) 
{"is_sidechain": [false], "free_energy": -6.956, "intermolecular_energy": -8.951, "internal_energy": -0.81}

$$$$
cand_049_out
     RDKit          3D

 47 49  0  0  0  0  0  0  0  0999 V2000
   20.5050  -31.3370   34.5530 C   0  0  0  0  0  0  0  0  0  0  0  0
   20.0430  -32.3060   35.6340 C   0  0  0  0  0  0  0  0  0  0  0  0
   19.8060  -31.6040   36.9530 C   0  0  0  0  0  0  0  0  0  0  0  0
   19.6550  -30.2030   36.9350 C   0  0  0  0  0  0  0  0  0  0  0  0
   19.3920  -29.4690   38.1010 C   0  0  0  0  0  0  0  0  0  0  0  0
   19.2710  -27.9960   38.0340 C   0  0  0  0  0  0  0  0  0  0  0  0
   18.3240  -27.5740   37.1070 O   0  0  0  0  0  0  0  0  0  0  0  0
   18.1100  -26.2300   36.9430 C   0  0  0  0  0  0  0  0  0  0  0  0
   17.1610  -25.8510   35.9930 C   0  0  0  0  0  0  0  0  0  0  0  0
   16.8930  -24.4980   35.7760 C   0  0  0  0  0  0  0  0  0  0  0  0
   17.5740  -23.5240   36.5100 C   0  0  0  0  0  0  0  0  0  0  0  0
   18.5200  -23.9040   37.4580 C   0  0  0  0  0  0  0  0  0  0  0  0
   19.1490  -22.9000   38.1410 O   0  0  0  0  0  0  0  0  0  0  0  0
   18.7880  -25.2590   37.6730 C   0  0  0  0  0  0  0  0  0  0  0  0
   19.7750  -25.7020   38.6590 C   0  0  0  0  0  0  0  0  0  0  0  0
   20.4090  -24.9050   39.3480 O   0  0  0  0  0  0  0  0  0  0  0  0
   19.9900  -27.1600   38.8050 C   0  0  0  0  0  0  0  0  0  0  0  0
   20.9150  -27.5670   39.7500 O   0  0  0  0  0  0  0  0  0  0  0  0
   19.2890  -30.1610   39.3100 C   0  0  0  0  0  0  0  0  0  0  0  0
   19.4300  -31.5510   39.3460 C   0  0  0  0  0  0  0  0  0  0  0  0
   19.6900  -32.2890   38.1800 C   0  0  0  0  0  0  0  0  0  0  0  0
   19.8420  -33.7920   38.3020 C   0  0  0  0  0  0  0  0  0  0  0  0
   18.5280  -34.5730   38.0940 C   0  0  0  0  0  0  0  0  0  0  0  0
   18.5740  -35.4700   36.8550 C   0  0  0  0  0  0  0  0  0  0  0  0
   18.2330  -35.4250   39.3330 C   0  0  0  0  0  0  0  0  0  0  0  0
   20.9329  -30.4395   35.0236 H   0  0  0  0  0  0  0  0  0  0  0  0
   21.2686  -31.8224   33.9274 H   0  0  0  0  0  0  0  0  0  0  0  0
   19.6471  -31.0494   33.9274 H   0  0  0  0  0  0  0  0  0  0  0  0
   19.1052  -32.7807   35.3096 H   0  0  0  0  0  0  0  0  0  0  0  0
   20.8344  -33.0554   35.7826 H   0  0  0  0  0  0  0  0  0  0  0  0
   19.7461  -29.6689   35.9777 H   0  0  0  0  0  0  0  0  0  0  0  0
   16.6242  -26.6178   35.4152 H   0  0  0  0  0  0  0  0  0  0  0  0
   16.1453  -24.1990   35.0267 H   0  0  0  0  0  0  0  0  0  0  0  0
   17.3630  -22.4580   36.3391 H   0  0  0  0  0  0  0  0  0  0  0  0
   19.1480  -22.8990   39.0780 H   0  0  0  0  0  0  0  0  0  0  0  0
   21.5140  -28.2610   39.5510 H   0  0  0  0  0  0  0  0  0  0  0  0
   19.0954  -29.6077   40.2408 H   0  0  0  0  0  0  0  0  0  0  0  0
   19.3354  -32.0775   40.3071 H   0  0  0  0  0  0  0  0  0  0  0  0
   20.5681  -34.1289   37.5475 H   0  0  0  0  0  0  0  0  0  0  0  0
   20.1751  -33.9964   39.3302 H   0  0  0  0  0  0  0  0  0  0  0  0
   17.7276  -33.8346   37.9387 H   0  0  0  0  0  0  0  0  0  0  0  0
   18.6280  -36.5235   37.1668 H   0  0  0  0  0  0  0  0  0  0  0  0
   17.6666  -35.3116   36.2538 H   0  0  0  0  0  0  0  0  0  0  0  0
   19.4605  -35.2196   36.2538 H   0  0  0  0  0  0  0  0  0  0  0  0
   18.4368  -34.8365   40.2397 H   0  0  0  0  0  0  0  0  0  0  0  0
   17.1765  -35.7312   39.3244 H   0  0  0  0  0  0  0  0  0  0  0  0
   18.8739  -36.3189   39.3244 H   0  0  0  0  0  0  0  0  0  0  0  0
  1  2  1  0
  2  3  1  0
  3  4  2  0
  4  5  1  0
  5  6  1  0
  6  7  1  0
  7  8  1  0
  8  9  2  0
  9 10  1  0
 10 11  2  0
 11 12  1  0
 12 13  1  0
 12 14  2  0
 14 15  1  0
 15 16  2  0
 15 17  1  0
 17 18  1  0
  5 19  2  0
 19 20  1  0
 20 21  2  0
 21 22  1  0
 22 23  1  0
 23 24  1  0
 23 25  1  0
 21  3  1  0
 17  6  2  0
 14  8  1  0
  1 26  1  0
  1 27  1  0
  1 28  1  0
  2 29  1  0
  2 30  1  0
  4 31  1  0
  9 32  1  0
 10 33  1  0
 11 34  1  0
 13 35  1  0
 18 36  1  0
 19 37  1  0
 20 38  1  0
 22 39  1  0
 22 40  1  0
 23 41  1  0
 24 42  1  0
 24 43  1  0
 24 44  1  0
 25 45  1  0
 25 46  1  0
 25 47  1  0
M  END
>  <meeko>  (7) 
{"is_sidechain": [false], "free_energy": -6.86, "intermolecular_energy": -8.96, "internal_energy": -0.677}

$$$$
cand_049_out
     RDKit          3D

 47 49  0  0  0  0  0  0  0  0999 V2000
   16.5450  -23.0420   45.3500 C   0  0  0  0  0  0  0  0  0  0  0  0
   17.8530  -22.6360   46.0170 C   0  0  0  0  0  0  0  0  0  0  0  0
   19.0020  -23.5200   45.5840 C   0  0  0  0  0  0  0  0  0  0  0  0
   19.0190  -23.9710   44.2490 C   0  0  0  0  0  0  0  0  0  0  0  0
   20.0620  -24.7610   43.7440 C   0  0  0  0  0  0  0  0  0  0  0  0
   20.0180  -25.2340   42.3430 C   0  0  0  0  0  0  0  0  0  0  0  0
   19.7200  -24.2190   41.4400 O   0  0  0  0  0  0  0  0  0  0  0  0
   19.6470  -24.5210   40.1050 C   0  0  0  0  0  0  0  0  0  0  0  0
   19.3310  -23.4760   39.2360 C   0  0  0  0  0  0  0  0  0  0  0  0
   19.2430  -23.7140   37.8620 C   0  0  0  0  0  0  0  0  0  0  0  0
   19.4700  -24.9960   37.3580 C   0  0  0  0  0  0  0  0  0  0  0  0
   19.7840  -26.0380   38.2270 C   0  0  0  0  0  0  0  0  0  0  0  0
   19.9950  -27.2670   37.6680 O   0  0  0  0  0  0  0  0  0  0  0  0
   19.8720  -25.7980   39.6010 C   0  0  0  0  0  0  0  0  0  0  0  0
   20.2000  -26.8650   40.5500 C   0  0  0  0  0  0  0  0  0  0  0  0
   20.4200  -28.0170   40.1830 O   0  0  0  0  0  0  0  0  0  0  0  0
   20.2610  -26.5080   41.9860 C   0  0  0  0  0  0  0  0  0  0  0  0
   20.5860  -27.5210   42.8710 O   0  0  0  0  0  0  0  0  0  0  0  0
   21.1050  -25.1080   44.6060 C   0  0  0  0  0  0  0  0  0  0  0  0
   21.1090  -24.6660   45.9310 C   0  0  0  0  0  0  0  0  0  0  0  0
   20.0670  -23.8710   46.4380 C   0  0  0  0  0  0  0  0  0  0  0  0
   20.1360  -23.4390   47.8890 C   0  0  0  0  0  0  0  0  0  0  0  0
   20.9360  -24.4020   48.7910 C   0  0  0  0  0  0  0  0  0  0  0  0
   21.7560  -23.6600   49.8500 C   0  0  0  0  0  0  0  0  0  0  0  0
   19.9780  -25.3800   49.4780 C   0  0  0  0  0  0  0  0  0  0  0  0
   15.7965  -23.2743   46.1218 H   0  0  0  0  0  0  0  0  0  0  0  0
   16.1808  -22.2146   44.7233 H   0  0  0  0  0  0  0  0  0  0  0  0
   16.7133  -23.9302   44.7233 H   0  0  0  0  0  0  0  0  0  0  0  0
   18.0828  -21.5950   45.7460 H   0  0  0  0  0  0  0  0  0  0  0  0
   17.7300  -22.7432   47.1048 H   0  0  0  0  0  0  0  0  0  0  0  0
   18.1886  -23.6949   43.5825 H   0  0  0  0  0  0  0  0  0  0  0  0
   19.1513  -22.4657   39.6323 H   0  0  0  0  0  0  0  0  0  0  0  0
   18.9946  -22.8903   37.1766 H   0  0  0  0  0  0  0  0  0  0  0  0
   19.4009  -25.1828   36.2762 H   0  0  0  0  0  0  0  0  0  0  0  0
   20.5980  -27.3610   36.9560 H   0  0  0  0  0  0  0  0  0  0  0  0
   21.4450  -27.8950   42.8610 H   0  0  0  0  0  0  0  0  0  0  0  0
   21.9306  -25.7349   44.2380 H   0  0  0  0  0  0  0  0  0  0  0  0
   21.9439  -24.9456   46.5903 H   0  0  0  0  0  0  0  0  0  0  0  0
   20.6114  -22.4480   47.9330 H   0  0  0  0  0  0  0  0  0  0  0  0
   19.1036  -23.4296   48.2687 H   0  0  0  0  0  0  0  0  0  0  0  0
   21.6414  -24.9472   48.1467 H   0  0  0  0  0  0  0  0  0  0  0  0
   21.4205  -23.9636   50.8526 H   0  0  0  0  0  0  0  0  0  0  0  0
   22.8209  -23.9076   49.7291 H   0  0  0  0  0  0  0  0  0  0  0  0
   21.6157  -22.5757   49.7291 H   0  0  0  0  0  0  0  0  0  0  0  0
   20.0742  -25.2818   50.5694 H   0  0  0  0  0  0  0  0  0  0  0  0
   18.9443  -25.1518   49.1790 H   0  0  0  0  0  0  0  0  0  0  0  0
   20.2275  -26.4087   49.1790 H   0  0  0  0  0  0  0  0  0  0  0  0
  1  2  1  0
  2  3  1  0
  3  4  2  0
  4  5  1  0
  5  6  1  0
  6  7  1  0
  7  8  1  0
  8  9  2  0
  9 10  1  0
 10 11  2  0
 11 12  1  0
 12 13  1  0
 12 14  2  0
 14 15  1  0
 15 16  2  0
 15 17  1  0
 17 18  1  0
  5 19  2  0
 19 20  1  0
 20 21  2  0
 21 22  1  0
 22 23  1  0
 23 24  1  0
 23 25  1  0
 21  3  1  0
 17  6  2  0
 14  8  1  0
  1 26  1  0
  1 27  1  0
  1 28  1  0
  2 29  1  0
  2 30  1  0
  4 31  1  0
  9 32  1  0
 10 33  1  0
 11 34  1  0
 13 35  1  0
 18 36  1  0
 19 37  1  0
 20 38  1  0
 22 39  1  0
 22 40  1  0
 23 41  1  0
 24 42  1  0
 24 43  1  0
 24 44  1  0
 25 45  1  0
 25 46  1  0
 25 47  1  0
M  END
>  <meeko>  (8) 
{"is_sidechain": [false], "free_energy": -6.847, "intermolecular_energy": -9.043, "internal_energy": -0.577}

$$$$
cand_049_out
     RDKit          3D

 47 49  0  0  0  0  0  0  0  0999 V2000
   16.2070  -23.0200   45.3580 C   0  0  0  0  0  0  0  0  0  0  0  0
   17.5380  -22.6280   45.9850 C   0  0  0  0  0  0  0  0  0  0  0  0
   18.6830  -23.4480   45.4330 C   0  0  0  0  0  0  0  0  0  0  0  0
   18.6710  -23.7520   44.0560 C   0  0  0  0  0  0  0  0  0  0  0  0
   19.7080  -24.4720   43.4450 C   0  0  0  0  0  0  0  0  0  0  0  0
   19.6340  -24.7900   42.0020 C   0  0  0  0  0  0  0  0  0  0  0  0
   19.4980  -26.1520   41.7570 O   0  0  0  0  0  0  0  0  0  0  0  0
   19.4170  -26.5870   40.4590 C   0  0  0  0  0  0  0  0  0  0  0  0
   19.2960  -27.9630   40.2590 C   0  0  0  0  0  0  0  0  0  0  0  0
   19.2070  -28.4730   38.9610 C   0  0  0  0  0  0  0  0  0  0  0  0
   19.2380  -27.6070   37.8660 C   0  0  0  0  0  0  0  0  0  0  0  0
   19.3590  -26.2350   38.0680 C   0  0  0  0  0  0  0  0  0  0  0  0
   19.3820  -25.4450   36.9520 O   0  0  0  0  0  0  0  0  0  0  0  0
   19.4490  -25.7260   39.3670 C   0  0  0  0  0  0  0  0  0  0  0  0
   19.5770  -24.2900   39.6240 C   0  0  0  0  0  0  0  0  0  0  0  0
   19.6040  -23.4660   38.7130 O   0  0  0  0  0  0  0  0  0  0  0  0
   19.6720  -23.8540   41.0360 C   0  0  0  0  0  0  0  0  0  0  0  0
   19.7790  -22.4940   41.2680 O   0  0  0  0  0  0  0  0  0  0  0  0
   20.7730  -24.9010   44.2400 C   0  0  0  0  0  0  0  0  0  0  0  0
   20.8050  -24.6050   45.6050 C   0  0  0  0  0  0  0  0  0  0  0  0
   19.7700  -23.8810   46.2190 C   0  0  0  0  0  0  0  0  0  0  0  0
   19.8700  -23.6090   47.7070 C   0  0  0  0  0  0  0  0  0  0  0  0
   20.7880  -24.5910   48.4620 C   0  0  0  0  0  0  0  0  0  0  0  0
   21.9320  -23.8780   49.1870 C   0  0  0  0  0  0  0  0  0  0  0  0
   19.9630  -25.3940   49.4730 C   0  0  0  0  0  0  0  0  0  0  0  0
   15.4768  -23.2351   46.1521 H   0  0  0  0  0  0  0  0  0  0  0  0
   15.8376  -22.1925   44.7345 H   0  0  0  0  0  0  0  0  0  0  0  0
   16.3451  -23.9156   44.7345 H   0  0  0  0  0  0  0  0  0  0  0  0
   17.7295  -21.5647   45.7781 H   0  0  0  0  0  0  0  0  0  0  0  0
   17.4742  -22.8153   47.0671 H   0  0  0  0  0  0  0  0  0  0  0  0
   17.8227  -23.4142   43.4426 H   0  0  0  0  0  0  0  0  0  0  0  0
   19.2707  -28.6449   41.1217 H   0  0  0  0  0  0  0  0  0  0  0  0
   19.1125  -29.5573   38.8017 H   0  0  0  0  0  0  0  0  0  0  0  0
   19.1669  -28.0087   36.8445 H   0  0  0  0  0  0  0  0  0  0  0  0
   20.1250  -25.4640   36.3800 H   0  0  0  0  0  0  0  0  0  0  0  0
   19.0080  -21.9810   41.4090 H   0  0  0  0  0  0  0  0  0  0  0  0
   21.5937  -25.4769   43.7876 H   0  0  0  0  0  0  0  0  0  0  0  0
   21.6576  -24.9457   46.2107 H   0  0  0  0  0  0  0  0  0  0  0  0
   20.2622  -22.5909   47.8473 H   0  0  0  0  0  0  0  0  0  0  0  0
   18.8592  -23.7335   48.1227 H   0  0  0  0  0  0  0  0  0  0  0  0
   21.2364  -25.2624   47.7150 H   0  0  0  0  0  0  0  0  0  0  0  0
   21.7892  -23.9670   50.2740 H   0  0  0  0  0  0  0  0  0  0  0  0
   22.8896  -24.3395   48.9040 H   0  0  0  0  0  0  0  0  0  0  0  0
   21.9394  -22.8151   48.9040 H   0  0  0  0  0  0  0  0  0  0  0  0
   20.2560  -25.1089   50.4942 H   0  0  0  0  0  0  0  0  0  0  0  0
   18.8939  -25.1812   49.3253 H   0  0  0  0  0  0  0  0  0  0  0  0
   20.1468  -26.4684   49.3253 H   0  0  0  0  0  0  0  0  0  0  0  0
  1  2  1  0
  2  3  1  0
  3  4  2  0
  4  5  1  0
  5  6  1  0
  6  7  1  0
  7  8  1  0
  8  9  2  0
  9 10  1  0
 10 11  2  0
 11 12  1  0
 12 13  1  0
 12 14  2  0
 14 15  1  0
 15 16  2  0
 15 17  1  0
 17 18  1  0
  5 19  2  0
 19 20  1  0
 20 21  2  0
 21 22  1  0
 22 23  1  0
 23 24  1  0
 23 25  1  0
 21  3  1  0
 17  6  2  0
 14  8  1  0
  1 26  1  0
  1 27  1  0
  1 28  1  0
  2 29  1  0
  2 30  1  0
  4 31  1  0
  9 32  1  0
 10 33  1  0
 11 34  1  0
 13 35  1  0
 18 36  1  0
 19 37  1  0
 20 38  1  0
 22 39  1  0
 22 40  1  0
 23 41  1  0
 24 42  1  0
 24 43  1  0
 24 44  1  0
 25 45  1  0
 25 46  1  0
 25 47  1  0
M  END
>  <meeko>  (9) 
{"is_sidechain": [false], "free_energy": -6.771, "intermolecular_energy": -8.79, "internal_energy": -0.732}

$$$$
