cand_011_out
     RDKit          3D

 35 37  0  0  0  0  0  0  0  0999 V2000
   50.3180  161.3270   31.5420 C   0  0  0  0  0  0  0  0  0  0  0  0
   50.7210  160.0830   30.7960 C   0  0  0  0  0  0  0  0  0  0  0  0
   52.0610  159.9170   30.4170 C   0  0  0  0  0  0  0  0  0  0  0  0
   52.4730  158.7750   29.7280 C   0  0  0  0  0  0  0  0  0  0  0  0
   51.5600  157.7680   29.3960 C   0  0  0  0  0  0  0  0  0  0  0  0
   52.0230  156.5590   28.6830 C   0  0  0  0  0  0  0  0  0  0  0  0
   52.5580  156.8400   27.4310 O   0  0  0  0  0  0  0  0  0  0  0  0
   53.0250  155.8040   26.6620 C   0  0  0  0  0  0  0  0  0  0  0  0
   53.5670  156.1330   25.4190 C   0  0  0  0  0  0  0  0  0  0  0  0
   54.0600  155.1260   24.5860 C   0  0  0  0  0  0  0  0  0  0  0  0
   54.0100  153.7910   24.9960 C   0  0  0  0  0  0  0  0  0  0  0  0
   53.4690  153.4670   26.2370 C   0  0  0  0  0  0  0  0  0  0  0  0
   53.4500  152.1410   26.5750 O   0  0  0  0  0  0  0  0  0  0  0  0
   52.9760  154.4750   27.0710 C   0  0  0  0  0  0  0  0  0  0  0  0
   52.3990  154.1770   28.3820 C   0  0  0  0  0  0  0  0  0  0  0  0
   52.3120  153.0270   28.8110 O   0  0  0  0  0  0  0  0  0  0  0  0
   51.9140  155.3180   29.1920 C   0  0  0  0  0  0  0  0  0  0  0  0
   51.3580  155.0270   30.4240 O   0  0  0  0  0  0  0  0  0  0  0  0
   50.2230  157.9260   29.7900 C   0  0  0  0  0  0  0  0  0  0  0  0
   49.7870  159.0720   30.4870 C   0  0  0  0  0  0  0  0  0  0  0  0
   48.3300  159.1900   30.8780 C   0  0  0  0  0  0  0  0  0  0  0  0
   48.0980  158.7930   32.1610 F   0  0  0  0  0  0  0  0  0  0  0  0
   47.8390  160.4590   30.7920 F   0  0  0  0  0  0  0  0  0  0  0  0
   47.5100  158.4300   30.0970 F   0  0  0  0  0  0  0  0  0  0  0  0
   50.3782  161.1411   32.6245 H   0  0  0  0  0  0  0  0  0  0  0  0
   50.9951  162.1512   31.2733 H   0  0  0  0  0  0  0  0  0  0  0  0
   49.2862  161.5976   31.2733 H   0  0  0  0  0  0  0  0  0  0  0  0
   52.7964  160.6963   30.6657 H   0  0  0  0  0  0  0  0  0  0  0  0
   53.5296  158.6653   29.4422 H   0  0  0  0  0  0  0  0  0  0  0  0
   53.6060  157.1837   25.0957 H   0  0  0  0  0  0  0  0  0  0  0  0
   54.4881  155.3841   23.6061 H   0  0  0  0  0  0  0  0  0  0  0  0
   54.3973  152.9979   24.3395 H   0  0  0  0  0  0  0  0  0  0  0  0
   52.7850  151.8140   27.1480 H   0  0  0  0  0  0  0  0  0  0  0  0
   51.2850  155.6970   31.0740 H   0  0  0  0  0  0  0  0  0  0  0  0
   49.4963  157.1361   29.5493 H   0  0  0  0  0  0  0  0  0  0  0  0
  1  2  1  0
  2  3  2  0
  3  4  1  0
  4  5  2  0
  5  6  1  0
  6  7  1  0
  7  8  1  0
  8  9  2  0
  9 10  1  0
 10 11  2  0
 11 12  1  0
 12 13  1  0
 12 14  2  0
 14 15  1  0
 15 16  2  0
 15 17  1  0
 17 18  1  0
  5 19  1  0
 19 20  2  0
 20 21  1  0
 21 22  1  0
 21 23  1  0
 21 24  1  0
 20  2  1  0
 17  6  2  0
 14  8  1  0
  1 25  1  0
  1 26  1  0
  1 27  1  0
  3 28  1  0
  4 29  1  0
  9 30  1  0
 10 31  1  0
 11 32  1  0
 13 33  1  0
 18 34  1  0
 19 35  1  0
M  END
>  <meeko>  (1) 
{"is_sidechain": [false], "free_energy": -11.551, "intermolecular_energy": -13.577, "internal_energy": -0.111}

$$$$
cand_011_out
     RDKit          3D

 35 37  0  0  0  0  0  0  0  0999 V2000
   52.9490  152.6520   26.6950 C   0  0  0  0  0  0  0  0  0  0  0  0
   52.5400  153.9340   27.3710 C   0  0  0  0  0  0  0  0  0  0  0  0
   51.9490  153.8790   28.6410 C   0  0  0  0  0  0  0  0  0  0  0  0
   51.5600  155.0470   29.3000 C   0  0  0  0  0  0  0  0  0  0  0  0
   51.7480  156.3010   28.7090 C   0  0  0  0  0  0  0  0  0  0  0  0
   51.3470  157.5250   29.4340 C   0  0  0  0  0  0  0  0  0  0  0  0
   50.0120  157.5120   29.8200 O   0  0  0  0  0  0  0  0  0  0  0  0
   49.5080  158.5910   30.5010 C   0  0  0  0  0  0  0  0  0  0  0  0
   48.1670  158.5310   30.8820 C   0  0  0  0  0  0  0  0  0  0  0  0
   47.5920  159.5960   31.5790 C   0  0  0  0  0  0  0  0  0  0  0  0
   48.3570  160.7220   31.8920 C   0  0  0  0  0  0  0  0  0  0  0  0
   49.6950  160.7800   31.5110 C   0  0  0  0  0  0  0  0  0  0  0  0
   50.3850  161.9110   31.8490 O   0  0  0  0  0  0  0  0  0  0  0  0
   50.2710  159.7130   30.8150 C   0  0  0  0  0  0  0  0  0  0  0  0
   51.6720  159.7340   30.3950 C   0  0  0  0  0  0  0  0  0  0  0  0
   52.4090  160.6910   30.6270 O   0  0  0  0  0  0  0  0  0  0  0  0
   52.1880  158.5490   29.6710 C   0  0  0  0  0  0  0  0  0  0  0  0
   53.5090  158.5820   29.2670 O   0  0  0  0  0  0  0  0  0  0  0  0
   52.3550  156.3570   27.4460 C   0  0  0  0  0  0  0  0  0  0  0  0
   52.7550  155.1890   26.7630 C   0  0  0  0  0  0  0  0  0  0  0  0
   53.3970  155.3130   25.3990 C   0  0  0  0  0  0  0  0  0  0  0  0
   53.4850  156.6050   24.9760 F   0  0  0  0  0  0  0  0  0  0  0  0
   54.6680  154.8210   25.3430 F   0  0  0  0  0  0  0  0  0  0  0  0
   52.7070  154.6480   24.4290 F   0  0  0  0  0  0  0  0  0  0  0  0
   53.1901  151.8963   27.4571 H   0  0  0  0  0  0  0  0  0  0  0  0
   52.1222  152.2886   26.0670 H   0  0  0  0  0  0  0  0  0  0  0  0
   53.8335  152.8346   26.0670 H   0  0  0  0  0  0  0  0  0  0  0  0
   51.7897  152.9038   29.1243 H   0  0  0  0  0  0  0  0  0  0  0  0
   51.0997  154.9802   30.2968 H   0  0  0  0  0  0  0  0  0  0  0  0
   47.5632  157.6457   30.6336 H   0  0  0  0  0  0  0  0  0  0  0  0
   46.5356  159.5480   31.8818 H   0  0  0  0  0  0  0  0  0  0  0  0
   47.9031  161.5617   32.4387 H   0  0  0  0  0  0  0  0  0  0  0  0
   49.9860  162.7520   31.7420 H   0  0  0  0  0  0  0  0  0  0  0  0
   53.9800  157.7820   29.1410 H   0  0  0  0  0  0  0  0  0  0  0  0
   52.5236  157.3370   26.9756 H   0  0  0  0  0  0  0  0  0  0  0  0
  1  2  1  0
  2  3  2  0
  3  4  1  0
  4  5  2  0
  5  6  1  0
  6  7  1  0
  7  8  1  0
  8  9  2  0
  9 10  1  0
 10 11  2  0
 11 12  1  0
 12 13  1  0
 12 14  2  0
 14 15  1  0
 15 16  2  0
 15 17  1  0
 17 18  1  0
  5 19  1  0
 19 20  2  0
 20 21  1  0
 21 22  1  0
 21 23  1  0
 21 24  1  0
 20  2  1  0
 17  6  2  0
 14  8  1  0
  1 25  1  0
  1 26  1  0
  1 27  1  0
  3 28  1  0
  4 29  1  0
  9 30  1  0
 10 31  1  0
 11 32  1  0
 13 33  1  0
 18 34  1  0
 19 35  1  0
M  END
>  <meeko>  (2) 
{"is_sidechain": [false], "free_energy": -11.389, "intermolecular_energy": -13.277, "internal_energy": -0.22}

$$$$
cand_011_out
     RDKit          3D

 35 37  0  0  0  0  0  0  0  0999 V2000
   48.6090  159.7910   31.5930 C   0  0  0  0  0  0  0  0  0  0  0  0
   49.4680  158.8360   30.8090 C   0  0  0  0  0  0  0  0  0  0  0  0
   48.9400  157.5920   30.4330 C   0  0  0  0  0  0  0  0  0  0  0  0
   49.7060  156.6820   29.7020 C   0  0  0  0  0  0  0  0  0  0  0  0
   51.0190  156.9860   29.3270 C   0  0  0  0  0  0  0  0  0  0  0  0
   51.8040  156.0150   28.5360 C   0  0  0  0  0  0  0  0  0  0  0  0
   52.3120  156.5580   27.3620 O   0  0  0  0  0  0  0  0  0  0  0  0
   53.0600  155.7610   26.5330 C   0  0  0  0  0  0  0  0  0  0  0  0
   53.5630  156.3500   25.3720 C   0  0  0  0  0  0  0  0  0  0  0  0
   54.3330  155.5950   24.4850 C   0  0  0  0  0  0  0  0  0  0  0  0
   54.5980  154.2500   24.7580 C   0  0  0  0  0  0  0  0  0  0  0  0
   54.0950  153.6660   25.9170 C   0  0  0  0  0  0  0  0  0  0  0  0
   54.3920  152.3460   26.1210 O   0  0  0  0  0  0  0  0  0  0  0  0
   53.3260  154.4220   26.8050 C   0  0  0  0  0  0  0  0  0  0  0  0
   52.7790  153.8460   28.0340 C   0  0  0  0  0  0  0  0  0  0  0  0
   52.9620  152.6690   28.3400 O   0  0  0  0  0  0  0  0  0  0  0  0
   51.9840  154.7350   28.9120 C   0  0  0  0  0  0  0  0  0  0  0  0
   51.4600  154.1800   30.0640 O   0  0  0  0  0  0  0  0  0  0  0  0
   51.5410  158.2380   29.6880 C   0  0  0  0  0  0  0  0  0  0  0  0
   50.7840  159.1710   30.4260 C   0  0  0  0  0  0  0  0  0  0  0  0
   51.4040  160.5020   30.7930 C   0  0  0  0  0  0  0  0  0  0  0  0
   50.7610  161.5560   30.2180 F   0  0  0  0  0  0  0  0  0  0  0  0
   51.4030  160.7570   32.1330 F   0  0  0  0  0  0  0  0  0  0  0  0
   52.7070  160.6010   30.4060 F   0  0  0  0  0  0  0  0  0  0  0  0
   48.7610  159.6220   32.6693 H   0  0  0  0  0  0  0  0  0  0  0  0
   48.8868  160.8252   31.3414 H   0  0  0  0  0  0  0  0  0  0  0  0
   47.5513  159.6239   31.3414 H   0  0  0  0  0  0  0  0  0  0  0  0
   47.9101  157.3303   30.7175 H   0  0  0  0  0  0  0  0  0  0  0  0
   49.2711  155.7127   29.4170 H   0  0  0  0  0  0  0  0  0  0  0  0
   53.3531  157.4079   25.1559 H   0  0  0  0  0  0  0  0  0  0  0  0
   54.7314  156.0590   23.5707 H   0  0  0  0  0  0  0  0  0  0  0  0
   55.2028  153.6543   24.0584 H   0  0  0  0  0  0  0  0  0  0  0  0
   55.2230  152.0060   25.8520 H   0  0  0  0  0  0  0  0  0  0  0  0
   50.7830  154.6280   30.5340 H   0  0  0  0  0  0  0  0  0  0  0  0
   52.5667  158.4979   29.3875 H   0  0  0  0  0  0  0  0  0  0  0  0
  1  2  1  0
  2  3  2  0
  3  4  1  0
  4  5  2  0
  5  6  1  0
  6  7  1  0
  7  8  1  0
  8  9  2  0
  9 10  1  0
 10 11  2  0
 11 12  1  0
 12 13  1  0
 12 14  2  0
 14 15  1  0
 15 16  2  0
 15 17  1  0
 17 18  1  0
  5 19  1  0
 19 20  2  0
 20 21  1  0
 21 22  1  0
 21 23  1  0
 21 24  1  0
 20  2  1  0
 17  6  2  0
 14  8  1  0
  1 25  1  0
  1 26  1  0
  1 27  1  0
  3 28  1  0
  4 29  1  0
  9 30  1  0
 10 31  1  0
 11 32  1  0
 13 33  1  0
 18 34  1  0
 19 35  1  0
M  END
>  <meeko>  (3) 
{"is_sidechain": [false], "free_energy": -10.887, "intermolecular_energy": -12.702, "internal_energy": -0.205}

$$$$
cand_011_out
     RDKit          3D

 35 37  0  0  0  0  0  0  0  0999 V2000
   53.6560  152.6670   26.5260 C   0  0  0  0  0  0  0  0  0  0  0  0
   52.9770  153.8210   27.2150 C   0  0  0  0  0  0  0  0  0  0  0  0
   52.3940  153.6180   28.4740 C   0  0  0  0  0  0  0  0  0  0  0  0
   51.7590  154.6650   29.1450 C   0  0  0  0  0  0  0  0  0  0  0  0
   51.6860  155.9420   28.5770 C   0  0  0  0  0  0  0  0  0  0  0  0
   51.0260  157.0400   29.3140 C   0  0  0  0  0  0  0  0  0  0  0  0
   51.8840  158.0950   29.5970 O   0  0  0  0  0  0  0  0  0  0  0  0
   51.3970  159.1810   30.2790 C   0  0  0  0  0  0  0  0  0  0  0  0
   52.2890  160.2250   30.5290 C   0  0  0  0  0  0  0  0  0  0  0  0
   51.8580  161.3600   31.2200 C   0  0  0  0  0  0  0  0  0  0  0  0
   50.5360  161.4500   31.6620 C   0  0  0  0  0  0  0  0  0  0  0  0
   49.6480  160.4070   31.4110 C   0  0  0  0  0  0  0  0  0  0  0  0
   48.3690  160.5600   31.8720 O   0  0  0  0  0  0  0  0  0  0  0  0
   50.0800  159.2720   30.7190 C   0  0  0  0  0  0  0  0  0  0  0  0
   49.1790  158.1540   30.4350 C   0  0  0  0  0  0  0  0  0  0  0  0
   48.0040  158.1550   30.7970 O   0  0  0  0  0  0  0  0  0  0  0  0
   49.7330  157.0020   29.6870 C   0  0  0  0  0  0  0  0  0  0  0  0
   48.8800  155.9440   29.4340 O   0  0  0  0  0  0  0  0  0  0  0  0
   52.2840  156.1490   27.3250 C   0  0  0  0  0  0  0  0  0  0  0  0
   52.9310  155.1050   26.6320 C   0  0  0  0  0  0  0  0  0  0  0  0
   53.5500  155.3870   25.2800 C   0  0  0  0  0  0  0  0  0  0  0  0
   53.3940  156.6840   24.8930 F   0  0  0  0  0  0  0  0  0  0  0  0
   54.8920  155.1480   25.2300 F   0  0  0  0  0  0  0  0  0  0  0  0
   53.0100  154.6310   24.2830 F   0  0  0  0  0  0  0  0  0  0  0  0
   54.0620  151.9770   27.2804 H   0  0  0  0  0  0  0  0  0  0  0  0
   52.9269  152.1350   25.8971 H   0  0  0  0  0  0  0  0  0  0  0  0
   54.4751  153.0460   25.8971 H   0  0  0  0  0  0  0  0  0  0  0  0
   52.4374  152.6219   28.9387 H   0  0  0  0  0  0  0  0  0  0  0  0
   51.3103  154.4838   30.1328 H   0  0  0  0  0  0  0  0  0  0  0  0
   53.3305  160.1541   30.1822 H   0  0  0  0  0  0  0  0  0  0  0  0
   52.5603  162.1836   31.4162 H   0  0  0  0  0  0  0  0  0  0  0  0
   50.1970  162.3431   32.2074 H   0  0  0  0  0  0  0  0  0  0  0  0
   47.9260  161.3780   31.7600 H   0  0  0  0  0  0  0  0  0  0  0  0
   49.1480  155.2520   28.8630 H   0  0  0  0  0  0  0  0  0  0  0  0
   52.2473  157.1509   26.8724 H   0  0  0  0  0  0  0  0  0  0  0  0
  1  2  1  0
  2  3  2  0
  3  4  1  0
  4  5  2  0
  5  6  1  0
  6  7  1  0
  7  8  1  0
  8  9  2  0
  9 10  1  0
 10 11  2  0
 11 12  1  0
 12 13  1  0
 12 14  2  0
 14 15  1  0
 15 16  2  0
 15 17  1  0
 17 18  1  0
  5 19  1  0
 19 20  2  0
 20 21  1  0
 21 22  1  0
 21 23  1  0
 21 24  1  0
 20  2  1  0
 17  6  2  0
 14  8  1  0
  1 25  1  0
  1 26  1  0
  1 27  1  0
  3 28  1  0
  4 29  1  0
  9 30  1  0
 10 31  1  0
 11 32  1  0
 13 33  1  0
 18 34  1  0
 19 35  1  0
M  END
>  <meeko>  (4) 
{"is_sidechain": [false], "free_energy": -9.577, "intermolecular_energy": -11.09, "internal_energy": -0.277}

$$$$
cand_011_out
     RDKit          3D

 35 37  0  0  0  0  0  0  0  0999 V2000
   53.3160  154.3620   26.2900 C   0  0  0  0  0  0  0  0  0  0  0  0
   52.7730  155.3990   27.2360 C   0  0  0  0  0  0  0  0  0  0  0  0
   52.9270  156.7570   26.9240 C   0  0  0  0  0  0  0  0  0  0  0  0
   52.4320  157.7470   27.7760 C   0  0  0  0  0  0  0  0  0  0  0  0
   51.7740  157.4090   28.9620 C   0  0  0  0  0  0  0  0  0  0  0  0
   51.2420  158.4740   29.8390 C   0  0  0  0  0  0  0  0  0  0  0  0
   49.9040  158.2890   30.1640 O   0  0  0  0  0  0  0  0  0  0  0  0
   49.2850  159.2090   30.9730 C   0  0  0  0  0  0  0  0  0  0  0  0
   47.9450  158.9770   31.2870 C   0  0  0  0  0  0  0  0  0  0  0  0
   47.2560  159.8750   32.1060 C   0  0  0  0  0  0  0  0  0  0  0  0
   47.9070  161.0040   32.6090 C   0  0  0  0  0  0  0  0  0  0  0  0
   49.2440  161.2330   32.2950 C   0  0  0  0  0  0  0  0  0  0  0  0
   49.8180  162.3570   32.8200 O   0  0  0  0  0  0  0  0  0  0  0  0
   49.9330  160.3330   31.4760 C   0  0  0  0  0  0  0  0  0  0  0  0
   51.3380  160.5370   31.1220 C   0  0  0  0  0  0  0  0  0  0  0  0
   51.9770  161.5090   31.5190 O   0  0  0  0  0  0  0  0  0  0  0  0
   51.9790  159.5210   30.2560 C   0  0  0  0  0  0  0  0  0  0  0  0
   53.3030  159.7260   29.9140 O   0  0  0  0  0  0  0  0  0  0  0  0
   51.6040  156.0500   29.2660 C   0  0  0  0  0  0  0  0  0  0  0  0
   52.0950  155.0350   28.4200 C   0  0  0  0  0  0  0  0  0  0  0  0
   51.8900  153.5860   28.8050 C   0  0  0  0  0  0  0  0  0  0  0  0
   51.3000  153.4470   30.0250 F   0  0  0  0  0  0  0  0  0  0  0  0
   51.1010  152.8930   27.9350 F   0  0  0  0  0  0  0  0  0  0  0  0
   53.0580  152.8870   28.8720 F   0  0  0  0  0  0  0  0  0  0  0  0
   53.7507  153.5319   26.8661 H   0  0  0  0  0  0  0  0  0  0  0  0
   52.5014  153.9815   25.6562 H   0  0  0  0  0  0  0  0  0  0  0  0
   54.0928  154.8147   25.6562 H   0  0  0  0  0  0  0  0  0  0  0  0
   53.4438  157.0464   25.9971 H   0  0  0  0  0  0  0  0  0  0  0  0
   52.5617  158.8065   27.5102 H   0  0  0  0  0  0  0  0  0  0  0  0
   47.4321  158.0884   30.8902 H   0  0  0  0  0  0  0  0  0  0  0  0
   46.2001  159.6929   32.3549 H   0  0  0  0  0  0  0  0  0  0  0  0
   47.3638  161.7115   33.2527 H   0  0  0  0  0  0  0  0  0  0  0  0
   49.9830  162.4120   33.7410 H   0  0  0  0  0  0  0  0  0  0  0  0
   53.5220  160.0480   29.0620 H   0  0  0  0  0  0  0  0  0  0  0  0
   51.0740  155.7693   30.1881 H   0  0  0  0  0  0  0  0  0  0  0  0
  1  2  1  0
  2  3  2  0
  3  4  1  0
  4  5  2  0
  5  6  1  0
  6  7  1  0
  7  8  1  0
  8  9  2  0
  9 10  1  0
 10 11  2  0
 11 12  1  0
 12 13  1  0
 12 14  2  0
 14 15  1  0
 15 16  2  0
 15 17  1  0
 17 18  1  0
  5 19  1  0
 19 20  2  0
 20 21  1  0
 21 22  1  0
 21 23  1  0
 21 24  1  0
 20  2  1  0
 17  6  2  0
 14  8  1  0
  1 25  1  0
  1 26  1  0
  1 27  1  0
  3 28  1  0
  4 29  1  0
  9 30  1  0
 10 31  1  0
 11 32  1  0
 13 33  1  0
 18 34  1  0
 19 35  1  0
M  END
>  <meeko>  (5) 
{"is_sidechain": [false], "free_energy": -9.499, "intermolecular_energy": -11.108, "internal_energy": -0.168}

$$$$
