cand_037_out
     RDKit          3D

 35 37  0  0  0  0  0  0  0  0999 V2000
   48.2450  158.8360   31.3040 C   0  0  0  0  0  0  0  0  0  0  0  0
   49.6460  158.8730   30.7550 C   0  0  0  0  0  0  0  0  0  0  0  0
   50.1290  157.7600   30.0430 C   0  0  0  0  0  0  0  0  0  0  0  0
   51.4260  157.7330   29.5100 C   0  0  0  0  0  0  0  0  0  0  0  0
   51.9010  156.5350   28.7860 C   0  0  0  0  0  0  0  0  0  0  0  0
   52.5010  156.8410   27.5700 O   0  0  0  0  0  0  0  0  0  0  0  0
   52.9880  155.8200   26.7940 C   0  0  0  0  0  0  0  0  0  0  0  0
   53.5690  156.1720   25.5750 C   0  0  0  0  0  0  0  0  0  0  0  0
   54.0860  155.1810   24.7390 C   0  0  0  0  0  0  0  0  0  0  0  0
   54.0230  153.8390   25.1200 C   0  0  0  0  0  0  0  0  0  0  0  0
   53.4440  153.4900   26.3370 C   0  0  0  0  0  0  0  0  0  0  0  0
   53.4160  152.1590   26.6500 O   0  0  0  0  0  0  0  0  0  0  0  0
   52.9250  154.4830   27.1740 C   0  0  0  0  0  0  0  0  0  0  0  0
   52.3070  154.1600   28.4610 C   0  0  0  0  0  0  0  0  0  0  0  0
   52.2210  153.0050   28.8700 O   0  0  0  0  0  0  0  0  0  0  0  0
   51.7810  155.2840   29.2700 C   0  0  0  0  0  0  0  0  0  0  0  0
   51.2130  154.9690   30.4900 O   0  0  0  0  0  0  0  0  0  0  0  0
   52.2540  158.8410   29.7210 C   0  0  0  0  0  0  0  0  0  0  0  0
   51.7930  159.9500   30.4360 C   0  0  0  0  0  0  0  0  0  0  0  0
   50.4950  159.9770   30.9700 C   0  0  0  0  0  0  0  0  0  0  0  0
   50.0370  161.2040   31.7180 C   0  0  0  0  0  0  0  0  0  0  0  0
   50.0460  161.0470   33.0720 F   0  0  0  0  0  0  0  0  0  0  0  0
   48.2819  158.8370   32.4034 H   0  0  0  0  0  0  0  0  0  0  0  0
   47.6909  159.7198   30.9549 H   0  0  0  0  0  0  0  0  0  0  0  0
   47.7384  157.9242   30.9549 H   0  0  0  0  0  0  0  0  0  0  0  0
   49.4728  156.8887   29.9007 H   0  0  0  0  0  0  0  0  0  0  0  0
   53.6195  157.2287   25.2735 H   0  0  0  0  0  0  0  0  0  0  0  0
   54.5441  155.4577   23.7780 H   0  0  0  0  0  0  0  0  0  0  0  0
   54.4301  153.0591   24.4597 H   0  0  0  0  0  0  0  0  0  0  0  0
   53.8670  151.8460   27.4090 H   0  0  0  0  0  0  0  0  0  0  0  0
   51.0460  155.6450   31.1180 H   0  0  0  0  0  0  0  0  0  0  0  0
   53.2783  158.8393   29.3200 H   0  0  0  0  0  0  0  0  0  0  0  0
   52.4572  160.8145   30.5825 H   0  0  0  0  0  0  0  0  0  0  0  0
   50.7042  162.0394   31.4593 H   0  0  0  0  0  0  0  0  0  0  0  0
   48.9957  161.3962   31.4202 H   0  0  0  0  0  0  0  0  0  0  0  0
  1  2  1  0
  2  3  2  0
  3  4  1  0
  4  5  1  0
  5  6  1  0
  6  7  1  0
  7  8  2  0
  8  9  1  0
  9 10  2  0
 10 11  1  0
 11 12  1  0
 11 13  2  0
 13 14  1  0
 14 15  2  0
 14 16  1  0
 16 17  1  0
  4 18  2  0
 18 19  1  0
 19 20  2  0
 20 21  1  0
 21 22  1  0
 20  2  1  0
 16  5  2  0
 13  7  1  0
  1 23  1  0
  1 24  1  0
  1 25  1  0
  3 26  1  0
  8 27  1  0
  9 28  1  0
 10 29  1  0
 12 30  1  0
 17 31  1  0
 18 32  1  0
 19 33  1  0
 21 34  1  0
 21 35  1  0
M  END
>  <meeko>  (1) 
{"is_sidechain": [false], "free_energy": -11.154, "intermolecular_energy": -13.11, "internal_energy": -0.149}

$$$$
cand_037_out
     RDKit          3D

 35 37  0  0  0  0  0  0  0  0999 V2000
   51.8260  160.9980   30.7460 C   0  0  0  0  0  0  0  0  0  0  0  0
   51.0530  159.7290   30.5160 C   0  0  0  0  0  0  0  0  0  0  0  0
   51.6750  158.6650   29.8370 C   0  0  0  0  0  0  0  0  0  0  0  0
   51.0050  157.4580   29.5890 C   0  0  0  0  0  0  0  0  0  0  0  0
   51.6900  156.3730   28.8530 C   0  0  0  0  0  0  0  0  0  0  0  0
   52.2530  156.8020   27.6570 O   0  0  0  0  0  0  0  0  0  0  0  0
   52.9200  155.8960   26.8740 C   0  0  0  0  0  0  0  0  0  0  0  0
   53.4570  156.3680   25.6740 C   0  0  0  0  0  0  0  0  0  0  0  0
   54.1500  155.4970   24.8320 C   0  0  0  0  0  0  0  0  0  0  0  0
   54.3080  154.1560   25.1880 C   0  0  0  0  0  0  0  0  0  0  0  0
   53.7740  153.6870   26.3850 C   0  0  0  0  0  0  0  0  0  0  0  0
   53.9650  152.3640   26.6720 O   0  0  0  0  0  0  0  0  0  0  0  0
   53.0780  154.5590   27.2280 C   0  0  0  0  0  0  0  0  0  0  0  0
   52.4990  154.1080   28.4950 C   0  0  0  0  0  0  0  0  0  0  0  0
   52.6020  152.9470   28.8800 O   0  0  0  0  0  0  0  0  0  0  0  0
   51.7750  155.1100   29.3120 C   0  0  0  0  0  0  0  0  0  0  0  0
   51.2450  154.6770   30.5130 O   0  0  0  0  0  0  0  0  0  0  0  0
   49.6790  157.3340   30.0150 C   0  0  0  0  0  0  0  0  0  0  0  0
   49.0430  158.3850   30.6810 C   0  0  0  0  0  0  0  0  0  0  0  0
   49.7120  159.5940   30.9290 C   0  0  0  0  0  0  0  0  0  0  0  0
   48.9900  160.6920   31.6670 C   0  0  0  0  0  0  0  0  0  0  0  0
   48.2680  161.5110   30.8500 F   0  0  0  0  0  0  0  0  0  0  0  0
   51.9320  161.1720   31.8270 H   0  0  0  0  0  0  0  0  0  0  0  0
   52.8228  160.9080   30.2896 H   0  0  0  0  0  0  0  0  0  0  0  0
   51.2887  161.8424   30.2896 H   0  0  0  0  0  0  0  0  0  0  0  0
   52.7128  158.7828   29.4920 H   0  0  0  0  0  0  0  0  0  0  0  0
   53.3339  157.4244   25.3931 H   0  0  0  0  0  0  0  0  0  0  0  0
   54.5725  155.8675   23.8863 H   0  0  0  0  0  0  0  0  0  0  0  0
   54.8541  153.4707   24.5230 H   0  0  0  0  0  0  0  0  0  0  0  0
   53.6820  152.0170   27.4950 H   0  0  0  0  0  0  0  0  0  0  0  0
   51.8120  154.4920   31.2350 H   0  0  0  0  0  0  0  0  0  0  0  0
   49.1309  156.3996   29.8239 H   0  0  0  0  0  0  0  0  0  0  0  0
   48.0024  158.2631   31.0160 H   0  0  0  0  0  0  0  0  0  0  0  0
   48.3040  160.2313   32.3930 H   0  0  0  0  0  0  0  0  0  0  0  0
   49.7559  161.3133   32.1542 H   0  0  0  0  0  0  0  0  0  0  0  0
  1  2  1  0
  2  3  2  0
  3  4  1  0
  4  5  1  0
  5  6  1  0
  6  7  1  0
  7  8  2  0
  8  9  1  0
  9 10  2  0
 10 11  1  0
 11 12  1  0
 11 13  2  0
 13 14  1  0
 14 15  2  0
 14 16  1  0
 16 17  1  0
  4 18  2  0
 18 19  1  0
 19 20  2  0
 20 21  1  0
 21 22  1  0
 20  2  1  0
 16  5  2  0
 13  7  1  0
  1 23  1  0
  1 24  1  0
  1 25  1  0
  3 26  1  0
  8 27  1  0
  9 28  1  0
 10 29  1  0
 12 30  1  0
 17 31  1  0
 18 32  1  0
 19 33  1  0
 21 34  1  0
 21 35  1  0
M  END
>  <meeko>  (2) 
{"is_sidechain": [false], "free_energy": -10.982, "intermolecular_energy": -12.82, "internal_energy": -0.237}

$$$$
cand_037_out
     RDKit          3D

 35 37  0  0  0  0  0  0  0  0999 V2000
   53.4670  155.9740   25.8460 C   0  0  0  0  0  0  0  0  0  0  0  0
   52.7180  155.7720   27.1350 C   0  0  0  0  0  0  0  0  0  0  0  0
   52.2710  156.9000   27.8480 C   0  0  0  0  0  0  0  0  0  0  0  0
   51.5700  156.7780   29.0570 C   0  0  0  0  0  0  0  0  0  0  0  0
   51.1360  157.9900   29.7830 C   0  0  0  0  0  0  0  0  0  0  0  0
   49.8130  157.9230   30.2040 O   0  0  0  0  0  0  0  0  0  0  0  0
   49.2810  158.9830   30.8920 C   0  0  0  0  0  0  0  0  0  0  0  0
   47.9440  158.8790   31.2830 C   0  0  0  0  0  0  0  0  0  0  0  0
   47.3430  159.9230   31.9880 C   0  0  0  0  0  0  0  0  0  0  0  0
   48.0750  161.0690   32.3040 C   0  0  0  0  0  0  0  0  0  0  0  0
   49.4080  161.1700   31.9150 C   0  0  0  0  0  0  0  0  0  0  0  0
   50.0660  162.3190   32.2580 O   0  0  0  0  0  0  0  0  0  0  0  0
   50.0100  160.1260   31.2070 C   0  0  0  0  0  0  0  0  0  0  0  0
   51.4080  160.1920   30.7780 C   0  0  0  0  0  0  0  0  0  0  0  0
   52.1200  161.1620   31.0250 O   0  0  0  0  0  0  0  0  0  0  0  0
   51.9500  159.0350   30.0270 C   0  0  0  0  0  0  0  0  0  0  0  0
   53.2750  159.1010   29.6390 O   0  0  0  0  0  0  0  0  0  0  0  0
   51.3390  155.4950   29.5630 C   0  0  0  0  0  0  0  0  0  0  0  0
   51.7860  154.3640   28.8730 C   0  0  0  0  0  0  0  0  0  0  0  0
   52.4880  154.4860   27.6640 C   0  0  0  0  0  0  0  0  0  0  0  0
   52.9340  153.2370   26.9470 C   0  0  0  0  0  0  0  0  0  0  0  0
   51.9140  152.5680   26.3380 F   0  0  0  0  0  0  0  0  0  0  0  0
   54.5075  156.2546   26.0666 H   0  0  0  0  0  0  0  0  0  0  0  0
   53.4544  155.0404   25.2645 H   0  0  0  0  0  0  0  0  0  0  0  0
   52.9867  156.7747   25.2645 H   0  0  0  0  0  0  0  0  0  0  0  0
   52.4766  157.9034   27.4469 H   0  0  0  0  0  0  0  0  0  0  0  0
   47.3661  157.9763   31.0358 H   0  0  0  0  0  0  0  0  0  0  0  0
   46.2899  159.8426   32.2954 H   0  0  0  0  0  0  0  0  0  0  0  0
   47.5994  161.8908   32.8594 H   0  0  0  0  0  0  0  0  0  0  0  0
   49.7940  163.1400   31.8970 H   0  0  0  0  0  0  0  0  0  0  0  0
   53.7860  159.8590   29.8480 H   0  0  0  0  0  0  0  0  0  0  0  0
   50.7998  155.3742   30.5141 H   0  0  0  0  0  0  0  0  0  0  0  0
   51.5844  153.3638   29.2839 H   0  0  0  0  0  0  0  0  0  0  0  0
   53.6718  153.5192   26.1815 H   0  0  0  0  0  0  0  0  0  0  0  0
   53.3580  152.5618   27.7048 H   0  0  0  0  0  0  0  0  0  0  0  0
  1  2  1  0
  2  3  2  0
  3  4  1  0
  4  5  1  0
  5  6  1  0
  6  7  1  0
  7  8  2  0
  8  9  1  0
  9 10  2  0
 10 11  1  0
 11 12  1  0
 11 13  2  0
 13 14  1  0
 14 15  2  0
 14 16  1  0
 16 17  1  0
  4 18  2  0
 18 19  1  0
 19 20  2  0
 20 21  1  0
 21 22  1  0
 20  2  1  0
 16  5  2  0
 13  7  1  0
  1 23  1  0
  1 24  1  0
  1 25  1  0
  3 26  1  0
  8 27  1  0
  9 28  1  0
 10 29  1  0
 12 30  1  0
 17 31  1  0
 18 32  1  0
 19 33  1  0
 21 34  1  0
 21 35  1  0
M  END
>  <meeko>  (3) 
{"is_sidechain": [false], "free_energy": -10.629, "intermolecular_energy": -12.52, "internal_energy": -0.122}

$$$$
cand_037_out
     RDKit          3D

 35 37  0  0  0  0  0  0  0  0999 V2000
   53.6000  155.7760   25.5590 C   0  0  0  0  0  0  0  0  0  0  0  0
   52.8960  155.4120   26.8380 C   0  0  0  0  0  0  0  0  0  0  0  0
   52.2220  156.4180   27.5550 C   0  0  0  0  0  0  0  0  0  0  0  0
   51.5490  156.1420   28.7550 C   0  0  0  0  0  0  0  0  0  0  0  0
   50.8700  157.2330   29.4860 C   0  0  0  0  0  0  0  0  0  0  0  0
   51.7170  158.2940   29.7820 O   0  0  0  0  0  0  0  0  0  0  0  0
   51.2150  159.3760   30.4590 C   0  0  0  0  0  0  0  0  0  0  0  0
   52.1040  160.4130   30.7480 C   0  0  0  0  0  0  0  0  0  0  0  0
   51.6560  161.5430   31.4340 C   0  0  0  0  0  0  0  0  0  0  0  0
   50.3210  161.6390   31.8290 C   0  0  0  0  0  0  0  0  0  0  0  0
   49.4350  160.6050   31.5390 C   0  0  0  0  0  0  0  0  0  0  0  0
   48.1420  160.7640   31.9550 O   0  0  0  0  0  0  0  0  0  0  0  0
   49.8840  159.4720   30.8540 C   0  0  0  0  0  0  0  0  0  0  0  0
   48.9860  158.3620   30.5300 C   0  0  0  0  0  0  0  0  0  0  0  0
   47.7970  158.3750   30.8380 O   0  0  0  0  0  0  0  0  0  0  0  0
   49.5630  157.2030   29.8070 C   0  0  0  0  0  0  0  0  0  0  0  0
   48.7040  156.1670   29.4940 O   0  0  0  0  0  0  0  0  0  0  0  0
   51.5800  154.8340   29.2480 C   0  0  0  0  0  0  0  0  0  0  0  0
   52.2550  153.8260   28.5540 C   0  0  0  0  0  0  0  0  0  0  0  0
   52.9290  154.1010   27.3540 C   0  0  0  0  0  0  0  0  0  0  0  0
   53.6270  152.9760   26.6310 C   0  0  0  0  0  0  0  0  0  0  0  0
   52.8720  152.4140   25.6460 F   0  0  0  0  0  0  0  0  0  0  0  0
   54.5546  156.2696   25.7936 H   0  0  0  0  0  0  0  0  0  0  0  0
   53.7925  154.8644   24.9742 H   0  0  0  0  0  0  0  0  0  0  0  0
   52.9675  156.4601   24.9742 H   0  0  0  0  0  0  0  0  0  0  0  0
   52.2227  157.4465   27.1650 H   0  0  0  0  0  0  0  0  0  0  0  0
   53.1561  160.3396   30.4355 H   0  0  0  0  0  0  0  0  0  0  0  0
   52.3565  162.3594   31.6637 H   0  0  0  0  0  0  0  0  0  0  0  0
   49.9692  162.5305   32.3688 H   0  0  0  0  0  0  0  0  0  0  0  0
   47.9630  161.0540   32.8280 H   0  0  0  0  0  0  0  0  0  0  0  0
   47.9740  156.3200   28.9270 H   0  0  0  0  0  0  0  0  0  0  0  0
   51.0678  154.5958   30.1919 H   0  0  0  0  0  0  0  0  0  0  0  0
   52.2581  152.8015   28.9544 H   0  0  0  0  0  0  0  0  0  0  0  0
   54.5497  153.3706   26.1806 H   0  0  0  0  0  0  0  0  0  0  0  0
   53.8293  152.1897   27.3731 H   0  0  0  0  0  0  0  0  0  0  0  0
  1  2  1  0
  2  3  2  0
  3  4  1  0
  4  5  1  0
  5  6  1  0
  6  7  1  0
  7  8  2  0
  8  9  1  0
  9 10  2  0
 10 11  1  0
 11 12  1  0
 11 13  2  0
 13 14  1  0
 14 15  2  0
 14 16  1  0
 16 17  1  0
  4 18  2  0
 18 19  1  0
 19 20  2  0
 20 21  1  0
 21 22  1  0
 20  2  1  0
 16  5  2  0
 13  7  1  0
  1 23  1  0
  1 24  1  0
  1 25  1  0
  3 26  1  0
  8 27  1  0
  9 28  1  0
 10 29  1  0
 12 30  1  0
 17 31  1  0
 18 32  1  0
 19 33  1  0
 21 34  1  0
 21 35  1  0
M  END
>  <meeko>  (4) 
{"is_sidechain": [false], "free_energy": -8.782, "intermolecular_energy": -10.185, "internal_energy": -0.285}

$$$$
