cand_047_out
     RDKit          3D

 38 40  0  0  0  0  0  0  0  0999 V2000
   48.0940  158.8480   31.2430 C   0  0  0  0  0  0  0  0  0  0  0  0
   49.5050  158.8820   30.7200 C   0  0  0  0  0  0  0  0  0  0  0  0
   49.9980  157.7570   30.0310 C   0  0  0  0  0  0  0  0  0  0  0  0
   51.3040  157.7200   29.5230 C   0  0  0  0  0  0  0  0  0  0  0  0
   51.8310  156.5310   28.8180 C   0  0  0  0  0  0  0  0  0  0  0  0
   52.3810  156.8370   27.5780 O   0  0  0  0  0  0  0  0  0  0  0  0
   52.9080  155.8250   26.8190 C   0  0  0  0  0  0  0  0  0  0  0  0
   53.4630  156.1800   25.5880 C   0  0  0  0  0  0  0  0  0  0  0  0
   54.0160  155.1970   24.7640 C   0  0  0  0  0  0  0  0  0  0  0  0
   54.0120  153.8600   25.1690 C   0  0  0  0  0  0  0  0  0  0  0  0
   53.4560  153.5090   26.3970 C   0  0  0  0  0  0  0  0  0  0  0  0
   53.4840  152.1830   26.7310 O   0  0  0  0  0  0  0  0  0  0  0  0
   52.9050  154.4940   27.2210 C   0  0  0  0  0  0  0  0  0  0  0  0
   52.3100  154.1670   28.5190 C   0  0  0  0  0  0  0  0  0  0  0  0
   52.2620  153.0140   28.9410 O   0  0  0  0  0  0  0  0  0  0  0  0
   51.7600  155.2850   29.3210 C   0  0  0  0  0  0  0  0  0  0  0  0
   51.1900  154.9640   30.5390 O   0  0  0  0  0  0  0  0  0  0  0  0
   52.1320  158.8270   29.7320 C   0  0  0  0  0  0  0  0  0  0  0  0
   51.6600  159.9480   30.4200 C   0  0  0  0  0  0  0  0  0  0  0  0
   50.3500  159.9890   30.9240 C   0  0  0  0  0  0  0  0  0  0  0  0
   49.8930  161.2400   31.6380 C   0  0  0  0  0  0  0  0  0  0  0  0
   50.2370  161.2140   33.1180 C   0  0  0  0  0  0  0  0  0  0  0  0
   49.4530  160.2850   33.7320 F   0  0  0  0  0  0  0  0  0  0  0  0
   48.1105  158.8484   32.3429 H   0  0  0  0  0  0  0  0  0  0  0  0
   47.5485  159.7333   30.8842 H   0  0  0  0  0  0  0  0  0  0  0  0
   47.5918  157.9375   30.8842 H   0  0  0  0  0  0  0  0  0  0  0  0
   49.3420  156.8857   29.8879 H   0  0  0  0  0  0  0  0  0  0  0  0
   53.4648  157.2323   25.2675 H   0  0  0  0  0  0  0  0  0  0  0  0
   54.4552  155.4760   23.7949 H   0  0  0  0  0  0  0  0  0  0  0  0
   54.4470  153.0861   24.5195 H   0  0  0  0  0  0  0  0  0  0  0  0
   52.9780  151.8730   27.4570 H   0  0  0  0  0  0  0  0  0  0  0  0
   51.2350  154.0850   30.8600 H   0  0  0  0  0  0  0  0  0  0  0  0
   53.1640  158.8154   29.3515 H   0  0  0  0  0  0  0  0  0  0  0  0
   52.3249  160.8116   30.5690 H   0  0  0  0  0  0  0  0  0  0  0  0
   50.3818  162.1103   31.1759 H   0  0  0  0  0  0  0  0  0  0  0  0
   48.7985  161.3004   31.5466 H   0  0  0  0  0  0  0  0  0  0  0  0
   51.2965  160.9480   33.2472 H   0  0  0  0  0  0  0  0  0  0  0  0
   50.0609  162.2052   33.5613 H   0  0  0  0  0  0  0  0  0  0  0  0
  1  2  1  0
  2  3  2  0
  3  4  1  0
  4  5  1  0
  5  6  1  0
  6  7  1  0
  7  8  2  0
  8  9  1  0
  9 10  2  0
 10 11  1  0
 11 12  1  0
 11 13  2  0
 13 14  1  0
 14 15  2  0
 14 16  1  0
 16 17  1  0
  4 18  2  0
 18 19  1  0
 19 20  2  0
 20 21  1  0
 21 22  1  0
 22 23  1  0
 20  2  1  0
 16  5  2  0
 13  7  1  0
  1 24  1  0
  1 25  1  0
  1 26  1  0
  3 27  1  0
  8 28  1  0
  9 29  1  0
 10 30  1  0
 12 31  1  0
 17 32  1  0
 18 33  1  0
 19 34  1  0
 21 35  1  0
 21 36  1  0
 22 37  1  0
 22 38  1  0
M  END
>  <meeko>  (1) 
{"is_sidechain": [false], "free_energy": -11.114, "intermolecular_energy": -13.713, "internal_energy": -0.305}

$$$$
cand_047_out
     RDKit          3D

 38 40  0  0  0  0  0  0  0  0999 V2000
   51.8920  161.0760   30.6340 C   0  0  0  0  0  0  0  0  0  0  0  0
   51.1240  159.7940   30.4590 C   0  0  0  0  0  0  0  0  0  0  0  0
   51.7430  158.7210   29.7890 C   0  0  0  0  0  0  0  0  0  0  0  0
   51.0830  157.5000   29.5870 C   0  0  0  0  0  0  0  0  0  0  0  0
   51.7240  156.3800   28.8650 C   0  0  0  0  0  0  0  0  0  0  0  0
   52.2680  156.7640   27.6450 O   0  0  0  0  0  0  0  0  0  0  0  0
   52.8950  155.8210   26.8720 C   0  0  0  0  0  0  0  0  0  0  0  0
   53.4410  156.2530   25.6630 C   0  0  0  0  0  0  0  0  0  0  0  0
   54.0920  155.3420   24.8270 C   0  0  0  0  0  0  0  0  0  0  0  0
   54.1950  154.0010   25.2000 C   0  0  0  0  0  0  0  0  0  0  0  0
   53.6490  153.5710   26.4060 C   0  0  0  0  0  0  0  0  0  0  0  0
   53.7850  152.2450   26.7090 O   0  0  0  0  0  0  0  0  0  0  0  0
   52.9990  154.4840   27.2430 C   0  0  0  0  0  0  0  0  0  0  0  0
   52.4120  154.0740   28.5190 C   0  0  0  0  0  0  0  0  0  0  0  0
   52.4550  152.9110   28.9130 O   0  0  0  0  0  0  0  0  0  0  0  0
   51.7520  155.1190   29.3360 C   0  0  0  0  0  0  0  0  0  0  0  0
   51.1880  154.7200   30.5340 O   0  0  0  0  0  0  0  0  0  0  0  0
   49.7710  157.3690   30.0500 C   0  0  0  0  0  0  0  0  0  0  0  0
   49.1390  158.4260   30.7110 C   0  0  0  0  0  0  0  0  0  0  0  0
   49.8020  159.6460   30.9200 C   0  0  0  0  0  0  0  0  0  0  0  0
   49.0730  160.7420   31.6620 C   0  0  0  0  0  0  0  0  0  0  0  0
   49.4820  160.8160   33.1240 C   0  0  0  0  0  0  0  0  0  0  0  0
   49.3040  159.5890   33.6880 F   0  0  0  0  0  0  0  0  0  0  0  0
   52.0172  161.2849   31.7067 H   0  0  0  0  0  0  0  0  0  0  0  0
   52.8806  160.9786   30.1616 H   0  0  0  0  0  0  0  0  0  0  0  0
   51.3397  161.9017   30.1616 H   0  0  0  0  0  0  0  0  0  0  0  0
   52.7701  158.8436   29.4146 H   0  0  0  0  0  0  0  0  0  0  0  0
   53.3591  157.3096   25.3682 H   0  0  0  0  0  0  0  0  0  0  0  0
   54.5237  155.6820   23.8741 H   0  0  0  0  0  0  0  0  0  0  0  0
   54.7074  153.2844   24.5413 H   0  0  0  0  0  0  0  0  0  0  0  0
   53.0950  151.7940   27.1560 H   0  0  0  0  0  0  0  0  0  0  0  0
   51.5200  153.9640   30.9780 H   0  0  0  0  0  0  0  0  0  0  0  0
   49.2300  156.4242   29.8926 H   0  0  0  0  0  0  0  0  0  0  0  0
   48.1077  158.3004   31.0726 H   0  0  0  0  0  0  0  0  0  0  0  0
   49.2987  161.7056   31.1818 H   0  0  0  0  0  0  0  0  0  0  0  0
   47.9968  160.5178   31.6234 H   0  0  0  0  0  0  0  0  0  0  0  0
   50.5399  161.1081   33.1985 H   0  0  0  0  0  0  0  0  0  0  0  0
   48.8682  161.5631   33.6484 H   0  0  0  0  0  0  0  0  0  0  0  0
  1  2  1  0
  2  3  2  0
  3  4  1  0
  4  5  1  0
  5  6  1  0
  6  7  1  0
  7  8  2  0
  8  9  1  0
  9 10  2  0
 10 11  1  0
 11 12  1  0
 11 13  2  0
 13 14  1  0
 14 15  2  0
 14 16  1  0
 16 17  1  0
  4 18  2  0
 18 19  1  0
 19 20  2  0
 20 21  1  0
 21 22  1  0
 22 23  1  0
 20  2  1  0
 16  5  2  0
 13  7  1  0
  1 24  1  0
  1 25  1  0
  1 26  1  0
  3 27  1  0
  8 28  1  0
  9 29  1  0
 10 30  1  0
 12 31  1  0
 17 32  1  0
 18 33  1  0
 19 34  1  0
 21 35  1  0
 21 36  1  0
 22 37  1  0
 22 38  1  0
M  END
>  <meeko>  (2) 
{"is_sidechain": [false], "free_energy": -11.006, "intermolecular_energy": -13.699, "internal_energy": -0.185}

$$$$
cand_047_out
     RDKit          3D

 38 40  0  0  0  0  0  0  0  0999 V2000
   48.7320  157.8110   30.6900 C   0  0  0  0  0  0  0  0  0  0  0  0
   50.1120  157.8420   30.0930 C   0  0  0  0  0  0  0  0  0  0  0  0
   50.5420  156.7400   29.3270 C   0  0  0  0  0  0  0  0  0  0  0  0
   51.8180  156.7010   28.7460 C   0  0  0  0  0  0  0  0  0  0  0  0
   52.2790  155.5370   27.9600 C   0  0  0  0  0  0  0  0  0  0  0  0
   52.9590  155.9000   26.8030 O   0  0  0  0  0  0  0  0  0  0  0  0
   53.4430  154.9160   25.9810 C   0  0  0  0  0  0  0  0  0  0  0  0
   54.1320  155.3260   24.8390 C   0  0  0  0  0  0  0  0  0  0  0  0
   54.6490  154.3730   23.9580 C   0  0  0  0  0  0  0  0  0  0  0  0
   54.4760  153.0120   24.2180 C   0  0  0  0  0  0  0  0  0  0  0  0
   53.7880  152.6060   25.3580 C   0  0  0  0  0  0  0  0  0  0  0  0
   53.6540  151.2590   25.5520 O   0  0  0  0  0  0  0  0  0  0  0  0
   53.2720  153.5600   26.2400 C   0  0  0  0  0  0  0  0  0  0  0  0
   52.5410  153.1750   27.4490 C   0  0  0  0  0  0  0  0  0  0  0  0
   52.3420  151.9980   27.7430 O   0  0  0  0  0  0  0  0  0  0  0  0
   52.0420  154.2620   28.3220 C   0  0  0  0  0  0  0  0  0  0  0  0
   51.3420  153.8890   29.4550 O   0  0  0  0  0  0  0  0  0  0  0  0
   52.6800  157.7810   28.9600 C   0  0  0  0  0  0  0  0  0  0  0  0
   52.2710  158.8780   29.7230 C   0  0  0  0  0  0  0  0  0  0  0  0
   50.9920  158.9210   30.2990 C   0  0  0  0  0  0  0  0  0  0  0  0
   50.6020  160.1460   31.0940 C   0  0  0  0  0  0  0  0  0  0  0  0
   49.5880  161.0080   30.3590 C   0  0  0  0  0  0  0  0  0  0  0  0
   49.6290  160.6950   29.0340 F   0  0  0  0  0  0  0  0  0  0  0  0
   48.8071  157.8127   31.7874 H   0  0  0  0  0  0  0  0  0  0  0  0
   48.1696  158.6967   30.3596 H   0  0  0  0  0  0  0  0  0  0  0  0
   48.2099  156.9009   30.3596 H   0  0  0  0  0  0  0  0  0  0  0  0
   49.8600  155.8894   29.1811 H   0  0  0  0  0  0  0  0  0  0  0  0
   54.2679  156.3979   24.6327 H   0  0  0  0  0  0  0  0  0  0  0  0
   55.1932  154.6953   23.0580 H   0  0  0  0  0  0  0  0  0  0  0  0
   54.8826  152.2622   23.5234 H   0  0  0  0  0  0  0  0  0  0  0  0
   53.6900  150.6750   24.8190 H   0  0  0  0  0  0  0  0  0  0  0  0
   51.5100  153.0580   29.8550 H   0  0  0  0  0  0  0  0  0  0  0  0
   53.6896  157.7670   28.5236 H   0  0  0  0  0  0  0  0  0  0  0  0
   52.9619  159.7204   29.8744 H   0  0  0  0  0  0  0  0  0  0  0  0
   50.1655  159.8234   32.0508 H   0  0  0  0  0  0  0  0  0  0  0  0
   51.5081  160.7496   31.2510 H   0  0  0  0  0  0  0  0  0  0  0  0
   48.5803  160.8130   30.7546 H   0  0  0  0  0  0  0  0  0  0  0  0
   49.8274  162.0722   30.5007 H   0  0  0  0  0  0  0  0  0  0  0  0
  1  2  1  0
  2  3  2  0
  3  4  1  0
  4  5  1  0
  5  6  1  0
  6  7  1  0
  7  8  2  0
  8  9  1  0
  9 10  2  0
 10 11  1  0
 11 12  1  0
 11 13  2  0
 13 14  1  0
 14 15  2  0
 14 16  1  0
 16 17  1  0
  4 18  2  0
 18 19  1  0
 19 20  2  0
 20 21  1  0
 21 22  1  0
 22 23  1  0
 20  2  1  0
 16  5  2  0
 13  7  1  0
  1 24  1  0
  1 25  1  0
  1 26  1  0
  3 27  1  0
  8 28  1  0
  9 29  1  0
 10 30  1  0
 12 31  1  0
 17 32  1  0
 18 33  1  0
 19 34  1  0
 21 35  1  0
 21 36  1  0
 22 37  1  0
 22 38  1  0
M  END
>  <meeko>  (3) 
{"is_sidechain": [false], "free_energy": -10.292, "intermolecular_energy": -12.974, "internal_energy": -0.029}

$$$$
cand_047_out
     RDKit          3D

 38 40  0  0  0  0  0  0  0  0999 V2000
   53.5980  156.1890   25.9420 C   0  0  0  0  0  0  0  0  0  0  0  0
   52.8500  155.9830   27.2310 C   0  0  0  0  0  0  0  0  0  0  0  0
   52.3590  157.1110   27.9170 C   0  0  0  0  0  0  0  0  0  0  0  0
   51.6590  156.9910   29.1260 C   0  0  0  0  0  0  0  0  0  0  0  0
   51.1610  158.1750   29.8580 C   0  0  0  0  0  0  0  0  0  0  0  0
   49.8260  158.0610   30.2280 O   0  0  0  0  0  0  0  0  0  0  0  0
   49.2380  159.0910   30.9150 C   0  0  0  0  0  0  0  0  0  0  0  0
   47.9010  158.9270   31.2800 C   0  0  0  0  0  0  0  0  0  0  0  0
   47.2410  159.9390   31.9810 C   0  0  0  0  0  0  0  0  0  0  0  0
   47.9170  161.1150   32.3150 C   0  0  0  0  0  0  0  0  0  0  0  0
   49.2510  161.2760   31.9490 C   0  0  0  0  0  0  0  0  0  0  0  0
   49.8530  162.4510   32.3070 O   0  0  0  0  0  0  0  0  0  0  0  0
   49.9110  160.2620   31.2490 C   0  0  0  0  0  0  0  0  0  0  0  0
   51.3120  160.3910   30.8460 C   0  0  0  0  0  0  0  0  0  0  0  0
   51.9720  161.3970   31.0960 O   0  0  0  0  0  0  0  0  0  0  0  0
   51.9220  159.2560   30.1140 C   0  0  0  0  0  0  0  0  0  0  0  0
   53.2420  159.3930   29.7260 O   0  0  0  0  0  0  0  0  0  0  0  0
   51.4710  155.7130   29.6610 C   0  0  0  0  0  0  0  0  0  0  0  0
   51.9570  154.5840   28.9980 C   0  0  0  0  0  0  0  0  0  0  0  0
   52.6530  154.7030   27.7840 C   0  0  0  0  0  0  0  0  0  0  0  0
   53.1330  153.4420   27.1030 C   0  0  0  0  0  0  0  0  0  0  0  0
   52.2410  153.0420   25.9400 C   0  0  0  0  0  0  0  0  0  0  0  0
   52.9670  153.1150   24.7890 F   0  0  0  0  0  0  0  0  0  0  0  0
   54.6370  156.4751   26.1627 H   0  0  0  0  0  0  0  0  0  0  0  0
   53.5904  155.2553   25.3604 H   0  0  0  0  0  0  0  0  0  0  0  0
   53.1135  156.9872   25.3604 H   0  0  0  0  0  0  0  0  0  0  0  0
   52.5291  158.1118   27.4934 H   0  0  0  0  0  0  0  0  0  0  0  0
   47.3676  158.0019   31.0160 H   0  0  0  0  0  0  0  0  0  0  0  0
   46.1877  159.8098   32.2704 H   0  0  0  0  0  0  0  0  0  0  0  0
   47.3966  161.9123   32.8660 H   0  0  0  0  0  0  0  0  0  0  0  0
   50.6660  162.4370   32.7720 H   0  0  0  0  0  0  0  0  0  0  0  0
   53.5170  159.0820   28.8870 H   0  0  0  0  0  0  0  0  0  0  0  0
   50.9346  155.5955   30.6142 H   0  0  0  0  0  0  0  0  0  0  0  0
   51.7923  153.5872   29.4329 H   0  0  0  0  0  0  0  0  0  0  0  0
   54.1527  153.6093   26.7260 H   0  0  0  0  0  0  0  0  0  0  0  0
   53.1079  152.6284   27.8429 H   0  0  0  0  0  0  0  0  0  0  0  0
   51.8809  152.0129   26.0862 H   0  0  0  0  0  0  0  0  0  0  0  0
   51.3752  153.7179   25.8812 H   0  0  0  0  0  0  0  0  0  0  0  0
  1  2  1  0
  2  3  2  0
  3  4  1  0
  4  5  1  0
  5  6  1  0
  6  7  1  0
  7  8  2  0
  8  9  1  0
  9 10  2  0
 10 11  1  0
 11 12  1  0
 11 13  2  0
 13 14  1  0
 14 15  2  0
 14 16  1  0
 16 17  1  0
  4 18  2  0
 18 19  1  0
 19 20  2  0
 20 21  1  0
 21 22  1  0
 22 23  1  0
 20  2  1  0
 16  5  2  0
 13  7  1  0
  1 24  1  0
  1 25  1  0
  1 26  1  0
  3 27  1  0
  8 28  1  0
  9 29  1  0
 10 30  1  0
 12 31  1  0
 17 32  1  0
 18 33  1  0
 19 34  1  0
 21 35  1  0
 21 36  1  0
 22 37  1  0
 22 38  1  0
M  END
>  <meeko>  (4) 
{"is_sidechain": [false], "free_energy": -10.286, "intermolecular_energy": -12.859, "internal_energy": -0.137}

$$$$
cand_047_out
     RDKit          3D

 38 40  0  0  0  0  0  0  0  0999 V2000
   51.8610  153.3200   28.9420 C   0  0  0  0  0  0  0  0  0  0  0  0
   52.1200  154.7350   28.5010 C   0  0  0  0  0  0  0  0  0  0  0  0
   51.6350  155.7900   29.2970 C   0  0  0  0  0  0  0  0  0  0  0  0
   51.8360  157.1320   28.9420 C   0  0  0  0  0  0  0  0  0  0  0  0
   51.3100  158.2420   29.7650 C   0  0  0  0  0  0  0  0  0  0  0  0
   49.9680  158.0820   30.0940 O   0  0  0  0  0  0  0  0  0  0  0  0
   49.3540  159.0410   30.8580 C   0  0  0  0  0  0  0  0  0  0  0  0
   48.0110  158.8330   31.1760 C   0  0  0  0  0  0  0  0  0  0  0  0
   47.3250  159.7720   31.9500 C   0  0  0  0  0  0  0  0  0  0  0  0
   47.9810  160.9190   32.4020 C   0  0  0  0  0  0  0  0  0  0  0  0
   49.3200  161.1250   32.0820 C   0  0  0  0  0  0  0  0  0  0  0  0
   49.9000  162.2690   32.5570 O   0  0  0  0  0  0  0  0  0  0  0  0
   50.0060  160.1830   31.3090 C   0  0  0  0  0  0  0  0  0  0  0  0
   51.4140  160.3620   30.9500 C   0  0  0  0  0  0  0  0  0  0  0  0
   52.0570  161.3480   31.3040 O   0  0  0  0  0  0  0  0  0  0  0  0
   52.0520  159.3030   30.1340 C   0  0  0  0  0  0  0  0  0  0  0  0
   53.3790  159.4860   29.7900 O   0  0  0  0  0  0  0  0  0  0  0  0
   52.5180  157.4110   27.7540 C   0  0  0  0  0  0  0  0  0  0  0  0
   53.0000  156.3750   26.9490 C   0  0  0  0  0  0  0  0  0  0  0  0
   52.8050  155.0320   27.3070 C   0  0  0  0  0  0  0  0  0  0  0  0
   53.3710  153.9580   26.4060 C   0  0  0  0  0  0  0  0  0  0  0  0
   54.0180  154.5380   25.1590 C   0  0  0  0  0  0  0  0  0  0  0  0
   53.3770  154.0410   24.0650 F   0  0  0  0  0  0  0  0  0  0  0  0
   51.8526  153.2742   30.0410 H   0  0  0  0  0  0  0  0  0  0  0  0
   50.8870  152.9874   28.5537 H   0  0  0  0  0  0  0  0  0  0  0  0
   52.6540  152.6640   28.5537 H   0  0  0  0  0  0  0  0  0  0  0  0
   51.0847  155.5561   30.2203 H   0  0  0  0  0  0  0  0  0  0  0  0
   47.4935  157.9309   30.8177 H   0  0  0  0  0  0  0  0  0  0  0  0
   46.2673  159.6078   32.2036 H   0  0  0  0  0  0  0  0  0  0  0  0
   47.4402  161.6589   33.0103 H   0  0  0  0  0  0  0  0  0  0  0  0
   50.3650  162.2550   33.3700 H   0  0  0  0  0  0  0  0  0  0  0  0
   53.6220  160.1980   29.2320 H   0  0  0  0  0  0  0  0  0  0  0  0
   52.6769  158.4561   27.4498 H   0  0  0  0  0  0  0  0  0  0  0  0
   53.5400  156.6158   26.0214 H   0  0  0  0  0  0  0  0  0  0  0  0
   54.1276  153.3884   26.9656 H   0  0  0  0  0  0  0  0  0  0  0  0
   52.5398  153.3123   26.0864 H   0  0  0  0  0  0  0  0  0  0  0  0
   53.9316  155.6345   25.1727 H   0  0  0  0  0  0  0  0  0  0  0  0
   55.0830  154.2646   25.1267 H   0  0  0  0  0  0  0  0  0  0  0  0
  1  2  1  0
  2  3  2  0
  3  4  1  0
  4  5  1  0
  5  6  1  0
  6  7  1  0
  7  8  2  0
  8  9  1  0
  9 10  2  0
 10 11  1  0
 11 12  1  0
 11 13  2  0
 13 14  1  0
 14 15  2  0
 14 16  1  0
 16 17  1  0
  4 18  2  0
 18 19  1  0
 19 20  2  0
 20 21  1  0
 21 22  1  0
 22 23  1  0
 20  2  1  0
 16  5  2  0
 13  7  1  0
  1 24  1  0
  1 25  1  0
  1 26  1  0
  3 27  1  0
  8 28  1  0
  9 29  1  0
 10 30  1  0
 12 31  1  0
 17 32  1  0
 18 33  1  0
 19 34  1  0
 21 35  1  0
 21 36  1  0
 22 37  1  0
 22 38  1  0
M  END
>  <meeko>  (5) 
{"is_sidechain": [false], "free_energy": -9.976, "intermolecular_energy": -12.434, "internal_energy": -0.18}

$$$$
cand_047_out
     RDKit          3D

 38 40  0  0  0  0  0  0  0  0999 V2000
   51.8900  152.9580   28.5500 C   0  0  0  0  0  0  0  0  0  0  0  0
   52.0900  154.4210   28.2650 C   0  0  0  0  0  0  0  0  0  0  0  0
   51.4180  155.3640   29.0670 C   0  0  0  0  0  0  0  0  0  0  0  0
   51.5550  156.7430   28.8530 C   0  0  0  0  0  0  0  0  0  0  0  0
   50.8330  157.7340   29.6800 C   0  0  0  0  0  0  0  0  0  0  0  0
   51.6320  158.8060   30.0600 O   0  0  0  0  0  0  0  0  0  0  0  0
   51.0860  159.8010   30.8290 C   0  0  0  0  0  0  0  0  0  0  0  0
   51.9200  160.8650   31.1740 C   0  0  0  0  0  0  0  0  0  0  0  0
   51.4270  161.9110   31.9590 C   0  0  0  0  0  0  0  0  0  0  0  0
   50.1020  161.8900   32.3990 C   0  0  0  0  0  0  0  0  0  0  0  0
   49.2720  160.8270   32.0540 C   0  0  0  0  0  0  0  0  0  0  0  0
   47.9870  160.8690   32.5190 O   0  0  0  0  0  0  0  0  0  0  0  0
   49.7660  159.7820   31.2680 C   0  0  0  0  0  0  0  0  0  0  0  0
   48.9280  158.6450   30.8840 C   0  0  0  0  0  0  0  0  0  0  0  0
   47.7540  158.5510   31.2380 O   0  0  0  0  0  0  0  0  0  0  0  0
   49.5440  157.5930   30.0420 C   0  0  0  0  0  0  0  0  0  0  0  0
   48.7470  156.5170   29.6940 O   0  0  0  0  0  0  0  0  0  0  0  0
   52.3660  157.1760   27.8000 C   0  0  0  0  0  0  0  0  0  0  0  0
   53.0340  156.2540   26.9900 C   0  0  0  0  0  0  0  0  0  0  0  0
   52.9030  154.8730   27.2080 C   0  0  0  0  0  0  0  0  0  0  0  0
   53.6700  153.9270   26.3130 C   0  0  0  0  0  0  0  0  0  0  0  0
   53.7270  154.4180   24.8750 C   0  0  0  0  0  0  0  0  0  0  0  0
   54.9890  154.8620   24.6160 F   0  0  0  0  0  0  0  0  0  0  0  0
   51.8679  152.7960   29.6378 H   0  0  0  0  0  0  0  0  0  0  0  0
   50.9381  152.6256   28.1103 H   0  0  0  0  0  0  0  0  0  0  0  0
   52.7178  152.3823   28.1103 H   0  0  0  0  0  0  0  0  0  0  0  0
   50.7694  155.0097   29.8817 H   0  0  0  0  0  0  0  0  0  0  0  0
   52.9642  160.8806   30.8286 H   0  0  0  0  0  0  0  0  0  0  0  0
   52.0831  162.7512   32.2303 H   0  0  0  0  0  0  0  0  0  0  0  0
   49.7143  162.7127   33.0177 H   0  0  0  0  0  0  0  0  0  0  0  0
   47.3920  160.1750   32.3130 H   0  0  0  0  0  0  0  0  0  0  0  0
   49.0290  155.9230   29.0280 H   0  0  0  0  0  0  0  0  0  0  0  0
   52.4794  158.2530   27.6072 H   0  0  0  0  0  0  0  0  0  0  0  0
   53.6717  156.6152   26.1697 H   0  0  0  0  0  0  0  0  0  0  0  0
   54.6968  153.8310   26.6958 H   0  0  0  0  0  0  0  0  0  0  0  0
   53.1489  152.9583   26.3192 H   0  0  0  0  0  0  0  0  0  0  0  0
   53.4771  153.5930   24.1917 H   0  0  0  0  0  0  0  0  0  0  0  0
   53.0044  155.2342   24.7281 H   0  0  0  0  0  0  0  0  0  0  0  0
  1  2  1  0
  2  3  2  0
  3  4  1  0
  4  5  1  0
  5  6  1  0
  6  7  1  0
  7  8  2  0
  8  9  1  0
  9 10  2  0
 10 11  1  0
 11 12  1  0
 11 13  2  0
 13 14  1  0
 14 15  2  0
 14 16  1  0
 16 17  1  0
  4 18  2  0
 18 19  1  0
 19 20  2  0
 20 21  1  0
 21 22  1  0
 22 23  1  0
 20  2  1  0
 16  5  2  0
 13  7  1  0
  1 24  1  0
  1 25  1  0
  1 26  1  0
  3 27  1  0
  8 28  1  0
  9 29  1  0
 10 30  1  0
 12 31  1  0
 17 32  1  0
 18 33  1  0
 19 34  1  0
 21 35  1  0
 21 36  1  0
 22 37  1  0
 22 38  1  0
M  END
>  <meeko>  (6) 
{"is_sidechain": [false], "free_energy": -8.312, "intermolecular_energy": -10.419, "internal_energy": -0.141}

$$$$
