cand_055_out
     RDKit          3D

 41 43  0  0  0  0  0  0  0  0999 V2000
   48.6910  161.4350   33.7210 C   0  0  0  0  0  0  0  0  0  0  0  0
   50.0190  161.1100   33.0550 C   0  0  0  0  0  0  0  0  0  0  0  0
   49.9250  161.2330   31.5330 C   0  0  0  0  0  0  0  0  0  0  0  0
   50.4000  159.9770   30.8370 C   0  0  0  0  0  0  0  0  0  0  0  0
   51.7220  159.9350   30.3640 C   0  0  0  0  0  0  0  0  0  0  0  0
   52.2150  158.8070   29.7050 C   0  0  0  0  0  0  0  0  0  0  0  0
   51.4040  157.6870   29.5040 C   0  0  0  0  0  0  0  0  0  0  0  0
   51.8930  156.4890   28.7890 C   0  0  0  0  0  0  0  0  0  0  0  0
   52.4440  156.7880   27.5480 O   0  0  0  0  0  0  0  0  0  0  0  0
   52.9380  155.7680   26.7770 C   0  0  0  0  0  0  0  0  0  0  0  0
   53.4950  156.1160   25.5450 C   0  0  0  0  0  0  0  0  0  0  0  0
   54.0150  155.1240   24.7100 C   0  0  0  0  0  0  0  0  0  0  0  0
   53.9760  153.7860   25.1060 C   0  0  0  0  0  0  0  0  0  0  0  0
   53.4200  153.4410   26.3350 C   0  0  0  0  0  0  0  0  0  0  0  0
   53.4140  152.1120   26.6600 O   0  0  0  0  0  0  0  0  0  0  0  0
   52.9010  154.4340   27.1710 C   0  0  0  0  0  0  0  0  0  0  0  0
   52.3080  154.1150   28.4700 C   0  0  0  0  0  0  0  0  0  0  0  0
   52.2320  152.9600   28.8850 O   0  0  0  0  0  0  0  0  0  0  0  0
   51.7930  155.2410   29.2830 C   0  0  0  0  0  0  0  0  0  0  0  0
   51.2230  154.9260   30.5040 O   0  0  0  0  0  0  0  0  0  0  0  0
   50.0790  157.7330   29.9630 C   0  0  0  0  0  0  0  0  0  0  0  0
   49.5620  158.8650   30.6230 C   0  0  0  0  0  0  0  0  0  0  0  0
   48.1370  158.8370   31.1030 C   0  0  0  0  0  0  0  0  0  0  0  0
   48.8120  161.4054   34.8139 H   0  0  0  0  0  0  0  0  0  0  0  0
   48.3637  162.4397   33.4154 H   0  0  0  0  0  0  0  0  0  0  0  0
   47.9367  160.6949   33.4154 H   0  0  0  0  0  0  0  0  0  0  0  0
   50.7847  161.8083   33.4239 H   0  0  0  0  0  0  0  0  0  0  0  0
   50.2856  160.0719   33.3026 H   0  0  0  0  0  0  0  0  0  0  0  0
   48.8772  161.4194   31.2550 H   0  0  0  0  0  0  0  0  0  0  0  0
   50.5722  162.0644   31.2168 H   0  0  0  0  0  0  0  0  0  0  0  0
   52.3790  160.8042   30.5151 H   0  0  0  0  0  0  0  0  0  0  0  0
   53.2527  158.8000   29.3402 H   0  0  0  0  0  0  0  0  0  0  0  0
   53.5244  157.1701   25.2321 H   0  0  0  0  0  0  0  0  0  0  0  0
   54.4555  155.3974   23.7398 H   0  0  0  0  0  0  0  0  0  0  0  0
   54.3842  153.0049   24.4477 H   0  0  0  0  0  0  0  0  0  0  0  0
   53.5630  151.4670   25.9960 H   0  0  0  0  0  0  0  0  0  0  0  0
   50.3230  155.1290   30.6670 H   0  0  0  0  0  0  0  0  0  0  0  0
   49.4265  156.8619   29.8032 H   0  0  0  0  0  0  0  0  0  0  0  0
   48.1205  158.8367   32.2029 H   0  0  0  0  0  0  0  0  0  0  0  0
   47.6065  159.7249   30.7286 H   0  0  0  0  0  0  0  0  0  0  0  0
   47.6418  157.9290   30.7286 H   0  0  0  0  0  0  0  0  0  0  0  0
  1  2  1  0
  2  3  1  0
  3  4  1  0
  4  5  2  0
  5  6  1  0
  6  7  2  0
  7  8  1  0
  8  9  1  0
  9 10  1  0
 10 11  2  0
 11 12  1  0
 12 13  2  0
 13 14  1  0
 14 15  1  0
 14 16  2  0
 16 17  1  0
 17 18  2  0
 17 19  1  0
 19 20  1  0
  7 21  1  0
 21 22  2  0
 22 23  1  0
 22  4  1  0
 19  8  2  0
 16 10  1  0
  1 24  1  0
  1 25  1  0
  1 26  1  0
  2 27  1  0
  2 28  1  0
  3 29  1  0
  3 30  1  0
  5 31  1  0
  6 32  1  0
 11 33  1  0
 12 34  1  0
 13 35  1  0
 15 36  1  0
 20 37  1  0
 21 38  1  0
 23 39  1  0
 23 40  1  0
 23 41  1  0
M  END
>  <meeko>  (1) 
{"is_sidechain": [false], "free_energy": -11.576, "intermolecular_energy": -14.283, "internal_energy": -0.332}

$$$$
cand_055_out
     RDKit          3D

 41 43  0  0  0  0  0  0  0  0999 V2000
   48.9400  161.5730   33.8140 C   0  0  0  0  0  0  0  0  0  0  0  0
   49.3130  160.2900   33.0890 C   0  0  0  0  0  0  0  0  0  0  0  0
   49.0490  160.4020   31.5860 C   0  0  0  0  0  0  0  0  0  0  0  0
   49.7910  159.3420   30.8040 C   0  0  0  0  0  0  0  0  0  0  0  0
   49.1360  158.1280   30.5360 C   0  0  0  0  0  0  0  0  0  0  0  0
   49.7730  157.1070   29.8270 C   0  0  0  0  0  0  0  0  0  0  0  0
   51.0800  157.2710   29.3610 C   0  0  0  0  0  0  0  0  0  0  0  0
   51.7870  156.1980   28.6290 C   0  0  0  0  0  0  0  0  0  0  0  0
   52.3190  156.6290   27.4190 O   0  0  0  0  0  0  0  0  0  0  0  0
   53.0010  155.7330   26.6370 C   0  0  0  0  0  0  0  0  0  0  0  0
   53.5300  156.2130   25.4380 C   0  0  0  0  0  0  0  0  0  0  0  0
   54.2350  155.3520   24.5940 C   0  0  0  0  0  0  0  0  0  0  0  0
   54.4090  154.0120   24.9470 C   0  0  0  0  0  0  0  0  0  0  0  0
   53.8810  153.5370   26.1450 C   0  0  0  0  0  0  0  0  0  0  0  0
   54.0870  152.2150   26.4290 O   0  0  0  0  0  0  0  0  0  0  0  0
   53.1760  154.3990   26.9890 C   0  0  0  0  0  0  0  0  0  0  0  0
   52.6040  153.9390   28.2560 C   0  0  0  0  0  0  0  0  0  0  0  0
   52.7100  152.7740   28.6330 O   0  0  0  0  0  0  0  0  0  0  0  0
   51.8810  154.9340   29.0820 C   0  0  0  0  0  0  0  0  0  0  0  0
   51.3340  154.4850   30.2710 O   0  0  0  0  0  0  0  0  0  0  0  0
   51.7410  158.4770   29.6410 C   0  0  0  0  0  0  0  0  0  0  0  0
   51.1170  159.5140   30.3610 C   0  0  0  0  0  0  0  0  0  0  0  0
   51.8800  160.7860   30.6090 C   0  0  0  0  0  0  0  0  0  0  0  0
   48.9881  161.4075   34.9004 H   0  0  0  0  0  0  0  0  0  0  0  0
   49.6434  162.3707   33.5331 H   0  0  0  0  0  0  0  0  0  0  0  0
   47.9186  161.8692   33.5331 H   0  0  0  0  0  0  0  0  0  0  0  0
   50.3816  160.0852   33.2505 H   0  0  0  0  0  0  0  0  0  0  0  0
   48.6945  159.4733   33.4896 H   0  0  0  0  0  0  0  0  0  0  0  0
   47.9700  160.2880   31.4048 H   0  0  0  0  0  0  0  0  0  0  0  0
   49.4052  161.3867   31.2492 H   0  0  0  0  0  0  0  0  0  0  0  0
   48.1052  157.9794   30.8902 H   0  0  0  0  0  0  0  0  0  0  0  0
   49.2403  156.1642   29.6335 H   0  0  0  0  0  0  0  0  0  0  0  0
   53.3919  157.2678   25.1581 H   0  0  0  0  0  0  0  0  0  0  0  0
   54.6539  155.7299   23.6497 H   0  0  0  0  0  0  0  0  0  0  0  0
   54.9617  153.3335   24.2805 H   0  0  0  0  0  0  0  0  0  0  0  0
   53.4060  151.5900   26.2730 H   0  0  0  0  0  0  0  0  0  0  0  0
   50.4120  154.5530   30.4160 H   0  0  0  0  0  0  0  0  0  0  0  0
   52.7738  158.6159   29.2887 H   0  0  0  0  0  0  0  0  0  0  0  0
   51.9781  160.9495   31.6924 H   0  0  0  0  0  0  0  0  0  0  0  0
   52.8802  160.7075   30.1580 H   0  0  0  0  0  0  0  0  0  0  0  0
   51.3398  161.6315   30.1580 H   0  0  0  0  0  0  0  0  0  0  0  0
  1  2  1  0
  2  3  1  0
  3  4  1  0
  4  5  2  0
  5  6  1  0
  6  7  2  0
  7  8  1  0
  8  9  1  0
  9 10  1  0
 10 11  2  0
 11 12  1  0
 12 13  2  0
 13 14  1  0
 14 15  1  0
 14 16  2  0
 16 17  1  0
 17 18  2  0
 17 19  1  0
 19 20  1  0
  7 21  1  0
 21 22  2  0
 22 23  1  0
 22  4  1  0
 19  8  2  0
 16 10  1  0
  1 24  1  0
  1 25  1  0
  1 26  1  0
  2 27  1  0
  2 28  1  0
  3 29  1  0
  3 30  1  0
  5 31  1  0
  6 32  1  0
 11 33  1  0
 12 34  1  0
 13 35  1  0
 15 36  1  0
 20 37  1  0
 21 38  1  0
 23 39  1  0
 23 40  1  0
 23 41  1  0
M  END
>  <meeko>  (2) 
{"is_sidechain": [false], "free_energy": -11.205, "intermolecular_energy": -13.844, "internal_energy": -0.314}

$$$$
cand_055_out
     RDKit          3D

 41 43  0  0  0  0  0  0  0  0999 V2000
   54.1670  153.5210   24.0410 C   0  0  0  0  0  0  0  0  0  0  0  0
   53.1300  154.2190   24.9060 C   0  0  0  0  0  0  0  0  0  0  0  0
   53.3450  153.9150   26.3900 C   0  0  0  0  0  0  0  0  0  0  0  0
   52.7840  155.0070   27.2750 C   0  0  0  0  0  0  0  0  0  0  0  0
   53.0040  156.3440   26.9060 C   0  0  0  0  0  0  0  0  0  0  0  0
   52.5190  157.3960   27.6870 C   0  0  0  0  0  0  0  0  0  0  0  0
   51.7960  157.1410   28.8550 C   0  0  0  0  0  0  0  0  0  0  0  0
   51.2920  158.2350   29.7130 C   0  0  0  0  0  0  0  0  0  0  0  0
   49.9510  158.0860   30.0460 O   0  0  0  0  0  0  0  0  0  0  0  0
   49.3550  159.0320   30.8400 C   0  0  0  0  0  0  0  0  0  0  0  0
   48.0110  158.8340   31.1610 C   0  0  0  0  0  0  0  0  0  0  0  0
   47.3430  159.7610   31.9640 C   0  0  0  0  0  0  0  0  0  0  0  0
   48.0180  160.8860   32.4440 C   0  0  0  0  0  0  0  0  0  0  0  0
   49.3590  161.0800   32.1230 C   0  0  0  0  0  0  0  0  0  0  0  0
   49.9580  162.2020   32.6250 O   0  0  0  0  0  0  0  0  0  0  0  0
   50.0260  160.1510   31.3200 C   0  0  0  0  0  0  0  0  0  0  0  0
   51.4350  160.3180   30.9580 C   0  0  0  0  0  0  0  0  0  0  0  0
   52.0940  161.2840   31.3360 O   0  0  0  0  0  0  0  0  0  0  0  0
   52.0520  159.2730   30.1080 C   0  0  0  0  0  0  0  0  0  0  0  0
   53.3800  159.4480   29.7620 O   0  0  0  0  0  0  0  0  0  0  0  0
   51.5890  155.8050   29.2330 C   0  0  0  0  0  0  0  0  0  0  0  0
   52.0770  154.7330   28.4620 C   0  0  0  0  0  0  0  0  0  0  0  0
   51.8020  153.3270   28.9180 C   0  0  0  0  0  0  0  0  0  0  0  0
   54.9067  153.0231   24.6852 H   0  0  0  0  0  0  0  0  0  0  0  0
   53.6708  152.7723   23.4059 H   0  0  0  0  0  0  0  0  0  0  0  0
   54.6739  154.2625   23.4059 H   0  0  0  0  0  0  0  0  0  0  0  0
   53.2051  155.3051   24.7486 H   0  0  0  0  0  0  0  0  0  0  0  0
   52.1343  153.8508   24.6179 H   0  0  0  0  0  0  0  0  0  0  0  0
   52.8451  152.9663   26.6351 H   0  0  0  0  0  0  0  0  0  0  0  0
   54.4279  153.8502   26.5721 H   0  0  0  0  0  0  0  0  0  0  0  0
   53.5671  156.5665   25.9876 H   0  0  0  0  0  0  0  0  0  0  0  0
   52.7082  158.4350   27.3794 H   0  0  0  0  0  0  0  0  0  0  0  0
   47.4788  157.9491   30.7820 H   0  0  0  0  0  0  0  0  0  0  0  0
   46.2843  159.6052   32.2188 H   0  0  0  0  0  0  0  0  0  0  0  0
   47.4910  161.6173   33.0745 H   0  0  0  0  0  0  0  0  0  0  0  0
   49.5050  162.7360   33.2480 H   0  0  0  0  0  0  0  0  0  0  0  0
   54.0290  158.8510   30.0780 H   0  0  0  0  0  0  0  0  0  0  0  0
   51.0307  155.5901   30.1561 H   0  0  0  0  0  0  0  0  0  0  0  0
   51.7953  153.2928   30.0174 H   0  0  0  0  0  0  0  0  0  0  0  0
   50.8233  153.0021   28.5351 H   0  0  0  0  0  0  0  0  0  0  0  0
   52.5862  152.6573   28.5351 H   0  0  0  0  0  0  0  0  0  0  0  0
  1  2  1  0
  2  3  1  0
  3  4  1  0
  4  5  2  0
  5  6  1  0
  6  7  2  0
  7  8  1  0
  8  9  1  0
  9 10  1  0
 10 11  2  0
 11 12  1  0
 12 13  2  0
 13 14  1  0
 14 15  1  0
 14 16  2  0
 16 17  1  0
 17 18  2  0
 17 19  1  0
 19 20  1  0
  7 21  1  0
 21 22  2  0
 22 23  1  0
 22  4  1  0
 19  8  2  0
 16 10  1  0
  1 24  1  0
  1 25  1  0
  1 26  1  0
  2 27  1  0
  2 28  1  0
  3 29  1  0
  3 30  1  0
  5 31  1  0
  6 32  1  0
 11 33  1  0
 12 34  1  0
 13 35  1  0
 15 36  1  0
 20 37  1  0
 21 38  1  0
 23 39  1  0
 23 40  1  0
 23 41  1  0
M  END
>  <meeko>  (3) 
{"is_sidechain": [false], "free_energy": -10.208, "intermolecular_energy": -12.647, "internal_energy": -0.28}

$$$$
cand_055_out
     RDKit          3D

 41 43  0  0  0  0  0  0  0  0999 V2000
   54.5460  151.8780   24.9320 C   0  0  0  0  0  0  0  0  0  0  0  0
   54.2500  152.5130   26.2800 C   0  0  0  0  0  0  0  0  0  0  0  0
   52.7450  152.6670   26.5070 C   0  0  0  0  0  0  0  0  0  0  0  0
   52.4140  153.9510   27.2350 C   0  0  0  0  0  0  0  0  0  0  0  0
   51.8790  153.8630   28.5310 C   0  0  0  0  0  0  0  0  0  0  0  0
   51.5440  155.0130   29.2510 C   0  0  0  0  0  0  0  0  0  0  0  0
   51.7390  156.2820   28.6980 C   0  0  0  0  0  0  0  0  0  0  0  0
   51.3710  157.5140   29.4280 C   0  0  0  0  0  0  0  0  0  0  0  0
   50.0450  157.5190   29.8460 O   0  0  0  0  0  0  0  0  0  0  0  0
   49.5710  158.6040   30.5360 C   0  0  0  0  0  0  0  0  0  0  0  0
   48.2380  158.5600   30.9480 C   0  0  0  0  0  0  0  0  0  0  0  0
   47.6910  159.6340   31.6540 C   0  0  0  0  0  0  0  0  0  0  0  0
   48.4760  160.7510   31.9470 C   0  0  0  0  0  0  0  0  0  0  0  0
   49.8050  160.7920   31.5350 C   0  0  0  0  0  0  0  0  0  0  0  0
   50.5160  161.9170   31.8540 O   0  0  0  0  0  0  0  0  0  0  0  0
   50.3520  159.7170   30.8290 C   0  0  0  0  0  0  0  0  0  0  0  0
   51.7440  159.7210   30.3770 C   0  0  0  0  0  0  0  0  0  0  0  0
   52.4960  160.6700   30.5910 O   0  0  0  0  0  0  0  0  0  0  0  0
   52.2290  158.5290   29.6430 C   0  0  0  0  0  0  0  0  0  0  0  0
   53.5430  158.5490   29.2100 O   0  0  0  0  0  0  0  0  0  0  0  0
   52.2590  156.3690   27.3980 C   0  0  0  0  0  0  0  0  0  0  0  0
   52.5950  155.2210   26.6550 C   0  0  0  0  0  0  0  0  0  0  0  0
   53.1640  155.3920   25.2740 C   0  0  0  0  0  0  0  0  0  0  0  0
   55.0062  150.8907   25.0849 H   0  0  0  0  0  0  0  0  0  0  0  0
   53.6090  151.7623   24.3675 H   0  0  0  0  0  0  0  0  0  0  0  0
   55.2371  152.5212   24.3675 H   0  0  0  0  0  0  0  0  0  0  0  0
   54.6684  151.8775   27.0744 H   0  0  0  0  0  0  0  0  0  0  0  0
   54.7067  153.5135   26.2987 H   0  0  0  0  0  0  0  0  0  0  0  0
   52.2365  152.6697   25.5316 H   0  0  0  0  0  0  0  0  0  0  0  0
   52.4055  151.8251   27.1282 H   0  0  0  0  0  0  0  0  0  0  0  0
   51.7214  152.8740   28.9860 H   0  0  0  0  0  0  0  0  0  0  0  0
   51.1228  154.9187   30.2628 H   0  0  0  0  0  0  0  0  0  0  0  0
   47.6190  157.6805   30.7169 H   0  0  0  0  0  0  0  0  0  0  0  0
   46.6408  159.5998   31.9795 H   0  0  0  0  0  0  0  0  0  0  0  0
   48.0450  161.5970   32.5024 H   0  0  0  0  0  0  0  0  0  0  0  0
   50.3280  162.7280   31.4240 H   0  0  0  0  0  0  0  0  0  0  0  0
   54.2000  158.9660   29.7300 H   0  0  0  0  0  0  0  0  0  0  0  0
   52.4083  157.3610   26.9468 H   0  0  0  0  0  0  0  0  0  0  0  0
   54.2151  155.7079   25.3470 H   0  0  0  0  0  0  0  0  0  0  0  0
   53.1051  154.4365   24.7322 H   0  0  0  0  0  0  0  0  0  0  0  0
   52.5881  156.1567   24.7322 H   0  0  0  0  0  0  0  0  0  0  0  0
  1  2  1  0
  2  3  1  0
  3  4  1  0
  4  5  2  0
  5  6  1  0
  6  7  2  0
  7  8  1  0
  8  9  1  0
  9 10  1  0
 10 11  2  0
 11 12  1  0
 12 13  2  0
 13 14  1  0
 14 15  1  0
 14 16  2  0
 16 17  1  0
 17 18  2  0
 17 19  1  0
 19 20  1  0
  7 21  1  0
 21 22  2  0
 22 23  1  0
 22  4  1  0
 19  8  2  0
 16 10  1  0
  1 24  1  0
  1 25  1  0
  1 26  1  0
  2 27  1  0
  2 28  1  0
  3 29  1  0
  3 30  1  0
  5 31  1  0
  6 32  1  0
 11 33  1  0
 12 34  1  0
 13 35  1  0
 15 36  1  0
 20 37  1  0
 21 38  1  0
 23 39  1  0
 23 40  1  0
 23 41  1  0
M  END
>  <meeko>  (4) 
{"is_sidechain": [false], "free_energy": -10.196, "intermolecular_energy": -12.786, "internal_energy": -0.125}

$$$$
cand_055_out
     RDKit          3D

 41 43  0  0  0  0  0  0  0  0999 V2000
   53.7870  152.5460   24.3610 C   0  0  0  0  0  0  0  0  0  0  0  0
   52.8560  152.9150   25.5050 C   0  0  0  0  0  0  0  0  0  0  0  0
   53.6400  153.3670   26.7390 C   0  0  0  0  0  0  0  0  0  0  0  0
   52.9340  154.4840   27.4750 C   0  0  0  0  0  0  0  0  0  0  0  0
   52.1930  154.1620   28.6240 C   0  0  0  0  0  0  0  0  0  0  0  0
   51.5110  155.1480   29.3410 C   0  0  0  0  0  0  0  0  0  0  0  0
   51.5550  156.4840   28.9330 C   0  0  0  0  0  0  0  0  0  0  0  0
   50.8230  157.5450   29.6590 C   0  0  0  0  0  0  0  0  0  0  0  0
   51.6400  158.6050   30.0340 O   0  0  0  0  0  0  0  0  0  0  0  0
   51.0890  159.6590   30.7150 C   0  0  0  0  0  0  0  0  0  0  0  0
   51.9430  160.7090   31.0580 C   0  0  0  0  0  0  0  0  0  0  0  0
   51.4460  161.8120   31.7550 C   0  0  0  0  0  0  0  0  0  0  0  0
   50.0960  161.8660   32.1100 C   0  0  0  0  0  0  0  0  0  0  0  0
   49.2460  160.8180   31.7650 C   0  0  0  0  0  0  0  0  0  0  0  0
   47.9370  160.9340   32.1450 O   0  0  0  0  0  0  0  0  0  0  0  0
   49.7440  159.7140   31.0680 C   0  0  0  0  0  0  0  0  0  0  0  0
   48.8850  158.5910   30.6880 C   0  0  0  0  0  0  0  0  0  0  0  0
   47.6890  158.5620   30.9700 O   0  0  0  0  0  0  0  0  0  0  0  0
   49.5090  157.4730   29.9430 C   0  0  0  0  0  0  0  0  0  0  0  0
   48.6910  156.4120   29.6010 O   0  0  0  0  0  0  0  0  0  0  0  0
   52.2820  156.8040   27.7760 C   0  0  0  0  0  0  0  0  0  0  0  0
   52.9690  155.8220   27.0370 C   0  0  0  0  0  0  0  0  0  0  0  0
   53.7430  156.2410   25.8180 C   0  0  0  0  0  0  0  0  0  0  0  0
   54.7370  152.1695   24.7682 H   0  0  0  0  0  0  0  0  0  0  0  0
   53.3179  151.7658   23.7436 H   0  0  0  0  0  0  0  0  0  0  0  0
   53.9797  153.4357   23.7436 H   0  0  0  0  0  0  0  0  0  0  0  0
   52.1967  153.7334   25.1802 H   0  0  0  0  0  0  0  0  0  0  0  0
   52.2690  152.0247   25.7747 H   0  0  0  0  0  0  0  0  0  0  0  0
   53.7575  152.5108   27.4195 H   0  0  0  0  0  0  0  0  0  0  0  0
   54.6180  153.7429   26.4039 H   0  0  0  0  0  0  0  0  0  0  0  0
   52.1490  153.1170   28.9646 H   0  0  0  0  0  0  0  0  0  0  0  0
   50.9338  154.8702   30.2353 H   0  0  0  0  0  0  0  0  0  0  0  0
   53.0063  160.6673   30.7794 H   0  0  0  0  0  0  0  0  0  0  0  0
   52.1184  162.6396   32.0250 H   0  0  0  0  0  0  0  0  0  0  0  0
   49.7052  162.7343   32.6608 H   0  0  0  0  0  0  0  0  0  0  0  0
   47.6660  160.6360   32.9910 H   0  0  0  0  0  0  0  0  0  0  0  0
   48.0130  156.1360   30.1850 H   0  0  0  0  0  0  0  0  0  0  0  0
   52.3160  157.8500   27.4374 H   0  0  0  0  0  0  0  0  0  0  0  0
   54.6712  156.7435   26.1278 H   0  0  0  0  0  0  0  0  0  0  0  0
   53.9896  155.3532   25.2172 H   0  0  0  0  0  0  0  0  0  0  0  0
   53.1345  156.9329   25.2172 H   0  0  0  0  0  0  0  0  0  0  0  0
  1  2  1  0
  2  3  1  0
  3  4  1  0
  4  5  2  0
  5  6  1  0
  6  7  2  0
  7  8  1  0
  8  9  1  0
  9 10  1  0
 10 11  2  0
 11 12  1  0
 12 13  2  0
 13 14  1  0
 14 15  1  0
 14 16  2  0
 16 17  1  0
 17 18  2  0
 17 19  1  0
 19 20  1  0
  7 21  1  0
 21 22  2  0
 22 23  1  0
 22  4  1  0
 19  8  2  0
 16 10  1  0
  1 24  1  0
  1 25  1  0
  1 26  1  0
  2 27  1  0
  2 28  1  0
  3 29  1  0
  3 30  1  0
  5 31  1  0
  6 32  1  0
 11 33  1  0
 12 34  1  0
 13 35  1  0
 15 36  1  0
 20 37  1  0
 21 38  1  0
 23 39  1  0
 23 40  1  0
 23 41  1  0
M  END
>  <meeko>  (5) 
{"is_sidechain": [false], "free_energy": -8.853, "intermolecular_energy": -10.961, "internal_energy": -0.294}

$$$$
