cand_010_out
     RDKit          3D

 35 37  0  0  0  0  0  0  0  0999 V2000
   52.4250  160.6420   30.6560 O   0  0  0  0  0  0  0  0  0  0  0  0
   51.6780  159.6970   30.4080 C   0  0  0  0  0  0  0  0  0  0  0  0
   52.1820  158.5150   29.6710 C   0  0  0  0  0  0  0  0  0  0  0  0
   53.5130  158.5250   29.2970 O   0  0  0  0  0  0  0  0  0  0  0  0
   51.3310  157.5020   29.4230 C   0  0  0  0  0  0  0  0  0  0  0  0
   51.7270  156.2700   28.7070 C   0  0  0  0  0  0  0  0  0  0  0  0
   51.5630  155.0030   29.2750 C   0  0  0  0  0  0  0  0  0  0  0  0
   51.9680  153.8540   28.5910 C   0  0  0  0  0  0  0  0  0  0  0  0
   52.5600  153.9410   27.3210 C   0  0  0  0  0  0  0  0  0  0  0  0
   52.9780  152.6750   26.6110 C   0  0  0  0  0  0  0  0  0  0  0  0
   54.3230  152.4470   26.6620 F   0  0  0  0  0  0  0  0  0  0  0  0
   52.7360  155.2130   26.7330 C   0  0  0  0  0  0  0  0  0  0  0  0
   53.3700  155.3670   25.3690 C   0  0  0  0  0  0  0  0  0  0  0  0
   54.6780  154.9870   25.3220 F   0  0  0  0  0  0  0  0  0  0  0  0
   52.7340  154.6290   24.4180 F   0  0  0  0  0  0  0  0  0  0  0  0
   53.3410  156.6530   24.9240 F   0  0  0  0  0  0  0  0  0  0  0  0
   52.3240  156.3620   27.4400 C   0  0  0  0  0  0  0  0  0  0  0  0
   50.0020  157.4870   29.8290 O   0  0  0  0  0  0  0  0  0  0  0  0
   49.5040  158.5720   30.5060 C   0  0  0  0  0  0  0  0  0  0  0  0
   48.1620  158.5220   30.8820 C   0  0  0  0  0  0  0  0  0  0  0  0
   47.5920  159.5920   31.5750 C   0  0  0  0  0  0  0  0  0  0  0  0
   48.3650  160.7110   31.8920 C   0  0  0  0  0  0  0  0  0  0  0  0
   49.7050  160.7590   31.5150 C   0  0  0  0  0  0  0  0  0  0  0  0
   50.4040  161.8840   31.8590 O   0  0  0  0  0  0  0  0  0  0  0  0
   50.2740  159.6880   30.8220 C   0  0  0  0  0  0  0  0  0  0  0  0
   53.9170  159.3260   29.0230 H   0  0  0  0  0  0  0  0  0  0  0  0
   51.1095  154.9096   30.2728 H   0  0  0  0  0  0  0  0  0  0  0  0
   51.8209  152.8672   29.0542 H   0  0  0  0  0  0  0  0  0  0  0  0
   52.4616  151.8246   27.0802 H   0  0  0  0  0  0  0  0  0  0  0  0
   52.7068  152.7907   25.5513 H   0  0  0  0  0  0  0  0  0  0  0  0
   52.4741  157.3534   26.9878 H   0  0  0  0  0  0  0  0  0  0  0  0
   47.5530  157.6405   30.6329 H   0  0  0  0  0  0  0  0  0  0  0  0
   46.5334  159.5534   31.8714 H   0  0  0  0  0  0  0  0  0  0  0  0
   47.9162  161.5534   32.4387 H   0  0  0  0  0  0  0  0  0  0  0  0
   50.3300  162.2340   32.7250 H   0  0  0  0  0  0  0  0  0  0  0  0
  1  2  2  0
  2  3  1  0
  3  4  1  0
  3  5  2  0
  5  6  1  0
  6  7  2  0
  7  8  1  0
  8  9  2  0
  9 10  1  0
 10 11  1  0
  9 12  1  0
 12 13  1  0
 13 14  1  0
 13 15  1  0
 13 16  1  0
 12 17  2  0
  5 18  1  0
 18 19  1  0
 19 20  2  0
 20 21  1  0
 21 22  2  0
 22 23  1  0
 23 24  1  0
 23 25  2  0
 25  2  1  0
 17  6  1  0
 25 19  1  0
  4 26  1  0
  7 27  1  0
  8 28  1  0
 10 29  1  0
 10 30  1  0
 17 31  1  0
 20 32  1  0
 21 33  1  0
 22 34  1  0
 24 35  1  0
M  END
>  <meeko>  (1) 
{"is_sidechain": [false], "free_energy": -11.2, "intermolecular_energy": -13.819, "internal_energy": -0.29}

$$$$
cand_010_out
     RDKit          3D

 35 37  0  0  0  0  0  0  0  0999 V2000
   52.1860  153.0270   28.8900 O   0  0  0  0  0  0  0  0  0  0  0  0
   52.3050  154.1680   28.4470 C   0  0  0  0  0  0  0  0  0  0  0  0
   51.8180  155.3300   29.2260 C   0  0  0  0  0  0  0  0  0  0  0  0
   51.2480  155.0690   30.4590 O   0  0  0  0  0  0  0  0  0  0  0  0
   51.9710  156.5620   28.7060 C   0  0  0  0  0  0  0  0  0  0  0  0
   51.5340  157.7930   29.3990 C   0  0  0  0  0  0  0  0  0  0  0  0
   52.4300  158.8180   29.7140 C   0  0  0  0  0  0  0  0  0  0  0  0
   52.0000  159.9620   30.3930 C   0  0  0  0  0  0  0  0  0  0  0  0
   50.6610  160.1060   30.7860 C   0  0  0  0  0  0  0  0  0  0  0  0
   50.2340  161.3610   31.5120 C   0  0  0  0  0  0  0  0  0  0  0  0
   50.1150  161.1900   32.8610 F   0  0  0  0  0  0  0  0  0  0  0  0
   49.7420  159.0790   30.4790 C   0  0  0  0  0  0  0  0  0  0  0  0
   48.2880  159.1800   30.8810 C   0  0  0  0  0  0  0  0  0  0  0  0
   47.7700  160.4350   30.7710 F   0  0  0  0  0  0  0  0  0  0  0  0
   47.4860  158.3800   30.1250 F   0  0  0  0  0  0  0  0  0  0  0  0
   48.0770  158.8030   32.1720 F   0  0  0  0  0  0  0  0  0  0  0  0
   50.1950  157.9310   29.7960 C   0  0  0  0  0  0  0  0  0  0  0  0
   52.5730  156.8170   27.4790 O   0  0  0  0  0  0  0  0  0  0  0  0
   53.0250  155.7610   26.7310 C   0  0  0  0  0  0  0  0  0  0  0  0
   53.6090  156.0610   25.5000 C   0  0  0  0  0  0  0  0  0  0  0  0
   54.0930  155.0320   24.6890 C   0  0  0  0  0  0  0  0  0  0  0  0
   53.9920  153.7040   25.1090 C   0  0  0  0  0  0  0  0  0  0  0  0
   53.4080  153.4070   26.3370 C   0  0  0  0  0  0  0  0  0  0  0  0
   53.3430  152.0860   26.6870 O   0  0  0  0  0  0  0  0  0  0  0  0
   52.9250  154.4370   27.1490 C   0  0  0  0  0  0  0  0  0  0  0  0
   50.3230  154.9370   30.5280 H   0  0  0  0  0  0  0  0  0  0  0  0
   53.4869  158.7236   29.4241 H   0  0  0  0  0  0  0  0  0  0  0  0
   52.7215  160.7601   30.6222 H   0  0  0  0  0  0  0  0  0  0  0  0
   50.9824  162.1449   31.3240 H   0  0  0  0  0  0  0  0  0  0  0  0
   49.2402  161.6367   31.1295 H   0  0  0  0  0  0  0  0  0  0  0  0
   49.4819  157.1248   29.5692 H   0  0  0  0  0  0  0  0  0  0  0  0
   53.6882  157.1069   25.1685 H   0  0  0  0  0  0  0  0  0  0  0  0
   54.5541  155.2679   23.7186 H   0  0  0  0  0  0  0  0  0  0  0  0
   54.3735  152.8938   24.4702 H   0  0  0  0  0  0  0  0  0  0  0  0
   52.5100  151.6790   26.8260 H   0  0  0  0  0  0  0  0  0  0  0  0
  1  2  2  0
  2  3  1  0
  3  4  1  0
  3  5  2  0
  5  6  1  0
  6  7  2  0
  7  8  1  0
  8  9  2  0
  9 10  1  0
 10 11  1  0
  9 12  1  0
 12 13  1  0
 13 14  1  0
 13 15  1  0
 13 16  1  0
 12 17  2  0
  5 18  1  0
 18 19  1  0
 19 20  2  0
 20 21  1  0
 21 22  2  0
 22 23  1  0
 23 24  1  0
 23 25  2  0
 25  2  1  0
 17  6  1  0
 25 19  1  0
  4 26  1  0
  7 27  1  0
  8 28  1  0
 10 29  1  0
 10 30  1  0
 17 31  1  0
 20 32  1  0
 21 33  1  0
 22 34  1  0
 24 35  1  0
M  END
>  <meeko>  (2) 
{"is_sidechain": [false], "free_energy": -11.186, "intermolecular_energy": -13.894, "internal_energy": -0.197}

$$$$
cand_010_out
     RDKit          3D

 35 37  0  0  0  0  0  0  0  0999 V2000
   53.0150  152.7040   28.2270 O   0  0  0  0  0  0  0  0  0  0  0  0
   52.8030  153.8820   27.9440 C   0  0  0  0  0  0  0  0  0  0  0  0
   51.9740  154.7300   28.8320 C   0  0  0  0  0  0  0  0  0  0  0  0
   51.4750  154.1410   29.9800 O   0  0  0  0  0  0  0  0  0  0  0  0
   51.7710  156.0140   28.4870 C   0  0  0  0  0  0  0  0  0  0  0  0
   50.9710  156.9530   29.3030 C   0  0  0  0  0  0  0  0  0  0  0  0
   49.6590  156.6610   29.6860 C   0  0  0  0  0  0  0  0  0  0  0  0
   48.9120  157.5750   30.4350 C   0  0  0  0  0  0  0  0  0  0  0  0
   49.4550  158.8120   30.8130 C   0  0  0  0  0  0  0  0  0  0  0  0
   48.6170  159.7700   31.6290 C   0  0  0  0  0  0  0  0  0  0  0  0
   48.8740  159.7060   32.9680 F   0  0  0  0  0  0  0  0  0  0  0  0
   50.7780  159.1250   30.4330 C   0  0  0  0  0  0  0  0  0  0  0  0
   51.4130  160.4450   30.8100 C   0  0  0  0  0  0  0  0  0  0  0  0
   51.5150  160.6440   32.1540 F   0  0  0  0  0  0  0  0  0  0  0  0
   52.6760  160.5690   30.3180 F   0  0  0  0  0  0  0  0  0  0  0  0
   50.7190  161.5120   30.3280 F   0  0  0  0  0  0  0  0  0  0  0  0
   51.5150  158.1920   29.6740 C   0  0  0  0  0  0  0  0  0  0  0  0
   52.3020  156.6050   27.3470 O   0  0  0  0  0  0  0  0  0  0  0  0
   53.0660  155.8430   26.5000 C   0  0  0  0  0  0  0  0  0  0  0  0
   53.5670  156.4730   25.3610 C   0  0  0  0  0  0  0  0  0  0  0  0
   54.3540  155.7540   24.4580 C   0  0  0  0  0  0  0  0  0  0  0  0
   54.6390  154.4080   24.6940 C   0  0  0  0  0  0  0  0  0  0  0  0
   54.1370  153.7820   25.8320 C   0  0  0  0  0  0  0  0  0  0  0  0
   54.4550  152.4620   26.0030 O   0  0  0  0  0  0  0  0  0  0  0  0
   53.3500  154.5010   26.7360 C   0  0  0  0  0  0  0  0  0  0  0  0
   52.0250  154.0420   30.7330 H   0  0  0  0  0  0  0  0  0  0  0  0
   49.2088  155.7006   29.3946 H   0  0  0  0  0  0  0  0  0  0  0  0
   47.8839  157.3206   30.7321 H   0  0  0  0  0  0  0  0  0  0  0  0
   48.8207  160.7941   31.2829 H   0  0  0  0  0  0  0  0  0  0  0  0
   47.5641  159.4858   31.4853 H   0  0  0  0  0  0  0  0  0  0  0  0
   52.5409  158.4418   29.3655 H   0  0  0  0  0  0  0  0  0  0  0  0
   53.3430  157.5336   25.1741 H   0  0  0  0  0  0  0  0  0  0  0  0
   54.7499  156.2495   23.5592 H   0  0  0  0  0  0  0  0  0  0  0  0
   55.2589  153.8430   23.9824 H   0  0  0  0  0  0  0  0  0  0  0  0
   55.3060  152.1510   25.7630 H   0  0  0  0  0  0  0  0  0  0  0  0
  1  2  2  0
  2  3  1  0
  3  4  1  0
  3  5  2  0
  5  6  1  0
  6  7  2  0
  7  8  1  0
  8  9  2  0
  9 10  1  0
 10 11  1  0
  9 12  1  0
 12 13  1  0
 13 14  1  0
 13 15  1  0
 13 16  1  0
 12 17  2  0
  5 18  1  0
 18 19  1  0
 19 20  2  0
 20 21  1  0
 21 22  2  0
 22 23  1  0
 23 24  1  0
 23 25  2  0
 25  2  1  0
 17  6  1  0
 25 19  1  0
  4 26  1  0
  7 27  1  0
  8 28  1  0
 10 29  1  0
 10 30  1  0
 17 31  1  0
 20 32  1  0
 21 33  1  0
 22 34  1  0
 24 35  1  0
M  END
>  <meeko>  (3) 
{"is_sidechain": [false], "free_energy": -10.598, "intermolecular_energy": -13.023, "internal_energy": -0.343}

$$$$
cand_010_out
     RDKit          3D

 35 37  0  0  0  0  0  0  0  0999 V2000
   48.0020  158.1390   30.7570 O   0  0  0  0  0  0  0  0  0  0  0  0
   49.1810  158.1330   30.4100 C   0  0  0  0  0  0  0  0  0  0  0  0
   49.7460  156.9660   29.6920 C   0  0  0  0  0  0  0  0  0  0  0  0
   48.8890  155.9140   29.4270 O   0  0  0  0  0  0  0  0  0  0  0  0
   51.0410  157.0020   29.3270 C   0  0  0  0  0  0  0  0  0  0  0  0
   51.7060  155.9010   28.5980 C   0  0  0  0  0  0  0  0  0  0  0  0
   51.8050  154.6150   29.1380 C   0  0  0  0  0  0  0  0  0  0  0  0
   52.4610  153.5950   28.4430 C   0  0  0  0  0  0  0  0  0  0  0  0
   53.0460  153.8360   27.1910 C   0  0  0  0  0  0  0  0  0  0  0  0
   53.7410  152.7060   26.4690 C   0  0  0  0  0  0  0  0  0  0  0  0
   52.9750  152.1390   25.4910 F   0  0  0  0  0  0  0  0  0  0  0  0
   52.9590  155.1300   26.6320 C   0  0  0  0  0  0  0  0  0  0  0  0
   53.5730  155.4470   25.2870 C   0  0  0  0  0  0  0  0  0  0  0  0
   54.8970  155.1390   25.1990 F   0  0  0  0  0  0  0  0  0  0  0  0
   52.9660  154.7760   24.2700 F   0  0  0  0  0  0  0  0  0  0  0  0
   53.4770  156.7680   24.9700 F   0  0  0  0  0  0  0  0  0  0  0  0
   52.2950  156.1470   27.3490 C   0  0  0  0  0  0  0  0  0  0  0  0
   51.8870  158.0770   29.5720 O   0  0  0  0  0  0  0  0  0  0  0  0
   51.3950  159.1680   30.2430 C   0  0  0  0  0  0  0  0  0  0  0  0
   52.2820  160.2180   30.4800 C   0  0  0  0  0  0  0  0  0  0  0  0
   51.8450  161.3600   31.1560 C   0  0  0  0  0  0  0  0  0  0  0  0
   50.5230  161.4500   31.5940 C   0  0  0  0  0  0  0  0  0  0  0  0
   49.6390  160.4000   31.3570 C   0  0  0  0  0  0  0  0  0  0  0  0
   48.3590  160.5550   31.8130 O   0  0  0  0  0  0  0  0  0  0  0  0
   50.0770  159.2580   30.6800 C   0  0  0  0  0  0  0  0  0  0  0  0
   48.6560  155.3160   30.1100 H   0  0  0  0  0  0  0  0  0  0  0  0
   51.3611  154.4034   30.1220 H   0  0  0  0  0  0  0  0  0  0  0  0
   52.5193  152.5890   28.8841 H   0  0  0  0  0  0  0  0  0  0  0  0
   54.6603  153.0981   26.0094 H   0  0  0  0  0  0  0  0  0  0  0  0
   53.9514  151.9238   27.2132 H   0  0  0  0  0  0  0  0  0  0  0  0
   52.2377  157.1575   26.9183 H   0  0  0  0  0  0  0  0  0  0  0  0
   53.3241  160.1471   30.1352 H   0  0  0  0  0  0  0  0  0  0  0  0
   52.5435  162.1889   31.3431 H   0  0  0  0  0  0  0  0  0  0  0  0
   50.1794  162.3494   32.1260 H   0  0  0  0  0  0  0  0  0  0  0  0
   48.0420  160.0160   32.5110 H   0  0  0  0  0  0  0  0  0  0  0  0
  1  2  2  0
  2  3  1  0
  3  4  1  0
  3  5  2  0
  5  6  1  0
  6  7  2  0
  7  8  1  0
  8  9  2  0
  9 10  1  0
 10 11  1  0
  9 12  1  0
 12 13  1  0
 13 14  1  0
 13 15  1  0
 13 16  1  0
 12 17  2  0
  5 18  1  0
 18 19  1  0
 19 20  2  0
 20 21  1  0
 21 22  2  0
 22 23  1  0
 23 24  1  0
 23 25  2  0
 25  2  1  0
 17  6  1  0
 25 19  1  0
  4 26  1  0
  7 27  1  0
  8 28  1  0
 10 29  1  0
 10 30  1  0
 17 31  1  0
 20 32  1  0
 21 33  1  0
 22 34  1  0
 24 35  1  0
M  END
>  <meeko>  (4) 
{"is_sidechain": [false], "free_energy": -9.563, "intermolecular_energy": -11.683, "internal_energy": -0.406}

$$$$
cand_010_out
     RDKit          3D

 35 37  0  0  0  0  0  0  0  0999 V2000
   52.0070  161.4670   31.5230 O   0  0  0  0  0  0  0  0  0  0  0  0
   51.3790  160.5010   31.0910 C   0  0  0  0  0  0  0  0  0  0  0  0
   52.0380  159.5130   30.2060 C   0  0  0  0  0  0  0  0  0  0  0  0
   53.3730  159.7220   29.9100 O   0  0  0  0  0  0  0  0  0  0  0  0
   51.3160  158.4700   29.7590 C   0  0  0  0  0  0  0  0  0  0  0  0
   51.8720  157.4180   28.8800 C   0  0  0  0  0  0  0  0  0  0  0  0
   52.5640  157.7300   27.7060 C   0  0  0  0  0  0  0  0  0  0  0  0
   53.0590  156.7200   26.8770 C   0  0  0  0  0  0  0  0  0  0  0  0
   52.8670  155.3670   27.1950 C   0  0  0  0  0  0  0  0  0  0  0  0
   53.4230  154.3040   26.2760 C   0  0  0  0  0  0  0  0  0  0  0  0
   54.1630  154.8130   25.2480 F   0  0  0  0  0  0  0  0  0  0  0  0
   52.1680  155.0330   28.3760 C   0  0  0  0  0  0  0  0  0  0  0  0
   51.9290  153.5920   28.7660 C   0  0  0  0  0  0  0  0  0  0  0  0
   53.0510  152.8200   28.7400 F   0  0  0  0  0  0  0  0  0  0  0  0
   51.4260  153.4750   30.0260 F   0  0  0  0  0  0  0  0  0  0  0  0
   51.0330  152.9730   27.9490 F   0  0  0  0  0  0  0  0  0  0  0  0
   51.6730  156.0660   29.1980 C   0  0  0  0  0  0  0  0  0  0  0  0
   49.9830  158.2510   30.0860 O   0  0  0  0  0  0  0  0  0  0  0  0
   49.3430  159.1540   30.8960 C   0  0  0  0  0  0  0  0  0  0  0  0
   48.0020  158.9040   31.1880 C   0  0  0  0  0  0  0  0  0  0  0  0
   47.2920  159.7830   32.0090 C   0  0  0  0  0  0  0  0  0  0  0  0
   47.9230  160.9110   32.5370 C   0  0  0  0  0  0  0  0  0  0  0  0
   49.2610  161.1590   32.2450 C   0  0  0  0  0  0  0  0  0  0  0  0
   49.8180  162.2800   32.7960 O   0  0  0  0  0  0  0  0  0  0  0  0
   49.9720  160.2790   31.4230 C   0  0  0  0  0  0  0  0  0  0  0  0
   53.8590  160.3730   30.3770 H   0  0  0  0  0  0  0  0  0  0  0  0
   52.7207  158.7836   27.4315 H   0  0  0  0  0  0  0  0  0  0  0  0
   53.6070  156.9895   25.9621 H   0  0  0  0  0  0  0  0  0  0  0  0
   54.0620  153.6311   26.8666 H   0  0  0  0  0  0  0  0  0  0  0  0
   52.5661  153.7768   25.8312 H   0  0  0  0  0  0  0  0  0  0  0  0
   51.1172  155.8056   30.1109 H   0  0  0  0  0  0  0  0  0  0  0  0
   47.5043  158.0156   30.7721 H   0  0  0  0  0  0  0  0  0  0  0  0
   46.2346  159.5864   32.2398 H   0  0  0  0  0  0  0  0  0  0  0  0
   47.3631  161.6031   33.1832 H   0  0  0  0  0  0  0  0  0  0  0  0
   50.7070  162.2650   33.0900 H   0  0  0  0  0  0  0  0  0  0  0  0
  1  2  2  0
  2  3  1  0
  3  4  1  0
  3  5  2  0
  5  6  1  0
  6  7  2  0
  7  8  1  0
  8  9  2  0
  9 10  1  0
 10 11  1  0
  9 12  1  0
 12 13  1  0
 13 14  1  0
 13 15  1  0
 13 16  1  0
 12 17  2  0
  5 18  1  0
 18 19  1  0
 19 20  2  0
 20 21  1  0
 21 22  2  0
 22 23  1  0
 23 24  1  0
 23 25  2  0
 25  2  1  0
 17  6  1  0
 25 19  1  0
  4 26  1  0
  7 27  1  0
  8 28  1  0
 10 29  1  0
 10 30  1  0
 17 31  1  0
 20 32  1  0
 21 33  1  0
 22 34  1  0
 24 35  1  0
M  END
>  <meeko>  (5) 
{"is_sidechain": [false], "free_energy": -9.198, "intermolecular_energy": -11.464, "internal_energy": -0.174}

$$$$
