cand_022_out
     RDKit          3D

 41 43  0  0  0  0  0  0  0  0999 V2000
   46.6600  160.0560   31.5580 C   0  0  0  0  0  0  0  0  0  0  0  0
   47.5910  159.2930   30.6290 C   0  0  0  0  0  0  0  0  0  0  0  0
   48.6650  158.5370   31.4120 C   0  0  0  0  0  0  0  0  0  0  0  0
   49.9960  158.5500   30.6930 C   0  0  0  0  0  0  0  0  0  0  0  0
   50.3880  157.3920   29.9930 C   0  0  0  0  0  0  0  0  0  0  0  0
   51.6150  157.3150   29.3190 C   0  0  0  0  0  0  0  0  0  0  0  0
   52.0150  156.1110   28.5620 C   0  0  0  0  0  0  0  0  0  0  0  0
   52.5590  156.4100   27.3180 O   0  0  0  0  0  0  0  0  0  0  0  0
   52.9730  155.3820   26.5110 C   0  0  0  0  0  0  0  0  0  0  0  0
   53.5000  155.7280   25.2650 C   0  0  0  0  0  0  0  0  0  0  0  0
   53.9410  154.7290   24.3940 C   0  0  0  0  0  0  0  0  0  0  0  0
   53.8570  153.3860   24.7680 C   0  0  0  0  0  0  0  0  0  0  0  0
   53.3330  153.0440   26.0120 C   0  0  0  0  0  0  0  0  0  0  0  0
   53.2800  151.7120   26.3150 O   0  0  0  0  0  0  0  0  0  0  0  0
   52.8900  154.0450   26.8830 C   0  0  0  0  0  0  0  0  0  0  0  0
   52.3300  153.7280   28.1990 C   0  0  0  0  0  0  0  0  0  0  0  0
   52.2310  152.5710   28.6020 O   0  0  0  0  0  0  0  0  0  0  0  0
   51.8830  154.8600   29.0420 C   0  0  0  0  0  0  0  0  0  0  0  0
   51.3690  154.5500   30.2880 O   0  0  0  0  0  0  0  0  0  0  0  0
   52.4520  158.4360   29.3400 C   0  0  0  0  0  0  0  0  0  0  0  0
   52.0820  159.5910   30.0340 C   0  0  0  0  0  0  0  0  0  0  0  0
   50.8620  159.6610   30.7230 C   0  0  0  0  0  0  0  0  0  0  0  0
   50.5090  160.9290   31.4500 C   0  0  0  0  0  0  0  0  0  0  0  0
   46.9256  159.8383   32.6030 H   0  0  0  0  0  0  0  0  0  0  0  0
   46.7598  161.1355   31.3715 H   0  0  0  0  0  0  0  0  0  0  0  0
   45.6211  159.7462   31.3715 H   0  0  0  0  0  0  0  0  0  0  0  0
   47.0008  158.5723   30.0439 H   0  0  0  0  0  0  0  0  0  0  0  0
   48.0900  160.0171   29.9682 H   0  0  0  0  0  0  0  0  0  0  0  0
   48.7875  159.0107   32.3972 H   0  0  0  0  0  0  0  0  0  0  0  0
   48.3413  157.4907   31.5148 H   0  0  0  0  0  0  0  0  0  0  0  0
   49.7126  156.5240   29.9747 H   0  0  0  0  0  0  0  0  0  0  0  0
   53.5677  156.7855   24.9699 H   0  0  0  0  0  0  0  0  0  0  0  0
   54.3552  155.0005   23.4118 H   0  0  0  0  0  0  0  0  0  0  0  0
   54.2041  152.5999   24.0812 H   0  0  0  0  0  0  0  0  0  0  0  0
   52.4550  151.3050   26.4970 H   0  0  0  0  0  0  0  0  0  0  0  0
   50.5100  154.1830   30.3620 H   0  0  0  0  0  0  0  0  0  0  0  0
   53.4122  158.4078   28.8041 H   0  0  0  0  0  0  0  0  0  0  0  0
   52.7579  160.4589   30.0402 H   0  0  0  0  0  0  0  0  0  0  0  0
   50.5574  160.7551   32.5351 H   0  0  0  0  0  0  0  0  0  0  0  0
   51.2209  161.7206   31.1734 H   0  0  0  0  0  0  0  0  0  0  0  0
   49.4904  161.2389   31.1734 H   0  0  0  0  0  0  0  0  0  0  0  0
  1  2  1  0
  2  3  1  0
  3  4  1  0
  4  5  2  0
  5  6  1  0
  6  7  1  0
  7  8  1  0
  8  9  1  0
  9 10  2  0
 10 11  1  0
 11 12  2  0
 12 13  1  0
 13 14  1  0
 13 15  2  0
 15 16  1  0
 16 17  2  0
 16 18  1  0
 18 19  1  0
  6 20  2  0
 20 21  1  0
 21 22  2  0
 22 23  1  0
 22  4  1  0
 18  7  2  0
 15  9  1  0
  1 24  1  0
  1 25  1  0
  1 26  1  0
  2 27  1  0
  2 28  1  0
  3 29  1  0
  3 30  1  0
  5 31  1  0
 10 32  1  0
 11 33  1  0
 12 34  1  0
 14 35  1  0
 19 36  1  0
 20 37  1  0
 21 38  1  0
 23 39  1  0
 23 40  1  0
 23 41  1  0
M  END
>  <meeko>  (1) 
{"is_sidechain": [false], "free_energy": -10.813, "intermolecular_energy": -13.342, "internal_energy": -0.228}

$$$$
cand_022_out
     RDKit          3D

 41 43  0  0  0  0  0  0  0  0999 V2000
   54.9480  156.5580   24.4350 C   0  0  0  0  0  0  0  0  0  0  0  0
   53.6270  156.5190   25.1860 C   0  0  0  0  0  0  0  0  0  0  0  0
   53.2530  155.0890   25.5820 C   0  0  0  0  0  0  0  0  0  0  0  0
   52.6390  155.0330   26.9640 C   0  0  0  0  0  0  0  0  0  0  0  0
   52.2920  156.2490   27.5890 C   0  0  0  0  0  0  0  0  0  0  0  0
   51.7390  156.2850   28.8760 C   0  0  0  0  0  0  0  0  0  0  0  0
   51.3510  157.5550   29.5220 C   0  0  0  0  0  0  0  0  0  0  0  0
   50.0280  157.5620   29.9520 O   0  0  0  0  0  0  0  0  0  0  0  0
   49.5370  158.6840   30.5700 C   0  0  0  0  0  0  0  0  0  0  0  0
   48.2010  158.6520   30.9710 C   0  0  0  0  0  0  0  0  0  0  0  0
   47.6380  159.7600   31.6080 C   0  0  0  0  0  0  0  0  0  0  0  0
   48.4110  160.8990   31.8440 C   0  0  0  0  0  0  0  0  0  0  0  0
   49.7440  160.9280   31.4430 C   0  0  0  0  0  0  0  0  0  0  0  0
   50.4440  162.0740   31.7060 O   0  0  0  0  0  0  0  0  0  0  0  0
   50.3070  159.8180   30.8050 C   0  0  0  0  0  0  0  0  0  0  0  0
   51.7040  159.8080   30.3670 C   0  0  0  0  0  0  0  0  0  0  0  0
   52.4490  160.7700   30.5460 O   0  0  0  0  0  0  0  0  0  0  0  0
   52.2000  158.5860   29.6940 C   0  0  0  0  0  0  0  0  0  0  0  0
   53.5240  158.5820   29.2960 O   0  0  0  0  0  0  0  0  0  0  0  0
   51.5150  155.0710   29.5350 C   0  0  0  0  0  0  0  0  0  0  0  0
   51.8570  153.8580   28.9320 C   0  0  0  0  0  0  0  0  0  0  0  0
   52.4280  153.8230   27.6510 C   0  0  0  0  0  0  0  0  0  0  0  0
   52.7730  152.4900   27.0450 C   0  0  0  0  0  0  0  0  0  0  0  0
   55.7788  156.5825   25.1555 H   0  0  0  0  0  0  0  0  0  0  0  0
   55.0371  155.6621   23.8030 H   0  0  0  0  0  0  0  0  0  0  0  0
   54.9841  157.4576   23.8030 H   0  0  0  0  0  0  0  0  0  0  0  0
   53.7141  157.1313   26.0957 H   0  0  0  0  0  0  0  0  0  0  0  0
   52.8407  156.9125   24.5250 H   0  0  0  0  0  0  0  0  0  0  0  0
   52.5285  154.6955   24.8539 H   0  0  0  0  0  0  0  0  0  0  0  0
   54.1718  154.4842   25.5904 H   0  0  0  0  0  0  0  0  0  0  0  0
   52.4600  157.1941   27.0518 H   0  0  0  0  0  0  0  0  0  0  0  0
   47.5918  157.7550   30.7856 H   0  0  0  0  0  0  0  0  0  0  0  0
   46.5847  159.7356   31.9242 H   0  0  0  0  0  0  0  0  0  0  0  0
   47.9675  161.7716   32.3458 H   0  0  0  0  0  0  0  0  0  0  0  0
   51.1050  162.0770   32.3700 H   0  0  0  0  0  0  0  0  0  0  0  0
   54.1460  158.0420   29.7430 H   0  0  0  0  0  0  0  0  0  0  0  0
   51.0648  155.0718   30.5386 H   0  0  0  0  0  0  0  0  0  0  0  0
   51.6758  152.9158   29.4700 H   0  0  0  0  0  0  0  0  0  0  0  0
   52.9618  151.7607   27.8465 H   0  0  0  0  0  0  0  0  0  0  0  0
   51.9353  152.1423   26.4227 H   0  0  0  0  0  0  0  0  0  0  0  0
   53.6742  152.5924   26.4227 H   0  0  0  0  0  0  0  0  0  0  0  0
  1  2  1  0
  2  3  1  0
  3  4  1  0
  4  5  2  0
  5  6  1  0
  6  7  1  0
  7  8  1  0
  8  9  1  0
  9 10  2  0
 10 11  1  0
 11 12  2  0
 12 13  1  0
 13 14  1  0
 13 15  2  0
 15 16  1  0
 16 17  2  0
 16 18  1  0
 18 19  1  0
  6 20  2  0
 20 21  1  0
 21 22  2  0
 22 23  1  0
 22  4  1  0
 18  7  2  0
 15  9  1  0
  1 24  1  0
  1 25  1  0
  1 26  1  0
  2 27  1  0
  2 28  1  0
  3 29  1  0
  3 30  1  0
  5 31  1  0
 10 32  1  0
 11 33  1  0
 12 34  1  0
 14 35  1  0
 19 36  1  0
 20 37  1  0
 21 38  1  0
 23 39  1  0
 23 40  1  0
 23 41  1  0
M  END
>  <meeko>  (2) 
{"is_sidechain": [false], "free_energy": -10.61, "intermolecular_energy": -12.921, "internal_energy": -0.398}

$$$$
cand_022_out
     RDKit          3D

 41 43  0  0  0  0  0  0  0  0999 V2000
   50.6000  161.9480   32.5300 C   0  0  0  0  0  0  0  0  0  0  0  0
   51.5180  160.8920   31.9320 C   0  0  0  0  0  0  0  0  0  0  0  0
   51.2010  160.6490   30.4550 C   0  0  0  0  0  0  0  0  0  0  0  0
   50.6230  159.2700   30.2270 C   0  0  0  0  0  0  0  0  0  0  0  0
   51.3870  158.3400   29.4930 C   0  0  0  0  0  0  0  0  0  0  0  0
   50.9150  157.0480   29.2190 C   0  0  0  0  0  0  0  0  0  0  0  0
   51.7260  156.0640   28.4730 C   0  0  0  0  0  0  0  0  0  0  0  0
   52.2660  156.5840   27.3030 O   0  0  0  0  0  0  0  0  0  0  0  0
   53.0420  155.7750   26.5130 C   0  0  0  0  0  0  0  0  0  0  0  0
   53.5520  156.3340   25.3400 C   0  0  0  0  0  0  0  0  0  0  0  0
   54.3510  155.5650   24.4920 C   0  0  0  0  0  0  0  0  0  0  0  0
   54.6410  154.2380   24.8160 C   0  0  0  0  0  0  0  0  0  0  0  0
   54.1320  153.6830   25.9870 C   0  0  0  0  0  0  0  0  0  0  0  0
   54.4550  152.3790   26.2440 O   0  0  0  0  0  0  0  0  0  0  0  0
   53.3310  154.4530   26.8350 C   0  0  0  0  0  0  0  0  0  0  0  0
   52.7760  153.9070   28.0750 C   0  0  0  0  0  0  0  0  0  0  0  0
   52.9930  152.7510   28.4320 O   0  0  0  0  0  0  0  0  0  0  0  0
   51.9340  154.8040   28.8990 C   0  0  0  0  0  0  0  0  0  0  0  0
   51.4250  154.2830   30.0750 O   0  0  0  0  0  0  0  0  0  0  0  0
   49.6560  156.6860   29.7100 C   0  0  0  0  0  0  0  0  0  0  0  0
   48.8830  157.5970   30.4350 C   0  0  0  0  0  0  0  0  0  0  0  0
   49.3480  158.8950   30.6940 C   0  0  0  0  0  0  0  0  0  0  0  0
   48.4790  159.8350   31.4830 C   0  0  0  0  0  0  0  0  0  0  0  0
   50.6462  161.8949   33.6277 H   0  0  0  0  0  0  0  0  0  0  0  0
   50.9229  162.9455   32.1973 H   0  0  0  0  0  0  0  0  0  0  0  0
   49.5673  161.7670   32.1973 H   0  0  0  0  0  0  0  0  0  0  0  0
   52.5605  161.2308   32.0233 H   0  0  0  0  0  0  0  0  0  0  0  0
   51.3646  159.9499   32.4787 H   0  0  0  0  0  0  0  0  0  0  0  0
   50.4724  161.4012   30.1182 H   0  0  0  0  0  0  0  0  0  0  0  0
   52.1389  160.7264   29.8855 H   0  0  0  0  0  0  0  0  0  0  0  0
   52.3806  158.6357   29.1251 H   0  0  0  0  0  0  0  0  0  0  0  0
   53.3245  157.3794   25.0841 H   0  0  0  0  0  0  0  0  0  0  0  0
   54.7527  156.0050   23.5673 H   0  0  0  0  0  0  0  0  0  0  0  0
   55.2704  153.6324   24.1473 H   0  0  0  0  0  0  0  0  0  0  0  0
   53.8220  151.7030   26.1020 H   0  0  0  0  0  0  0  0  0  0  0  0
   52.0070  153.9540   30.7320 H   0  0  0  0  0  0  0  0  0  0  0  0
   49.2702  155.6729   29.5233 H   0  0  0  0  0  0  0  0  0  0  0  0
   47.8945  157.2915   30.8084 H   0  0  0  0  0  0  0  0  0  0  0  0
   48.6365  159.6646   32.5583 H   0  0  0  0  0  0  0  0  0  0  0  0
   48.7419  160.8737   31.2339 H   0  0  0  0  0  0  0  0  0  0  0  0
   47.4229  159.6543   31.2339 H   0  0  0  0  0  0  0  0  0  0  0  0
  1  2  1  0
  2  3  1  0
  3  4  1  0
  4  5  2  0
  5  6  1  0
  6  7  1  0
  7  8  1  0
  8  9  1  0
  9 10  2  0
 10 11  1  0
 11 12  2  0
 12 13  1  0
 13 14  1  0
 13 15  2  0
 15 16  1  0
 16 17  2  0
 16 18  1  0
 18 19  1  0
  6 20  2  0
 20 21  1  0
 21 22  2  0
 22 23  1  0
 22  4  1  0
 18  7  2  0
 15  9  1  0
  1 24  1  0
  1 25  1  0
  1 26  1  0
  2 27  1  0
  2 28  1  0
  3 29  1  0
  3 30  1  0
  5 31  1  0
 10 32  1  0
 11 33  1  0
 12 34  1  0
 14 35  1  0
 19 36  1  0
 20 37  1  0
 21 38  1  0
 23 39  1  0
 23 40  1  0
 23 41  1  0
M  END
>  <meeko>  (3) 
{"is_sidechain": [false], "free_energy": -9.179, "intermolecular_energy": -11.836, "internal_energy": 0.282}

$$$$
cand_022_out
     RDKit          3D

 41 43  0  0  0  0  0  0  0  0999 V2000
   54.9670  156.9270   24.1230 C   0  0  0  0  0  0  0  0  0  0  0  0
   53.9780  156.7120   25.2580 C   0  0  0  0  0  0  0  0  0  0  0  0
   53.5770  155.2410   25.3770 C   0  0  0  0  0  0  0  0  0  0  0  0
   52.9010  154.9490   26.6990 C   0  0  0  0  0  0  0  0  0  0  0  0
   52.2880  156.0180   27.3840 C   0  0  0  0  0  0  0  0  0  0  0  0
   51.6600  155.8370   28.6240 C   0  0  0  0  0  0  0  0  0  0  0  0
   50.9940  156.9500   29.3300 C   0  0  0  0  0  0  0  0  0  0  0  0
   51.8500  158.0130   29.5930 O   0  0  0  0  0  0  0  0  0  0  0  0
   51.3580  159.1150   30.2460 C   0  0  0  0  0  0  0  0  0  0  0  0
   52.2570  160.1530   30.5020 C   0  0  0  0  0  0  0  0  0  0  0  0
   51.8210  161.3040   31.1610 C   0  0  0  0  0  0  0  0  0  0  0  0
   50.4890  161.4190   31.5640 C   0  0  0  0  0  0  0  0  0  0  0  0
   49.5950  160.3830   31.3060 C   0  0  0  0  0  0  0  0  0  0  0  0
   48.3050  160.5610   31.7270 O   0  0  0  0  0  0  0  0  0  0  0  0
   50.0320  159.2300   30.6470 C   0  0  0  0  0  0  0  0  0  0  0  0
   49.1250  158.1180   30.3580 C   0  0  0  0  0  0  0  0  0  0  0  0
   47.9370  158.1480   30.6740 O   0  0  0  0  0  0  0  0  0  0  0  0
   49.6890  156.9390   29.6620 C   0  0  0  0  0  0  0  0  0  0  0  0
   48.8200  155.9000   29.3820 O   0  0  0  0  0  0  0  0  0  0  0  0
   51.6370  154.5500   29.1720 C   0  0  0  0  0  0  0  0  0  0  0  0
   52.2440  153.4800   28.5090 C   0  0  0  0  0  0  0  0  0  0  0  0
   52.8880  153.6650   27.2770 C   0  0  0  0  0  0  0  0  0  0  0  0
   53.5220  152.4800   26.6020 C   0  0  0  0  0  0  0  0  0  0  0  0
   55.9618  157.1433   24.5396 H   0  0  0  0  0  0  0  0  0  0  0  0
   55.0181  156.0190   23.5042 H   0  0  0  0  0  0  0  0  0  0  0  0
   54.6365  157.7743   23.5042 H   0  0  0  0  0  0  0  0  0  0  0  0
   54.4412  157.0343   26.2023 H   0  0  0  0  0  0  0  0  0  0  0  0
   53.0738  157.3014   25.0458 H   0  0  0  0  0  0  0  0  0  0  0  0
   52.8834  154.9936   24.5599 H   0  0  0  0  0  0  0  0  0  0  0  0
   54.4906  154.6312   25.3176 H   0  0  0  0  0  0  0  0  0  0  0  0
   52.3030  157.0212   26.9331 H   0  0  0  0  0  0  0  0  0  0  0  0
   53.3065  160.0637   30.1850 H   0  0  0  0  0  0  0  0  0  0  0  0
   52.5282  162.1219   31.3632 H   0  0  0  0  0  0  0  0  0  0  0  0
   50.1467  162.3259   32.0840 H   0  0  0  0  0  0  0  0  0  0  0  0
   47.6790  160.9620   31.1570 H   0  0  0  0  0  0  0  0  0  0  0  0
   48.8220  155.5040   28.5330 H   0  0  0  0  0  0  0  0  0  0  0  0
   51.1354  154.3783   30.1358 H   0  0  0  0  0  0  0  0  0  0  0  0
   52.2162  152.4773   28.9604 H   0  0  0  0  0  0  0  0  0  0  0  0
   53.8962  151.7807   27.3642 H   0  0  0  0  0  0  0  0  0  0  0  0
   52.7749  151.9726   25.9740 H   0  0  0  0  0  0  0  0  0  0  0  0
   54.3587  152.8200   25.9740 H   0  0  0  0  0  0  0  0  0  0  0  0
  1  2  1  0
  2  3  1  0
  3  4  1  0
  4  5  2  0
  5  6  1  0
  6  7  1  0
  7  8  1  0
  8  9  1  0
  9 10  2  0
 10 11  1  0
 11 12  2  0
 12 13  1  0
 13 14  1  0
 13 15  2  0
 15 16  1  0
 16 17  2  0
 16 18  1  0
 18 19  1  0
  6 20  2  0
 20 21  1  0
 21 22  2  0
 22 23  1  0
 22  4  1  0
 18  7  2  0
 15  9  1  0
  1 24  1  0
  1 25  1  0
  1 26  1  0
  2 27  1  0
  2 28  1  0
  3 29  1  0
  3 30  1  0
  5 31  1  0
 10 32  1  0
 11 33  1  0
 12 34  1  0
 14 35  1  0
 19 36  1  0
 20 37  1  0
 21 38  1  0
 23 39  1  0
 23 40  1  0
 23 41  1  0
M  END
>  <meeko>  (4) 
{"is_sidechain": [false], "free_energy": -8.804, "intermolecular_energy": -10.712, "internal_energy": -0.379}

$$$$
cand_022_out
     RDKit          3D

 41 43  0  0  0  0  0  0  0  0999 V2000
   51.5730  151.2590   28.2560 C   0  0  0  0  0  0  0  0  0  0  0  0
   51.5490  152.7260   27.8540 C   0  0  0  0  0  0  0  0  0  0  0  0
   51.9520  153.6300   29.0200 C   0  0  0  0  0  0  0  0  0  0  0  0
   52.1540  155.0620   28.5740 C   0  0  0  0  0  0  0  0  0  0  0  0
   51.6220  156.0920   29.3770 C   0  0  0  0  0  0  0  0  0  0  0  0
   51.7470  157.4430   29.0240 C   0  0  0  0  0  0  0  0  0  0  0  0
   51.2130  158.5240   29.8770 C   0  0  0  0  0  0  0  0  0  0  0  0
   49.8850  158.3240   30.2350 O   0  0  0  0  0  0  0  0  0  0  0  0
   49.2650  159.2560   31.0290 C   0  0  0  0  0  0  0  0  0  0  0  0
   47.9270  159.0230   31.3520 C   0  0  0  0  0  0  0  0  0  0  0  0
   47.2370  159.9310   32.1570 C   0  0  0  0  0  0  0  0  0  0  0  0
   47.8830  161.0710   32.6410 C   0  0  0  0  0  0  0  0  0  0  0  0
   49.2180  161.3000   32.3180 C   0  0  0  0  0  0  0  0  0  0  0  0
   49.7900  162.4340   32.8240 O   0  0  0  0  0  0  0  0  0  0  0  0
   49.9080  160.3910   31.5100 C   0  0  0  0  0  0  0  0  0  0  0  0
   51.3120  160.5950   31.1460 C   0  0  0  0  0  0  0  0  0  0  0  0
   51.9500  161.5700   31.5390 O   0  0  0  0  0  0  0  0  0  0  0  0
   51.9480  159.5770   30.2800 C   0  0  0  0  0  0  0  0  0  0  0  0
   53.2780  159.7730   29.9540 O   0  0  0  0  0  0  0  0  0  0  0  0
   52.4350  157.7580   27.8480 C   0  0  0  0  0  0  0  0  0  0  0  0
   52.9650  156.7500   27.0370 C   0  0  0  0  0  0  0  0  0  0  0  0
   52.8240  155.3970   27.3820 C   0  0  0  0  0  0  0  0  0  0  0  0
   53.4170  154.3510   26.4790 C   0  0  0  0  0  0  0  0  0  0  0  0
   51.5743  151.1794   29.3531 H   0  0  0  0  0  0  0  0  0  0  0  0
   50.6830  150.7537   27.8528 H   0  0  0  0  0  0  0  0  0  0  0  0
   52.4791  150.7831   27.8528 H   0  0  0  0  0  0  0  0  0  0  0  0
   52.2514  152.8807   27.0217 H   0  0  0  0  0  0  0  0  0  0  0  0
   50.5236  152.9859   27.5524 H   0  0  0  0  0  0  0  0  0  0  0  0
   51.1598  153.6025   29.7827 H   0  0  0  0  0  0  0  0  0  0  0  0
   52.9044  153.2601   29.4275 H   0  0  0  0  0  0  0  0  0  0  0  0
   51.0946  155.8282   30.3056 H   0  0  0  0  0  0  0  0  0  0  0  0
   47.4171  158.1251   30.9727 H   0  0  0  0  0  0  0  0  0  0  0  0
   46.1824  159.7484   32.4107 H   0  0  0  0  0  0  0  0  0  0  0  0
   47.3386  161.7859   33.2755 H   0  0  0  0  0  0  0  0  0  0  0  0
   49.8990  163.1880   32.2780 H   0  0  0  0  0  0  0  0  0  0  0  0
   53.9510  159.3910   30.4820 H   0  0  0  0  0  0  0  0  0  0  0  0
   52.5607  158.8115   27.5575 H   0  0  0  0  0  0  0  0  0  0  0  0
   53.5003  157.0214   26.1151 H   0  0  0  0  0  0  0  0  0  0  0  0
   53.8687  153.5542   27.0881 H   0  0  0  0  0  0  0  0  0  0  0  0
   52.6267  153.9239   25.8442 H   0  0  0  0  0  0  0  0  0  0  0  0
   54.1893  154.8098   25.8442 H   0  0  0  0  0  0  0  0  0  0  0  0
  1  2  1  0
  2  3  1  0
  3  4  1  0
  4  5  2  0
  5  6  1  0
  6  7  1  0
  7  8  1  0
  8  9  1  0
  9 10  2  0
 10 11  1  0
 11 12  2  0
 12 13  1  0
 13 14  1  0
 13 15  2  0
 15 16  1  0
 16 17  2  0
 16 18  1  0
 18 19  1  0
  6 20  2  0
 20 21  1  0
 21 22  2  0
 22 23  1  0
 22  4  1  0
 18  7  2  0
 15  9  1  0
  1 24  1  0
  1 25  1  0
  1 26  1  0
  2 27  1  0
  2 28  1  0
  3 29  1  0
  3 30  1  0
  5 31  1  0
 10 32  1  0
 11 33  1  0
 12 34  1  0
 14 35  1  0
 19 36  1  0
 20 37  1  0
 21 38  1  0
 23 39  1  0
 23 40  1  0
 23 41  1  0
M  END
>  <meeko>  (5) 
{"is_sidechain": [false], "free_energy": -7.828, "intermolecular_energy": -10.365, "internal_energy": 0.479}

$$$$
