cand_044_out
     RDKit          3D

 41 43  0  0  0  0  0  0  0  0999 V2000
   48.8040  161.5100   33.7180 C   0  0  0  0  0  0  0  0  0  0  0  0
   50.0930  161.0840   33.0320 C   0  0  0  0  0  0  0  0  0  0  0  0
   49.9890  161.2240   31.5120 C   0  0  0  0  0  0  0  0  0  0  0  0
   50.4440  159.9690   30.7980 C   0  0  0  0  0  0  0  0  0  0  0  0
   51.7800  159.8960   30.3700 C   0  0  0  0  0  0  0  0  0  0  0  0
   52.2590  158.7740   29.6910 C   0  0  0  0  0  0  0  0  0  0  0  0
   51.4150  157.6970   29.4080 C   0  0  0  0  0  0  0  0  0  0  0  0
   51.9020  156.4860   28.7120 C   0  0  0  0  0  0  0  0  0  0  0  0
   52.4970  156.7700   27.4870 O   0  0  0  0  0  0  0  0  0  0  0  0
   52.9980  155.7370   26.7370 C   0  0  0  0  0  0  0  0  0  0  0  0
   53.5770  156.0670   25.5120 C   0  0  0  0  0  0  0  0  0  0  0  0
   54.1070  155.0620   24.6990 C   0  0  0  0  0  0  0  0  0  0  0  0
   54.0590  153.7300   25.1110 C   0  0  0  0  0  0  0  0  0  0  0  0
   53.4800  153.4030   26.3360 C   0  0  0  0  0  0  0  0  0  0  0  0
   53.4670  152.0790   26.6790 O   0  0  0  0  0  0  0  0  0  0  0  0
   52.9500  154.4090   27.1480 C   0  0  0  0  0  0  0  0  0  0  0  0
   52.3350  154.1090   28.4420 C   0  0  0  0  0  0  0  0  0  0  0  0
   52.2600  152.9620   28.8780 O   0  0  0  0  0  0  0  0  0  0  0  0
   51.7980  155.2460   29.2250 C   0  0  0  0  0  0  0  0  0  0  0  0
   51.2330  154.9530   30.4520 O   0  0  0  0  0  0  0  0  0  0  0  0
   50.0810  157.7650   29.8390 C   0  0  0  0  0  0  0  0  0  0  0  0
   49.5770  158.8900   30.5250 C   0  0  0  0  0  0  0  0  0  0  0  0
   48.1330  158.8840   30.9710 C   0  0  0  0  0  0  0  0  0  0  0  0
   47.9850  158.7000   32.3130 F   0  0  0  0  0  0  0  0  0  0  0  0
   47.4710  160.0450   30.6910 F   0  0  0  0  0  0  0  0  0  0  0  0
   48.9374  161.4659   34.8090 H   0  0  0  0  0  0  0  0  0  0  0  0
   48.5530  162.5389   33.4206 H   0  0  0  0  0  0  0  0  0  0  0  0
   47.9894  160.8333   33.4206 H   0  0  0  0  0  0  0  0  0  0  0  0
   50.9170  161.7163   33.3941 H   0  0  0  0  0  0  0  0  0  0  0  0
   50.2788  160.0263   33.2704 H   0  0  0  0  0  0  0  0  0  0  0  0
   48.9414  161.4258   31.2441 H   0  0  0  0  0  0  0  0  0  0  0  0
   50.6439  162.0508   31.1998 H   0  0  0  0  0  0  0  0  0  0  0  0
   52.4599  160.7365   30.5731 H   0  0  0  0  0  0  0  0  0  0  0  0
   53.3121  158.7375   29.3754 H   0  0  0  0  0  0  0  0  0  0  0  0
   53.6164  157.1170   25.1864 H   0  0  0  0  0  0  0  0  0  0  0  0
   54.5630  155.3215   23.7322 H   0  0  0  0  0  0  0  0  0  0  0  0
   54.4772  152.9395   24.4705 H   0  0  0  0  0  0  0  0  0  0  0  0
   53.8790  151.7960   27.4730 H   0  0  0  0  0  0  0  0  0  0  0  0
   50.3360  154.6890   30.5050 H   0  0  0  0  0  0  0  0  0  0  0  0
   49.4098  156.9175   29.6362 H   0  0  0  0  0  0  0  0  0  0  0  0
   47.7093  158.0422   30.4037 H   0  0  0  0  0  0  0  0  0  0  0  0
  1  2  1  0
  2  3  1  0
  3  4  1  0
  4  5  2  0
  5  6  1  0
  6  7  2  0
  7  8  1  0
  8  9  1  0
  9 10  1  0
 10 11  2  0
 11 12  1  0
 12 13  2  0
 13 14  1  0
 14 15  1  0
 14 16  2  0
 16 17  1  0
 17 18  2  0
 17 19  1  0
 19 20  1  0
  7 21  1  0
 21 22  2  0
 22 23  1  0
 23 24  1  0
 23 25  1  0
 22  4  1  0
 19  8  2  0
 16 10  1  0
  1 26  1  0
  1 27  1  0
  1 28  1  0
  2 29  1  0
  2 30  1  0
  3 31  1  0
  3 32  1  0
  5 33  1  0
  6 34  1  0
 11 35  1  0
 12 36  1  0
 13 37  1  0
 15 38  1  0
 20 39  1  0
 21 40  1  0
 23 41  1  0
M  END
>  <meeko>  (1) 
{"is_sidechain": [false], "free_energy": -11.596, "intermolecular_energy": -14.985, "internal_energy": -0.549}

$$$$
cand_044_out
     RDKit          3D

 41 43  0  0  0  0  0  0  0  0999 V2000
   49.0500  161.4020   33.8210 C   0  0  0  0  0  0  0  0  0  0  0  0
   49.0500  160.0830   33.0640 C   0  0  0  0  0  0  0  0  0  0  0  0
   48.9630  160.3080   31.5530 C   0  0  0  0  0  0  0  0  0  0  0  0
   49.7170  159.2470   30.7800 C   0  0  0  0  0  0  0  0  0  0  0  0
   49.0400  158.0640   30.4420 C   0  0  0  0  0  0  0  0  0  0  0  0
   49.6830  157.0380   29.7450 C   0  0  0  0  0  0  0  0  0  0  0  0
   51.0250  157.1600   29.3760 C   0  0  0  0  0  0  0  0  0  0  0  0
   51.7240  156.1000   28.6170 C   0  0  0  0  0  0  0  0  0  0  0  0
   52.2950  156.5680   27.4380 O   0  0  0  0  0  0  0  0  0  0  0  0
   52.9800  155.6900   26.6380 C   0  0  0  0  0  0  0  0  0  0  0  0
   53.5270  156.2000   25.4610 C   0  0  0  0  0  0  0  0  0  0  0  0
   54.2380  155.3590   24.6010 C   0  0  0  0  0  0  0  0  0  0  0  0
   54.4010  154.0100   24.9180 C   0  0  0  0  0  0  0  0  0  0  0  0
   53.8530  153.5030   26.0950 C   0  0  0  0  0  0  0  0  0  0  0  0
   54.0510  152.1720   26.3460 O   0  0  0  0  0  0  0  0  0  0  0  0
   53.1430  154.3450   26.9540 C   0  0  0  0  0  0  0  0  0  0  0  0
   52.5530  153.8540   28.2000 C   0  0  0  0  0  0  0  0  0  0  0  0
   52.6580  152.6800   28.5530 O   0  0  0  0  0  0  0  0  0  0  0  0
   51.8150  154.8260   29.0390 C   0  0  0  0  0  0  0  0  0  0  0  0
   51.2750  154.3530   30.2210 O   0  0  0  0  0  0  0  0  0  0  0  0
   51.7020  158.3430   29.7080 C   0  0  0  0  0  0  0  0  0  0  0  0
   51.0710  159.3890   30.4130 C   0  0  0  0  0  0  0  0  0  0  0  0
   51.8630  160.6400   30.7220 C   0  0  0  0  0  0  0  0  0  0  0  0
   51.3810  161.7490   30.0950 F   0  0  0  0  0  0  0  0  0  0  0  0
   51.8850  160.9570   32.0500 F   0  0  0  0  0  0  0  0  0  0  0  0
   50.0871  161.7200   34.0035 H   0  0  0  0  0  0  0  0  0  0  0  0
   48.5315  162.1671   33.2245 H   0  0  0  0  0  0  0  0  0  0  0  0
   48.5315  161.2729   34.7825 H   0  0  0  0  0  0  0  0  0  0  0  0
   49.9785  159.5391   33.2922 H   0  0  0  0  0  0  0  0  0  0  0  0
   48.1706  159.5022   33.3793 H   0  0  0  0  0  0  0  0  0  0  0  0
   47.9057  160.2847   31.2503 H   0  0  0  0  0  0  0  0  0  0  0  0
   49.4188  161.2832   31.3267 H   0  0  0  0  0  0  0  0  0  0  0  0
   47.9855  157.9431   30.7309 H   0  0  0  0  0  0  0  0  0  0  0  0
   49.1273  156.1252   29.4842 H   0  0  0  0  0  0  0  0  0  0  0  0
   53.3989  157.2633   25.2099 H   0  0  0  0  0  0  0  0  0  0  0  0
   54.6699  155.7610   23.6726 H   0  0  0  0  0  0  0  0  0  0  0  0
   54.9607  153.3482   24.2406 H   0  0  0  0  0  0  0  0  0  0  0  0
   54.7720  151.7230   25.9480 H   0  0  0  0  0  0  0  0  0  0  0  0
   50.6650  154.8780   30.7000 H   0  0  0  0  0  0  0  0  0  0  0  0
   52.7546  158.4581   29.4101 H   0  0  0  0  0  0  0  0  0  0  0  0
   52.8703  160.3836   30.3619 H   0  0  0  0  0  0  0  0  0  0  0  0
  1  2  1  0
  2  3  1  0
  3  4  1  0
  4  5  2  0
  5  6  1  0
  6  7  2  0
  7  8  1  0
  8  9  1  0
  9 10  1  0
 10 11  2  0
 11 12  1  0
 12 13  2  0
 13 14  1  0
 14 15  1  0
 14 16  2  0
 16 17  1  0
 17 18  2  0
 17 19  1  0
 19 20  1  0
  7 21  1  0
 21 22  2  0
 22 23  1  0
 23 24  1  0
 23 25  1  0
 22  4  1  0
 19  8  2  0
 16 10  1  0
  1 26  1  0
  1 27  1  0
  1 28  1  0
  2 29  1  0
  2 30  1  0
  3 31  1  0
  3 32  1  0
  5 33  1  0
  6 34  1  0
 11 35  1  0
 12 36  1  0
 13 37  1  0
 15 38  1  0
 20 39  1  0
 21 40  1  0
 23 41  1  0
M  END
>  <meeko>  (2) 
{"is_sidechain": [false], "free_energy": -11.051, "intermolecular_energy": -14.268, "internal_energy": -0.562}

$$$$
cand_044_out
     RDKit          3D

 41 43  0  0  0  0  0  0  0  0999 V2000
   54.5030  151.8400   24.9530 C   0  0  0  0  0  0  0  0  0  0  0  0
   54.3070  152.5570   26.2800 C   0  0  0  0  0  0  0  0  0  0  0  0
   52.8300  152.6020   26.6770 C   0  0  0  0  0  0  0  0  0  0  0  0
   52.4700  153.9030   27.3620 C   0  0  0  0  0  0  0  0  0  0  0  0
   51.8970  153.8430   28.6430 C   0  0  0  0  0  0  0  0  0  0  0  0
   51.5250  155.0050   29.3220 C   0  0  0  0  0  0  0  0  0  0  0  0
   51.7040  156.2610   28.7370 C   0  0  0  0  0  0  0  0  0  0  0  0
   51.3420  157.5090   29.4440 C   0  0  0  0  0  0  0  0  0  0  0  0
   50.0230  157.5170   29.8850 O   0  0  0  0  0  0  0  0  0  0  0  0
   49.5560  158.6140   30.5610 C   0  0  0  0  0  0  0  0  0  0  0  0
   48.2240  158.5830   30.9770 C   0  0  0  0  0  0  0  0  0  0  0  0
   47.6860  159.6680   31.6710 C   0  0  0  0  0  0  0  0  0  0  0  0
   48.4770  160.7830   31.9510 C   0  0  0  0  0  0  0  0  0  0  0  0
   49.8070  160.8110   31.5360 C   0  0  0  0  0  0  0  0  0  0  0  0
   50.5270  161.9330   31.8440 O   0  0  0  0  0  0  0  0  0  0  0  0
   50.3450  159.7250   30.8410 C   0  0  0  0  0  0  0  0  0  0  0  0
   51.7370  159.7140   30.3880 C   0  0  0  0  0  0  0  0  0  0  0  0
   52.4990  160.6550   30.6010 O   0  0  0  0  0  0  0  0  0  0  0  0
   52.2080  158.5170   29.6540 C   0  0  0  0  0  0  0  0  0  0  0  0
   53.5290  158.5110   29.2450 O   0  0  0  0  0  0  0  0  0  0  0  0
   52.2810  156.3240   27.4590 C   0  0  0  0  0  0  0  0  0  0  0  0
   52.6610  155.1620   26.7560 C   0  0  0  0  0  0  0  0  0  0  0  0
   53.2900  155.3110   25.3900 C   0  0  0  0  0  0  0  0  0  0  0  0
   52.5420  154.7630   24.3910 F   0  0  0  0  0  0  0  0  0  0  0  0
   53.4880  156.6100   25.0200 F   0  0  0  0  0  0  0  0  0  0  0  0
   54.7888  150.7944   25.1399 H   0  0  0  0  0  0  0  0  0  0  0  0
   53.5646  151.8667   24.3797 H   0  0  0  0  0  0  0  0  0  0  0  0
   55.2973  152.3404   24.3797 H   0  0  0  0  0  0  0  0  0  0  0  0
   54.8715  152.0259   27.0606 H   0  0  0  0  0  0  0  0  0  0  0  0
   54.6683  153.5904   26.1720 H   0  0  0  0  0  0  0  0  0  0  0  0
   52.2148  152.4945   25.7715 H   0  0  0  0  0  0  0  0  0  0  0  0
   52.6414  151.7805   27.3838 H   0  0  0  0  0  0  0  0  0  0  0  0
   51.7387  152.8642   29.1193 H   0  0  0  0  0  0  0  0  0  0  0  0
   51.0864  154.9307   30.3280 H   0  0  0  0  0  0  0  0  0  0  0  0
   47.5990  157.7046   30.7582 H   0  0  0  0  0  0  0  0  0  0  0  0
   46.6360  159.6441   31.9980 H   0  0  0  0  0  0  0  0  0  0  0  0
   48.0518  161.6375   32.4978 H   0  0  0  0  0  0  0  0  0  0  0  0
   51.4570  161.9410   31.7260 H   0  0  0  0  0  0  0  0  0  0  0  0
   53.8210  159.1180   28.5940 H   0  0  0  0  0  0  0  0  0  0  0  0
   52.4413  157.3073   26.9927 H   0  0  0  0  0  0  0  0  0  0  0  0
   54.2484  154.7839   25.5070 H   0  0  0  0  0  0  0  0  0  0  0  0
  1  2  1  0
  2  3  1  0
  3  4  1  0
  4  5  2  0
  5  6  1  0
  6  7  2  0
  7  8  1  0
  8  9  1  0
  9 10  1  0
 10 11  2  0
 11 12  1  0
 12 13  2  0
 13 14  1  0
 14 15  1  0
 14 16  2  0
 16 17  1  0
 17 18  2  0
 17 19  1  0
 19 20  1  0
  7 21  1  0
 21 22  2  0
 22 23  1  0
 23 24  1  0
 23 25  1  0
 22  4  1  0
 19  8  2  0
 16 10  1  0
  1 26  1  0
  1 27  1  0
  1 28  1  0
  2 29  1  0
  2 30  1  0
  3 31  1  0
  3 32  1  0
  5 33  1  0
  6 34  1  0
 11 35  1  0
 12 36  1  0
 13 37  1  0
 15 38  1  0
 20 39  1  0
 21 40  1  0
 23 41  1  0
M  END
>  <meeko>  (3) 
{"is_sidechain": [false], "free_energy": -10.531, "intermolecular_energy": -13.987, "internal_energy": -0.172}

$$$$
cand_044_out
     RDKit          3D

 41 43  0  0  0  0  0  0  0  0999 V2000
   53.8170  153.6550   24.0060 C   0  0  0  0  0  0  0  0  0  0  0  0
   52.9780  154.5110   24.9410 C   0  0  0  0  0  0  0  0  0  0  0  0
   53.3700  154.2900   26.4040 C   0  0  0  0  0  0  0  0  0  0  0  0
   52.7890  155.3530   27.3110 C   0  0  0  0  0  0  0  0  0  0  0  0
   53.1190  156.6940   27.0590 C   0  0  0  0  0  0  0  0  0  0  0  0
   52.6310  157.7220   27.8680 C   0  0  0  0  0  0  0  0  0  0  0  0
   51.8070  157.4390   28.9610 C   0  0  0  0  0  0  0  0  0  0  0  0
   51.2560  158.5100   29.8200 C   0  0  0  0  0  0  0  0  0  0  0  0
   49.9200  158.3030   30.1500 O   0  0  0  0  0  0  0  0  0  0  0  0
   49.2850  159.2190   30.9480 C   0  0  0  0  0  0  0  0  0  0  0  0
   47.9430  158.9770   31.2450 C   0  0  0  0  0  0  0  0  0  0  0  0
   47.2370  159.8710   32.0540 C   0  0  0  0  0  0  0  0  0  0  0  0
   47.8710  161.0040   32.5650 C   0  0  0  0  0  0  0  0  0  0  0  0
   49.2110  161.2430   32.2670 C   0  0  0  0  0  0  0  0  0  0  0  0
   49.7710  162.3710   32.8000 O   0  0  0  0  0  0  0  0  0  0  0  0
   49.9160  160.3490   31.4580 C   0  0  0  0  0  0  0  0  0  0  0  0
   51.3250  160.5610   31.1210 C   0  0  0  0  0  0  0  0  0  0  0  0
   51.9550  161.5320   31.5370 O   0  0  0  0  0  0  0  0  0  0  0  0
   51.9810  159.5570   30.2520 C   0  0  0  0  0  0  0  0  0  0  0  0
   53.3160  159.7600   29.9540 O   0  0  0  0  0  0  0  0  0  0  0  0
   51.4710  156.1000   29.2120 C   0  0  0  0  0  0  0  0  0  0  0  0
   51.9560  155.0470   28.4080 C   0  0  0  0  0  0  0  0  0  0  0  0
   51.5380  153.6310   28.7320 C   0  0  0  0  0  0  0  0  0  0  0  0
   51.1470  152.9220   27.6370 F   0  0  0  0  0  0  0  0  0  0  0  0
   52.5290  152.8890   29.3080 F   0  0  0  0  0  0  0  0  0  0  0  0
   54.4659  152.9930   24.5982 H   0  0  0  0  0  0  0  0  0  0  0  0
   53.1547  153.0476   23.3716 H   0  0  0  0  0  0  0  0  0  0  0  0
   54.4375  154.3050   23.3716 H   0  0  0  0  0  0  0  0  0  0  0  0
   53.1275  155.5707   24.6867 H   0  0  0  0  0  0  0  0  0  0  0  0
   51.9229  154.2250   24.8185 H   0  0  0  0  0  0  0  0  0  0  0  0
   52.9993  153.3059   26.7267 H   0  0  0  0  0  0  0  0  0  0  0  0
   54.4664  154.3437   26.4749 H   0  0  0  0  0  0  0  0  0  0  0  0
   53.7734  156.9391   26.2095 H   0  0  0  0  0  0  0  0  0  0  0  0
   52.8977  158.7652   27.6429 H   0  0  0  0  0  0  0  0  0  0  0  0
   47.4420  158.0841   30.8429 H   0  0  0  0  0  0  0  0  0  0  0  0
   46.1792  159.6812   32.2885 H   0  0  0  0  0  0  0  0  0  0  0  0
   47.3141  161.7071   33.2018 H   0  0  0  0  0  0  0  0  0  0  0  0
   50.4950  162.3000   33.3920 H   0  0  0  0  0  0  0  0  0  0  0  0
   53.6470  160.6300   29.8530 H   0  0  0  0  0  0  0  0  0  0  0  0
   50.8107  155.8646   30.0597 H   0  0  0  0  0  0  0  0  0  0  0  0
   50.7011  153.7799   29.4301 H   0  0  0  0  0  0  0  0  0  0  0  0
  1  2  1  0
  2  3  1  0
  3  4  1  0
  4  5  2  0
  5  6  1  0
  6  7  2  0
  7  8  1  0
  8  9  1  0
  9 10  1  0
 10 11  2  0
 11 12  1  0
 12 13  2  0
 13 14  1  0
 14 15  1  0
 14 16  2  0
 16 17  1  0
 17 18  2  0
 17 19  1  0
 19 20  1  0
  7 21  1  0
 21 22  2  0
 22 23  1  0
 23 24  1  0
 23 25  1  0
 22  4  1  0
 19  8  2  0
 16 10  1  0
  1 26  1  0
  1 27  1  0
  1 28  1  0
  2 29  1  0
  2 30  1  0
  3 31  1  0
  3 32  1  0
  5 33  1  0
  6 34  1  0
 11 35  1  0
 12 36  1  0
 13 37  1  0
 15 38  1  0
 20 39  1  0
 21 40  1  0
 23 41  1  0
M  END
>  <meeko>  (4) 
{"is_sidechain": [false], "free_energy": -9.834, "intermolecular_energy": -12.951, "internal_energy": -0.307}

$$$$
cand_044_out
     RDKit          3D

 41 43  0  0  0  0  0  0  0  0999 V2000
   53.9460  152.1390   24.3930 C   0  0  0  0  0  0  0  0  0  0  0  0
   52.9670  152.4560   25.5120 C   0  0  0  0  0  0  0  0  0  0  0  0
   53.6950  152.9010   26.7820 C   0  0  0  0  0  0  0  0  0  0  0  0
   52.9890  154.0540   27.4630 C   0  0  0  0  0  0  0  0  0  0  0  0
   52.2940  153.7960   28.6560 C   0  0  0  0  0  0  0  0  0  0  0  0
   51.6080  154.8110   29.3250 C   0  0  0  0  0  0  0  0  0  0  0  0
   51.5850  156.1120   28.8160 C   0  0  0  0  0  0  0  0  0  0  0  0
   50.8860  157.2120   29.5160 C   0  0  0  0  0  0  0  0  0  0  0  0
   51.7280  158.2740   29.8270 O   0  0  0  0  0  0  0  0  0  0  0  0
   51.2080  159.3660   30.4740 C   0  0  0  0  0  0  0  0  0  0  0  0
   52.0900  160.4040   30.7750 C   0  0  0  0  0  0  0  0  0  0  0  0
   51.6250  161.5440   31.4330 C   0  0  0  0  0  0  0  0  0  0  0  0
   50.2790  161.6480   31.7890 C   0  0  0  0  0  0  0  0  0  0  0  0
   49.4000  160.6100   31.4870 C   0  0  0  0  0  0  0  0  0  0  0  0
   48.0950  160.7760   31.8630 O   0  0  0  0  0  0  0  0  0  0  0  0
   49.8660  159.4690   30.8290 C   0  0  0  0  0  0  0  0  0  0  0  0
   48.9770  158.3570   30.4910 C   0  0  0  0  0  0  0  0  0  0  0  0
   47.7780  158.3750   30.7660 O   0  0  0  0  0  0  0  0  0  0  0  0
   49.5710  157.1900   29.7980 C   0  0  0  0  0  0  0  0  0  0  0  0
   48.7170  156.1520   29.4710 O   0  0  0  0  0  0  0  0  0  0  0  0
   52.2820  156.3730   27.6260 C   0  0  0  0  0  0  0  0  0  0  0  0
   52.9800  155.3610   26.9350 C   0  0  0  0  0  0  0  0  0  0  0  0
   53.7200  155.7230   25.6670 C   0  0  0  0  0  0  0  0  0  0  0  0
   52.9490  155.6250   24.5480 F   0  0  0  0  0  0  0  0  0  0  0  0
   54.2010  157.0010   25.6630 F   0  0  0  0  0  0  0  0  0  0  0  0
   54.9084  151.8274   24.8251 H   0  0  0  0  0  0  0  0  0  0  0  0
   53.5423  151.3257   23.7721 H   0  0  0  0  0  0  0  0  0  0  0  0
   54.0957  153.0346   23.7721 H   0  0  0  0  0  0  0  0  0  0  0  0
   52.2963  153.2632   25.1826 H   0  0  0  0  0  0  0  0  0  0  0  0
   52.3969  151.5437   25.7417 H   0  0  0  0  0  0  0  0  0  0  0  0
   53.7440  152.0520   27.4798 H   0  0  0  0  0  0  0  0  0  0  0  0
   54.7023  153.2387   26.4968 H   0  0  0  0  0  0  0  0  0  0  0  0
   52.2902  152.7769   29.0701 H   0  0  0  0  0  0  0  0  0  0  0  0
   51.0799  154.5842   30.2629 H   0  0  0  0  0  0  0  0  0  0  0  0
   53.1506  160.3243   30.4942 H   0  0  0  0  0  0  0  0  0  0  0  0
   52.3206  162.3621   31.6715 H   0  0  0  0  0  0  0  0  0  0  0  0
   49.9134  162.5471   32.3066 H   0  0  0  0  0  0  0  0  0  0  0  0
   47.7870  160.3980   32.6630 H   0  0  0  0  0  0  0  0  0  0  0  0
   48.9910  155.4940   28.8640 H   0  0  0  0  0  0  0  0  0  0  0  0
   52.2839  157.3957   27.2210 H   0  0  0  0  0  0  0  0  0  0  0  0
   54.5423  154.9925   25.6503 H   0  0  0  0  0  0  0  0  0  0  0  0
  1  2  1  0
  2  3  1  0
  3  4  1  0
  4  5  2  0
  5  6  1  0
  6  7  2  0
  7  8  1  0
  8  9  1  0
  9 10  1  0
 10 11  2  0
 11 12  1  0
 12 13  2  0
 13 14  1  0
 14 15  1  0
 14 16  2  0
 16 17  1  0
 17 18  2  0
 17 19  1  0
 19 20  1  0
  7 21  1  0
 21 22  2  0
 22 23  1  0
 23 24  1  0
 23 25  1  0
 22  4  1  0
 19  8  2  0
 16 10  1  0
  1 26  1  0
  1 27  1  0
  1 28  1  0
  2 29  1  0
  2 30  1  0
  3 31  1  0
  3 32  1  0
  5 33  1  0
  6 34  1  0
 11 35  1  0
 12 36  1  0
 13 37  1  0
 15 38  1  0
 20 39  1  0
 21 40  1  0
 23 41  1  0
M  END
>  <meeko>  (5) 
{"is_sidechain": [false], "free_energy": -9.269, "intermolecular_energy": -11.919, "internal_energy": -0.609}

$$$$
cand_044_out
     RDKit          3D

 41 43  0  0  0  0  0  0  0  0999 V2000
   54.1780  153.2590   23.4760 C   0  0  0  0  0  0  0  0  0  0  0  0
   53.4130  154.1760   24.4170 C   0  0  0  0  0  0  0  0  0  0  0  0
   53.9450  154.0780   25.8480 C   0  0  0  0  0  0  0  0  0  0  0  0
   53.1800  154.9750   26.7980 C   0  0  0  0  0  0  0  0  0  0  0  0
   53.3050  156.3650   26.6440 C   0  0  0  0  0  0  0  0  0  0  0  0
   52.6400  157.2480   27.4970 C   0  0  0  0  0  0  0  0  0  0  0  0
   51.8400  156.7680   28.5370 C   0  0  0  0  0  0  0  0  0  0  0  0
   51.1050  157.6800   29.4410 C   0  0  0  0  0  0  0  0  0  0  0  0
   51.8210  158.8340   29.7430 O   0  0  0  0  0  0  0  0  0  0  0  0
   51.2530  159.7700   30.5690 C   0  0  0  0  0  0  0  0  0  0  0  0
   52.0110  160.9060   30.8530 C   0  0  0  0  0  0  0  0  0  0  0  0
   51.4910  161.8990   31.6860 C   0  0  0  0  0  0  0  0  0  0  0  0
   50.2160  161.7570   32.2340 C   0  0  0  0  0  0  0  0  0  0  0  0
   49.4610  160.6210   31.9480 C   0  0  0  0  0  0  0  0  0  0  0  0
   48.2190  160.5450   32.5170 O   0  0  0  0  0  0  0  0  0  0  0  0
   49.9810  159.6280   31.1140 C   0  0  0  0  0  0  0  0  0  0  0  0
   49.2220  158.4210   30.7870 C   0  0  0  0  0  0  0  0  0  0  0  0
   48.0900  158.2250   31.2250 O   0  0  0  0  0  0  0  0  0  0  0  0
   49.8650  157.4260   29.8980 C   0  0  0  0  0  0  0  0  0  0  0  0
   49.1320  156.2960   29.5840 O   0  0  0  0  0  0  0  0  0  0  0  0
   51.7100  155.3790   28.6900 C   0  0  0  0  0  0  0  0  0  0  0  0
   52.3750  154.4710   27.8400 C   0  0  0  0  0  0  0  0  0  0  0  0
   52.1740  152.9890   28.0590 C   0  0  0  0  0  0  0  0  0  0  0  0
   51.4750  152.7030   29.1930 F   0  0  0  0  0  0  0  0  0  0  0  0
   51.4890  152.3770   27.0490 F   0  0  0  0  0  0  0  0  0  0  0  0
   54.7737  152.5450   24.0637 H   0  0  0  0  0  0  0  0  0  0  0  0
   53.4672  152.7089   22.8418 H   0  0  0  0  0  0  0  0  0  0  0  0
   54.8466  153.8596   22.8418 H   0  0  0  0  0  0  0  0  0  0  0  0
   53.5159  155.2138   24.0673 H   0  0  0  0  0  0  0  0  0  0  0  0
   52.3573  153.8671   24.4186 H   0  0  0  0  0  0  0  0  0  0  0  0
   53.8535  153.0368   26.1908 H   0  0  0  0  0  0  0  0  0  0  0  0
   54.9957  154.4035   25.8438 H   0  0  0  0  0  0  0  0  0  0  0  0
   53.9375  156.7650   25.8378 H   0  0  0  0  0  0  0  0  0  0  0  0
   52.7471  158.3327   27.3487 H   0  0  0  0  0  0  0  0  0  0  0  0
   53.0165  161.0195   30.4216 H   0  0  0  0  0  0  0  0  0  0  0  0
   52.0881  162.7951   31.9105 H   0  0  0  0  0  0  0  0  0  0  0  0
   49.8076  162.5397   32.8902 H   0  0  0  0  0  0  0  0  0  0  0  0
   47.8430  161.3020   32.9230 H   0  0  0  0  0  0  0  0  0  0  0  0
   49.0520  156.0230   28.6920 H   0  0  0  0  0  0  0  0  0  0  0  0
   51.0714  154.9874   29.4956 H   0  0  0  0  0  0  0  0  0  0  0  0
   53.2056  152.6120   28.1203 H   0  0  0  0  0  0  0  0  0  0  0  0
  1  2  1  0
  2  3  1  0
  3  4  1  0
  4  5  2  0
  5  6  1  0
  6  7  2  0
  7  8  1  0
  8  9  1  0
  9 10  1  0
 10 11  2  0
 11 12  1  0
 12 13  2  0
 13 14  1  0
 14 15  1  0
 14 16  2  0
 16 17  1  0
 17 18  2  0
 17 19  1  0
 19 20  1  0
  7 21  1  0
 21 22  2  0
 22 23  1  0
 23 24  1  0
 23 25  1  0
 22  4  1  0
 19  8  2  0
 16 10  1  0
  1 26  1  0
  1 27  1  0
  1 28  1  0
  2 29  1  0
  2 30  1  0
  3 31  1  0
  3 32  1  0
  5 33  1  0
  6 34  1  0
 11 35  1  0
 12 36  1  0
 13 37  1  0
 15 38  1  0
 20 39  1  0
 21 40  1  0
 23 41  1  0
M  END
>  <meeko>  (6) 
{"is_sidechain": [false], "free_energy": -8.637, "intermolecular_energy": -11.377, "internal_energy": -0.334}

$$$$
