cand_023_out
     RDKit          3D

 47 50  0  0  0  0  0  0  0  0999 V2000
   52.3330  160.5460   30.4300 C   0  0  0  0  0  0  0  0  0  0  0  0
   51.4990  159.3090   30.2290 C   0  0  0  0  0  0  0  0  0  0  0  0
   52.0310  158.2240   29.5090 C   0  0  0  0  0  0  0  0  0  0  0  0
   51.2920  157.0500   29.3020 C   0  0  0  0  0  0  0  0  0  0  0  0
   51.8740  155.9410   28.5170 C   0  0  0  0  0  0  0  0  0  0  0  0
   52.4250  156.3630   27.3130 O   0  0  0  0  0  0  0  0  0  0  0  0
   53.0020  155.4360   26.4850 C   0  0  0  0  0  0  0  0  0  0  0  0
   53.5300  155.9020   25.2800 C   0  0  0  0  0  0  0  0  0  0  0  0
   54.1340  155.0090   24.3920 C   0  0  0  0  0  0  0  0  0  0  0  0
   54.2110  153.6510   24.7080 C   0  0  0  0  0  0  0  0  0  0  0  0
   53.6830  153.1880   25.9110 C   0  0  0  0  0  0  0  0  0  0  0  0
   53.7920  151.8470   26.1580 O   0  0  0  0  0  0  0  0  0  0  0  0
   53.0780  154.0820   26.7990 C   0  0  0  0  0  0  0  0  0  0  0  0
   52.5120  153.6380   28.0740 C   0  0  0  0  0  0  0  0  0  0  0  0
   52.5470  152.4600   28.4260 O   0  0  0  0  0  0  0  0  0  0  0  0
   51.8870  154.6630   28.9400 C   0  0  0  0  0  0  0  0  0  0  0  0
   51.3680  154.2340   30.1480 O   0  0  0  0  0  0  0  0  0  0  0  0
   49.9940  156.9840   29.8190 C   0  0  0  0  0  0  0  0  0  0  0  0
   49.4560  158.0560   30.5380 C   0  0  0  0  0  0  0  0  0  0  0  0
   50.1940  159.2310   30.7510 C   0  0  0  0  0  0  0  0  0  0  0  0
   49.6790  160.3210   31.4860 N   0  0  0  0  0  0  0  0  0  0  0  0
   48.4380  160.8740   30.9220 C   0  0  0  0  0  0  0  0  0  0  0  0
   48.1020  162.1800   31.6430 C   0  0  0  0  0  0  0  0  0  0  0  0
   48.0070  161.9660   33.1530 C   0  0  0  0  0  0  0  0  0  0  0  0
   49.2710  161.2950   33.6900 C   0  0  0  0  0  0  0  0  0  0  0  0
   49.5890  160.0120   32.9220 C   0  0  0  0  0  0  0  0  0  0  0  0
   52.4587  160.7325   31.5068 H   0  0  0  0  0  0  0  0  0  0  0  0
   53.3195  160.4026   29.9651 H   0  0  0  0  0  0  0  0  0  0  0  0
   51.8301  161.4068   29.9651 H   0  0  0  0  0  0  0  0  0  0  0  0
   53.0491  158.2979   29.0992 H   0  0  0  0  0  0  0  0  0  0  0  0
   53.4705  156.9715   25.0299 H   0  0  0  0  0  0  0  0  0  0  0  0
   54.5498  155.3761   23.4421 H   0  0  0  0  0  0  0  0  0  0  0  0
   54.6875  152.9484   24.0085 H   0  0  0  0  0  0  0  0  0  0  0  0
   53.0460  151.2900   26.0550 H   0  0  0  0  0  0  0  0  0  0  0  0
   50.7980  154.7940   30.6380 H   0  0  0  0  0  0  0  0  0  0  0  0
   49.3898  156.0789   29.6583 H   0  0  0  0  0  0  0  0  0  0  0  0
   48.4366  157.9771   30.9438 H   0  0  0  0  0  0  0  0  0  0  0  0
   48.5762  161.0704   29.8485 H   0  0  0  0  0  0  0  0  0  0  0  0
   47.6166  160.1544   31.0546 H   0  0  0  0  0  0  0  0  0  0  0  0
   48.8896  162.9188   31.4337 H   0  0  0  0  0  0  0  0  0  0  0  0
   47.1282  162.5394   31.2791 H   0  0  0  0  0  0  0  0  0  0  0  0
   47.8788  162.9403   33.6473 H   0  0  0  0  0  0  0  0  0  0  0  0
   47.1469  161.3128   33.3617 H   0  0  0  0  0  0  0  0  0  0  0  0
   50.1165  161.9914   33.5895 H   0  0  0  0  0  0  0  0  0  0  0  0
   49.1038  161.0349   34.7456 H   0  0  0  0  0  0  0  0  0  0  0  0
   50.5478  159.6015   33.2714 H   0  0  0  0  0  0  0  0  0  0  0  0
   48.7943  159.2708   33.0928 H   0  0  0  0  0  0  0  0  0  0  0  0
  1  2  1  0
  2  3  2  0
  3  4  1  0
  4  5  1  0
  5  6  1  0
  6  7  1  0
  7  8  2  0
  8  9  1  0
  9 10  2  0
 10 11  1  0
 11 12  1  0
 11 13  2  0
 13 14  1  0
 14 15  2  0
 14 16  1  0
 16 17  1  0
  4 18  2  0
 18 19  1  0
 19 20  2  0
 20 21  1  0
 21 22  1  0
 22 23  1  0
 23 24  1  0
 24 25  1  0
 25 26  1  0
 20  2  1  0
 26 21  1  0
 16  5  2  0
 13  7  1  0
  1 27  1  0
  1 28  1  0
  1 29  1  0
  3 30  1  0
  8 31  1  0
  9 32  1  0
 10 33  1  0
 12 34  1  0
 17 35  1  0
 18 36  1  0
 19 37  1  0
 22 38  1  0
 22 39  1  0
 23 40  1  0
 23 41  1  0
 24 42  1  0
 24 43  1  0
 25 44  1  0
 25 45  1  0
 26 46  1  0
 26 47  1  0
M  END
>  <meeko>  (1) 
{"is_sidechain": [false], "free_energy": -11.696, "intermolecular_energy": -13.747, "internal_energy": -0.486}

$$$$
cand_023_out
     RDKit          3D

 47 50  0  0  0  0  0  0  0  0999 V2000
   51.9930  153.6100   28.9690 C   0  0  0  0  0  0  0  0  0  0  0  0
   52.1770  155.0380   28.5300 C   0  0  0  0  0  0  0  0  0  0  0  0
   51.6700  156.0790   29.3300 C   0  0  0  0  0  0  0  0  0  0  0  0
   51.8230  157.4240   28.9620 C   0  0  0  0  0  0  0  0  0  0  0  0
   51.2520  158.4890   29.8130 C   0  0  0  0  0  0  0  0  0  0  0  0
   49.9200  158.2650   30.1390 O   0  0  0  0  0  0  0  0  0  0  0  0
   49.2660  159.1760   30.9270 C   0  0  0  0  0  0  0  0  0  0  0  0
   47.9250  158.9170   31.2180 C   0  0  0  0  0  0  0  0  0  0  0  0
   47.2020  159.8040   32.0170 C   0  0  0  0  0  0  0  0  0  0  0  0
   47.8170  160.9500   32.5260 C   0  0  0  0  0  0  0  0  0  0  0  0
   49.1550  161.2070   32.2340 C   0  0  0  0  0  0  0  0  0  0  0  0
   49.6950  162.3460   32.7640 O   0  0  0  0  0  0  0  0  0  0  0  0
   49.8790  160.3180   31.4340 C   0  0  0  0  0  0  0  0  0  0  0  0
   51.2860  160.5490   31.1040 C   0  0  0  0  0  0  0  0  0  0  0  0
   51.8990  161.5310   31.5190 O   0  0  0  0  0  0  0  0  0  0  0  0
   51.9600  159.5510   30.2430 C   0  0  0  0  0  0  0  0  0  0  0  0
   53.2930  159.7730   29.9490 O   0  0  0  0  0  0  0  0  0  0  0  0
   52.4850  157.7140   27.7650 C   0  0  0  0  0  0  0  0  0  0  0  0
   52.9950  156.6860   26.9640 C   0  0  0  0  0  0  0  0  0  0  0  0
   52.8480  155.3400   27.3300 C   0  0  0  0  0  0  0  0  0  0  0  0
   53.3660  154.2860   26.5470 N   0  0  0  0  0  0  0  0  0  0  0  0
   52.3690  153.2560   26.2150 C   0  0  0  0  0  0  0  0  0  0  0  0
   53.0800  152.0610   25.5790 C   0  0  0  0  0  0  0  0  0  0  0  0
   53.8970  152.4910   24.3620 C   0  0  0  0  0  0  0  0  0  0  0  0
   54.8500  153.6310   24.7170 C   0  0  0  0  0  0  0  0  0  0  0  0
   54.1050  154.7910   25.3780 C   0  0  0  0  0  0  0  0  0  0  0  0
   51.9868  153.5621   30.0679 H   0  0  0  0  0  0  0  0  0  0  0  0
   51.0381  153.2269   28.5799 H   0  0  0  0  0  0  0  0  0  0  0  0
   52.8196  152.9974   28.5799 H   0  0  0  0  0  0  0  0  0  0  0  0
   51.1427  155.8328   30.2634 H   0  0  0  0  0  0  0  0  0  0  0  0
   47.4390  158.0149   30.8179 H   0  0  0  0  0  0  0  0  0  0  0  0
   46.1457  159.6001   32.2463 H   0  0  0  0  0  0  0  0  0  0  0  0
   47.2464  161.6482   33.1560 H   0  0  0  0  0  0  0  0  0  0  0  0
   49.1400  162.9880   33.1600 H   0  0  0  0  0  0  0  0  0  0  0  0
   53.7480  160.4880   30.3500 H   0  0  0  0  0  0  0  0  0  0  0  0
   52.6062  158.7609   27.4497 H   0  0  0  0  0  0  0  0  0  0  0  0
   53.5204  156.9380   26.0310 H   0  0  0  0  0  0  0  0  0  0  0  0
   51.8532  152.9332   27.1314 H   0  0  0  0  0  0  0  0  0  0  0  0
   51.6308  153.6670   25.5106 H   0  0  0  0  0  0  0  0  0  0  0  0
   53.7529  151.6067   26.3212 H   0  0  0  0  0  0  0  0  0  0  0  0
   52.3201  151.3363   25.2513 H   0  0  0  0  0  0  0  0  0  0  0  0
   54.4820  151.6327   24.0000 H   0  0  0  0  0  0  0  0  0  0  0  0
   53.2054  152.8425   23.5822 H   0  0  0  0  0  0  0  0  0  0  0  0
   55.6160  153.2549   25.4111 H   0  0  0  0  0  0  0  0  0  0  0  0
   55.3129  153.9987   23.7894 H   0  0  0  0  0  0  0  0  0  0  0  0
   54.8266  155.5559   25.7008 H   0  0  0  0  0  0  0  0  0  0  0  0
   53.4015  155.2368   24.6594 H   0  0  0  0  0  0  0  0  0  0  0  0
  1  2  1  0
  2  3  2  0
  3  4  1  0
  4  5  1  0
  5  6  1  0
  6  7  1  0
  7  8  2  0
  8  9  1  0
  9 10  2  0
 10 11  1  0
 11 12  1  0
 11 13  2  0
 13 14  1  0
 14 15  2  0
 14 16  1  0
 16 17  1  0
  4 18  2  0
 18 19  1  0
 19 20  2  0
 20 21  1  0
 21 22  1  0
 22 23  1  0
 23 24  1  0
 24 25  1  0
 25 26  1  0
 20  2  1  0
 26 21  1  0
 16  5  2  0
 13  7  1  0
  1 27  1  0
  1 28  1  0
  1 29  1  0
  3 30  1  0
  8 31  1  0
  9 32  1  0
 10 33  1  0
 12 34  1  0
 17 35  1  0
 18 36  1  0
 19 37  1  0
 22 38  1  0
 22 39  1  0
 23 40  1  0
 23 41  1  0
 24 42  1  0
 24 43  1  0
 25 44  1  0
 25 45  1  0
 26 46  1  0
 26 47  1  0
M  END
>  <meeko>  (2) 
{"is_sidechain": [false], "free_energy": -11.092, "intermolecular_energy": -13.85, "internal_energy": 0.327}

$$$$
cand_023_out
     RDKit          3D

 47 50  0  0  0  0  0  0  0  0999 V2000
   48.5920  157.5710   30.5000 C   0  0  0  0  0  0  0  0  0  0  0  0
   49.9960  157.6560   29.9630 C   0  0  0  0  0  0  0  0  0  0  0  0
   50.4970  156.6100   29.1660 C   0  0  0  0  0  0  0  0  0  0  0  0
   51.7970  156.6490   28.6410 C   0  0  0  0  0  0  0  0  0  0  0  0
   52.2980  155.5190   27.8310 C   0  0  0  0  0  0  0  0  0  0  0  0
   53.0490  155.9290   26.7350 O   0  0  0  0  0  0  0  0  0  0  0  0
   53.5770  154.9810   25.8990 C   0  0  0  0  0  0  0  0  0  0  0  0
   54.3120  155.4390   24.8040 C   0  0  0  0  0  0  0  0  0  0  0  0
   54.8790  154.5260   23.9140 C   0  0  0  0  0  0  0  0  0  0  0  0
   54.7120  153.1540   24.1170 C   0  0  0  0  0  0  0  0  0  0  0  0
   53.9780  152.6990   25.2090 C   0  0  0  0  0  0  0  0  0  0  0  0
   53.8530  151.3440   25.3490 O   0  0  0  0  0  0  0  0  0  0  0  0
   53.4100  153.6140   26.1000 C   0  0  0  0  0  0  0  0  0  0  0  0
   52.6320  153.1790   27.2610 C   0  0  0  0  0  0  0  0  0  0  0  0
   52.4460  151.9890   27.5110 O   0  0  0  0  0  0  0  0  0  0  0  0
   52.0680  154.2280   28.1400 C   0  0  0  0  0  0  0  0  0  0  0  0
   51.3450  153.8050   29.2410 O   0  0  0  0  0  0  0  0  0  0  0  0
   52.6000  157.7550   28.9390 C   0  0  0  0  0  0  0  0  0  0  0  0
   52.1110  158.8010   29.7280 C   0  0  0  0  0  0  0  0  0  0  0  0
   50.8100  158.7680   30.2520 C   0  0  0  0  0  0  0  0  0  0  0  0
   50.2880  159.8170   31.0390 N   0  0  0  0  0  0  0  0  0  0  0  0
   51.3240  160.6750   31.6340 C   0  0  0  0  0  0  0  0  0  0  0  0
   50.6700  161.6180   32.6440 C   0  0  0  0  0  0  0  0  0  0  0  0
   49.5500  162.4290   31.9940 C   0  0  0  0  0  0  0  0  0  0  0  0
   48.5460  161.5130   31.2960 C   0  0  0  0  0  0  0  0  0  0  0  0
   49.2430  160.5650   30.3200 C   0  0  0  0  0  0  0  0  0  0  0  0
   48.6193  157.5727   31.5997 H   0  0  0  0  0  0  0  0  0  0  0  0
   48.0112  158.4356   30.1463 H   0  0  0  0  0  0  0  0  0  0  0  0
   48.1197  156.6426   30.1463 H   0  0  0  0  0  0  0  0  0  0  0  0
   49.8552  155.7431   28.9501 H   0  0  0  0  0  0  0  0  0  0  0  0
   54.4441  156.5191   24.6429 H   0  0  0  0  0  0  0  0  0  0  0  0
   55.4582  154.8871   23.0514 H   0  0  0  0  0  0  0  0  0  0  0  0
   55.1595  152.4346   23.4155 H   0  0  0  0  0  0  0  0  0  0  0  0
   53.6310  150.8150   24.6080 H   0  0  0  0  0  0  0  0  0  0  0  0
   51.2150  152.8890   29.3910 H   0  0  0  0  0  0  0  0  0  0  0  0
   53.6272  157.8025   28.5485 H   0  0  0  0  0  0  0  0  0  0  0  0
   52.7578  159.6648   29.9415 H   0  0  0  0  0  0  0  0  0  0  0  0
   52.0722  160.0502   32.1437 H   0  0  0  0  0  0  0  0  0  0  0  0
   51.8192  161.2607   30.8455 H   0  0  0  0  0  0  0  0  0  0  0  0
   50.2511  161.0249   33.4703 H   0  0  0  0  0  0  0  0  0  0  0  0
   51.4347  162.3150   33.0173 H   0  0  0  0  0  0  0  0  0  0  0  0
   49.0289  163.0092   32.7698 H   0  0  0  0  0  0  0  0  0  0  0  0
   49.9930  163.1003   31.2436 H   0  0  0  0  0  0  0  0  0  0  0  0
   48.0152  160.9192   32.0547 H   0  0  0  0  0  0  0  0  0  0  0  0
   47.8417  162.1389   30.7284 H   0  0  0  0  0  0  0  0  0  0  0  0
   48.5082  159.8615   29.9014 H   0  0  0  0  0  0  0  0  0  0  0  0
   49.6972  161.1432   29.5019 H   0  0  0  0  0  0  0  0  0  0  0  0
  1  2  1  0
  2  3  2  0
  3  4  1  0
  4  5  1  0
  5  6  1  0
  6  7  1  0
  7  8  2  0
  8  9  1  0
  9 10  2  0
 10 11  1  0
 11 12  1  0
 11 13  2  0
 13 14  1  0
 14 15  2  0
 14 16  1  0
 16 17  1  0
  4 18  2  0
 18 19  1  0
 19 20  2  0
 20 21  1  0
 21 22  1  0
 22 23  1  0
 23 24  1  0
 24 25  1  0
 25 26  1  0
 20  2  1  0
 26 21  1  0
 16  5  2  0
 13  7  1  0
  1 27  1  0
  1 28  1  0
  1 29  1  0
  3 30  1  0
  8 31  1  0
  9 32  1  0
 10 33  1  0
 12 34  1  0
 17 35  1  0
 18 36  1  0
 19 37  1  0
 22 38  1  0
 22 39  1  0
 23 40  1  0
 23 41  1  0
 24 42  1  0
 24 43  1  0
 25 44  1  0
 25 45  1  0
 26 46  1  0
 26 47  1  0
M  END
>  <meeko>  (3) 
{"is_sidechain": [false], "free_energy": -10.774, "intermolecular_energy": -13.268, "internal_energy": 0.119}

$$$$
cand_023_out
     RDKit          3D

 47 50  0  0  0  0  0  0  0  0999 V2000
   51.9960  153.1120   28.5030 C   0  0  0  0  0  0  0  0  0  0  0  0
   52.1320  154.5850   28.2220 C   0  0  0  0  0  0  0  0  0  0  0  0
   51.4720  155.5110   29.0500 C   0  0  0  0  0  0  0  0  0  0  0  0
   51.5740  156.8930   28.8290 C   0  0  0  0  0  0  0  0  0  0  0  0
   50.8440  157.8350   29.7030 C   0  0  0  0  0  0  0  0  0  0  0  0
   51.6100  158.9340   30.0730 O   0  0  0  0  0  0  0  0  0  0  0  0
   51.0550  159.8900   30.8830 C   0  0  0  0  0  0  0  0  0  0  0  0
   51.8650  160.9690   31.2400 C   0  0  0  0  0  0  0  0  0  0  0  0
   51.3590  161.9780   32.0620 C   0  0  0  0  0  0  0  0  0  0  0  0
   50.0440  161.9090   32.5270 C   0  0  0  0  0  0  0  0  0  0  0  0
   49.2370  160.8310   32.1690 C   0  0  0  0  0  0  0  0  0  0  0  0
   47.9600  160.8260   32.6590 O   0  0  0  0  0  0  0  0  0  0  0  0
   49.7440  159.8210   31.3470 C   0  0  0  0  0  0  0  0  0  0  0  0
   48.9310  158.6720   30.9470 C   0  0  0  0  0  0  0  0  0  0  0  0
   47.7630  158.5440   31.3100 O   0  0  0  0  0  0  0  0  0  0  0  0
   49.5640  157.6530   30.0790 C   0  0  0  0  0  0  0  0  0  0  0  0
   48.7810  156.5790   29.6970 O   0  0  0  0  0  0  0  0  0  0  0  0
   52.3440  157.3360   27.7480 C   0  0  0  0  0  0  0  0  0  0  0  0
   53.0060  156.4240   26.9200 C   0  0  0  0  0  0  0  0  0  0  0  0
   52.9090  155.0410   27.1400 C   0  0  0  0  0  0  0  0  0  0  0  0
   53.5800  154.1010   26.3290 N   0  0  0  0  0  0  0  0  0  0  0  0
   52.7320  152.9700   25.9190 C   0  0  0  0  0  0  0  0  0  0  0  0
   53.6080  151.9070   25.2540 C   0  0  0  0  0  0  0  0  0  0  0  0
   54.3940  152.4950   24.0840 C   0  0  0  0  0  0  0  0  0  0  0  0
   55.1830  153.7290   24.5210 C   0  0  0  0  0  0  0  0  0  0  0  0
   54.2780  154.7520   25.2090 C   0  0  0  0  0  0  0  0  0  0  0  0
   51.9807  152.9460   29.5903 H   0  0  0  0  0  0  0  0  0  0  0  0
   51.0596  152.7395   28.0620 H   0  0  0  0  0  0  0  0  0  0  0  0
   52.8483  152.5744   28.0620 H   0  0  0  0  0  0  0  0  0  0  0  0
   50.8627  155.1438   29.8890 H   0  0  0  0  0  0  0  0  0  0  0  0
   52.9009  161.0245   30.8742 H   0  0  0  0  0  0  0  0  0  0  0  0
   51.9972  162.8285   32.3437 H   0  0  0  0  0  0  0  0  0  0  0  0
   49.6461  162.7041   33.1746 H   0  0  0  0  0  0  0  0  0  0  0  0
   47.2900  160.3440   32.2160 H   0  0  0  0  0  0  0  0  0  0  0  0
   48.2140  156.1690   30.3190 H   0  0  0  0  0  0  0  0  0  0  0  0
   52.4296  158.4141   27.5471 H   0  0  0  0  0  0  0  0  0  0  0  0
   53.6132  156.7968   26.0819 H   0  0  0  0  0  0  0  0  0  0  0  0
   52.2374  152.5404   26.8026 H   0  0  0  0  0  0  0  0  0  0  0  0
   51.9660  153.3174   25.2101 H   0  0  0  0  0  0  0  0  0  0  0  0
   54.3144  151.5076   25.9967 H   0  0  0  0  0  0  0  0  0  0  0  0
   52.9568  151.1077   24.8706 H   0  0  0  0  0  0  0  0  0  0  0  0
   55.0938  151.7366   23.7031 H   0  0  0  0  0  0  0  0  0  0  0  0
   53.6840  152.7924   23.2983 H   0  0  0  0  0  0  0  0  0  0  0  0
   55.9723  153.4200   25.2221 H   0  0  0  0  0  0  0  0  0  0  0  0
   55.6190  154.1973   23.6262 H   0  0  0  0  0  0  0  0  0  0  0  0
   54.8868  155.5857   25.5890 H   0  0  0  0  0  0  0  0  0  0  0  0
   53.5423  155.1396   24.4889 H   0  0  0  0  0  0  0  0  0  0  0  0
  1  2  1  0
  2  3  2  0
  3  4  1  0
  4  5  1  0
  5  6  1  0
  6  7  1  0
  7  8  2  0
  8  9  1  0
  9 10  2  0
 10 11  1  0
 11 12  1  0
 11 13  2  0
 13 14  1  0
 14 15  2  0
 14 16  1  0
 16 17  1  0
  4 18  2  0
 18 19  1  0
 19 20  2  0
 20 21  1  0
 21 22  1  0
 22 23  1  0
 23 24  1  0
 24 25  1  0
 25 26  1  0
 20  2  1  0
 26 21  1  0
 16  5  2  0
 13  7  1  0
  1 27  1  0
  1 28  1  0
  1 29  1  0
  3 30  1  0
  8 31  1  0
  9 32  1  0
 10 33  1  0
 12 34  1  0
 17 35  1  0
 18 36  1  0
 19 37  1  0
 22 38  1  0
 22 39  1  0
 23 40  1  0
 23 41  1  0
 24 42  1  0
 24 43  1  0
 25 44  1  0
 25 45  1  0
 26 46  1  0
 26 47  1  0
M  END
>  <meeko>  (4) 
{"is_sidechain": [false], "free_energy": -9.682, "intermolecular_energy": -12.527, "internal_energy": 0.661}

$$$$
