cand_056_out
     RDKit          3D

 50 53  0  0  0  0  0  0  0  0999 V2000
   55.4060  154.7360   23.1330 C   0  0  0  0  0  0  0  0  0  0  0  0
   54.9230  154.9640   24.4940 N   0  0  0  0  0  0  0  0  0  0  0  0
   53.8890  156.0260   24.5080 C   0  0  0  0  0  0  0  0  0  0  0  0
   53.3050  156.2640   25.9210 C   0  0  0  0  0  0  0  0  0  0  0  0
   52.7500  154.9980   26.4550 N   0  0  0  0  0  0  0  0  0  0  0  0
   52.0810  155.1510   27.6830 C   0  0  0  0  0  0  0  0  0  0  0  0
   51.8410  156.4190   28.2470 C   0  0  0  0  0  0  0  0  0  0  0  0
   51.1660  156.5730   29.4660 C   0  0  0  0  0  0  0  0  0  0  0  0
   50.9340  157.9050   30.0620 C   0  0  0  0  0  0  0  0  0  0  0  0
   49.6590  158.0440   30.5970 O   0  0  0  0  0  0  0  0  0  0  0  0
   49.3120  159.2340   31.1830 C   0  0  0  0  0  0  0  0  0  0  0  0
   48.0270  159.3250   31.7200 C   0  0  0  0  0  0  0  0  0  0  0  0
   47.6090  160.5100   32.3300 C   0  0  0  0  0  0  0  0  0  0  0  0
   48.4760  161.6030   32.4020 C   0  0  0  0  0  0  0  0  0  0  0  0
   49.7570  161.5100   31.8650 C   0  0  0  0  0  0  0  0  0  0  0  0
   50.5530  162.6180   31.9690 O   0  0  0  0  0  0  0  0  0  0  0  0
   50.1750  160.3240   31.2560 C   0  0  0  0  0  0  0  0  0  0  0  0
   51.5120  160.1840   30.6780 C   0  0  0  0  0  0  0  0  0  0  0  0
   52.3290  161.1030   30.6960 O   0  0  0  0  0  0  0  0  0  0  0  0
   51.8590  158.8830   30.0620 C   0  0  0  0  0  0  0  0  0  0  0  0
   53.1200  158.7640   29.5080 O   0  0  0  0  0  0  0  0  0  0  0  0
   50.7410  155.4240   30.1420 C   0  0  0  0  0  0  0  0  0  0  0  0
   50.9740  154.1580   29.6010 C   0  0  0  0  0  0  0  0  0  0  0  0
   51.6410  154.0070   28.3720 C   0  0  0  0  0  0  0  0  0  0  0  0
   51.8770  152.6270   27.8080 C   0  0  0  0  0  0  0  0  0  0  0  0
   51.2910  151.6440   28.5600 F   0  0  0  0  0  0  0  0  0  0  0  0
   53.1950  152.2780   27.7460 F   0  0  0  0  0  0  0  0  0  0  0  0
   51.3710  152.4520   26.5520 F   0  0  0  0  0  0  0  0  0  0  0  0
   53.7710  153.9240   26.4770 C   0  0  0  0  0  0  0  0  0  0  0  0
   54.3500  153.7190   25.0570 C   0  0  0  0  0  0  0  0  0  0  0  0
   56.4001  154.2667   23.1705 H   0  0  0  0  0  0  0  0  0  0  0  0
   54.7072  154.0727   22.6022 H   0  0  0  0  0  0  0  0  0  0  0  0
   55.4740  155.6971   22.6022 H   0  0  0  0  0  0  0  0  0  0  0  0
   55.7170  155.2580   25.0640 H   0  0  0  0  0  0  0  0  0  0  0  0
   54.3406  156.9631   24.1502 H   0  0  0  0  0  0  0  0  0  0  0  0
   53.0653  155.6999   23.8559 H   0  0  0  0  0  0  0  0  0  0  0  0
   54.1011  156.6242   26.5892 H   0  0  0  0  0  0  0  0  0  0  0  0
   52.5034  157.0149   25.8608 H   0  0  0  0  0  0  0  0  0  0  0  0
   52.1936  157.3151   27.7153 H   0  0  0  0  0  0  0  0  0  0  0  0
   47.3442  158.4645   31.6629 H   0  0  0  0  0  0  0  0  0  0  0  0
   46.5966  160.5826   32.7539 H   0  0  0  0  0  0  0  0  0  0  0  0
   48.1468  162.5361   32.8825 H   0  0  0  0  0  0  0  0  0  0  0  0
   50.4520  163.3250   31.3620 H   0  0  0  0  0  0  0  0  0  0  0  0
   53.7210  159.4820   29.5520 H   0  0  0  0  0  0  0  0  0  0  0  0
   50.2199  155.5187   31.1061 H   0  0  0  0  0  0  0  0  0  0  0  0
   50.6307  153.2652   30.1442 H   0  0  0  0  0  0  0  0  0  0  0  0
   54.5821  154.2058   27.1645 H   0  0  0  0  0  0  0  0  0  0  0  0
   53.3044  152.9875   26.8166 H   0  0  0  0  0  0  0  0  0  0  0  0
   55.1413  152.9565   25.1052 H   0  0  0  0  0  0  0  0  0  0  0  0
   53.5249  153.4038   24.4013 H   0  0  0  0  0  0  0  0  0  0  0  0
  1  2  1  0
  2  3  1  0
  3  4  1  0
  4  5  1  0
  5  6  1  0
  6  7  2  0
  7  8  1  0
  8  9  1  0
  9 10  1  0
 10 11  1  0
 11 12  2  0
 12 13  1  0
 13 14  2  0
 14 15  1  0
 15 16  1  0
 15 17  2  0
 17 18  1  0
 18 19  2  0
 18 20  1  0
 20 21  1  0
  8 22  2  0
 22 23  1  0
 23 24  2  0
 24 25  1  0
 25 26  1  0
 25 27  1  0
 25 28  1  0
  5 29  1  0
 29 30  1  0
 30  2  1  0
 24  6  1  0
 20  9  2  0
 17 11  1  0
  1 31  1  0
  1 32  1  0
  1 33  1  0
  2 34  1  0
  3 35  1  0
  3 36  1  0
  4 37  1  0
  4 38  1  0
  7 39  1  0
 12 40  1  0
 13 41  1  0
 14 42  1  0
 16 43  1  0
 21 44  1  0
 22 45  1  0
 23 46  1  0
 29 47  1  0
 29 48  1  0
 30 49  1  0
 30 50  1  0
M  CHG  1   2   1
M  END
>  <meeko>  (1) 
{"is_sidechain": [false], "free_energy": -9.672, "intermolecular_energy": -11.933, "internal_energy": 2.272}

$$$$
cand_056_out
     RDKit          3D

 50 53  0  0  0  0  0  0  0  0999 V2000
   52.4390  164.0270   32.1770 C   0  0  0  0  0  0  0  0  0  0  0  0
   52.1780  162.6140   31.9090 N   0  0  0  0  0  0  0  0  0  0  0  0
   50.9110  162.1890   32.5500 C   0  0  0  0  0  0  0  0  0  0  0  0
   50.5630  160.7120   32.2470 C   0  0  0  0  0  0  0  0  0  0  0  0
   50.4930  160.5020   30.7810 N   0  0  0  0  0  0  0  0  0  0  0  0
   50.0530  159.2170   30.4170 C   0  0  0  0  0  0  0  0  0  0  0  0
   50.9020  158.2910   29.7830 C   0  0  0  0  0  0  0  0  0  0  0  0
   50.4660  157.0060   29.4280 C   0  0  0  0  0  0  0  0  0  0  0  0
   51.3570  156.0460   28.7450 C   0  0  0  0  0  0  0  0  0  0  0  0
   51.8510  156.5280   27.5390 O   0  0  0  0  0  0  0  0  0  0  0  0
   52.6930  155.7350   26.8030 C   0  0  0  0  0  0  0  0  0  0  0  0
   53.1760  156.2650   25.6050 C   0  0  0  0  0  0  0  0  0  0  0  0
   54.0360  155.5080   24.8060 C   0  0  0  0  0  0  0  0  0  0  0  0
   54.4120  154.2230   25.2040 C   0  0  0  0  0  0  0  0  0  0  0  0
   53.9290  153.6970   26.3980 C   0  0  0  0  0  0  0  0  0  0  0  0
   54.3350  152.4330   26.7270 O   0  0  0  0  0  0  0  0  0  0  0  0
   53.0680  154.4540   27.1980 C   0  0  0  0  0  0  0  0  0  0  0  0
   52.5360  153.9390   28.4600 C   0  0  0  0  0  0  0  0  0  0  0  0
   52.8150  152.8150   28.8740 O   0  0  0  0  0  0  0  0  0  0  0  0
   51.6380  154.8240   29.2370 C   0  0  0  0  0  0  0  0  0  0  0  0
   51.1310  154.3240   30.4210 O   0  0  0  0  0  0  0  0  0  0  0  0
   49.1410  156.6540   29.7000 C   0  0  0  0  0  0  0  0  0  0  0  0
   48.2820  157.5600   30.3260 C   0  0  0  0  0  0  0  0  0  0  0  0
   48.7250  158.8450   30.6910 C   0  0  0  0  0  0  0  0  0  0  0  0
   47.7770  159.8040   31.3680 C   0  0  0  0  0  0  0  0  0  0  0  0
   46.4670  159.4190   31.2520 F   0  0  0  0  0  0  0  0  0  0  0  0
   47.8140  161.0670   30.8530 F   0  0  0  0  0  0  0  0  0  0  0  0
   47.9850  159.9270   32.7120 F   0  0  0  0  0  0  0  0  0  0  0  0
   51.7580  160.8960   30.1170 C   0  0  0  0  0  0  0  0  0  0  0  0
   52.0910  162.3700   30.4500 C   0  0  0  0  0  0  0  0  0  0  0  0
   52.4699  164.1945   33.2637 H   0  0  0  0  0  0  0  0  0  0  0  0
   53.4049  164.3118   31.7345 H   0  0  0  0  0  0  0  0  0  0  0  0
   51.6385  164.6381   31.7345 H   0  0  0  0  0  0  0  0  0  0  0  0
   52.9510  162.0730   32.2970 H   0  0  0  0  0  0  0  0  0  0  0  0
   51.0070  162.3131   33.6388 H   0  0  0  0  0  0  0  0  0  0  0  0
   50.1029  162.8143   32.1427 H   0  0  0  0  0  0  0  0  0  0  0  0
   51.3395  160.0594   32.6725 H   0  0  0  0  0  0  0  0  0  0  0  0
   49.5881  160.4698   32.6951 H   0  0  0  0  0  0  0  0  0  0  0  0
   51.9385  158.5836   29.5591 H   0  0  0  0  0  0  0  0  0  0  0  0
   52.8798  157.2768   25.2910 H   0  0  0  0  0  0  0  0  0  0  0  0
   54.4177  155.9244   23.8621 H   0  0  0  0  0  0  0  0  0  0  0  0
   55.0893  153.6276   24.5741 H   0  0  0  0  0  0  0  0  0  0  0  0
   55.1890  152.2950   27.0880 H   0  0  0  0  0  0  0  0  0  0  0  0
   50.4200  154.7610   30.8490 H   0  0  0  0  0  0  0  0  0  0  0  0
   48.7722  155.6565   29.4191 H   0  0  0  0  0  0  0  0  0  0  0  0
   47.2436  157.2648   30.5369 H   0  0  0  0  0  0  0  0  0  0  0  0
   52.5733  160.2487   30.4723 H   0  0  0  0  0  0  0  0  0  0  0  0
   51.6445  160.7875   29.0283 H   0  0  0  0  0  0  0  0  0  0  0  0
   53.0572  162.6263   29.9908 H   0  0  0  0  0  0  0  0  0  0  0  0
   51.2776  162.9953   30.0534 H   0  0  0  0  0  0  0  0  0  0  0  0
  1  2  1  0
  2  3  1  0
  3  4  1  0
  4  5  1  0
  5  6  1  0
  6  7  2  0
  7  8  1  0
  8  9  1  0
  9 10  1  0
 10 11  1  0
 11 12  2  0
 12 13  1  0
 13 14  2  0
 14 15  1  0
 15 16  1  0
 15 17  2  0
 17 18  1  0
 18 19  2  0
 18 20  1  0
 20 21  1  0
  8 22  2  0
 22 23  1  0
 23 24  2  0
 24 25  1  0
 25 26  1  0
 25 27  1  0
 25 28  1  0
  5 29  1  0
 29 30  1  0
 30  2  1  0
 24  6  1  0
 20  9  2  0
 17 11  1  0
  1 31  1  0
  1 32  1  0
  1 33  1  0
  2 34  1  0
  3 35  1  0
  3 36  1  0
  4 37  1  0
  4 38  1  0
  7 39  1  0
 12 40  1  0
 13 41  1  0
 14 42  1  0
 16 43  1  0
 21 44  1  0
 22 45  1  0
 23 46  1  0
 29 47  1  0
 29 48  1  0
 30 49  1  0
 30 50  1  0
M  CHG  1   2   1
M  END
>  <meeko>  (2) 
{"is_sidechain": [false], "free_energy": -7.038, "intermolecular_energy": -6.803, "internal_energy": 0.391}

$$$$
