cand_017_out
     RDKit          3D

 38 40  0  0  0  0  0  0  0  0999 V2000
   47.3290  159.5700   30.7410 C   0  0  0  0  0  0  0  0  0  0  0  0
   48.3680  158.8530   31.5920 C   0  0  0  0  0  0  0  0  0  0  0  0
   49.7400  158.8840   30.9550 C   0  0  0  0  0  0  0  0  0  0  0  0
   50.1670  157.7440   30.2430 C   0  0  0  0  0  0  0  0  0  0  0  0
   51.4200  157.6900   29.6170 C   0  0  0  0  0  0  0  0  0  0  0  0
   51.8570  156.5030   28.8510 C   0  0  0  0  0  0  0  0  0  0  0  0
   52.4500  156.8320   27.6380 O   0  0  0  0  0  0  0  0  0  0  0  0
   52.9010  155.8230   26.8260 C   0  0  0  0  0  0  0  0  0  0  0  0
   53.4750  156.1970   25.6100 C   0  0  0  0  0  0  0  0  0  0  0  0
   53.9560  155.2180   24.7370 C   0  0  0  0  0  0  0  0  0  0  0  0
   53.8630  153.8680   25.0790 C   0  0  0  0  0  0  0  0  0  0  0  0
   53.2910  153.4980   26.2930 C   0  0  0  0  0  0  0  0  0  0  0  0
   53.2320  152.1580   26.5650 O   0  0  0  0  0  0  0  0  0  0  0  0
   52.8090  154.4760   27.1660 C   0  0  0  0  0  0  0  0  0  0  0  0
   52.1980  154.1310   28.4510 C   0  0  0  0  0  0  0  0  0  0  0  0
   52.0870  152.9650   28.8270 O   0  0  0  0  0  0  0  0  0  0  0  0
   51.7120  155.2430   29.3000 C   0  0  0  0  0  0  0  0  0  0  0  0
   51.1490  154.9050   30.5170 O   0  0  0  0  0  0  0  0  0  0  0  0
   52.2490  158.8130   29.6950 C   0  0  0  0  0  0  0  0  0  0  0  0
   51.8420  159.9540   30.3920 C   0  0  0  0  0  0  0  0  0  0  0  0
   50.5890  160.0090   31.0260 C   0  0  0  0  0  0  0  0  0  0  0  0
   50.2090  161.2600   31.7860 C   0  0  0  0  0  0  0  0  0  0  0  0
   49.9030  161.0220   33.0920 F   0  0  0  0  0  0  0  0  0  0  0  0
   49.1180  161.8990   31.2710 F   0  0  0  0  0  0  0  0  0  0  0  0
   46.6016  160.0720   31.3960 H   0  0  0  0  0  0  0  0  0  0  0  0
   47.8275  160.3173   30.1061 H   0  0  0  0  0  0  0  0  0  0  0  0
   46.8072  158.8389   30.1061 H   0  0  0  0  0  0  0  0  0  0  0  0
   48.4216  159.3432   32.5753 H   0  0  0  0  0  0  0  0  0  0  0  0
   48.0614  157.8010   31.6887 H   0  0  0  0  0  0  0  0  0  0  0  0
   49.4983  156.8731   30.1771 H   0  0  0  0  0  0  0  0  0  0  0  0
   53.5485  157.2607   25.3395 H   0  0  0  0  0  0  0  0  0  0  0  0
   54.4088  155.5116   23.7785 H   0  0  0  0  0  0  0  0  0  0  0  0
   54.2410  153.0978   24.3905 H   0  0  0  0  0  0  0  0  0  0  0  0
   52.5340  151.8160   27.0870 H   0  0  0  0  0  0  0  0  0  0  0  0
   50.9930  155.5680   31.1600 H   0  0  0  0  0  0  0  0  0  0  0  0
   53.2324  158.7984   29.2024 H   0  0  0  0  0  0  0  0  0  0  0  0
   52.5137  160.8235   30.4452 H   0  0  0  0  0  0  0  0  0  0  0  0
   51.1107  161.8832   31.6939 H   0  0  0  0  0  0  0  0  0  0  0  0
  1  2  1  0
  2  3  1  0
  3  4  2  0
  4  5  1  0
  5  6  1  0
  6  7  1  0
  7  8  1  0
  8  9  2  0
  9 10  1  0
 10 11  2  0
 11 12  1  0
 12 13  1  0
 12 14  2  0
 14 15  1  0
 15 16  2  0
 15 17  1  0
 17 18  1  0
  5 19  2  0
 19 20  1  0
 20 21  2  0
 21 22  1  0
 22 23  1  0
 22 24  1  0
 21  3  1  0
 17  6  2  0
 14  8  1  0
  1 25  1  0
  1 26  1  0
  1 27  1  0
  2 28  1  0
  2 29  1  0
  4 30  1  0
  9 31  1  0
 10 32  1  0
 11 33  1  0
 13 34  1  0
 18 35  1  0
 19 36  1  0
 20 37  1  0
 22 38  1  0
M  END
>  <meeko>  (1) 
{"is_sidechain": [false], "free_energy": -11.452, "intermolecular_energy": -14.129, "internal_energy": -0.099}

$$$$
cand_017_out
     RDKit          3D

 38 40  0  0  0  0  0  0  0  0999 V2000
   53.9710  156.4600   25.2100 C   0  0  0  0  0  0  0  0  0  0  0  0
   53.2000  155.1650   25.4230 C   0  0  0  0  0  0  0  0  0  0  0  0
   52.6410  155.0620   26.8250 C   0  0  0  0  0  0  0  0  0  0  0  0
   52.2720  156.2540   27.4810 C   0  0  0  0  0  0  0  0  0  0  0  0
   51.7400  156.2490   28.7780 C   0  0  0  0  0  0  0  0  0  0  0  0
   51.3320  157.4980   29.4560 C   0  0  0  0  0  0  0  0  0  0  0  0
   50.0030  157.4820   29.8630 O   0  0  0  0  0  0  0  0  0  0  0  0
   49.4940  158.5800   30.5060 C   0  0  0  0  0  0  0  0  0  0  0  0
   48.1510  158.5280   30.8830 C   0  0  0  0  0  0  0  0  0  0  0  0
   47.5700  159.6140   31.5430 C   0  0  0  0  0  0  0  0  0  0  0  0
   48.3300  160.7490   31.8260 C   0  0  0  0  0  0  0  0  0  0  0  0
   49.6700  160.7990   31.4500 C   0  0  0  0  0  0  0  0  0  0  0  0
   50.3560  161.9410   31.7590 O   0  0  0  0  0  0  0  0  0  0  0  0
   50.2510  159.7130   30.7890 C   0  0  0  0  0  0  0  0  0  0  0  0
   51.6540  159.7240   30.3740 C   0  0  0  0  0  0  0  0  0  0  0  0
   52.3910  160.6840   30.5940 O   0  0  0  0  0  0  0  0  0  0  0  0
   52.1720  158.5270   29.6730 C   0  0  0  0  0  0  0  0  0  0  0  0
   53.5030  158.5430   29.2980 O   0  0  0  0  0  0  0  0  0  0  0  0
   51.5590  155.0180   29.4160 C   0  0  0  0  0  0  0  0  0  0  0  0
   51.9150  153.8260   28.7790 C   0  0  0  0  0  0  0  0  0  0  0  0
   52.4540  153.8270   27.4810 C   0  0  0  0  0  0  0  0  0  0  0  0
   52.8420  152.5100   26.8500 C   0  0  0  0  0  0  0  0  0  0  0  0
   54.1840  152.3830   26.6520 F   0  0  0  0  0  0  0  0  0  0  0  0
   52.2770  152.3060   25.6240 F   0  0  0  0  0  0  0  0  0  0  0  0
   54.2310  156.8967   26.1856 H   0  0  0  0  0  0  0  0  0  0  0  0
   54.8913  156.2502   24.6452 H   0  0  0  0  0  0  0  0  0  0  0  0
   53.3479  157.1691   24.6452 H   0  0  0  0  0  0  0  0  0  0  0  0
   52.3676  155.1251   24.7050 H   0  0  0  0  0  0  0  0  0  0  0  0
   53.8960  154.3266   25.2724 H   0  0  0  0  0  0  0  0  0  0  0  0
   52.4051  157.2141   26.9610 H   0  0  0  0  0  0  0  0  0  0  0  0
   47.5509  157.6333   30.6608 H   0  0  0  0  0  0  0  0  0  0  0  0
   46.5116  159.5738   31.8399 H   0  0  0  0  0  0  0  0  0  0  0  0
   47.8715  161.6034   32.3455 H   0  0  0  0  0  0  0  0  0  0  0  0
   51.0790  162.2120   31.2280 H   0  0  0  0  0  0  0  0  0  0  0  0
   53.8170  157.9310   28.6620 H   0  0  0  0  0  0  0  0  0  0  0  0
   51.1322  154.9875   30.4294 H   0  0  0  0  0  0  0  0  0  0  0  0
   51.7707  152.8697   29.3031 H   0  0  0  0  0  0  0  0  0  0  0  0
   52.4746  151.7750   27.5813 H   0  0  0  0  0  0  0  0  0  0  0  0
  1  2  1  0
  2  3  1  0
  3  4  2  0
  4  5  1  0
  5  6  1  0
  6  7  1  0
  7  8  1  0
  8  9  2  0
  9 10  1  0
 10 11  2  0
 11 12  1  0
 12 13  1  0
 12 14  2  0
 14 15  1  0
 15 16  2  0
 15 17  1  0
 17 18  1  0
  5 19  2  0
 19 20  1  0
 20 21  2  0
 21 22  1  0
 22 23  1  0
 22 24  1  0
 21  3  1  0
 17  6  2  0
 14  8  1  0
  1 25  1  0
  1 26  1  0
  1 27  1  0
  2 28  1  0
  2 29  1  0
  4 30  1  0
  9 31  1  0
 10 32  1  0
 11 33  1  0
 13 34  1  0
 18 35  1  0
 19 36  1  0
 20 37  1  0
 22 38  1  0
M  END
>  <meeko>  (2) 
{"is_sidechain": [false], "free_energy": -10.908, "intermolecular_energy": -13.181, "internal_energy": -0.376}

$$$$
cand_017_out
     RDKit          3D

 38 40  0  0  0  0  0  0  0  0999 V2000
   51.3560  161.4010   32.1440 C   0  0  0  0  0  0  0  0  0  0  0  0
   51.4650  160.9600   30.6910 C   0  0  0  0  0  0  0  0  0  0  0  0
   50.7520  159.6490   30.4420 C   0  0  0  0  0  0  0  0  0  0  0  0
   51.4460  158.6390   29.7440 C   0  0  0  0  0  0  0  0  0  0  0  0
   50.8630  157.3920   29.4760 C   0  0  0  0  0  0  0  0  0  0  0  0
   51.6010  156.3260   28.7670 C   0  0  0  0  0  0  0  0  0  0  0  0
   52.1590  156.7590   27.5700 O   0  0  0  0  0  0  0  0  0  0  0  0
   52.8720  155.8670   26.8100 C   0  0  0  0  0  0  0  0  0  0  0  0
   53.4010  156.3400   25.6090 C   0  0  0  0  0  0  0  0  0  0  0  0
   54.1400  155.4830   24.7880 C   0  0  0  0  0  0  0  0  0  0  0  0
   54.3470  154.1570   25.1680 C   0  0  0  0  0  0  0  0  0  0  0  0
   53.8180  153.6870   26.3670 C   0  0  0  0  0  0  0  0  0  0  0  0
   54.0600  152.3770   26.6790 O   0  0  0  0  0  0  0  0  0  0  0  0
   53.0800  154.5440   27.1880 C   0  0  0  0  0  0  0  0  0  0  0  0
   52.5050  154.0920   28.4560 C   0  0  0  0  0  0  0  0  0  0  0  0
   52.6500  152.9400   28.8630 O   0  0  0  0  0  0  0  0  0  0  0  0
   51.7320  155.0760   29.2480 C   0  0  0  0  0  0  0  0  0  0  0  0
   51.2050  154.6410   30.4510 O   0  0  0  0  0  0  0  0  0  0  0  0
   49.5650  157.1550   29.9370 C   0  0  0  0  0  0  0  0  0  0  0  0
   48.8630  158.1430   30.6330 C   0  0  0  0  0  0  0  0  0  0  0  0
   49.4410  159.3960   30.8980 C   0  0  0  0  0  0  0  0  0  0  0  0
   48.6280  160.4350   31.6360 C   0  0  0  0  0  0  0  0  0  0  0  0
   47.5330  159.9160   32.2590 F   0  0  0  0  0  0  0  0  0  0  0  0
   48.1470  161.4240   30.8280 F   0  0  0  0  0  0  0  0  0  0  0  0
   51.5673  160.5463   32.8034 H   0  0  0  0  0  0  0  0  0  0  0  0
   52.0829  162.2032   32.3392 H   0  0  0  0  0  0  0  0  0  0  0  0
   50.3391  161.7722   32.3392 H   0  0  0  0  0  0  0  0  0  0  0  0
   51.0183  161.7346   30.0502 H   0  0  0  0  0  0  0  0  0  0  0  0
   52.5305  160.8170   30.4582 H   0  0  0  0  0  0  0  0  0  0  0  0
   52.4725  158.8347   29.4004 H   0  0  0  0  0  0  0  0  0  0  0  0
   53.2370  157.3854   25.3085 H   0  0  0  0  0  0  0  0  0  0  0  0
   54.5587  155.8549   23.8412 H   0  0  0  0  0  0  0  0  0  0  0  0
   54.9277  153.4832   24.5209 H   0  0  0  0  0  0  0  0  0  0  0  0
   53.6010  151.6960   26.2290 H   0  0  0  0  0  0  0  0  0  0  0  0
   50.8960  155.2630   31.0780 H   0  0  0  0  0  0  0  0  0  0  0  0
   49.0908  156.1802   29.7500 H   0  0  0  0  0  0  0  0  0  0  0  0
   47.8397  157.9360   30.9795 H   0  0  0  0  0  0  0  0  0  0  0  0
   49.3495  160.8359   32.3631 H   0  0  0  0  0  0  0  0  0  0  0  0
  1  2  1  0
  2  3  1  0
  3  4  2  0
  4  5  1  0
  5  6  1  0
  6  7  1  0
  7  8  1  0
  8  9  2  0
  9 10  1  0
 10 11  2  0
 11 12  1  0
 12 13  1  0
 12 14  2  0
 14 15  1  0
 15 16  2  0
 15 17  1  0
 17 18  1  0
  5 19  2  0
 19 20  1  0
 20 21  2  0
 21 22  1  0
 22 23  1  0
 22 24  1  0
 21  3  1  0
 17  6  2  0
 14  8  1  0
  1 25  1  0
  1 26  1  0
  1 27  1  0
  2 28  1  0
  2 29  1  0
  4 30  1  0
  9 31  1  0
 10 32  1  0
 11 33  1  0
 13 34  1  0
 18 35  1  0
 19 36  1  0
 20 37  1  0
 22 38  1  0
M  END
>  <meeko>  (3) 
{"is_sidechain": [false], "free_energy": -10.702, "intermolecular_energy": -13.477, "internal_energy": 0.174}

$$$$
cand_017_out
     RDKit          3D

 38 40  0  0  0  0  0  0  0  0999 V2000
   51.5030  152.5310   27.7390 C   0  0  0  0  0  0  0  0  0  0  0  0
   52.0710  153.4310   28.8280 C   0  0  0  0  0  0  0  0  0  0  0  0
   52.2290  154.8600   28.3570 C   0  0  0  0  0  0  0  0  0  0  0  0
   51.7190  155.8890   29.1760 C   0  0  0  0  0  0  0  0  0  0  0  0
   51.8280  157.2400   28.8190 C   0  0  0  0  0  0  0  0  0  0  0  0
   51.3160  158.3180   29.6910 C   0  0  0  0  0  0  0  0  0  0  0  0
   49.9840  158.1390   30.0460 O   0  0  0  0  0  0  0  0  0  0  0  0
   49.3830  159.0690   30.8530 C   0  0  0  0  0  0  0  0  0  0  0  0
   48.0400  158.8590   31.1720 C   0  0  0  0  0  0  0  0  0  0  0  0
   47.3680  159.7680   31.9930 C   0  0  0  0  0  0  0  0  0  0  0  0
   48.0370  160.8860   32.4930 C   0  0  0  0  0  0  0  0  0  0  0  0
   49.3760  161.0940   32.1740 C   0  0  0  0  0  0  0  0  0  0  0  0
   49.9700  162.2090   32.6990 O   0  0  0  0  0  0  0  0  0  0  0  0
   50.0480  160.1850   31.3530 C   0  0  0  0  0  0  0  0  0  0  0  0
   51.4550  160.3660   30.9920 C   0  0  0  0  0  0  0  0  0  0  0  0
   52.1150  161.3210   31.3990 O   0  0  0  0  0  0  0  0  0  0  0  0
   52.0730  159.3490   30.1100 C   0  0  0  0  0  0  0  0  0  0  0  0
   53.4060  159.5230   29.7860 O   0  0  0  0  0  0  0  0  0  0  0  0
   52.4800  157.5590   27.6240 C   0  0  0  0  0  0  0  0  0  0  0  0
   52.9940  156.5530   26.8010 C   0  0  0  0  0  0  0  0  0  0  0  0
   52.8820  155.1970   27.1530 C   0  0  0  0  0  0  0  0  0  0  0  0
   53.4370  154.1510   26.2140 C   0  0  0  0  0  0  0  0  0  0  0  0
   54.5600  154.5590   25.5590 F   0  0  0  0  0  0  0  0  0  0  0  0
   52.5630  153.7790   25.2340 F   0  0  0  0  0  0  0  0  0  0  0  0
   50.9704  151.6870   28.2016 H   0  0  0  0  0  0  0  0  0  0  0  0
   50.8046  153.1073   27.1143 H   0  0  0  0  0  0  0  0  0  0  0  0
   52.3237  152.1486   27.1143 H   0  0  0  0  0  0  0  0  0  0  0  0
   51.3909  153.4151   29.6924 H   0  0  0  0  0  0  0  0  0  0  0  0
   53.0670  153.0502   29.0983 H   0  0  0  0  0  0  0  0  0  0  0  0
   51.2221  155.6239   30.1209 H   0  0  0  0  0  0  0  0  0  0  0  0
   47.5115  157.9787   30.7773 H   0  0  0  0  0  0  0  0  0  0  0  0
   46.3103  159.6023   32.2456 H   0  0  0  0  0  0  0  0  0  0  0  0
   47.5070  161.6020   33.1383 H   0  0  0  0  0  0  0  0  0  0  0  0
   49.9770  162.3440   33.6250 H   0  0  0  0  0  0  0  0  0  0  0  0
   54.0400  158.8900   30.0590 H   0  0  0  0  0  0  0  0  0  0  0  0
   52.5896  158.6129   27.3284 H   0  0  0  0  0  0  0  0  0  0  0  0
   53.4951  156.8275   25.8610 H   0  0  0  0  0  0  0  0  0  0  0  0
   53.6516  153.3098   26.8895 H   0  0  0  0  0  0  0  0  0  0  0  0
  1  2  1  0
  2  3  1  0
  3  4  2  0
  4  5  1  0
  5  6  1  0
  6  7  1  0
  7  8  1  0
  8  9  2  0
  9 10  1  0
 10 11  2  0
 11 12  1  0
 12 13  1  0
 12 14  2  0
 14 15  1  0
 15 16  2  0
 15 17  1  0
 17 18  1  0
  5 19  2  0
 19 20  1  0
 20 21  2  0
 21 22  1  0
 22 23  1  0
 22 24  1  0
 21  3  1  0
 17  6  2  0
 14  8  1  0
  1 25  1  0
  1 26  1  0
  1 27  1  0
  2 28  1  0
  2 29  1  0
  4 30  1  0
  9 31  1  0
 10 32  1  0
 11 33  1  0
 13 34  1  0
 18 35  1  0
 19 36  1  0
 20 37  1  0
 22 38  1  0
M  END
>  <meeko>  (4) 
{"is_sidechain": [false], "free_energy": -9.481, "intermolecular_energy": -12.109, "internal_energy": 0.313}

$$$$
cand_017_out
     RDKit          3D

 38 40  0  0  0  0  0  0  0  0999 V2000
   54.1160  156.6320   25.1840 C   0  0  0  0  0  0  0  0  0  0  0  0
   53.4360  155.2710   25.2380 C   0  0  0  0  0  0  0  0  0  0  0  0
   52.8520  154.9830   26.6040 C   0  0  0  0  0  0  0  0  0  0  0  0
   52.2530  156.0480   27.3070 C   0  0  0  0  0  0  0  0  0  0  0  0
   51.6820  155.8670   28.5750 C   0  0  0  0  0  0  0  0  0  0  0  0
   51.0320  156.9790   29.3010 C   0  0  0  0  0  0  0  0  0  0  0  0
   51.8940  158.0420   29.5440 O   0  0  0  0  0  0  0  0  0  0  0  0
   51.4180  159.1410   30.2110 C   0  0  0  0  0  0  0  0  0  0  0  0
   52.3210  160.1790   30.4490 C   0  0  0  0  0  0  0  0  0  0  0  0
   51.9000  161.3290   31.1220 C   0  0  0  0  0  0  0  0  0  0  0  0
   50.5790  161.4400   31.5570 C   0  0  0  0  0  0  0  0  0  0  0  0
   49.6800  160.4040   31.3190 C   0  0  0  0  0  0  0  0  0  0  0  0
   48.4000  160.5800   31.7710 O   0  0  0  0  0  0  0  0  0  0  0  0
   50.1000  159.2540   30.6460 C   0  0  0  0  0  0  0  0  0  0  0  0
   49.1890  158.1420   30.3760 C   0  0  0  0  0  0  0  0  0  0  0  0
   48.0080  158.1680   30.7200 O   0  0  0  0  0  0  0  0  0  0  0  0
   49.7360  156.9640   29.6620 C   0  0  0  0  0  0  0  0  0  0  0  0
   48.8630  155.9250   29.4010 O   0  0  0  0  0  0  0  0  0  0  0  0
   51.7010  154.5860   29.1340 C   0  0  0  0  0  0  0  0  0  0  0  0
   52.2870  153.5180   28.4500 C   0  0  0  0  0  0  0  0  0  0  0  0
   52.8650  153.6950   27.1820 C   0  0  0  0  0  0  0  0  0  0  0  0
   53.5050  152.5090   26.4970 C   0  0  0  0  0  0  0  0  0  0  0  0
   54.8460  152.6600   26.3030 F   0  0  0  0  0  0  0  0  0  0  0  0
   52.9900  152.2510   25.2600 F   0  0  0  0  0  0  0  0  0  0  0  0
   54.2962  156.9927   26.2074 H   0  0  0  0  0  0  0  0  0  0  0  0
   55.0750  156.5419   24.6528 H   0  0  0  0  0  0  0  0  0  0  0  0
   53.4681  157.3448   24.6528 H   0  0  0  0  0  0  0  0  0  0  0  0
   52.6263  155.2487   24.4937 H   0  0  0  0  0  0  0  0  0  0  0  0
   54.1944  154.5035   25.0240 H   0  0  0  0  0  0  0  0  0  0  0  0
   52.2329  157.0478   26.8487 H   0  0  0  0  0  0  0  0  0  0  0  0
   53.3628  160.0916   30.1070 H   0  0  0  0  0  0  0  0  0  0  0  0
   52.6107  162.1475   31.3090 H   0  0  0  0  0  0  0  0  0  0  0  0
   50.2482  162.3451   32.0874 H   0  0  0  0  0  0  0  0  0  0  0  0
   47.7260  159.9840   31.5130 H   0  0  0  0  0  0  0  0  0  0  0  0
   48.6690  155.2970   30.0690 H   0  0  0  0  0  0  0  0  0  0  0  0
   51.2498  154.4170   30.1229 H   0  0  0  0  0  0  0  0  0  0  0  0
   52.2959  152.5202   28.9129 H   0  0  0  0  0  0  0  0  0  0  0  0
   53.2914  151.6842   27.1928 H   0  0  0  0  0  0  0  0  0  0  0  0
  1  2  1  0
  2  3  1  0
  3  4  2  0
  4  5  1  0
  5  6  1  0
  6  7  1  0
  7  8  1  0
  8  9  2  0
  9 10  1  0
 10 11  2  0
 11 12  1  0
 12 13  1  0
 12 14  2  0
 14 15  1  0
 15 16  2  0
 15 17  1  0
 17 18  1  0
  5 19  2  0
 19 20  1  0
 20 21  2  0
 21 22  1  0
 22 23  1  0
 22 24  1  0
 21  3  1  0
 17  6  2  0
 14  8  1  0
  1 25  1  0
  1 26  1  0
  1 27  1  0
  2 28  1  0
  2 29  1  0
  4 30  1  0
  9 31  1  0
 10 32  1  0
 11 33  1  0
 13 34  1  0
 18 35  1  0
 19 36  1  0
 20 37  1  0
 22 38  1  0
M  END
>  <meeko>  (5) 
{"is_sidechain": [false], "free_energy": -9.184, "intermolecular_energy": -11.047, "internal_energy": -0.382}

$$$$
