cand_045_out
     RDKit          3D

 35 37  0  0  0  0  0  0  0  0999 V2000
   50.0920  161.2000   31.6770 C   0  0  0  0  0  0  0  0  0  0  0  0
   50.5360  159.9760   30.9240 C   0  0  0  0  0  0  0  0  0  0  0  0
   51.8210  159.9450   30.3640 C   0  0  0  0  0  0  0  0  0  0  0  0
   52.2690  158.8260   29.6570 C   0  0  0  0  0  0  0  0  0  0  0  0
   51.4430  157.7110   29.4840 C   0  0  0  0  0  0  0  0  0  0  0  0
   51.9010  156.5040   28.7630 C   0  0  0  0  0  0  0  0  0  0  0  0
   52.4760  156.7970   27.5320 O   0  0  0  0  0  0  0  0  0  0  0  0
   52.9510  155.7690   26.7590 C   0  0  0  0  0  0  0  0  0  0  0  0
   53.5120  156.1080   25.5280 C   0  0  0  0  0  0  0  0  0  0  0  0
   54.0150  155.1090   24.6920 C   0  0  0  0  0  0  0  0  0  0  0  0
   53.9550  153.7710   25.0860 C   0  0  0  0  0  0  0  0  0  0  0  0
   53.3950  153.4350   26.3170 C   0  0  0  0  0  0  0  0  0  0  0  0
   53.3690  152.1060   26.6420 O   0  0  0  0  0  0  0  0  0  0  0  0
   52.8920  154.4360   27.1530 C   0  0  0  0  0  0  0  0  0  0  0  0
   52.2960  154.1260   28.4520 C   0  0  0  0  0  0  0  0  0  0  0  0
   52.2130  152.9740   28.8730 O   0  0  0  0  0  0  0  0  0  0  0  0
   51.7890  155.2590   29.2610 C   0  0  0  0  0  0  0  0  0  0  0  0
   51.2420  154.9560   30.4950 O   0  0  0  0  0  0  0  0  0  0  0  0
   50.1610  157.7380   30.0550 C   0  0  0  0  0  0  0  0  0  0  0  0
   49.6940  158.8560   30.7720 C   0  0  0  0  0  0  0  0  0  0  0  0
   48.3030  158.8310   31.3560 C   0  0  0  0  0  0  0  0  0  0  0  0
   47.3330  159.2070   30.4740 F   0  0  0  0  0  0  0  0  0  0  0  0
   50.1608  161.0103   32.7583 H   0  0  0  0  0  0  0  0  0  0  0  0
   50.7395  162.0487   31.4117 H   0  0  0  0  0  0  0  0  0  0  0  0
   49.0509  161.4362   31.4117 H   0  0  0  0  0  0  0  0  0  0  0  0
   52.4856  160.8134   30.4828 H   0  0  0  0  0  0  0  0  0  0  0  0
   53.2834  158.8222   29.2315 H   0  0  0  0  0  0  0  0  0  0  0  0
   53.5582  157.1618   25.2158 H   0  0  0  0  0  0  0  0  0  0  0  0
   54.4590  155.3766   23.7218 H   0  0  0  0  0  0  0  0  0  0  0  0
   54.3489  152.9838   24.4263 H   0  0  0  0  0  0  0  0  0  0  0  0
   53.6620  151.4670   26.0220 H   0  0  0  0  0  0  0  0  0  0  0  0
   50.3200  155.0470   30.6330 H   0  0  0  0  0  0  0  0  0  0  0  0
   49.5043  156.8631   29.9393 H   0  0  0  0  0  0  0  0  0  0  0  0
   48.0867  157.8071   31.6950 H   0  0  0  0  0  0  0  0  0  0  0  0
   48.2870  159.5576   32.1817 H   0  0  0  0  0  0  0  0  0  0  0  0
  1  2  1  0
  2  3  2  0
  3  4  1  0
  4  5  2  0
  5  6  1  0
  6  7  1  0
  7  8  1  0
  8  9  2  0
  9 10  1  0
 10 11  2  0
 11 12  1  0
 12 13  1  0
 12 14  2  0
 14 15  1  0
 15 16  2  0
 15 17  1  0
 17 18  1  0
  5 19  1  0
 19 20  2  0
 20 21  1  0
 21 22  1  0
 20  2  1  0
 17  6  2  0
 14  8  1  0
  1 23  1  0
  1 24  1  0
  1 25  1  0
  3 26  1  0
  4 27  1  0
  9 28  1  0
 10 29  1  0
 11 30  1  0
 13 31  1  0
 18 32  1  0
 19 33  1  0
 21 34  1  0
 21 35  1  0
M  END
>  <meeko>  (1) 
{"is_sidechain": [false], "free_energy": -11.103, "intermolecular_energy": -13.05, "internal_energy": -0.145}

$$$$
cand_045_out
     RDKit          3D

 35 37  0  0  0  0  0  0  0  0999 V2000
   48.7890  160.5010   31.6700 C   0  0  0  0  0  0  0  0  0  0  0  0
   49.5500  159.4300   30.9370 C   0  0  0  0  0  0  0  0  0  0  0  0
   48.9240  158.2040   30.6710 C   0  0  0  0  0  0  0  0  0  0  0  0
   49.6000  157.1860   29.9920 C   0  0  0  0  0  0  0  0  0  0  0  0
   50.9210  157.3630   29.5690 C   0  0  0  0  0  0  0  0  0  0  0  0
   51.6500  156.3110   28.8270 C   0  0  0  0  0  0  0  0  0  0  0  0
   52.1990  156.7720   27.6370 O   0  0  0  0  0  0  0  0  0  0  0  0
   52.9090  155.9010   26.8510 C   0  0  0  0  0  0  0  0  0  0  0  0
   53.4350  156.4050   25.6610 C   0  0  0  0  0  0  0  0  0  0  0  0
   54.1680  155.5710   24.8150 C   0  0  0  0  0  0  0  0  0  0  0  0
   54.3750  154.2330   25.1580 C   0  0  0  0  0  0  0  0  0  0  0  0
   53.8490  153.7330   26.3470 C   0  0  0  0  0  0  0  0  0  0  0  0
   54.0900  152.4150   26.6230 O   0  0  0  0  0  0  0  0  0  0  0  0
   53.1160  154.5680   27.1940 C   0  0  0  0  0  0  0  0  0  0  0  0
   52.5470  154.0840   28.4510 C   0  0  0  0  0  0  0  0  0  0  0  0
   52.6910  152.9220   28.8260 O   0  0  0  0  0  0  0  0  0  0  0  0
   51.7820  155.0490   29.2750 C   0  0  0  0  0  0  0  0  0  0  0  0
   51.2630  154.5840   30.4700 O   0  0  0  0  0  0  0  0  0  0  0  0
   51.5430  158.5940   29.8260 C   0  0  0  0  0  0  0  0  0  0  0  0
   50.8770  159.6320   30.5060 C   0  0  0  0  0  0  0  0  0  0  0  0
   51.6000  160.9310   30.7610 C   0  0  0  0  0  0  0  0  0  0  0  0
   51.8490  161.1680   32.0810 F   0  0  0  0  0  0  0  0  0  0  0  0
   48.8962  160.3501   32.7543 H   0  0  0  0  0  0  0  0  0  0  0  0
   49.1893  161.4882   31.3958 H   0  0  0  0  0  0  0  0  0  0  0  0
   47.7251  160.4478   31.3958 H   0  0  0  0  0  0  0  0  0  0  0  0
   47.8874  158.0410   31.0009 H   0  0  0  0  0  0  0  0  0  0  0  0
   49.0868  156.2347   29.7881 H   0  0  0  0  0  0  0  0  0  0  0  0
   53.2722  157.4585   25.3898 H   0  0  0  0  0  0  0  0  0  0  0  0
   54.5831  155.9681   23.8769 H   0  0  0  0  0  0  0  0  0  0  0  0
   54.9520  153.5757   24.4909 H   0  0  0  0  0  0  0  0  0  0  0  0
   54.6210  151.9050   26.0440 H   0  0  0  0  0  0  0  0  0  0  0  0
   51.0230  153.6820   30.5560 H   0  0  0  0  0  0  0  0  0  0  0  0
   52.5776  158.7525   29.4876 H   0  0  0  0  0  0  0  0  0  0  0  0
   52.5604  160.9053   30.2252 H   0  0  0  0  0  0  0  0  0  0  0  0
   50.9442  161.7398   30.4064 H   0  0  0  0  0  0  0  0  0  0  0  0
  1  2  1  0
  2  3  2  0
  3  4  1  0
  4  5  2  0
  5  6  1  0
  6  7  1  0
  7  8  1  0
  8  9  2  0
  9 10  1  0
 10 11  2  0
 11 12  1  0
 12 13  1  0
 12 14  2  0
 14 15  1  0
 15 16  2  0
 15 17  1  0
 17 18  1  0
  5 19  1  0
 19 20  2  0
 20 21  1  0
 21 22  1  0
 20  2  1  0
 17  6  2  0
 14  8  1  0
  1 23  1  0
  1 24  1  0
  1 25  1  0
  3 26  1  0
  4 27  1  0
  9 28  1  0
 10 29  1  0
 11 30  1  0
 13 31  1  0
 18 32  1  0
 19 33  1  0
 21 34  1  0
 21 35  1  0
M  END
>  <meeko>  (2) 
{"is_sidechain": [false], "free_energy": -10.681, "intermolecular_energy": -12.505, "internal_energy": -0.195}

$$$$
cand_045_out
     RDKit          3D

 35 37  0  0  0  0  0  0  0  0999 V2000
   52.9080  152.9780   27.0230 C   0  0  0  0  0  0  0  0  0  0  0  0
   52.4580  154.2460   27.6960 C   0  0  0  0  0  0  0  0  0  0  0  0
   51.7290  154.1660   28.8910 C   0  0  0  0  0  0  0  0  0  0  0  0
   51.2940  155.3230   29.5450 C   0  0  0  0  0  0  0  0  0  0  0  0
   51.5690  156.5890   29.0180 C   0  0  0  0  0  0  0  0  0  0  0  0
   51.1420  157.8280   29.7030 C   0  0  0  0  0  0  0  0  0  0  0  0
   49.8220  157.7790   30.1360 O   0  0  0  0  0  0  0  0  0  0  0  0
   49.2980  158.8610   30.7930 C   0  0  0  0  0  0  0  0  0  0  0  0
   47.9670  158.7710   31.2020 C   0  0  0  0  0  0  0  0  0  0  0  0
   47.3710  159.8380   31.8780 C   0  0  0  0  0  0  0  0  0  0  0  0
   48.1060  160.9960   32.1430 C   0  0  0  0  0  0  0  0  0  0  0  0
   49.4350  161.0830   31.7340 C   0  0  0  0  0  0  0  0  0  0  0  0
   50.0970  162.2440   32.0270 O   0  0  0  0  0  0  0  0  0  0  0  0
   50.0300  160.0140   31.0590 C   0  0  0  0  0  0  0  0  0  0  0  0
   51.4220  160.0640   30.6130 C   0  0  0  0  0  0  0  0  0  0  0  0
   52.1360  161.0450   30.8140 O   0  0  0  0  0  0  0  0  0  0  0  0
   51.9570  158.8800   29.9010 C   0  0  0  0  0  0  0  0  0  0  0  0
   53.2800  158.9330   29.4980 O   0  0  0  0  0  0  0  0  0  0  0  0
   52.3080  156.6680   27.8280 C   0  0  0  0  0  0  0  0  0  0  0  0
   52.7560  155.5140   27.1570 C   0  0  0  0  0  0  0  0  0  0  0  0
   53.5390  155.6620   25.8770 C   0  0  0  0  0  0  0  0  0  0  0  0
   53.0440  156.6180   25.0390 F   0  0  0  0  0  0  0  0  0  0  0  0
   53.1728  152.2317   27.7865 H   0  0  0  0  0  0  0  0  0  0  0  0
   52.0937  152.5872   26.3952 H   0  0  0  0  0  0  0  0  0  0  0  0
   53.7865  153.1879   26.3952 H   0  0  0  0  0  0  0  0  0  0  0  0
   51.4962  153.1801   29.3198 H   0  0  0  0  0  0  0  0  0  0  0  0
   50.7290  155.2364   30.4848 H   0  0  0  0  0  0  0  0  0  0  0  0
   47.3873  157.8600   30.9921 H   0  0  0  0  0  0  0  0  0  0  0  0
   46.3222  159.7665   32.2019 H   0  0  0  0  0  0  0  0  0  0  0  0
   47.6364  161.8375   32.6735 H   0  0  0  0  0  0  0  0  0  0  0  0
   50.7500  162.5720   31.4410 H   0  0  0  0  0  0  0  0  0  0  0  0
   53.7180  158.1500   29.2280 H   0  0  0  0  0  0  0  0  0  0  0  0
   52.5435  157.6571   27.4083 H   0  0  0  0  0  0  0  0  0  0  0  0
   54.5755  155.9271   26.1326 H   0  0  0  0  0  0  0  0  0  0  0  0
   53.4705  154.7015   25.3452 H   0  0  0  0  0  0  0  0  0  0  0  0
  1  2  1  0
  2  3  2  0
  3  4  1  0
  4  5  2  0
  5  6  1  0
  6  7  1  0
  7  8  1  0
  8  9  2  0
  9 10  1  0
 10 11  2  0
 11 12  1  0
 12 13  1  0
 12 14  2  0
 14 15  1  0
 15 16  2  0
 15 17  1  0
 17 18  1  0
  5 19  1  0
 19 20  2  0
 20 21  1  0
 21 22  1  0
 20  2  1  0
 17  6  2  0
 14  8  1  0
  1 23  1  0
  1 24  1  0
  1 25  1  0
  3 26  1  0
  4 27  1  0
  9 28  1  0
 10 29  1  0
 11 30  1  0
 13 31  1  0
 18 32  1  0
 19 33  1  0
 21 34  1  0
 21 35  1  0
M  END
>  <meeko>  (3) 
{"is_sidechain": [false], "free_energy": -10.578, "intermolecular_energy": -12.499, "internal_energy": -0.078}

$$$$
cand_045_out
     RDKit          3D

 35 37  0  0  0  0  0  0  0  0999 V2000
   53.3230  153.8590   26.5050 C   0  0  0  0  0  0  0  0  0  0  0  0
   52.7990  154.9860   27.3520 C   0  0  0  0  0  0  0  0  0  0  0  0
   53.0060  156.3090   26.9370 C   0  0  0  0  0  0  0  0  0  0  0  0
   52.5340  157.3820   27.6990 C   0  0  0  0  0  0  0  0  0  0  0  0
   51.8510  157.1610   28.8990 C   0  0  0  0  0  0  0  0  0  0  0  0
   51.3190  158.2780   29.7110 C   0  0  0  0  0  0  0  0  0  0  0  0
   49.9820  158.1100   30.0490 O   0  0  0  0  0  0  0  0  0  0  0  0
   49.3630  159.0700   30.8080 C   0  0  0  0  0  0  0  0  0  0  0  0
   48.0180  158.8650   31.1170 C   0  0  0  0  0  0  0  0  0  0  0  0
   47.3280  159.8040   31.8860 C   0  0  0  0  0  0  0  0  0  0  0  0
   47.9830  160.9490   32.3450 C   0  0  0  0  0  0  0  0  0  0  0  0
   49.3260  161.1510   32.0360 C   0  0  0  0  0  0  0  0  0  0  0  0
   49.9070  162.2920   32.5190 O   0  0  0  0  0  0  0  0  0  0  0  0
   50.0160  160.2110   31.2660 C   0  0  0  0  0  0  0  0  0  0  0  0
   51.4270  160.3840   30.9190 C   0  0  0  0  0  0  0  0  0  0  0  0
   52.0740  161.3610   31.2920 O   0  0  0  0  0  0  0  0  0  0  0  0
   52.0640  159.3310   30.0950 C   0  0  0  0  0  0  0  0  0  0  0  0
   53.4020  159.4970   29.7870 O   0  0  0  0  0  0  0  0  0  0  0  0
   51.6350  155.8360   29.3080 C   0  0  0  0  0  0  0  0  0  0  0  0
   52.1010  154.7440   28.5520 C   0  0  0  0  0  0  0  0  0  0  0  0
   51.8470  153.3420   29.0470 C   0  0  0  0  0  0  0  0  0  0  0  0
   51.4520  152.4780   28.0680 F   0  0  0  0  0  0  0  0  0  0  0  0
   53.6970  153.0547   27.1555 H   0  0  0  0  0  0  0  0  0  0  0  0
   52.5132  153.4704   25.8700 H   0  0  0  0  0  0  0  0  0  0  0  0
   54.1420  154.2277   25.8700 H   0  0  0  0  0  0  0  0  0  0  0  0
   53.5469  156.5055   25.9995 H   0  0  0  0  0  0  0  0  0  0  0  0
   52.7018  158.4118   27.3506 H   0  0  0  0  0  0  0  0  0  0  0  0
   47.5014  157.9639   30.7549 H   0  0  0  0  0  0  0  0  0  0  0  0
   46.2678  159.6420   32.1305 H   0  0  0  0  0  0  0  0  0  0  0  0
   47.4392  161.6899   32.9494 H   0  0  0  0  0  0  0  0  0  0  0  0
   50.8060  162.2850   32.7820 H   0  0  0  0  0  0  0  0  0  0  0  0
   53.7670  159.0690   29.0380 H   0  0  0  0  0  0  0  0  0  0  0  0
   51.0877  155.6461   30.2431 H   0  0  0  0  0  0  0  0  0  0  0  0
   52.7755  152.9583   29.4949 H   0  0  0  0  0  0  0  0  0  0  0  0
   51.0238  153.4020   29.7742 H   0  0  0  0  0  0  0  0  0  0  0  0
  1  2  1  0
  2  3  2  0
  3  4  1  0
  4  5  2  0
  5  6  1  0
  6  7  1  0
  7  8  1  0
  8  9  2  0
  9 10  1  0
 10 11  2  0
 11 12  1  0
 12 13  1  0
 12 14  2  0
 14 15  1  0
 15 16  2  0
 15 17  1  0
 17 18  1  0
  5 19  1  0
 19 20  2  0
 20 21  1  0
 21 22  1  0
 20  2  1  0
 17  6  2  0
 14  8  1  0
  1 23  1  0
  1 24  1  0
  1 25  1  0
  3 26  1  0
  4 27  1  0
  9 28  1  0
 10 29  1  0
 11 30  1  0
 13 31  1  0
 18 32  1  0
 19 33  1  0
 21 34  1  0
 21 35  1  0
M  END
>  <meeko>  (4) 
{"is_sidechain": [false], "free_energy": -9.561, "intermolecular_energy": -11.484, "internal_energy": 0.101}

$$$$
cand_045_out
     RDKit          3D

 35 37  0  0  0  0  0  0  0  0999 V2000
   53.6490  152.9750   26.7220 C   0  0  0  0  0  0  0  0  0  0  0  0
   52.9350  154.0960   27.4270 C   0  0  0  0  0  0  0  0  0  0  0  0
   52.2270  153.8230   28.6060 C   0  0  0  0  0  0  0  0  0  0  0  0
   51.5510  154.8380   29.2890 C   0  0  0  0  0  0  0  0  0  0  0  0
   51.5580  156.1510   28.8070 C   0  0  0  0  0  0  0  0  0  0  0  0
   50.8730  157.2490   29.5230 C   0  0  0  0  0  0  0  0  0  0  0  0
   51.7200  158.3070   29.8280 O   0  0  0  0  0  0  0  0  0  0  0  0
   51.2120  159.3960   30.4880 C   0  0  0  0  0  0  0  0  0  0  0  0
   52.1000  160.4320   30.7800 C   0  0  0  0  0  0  0  0  0  0  0  0
   51.6480  161.5700   31.4500 C   0  0  0  0  0  0  0  0  0  0  0  0
   50.3070  161.6730   31.8280 C   0  0  0  0  0  0  0  0  0  0  0  0
   49.4220  160.6380   31.5340 C   0  0  0  0  0  0  0  0  0  0  0  0
   48.1240  160.8040   31.9320 O   0  0  0  0  0  0  0  0  0  0  0  0
   49.8760  159.4990   30.8640 C   0  0  0  0  0  0  0  0  0  0  0  0
   48.9800  158.3900   30.5350 C   0  0  0  0  0  0  0  0  0  0  0  0
   47.7860  158.4090   30.8280 O   0  0  0  0  0  0  0  0  0  0  0  0
   49.5610  157.2270   29.8260 C   0  0  0  0  0  0  0  0  0  0  0  0
   48.7010  156.1910   29.5070 O   0  0  0  0  0  0  0  0  0  0  0  0
   52.2770  156.4260   27.6330 C   0  0  0  0  0  0  0  0  0  0  0  0
   52.9650  155.4160   26.9340 C   0  0  0  0  0  0  0  0  0  0  0  0
   53.7130  155.7700   25.6730 C   0  0  0  0  0  0  0  0  0  0  0  0
   53.0330  156.6250   24.8550 F   0  0  0  0  0  0  0  0  0  0  0  0
   54.0841  152.2919   27.4664 H   0  0  0  0  0  0  0  0  0  0  0  0
   52.9349  152.4242   26.0921 H   0  0  0  0  0  0  0  0  0  0  0  0
   54.4500  153.3893   26.0921 H   0  0  0  0  0  0  0  0  0  0  0  0
   52.2032  152.7958   28.9989 H   0  0  0  0  0  0  0  0  0  0  0  0
   51.0076  154.6016   30.2157 H   0  0  0  0  0  0  0  0  0  0  0  0
   53.1559  160.3519   30.4823 H   0  0  0  0  0  0  0  0  0  0  0  0
   52.3482  162.3864   31.6806 H   0  0  0  0  0  0  0  0  0  0  0  0
   49.9507  162.5694   32.3566 H   0  0  0  0  0  0  0  0  0  0  0  0
   47.9240  161.3650   32.6550 H   0  0  0  0  0  0  0  0  0  0  0  0
   47.8050  156.3730   29.3070 H   0  0  0  0  0  0  0  0  0  0  0  0
   52.3035  157.4567   27.2496 H   0  0  0  0  0  0  0  0  0  0  0  0
   54.6655  156.2425   25.9549 H   0  0  0  0  0  0  0  0  0  0  0  0
   53.8590  154.8352   25.1119 H   0  0  0  0  0  0  0  0  0  0  0  0
  1  2  1  0
  2  3  2  0
  3  4  1  0
  4  5  2  0
  5  6  1  0
  6  7  1  0
  7  8  1  0
  8  9  2  0
  9 10  1  0
 10 11  2  0
 11 12  1  0
 12 13  1  0
 12 14  2  0
 14 15  1  0
 15 16  2  0
 15 17  1  0
 17 18  1  0
  5 19  1  0
 19 20  2  0
 20 21  1  0
 21 22  1  0
 20  2  1  0
 17  6  2  0
 14  8  1  0
  1 23  1  0
  1 24  1  0
  1 25  1  0
  3 26  1  0
  4 27  1  0
  9 28  1  0
 10 29  1  0
 11 30  1  0
 13 31  1  0
 18 32  1  0
 19 33  1  0
 21 34  1  0
 21 35  1  0
M  END
>  <meeko>  (5) 
{"is_sidechain": [false], "free_energy": -8.789, "intermolecular_energy": -10.224, "internal_energy": -0.251}

$$$$
cand_045_out
     RDKit          3D

 35 37  0  0  0  0  0  0  0  0999 V2000
   53.2810  153.0280   25.4160 C   0  0  0  0  0  0  0  0  0  0  0  0
   52.8690  154.1430   26.3370 C   0  0  0  0  0  0  0  0  0  0  0  0
   53.2020  155.4640   26.0060 C   0  0  0  0  0  0  0  0  0  0  0  0
   52.8370  156.5270   26.8380 C   0  0  0  0  0  0  0  0  0  0  0  0
   52.1370  156.2970   28.0260 C   0  0  0  0  0  0  0  0  0  0  0  0
   51.7170  157.4050   28.9110 C   0  0  0  0  0  0  0  0  0  0  0  0
   50.3840  157.3140   29.2940 O   0  0  0  0  0  0  0  0  0  0  0  0
   49.8630  158.2750   30.1220 C   0  0  0  0  0  0  0  0  0  0  0  0
   48.5190  158.1480   30.4740 C   0  0  0  0  0  0  0  0  0  0  0  0
   47.9270  159.0930   31.3140 C   0  0  0  0  0  0  0  0  0  0  0  0
   48.6780  160.1650   31.8020 C   0  0  0  0  0  0  0  0  0  0  0  0
   50.0200  160.2880   31.4490 C   0  0  0  0  0  0  0  0  0  0  0  0
   50.6980  161.3610   31.9620 O   0  0  0  0  0  0  0  0  0  0  0  0
   50.6120  159.3420   30.6080 C   0  0  0  0  0  0  0  0  0  0  0  0
   52.0180  159.4340   30.2140 C   0  0  0  0  0  0  0  0  0  0  0  0
   52.7460  160.3440   30.6060 O   0  0  0  0  0  0  0  0  0  0  0  0
   52.5480  158.3830   29.3150 C   0  0  0  0  0  0  0  0  0  0  0  0
   53.8830  158.4710   28.9620 O   0  0  0  0  0  0  0  0  0  0  0  0
   51.7950  154.9750   28.3520 C   0  0  0  0  0  0  0  0  0  0  0  0
   52.1520  153.8940   27.5240 C   0  0  0  0  0  0  0  0  0  0  0  0
   51.7640  152.4940   27.9310 C   0  0  0  0  0  0  0  0  0  0  0  0
   51.3950  152.3860   29.2400 F   0  0  0  0  0  0  0  0  0  0  0  0
   53.6016  152.1603   26.0112 H   0  0  0  0  0  0  0  0  0  0  0  0
   52.4289  152.7427   24.7815 H   0  0  0  0  0  0  0  0  0  0  0  0
   54.1139  153.3653   24.7815 H   0  0  0  0  0  0  0  0  0  0  0  0
   53.7581  155.6671   25.0789 H   0  0  0  0  0  0  0  0  0  0  0  0
   53.1037  157.5558   26.5545 H   0  0  0  0  0  0  0  0  0  0  0  0
   47.9265  157.3044   30.0902 H   0  0  0  0  0  0  0  0  0  0  0  0
   46.8674  158.9933   31.5920 H   0  0  0  0  0  0  0  0  0  0  0  0
   48.2111  160.9099   32.4631 H   0  0  0  0  0  0  0  0  0  0  0  0
   50.2940  161.9020   32.6120 H   0  0  0  0  0  0  0  0  0  0  0  0
   54.4920  158.8890   29.5380 H   0  0  0  0  0  0  0  0  0  0  0  0
   51.2340  154.7790   29.2777 H   0  0  0  0  0  0  0  0  0  0  0  0
   50.9194  152.1716   27.3043 H   0  0  0  0  0  0  0  0  0  0  0  0
   52.6534  151.8613   27.7944 H   0  0  0  0  0  0  0  0  0  0  0  0
  1  2  1  0
  2  3  2  0
  3  4  1  0
  4  5  2  0
  5  6  1  0
  6  7  1  0
  7  8  1  0
  8  9  2  0
  9 10  1  0
 10 11  2  0
 11 12  1  0
 12 13  1  0
 12 14  2  0
 14 15  1  0
 15 16  2  0
 15 17  1  0
 17 18  1  0
  5 19  1  0
 19 20  2  0
 20 21  1  0
 21 22  1  0
 20  2  1  0
 17  6  2  0
 14  8  1  0
  1 23  1  0
  1 24  1  0
  1 25  1  0
  3 26  1  0
  4 27  1  0
  9 28  1  0
 10 29  1  0
 11 30  1  0
 13 31  1  0
 18 32  1  0
 19 33  1  0
 21 34  1  0
 21 35  1  0
M  END
>  <meeko>  (6) 
{"is_sidechain": [false], "free_energy": -8.239, "intermolecular_energy": -9.658, "internal_energy": -0.17}

$$$$
