cand_001_out
     RDKit          3D

 45 48  0  0  0  0  0  0  0  0999 V2000
   52.0450  152.1050   27.6840 C   0  0  0  0  0  0  0  0  0  0  0  0
   51.7730  153.5040   28.1650 C   0  0  0  0  0  0  0  0  0  0  0  0
   51.6810  153.7340   29.5460 C   0  0  0  0  0  0  0  0  0  0  0  0
   51.4600  155.0190   30.0490 C   0  0  0  0  0  0  0  0  0  0  0  0
   51.3380  156.1120   29.1850 C   0  0  0  0  0  0  0  0  0  0  0  0
   51.0900  157.4620   29.7350 C   0  0  0  0  0  0  0  0  0  0  0  0
   49.8040  157.6100   30.2430 O   0  0  0  0  0  0  0  0  0  0  0  0
   49.4410  158.8170   30.7850 C   0  0  0  0  0  0  0  0  0  0  0  0
   48.1370  158.9270   31.2700 C   0  0  0  0  0  0  0  0  0  0  0  0
   47.7040  160.1260   31.8370 C   0  0  0  0  0  0  0  0  0  0  0  0
   48.5730  161.2160   31.9190 C   0  0  0  0  0  0  0  0  0  0  0  0
   49.8740  161.1040   31.4350 C   0  0  0  0  0  0  0  0  0  0  0  0
   50.6720  162.2090   31.5480 O   0  0  0  0  0  0  0  0  0  0  0  0
   50.3070  159.9020   30.8680 C   0  0  0  0  0  0  0  0  0  0  0  0
   51.6660  159.7420   30.3480 C   0  0  0  0  0  0  0  0  0  0  0  0
   52.4910  160.6520   30.3910 O   0  0  0  0  0  0  0  0  0  0  0  0
   52.0230  158.4300   29.7580 C   0  0  0  0  0  0  0  0  0  0  0  0
   53.3140  158.2860   29.2820 O   0  0  0  0  0  0  0  0  0  0  0  0
   51.4250  155.8820   27.8060 C   0  0  0  0  0  0  0  0  0  0  0  0
   51.6520  154.5930   27.2790 C   0  0  0  0  0  0  0  0  0  0  0  0
   51.7680  154.4410   25.7730 C   0  0  0  0  0  0  0  0  0  0  0  0
   53.0990  154.8600   25.1880 C   0  0  0  0  0  0  0  0  0  0  0  0
   53.9380  153.9060   24.5910 C   0  0  0  0  0  0  0  0  0  0  0  0
   55.1580  154.2860   24.0270 C   0  0  0  0  0  0  0  0  0  0  0  0
   55.5500  155.6220   24.0450 C   0  0  0  0  0  0  0  0  0  0  0  0
   54.7210  156.5810   24.6240 C   0  0  0  0  0  0  0  0  0  0  0  0
   53.5010  156.2050   25.1870 C   0  0  0  0  0  0  0  0  0  0  0  0
   52.1746  151.4384   28.5494 H   0  0  0  0  0  0  0  0  0  0  0  0
   51.1980  151.7553   27.0754 H   0  0  0  0  0  0  0  0  0  0  0  0
   52.9613  152.0981   27.0754 H   0  0  0  0  0  0  0  0  0  0  0  0
   51.7844  152.8898   30.2436 H   0  0  0  0  0  0  0  0  0  0  0  0
   51.3812  155.1723   31.1354 H   0  0  0  0  0  0  0  0  0  0  0  0
   47.4513  158.0693   31.2053 H   0  0  0  0  0  0  0  0  0  0  0  0
   46.6765  160.2128   32.2200 H   0  0  0  0  0  0  0  0  0  0  0  0
   48.2305  162.1614   32.3651 H   0  0  0  0  0  0  0  0  0  0  0  0
   50.2940  163.0650   31.5120 H   0  0  0  0  0  0  0  0  0  0  0  0
   53.9620  158.9310   29.4840 H   0  0  0  0  0  0  0  0  0  0  0  0
   51.3132  156.7301   27.1145 H   0  0  0  0  0  0  0  0  0  0  0  0
   51.6038  153.3824   25.5234 H   0  0  0  0  0  0  0  0  0  0  0  0
   51.0154  155.1147   25.3374 H   0  0  0  0  0  0  0  0  0  0  0  0
   53.6319  152.8497   24.5671 H   0  0  0  0  0  0  0  0  0  0  0  0
   55.8102  153.5285   23.5678 H   0  0  0  0  0  0  0  0  0  0  0  0
   56.5122  155.9199   23.6030 H   0  0  0  0  0  0  0  0  0  0  0  0
   55.0292  157.6368   24.6372 H   0  0  0  0  0  0  0  0  0  0  0  0
   52.8484  156.9693   25.6341 H   0  0  0  0  0  0  0  0  0  0  0  0
  1  2  1  0
  2  3  2  0
  3  4  1  0
  4  5  2  0
  5  6  1  0
  6  7  1  0
  7  8  1  0
  8  9  2  0
  9 10  1  0
 10 11  2  0
 11 12  1  0
 12 13  1  0
 12 14  2  0
 14 15  1  0
 15 16  2  0
 15 17  1  0
 17 18  1  0
  5 19  1  0
 19 20  2  0
 20 21  1  0
 21 22  1  0
 22 23  2  0
 23 24  1  0
 24 25  2  0
 25 26  1  0
 26 27  2  0
 20  2  1  0
 27 22  1  0
 17  6  2  0
 14  8  1  0
  1 28  1  0
  1 29  1  0
  1 30  1  0
  3 31  1  0
  4 32  1  0
  9 33  1  0
 10 34  1  0
 11 35  1  0
 13 36  1  0
 18 37  1  0
 19 38  1  0
 21 39  1  0
 21 40  1  0
 23 41  1  0
 24 42  1  0
 25 43  1  0
 26 44  1  0
 27 45  1  0
M  END
>  <meeko>  (1) 
{"is_sidechain": [false], "free_energy": -10.672, "intermolecular_energy": -13.168, "internal_energy": -0.857}

$$$$
cand_001_out
     RDKit          3D

 45 48  0  0  0  0  0  0  0  0999 V2000
   51.1820  160.6100   30.9600 C   0  0  0  0  0  0  0  0  0  0  0  0
   51.4120  159.3260   30.2110 C   0  0  0  0  0  0  0  0  0  0  0  0
   52.6770  159.0900   29.6530 C   0  0  0  0  0  0  0  0  0  0  0  0
   52.9540  157.9010   28.9730 C   0  0  0  0  0  0  0  0  0  0  0  0
   51.9770  156.9090   28.8420 C   0  0  0  0  0  0  0  0  0  0  0  0
   52.2840  155.6640   28.1070 C   0  0  0  0  0  0  0  0  0  0  0  0
   52.8820  155.8990   26.8740 O   0  0  0  0  0  0  0  0  0  0  0  0
   53.2210  154.8270   26.0870 C   0  0  0  0  0  0  0  0  0  0  0  0
   53.8050  155.1080   24.8510 C   0  0  0  0  0  0  0  0  0  0  0  0
   54.1760  154.0640   24.0030 C   0  0  0  0  0  0  0  0  0  0  0  0
   53.9630  152.7390   24.3880 C   0  0  0  0  0  0  0  0  0  0  0  0
   53.3800  152.4610   25.6220 C   0  0  0  0  0  0  0  0  0  0  0  0
   53.2010  151.1420   25.9370 O   0  0  0  0  0  0  0  0  0  0  0  0
   53.0090  153.5070   26.4710 C   0  0  0  0  0  0  0  0  0  0  0  0
   52.3940  153.2580   27.7760 C   0  0  0  0  0  0  0  0  0  0  0  0
   52.1810  152.1210   28.1900 O   0  0  0  0  0  0  0  0  0  0  0  0
   52.0300  154.4370   28.5970 C   0  0  0  0  0  0  0  0  0  0  0  0
   51.4620  154.1900   29.8340 O   0  0  0  0  0  0  0  0  0  0  0  0
   50.7120  157.1460   29.3950 C   0  0  0  0  0  0  0  0  0  0  0  0
   50.4140  158.3380   30.0890 C   0  0  0  0  0  0  0  0  0  0  0  0
   49.0270  158.4960   30.6860 C   0  0  0  0  0  0  0  0  0  0  0  0
   48.8470  159.7080   31.5740 C   0  0  0  0  0  0  0  0  0  0  0  0
   48.2620  160.8760   31.0600 C   0  0  0  0  0  0  0  0  0  0  0  0
   48.0690  161.9930   31.8770 C   0  0  0  0  0  0  0  0  0  0  0  0
   48.4510  161.9530   33.2150 C   0  0  0  0  0  0  0  0  0  0  0  0
   49.0210  160.7960   33.7410 C   0  0  0  0  0  0  0  0  0  0  0  0
   49.2140  159.6790   32.9280 C   0  0  0  0  0  0  0  0  0  0  0  0
   51.2170  160.4147   32.0420 H   0  0  0  0  0  0  0  0  0  0  0  0
   51.9645  161.3355   30.6929 H   0  0  0  0  0  0  0  0  0  0  0  0
   50.1963  161.0188   30.6929 H   0  0  0  0  0  0  0  0  0  0  0  0
   53.4633  159.8528   29.7522 H   0  0  0  0  0  0  0  0  0  0  0  0
   53.9512  157.7437   28.5361 H   0  0  0  0  0  0  0  0  0  0  0  0
   53.9726  156.1514   24.5457 H   0  0  0  0  0  0  0  0  0  0  0  0
   54.6372  154.2853   23.0292 H   0  0  0  0  0  0  0  0  0  0  0  0
   54.2549  151.9166   23.7184 H   0  0  0  0  0  0  0  0  0  0  0  0
   53.8750  150.5200   25.7470 H   0  0  0  0  0  0  0  0  0  0  0  0
   51.3240  154.8950   30.4350 H   0  0  0  0  0  0  0  0  0  0  0  0
   49.9289  156.3814   29.2852 H   0  0  0  0  0  0  0  0  0  0  0  0
   48.3057  158.5690   29.8587 H   0  0  0  0  0  0  0  0  0  0  0  0
   48.8672  157.6177   31.3287 H   0  0  0  0  0  0  0  0  0  0  0  0
   47.9529  160.9122   30.0049 H   0  0  0  0  0  0  0  0  0  0  0  0
   47.6147  162.9050   31.4624 H   0  0  0  0  0  0  0  0  0  0  0  0
   48.3029  162.8343   33.8564 H   0  0  0  0  0  0  0  0  0  0  0  0
   49.3194  160.7631   34.7992 H   0  0  0  0  0  0  0  0  0  0  0  0
   49.6582  158.7666   33.3525 H   0  0  0  0  0  0  0  0  0  0  0  0
  1  2  1  0
  2  3  2  0
  3  4  1  0
  4  5  2  0
  5  6  1  0
  6  7  1  0
  7  8  1  0
  8  9  2  0
  9 10  1  0
 10 11  2  0
 11 12  1  0
 12 13  1  0
 12 14  2  0
 14 15  1  0
 15 16  2  0
 15 17  1  0
 17 18  1  0
  5 19  1  0
 19 20  2  0
 20 21  1  0
 21 22  1  0
 22 23  2  0
 23 24  1  0
 24 25  2  0
 25 26  1  0
 26 27  2  0
 20  2  1  0
 27 22  1  0
 17  6  2  0
 14  8  1  0
  1 28  1  0
  1 29  1  0
  1 30  1  0
  3 31  1  0
  4 32  1  0
  9 33  1  0
 10 34  1  0
 11 35  1  0
 13 36  1  0
 18 37  1  0
 19 38  1  0
 21 39  1  0
 21 40  1  0
 23 41  1  0
 24 42  1  0
 25 43  1  0
 26 44  1  0
 27 45  1  0
M  END
>  <meeko>  (2) 
{"is_sidechain": [false], "free_energy": -10.004, "intermolecular_energy": -15.018, "internal_energy": 1.818}

$$$$
cand_001_out
     RDKit          3D

 45 48  0  0  0  0  0  0  0  0999 V2000
   48.8090  158.5420   31.3980 C   0  0  0  0  0  0  0  0  0  0  0  0
   49.7160  157.7630   30.4850 C   0  0  0  0  0  0  0  0  0  0  0  0
   49.3090  156.4890   30.0610 C   0  0  0  0  0  0  0  0  0  0  0  0
   50.0980  155.7350   29.1880 C   0  0  0  0  0  0  0  0  0  0  0  0
   51.3090  156.2390   28.7040 C   0  0  0  0  0  0  0  0  0  0  0  0
   52.1370  155.4210   27.7920 C   0  0  0  0  0  0  0  0  0  0  0  0
   52.7700  156.1790   26.8130 O   0  0  0  0  0  0  0  0  0  0  0  0
   53.5720  155.5430   25.8990 C   0  0  0  0  0  0  0  0  0  0  0  0
   54.1760  156.3380   24.9240 C   0  0  0  0  0  0  0  0  0  0  0  0
   55.0060  155.7550   23.9650 C   0  0  0  0  0  0  0  0  0  0  0  0
   55.2320  154.3780   23.9800 C   0  0  0  0  0  0  0  0  0  0  0  0
   54.6290  153.5860   24.9530 C   0  0  0  0  0  0  0  0  0  0  0  0
   54.8940  152.2440   24.9100 O   0  0  0  0  0  0  0  0  0  0  0  0
   53.7970  154.1700   25.9130 C   0  0  0  0  0  0  0  0  0  0  0  0
   53.1440  153.3740   26.9540 C   0  0  0  0  0  0  0  0  0  0  0  0
   53.3000  152.1580   27.0370 O   0  0  0  0  0  0  0  0  0  0  0  0
   52.2760  154.0900   27.9180 C   0  0  0  0  0  0  0  0  0  0  0  0
   51.6740  153.3290   28.9050 O   0  0  0  0  0  0  0  0  0  0  0  0
   51.7180  157.5100   29.1300 C   0  0  0  0  0  0  0  0  0  0  0  0
   50.9340  158.2880   30.0080 C   0  0  0  0  0  0  0  0  0  0  0  0
   51.4360  159.6690   30.3900 C   0  0  0  0  0  0  0  0  0  0  0  0
   50.4330  160.5370   31.1170 C   0  0  0  0  0  0  0  0  0  0  0  0
   50.6150  160.8370   32.4760 C   0  0  0  0  0  0  0  0  0  0  0  0
   49.7080  161.6570   33.1510 C   0  0  0  0  0  0  0  0  0  0  0  0
   48.6130  162.1910   32.4760 C   0  0  0  0  0  0  0  0  0  0  0  0
   48.4270  161.9110   31.1240 C   0  0  0  0  0  0  0  0  0  0  0  0
   49.3330  161.0930   30.4470 C   0  0  0  0  0  0  0  0  0  0  0  0
   49.0654  158.3218   32.4448 H   0  0  0  0  0  0  0  0  0  0  0  0
   48.9344  159.6183   31.2084 H   0  0  0  0  0  0  0  0  0  0  0  0
   47.7640  158.2556   31.2084 H   0  0  0  0  0  0  0  0  0  0  0  0
   48.3546  156.0774   30.4211 H   0  0  0  0  0  0  0  0  0  0  0  0
   49.7626  154.7342   28.8783 H   0  0  0  0  0  0  0  0  0  0  0  0
   53.9981  157.4234   24.9112 H   0  0  0  0  0  0  0  0  0  0  0  0
   55.4824  156.3816   23.1967 H   0  0  0  0  0  0  0  0  0  0  0  0
   55.8859  153.9190   23.2238 H   0  0  0  0  0  0  0  0  0  0  0  0
   55.7380  151.9420   24.6390 H   0  0  0  0  0  0  0  0  0  0  0  0
   51.9500  153.4150   29.7960 H   0  0  0  0  0  0  0  0  0  0  0  0
   52.6765  157.9121   28.7700 H   0  0  0  0  0  0  0  0  0  0  0  0
   52.3141  159.5446   31.0407 H   0  0  0  0  0  0  0  0  0  0  0  0
   51.6610  160.1857   29.4453 H   0  0  0  0  0  0  0  0  0  0  0  0
   51.4800  160.4225   33.0144 H   0  0  0  0  0  0  0  0  0  0  0  0
   49.8587  161.8814   34.2173 H   0  0  0  0  0  0  0  0  0  0  0  0
   47.8963  162.8327   33.0095 H   0  0  0  0  0  0  0  0  0  0  0  0
   47.5646  162.3353   30.5891 H   0  0  0  0  0  0  0  0  0  0  0  0
   49.1830  160.8823   29.3778 H   0  0  0  0  0  0  0  0  0  0  0  0
  1  2  1  0
  2  3  2  0
  3  4  1  0
  4  5  2  0
  5  6  1  0
  6  7  1  0
  7  8  1  0
  8  9  2  0
  9 10  1  0
 10 11  2  0
 11 12  1  0
 12 13  1  0
 12 14  2  0
 14 15  1  0
 15 16  2  0
 15 17  1  0
 17 18  1  0
  5 19  1  0
 19 20  2  0
 20 21  1  0
 21 22  1  0
 22 23  2  0
 23 24  1  0
 24 25  2  0
 25 26  1  0
 26 27  2  0
 20  2  1  0
 27 22  1  0
 17  6  2  0
 14  8  1  0
  1 28  1  0
  1 29  1  0
  1 30  1  0
  3 31  1  0
  4 32  1  0
  9 33  1  0
 10 34  1  0
 11 35  1  0
 13 36  1  0
 18 37  1  0
 19 38  1  0
 21 39  1  0
 21 40  1  0
 23 41  1  0
 24 42  1  0
 25 43  1  0
 26 44  1  0
 27 45  1  0
M  END
>  <meeko>  (3) 
{"is_sidechain": [false], "free_energy": -9.461, "intermolecular_energy": -14.625, "internal_energy": 2.095}

$$$$
cand_001_out
     RDKit          3D

 45 48  0  0  0  0  0  0  0  0999 V2000
   49.4420  157.9940   31.2760 C   0  0  0  0  0  0  0  0  0  0  0  0
   50.3150  157.4000   30.2050 C   0  0  0  0  0  0  0  0  0  0  0  0
   50.0140  156.1160   29.7270 C   0  0  0  0  0  0  0  0  0  0  0  0
   50.7740  155.5290   28.7120 C   0  0  0  0  0  0  0  0  0  0  0  0
   51.8480  156.2140   28.1370 C   0  0  0  0  0  0  0  0  0  0  0  0
   52.6490  155.5710   27.0740 C   0  0  0  0  0  0  0  0  0  0  0  0
   52.4890  154.1900   27.0380 O   0  0  0  0  0  0  0  0  0  0  0  0
   53.1770  153.4680   26.0960 C   0  0  0  0  0  0  0  0  0  0  0  0
   52.9990  152.0840   26.1050 C   0  0  0  0  0  0  0  0  0  0  0  0
   53.6680  151.2900   25.1720 C   0  0  0  0  0  0  0  0  0  0  0  0
   54.5140  151.8780   24.2300 C   0  0  0  0  0  0  0  0  0  0  0  0
   54.6900  153.2590   24.2230 C   0  0  0  0  0  0  0  0  0  0  0  0
   55.5310  153.7690   23.2730 O   0  0  0  0  0  0  0  0  0  0  0  0
   54.0200  154.0540   25.1580 C   0  0  0  0  0  0  0  0  0  0  0  0
   54.1770  155.5090   25.1840 C   0  0  0  0  0  0  0  0  0  0  0  0
   54.8970  156.1010   24.3840 O   0  0  0  0  0  0  0  0  0  0  0  0
   53.4290  156.2590   26.2200 C   0  0  0  0  0  0  0  0  0  0  0  0
   53.5740  157.6350   26.2280 O   0  0  0  0  0  0  0  0  0  0  0  0
   52.1530  157.4950   28.6170 C   0  0  0  0  0  0  0  0  0  0  0  0
   51.3960  158.1070   29.6380 C   0  0  0  0  0  0  0  0  0  0  0  0
   51.7740  159.5110   30.0720 C   0  0  0  0  0  0  0  0  0  0  0  0
   50.6470  160.3200   30.6750 C   0  0  0  0  0  0  0  0  0  0  0  0
   50.7290  160.7610   32.0050 C   0  0  0  0  0  0  0  0  0  0  0  0
   49.7050  161.5290   32.5640 C   0  0  0  0  0  0  0  0  0  0  0  0
   48.5920  161.8710   31.8000 C   0  0  0  0  0  0  0  0  0  0  0  0
   48.5030  161.4510   30.4750 C   0  0  0  0  0  0  0  0  0  0  0  0
   49.5260  160.6850   29.9130 C   0  0  0  0  0  0  0  0  0  0  0  0
   49.8397  157.7234   32.2652 H   0  0  0  0  0  0  0  0  0  0  0  0
   49.4291  159.0891   31.1730 H   0  0  0  0  0  0  0  0  0  0  0  0
   48.4186  157.6040   31.1730 H   0  0  0  0  0  0  0  0  0  0  0  0
   49.1666  155.5627   30.1579 H   0  0  0  0  0  0  0  0  0  0  0  0
   50.5243  154.5166   28.3617 H   0  0  0  0  0  0  0  0  0  0  0  0
   52.3324  151.6193   26.8464 H   0  0  0  0  0  0  0  0  0  0  0  0
   53.5283  150.1989   25.1790 H   0  0  0  0  0  0  0  0  0  0  0  0
   55.0404  151.2515   23.4949 H   0  0  0  0  0  0  0  0  0  0  0  0
   55.7140  154.6880   23.2530 H   0  0  0  0  0  0  0  0  0  0  0  0
   53.0170  158.1670   25.6950 H   0  0  0  0  0  0  0  0  0  0  0  0
   53.0066  158.0384   28.1855 H   0  0  0  0  0  0  0  0  0  0  0  0
   52.5759  159.4322   30.8209 H   0  0  0  0  0  0  0  0  0  0  0  0
   52.0792  160.0429   29.1588 H   0  0  0  0  0  0  0  0  0  0  0  0
   51.6078  160.4994   32.6127 H   0  0  0  0  0  0  0  0  0  0  0  0
   49.7778  161.8642   33.6092 H   0  0  0  0  0  0  0  0  0  0  0  0
   47.7840  162.4722   32.2425 H   0  0  0  0  0  0  0  0  0  0  0  0
   47.6253  161.7233   29.8704 H   0  0  0  0  0  0  0  0  0  0  0  0
   49.4529  160.3645   28.8633 H   0  0  0  0  0  0  0  0  0  0  0  0
  1  2  1  0
  2  3  2  0
  3  4  1  0
  4  5  2  0
  5  6  1  0
  6  7  1  0
  7  8  1  0
  8  9  2  0
  9 10  1  0
 10 11  2  0
 11 12  1  0
 12 13  1  0
 12 14  2  0
 14 15  1  0
 15 16  2  0
 15 17  1  0
 17 18  1  0
  5 19  1  0
 19 20  2  0
 20 21  1  0
 21 22  1  0
 22 23  2  0
 23 24  1  0
 24 25  2  0
 25 26  1  0
 26 27  2  0
 20  2  1  0
 27 22  1  0
 17  6  2  0
 14  8  1  0
  1 28  1  0
  1 29  1  0
  1 30  1  0
  3 31  1  0
  4 32  1  0
  9 33  1  0
 10 34  1  0
 11 35  1  0
 13 36  1  0
 18 37  1  0
 19 38  1  0
 21 39  1  0
 21 40  1  0
 23 41  1  0
 24 42  1  0
 25 43  1  0
 26 44  1  0
 27 45  1  0
M  END
>  <meeko>  (4) 
{"is_sidechain": [false], "free_energy": -8.121, "intermolecular_energy": -12.329, "internal_energy": 1.452}

$$$$
cand_001_out
     RDKit          3D

 45 48  0  0  0  0  0  0  0  0999 V2000
   52.6750  152.1290   27.6700 C   0  0  0  0  0  0  0  0  0  0  0  0
   52.0910  153.4300   28.1480 C   0  0  0  0  0  0  0  0  0  0  0  0
   51.9610  153.6420   29.5290 C   0  0  0  0  0  0  0  0  0  0  0  0
   51.4530  154.8440   30.0290 C   0  0  0  0  0  0  0  0  0  0  0  0
   51.0720  155.8730   29.1620 C   0  0  0  0  0  0  0  0  0  0  0  0
   50.5230  157.1320   29.7080 C   0  0  0  0  0  0  0  0  0  0  0  0
   51.5070  158.0770   29.9790 O   0  0  0  0  0  0  0  0  0  0  0  0
   51.1340  159.2940   30.4900 C   0  0  0  0  0  0  0  0  0  0  0  0
   52.1540  160.2070   30.7610 C   0  0  0  0  0  0  0  0  0  0  0  0
   51.8430  161.4650   31.2810 C   0  0  0  0  0  0  0  0  0  0  0  0
   50.5140  161.8100   31.5300 C   0  0  0  0  0  0  0  0  0  0  0  0
   49.4980  160.8980   31.2600 C   0  0  0  0  0  0  0  0  0  0  0  0
   48.2180  161.3010   31.5270 O   0  0  0  0  0  0  0  0  0  0  0  0
   49.8090  159.6390   30.7390 C   0  0  0  0  0  0  0  0  0  0  0  0
   48.7710  158.6510   30.4400 C   0  0  0  0  0  0  0  0  0  0  0  0
   47.5790  158.8820   30.6250 O   0  0  0  0  0  0  0  0  0  0  0  0
   49.2080  157.3420   29.8990 C   0  0  0  0  0  0  0  0  0  0  0  0
   48.2180  156.4210   29.6080 O   0  0  0  0  0  0  0  0  0  0  0  0
   51.1960  155.6610   27.7830 C   0  0  0  0  0  0  0  0  0  0  0  0
   51.7110  154.4560   27.2590 C   0  0  0  0  0  0  0  0  0  0  0  0
   51.8440  154.3250   25.7520 C   0  0  0  0  0  0  0  0  0  0  0  0
   53.1300  154.8740   25.1740 C   0  0  0  0  0  0  0  0  0  0  0  0
   54.0380  154.0150   24.5350 C   0  0  0  0  0  0  0  0  0  0  0  0
   55.2170  154.5140   23.9760 C   0  0  0  0  0  0  0  0  0  0  0  0
   55.4980  155.8760   24.0420 C   0  0  0  0  0  0  0  0  0  0  0  0
   54.6000  156.7420   24.6620 C   0  0  0  0  0  0  0  0  0  0  0  0
   53.4210  156.2450   25.2200 C   0  0  0  0  0  0  0  0  0  0  0  0
   52.9523  151.5111   28.5368 H   0  0  0  0  0  0  0  0  0  0  0  0
   51.9305  151.5944   27.0618 H   0  0  0  0  0  0  0  0  0  0  0  0
   53.5693  152.3300   27.0618 H   0  0  0  0  0  0  0  0  0  0  0  0
   52.2638  152.8494   30.2291 H   0  0  0  0  0  0  0  0  0  0  0  0
   51.3518  154.9822   31.1156 H   0  0  0  0  0  0  0  0  0  0  0  0
   53.2019  159.9359   30.5652 H   0  0  0  0  0  0  0  0  0  0  0  0
   52.6467  162.1850   31.4947 H   0  0  0  0  0  0  0  0  0  0  0  0
   50.2697  162.8014   31.9391 H   0  0  0  0  0  0  0  0  0  0  0  0
   48.0350  161.7940   32.3020 H   0  0  0  0  0  0  0  0  0  0  0  0
   47.6910  156.5270   28.8410 H   0  0  0  0  0  0  0  0  0  0  0  0
   50.8834  156.4555   27.0894 H   0  0  0  0  0  0  0  0  0  0  0  0
   51.7830  153.2571   25.4955 H   0  0  0  0  0  0  0  0  0  0  0  0
   51.0307  154.9252   25.3180 H   0  0  0  0  0  0  0  0  0  0  0  0
   53.8190  152.9387   24.4739 H   0  0  0  0  0  0  0  0  0  0  0  0
   55.9239  153.8303   23.4833 H   0  0  0  0  0  0  0  0  0  0  0  0
   56.4283  156.2680   23.6050 H   0  0  0  0  0  0  0  0  0  0  0  0
   54.8203  157.8186   24.7119 H   0  0  0  0  0  0  0  0  0  0  0  0
   52.7128  156.9359   25.7008 H   0  0  0  0  0  0  0  0  0  0  0  0
  1  2  1  0
  2  3  2  0
  3  4  1  0
  4  5  2  0
  5  6  1  0
  6  7  1  0
  7  8  1  0
  8  9  2  0
  9 10  1  0
 10 11  2  0
 11 12  1  0
 12 13  1  0
 12 14  2  0
 14 15  1  0
 15 16  2  0
 15 17  1  0
 17 18  1  0
  5 19  1  0
 19 20  2  0
 20 21  1  0
 21 22  1  0
 22 23  2  0
 23 24  1  0
 24 25  2  0
 25 26  1  0
 26 27  2  0
 20  2  1  0
 27 22  1  0
 17  6  2  0
 14  8  1  0
  1 28  1  0
  1 29  1  0
  1 30  1  0
  3 31  1  0
  4 32  1  0
  9 33  1  0
 10 34  1  0
 11 35  1  0
 13 36  1  0
 18 37  1  0
 19 38  1  0
 21 39  1  0
 21 40  1  0
 23 41  1  0
 24 42  1  0
 25 43  1  0
 26 44  1  0
 27 45  1  0
M  END
>  <meeko>  (5) 
{"is_sidechain": [false], "free_energy": -7.911, "intermolecular_energy": -9.657, "internal_energy": -0.96}

$$$$
