cand_049_out
     RDKit          3D

 47 49  0  0  0  0  0  0  0  0999 V2000
   47.5920  159.0790   30.0640 C   0  0  0  0  0  0  0  0  0  0  0  0
   48.6140  158.7840   31.1540 C   0  0  0  0  0  0  0  0  0  0  0  0
   50.0230  158.7380   30.6060 C   0  0  0  0  0  0  0  0  0  0  0  0
   50.4130  157.5890   29.8870 C   0  0  0  0  0  0  0  0  0  0  0  0
   51.6840  157.4710   29.3070 C   0  0  0  0  0  0  0  0  0  0  0  0
   52.0540  156.2320   28.5880 C   0  0  0  0  0  0  0  0  0  0  0  0
   52.5850  156.4770   27.3270 O   0  0  0  0  0  0  0  0  0  0  0  0
   52.9710  155.4150   26.5520 C   0  0  0  0  0  0  0  0  0  0  0  0
   53.4850  155.7070   25.2880 C   0  0  0  0  0  0  0  0  0  0  0  0
   53.8990  154.6700   24.4470 C   0  0  0  0  0  0  0  0  0  0  0  0
   53.7990  153.3440   24.8710 C   0  0  0  0  0  0  0  0  0  0  0  0
   53.2850  153.0550   26.1330 C   0  0  0  0  0  0  0  0  0  0  0  0
   53.2160  151.7350   26.4840 O   0  0  0  0  0  0  0  0  0  0  0  0
   52.8710  154.0920   26.9730 C   0  0  0  0  0  0  0  0  0  0  0  0
   52.3250  153.8330   28.3060 C   0  0  0  0  0  0  0  0  0  0  0  0
   52.2130  152.6930   28.7520 O   0  0  0  0  0  0  0  0  0  0  0  0
   51.9090  155.0020   29.1150 C   0  0  0  0  0  0  0  0  0  0  0  0
   51.4070  154.7450   30.3790 O   0  0  0  0  0  0  0  0  0  0  0  0
   52.5830  158.5280   29.4630 C   0  0  0  0  0  0  0  0  0  0  0  0
   52.2140  159.6770   30.1660 C   0  0  0  0  0  0  0  0  0  0  0  0
   50.9390  159.8000   30.7450 C   0  0  0  0  0  0  0  0  0  0  0  0
   50.6160  161.0730   31.5030 C   0  0  0  0  0  0  0  0  0  0  0  0
   49.3150  160.9970   32.3280 C   0  0  0  0  0  0  0  0  0  0  0  0
   49.5840  160.9430   33.8330 C   0  0  0  0  0  0  0  0  0  0  0  0
   48.4310  162.2060   32.0080 C   0  0  0  0  0  0  0  0  0  0  0  0
   46.6328  159.3559   30.5259 H   0  0  0  0  0  0  0  0  0  0  0  0
   47.9516  159.9100   29.4394 H   0  0  0  0  0  0  0  0  0  0  0  0
   47.4534  158.1842   29.4394 H   0  0  0  0  0  0  0  0  0  0  0  0
   48.5553  159.5717   31.9196 H   0  0  0  0  0  0  0  0  0  0  0  0
   48.3816  157.7979   31.5824 H   0  0  0  0  0  0  0  0  0  0  0  0
   49.6981  156.7601   29.7780 H   0  0  0  0  0  0  0  0  0  0  0  0
   53.5643  156.7520   24.9538 H   0  0  0  0  0  0  0  0  0  0  0  0
   54.3039  154.8992   23.4503 H   0  0  0  0  0  0  0  0  0  0  0  0
   54.1257  152.5282   24.2094 H   0  0  0  0  0  0  0  0  0  0  0  0
   53.1400  151.4940   27.3870 H   0  0  0  0  0  0  0  0  0  0  0  0
   50.9710  153.9340   30.5530 H   0  0  0  0  0  0  0  0  0  0  0  0
   53.5908  158.4551   29.0283 H   0  0  0  0  0  0  0  0  0  0  0  0
   52.9349  160.5015   30.2686 H   0  0  0  0  0  0  0  0  0  0  0  0
   51.4487  161.2884   32.1887 H   0  0  0  0  0  0  0  0  0  0  0  0
   50.4717  161.8636   30.7519 H   0  0  0  0  0  0  0  0  0  0  0  0
   48.8019  160.0647   32.0495 H   0  0  0  0  0  0  0  0  0  0  0  0
   48.6482  161.1309   34.3797 H   0  0  0  0  0  0  0  0  0  0  0  0
   49.9719  159.9491   34.1007 H   0  0  0  0  0  0  0  0  0  0  0  0
   50.3254  161.7102   34.1007 H   0  0  0  0  0  0  0  0  0  0  0  0
   48.0915  162.6704   32.9456 H   0  0  0  0  0  0  0  0  0  0  0  0
   49.0083  162.9381   31.4243 H   0  0  0  0  0  0  0  0  0  0  0  0
   47.5583  161.8779   31.4243 H   0  0  0  0  0  0  0  0  0  0  0  0
  1  2  1  0
  2  3  1  0
  3  4  2  0
  4  5  1  0
  5  6  1  0
  6  7  1  0
  7  8  1  0
  8  9  2  0
  9 10  1  0
 10 11  2  0
 11 12  1  0
 12 13  1  0
 12 14  2  0
 14 15  1  0
 15 16  2  0
 15 17  1  0
 17 18  1  0
  5 19  2  0
 19 20  1  0
 20 21  2  0
 21 22  1  0
 22 23  1  0
 23 24  1  0
 23 25  1  0
 21  3  1  0
 17  6  2  0
 14  8  1  0
  1 26  1  0
  1 27  1  0
  1 28  1  0
  2 29  1  0
  2 30  1  0
  4 31  1  0
  9 32  1  0
 10 33  1  0
 11 34  1  0
 13 35  1  0
 18 36  1  0
 19 37  1  0
 20 38  1  0
 22 39  1  0
 22 40  1  0
 23 41  1  0
 24 42  1  0
 24 43  1  0
 24 44  1  0
 25 45  1  0
 25 46  1  0
 25 47  1  0
M  END
>  <meeko>  (1) 
{"is_sidechain": [false], "free_energy": -11.199, "intermolecular_energy": -14.472, "internal_energy": 0.581}

$$$$
cand_049_out
     RDKit          3D

 47 49  0  0  0  0  0  0  0  0999 V2000
   51.5840  160.7860   31.6960 C   0  0  0  0  0  0  0  0  0  0  0  0
   51.8200  160.2870   30.2760 C   0  0  0  0  0  0  0  0  0  0  0  0
   51.2120  158.9200   30.0520 C   0  0  0  0  0  0  0  0  0  0  0  0
   51.9050  158.0220   29.2140 C   0  0  0  0  0  0  0  0  0  0  0  0
   51.4420  156.7190   28.9780 C   0  0  0  0  0  0  0  0  0  0  0  0
   52.1900  155.8250   28.0680 C   0  0  0  0  0  0  0  0  0  0  0  0
   52.7660  156.5020   26.9990 O   0  0  0  0  0  0  0  0  0  0  0  0
   53.4890  155.7920   26.0760 C   0  0  0  0  0  0  0  0  0  0  0  0
   54.0380  156.5100   25.0130 C   0  0  0  0  0  0  0  0  0  0  0  0
   54.7880  155.8480   24.0380 C   0  0  0  0  0  0  0  0  0  0  0  0
   54.9900  154.4690   24.1280 C   0  0  0  0  0  0  0  0  0  0  0  0
   54.4420  153.7550   25.1900 C   0  0  0  0  0  0  0  0  0  0  0  0
   54.6790  152.4090   25.2170 O   0  0  0  0  0  0  0  0  0  0  0  0
   53.6910  154.4180   26.1640 C   0  0  0  0  0  0  0  0  0  0  0  0
   53.0970  153.7060   27.2970 C   0  0  0  0  0  0  0  0  0  0  0  0
   53.2370  152.4940   27.4490 O   0  0  0  0  0  0  0  0  0  0  0  0
   52.3130  154.5000   28.2710 C   0  0  0  0  0  0  0  0  0  0  0  0
   51.7680  153.8180   29.3440 O   0  0  0  0  0  0  0  0  0  0  0  0
   50.2530  156.3180   29.5910 C   0  0  0  0  0  0  0  0  0  0  0  0
   49.5550  157.1930   30.4280 C   0  0  0  0  0  0  0  0  0  0  0  0
   50.0180  158.4970   30.6700 C   0  0  0  0  0  0  0  0  0  0  0  0
   49.2010  159.3900   31.5820 C   0  0  0  0  0  0  0  0  0  0  0  0
   48.0020  160.0650   30.8850 C   0  0  0  0  0  0  0  0  0  0  0  0
   46.6820  159.8020   31.6150 C   0  0  0  0  0  0  0  0  0  0  0  0
   48.2430  161.5750   30.7910 C   0  0  0  0  0  0  0  0  0  0  0  0
   51.9405  160.0323   32.4135 H   0  0  0  0  0  0  0  0  0  0  0  0
   52.1325  161.7270   31.8499 H   0  0  0  0  0  0  0  0  0  0  0  0
   50.5086  160.9590   31.8499 H   0  0  0  0  0  0  0  0  0  0  0  0
   51.3675  160.9980   29.5691 H   0  0  0  0  0  0  0  0  0  0  0  0
   52.9057  160.2082   30.1175 H   0  0  0  0  0  0  0  0  0  0  0  0
   52.8362  158.3531   28.7311 H   0  0  0  0  0  0  0  0  0  0  0  0
   53.8804  157.5964   24.9428 H   0  0  0  0  0  0  0  0  0  0  0  0
   55.2197  156.4132   23.1988 H   0  0  0  0  0  0  0  0  0  0  0  0
   55.5813  153.9478   23.3608 H   0  0  0  0  0  0  0  0  0  0  0  0
   55.2250  152.0420   25.8850 H   0  0  0  0  0  0  0  0  0  0  0  0
   52.0830  153.9820   30.2120 H   0  0  0  0  0  0  0  0  0  0  0  0
   49.8626  155.3050   29.4136 H   0  0  0  0  0  0  0  0  0  0  0  0
   48.6246  156.8538   30.9068 H   0  0  0  0  0  0  0  0  0  0  0  0
   48.8194  158.7794   32.4136 H   0  0  0  0  0  0  0  0  0  0  0  0
   49.8683  160.1959   31.9214 H   0  0  0  0  0  0  0  0  0  0  0  0
   47.9178  159.6285   29.8788 H   0  0  0  0  0  0  0  0  0  0  0  0
   46.8508  159.8356   32.7014 H   0  0  0  0  0  0  0  0  0  0  0  0
   45.9479  160.5715   31.3340 H   0  0  0  0  0  0  0  0  0  0  0  0
   46.2989  158.8099   31.3340 H   0  0  0  0  0  0  0  0  0  0  0  0
   48.3107  161.9992   31.8036 H   0  0  0  0  0  0  0  0  0  0  0  0
   49.1826  161.7634   30.2509 H   0  0  0  0  0  0  0  0  0  0  0  0
   47.4087  162.0465   30.2509 H   0  0  0  0  0  0  0  0  0  0  0  0
  1  2  1  0
  2  3  1  0
  3  4  2  0
  4  5  1  0
  5  6  1  0
  6  7  1  0
  7  8  1  0
  8  9  2  0
  9 10  1  0
 10 11  2  0
 11 12  1  0
 12 13  1  0
 12 14  2  0
 14 15  1  0
 15 16  2  0
 15 17  1  0
 17 18  1  0
  5 19  2  0
 19 20  1  0
 20 21  2  0
 21 22  1  0
 22 23  1  0
 23 24  1  0
 23 25  1  0
 21  3  1  0
 17  6  2  0
 14  8  1  0
  1 26  1  0
  1 27  1  0
  1 28  1  0
  2 29  1  0
  2 30  1  0
  4 31  1  0
  9 32  1  0
 10 33  1  0
 11 34  1  0
 13 35  1  0
 18 36  1  0
 19 37  1  0
 20 38  1  0
 22 39  1  0
 22 40  1  0
 23 41  1  0
 24 42  1  0
 24 43  1  0
 24 44  1  0
 25 45  1  0
 25 46  1  0
 25 47  1  0
M  END
>  <meeko>  (2) 
{"is_sidechain": [false], "free_energy": -11.139, "intermolecular_energy": -14.115, "internal_energy": 0.302}

$$$$
cand_049_out
     RDKit          3D

 47 49  0  0  0  0  0  0  0  0999 V2000
   54.2570  156.2560   24.8250 C   0  0  0  0  0  0  0  0  0  0  0  0
   53.1470  155.2210   24.9500 C   0  0  0  0  0  0  0  0  0  0  0  0
   52.7340  155.0100   26.3900 C   0  0  0  0  0  0  0  0  0  0  0  0
   52.3410  156.1420   27.1340 C   0  0  0  0  0  0  0  0  0  0  0  0
   51.9040  156.0420   28.4630 C   0  0  0  0  0  0  0  0  0  0  0  0
   51.5320  157.2640   29.2090 C   0  0  0  0  0  0  0  0  0  0  0  0
   50.2170  157.2400   29.6620 O   0  0  0  0  0  0  0  0  0  0  0  0
   49.7410  158.3130   30.3710 C   0  0  0  0  0  0  0  0  0  0  0  0
   48.4120  158.2530   30.7930 C   0  0  0  0  0  0  0  0  0  0  0  0
   47.8640  159.3110   31.5210 C   0  0  0  0  0  0  0  0  0  0  0  0
   48.6450  160.4280   31.8280 C   0  0  0  0  0  0  0  0  0  0  0  0
   49.9700  160.4850   31.4050 C   0  0  0  0  0  0  0  0  0  0  0  0
   50.6770  161.6070   31.7400 O   0  0  0  0  0  0  0  0  0  0  0  0
   50.5170  159.4260   30.6760 C   0  0  0  0  0  0  0  0  0  0  0  0
   51.9060  159.4460   30.2120 C   0  0  0  0  0  0  0  0  0  0  0  0
   52.6570  160.3900   30.4490 O   0  0  0  0  0  0  0  0  0  0  0  0
   52.3870  158.2770   29.4410 C   0  0  0  0  0  0  0  0  0  0  0  0
   53.7050  158.3010   29.0200 O   0  0  0  0  0  0  0  0  0  0  0  0
   51.8700  154.7780   29.0550 C   0  0  0  0  0  0  0  0  0  0  0  0
   52.2490  153.6440   28.3310 C   0  0  0  0  0  0  0  0  0  0  0  0
   52.6840  153.7400   26.9990 C   0  0  0  0  0  0  0  0  0  0  0  0
   53.0890  152.4670   26.2840 C   0  0  0  0  0  0  0  0  0  0  0  0
   54.2630  152.6480   25.2990 C   0  0  0  0  0  0  0  0  0  0  0  0
   55.6140  152.3190   25.9390 C   0  0  0  0  0  0  0  0  0  0  0  0
   54.0470  151.7590   24.0710 C   0  0  0  0  0  0  0  0  0  0  0  0
   54.5865  156.5633   25.8285 H   0  0  0  0  0  0  0  0  0  0  0  0
   55.1056  155.8193   24.2781 H   0  0  0  0  0  0  0  0  0  0  0  0
   53.8806  157.1331   24.2781 H   0  0  0  0  0  0  0  0  0  0  0  0
   52.2738  155.5645   24.3760 H   0  0  0  0  0  0  0  0  0  0  0  0
   53.5260  154.2649   24.5598 H   0  0  0  0  0  0  0  0  0  0  0  0
   52.3783  157.1328   26.6577 H   0  0  0  0  0  0  0  0  0  0  0  0
   47.7970  157.3733   30.5524 H   0  0  0  0  0  0  0  0  0  0  0  0
   46.8163  159.2650   31.8531 H   0  0  0  0  0  0  0  0  0  0  0  0
   48.2137  161.2608   32.4029 H   0  0  0  0  0  0  0  0  0  0  0  0
   51.6050  161.5560   31.8650 H   0  0  0  0  0  0  0  0  0  0  0  0
   54.3880  158.4930   29.6320 H   0  0  0  0  0  0  0  0  0  0  0  0
   51.5422  154.6737   30.0998 H   0  0  0  0  0  0  0  0  0  0  0  0
   52.2057  152.6567   28.8141 H   0  0  0  0  0  0  0  0  0  0  0  0
   53.3829  151.7240   27.0400 H   0  0  0  0  0  0  0  0  0  0  0  0
   52.2211  152.1453   25.6897 H   0  0  0  0  0  0  0  0  0  0  0  0
   54.2853  153.7074   25.0036 H   0  0  0  0  0  0  0  0  0  0  0  0
   55.5163  152.3428   27.0344 H   0  0  0  0  0  0  0  0  0  0  0  0
   55.9358  151.3163   25.6213 H   0  0  0  0  0  0  0  0  0  0  0  0
   56.3608  153.0615   25.6213 H   0  0  0  0  0  0  0  0  0  0  0  0
   53.7989  150.7380   24.3966 H   0  0  0  0  0  0  0  0  0  0  0  0
   53.2207  152.1623   23.4672 H   0  0  0  0  0  0  0  0  0  0  0  0
   54.9662  151.7382   23.4672 H   0  0  0  0  0  0  0  0  0  0  0  0
  1  2  1  0
  2  3  1  0
  3  4  2  0
  4  5  1  0
  5  6  1  0
  6  7  1  0
  7  8  1  0
  8  9  2  0
  9 10  1  0
 10 11  2  0
 11 12  1  0
 12 13  1  0
 12 14  2  0
 14 15  1  0
 15 16  2  0
 15 17  1  0
 17 18  1  0
  5 19  2  0
 19 20  1  0
 20 21  2  0
 21 22  1  0
 22 23  1  0
 23 24  1  0
 23 25  1  0
 21  3  1  0
 17  6  2  0
 14  8  1  0
  1 26  1  0
  1 27  1  0
  1 28  1  0
  2 29  1  0
  2 30  1  0
  4 31  1  0
  9 32  1  0
 10 33  1  0
 11 34  1  0
 13 35  1  0
 18 36  1  0
 19 37  1  0
 20 38  1  0
 22 39  1  0
 22 40  1  0
 23 41  1  0
 24 42  1  0
 24 43  1  0
 24 44  1  0
 25 45  1  0
 25 46  1  0
 25 47  1  0
M  END
>  <meeko>  (3) 
{"is_sidechain": [false], "free_energy": -11.058, "intermolecular_energy": -13.596, "internal_energy": -0.113}

$$$$
cand_049_out
     RDKit          3D

 47 49  0  0  0  0  0  0  0  0999 V2000
   51.5820  152.6250   27.8620 C   0  0  0  0  0  0  0  0  0  0  0  0
   51.9550  153.5720   28.9950 C   0  0  0  0  0  0  0  0  0  0  0  0
   52.1600  154.9870   28.5000 C   0  0  0  0  0  0  0  0  0  0  0  0
   51.6670  156.0410   29.2970 C   0  0  0  0  0  0  0  0  0  0  0  0
   51.8440  157.3860   28.9420 C   0  0  0  0  0  0  0  0  0  0  0  0
   51.2810  158.4540   29.7970 C   0  0  0  0  0  0  0  0  0  0  0  0
   49.9490  158.2330   30.1300 O   0  0  0  0  0  0  0  0  0  0  0  0
   49.3020  159.1470   30.9200 C   0  0  0  0  0  0  0  0  0  0  0  0
   47.9630  158.8930   31.2170 C   0  0  0  0  0  0  0  0  0  0  0  0
   47.2450  159.7830   32.0190 C   0  0  0  0  0  0  0  0  0  0  0  0
   47.8670  160.9270   32.5240 C   0  0  0  0  0  0  0  0  0  0  0  0
   49.2040  161.1790   32.2270 C   0  0  0  0  0  0  0  0  0  0  0  0
   49.7510  162.3160   32.7540 O   0  0  0  0  0  0  0  0  0  0  0  0
   49.9210  160.2870   31.4240 C   0  0  0  0  0  0  0  0  0  0  0  0
   51.3270  160.5140   31.0860 C   0  0  0  0  0  0  0  0  0  0  0  0
   51.9450  161.4930   31.4990 O   0  0  0  0  0  0  0  0  0  0  0  0
   51.9940  159.5130   30.2220 C   0  0  0  0  0  0  0  0  0  0  0  0
   53.3270  159.7300   29.9220 O   0  0  0  0  0  0  0  0  0  0  0  0
   52.5230  157.6740   27.7570 C   0  0  0  0  0  0  0  0  0  0  0  0
   53.0240  156.6440   26.9570 C   0  0  0  0  0  0  0  0  0  0  0  0
   52.8520  155.2950   27.3110 C   0  0  0  0  0  0  0  0  0  0  0  0
   53.4150  154.2340   26.3870 C   0  0  0  0  0  0  0  0  0  0  0  0
   53.5630  154.6940   24.9220 C   0  0  0  0  0  0  0  0  0  0  0  0
   54.7760  155.6060   24.7200 C   0  0  0  0  0  0  0  0  0  0  0  0
   53.6820  153.4720   24.0070 C   0  0  0  0  0  0  0  0  0  0  0  0
   51.2095  151.6792   28.2823 H   0  0  0  0  0  0  0  0  0  0  0  0
   50.7979  153.0851   27.2427 H   0  0  0  0  0  0  0  0  0  0  0  0
   52.4692  152.4268   27.2427 H   0  0  0  0  0  0  0  0  0  0  0  0
   51.1472  153.5695   29.7417 H   0  0  0  0  0  0  0  0  0  0  0  0
   52.9010  153.2232   29.4348 H   0  0  0  0  0  0  0  0  0  0  0  0
   51.1274  155.8008   30.2250 H   0  0  0  0  0  0  0  0  0  0  0  0
   47.4727  157.9920   30.8197 H   0  0  0  0  0  0  0  0  0  0  0  0
   46.1890  159.5828   32.2530 H   0  0  0  0  0  0  0  0  0  0  0  0
   47.3015  161.6280   33.1555 H   0  0  0  0  0  0  0  0  0  0  0  0
   50.3460  162.2580   33.4760 H   0  0  0  0  0  0  0  0  0  0  0  0
   53.8480  160.2790   30.4750 H   0  0  0  0  0  0  0  0  0  0  0  0
   52.6649  158.7208   27.4504 H   0  0  0  0  0  0  0  0  0  0  0  0
   53.5638  156.8940   26.0317 H   0  0  0  0  0  0  0  0  0  0  0  0
   54.4077  153.9416   26.7599 H   0  0  0  0  0  0  0  0  0  0  0  0
   52.6998  153.3982   26.3880 H   0  0  0  0  0  0  0  0  0  0  0  0
   52.6646  155.2750   24.6665 H   0  0  0  0  0  0  0  0  0  0  0  0
   55.1759  155.9067   25.6996 H   0  0  0  0  0  0  0  0  0  0  0  0
   55.5516  155.0654   24.1576 H   0  0  0  0  0  0  0  0  0  0  0  0
   54.4721  156.5012   24.1576 H   0  0  0  0  0  0  0  0  0  0  0  0
   53.7706  152.5626   24.6195 H   0  0  0  0  0  0  0  0  0  0  0  0
   52.7865  153.4007   23.3721 H   0  0  0  0  0  0  0  0  0  0  0  0
   54.5744  153.5748   23.3721 H   0  0  0  0  0  0  0  0  0  0  0  0
  1  2  1  0
  2  3  1  0
  3  4  2  0
  4  5  1  0
  5  6  1  0
  6  7  1  0
  7  8  1  0
  8  9  2  0
  9 10  1  0
 10 11  2  0
 11 12  1  0
 12 13  1  0
 12 14  2  0
 14 15  1  0
 15 16  2  0
 15 17  1  0
 17 18  1  0
  5 19  2  0
 19 20  1  0
 20 21  2  0
 21 22  1  0
 22 23  1  0
 23 24  1  0
 23 25  1  0
 21  3  1  0
 17  6  2  0
 14  8  1  0
  1 26  1  0
  1 27  1  0
  1 28  1  0
  2 29  1  0
  2 30  1  0
  4 31  1  0
  9 32  1  0
 10 33  1  0
 11 34  1  0
 13 35  1  0
 18 36  1  0
 19 37  1  0
 20 38  1  0
 22 39  1  0
 22 40  1  0
 23 41  1  0
 24 42  1  0
 24 43  1  0
 24 44  1  0
 25 45  1  0
 25 46  1  0
 25 47  1  0
M  END
>  <meeko>  (4) 
{"is_sidechain": [false], "free_energy": -10.568, "intermolecular_energy": -13.666, "internal_energy": 0.59}

$$$$
cand_049_out
     RDKit          3D

 47 49  0  0  0  0  0  0  0  0999 V2000
   54.0630  156.6240   25.1420 C   0  0  0  0  0  0  0  0  0  0  0  0
   53.2960  155.3100   25.1970 C   0  0  0  0  0  0  0  0  0  0  0  0
   52.8080  155.0010   26.5950 C   0  0  0  0  0  0  0  0  0  0  0  0
   52.1640  156.0320   27.3100 C   0  0  0  0  0  0  0  0  0  0  0  0
   51.6420  155.8310   28.5960 C   0  0  0  0  0  0  0  0  0  0  0  0
   51.0020  156.9540   29.3160 C   0  0  0  0  0  0  0  0  0  0  0  0
   51.8770  158.0060   29.5600 O   0  0  0  0  0  0  0  0  0  0  0  0
   51.4130  159.1140   30.2210 C   0  0  0  0  0  0  0  0  0  0  0  0
   52.3280  160.1400   30.4580 C   0  0  0  0  0  0  0  0  0  0  0  0
   51.9210  161.2980   31.1250 C   0  0  0  0  0  0  0  0  0  0  0  0
   50.5990  161.4290   31.5540 C   0  0  0  0  0  0  0  0  0  0  0  0
   49.6870  160.4040   31.3170 C   0  0  0  0  0  0  0  0  0  0  0  0
   48.4090  160.5980   31.7630 O   0  0  0  0  0  0  0  0  0  0  0  0
   50.0960  159.2460   30.6500 C   0  0  0  0  0  0  0  0  0  0  0  0
   49.1700  158.1440   30.3810 C   0  0  0  0  0  0  0  0  0  0  0  0
   47.9900  158.1890   30.7210 O   0  0  0  0  0  0  0  0  0  0  0  0
   49.7050  156.9580   29.6730 C   0  0  0  0  0  0  0  0  0  0  0  0
   48.8170  155.9290   29.4120 O   0  0  0  0  0  0  0  0  0  0  0  0
   51.7800  154.5680   29.1760 C   0  0  0  0  0  0  0  0  0  0  0  0
   52.4100  153.5320   28.4810 C   0  0  0  0  0  0  0  0  0  0  0  0
   52.9300  153.7290   27.1910 C   0  0  0  0  0  0  0  0  0  0  0  0
   53.6090  152.5610   26.5050 C   0  0  0  0  0  0  0  0  0  0  0  0
   54.4650  152.9610   25.2860 C   0  0  0  0  0  0  0  0  0  0  0  0
   55.9600  152.7430   25.5290 C   0  0  0  0  0  0  0  0  0  0  0  0
   54.0220  152.1580   24.0590 C   0  0  0  0  0  0  0  0  0  0  0  0
   54.2666  156.9728   26.1652 H   0  0  0  0  0  0  0  0  0  0  0  0
   55.0139  156.4715   24.6105 H   0  0  0  0  0  0  0  0  0  0  0  0
   53.4626  157.3770   24.6105 H   0  0  0  0  0  0  0  0  0  0  0  0
   52.4286  155.3759   24.5238 H   0  0  0  0  0  0  0  0  0  0  0  0
   53.9773  154.5038   24.8873 H   0  0  0  0  0  0  0  0  0  0  0  0
   52.0682  157.0242   26.8448 H   0  0  0  0  0  0  0  0  0  0  0  0
   53.3697  160.0372   30.1198 H   0  0  0  0  0  0  0  0  0  0  0  0
   52.6425  162.1070   31.3123 H   0  0  0  0  0  0  0  0  0  0  0  0
   50.2782  162.3410   32.0787 H   0  0  0  0  0  0  0  0  0  0  0  0
   48.1600  161.4260   32.1260 H   0  0  0  0  0  0  0  0  0  0  0  0
   47.9520  156.1230   29.1080 H   0  0  0  0  0  0  0  0  0  0  0  0
   51.3895  154.3871   30.1883 H   0  0  0  0  0  0  0  0  0  0  0  0
   52.5005  152.5428   28.9535 H   0  0  0  0  0  0  0  0  0  0  0  0
   54.2611  152.0616   27.2367 H   0  0  0  0  0  0  0  0  0  0  0  0
   52.8104  151.9034   26.1312 H   0  0  0  0  0  0  0  0  0  0  0  0
   54.3108  154.0365   25.1139 H   0  0  0  0  0  0  0  0  0  0  0  0
   56.1553  152.7145   26.6112 H   0  0  0  0  0  0  0  0  0  0  0  0
   56.2701  151.7901   25.0753 H   0  0  0  0  0  0  0  0  0  0  0  0
   56.5293  153.5676   25.0753 H   0  0  0  0  0  0  0  0  0  0  0  0
   53.5147  151.2384   24.3862 H   0  0  0  0  0  0  0  0  0  0  0  0
   53.3302  152.7633   23.4549 H   0  0  0  0  0  0  0  0  0  0  0  0
   54.9030  151.8956   23.4549 H   0  0  0  0  0  0  0  0  0  0  0  0
  1  2  1  0
  2  3  1  0
  3  4  2  0
  4  5  1  0
  5  6  1  0
  6  7  1  0
  7  8  1  0
  8  9  2  0
  9 10  1  0
 10 11  2  0
 11 12  1  0
 12 13  1  0
 12 14  2  0
 14 15  1  0
 15 16  2  0
 15 17  1  0
 17 18  1  0
  5 19  2  0
 19 20  1  0
 20 21  2  0
 21 22  1  0
 22 23  1  0
 23 24  1  0
 23 25  1  0
 21  3  1  0
 17  6  2  0
 14  8  1  0
  1 26  1  0
  1 27  1  0
  1 28  1  0
  2 29  1  0
  2 30  1  0
  4 31  1  0
  9 32  1  0
 10 33  1  0
 11 34  1  0
 13 35  1  0
 18 36  1  0
 19 37  1  0
 20 38  1  0
 22 39  1  0
 22 40  1  0
 23 41  1  0
 24 42  1  0
 24 43  1  0
 24 44  1  0
 25 45  1  0
 25 46  1  0
 25 47  1  0
M  END
>  <meeko>  (5) 
{"is_sidechain": [false], "free_energy": -9.333, "intermolecular_energy": -11.785, "internal_energy": 0.305}

$$$$
cand_049_out
     RDKit          3D

 47 49  0  0  0  0  0  0  0  0999 V2000
   51.5460  152.3560   27.3960 C   0  0  0  0  0  0  0  0  0  0  0  0
   52.0470  153.1630   28.5860 C   0  0  0  0  0  0  0  0  0  0  0  0
   52.1990  154.6290   28.2480 C   0  0  0  0  0  0  0  0  0  0  0  0
   51.5200  155.5650   29.0560 C   0  0  0  0  0  0  0  0  0  0  0  0
   51.6310  156.9470   28.8460 C   0  0  0  0  0  0  0  0  0  0  0  0
   50.8750  157.8850   29.7030 C   0  0  0  0  0  0  0  0  0  0  0  0
   51.6330  158.9790   30.1060 O   0  0  0  0  0  0  0  0  0  0  0  0
   51.0530  159.9300   30.9060 C   0  0  0  0  0  0  0  0  0  0  0  0
   51.8540  161.0020   31.2980 C   0  0  0  0  0  0  0  0  0  0  0  0
   51.3250  162.0070   32.1110 C   0  0  0  0  0  0  0  0  0  0  0  0
   49.9960  161.9390   32.5320 C   0  0  0  0  0  0  0  0  0  0  0  0
   49.1980  160.8670   32.1390 C   0  0  0  0  0  0  0  0  0  0  0  0
   47.9050  160.8630   32.5860 O   0  0  0  0  0  0  0  0  0  0  0  0
   49.7280  159.8620   31.3260 C   0  0  0  0  0  0  0  0  0  0  0  0
   48.9240  158.7190   30.8900 C   0  0  0  0  0  0  0  0  0  0  0  0
   47.7450  158.5920   31.2130 O   0  0  0  0  0  0  0  0  0  0  0  0
   49.5830  157.7040   30.0350 C   0  0  0  0  0  0  0  0  0  0  0  0
   48.8100  156.6360   29.6190 O   0  0  0  0  0  0  0  0  0  0  0  0
   52.4350  157.3930   27.7950 C   0  0  0  0  0  0  0  0  0  0  0  0
   53.1200  156.4820   26.9870 C   0  0  0  0  0  0  0  0  0  0  0  0
   53.0140  155.0970   27.1970 C   0  0  0  0  0  0  0  0  0  0  0  0
   53.7780  154.1710   26.2730 C   0  0  0  0  0  0  0  0  0  0  0  0
   53.7570  154.6070   24.7930 C   0  0  0  0  0  0  0  0  0  0  0  0
   54.9250  155.5310   24.4430 C   0  0  0  0  0  0  0  0  0  0  0  0
   53.7940  153.3700   23.8910 C   0  0  0  0  0  0  0  0  0  0  0  0
   50.9978  151.4730   27.7564 H   0  0  0  0  0  0  0  0  0  0  0  0
   50.8761  152.9797   26.7859 H   0  0  0  0  0  0  0  0  0  0  0  0
   52.4022  152.0323   26.7859 H   0  0  0  0  0  0  0  0  0  0  0  0
   51.3287  153.0611   29.4128 H   0  0  0  0  0  0  0  0  0  0  0  0
   53.0358  152.7739   28.8703 H   0  0  0  0  0  0  0  0  0  0  0  0
   50.8841  155.1996   29.8758 H   0  0  0  0  0  0  0  0  0  0  0  0
   52.9017  161.0561   30.9672 H   0  0  0  0  0  0  0  0  0  0  0  0
   51.9565  162.8531   32.4198 H   0  0  0  0  0  0  0  0  0  0  0  0
   49.5796  162.7302   33.1728 H   0  0  0  0  0  0  0  0  0  0  0  0
   47.2750  161.4420   32.2030 H   0  0  0  0  0  0  0  0  0  0  0  0
   48.1490  156.2870   30.1850 H   0  0  0  0  0  0  0  0  0  0  0  0
   52.5299  158.4717   27.6014 H   0  0  0  0  0  0  0  0  0  0  0  0
   53.7547  156.8565   26.1704 H   0  0  0  0  0  0  0  0  0  0  0  0
   54.8250  154.1339   26.6082 H   0  0  0  0  0  0  0  0  0  0  0  0
   53.2831  153.1900   26.3237 H   0  0  0  0  0  0  0  0  0  0  0  0
   52.8272  155.1714   24.6289 H   0  0  0  0  0  0  0  0  0  0  0  0
   55.3910  155.8997   25.3687 H   0  0  0  0  0  0  0  0  0  0  0  0
   55.6691  154.9745   23.8543 H   0  0  0  0  0  0  0  0  0  0  0  0
   54.5547  156.3832   23.8543 H   0  0  0  0  0  0  0  0  0  0  0  0
   53.8211  152.4632   24.5131 H   0  0  0  0  0  0  0  0  0  0  0  0
   52.8960  153.3523   23.2560 H   0  0  0  0  0  0  0  0  0  0  0  0
   54.6915  153.4060   23.2560 H   0  0  0  0  0  0  0  0  0  0  0  0
  1  2  1  0
  2  3  1  0
  3  4  2  0
  4  5  1  0
  5  6  1  0
  6  7  1  0
  7  8  1  0
  8  9  2  0
  9 10  1  0
 10 11  2  0
 11 12  1  0
 12 13  1  0
 12 14  2  0
 14 15  1  0
 15 16  2  0
 15 17  1  0
 17 18  1  0
  5 19  2  0
 19 20  1  0
 20 21  2  0
 21 22  1  0
 22 23  1  0
 23 24  1  0
 23 25  1  0
 21  3  1  0
 17  6  2  0
 14  8  1  0
  1 26  1  0
  1 27  1  0
  1 28  1  0
  2 29  1  0
  2 30  1  0
  4 31  1  0
  9 32  1  0
 10 33  1  0
 11 34  1  0
 13 35  1  0
 18 36  1  0
 19 37  1  0
 20 38  1  0
 22 39  1  0
 22 40  1  0
 23 41  1  0
 24 42  1  0
 24 43  1  0
 24 44  1  0
 25 45  1  0
 25 46  1  0
 25 47  1  0
M  END
>  <meeko>  (6) 
{"is_sidechain": [false], "free_energy": -9.281, "intermolecular_energy": -11.531, "internal_energy": 0.119}

$$$$
