cand_038_out
     RDKit          3D

 47 49  0  0  0  0  0  0  0  0999 V2000
   51.9140  161.1330   31.8000 C   0  0  0  0  0  0  0  0  0  0  0  0
   51.4760  160.8270   30.3710 C   0  0  0  0  0  0  0  0  0  0  0  0
   50.7630  159.4950   30.2580 C   0  0  0  0  0  0  0  0  0  0  0  0
   51.4960  158.5010   29.5540 C   0  0  0  0  0  0  0  0  0  0  0  0
   51.0190  157.2030   29.3560 C   0  0  0  0  0  0  0  0  0  0  0  0
   51.7840  156.1880   28.6040 C   0  0  0  0  0  0  0  0  0  0  0  0
   52.2980  156.6760   27.4070 O   0  0  0  0  0  0  0  0  0  0  0  0
   53.0310  155.8370   26.6090 C   0  0  0  0  0  0  0  0  0  0  0  0
   53.5400  156.3730   25.4240 C   0  0  0  0  0  0  0  0  0  0  0  0
   54.2940  155.5720   24.5640 C   0  0  0  0  0  0  0  0  0  0  0  0
   54.5380  154.2350   24.8870 C   0  0  0  0  0  0  0  0  0  0  0  0
   54.0290  153.7020   26.0690 C   0  0  0  0  0  0  0  0  0  0  0  0
   54.3050  152.3870   26.3230 O   0  0  0  0  0  0  0  0  0  0  0  0
   53.2750  154.5050   26.9290 C   0  0  0  0  0  0  0  0  0  0  0  0
   52.7220  153.9860   28.1810 C   0  0  0  0  0  0  0  0  0  0  0  0
   52.8870  152.8190   28.5310 O   0  0  0  0  0  0  0  0  0  0  0  0
   51.9440  154.9200   29.0270 C   0  0  0  0  0  0  0  0  0  0  0  0
   51.4150  154.4140   30.2000 O   0  0  0  0  0  0  0  0  0  0  0  0
   49.7600  156.9010   29.8600 C   0  0  0  0  0  0  0  0  0  0  0  0
   49.0160  157.8640   30.5540 C   0  0  0  0  0  0  0  0  0  0  0  0
   49.4820  159.1820   30.7860 C   0  0  0  0  0  0  0  0  0  0  0  0
   48.5650  160.1720   31.5560 C   0  0  0  0  0  0  0  0  0  0  0  0
   47.0850  159.6970   31.6640 C   0  0  0  0  0  0  0  0  0  0  0  0
   49.0160  160.3700   33.0210 C   0  0  0  0  0  0  0  0  0  0  0  0
   48.5100  161.5230   30.8110 C   0  0  0  0  0  0  0  0  0  0  0  0
   51.2229  160.6502   32.5067 H   0  0  0  0  0  0  0  0  0  0  0  0
   52.9318  160.7484   31.9618 H   0  0  0  0  0  0  0  0  0  0  0  0
   51.9031  162.2210   31.9618 H   0  0  0  0  0  0  0  0  0  0  0  0
   50.7952  161.6219   30.0323 H   0  0  0  0  0  0  0  0  0  0  0  0
   52.3802  160.7774   29.7465 H   0  0  0  0  0  0  0  0  0  0  0  0
   52.4830  158.7658   29.1469 H   0  0  0  0  0  0  0  0  0  0  0  0
   53.3471  157.4253   25.1684 H   0  0  0  0  0  0  0  0  0  0  0  0
   54.6962  155.9942   23.6313 H   0  0  0  0  0  0  0  0  0  0  0  0
   55.1313  153.6040   24.2089 H   0  0  0  0  0  0  0  0  0  0  0  0
   54.9530  152.1590   26.9600 H   0  0  0  0  0  0  0  0  0  0  0  0
   50.9040  154.9670   30.7590 H   0  0  0  0  0  0  0  0  0  0  0  0
   49.3425  155.8941   29.7124 H   0  0  0  0  0  0  0  0  0  0  0  0
   48.0235  157.5839   30.9368 H   0  0  0  0  0  0  0  0  0  0  0  0
   46.8052  159.6072   32.7240 H   0  0  0  0  0  0  0  0  0  0  0  0
   46.4280  160.4294   31.1721 H   0  0  0  0  0  0  0  0  0  0  0  0
   46.9769  158.7191   31.1721 H   0  0  0  0  0  0  0  0  0  0  0  0
   48.2229  160.0218   33.6990 H   0  0  0  0  0  0  0  0  0  0  0  0
   49.9341  159.7922   33.2033 H   0  0  0  0  0  0  0  0  0  0  0  0
   49.2120  161.4369   33.2033 H   0  0  0  0  0  0  0  0  0  0  0  0
   48.4766  162.3439   31.5424 H   0  0  0  0  0  0  0  0  0  0  0  0
   49.4045  161.6304   30.1799 H   0  0  0  0  0  0  0  0  0  0  0  0
   47.6097  161.5573   30.1799 H   0  0  0  0  0  0  0  0  0  0  0  0
  1  2  1  0
  2  3  1  0
  3  4  2  0
  4  5  1  0
  5  6  1  0
  6  7  1  0
  7  8  1  0
  8  9  2  0
  9 10  1  0
 10 11  2  0
 11 12  1  0
 12 13  1  0
 12 14  2  0
 14 15  1  0
 15 16  2  0
 15 17  1  0
 17 18  1  0
  5 19  2  0
 19 20  1  0
 20 21  2  0
 21 22  1  0
 22 23  1  0
 22 24  1  0
 22 25  1  0
 21  3  1  0
 17  6  2  0
 14  8  1  0
  1 26  1  0
  1 27  1  0
  1 28  1  0
  2 29  1  0
  2 30  1  0
  4 31  1  0
  9 32  1  0
 10 33  1  0
 11 34  1  0
 13 35  1  0
 18 36  1  0
 19 37  1  0
 20 38  1  0
 23 39  1  0
 23 40  1  0
 23 41  1  0
 24 42  1  0
 24 43  1  0
 24 44  1  0
 25 45  1  0
 25 46  1  0
 25 47  1  0
M  END
>  <meeko>  (1) 
{"is_sidechain": [false], "free_energy": -11.421, "intermolecular_energy": -14.092, "internal_energy": 0.196}

$$$$
cand_038_out
     RDKit          3D

 47 49  0  0  0  0  0  0  0  0999 V2000
   47.2850  159.3990   30.6400 C   0  0  0  0  0  0  0  0  0  0  0  0
   48.3070  158.5360   31.3720 C   0  0  0  0  0  0  0  0  0  0  0  0
   49.7100  158.7150   30.8270 C   0  0  0  0  0  0  0  0  0  0  0  0
   50.1880  157.6070   30.0760 C   0  0  0  0  0  0  0  0  0  0  0  0
   51.4490  157.5820   29.4770 C   0  0  0  0  0  0  0  0  0  0  0  0
   51.9400  156.4130   28.7180 C   0  0  0  0  0  0  0  0  0  0  0  0
   52.4650  156.7560   27.4770 O   0  0  0  0  0  0  0  0  0  0  0  0
   52.9580  155.7660   26.6690 C   0  0  0  0  0  0  0  0  0  0  0  0
   53.4880  156.1560   25.4380 C   0  0  0  0  0  0  0  0  0  0  0  0
   54.0050  155.1970   24.5650 C   0  0  0  0  0  0  0  0  0  0  0  0
   53.9900  153.8460   24.9210 C   0  0  0  0  0  0  0  0  0  0  0  0
   53.4600  153.4580   26.1490 C   0  0  0  0  0  0  0  0  0  0  0  0
   53.4760  152.1200   26.4340 O   0  0  0  0  0  0  0  0  0  0  0  0
   52.9430  154.4200   27.0220 C   0  0  0  0  0  0  0  0  0  0  0  0
   52.3770  154.0550   28.3220 C   0  0  0  0  0  0  0  0  0  0  0  0
   52.3220  152.8880   28.7030 O   0  0  0  0  0  0  0  0  0  0  0  0
   51.8640  155.1500   29.1770 C   0  0  0  0  0  0  0  0  0  0  0  0
   51.3180  154.7920   30.3970 O   0  0  0  0  0  0  0  0  0  0  0  0
   52.2640  158.6950   29.6550 C   0  0  0  0  0  0  0  0  0  0  0  0
   51.8170  159.7980   30.3930 C   0  0  0  0  0  0  0  0  0  0  0  0
   50.5360  159.8580   30.9960 C   0  0  0  0  0  0  0  0  0  0  0  0
   50.1520  161.1280   31.8060 C   0  0  0  0  0  0  0  0  0  0  0  0
   48.9440  161.9080   31.2080 C   0  0  0  0  0  0  0  0  0  0  0  0
   49.7200  160.7910   33.2510 C   0  0  0  0  0  0  0  0  0  0  0  0
   51.3290  162.1270   31.8030 C   0  0  0  0  0  0  0  0  0  0  0  0
   46.6589  159.9277   31.3738 H   0  0  0  0  0  0  0  0  0  0  0  0
   47.8089  160.1321   30.0091 H   0  0  0  0  0  0  0  0  0  0  0  0
   46.6500  158.7597   30.0091 H   0  0  0  0  0  0  0  0  0  0  0  0
   48.3038  158.8113   32.4370 H   0  0  0  0  0  0  0  0  0  0  0  0
   48.0225  157.4833   31.2272 H   0  0  0  0  0  0  0  0  0  0  0  0
   49.5349  156.7293   29.9615 H   0  0  0  0  0  0  0  0  0  0  0  0
   53.4983  157.2191   25.1557 H   0  0  0  0  0  0  0  0  0  0  0  0
   54.4245  155.5053   23.5960 H   0  0  0  0  0  0  0  0  0  0  0  0
   54.3961  153.0902   24.2326 H   0  0  0  0  0  0  0  0  0  0  0  0
   52.7830  151.7410   26.9370 H   0  0  0  0  0  0  0  0  0  0  0  0
   50.7650  155.3930   30.8560 H   0  0  0  0  0  0  0  0  0  0  0  0
   53.2705  158.7090   29.2113 H   0  0  0  0  0  0  0  0  0  0  0  0
   52.4921  160.6585   30.5102 H   0  0  0  0  0  0  0  0  0  0  0  0
   48.3250  162.3077   32.0248 H   0  0  0  0  0  0  0  0  0  0  0  0
   49.3140  162.7382   30.5884 H   0  0  0  0  0  0  0  0  0  0  0  0
   48.3397  161.2291   30.5884 H   0  0  0  0  0  0  0  0  0  0  0  0
   50.3821  161.3075   33.9615 H   0  0  0  0  0  0  0  0  0  0  0  0
   48.6828  161.1210   33.4100 H   0  0  0  0  0  0  0  0  0  0  0  0
   49.7876  159.7047   33.4100 H   0  0  0  0  0  0  0  0  0  0  0  0
   51.6101  162.3656   32.8394 H   0  0  0  0  0  0  0  0  0  0  0  0
   52.1890  161.6789   31.2837 H   0  0  0  0  0  0  0  0  0  0  0  0
   51.0266  163.0484   31.2837 H   0  0  0  0  0  0  0  0  0  0  0  0
  1  2  1  0
  2  3  1  0
  3  4  2  0
  4  5  1  0
  5  6  1  0
  6  7  1  0
  7  8  1  0
  8  9  2  0
  9 10  1  0
 10 11  2  0
 11 12  1  0
 12 13  1  0
 12 14  2  0
 14 15  1  0
 15 16  2  0
 15 17  1  0
 17 18  1  0
  5 19  2  0
 19 20  1  0
 20 21  2  0
 21 22  1  0
 22 23  1  0
 22 24  1  0
 22 25  1  0
 21  3  1  0
 17  6  2  0
 14  8  1  0
  1 26  1  0
  1 27  1  0
  1 28  1  0
  2 29  1  0
  2 30  1  0
  4 31  1  0
  9 32  1  0
 10 33  1  0
 11 34  1  0
 13 35  1  0
 18 36  1  0
 19 37  1  0
 20 38  1  0
 23 39  1  0
 23 40  1  0
 23 41  1  0
 24 42  1  0
 24 43  1  0
 24 44  1  0
 25 45  1  0
 25 46  1  0
 25 47  1  0
M  END
>  <meeko>  (2) 
{"is_sidechain": [false], "free_energy": -11.218, "intermolecular_energy": -13.83, "internal_energy": 0.184}

$$$$
cand_038_out
     RDKit          3D

 47 49  0  0  0  0  0  0  0  0999 V2000
   52.9030  156.3940   24.9180 C   0  0  0  0  0  0  0  0  0  0  0  0
   53.6330  156.2340   26.2480 C   0  0  0  0  0  0  0  0  0  0  0  0
   52.6850  155.9560   27.3960 C   0  0  0  0  0  0  0  0  0  0  0  0
   52.3010  157.1130   28.1270 C   0  0  0  0  0  0  0  0  0  0  0  0
   51.4210  157.0700   29.2110 C   0  0  0  0  0  0  0  0  0  0  0  0
   51.0490  158.2790   29.9750 C   0  0  0  0  0  0  0  0  0  0  0  0
   49.7340  158.2500   30.4260 O   0  0  0  0  0  0  0  0  0  0  0  0
   49.2580  159.3120   31.1500 C   0  0  0  0  0  0  0  0  0  0  0  0
   47.9370  159.2340   31.5950 C   0  0  0  0  0  0  0  0  0  0  0  0
   47.3890  160.2830   32.3360 C   0  0  0  0  0  0  0  0  0  0  0  0
   48.1600  161.4090   32.6320 C   0  0  0  0  0  0  0  0  0  0  0  0
   49.4770  161.4850   32.1860 C   0  0  0  0  0  0  0  0  0  0  0  0
   50.1740  162.6170   32.5090 O   0  0  0  0  0  0  0  0  0  0  0  0
   50.0250  160.4350   31.4450 C   0  0  0  0  0  0  0  0  0  0  0  0
   51.4040  160.4740   30.9570 C   0  0  0  0  0  0  0  0  0  0  0  0
   52.1430  161.4330   31.1700 O   0  0  0  0  0  0  0  0  0  0  0  0
   51.8930  159.3060   30.1880 C   0  0  0  0  0  0  0  0  0  0  0  0
   53.1940  159.3600   29.7210 O   0  0  0  0  0  0  0  0  0  0  0  0
   50.9290  155.8250   29.5870 C   0  0  0  0  0  0  0  0  0  0  0  0
   51.2950  154.6690   28.8850 C   0  0  0  0  0  0  0  0  0  0  0  0
   52.1700  154.6860   27.7710 C   0  0  0  0  0  0  0  0  0  0  0  0
   52.5190  153.3390   27.0780 C   0  0  0  0  0  0  0  0  0  0  0  0
   51.9330  153.2070   25.6400 C   0  0  0  0  0  0  0  0  0  0  0  0
   54.0420  153.1530   26.8940 C   0  0  0  0  0  0  0  0  0  0  0  0
   51.9150  152.1650   27.8780 C   0  0  0  0  0  0  0  0  0  0  0  0
   51.8444  156.6260   25.1064 H   0  0  0  0  0  0  0  0  0  0  0  0
   53.3614  157.2130   24.3443 H   0  0  0  0  0  0  0  0  0  0  0  0
   52.9768  155.4583   24.3443 H   0  0  0  0  0  0  0  0  0  0  0  0
   54.3414  155.3967   26.1639 H   0  0  0  0  0  0  0  0  0  0  0  0
   54.1517  157.1801   26.4623 H   0  0  0  0  0  0  0  0  0  0  0  0
   52.7155  158.0863   27.8254 H   0  0  0  0  0  0  0  0  0  0  0  0
   47.3288  158.3475   31.3622 H   0  0  0  0  0  0  0  0  0  0  0  0
   46.3483  160.2223   32.6871 H   0  0  0  0  0  0  0  0  0  0  0  0
   47.7278  162.2346   33.2165 H   0  0  0  0  0  0  0  0  0  0  0  0
   49.8440  163.1980   33.1650 H   0  0  0  0  0  0  0  0  0  0  0  0
   53.4640  158.7970   29.0220 H   0  0  0  0  0  0  0  0  0  0  0  0
   50.2450  155.7468   30.4449 H   0  0  0  0  0  0  0  0  0  0  0  0
   50.8838  153.7033   29.2142 H   0  0  0  0  0  0  0  0  0  0  0  0
   50.8616  152.9656   25.7014 H   0  0  0  0  0  0  0  0  0  0  0  0
   52.0645  154.1573   25.1018 H   0  0  0  0  0  0  0  0  0  0  0  0
   52.4593  152.4049   25.1018 H   0  0  0  0  0  0  0  0  0  0  0  0
   54.5259  153.0939   27.8801 H   0  0  0  0  0  0  0  0  0  0  0  0
   54.2332  152.2248   26.3355 H   0  0  0  0  0  0  0  0  0  0  0  0
   54.4510  154.0079   26.3355 H   0  0  0  0  0  0  0  0  0  0  0  0
   52.0174  152.3641   28.9550 H   0  0  0  0  0  0  0  0  0  0  0  0
   50.8500  152.0581   27.6245 H   0  0  0  0  0  0  0  0  0  0  0  0
   52.4473  151.2363   27.6245 H   0  0  0  0  0  0  0  0  0  0  0  0
  1  2  1  0
  2  3  1  0
  3  4  2  0
  4  5  1  0
  5  6  1  0
  6  7  1  0
  7  8  1  0
  8  9  2  0
  9 10  1  0
 10 11  2  0
 11 12  1  0
 12 13  1  0
 12 14  2  0
 14 15  1  0
 15 16  2  0
 15 17  1  0
 17 18  1  0
  5 19  2  0
 19 20  1  0
 20 21  2  0
 21 22  1  0
 22 23  1  0
 22 24  1  0
 22 25  1  0
 21  3  1  0
 17  6  2  0
 14  8  1  0
  1 26  1  0
  1 27  1  0
  1 28  1  0
  2 29  1  0
  2 30  1  0
  4 31  1  0
  9 32  1  0
 10 33  1  0
 11 34  1  0
 13 35  1  0
 18 36  1  0
 19 37  1  0
 20 38  1  0
 23 39  1  0
 23 40  1  0
 23 41  1  0
 24 42  1  0
 24 43  1  0
 24 44  1  0
 25 45  1  0
 25 46  1  0
 25 47  1  0
M  END
>  <meeko>  (3) 
{"is_sidechain": [false], "free_energy": -9.86, "intermolecular_energy": -11.942, "internal_energy": -0.028}

$$$$
cand_038_out
     RDKit          3D

 47 49  0  0  0  0  0  0  0  0999 V2000
   54.8390  156.5460   24.9480 C   0  0  0  0  0  0  0  0  0  0  0  0
   53.3460  156.2370   24.9770 C   0  0  0  0  0  0  0  0  0  0  0  0
   52.8770  155.7880   26.3460 C   0  0  0  0  0  0  0  0  0  0  0  0
   52.4180  156.8440   27.1790 C   0  0  0  0  0  0  0  0  0  0  0  0
   51.9290  156.6350   28.4710 C   0  0  0  0  0  0  0  0  0  0  0  0
   51.4770  157.7470   29.3330 C   0  0  0  0  0  0  0  0  0  0  0  0
   50.1360  157.6440   29.6890 O   0  0  0  0  0  0  0  0  0  0  0  0
   49.5860  158.6110   30.4880 C   0  0  0  0  0  0  0  0  0  0  0  0
   48.2420  158.4600   30.8330 C   0  0  0  0  0  0  0  0  0  0  0  0
   47.6180  159.4110   31.6430 C   0  0  0  0  0  0  0  0  0  0  0  0
   48.3380  160.5130   32.1090 C   0  0  0  0  0  0  0  0  0  0  0  0
   49.6790  160.6630   31.7640 C   0  0  0  0  0  0  0  0  0  0  0  0
   50.3230  161.7660   32.2530 O   0  0  0  0  0  0  0  0  0  0  0  0
   50.3020  159.7100   30.9530 C   0  0  0  0  0  0  0  0  0  0  0  0
   51.7090  159.8290   30.5660 C   0  0  0  0  0  0  0  0  0  0  0  0
   52.4060  160.7740   30.9300 O   0  0  0  0  0  0  0  0  0  0  0  0
   52.2770  158.7620   29.7110 C   0  0  0  0  0  0  0  0  0  0  0  0
   53.6030  158.8910   29.3410 O   0  0  0  0  0  0  0  0  0  0  0  0
   51.9220  155.3300   28.9500 C   0  0  0  0  0  0  0  0  0  0  0  0
   52.3720  154.2720   28.1490 C   0  0  0  0  0  0  0  0  0  0  0  0
   52.8550  154.4520   26.8300 C   0  0  0  0  0  0  0  0  0  0  0  0
   53.3430  153.2060   26.0390 C   0  0  0  0  0  0  0  0  0  0  0  0
   53.3060  153.3940   24.4930 C   0  0  0  0  0  0  0  0  0  0  0  0
   54.8160  152.8560   26.3510 C   0  0  0  0  0  0  0  0  0  0  0  0
   52.4190  152.0050   26.3300 C   0  0  0  0  0  0  0  0  0  0  0  0
   55.2173  156.6243   25.9779 H   0  0  0  0  0  0  0  0  0  0  0  0
   55.3704  155.7388   24.4226 H   0  0  0  0  0  0  0  0  0  0  0  0
   55.0063  157.4978   24.4226 H   0  0  0  0  0  0  0  0  0  0  0  0
   52.7917  157.1438   24.6933 H   0  0  0  0  0  0  0  0  0  0  0  0
   53.1594  155.4141   24.2713 H   0  0  0  0  0  0  0  0  0  0  0  0
   52.4491  157.8721   26.7890 H   0  0  0  0  0  0  0  0  0  0  0  0
   47.6744  157.5919   30.4668 H   0  0  0  0  0  0  0  0  0  0  0  0
   46.5586  159.2920   31.9142 H   0  0  0  0  0  0  0  0  0  0  0  0
   47.8467  161.2617   32.7478 H   0  0  0  0  0  0  0  0  0  0  0  0
   51.0700  162.1100   31.8030 H   0  0  0  0  0  0  0  0  0  0  0  0
   53.8300  159.3850   28.5770 H   0  0  0  0  0  0  0  0  0  0  0  0
   51.5595  155.1258   29.9683 H   0  0  0  0  0  0  0  0  0  0  0  0
   52.3490  153.2537   28.5643 H   0  0  0  0  0  0  0  0  0  0  0  0
   53.0986  154.4481   24.2567 H   0  0  0  0  0  0  0  0  0  0  0  0
   54.2779  153.1068   24.0653 H   0  0  0  0  0  0  0  0  0  0  0  0
   52.5154  152.7599   24.0653 H   0  0  0  0  0  0  0  0  0  0  0  0
   54.9617  152.8214   27.4408 H   0  0  0  0  0  0  0  0  0  0  0  0
   55.0596  151.8750   25.9171 H   0  0  0  0  0  0  0  0  0  0  0  0
   55.4748  153.6226   25.9171 H   0  0  0  0  0  0  0  0  0  0  0  0
   52.3187  151.8746   27.4176 H   0  0  0  0  0  0  0  0  0  0  0  0
   51.4279  152.1898   25.8899 H   0  0  0  0  0  0  0  0  0  0  0  0
   52.8516  151.0944   25.8899 H   0  0  0  0  0  0  0  0  0  0  0  0
  1  2  1  0
  2  3  1  0
  3  4  2  0
  4  5  1  0
  5  6  1  0
  6  7  1  0
  7  8  1  0
  8  9  2  0
  9 10  1  0
 10 11  2  0
 11 12  1  0
 12 13  1  0
 12 14  2  0
 14 15  1  0
 15 16  2  0
 15 17  1  0
 17 18  1  0
  5 19  2  0
 19 20  1  0
 20 21  2  0
 21 22  1  0
 22 23  1  0
 22 24  1  0
 22 25  1  0
 21  3  1  0
 17  6  2  0
 14  8  1  0
  1 26  1  0
  1 27  1  0
  1 28  1  0
  2 29  1  0
  2 30  1  0
  4 31  1  0
  9 32  1  0
 10 33  1  0
 11 34  1  0
 13 35  1  0
 18 36  1  0
 19 37  1  0
 20 38  1  0
 23 39  1  0
 23 40  1  0
 23 41  1  0
 24 42  1  0
 24 43  1  0
 24 44  1  0
 25 45  1  0
 25 46  1  0
 25 47  1  0
M  END
>  <meeko>  (4) 
{"is_sidechain": [false], "free_energy": -9.139, "intermolecular_energy": -10.991, "internal_energy": -0.089}

$$$$
cand_038_out
     RDKit          3D

 47 49  0  0  0  0  0  0  0  0999 V2000
   51.8650  153.0390   29.2090 C   0  0  0  0  0  0  0  0  0  0  0  0
   51.3900  153.7100   27.9250 C   0  0  0  0  0  0  0  0  0  0  0  0
   51.9790  155.0950   27.7470 C   0  0  0  0  0  0  0  0  0  0  0  0
   51.4820  156.0610   28.6640 C   0  0  0  0  0  0  0  0  0  0  0  0
   51.9110  157.3900   28.6740 C   0  0  0  0  0  0  0  0  0  0  0  0
   51.3670  158.3870   29.6200 C   0  0  0  0  0  0  0  0  0  0  0  0
   50.0220  158.1830   29.9060 O   0  0  0  0  0  0  0  0  0  0  0  0
   49.3920  159.0370   30.7720 C   0  0  0  0  0  0  0  0  0  0  0  0
   48.0450  158.7870   31.0430 C   0  0  0  0  0  0  0  0  0  0  0  0
   47.3420  159.6200   31.9150 C   0  0  0  0  0  0  0  0  0  0  0  0
   47.9850  160.7050   32.5170 C   0  0  0  0  0  0  0  0  0  0  0  0
   49.3270  160.9540   32.2440 C   0  0  0  0  0  0  0  0  0  0  0  0
   49.8940  162.0330   32.8660 O   0  0  0  0  0  0  0  0  0  0  0  0
   50.0300  160.1190   31.3720 C   0  0  0  0  0  0  0  0  0  0  0  0
   51.4420  160.3440   31.0590 C   0  0  0  0  0  0  0  0  0  0  0  0
   52.0740  161.2820   31.5420 O   0  0  0  0  0  0  0  0  0  0  0  0
   52.0980  159.3970   30.1290 C   0  0  0  0  0  0  0  0  0  0  0  0
   53.4290  159.6280   29.8300 O   0  0  0  0  0  0  0  0  0  0  0  0
   52.8500  157.7670   27.7210 C   0  0  0  0  0  0  0  0  0  0  0  0
   53.3530  156.8340   26.8050 C   0  0  0  0  0  0  0  0  0  0  0  0
   52.9500  155.4770   26.7830 C   0  0  0  0  0  0  0  0  0  0  0  0
   53.5640  154.5340   25.7100 C   0  0  0  0  0  0  0  0  0  0  0  0
   54.7750  155.1550   24.9530 C   0  0  0  0  0  0  0  0  0  0  0  0
   54.1200  153.2300   26.3260 C   0  0  0  0  0  0  0  0  0  0  0  0
   52.5140  154.2240   24.6220 C   0  0  0  0  0  0  0  0  0  0  0  0
   51.4746  153.5905   30.0770 H   0  0  0  0  0  0  0  0  0  0  0  0
   51.4985  152.0023   29.2382 H   0  0  0  0  0  0  0  0  0  0  0  0
   52.9646  153.0401   29.2382 H   0  0  0  0  0  0  0  0  0  0  0  0
   51.6878  153.0865   27.0691 H   0  0  0  0  0  0  0  0  0  0  0  0
   50.2967  153.8148   27.9851 H   0  0  0  0  0  0  0  0  0  0  0  0
   50.7256  155.7476   29.3986 H   0  0  0  0  0  0  0  0  0  0  0  0
   47.5379  157.9335   30.5692 H   0  0  0  0  0  0  0  0  0  0  0  0
   46.2812  159.4223   32.1285 H   0  0  0  0  0  0  0  0  0  0  0  0
   47.4317  161.3609   33.2052 H   0  0  0  0  0  0  0  0  0  0  0  0
   50.8080  162.2070   32.7610 H   0  0  0  0  0  0  0  0  0  0  0  0
   53.9730  158.9210   29.5430 H   0  0  0  0  0  0  0  0  0  0  0  0
   53.2018  158.8086   27.6857 H   0  0  0  0  0  0  0  0  0  0  0  0
   54.0963  157.1718   26.0679 H   0  0  0  0  0  0  0  0  0  0  0  0
   55.5087  155.5312   25.6811 H   0  0  0  0  0  0  0  0  0  0  0  0
   55.2457  154.3870   24.3216 H   0  0  0  0  0  0  0  0  0  0  0  0
   54.4260  155.9854   24.3216 H   0  0  0  0  0  0  0  0  0  0  0  0
   54.0898  153.3009   27.4233 H   0  0  0  0  0  0  0  0  0  0  0  0
   53.5068  152.3783   25.9965 H   0  0  0  0  0  0  0  0  0  0  0  0
   55.1591  153.0828   25.9965 H   0  0  0  0  0  0  0  0  0  0  0  0
   51.5634  153.9434   25.0992 H   0  0  0  0  0  0  0  0  0  0  0  0
   52.3608  155.1152   23.9957 H   0  0  0  0  0  0  0  0  0  0  0  0
   52.8694  153.3925   23.9957 H   0  0  0  0  0  0  0  0  0  0  0  0
  1  2  1  0
  2  3  1  0
  3  4  2  0
  4  5  1  0
  5  6  1  0
  6  7  1  0
  7  8  1  0
  8  9  2  0
  9 10  1  0
 10 11  2  0
 11 12  1  0
 12 13  1  0
 12 14  2  0
 14 15  1  0
 15 16  2  0
 15 17  1  0
 17 18  1  0
  5 19  2  0
 19 20  1  0
 20 21  2  0
 21 22  1  0
 22 23  1  0
 22 24  1  0
 22 25  1  0
 21  3  1  0
 17  6  2  0
 14  8  1  0
  1 26  1  0
  1 27  1  0
  1 28  1  0
  2 29  1  0
  2 30  1  0
  4 31  1  0
  9 32  1  0
 10 33  1  0
 11 34  1  0
 13 35  1  0
 18 36  1  0
 19 37  1  0
 20 38  1  0
 23 39  1  0
 23 40  1  0
 23 41  1  0
 24 42  1  0
 24 43  1  0
 24 44  1  0
 25 45  1  0
 25 46  1  0
 25 47  1  0
M  END
>  <meeko>  (5) 
{"is_sidechain": [false], "free_energy": -8.887, "intermolecular_energy": -10.662, "internal_energy": -0.108}

$$$$
cand_038_out
     RDKit          3D

 47 49  0  0  0  0  0  0  0  0999 V2000
   55.2630  156.9540   24.6080 C   0  0  0  0  0  0  0  0  0  0  0  0
   53.9220  156.2540   24.4140 C   0  0  0  0  0  0  0  0  0  0  0  0
   53.4540  155.5460   25.6690 C   0  0  0  0  0  0  0  0  0  0  0  0
   52.7310  156.3760   26.5690 C   0  0  0  0  0  0  0  0  0  0  0  0
   52.2010  155.9090   27.7740 C   0  0  0  0  0  0  0  0  0  0  0  0
   51.4710  156.7890   28.7100 C   0  0  0  0  0  0  0  0  0  0  0  0
   52.1710  157.9520   29.0140 O   0  0  0  0  0  0  0  0  0  0  0  0
   51.6070  158.8600   29.8720 C   0  0  0  0  0  0  0  0  0  0  0  0
   52.3380  160.0200   30.1380 C   0  0  0  0  0  0  0  0  0  0  0  0
   51.8220  160.9850   31.0050 C   0  0  0  0  0  0  0  0  0  0  0  0
   50.5760  160.7920   31.6070 C   0  0  0  0  0  0  0  0  0  0  0  0
   49.8500  159.6340   31.3400 C   0  0  0  0  0  0  0  0  0  0  0  0
   48.6390  159.5080   31.9640 O   0  0  0  0  0  0  0  0  0  0  0  0
   50.3670  158.6680   30.4720 C   0  0  0  0  0  0  0  0  0  0  0  0
   49.6360  157.4380   30.1650 C   0  0  0  0  0  0  0  0  0  0  0  0
   48.5380  157.1920   30.6610 O   0  0  0  0  0  0  0  0  0  0  0  0
   50.2670  156.4820   29.2260 C   0  0  0  0  0  0  0  0  0  0  0  0
   49.5730  155.3170   28.9540 O   0  0  0  0  0  0  0  0  0  0  0  0
   52.4220  154.5740   28.0960 C   0  0  0  0  0  0  0  0  0  0  0  0
   53.1340  153.7370   27.2270 C   0  0  0  0  0  0  0  0  0  0  0  0
   53.6660  154.1790   25.9910 C   0  0  0  0  0  0  0  0  0  0  0  0
   54.4530  153.1660   25.1130 C   0  0  0  0  0  0  0  0  0  0  0  0
   54.1090  153.2550   23.5960 C   0  0  0  0  0  0  0  0  0  0  0  0
   55.9790  153.3960   25.1790 C   0  0  0  0  0  0  0  0  0  0  0  0
   54.0960  151.7230   25.5310 C   0  0  0  0  0  0  0  0  0  0  0  0
   55.4685  157.0612   25.6833 H   0  0  0  0  0  0  0  0  0  0  0  0
   56.0595  156.3566   24.1403 H   0  0  0  0  0  0  0  0  0  0  0  0
   55.2283  157.9490   24.1403 H   0  0  0  0  0  0  0  0  0  0  0  0
   53.1695  157.0044   24.1301 H   0  0  0  0  0  0  0  0  0  0  0  0
   54.0501  155.4949   23.6283 H   0  0  0  0  0  0  0  0  0  0  0  0
   52.5824  157.4333   26.3045 H   0  0  0  0  0  0  0  0  0  0  0  0
   53.3192  160.1731   29.6649 H   0  0  0  0  0  0  0  0  0  0  0  0
   52.3974  161.8988   31.2145 H   0  0  0  0  0  0  0  0  0  0  0  0
   50.1696  161.5526   32.2899 H   0  0  0  0  0  0  0  0  0  0  0  0
   47.8930  159.9710   31.6370 H   0  0  0  0  0  0  0  0  0  0  0  0
   49.0810  154.8960   29.6310 H   0  0  0  0  0  0  0  0  0  0  0  0
   52.0336  154.1712   29.0430 H   0  0  0  0  0  0  0  0  0  0  0  0
   53.2870  152.6874   27.5182 H   0  0  0  0  0  0  0  0  0  0  0  0
   53.0505  153.5289   23.4755 H   0  0  0  0  0  0  0  0  0  0  0  0
   54.7418  154.0190   23.1207 H   0  0  0  0  0  0  0  0  0  0  0  0
   54.2919  152.2800   23.1207 H   0  0  0  0  0  0  0  0  0  0  0  0
   56.2974  153.4440   26.2308 H   0  0  0  0  0  0  0  0  0  0  0  0
   56.4970  152.5658   24.6766 H   0  0  0  0  0  0  0  0  0  0  0  0
   56.2293  154.3420   24.6766 H   0  0  0  0  0  0  0  0  0  0  0  0
   54.0787  151.6529   26.6286 H   0  0  0  0  0  0  0  0  0  0  0  0
   53.1057  151.4598   25.1311 H   0  0  0  0  0  0  0  0  0  0  0  0
   54.8494  151.0284   25.1311 H   0  0  0  0  0  0  0  0  0  0  0  0
  1  2  1  0
  2  3  1  0
  3  4  2  0
  4  5  1  0
  5  6  1  0
  6  7  1  0
  7  8  1  0
  8  9  2  0
  9 10  1  0
 10 11  2  0
 11 12  1  0
 12 13  1  0
 12 14  2  0
 14 15  1  0
 15 16  2  0
 15 17  1  0
 17 18  1  0
  5 19  2  0
 19 20  1  0
 20 21  2  0
 21 22  1  0
 22 23  1  0
 22 24  1  0
 22 25  1  0
 21  3  1  0
 17  6  2  0
 14  8  1  0
  1 26  1  0
  1 27  1  0
  1 28  1  0
  2 29  1  0
  2 30  1  0
  4 31  1  0
  9 32  1  0
 10 33  1  0
 11 34  1  0
 13 35  1  0
 18 36  1  0
 19 37  1  0
 20 38  1  0
 23 39  1  0
 23 40  1  0
 23 41  1  0
 24 42  1  0
 24 43  1  0
 24 44  1  0
 25 45  1  0
 25 46  1  0
 25 47  1  0
M  END
>  <meeko>  (6) 
{"is_sidechain": [false], "free_energy": -8.599, "intermolecular_energy": -10.11, "internal_energy": -0.304}

$$$$
