cand_001_out
     RDKit          3D

 45 48  0  0  0  0  0  0  0  0999 V2000
   52.0070  151.9450   27.7390 C   0  0  0  0  0  0  0  0  0  0  0  0
   51.7480  153.3560   28.1900 C   0  0  0  0  0  0  0  0  0  0  0  0
   51.6250  153.6110   29.5640 C   0  0  0  0  0  0  0  0  0  0  0  0
   51.4150  154.9090   30.0400 C   0  0  0  0  0  0  0  0  0  0  0  0
   51.3360  155.9890   29.1550 C   0  0  0  0  0  0  0  0  0  0  0  0
   51.0990  157.3520   29.6760 C   0  0  0  0  0  0  0  0  0  0  0  0
   49.8140  157.5220   30.1810 O   0  0  0  0  0  0  0  0  0  0  0  0
   49.4610  158.7430   30.6980 C   0  0  0  0  0  0  0  0  0  0  0  0
   48.1580  158.8740   31.1800 C   0  0  0  0  0  0  0  0  0  0  0  0
   47.7350  160.0890   31.7210 C   0  0  0  0  0  0  0  0  0  0  0  0
   48.6130  161.1720   31.7800 C   0  0  0  0  0  0  0  0  0  0  0  0
   49.9130  161.0400   31.2990 C   0  0  0  0  0  0  0  0  0  0  0  0
   50.7200  162.1400   31.3890 O   0  0  0  0  0  0  0  0  0  0  0  0
   50.3360  159.8230   30.7570 C   0  0  0  0  0  0  0  0  0  0  0  0
   51.6940  159.6410   30.2410 C   0  0  0  0  0  0  0  0  0  0  0  0
   52.5260  160.5440   30.2650 O   0  0  0  0  0  0  0  0  0  0  0  0
   52.0400  158.3140   29.6790 C   0  0  0  0  0  0  0  0  0  0  0  0
   53.3300  158.1490   29.2060 O   0  0  0  0  0  0  0  0  0  0  0  0
   51.4540  155.7350   27.7830 C   0  0  0  0  0  0  0  0  0  0  0  0
   51.6700  154.4330   27.2830 C   0  0  0  0  0  0  0  0  0  0  0  0
   51.8220  154.2540   25.7830 C   0  0  0  0  0  0  0  0  0  0  0  0
   53.0880  154.8380   25.1940 C   0  0  0  0  0  0  0  0  0  0  0  0
   54.0140  154.0050   24.5480 C   0  0  0  0  0  0  0  0  0  0  0  0
   55.1740  154.5370   23.9790 C   0  0  0  0  0  0  0  0  0  0  0  0
   55.4170  155.9070   24.0430 C   0  0  0  0  0  0  0  0  0  0  0  0
   54.5000  156.7470   24.6700 C   0  0  0  0  0  0  0  0  0  0  0  0
   53.3400  156.2180   25.2380 C   0  0  0  0  0  0  0  0  0  0  0  0
   52.1263  151.2950   28.6184 H   0  0  0  0  0  0  0  0  0  0  0  0
   51.1587  151.5918   27.1344 H   0  0  0  0  0  0  0  0  0  0  0  0
   52.9255  151.9161   27.1344 H   0  0  0  0  0  0  0  0  0  0  0  0
   51.6948  152.7771   30.2779 H   0  0  0  0  0  0  0  0  0  0  0  0
   51.3109  155.0823   31.1213 H   0  0  0  0  0  0  0  0  0  0  0  0
   47.4652  158.0208   31.1336 H   0  0  0  0  0  0  0  0  0  0  0  0
   46.7081  160.1931   32.1014 H   0  0  0  0  0  0  0  0  0  0  0  0
   48.2784  162.1293   32.2062 H   0  0  0  0  0  0  0  0  0  0  0  0
   50.8180  162.7100   30.6520 H   0  0  0  0  0  0  0  0  0  0  0  0
   53.8470  157.4260   29.5000 H   0  0  0  0  0  0  0  0  0  0  0  0
   51.3762  156.5735   27.0753 H   0  0  0  0  0  0  0  0  0  0  0  0
   51.8100  153.1759   25.5651 H   0  0  0  0  0  0  0  0  0  0  0  0
   50.9872  154.8022   25.3219 H   0  0  0  0  0  0  0  0  0  0  0  0
   53.8250  152.9230   24.4889 H   0  0  0  0  0  0  0  0  0  0  0  0
   55.8957  153.8735   23.4802 H   0  0  0  0  0  0  0  0  0  0  0  0
   56.3323  156.3251   23.5987 H   0  0  0  0  0  0  0  0  0  0  0  0
   54.6903  157.8294   24.7177 H   0  0  0  0  0  0  0  0  0  0  0  0
   52.6167  156.8888   25.7246 H   0  0  0  0  0  0  0  0  0  0  0  0
  1  2  1  0
  2  3  2  0
  3  4  1  0
  4  5  2  0
  5  6  1  0
  6  7  1  0
  7  8  1  0
  8  9  2  0
  9 10  1  0
 10 11  2  0
 11 12  1  0
 12 13  1  0
 12 14  2  0
 14 15  1  0
 15 16  2  0
 15 17  1  0
 17 18  1  0
  5 19  1  0
 19 20  2  0
 20 21  1  0
 21 22  1  0
 22 23  2  0
 23 24  1  0
 24 25  2  0
 25 26  1  0
 26 27  2  0
 20  2  1  0
 27 22  1  0
 17  6  2  0
 14  8  1  0
  1 28  1  0
  1 29  1  0
  1 30  1  0
  3 31  1  0
  4 32  1  0
  9 33  1  0
 10 34  1  0
 11 35  1  0
 13 36  1  0
 18 37  1  0
 19 38  1  0
 21 39  1  0
 21 40  1  0
 23 41  1  0
 24 42  1  0
 25 43  1  0
 26 44  1  0
 27 45  1  0
M  END
>  <meeko>  (1) 
{"is_sidechain": [false], "free_energy": -10.318, "intermolecular_energy": -12.731, "internal_energy": -0.706}

$$$$
cand_001_out
     RDKit          3D

 45 48  0  0  0  0  0  0  0  0999 V2000
   51.2350  160.6440   30.8610 C   0  0  0  0  0  0  0  0  0  0  0  0
   51.4080  159.3200   30.1680 C   0  0  0  0  0  0  0  0  0  0  0  0
   52.6700  158.9910   29.6520 C   0  0  0  0  0  0  0  0  0  0  0  0
   52.8940  157.7620   29.0260 C   0  0  0  0  0  0  0  0  0  0  0  0
   51.8650  156.8230   28.9080 C   0  0  0  0  0  0  0  0  0  0  0  0
   52.1170  155.5340   28.2290 C   0  0  0  0  0  0  0  0  0  0  0  0
   52.6980  155.6880   26.9760 O   0  0  0  0  0  0  0  0  0  0  0  0
   52.9870  154.5690   26.2360 C   0  0  0  0  0  0  0  0  0  0  0  0
   53.5560  154.7700   24.9780 C   0  0  0  0  0  0  0  0  0  0  0  0
   53.8760  153.6740   24.1750 C   0  0  0  0  0  0  0  0  0  0  0  0
   53.6270  152.3780   24.6290 C   0  0  0  0  0  0  0  0  0  0  0  0
   53.0590  152.1790   25.8850 C   0  0  0  0  0  0  0  0  0  0  0  0
   52.8440  150.8840   26.2670 O   0  0  0  0  0  0  0  0  0  0  0  0
   52.7390  153.2770   26.6880 C   0  0  0  0  0  0  0  0  0  0  0  0
   52.1410  153.1120   28.0140 C   0  0  0  0  0  0  0  0  0  0  0  0
   51.8990  152.0040   28.4870 O   0  0  0  0  0  0  0  0  0  0  0  0
   51.8320  154.3410   28.7830 C   0  0  0  0  0  0  0  0  0  0  0  0
   51.2800  154.1730   30.0400 O   0  0  0  0  0  0  0  0  0  0  0  0
   50.6020  157.1530   29.4180 C   0  0  0  0  0  0  0  0  0  0  0  0
   50.3570  158.3860   30.0580 C   0  0  0  0  0  0  0  0  0  0  0  0
   48.9680  158.6460   30.6130 C   0  0  0  0  0  0  0  0  0  0  0  0
   48.8690  159.8160   31.5670 C   0  0  0  0  0  0  0  0  0  0  0  0
   48.3100  161.0300   31.1380 C   0  0  0  0  0  0  0  0  0  0  0  0
   48.1910  162.1080   32.0170 C   0  0  0  0  0  0  0  0  0  0  0  0
   48.6230  161.9850   33.3350 C   0  0  0  0  0  0  0  0  0  0  0  0
   49.1690  160.7820   33.7780 C   0  0  0  0  0  0  0  0  0  0  0  0
   49.2870  159.7030   32.9020 C   0  0  0  0  0  0  0  0  0  0  0  0
   51.2547  160.4930   31.9504 H   0  0  0  0  0  0  0  0  0  0  0  0
   52.0525  161.3199   30.5697 H   0  0  0  0  0  0  0  0  0  0  0  0
   50.2713  161.0872   30.5697 H   0  0  0  0  0  0  0  0  0  0  0  0
   53.4962  159.7116   29.7415 H   0  0  0  0  0  0  0  0  0  0  0  0
   53.8906  157.5309   28.6217 H   0  0  0  0  0  0  0  0  0  0  0  0
   53.7522  155.7912   24.6193 H   0  0  0  0  0  0  0  0  0  0  0  0
   54.3249  153.8320   23.1833 H   0  0  0  0  0  0  0  0  0  0  0  0
   53.8790  151.5147   23.9956 H   0  0  0  0  0  0  0  0  0  0  0  0
   51.9770  150.5280   26.2500 H   0  0  0  0  0  0  0  0  0  0  0  0
   51.8020  153.8350   30.7400 H   0  0  0  0  0  0  0  0  0  0  0  0
   49.7788  156.4304   29.3164 H   0  0  0  0  0  0  0  0  0  0  0  0
   48.2927  158.8382   29.7662 H   0  0  0  0  0  0  0  0  0  0  0  0
   48.6969  157.7521   31.1939 H   0  0  0  0  0  0  0  0  0  0  0  0
   47.9624  161.1329   30.0994 H   0  0  0  0  0  0  0  0  0  0  0  0
   47.7554  163.0558   31.6679 H   0  0  0  0  0  0  0  0  0  0  0  0
   48.5334  162.8365   34.0256 H   0  0  0  0  0  0  0  0  0  0  0  0
   49.5074  160.6831   34.8200 H   0  0  0  0  0  0  0  0  0  0  0  0
   49.7119  158.7541   33.2611 H   0  0  0  0  0  0  0  0  0  0  0  0
  1  2  1  0
  2  3  2  0
  3  4  1  0
  4  5  2  0
  5  6  1  0
  6  7  1  0
  7  8  1  0
  8  9  2  0
  9 10  1  0
 10 11  2  0
 11 12  1  0
 12 13  1  0
 12 14  2  0
 14 15  1  0
 15 16  2  0
 15 17  1  0
 17 18  1  0
  5 19  1  0
 19 20  2  0
 20 21  1  0
 21 22  1  0
 22 23  2  0
 23 24  1  0
 24 25  2  0
 25 26  1  0
 26 27  2  0
 20  2  1  0
 27 22  1  0
 17  6  2  0
 14  8  1  0
  1 28  1  0
  1 29  1  0
  1 30  1  0
  3 31  1  0
  4 32  1  0
  9 33  1  0
 10 34  1  0
 11 35  1  0
 13 36  1  0
 18 37  1  0
 19 38  1  0
 21 39  1  0
 21 40  1  0
 23 41  1  0
 24 42  1  0
 25 43  1  0
 26 44  1  0
 27 45  1  0
M  END
>  <meeko>  (2) 
{"is_sidechain": [false], "free_energy": -10.173, "intermolecular_energy": -14.85, "internal_energy": 1.592}

$$$$
cand_001_out
     RDKit          3D

 45 48  0  0  0  0  0  0  0  0999 V2000
   49.3230  157.9250   31.2250 C   0  0  0  0  0  0  0  0  0  0  0  0
   50.1780  157.2450   30.1910 C   0  0  0  0  0  0  0  0  0  0  0  0
   49.8160  155.9600   29.7590 C   0  0  0  0  0  0  0  0  0  0  0  0
   50.5570  155.2950   28.7790 C   0  0  0  0  0  0  0  0  0  0  0  0
   51.6740  155.9010   28.1940 C   0  0  0  0  0  0  0  0  0  0  0  0
   52.4540  155.1760   27.1690 C   0  0  0  0  0  0  0  0  0  0  0  0
   52.2390  153.8020   27.1990 O   0  0  0  0  0  0  0  0  0  0  0  0
   52.9020  153.0080   26.2970 C   0  0  0  0  0  0  0  0  0  0  0  0
   52.6690  151.6340   26.3720 C   0  0  0  0  0  0  0  0  0  0  0  0
   53.3100  150.7700   25.4830 C   0  0  0  0  0  0  0  0  0  0  0  0
   54.1840  151.2780   24.5200 C   0  0  0  0  0  0  0  0  0  0  0  0
   54.4150  152.6490   24.4470 C   0  0  0  0  0  0  0  0  0  0  0  0
   55.2810  153.0790   23.4800 O   0  0  0  0  0  0  0  0  0  0  0  0
   53.7730  153.5140   25.3380 C   0  0  0  0  0  0  0  0  0  0  0  0
   53.9870  154.9610   25.2950 C   0  0  0  0  0  0  0  0  0  0  0  0
   54.7350  155.4850   24.4720 O   0  0  0  0  0  0  0  0  0  0  0  0
   53.2650  155.7890   26.2890 C   0  0  0  0  0  0  0  0  0  0  0  0
   53.4650  157.1570   26.2310 O   0  0  0  0  0  0  0  0  0  0  0  0
   52.0390  157.1820   28.6290 C   0  0  0  0  0  0  0  0  0  0  0  0
   51.3010  157.8720   29.6140 C   0  0  0  0  0  0  0  0  0  0  0  0
   51.7470  159.2710   29.9990 C   0  0  0  0  0  0  0  0  0  0  0  0
   50.6540  160.1630   30.5470 C   0  0  0  0  0  0  0  0  0  0  0  0
   50.7640  160.6990   31.8390 C   0  0  0  0  0  0  0  0  0  0  0  0
   49.7730  161.5430   32.3450 C   0  0  0  0  0  0  0  0  0  0  0  0
   48.6650  161.8660   31.5650 C   0  0  0  0  0  0  0  0  0  0  0  0
   48.5490  161.3500   30.2760 C   0  0  0  0  0  0  0  0  0  0  0  0
   49.5390  160.5080   29.7670 C   0  0  0  0  0  0  0  0  0  0  0  0
   49.6725  157.6470   32.2303 H   0  0  0  0  0  0  0  0  0  0  0  0
   49.3947  159.0156   31.1005 H   0  0  0  0  0  0  0  0  0  0  0  0
   48.2765  157.6097   31.1005 H   0  0  0  0  0  0  0  0  0  0  0  0
   48.9354  155.4688   30.1986 H   0  0  0  0  0  0  0  0  0  0  0  0
   50.2590  154.2841   28.4640 H   0  0  0  0  0  0  0  0  0  0  0  0
   51.9811  151.2326   27.1307 H   0  0  0  0  0  0  0  0  0  0  0  0
   53.1263  149.6870   25.5411 H   0  0  0  0  0  0  0  0  0  0  0  0
   54.6892  150.5962   23.8201 H   0  0  0  0  0  0  0  0  0  0  0  0
   55.0160  153.7430   22.8750 H   0  0  0  0  0  0  0  0  0  0  0  0
   53.6050  157.5760   25.4040 H   0  0  0  0  0  0  0  0  0  0  0  0
   52.9256  157.6632   28.1904 H   0  0  0  0  0  0  0  0  0  0  0  0
   52.5301  159.1804   30.7661 H   0  0  0  0  0  0  0  0  0  0  0  0
   52.0969  159.7481   29.0717 H   0  0  0  0  0  0  0  0  0  0  0  0
   51.6386  160.4523   32.4589 H   0  0  0  0  0  0  0  0  0  0  0  0
   49.8676  161.9534   33.3612 H   0  0  0  0  0  0  0  0  0  0  0  0
   47.8829  162.5274   31.9661 H   0  0  0  0  0  0  0  0  0  0  0  0
   47.6757  161.6067   29.6584 H   0  0  0  0  0  0  0  0  0  0  0  0
   49.4447  160.1112   28.7454 H   0  0  0  0  0  0  0  0  0  0  0  0
  1  2  1  0
  2  3  2  0
  3  4  1  0
  4  5  2  0
  5  6  1  0
  6  7  1  0
  7  8  1  0
  8  9  2  0
  9 10  1  0
 10 11  2  0
 11 12  1  0
 12 13  1  0
 12 14  2  0
 14 15  1  0
 15 16  2  0
 15 17  1  0
 17 18  1  0
  5 19  1  0
 19 20  2  0
 20 21  1  0
 21 22  1  0
 22 23  2  0
 23 24  1  0
 24 25  2  0
 25 26  1  0
 26 27  2  0
 20  2  1  0
 27 22  1  0
 17  6  2  0
 14  8  1  0
  1 28  1  0
  1 29  1  0
  1 30  1  0
  3 31  1  0
  4 32  1  0
  9 33  1  0
 10 34  1  0
 11 35  1  0
 13 36  1  0
 18 37  1  0
 19 38  1  0
 21 39  1  0
 21 40  1  0
 23 41  1  0
 24 42  1  0
 25 43  1  0
 26 44  1  0
 27 45  1  0
M  END
>  <meeko>  (3) 
{"is_sidechain": [false], "free_energy": -9.409, "intermolecular_energy": -13.797, "internal_energy": 1.482}

$$$$
cand_001_out
     RDKit          3D

 45 48  0  0  0  0  0  0  0  0999 V2000
   48.7140  158.5070   31.3990 C   0  0  0  0  0  0  0  0  0  0  0  0
   49.6330  157.7410   30.4880 C   0  0  0  0  0  0  0  0  0  0  0  0
   49.2270  156.4790   30.0280 C   0  0  0  0  0  0  0  0  0  0  0  0
   50.0280  155.7380   29.1550 C   0  0  0  0  0  0  0  0  0  0  0  0
   51.2520  156.2430   28.7080 C   0  0  0  0  0  0  0  0  0  0  0  0
   52.0930  155.4380   27.7960 C   0  0  0  0  0  0  0  0  0  0  0  0
   52.7290  156.2080   26.8280 O   0  0  0  0  0  0  0  0  0  0  0  0
   53.5430  155.5850   25.9150 C   0  0  0  0  0  0  0  0  0  0  0  0
   54.1500  156.3930   24.9530 C   0  0  0  0  0  0  0  0  0  0  0  0
   54.9910  155.8240   23.9960 C   0  0  0  0  0  0  0  0  0  0  0  0
   55.2250  154.4480   24.0000 C   0  0  0  0  0  0  0  0  0  0  0  0
   54.6190  153.6430   24.9610 C   0  0  0  0  0  0  0  0  0  0  0  0
   54.8920  152.3040   24.9080 O   0  0  0  0  0  0  0  0  0  0  0  0
   53.7760  154.2140   25.9190 C   0  0  0  0  0  0  0  0  0  0  0  0
   53.1190  153.4050   26.9470 C   0  0  0  0  0  0  0  0  0  0  0  0
   53.2810  152.1890   27.0210 O   0  0  0  0  0  0  0  0  0  0  0  0
   52.2390  154.1060   27.9110 C   0  0  0  0  0  0  0  0  0  0  0  0
   51.6330  153.3330   28.8860 O   0  0  0  0  0  0  0  0  0  0  0  0
   51.6620  157.5010   29.1700 C   0  0  0  0  0  0  0  0  0  0  0  0
   50.8650  158.2660   30.0470 C   0  0  0  0  0  0  0  0  0  0  0  0
   51.3700  159.6350   30.4690 C   0  0  0  0  0  0  0  0  0  0  0  0
   50.3510  160.5030   31.1740 C   0  0  0  0  0  0  0  0  0  0  0  0
   50.4510  160.7250   32.5560 C   0  0  0  0  0  0  0  0  0  0  0  0
   49.5300  161.5450   33.2130 C   0  0  0  0  0  0  0  0  0  0  0  0
   48.5040  162.1570   32.4960 C   0  0  0  0  0  0  0  0  0  0  0  0
   48.4010  161.9550   31.1220 C   0  0  0  0  0  0  0  0  0  0  0  0
   49.3210  161.1370   30.4630 C   0  0  0  0  0  0  0  0  0  0  0  0
   48.9725  158.2915   32.4462 H   0  0  0  0  0  0  0  0  0  0  0  0
   48.8237  159.5848   31.2086 H   0  0  0  0  0  0  0  0  0  0  0  0
   47.6735  158.2050   31.2086 H   0  0  0  0  0  0  0  0  0  0  0  0
   48.2628  156.0664   30.3599 H   0  0  0  0  0  0  0  0  0  0  0  0
   49.6916  154.7470   28.8162 H   0  0  0  0  0  0  0  0  0  0  0  0
   53.9657  157.4775   24.9490 H   0  0  0  0  0  0  0  0  0  0  0  0
   55.4701  156.4606   23.2376 H   0  0  0  0  0  0  0  0  0  0  0  0
   55.8875  154.0000   23.2447 H   0  0  0  0  0  0  0  0  0  0  0  0
   54.2180  151.6810   25.0910 H   0  0  0  0  0  0  0  0  0  0  0  0
   51.2150  152.5280   28.6520 H   0  0  0  0  0  0  0  0  0  0  0  0
   52.6314  157.9026   28.8398 H   0  0  0  0  0  0  0  0  0  0  0  0
   52.2228  159.4896   31.1484 H   0  0  0  0  0  0  0  0  0  0  0  0
   51.6355  160.1640   29.5418 H   0  0  0  0  0  0  0  0  0  0  0  0
   51.2618  160.2492   33.1272 H   0  0  0  0  0  0  0  0  0  0  0  0
   49.6150  161.7076   34.2976 H   0  0  0  0  0  0  0  0  0  0  0  0
   47.7764  162.7988   33.0145 H   0  0  0  0  0  0  0  0  0  0  0  0
   47.5934  162.4408   30.5547 H   0  0  0  0  0  0  0  0  0  0  0  0
   49.2374  160.9883   29.3763 H   0  0  0  0  0  0  0  0  0  0  0  0
  1  2  1  0
  2  3  2  0
  3  4  1  0
  4  5  2  0
  5  6  1  0
  6  7  1  0
  7  8  1  0
  8  9  2  0
  9 10  1  0
 10 11  2  0
 11 12  1  0
 12 13  1  0
 12 14  2  0
 14 15  1  0
 15 16  2  0
 15 17  1  0
 17 18  1  0
  5 19  1  0
 19 20  2  0
 20 21  1  0
 21 22  1  0
 22 23  2  0
 23 24  1  0
 24 25  2  0
 25 26  1  0
 26 27  2  0
 20  2  1  0
 27 22  1  0
 17  6  2  0
 14  8  1  0
  1 28  1  0
  1 29  1  0
  1 30  1  0
  3 31  1  0
  4 32  1  0
  9 33  1  0
 10 34  1  0
 11 35  1  0
 13 36  1  0
 18 37  1  0
 19 38  1  0
 21 39  1  0
 21 40  1  0
 23 41  1  0
 24 42  1  0
 25 43  1  0
 26 44  1  0
 27 45  1  0
M  END
>  <meeko>  (4) 
{"is_sidechain": [false], "free_energy": -8.87, "intermolecular_energy": -13.617, "internal_energy": 1.966}

$$$$
cand_001_out
     RDKit          3D

 45 48  0  0  0  0  0  0  0  0999 V2000
   49.3630  161.2790   31.9380 C   0  0  0  0  0  0  0  0  0  0  0  0
   50.0160  160.1610   31.1730 C   0  0  0  0  0  0  0  0  0  0  0  0
   49.4230  158.8890   31.2020 C   0  0  0  0  0  0  0  0  0  0  0  0
   49.9710  157.8230   30.4840 C   0  0  0  0  0  0  0  0  0  0  0  0
   51.1190  158.0010   29.7070 C   0  0  0  0  0  0  0  0  0  0  0  0
   51.6930  156.8570   28.9650 C   0  0  0  0  0  0  0  0  0  0  0  0
   52.3140  157.2390   27.7810 O   0  0  0  0  0  0  0  0  0  0  0  0
   52.8900  156.2730   26.9940 C   0  0  0  0  0  0  0  0  0  0  0  0
   53.4890  156.6980   25.8070 C   0  0  0  0  0  0  0  0  0  0  0  0
   54.0950  155.7670   24.9620 C   0  0  0  0  0  0  0  0  0  0  0  0
   54.1020  154.4130   25.3020 C   0  0  0  0  0  0  0  0  0  0  0  0
   53.5040  153.9920   26.4860 C   0  0  0  0  0  0  0  0  0  0  0  0
   53.5480  152.6520   26.7580 O   0  0  0  0  0  0  0  0  0  0  0  0
   52.8970  154.9240   27.3330 C   0  0  0  0  0  0  0  0  0  0  0  0
   52.2570  154.5230   28.5870 C   0  0  0  0  0  0  0  0  0  0  0  0
   52.2290  153.3520   28.9590 O   0  0  0  0  0  0  0  0  0  0  0  0
   51.6350  155.5880   29.4080 C   0  0  0  0  0  0  0  0  0  0  0  0
   51.0450  155.2000   30.5980 O   0  0  0  0  0  0  0  0  0  0  0  0
   51.7150  159.2690   29.6810 C   0  0  0  0  0  0  0  0  0  0  0  0
   51.1750  160.3590   30.3950 C   0  0  0  0  0  0  0  0  0  0  0  0
   51.8650  161.7070   30.2810 C   0  0  0  0  0  0  0  0  0  0  0  0
   53.2740  161.7530   30.8320 C   0  0  0  0  0  0  0  0  0  0  0  0
   54.3290  162.2110   30.0280 C   0  0  0  0  0  0  0  0  0  0  0  0
   55.6290  162.2800   30.5330 C   0  0  0  0  0  0  0  0  0  0  0  0
   55.8890  161.9010   31.8480 C   0  0  0  0  0  0  0  0  0  0  0  0
   54.8480  161.4560   32.6610 C   0  0  0  0  0  0  0  0  0  0  0  0
   53.5480  161.3870   32.1580 C   0  0  0  0  0  0  0  0  0  0  0  0
   49.4699  161.0960   33.0174 H   0  0  0  0  0  0  0  0  0  0  0  0
   49.8463  162.2324   31.6781 H   0  0  0  0  0  0  0  0  0  0  0  0
   48.2952  161.3264   31.6781 H   0  0  0  0  0  0  0  0  0  0  0  0
   48.5131  158.7291   31.7990 H   0  0  0  0  0  0  0  0  0  0  0  0
   49.4938  156.8330   30.5308 H   0  0  0  0  0  0  0  0  0  0  0  0
   53.4834  157.7646   25.5381 H   0  0  0  0  0  0  0  0  0  0  0  0
   54.5679  156.1007   24.0266 H   0  0  0  0  0  0  0  0  0  0  0  0
   54.5795  153.6800   24.6351 H   0  0  0  0  0  0  0  0  0  0  0  0
   52.7800  152.1270   26.6530 H   0  0  0  0  0  0  0  0  0  0  0  0
   50.3060  154.6240   30.5880 H   0  0  0  0  0  0  0  0  0  0  0  0
   52.6290  159.4184   29.0875 H   0  0  0  0  0  0  0  0  0  0  0  0
   51.9059  161.9805   29.2163 H   0  0  0  0  0  0  0  0  0  0  0  0
   51.2740  162.4073   30.8894 H   0  0  0  0  0  0  0  0  0  0  0  0
   54.1301  162.5184   28.9907 H   0  0  0  0  0  0  0  0  0  0  0  0
   56.4492  162.6342   29.8913 H   0  0  0  0  0  0  0  0  0  0  0  0
   56.9139  161.9528   32.2440 H   0  0  0  0  0  0  0  0  0  0  0  0
   55.0513  161.1588   33.7004 H   0  0  0  0  0  0  0  0  0  0  0  0
   52.7302  161.0422   32.8079 H   0  0  0  0  0  0  0  0  0  0  0  0
  1  2  1  0
  2  3  2  0
  3  4  1  0
  4  5  2  0
  5  6  1  0
  6  7  1  0
  7  8  1  0
  8  9  2  0
  9 10  1  0
 10 11  2  0
 11 12  1  0
 12 13  1  0
 12 14  2  0
 14 15  1  0
 15 16  2  0
 15 17  1  0
 17 18  1  0
  5 19  1  0
 19 20  2  0
 20 21  1  0
 21 22  1  0
 22 23  2  0
 23 24  1  0
 24 25  2  0
 25 26  1  0
 26 27  2  0
 20  2  1  0
 27 22  1  0
 17  6  2  0
 14  8  1  0
  1 28  1  0
  1 29  1  0
  1 30  1  0
  3 31  1  0
  4 32  1  0
  9 33  1  0
 10 34  1  0
 11 35  1  0
 13 36  1  0
 18 37  1  0
 19 38  1  0
 21 39  1  0
 21 40  1  0
 23 41  1  0
 24 42  1  0
 25 43  1  0
 26 44  1  0
 27 45  1  0
M  END
>  <meeko>  (5) 
{"is_sidechain": [false], "free_energy": -8.556, "intermolecular_energy": -10.656, "internal_energy": -0.607}

$$$$
cand_001_out
     RDKit          3D

 45 48  0  0  0  0  0  0  0  0999 V2000
   52.4590  152.0460   27.7100 C   0  0  0  0  0  0  0  0  0  0  0  0
   51.9570  153.3840   28.1800 C   0  0  0  0  0  0  0  0  0  0  0  0
   51.8490  153.6150   29.5600 C   0  0  0  0  0  0  0  0  0  0  0  0
   51.4170  154.8500   30.0520 C   0  0  0  0  0  0  0  0  0  0  0  0
   51.0930  155.8920   29.1780 C   0  0  0  0  0  0  0  0  0  0  0  0
   50.6240  157.1870   29.7160 C   0  0  0  0  0  0  0  0  0  0  0  0
   51.6580  158.0940   29.9170 O   0  0  0  0  0  0  0  0  0  0  0  0
   51.3620  159.3380   30.4140 C   0  0  0  0  0  0  0  0  0  0  0  0
   52.4310  160.2120   30.6140 C   0  0  0  0  0  0  0  0  0  0  0  0
   52.1990  161.4940   31.1150 C   0  0  0  0  0  0  0  0  0  0  0  0
   50.8980  161.9030   31.4160 C   0  0  0  0  0  0  0  0  0  0  0  0
   49.8320  161.0290   31.2150 C   0  0  0  0  0  0  0  0  0  0  0  0
   48.5850  161.4940   31.5300 O   0  0  0  0  0  0  0  0  0  0  0  0
   50.0660  159.7450   30.7130 C   0  0  0  0  0  0  0  0  0  0  0  0
   48.9740  158.7970   30.4880 C   0  0  0  0  0  0  0  0  0  0  0  0
   47.8020  159.0840   30.7210 O   0  0  0  0  0  0  0  0  0  0  0  0
   49.3290  157.4580   29.9610 C   0  0  0  0  0  0  0  0  0  0  0  0
   48.2880  156.5740   29.7390 O   0  0  0  0  0  0  0  0  0  0  0  0
   51.1950  155.6610   27.8000 C   0  0  0  0  0  0  0  0  0  0  0  0
   51.6330  154.4230   27.2840 C   0  0  0  0  0  0  0  0  0  0  0  0
   51.7480  154.2710   25.7780 C   0  0  0  0  0  0  0  0  0  0  0  0
   53.0540  154.7530   25.1840 C   0  0  0  0  0  0  0  0  0  0  0  0
   53.9070  153.8500   24.5300 C   0  0  0  0  0  0  0  0  0  0  0  0
   55.1030  154.2890   23.9580 C   0  0  0  0  0  0  0  0  0  0  0  0
   55.4560  155.6350   24.0240 C   0  0  0  0  0  0  0  0  0  0  0  0
   54.6130  156.5440   24.6590 C   0  0  0  0  0  0  0  0  0  0  0  0
   53.4170  156.1080   25.2310 C   0  0  0  0  0  0  0  0  0  0  0  0
   52.6952  151.4165   28.5806 H   0  0  0  0  0  0  0  0  0  0  0  0
   51.6835  151.5561   27.1029 H   0  0  0  0  0  0  0  0  0  0  0  0
   53.3654  152.1871   27.1029 H   0  0  0  0  0  0  0  0  0  0  0  0
   52.1083  152.8118   30.2654 H   0  0  0  0  0  0  0  0  0  0  0  0
   51.3311  155.0036   31.1378 H   0  0  0  0  0  0  0  0  0  0  0  0
   53.4561  159.8910   30.3770 H   0  0  0  0  0  0  0  0  0  0  0  0
   53.0419  162.1830   31.2729 H   0  0  0  0  0  0  0  0  0  0  0  0
   50.7154  162.9133   31.8110 H   0  0  0  0  0  0  0  0  0  0  0  0
   48.4910  162.2680   32.0480 H   0  0  0  0  0  0  0  0  0  0  0  0
   47.7020  156.7120   29.0210 H   0  0  0  0  0  0  0  0  0  0  0  0
   50.9263  156.4669   27.1012 H   0  0  0  0  0  0  0  0  0  0  0  0
   51.6348  153.2046   25.5331 H   0  0  0  0  0  0  0  0  0  0  0  0
   50.9606  154.9049   25.3442 H   0  0  0  0  0  0  0  0  0  0  0  0
   53.6309  152.7871   24.4675 H   0  0  0  0  0  0  0  0  0  0  0  0
   55.7672  153.5710   23.4547 H   0  0  0  0  0  0  0  0  0  0  0  0
   56.3993  155.9795   23.5752 H   0  0  0  0  0  0  0  0  0  0  0  0
   54.8904  157.6072   24.7097 H   0  0  0  0  0  0  0  0  0  0  0  0
   52.7525  156.8332   25.7234 H   0  0  0  0  0  0  0  0  0  0  0  0
  1  2  1  0
  2  3  2  0
  3  4  1  0
  4  5  2  0
  5  6  1  0
  6  7  1  0
  7  8  1  0
  8  9  2  0
  9 10  1  0
 10 11  2  0
 11 12  1  0
 12 13  1  0
 12 14  2  0
 14 15  1  0
 15 16  2  0
 15 17  1  0
 17 18  1  0
  5 19  1  0
 19 20  2  0
 20 21  1  0
 21 22  1  0
 22 23  2  0
 23 24  1  0
 24 25  2  0
 25 26  1  0
 26 27  2  0
 20  2  1  0
 27 22  1  0
 17  6  2  0
 14  8  1  0
  1 28  1  0
  1 29  1  0
  1 30  1  0
  3 31  1  0
  4 32  1  0
  9 33  1  0
 10 34  1  0
 11 35  1  0
 13 36  1  0
 18 37  1  0
 19 38  1  0
 21 39  1  0
 21 40  1  0
 23 41  1  0
 24 42  1  0
 25 43  1  0
 26 44  1  0
 27 45  1  0
M  END
>  <meeko>  (6) 
{"is_sidechain": [false], "free_energy": -8.298, "intermolecular_energy": -9.994, "internal_energy": -0.95}

$$$$
cand_001_out
     RDKit          3D

 45 48  0  0  0  0  0  0  0  0999 V2000
   51.2720  159.6390   30.7140 C   0  0  0  0  0  0  0  0  0  0  0  0
   51.5750  158.4720   29.8150 C   0  0  0  0  0  0  0  0  0  0  0  0
   52.7990  158.4490   29.1310 C   0  0  0  0  0  0  0  0  0  0  0  0
   53.1450  157.3750   28.3070 C   0  0  0  0  0  0  0  0  0  0  0  0
   52.2800  156.2860   28.1540 C   0  0  0  0  0  0  0  0  0  0  0  0
   52.6560  155.1650   27.2670 C   0  0  0  0  0  0  0  0  0  0  0  0
   52.1420  153.9440   27.6920 O   0  0  0  0  0  0  0  0  0  0  0  0
   52.4150  152.8180   26.9580 C   0  0  0  0  0  0  0  0  0  0  0  0
   51.8930  151.6130   27.4280 C   0  0  0  0  0  0  0  0  0  0  0  0
   52.1310  150.4300   26.7270 C   0  0  0  0  0  0  0  0  0  0  0  0
   52.8920  150.4510   25.5570 C   0  0  0  0  0  0  0  0  0  0  0  0
   53.4120  151.6550   25.0880 C   0  0  0  0  0  0  0  0  0  0  0  0
   54.1460  151.6030   23.9360 O   0  0  0  0  0  0  0  0  0  0  0  0
   53.1730  152.8390   25.7910 C   0  0  0  0  0  0  0  0  0  0  0  0
   53.7010  154.1250   25.3340 C   0  0  0  0  0  0  0  0  0  0  0  0
   54.3720  154.2270   24.3090 O   0  0  0  0  0  0  0  0  0  0  0  0
   53.3970  155.3210   26.1550 C   0  0  0  0  0  0  0  0  0  0  0  0
   53.8900  156.5330   25.7070 O   0  0  0  0  0  0  0  0  0  0  0  0
   51.0540  156.3100   28.8320 C   0  0  0  0  0  0  0  0  0  0  0  0
   50.6900  157.3830   29.6720 C   0  0  0  0  0  0  0  0  0  0  0  0
   49.3580  157.3100   30.3980 C   0  0  0  0  0  0  0  0  0  0  0  0
   48.8060  158.6410   30.8580 C   0  0  0  0  0  0  0  0  0  0  0  0
   48.8720  159.0000   32.2140 C   0  0  0  0  0  0  0  0  0  0  0  0
   48.3870  160.2360   32.6460 C   0  0  0  0  0  0  0  0  0  0  0  0
   47.8380  161.1310   31.7300 C   0  0  0  0  0  0  0  0  0  0  0  0
   47.7780  160.7920   30.3790 C   0  0  0  0  0  0  0  0  0  0  0  0
   48.2630  159.5580   29.9450 C   0  0  0  0  0  0  0  0  0  0  0  0
   51.3539  159.3235   31.7646 H   0  0  0  0  0  0  0  0  0  0  0  0
   51.9896  160.4492   30.5175 H   0  0  0  0  0  0  0  0  0  0  0  0
   50.2509  159.9978   30.5175 H   0  0  0  0  0  0  0  0  0  0  0  0
   53.4983  159.2904   29.2451 H   0  0  0  0  0  0  0  0  0  0  0  0
   54.1068  157.3857   27.7734 H   0  0  0  0  0  0  0  0  0  0  0  0
   51.2942  151.5952   28.3505 H   0  0  0  0  0  0  0  0  0  0  0  0
   51.7184  149.4798   27.0969 H   0  0  0  0  0  0  0  0  0  0  0  0
   53.0808  149.5178   25.0061 H   0  0  0  0  0  0  0  0  0  0  0  0
   54.7020  152.3200   23.7020 H   0  0  0  0  0  0  0  0  0  0  0  0
   54.8150  156.6660   25.6370 H   0  0  0  0  0  0  0  0  0  0  0  0
   50.3563  155.4690   28.7057 H   0  0  0  0  0  0  0  0  0  0  0  0
   48.6238  156.8527   29.7184 H   0  0  0  0  0  0  0  0  0  0  0  0
   49.5369  156.7203   31.3092 H   0  0  0  0  0  0  0  0  0  0  0  0
   49.3096  158.3013   32.9422 H   0  0  0  0  0  0  0  0  0  0  0  0
   48.4384  160.5037   33.7117 H   0  0  0  0  0  0  0  0  0  0  0  0
   47.4528  162.1029   32.0721 H   0  0  0  0  0  0  0  0  0  0  0  0
   47.3476  161.4986   29.6541 H   0  0  0  0  0  0  0  0  0  0  0  0
   48.2193  159.3012   28.8763 H   0  0  0  0  0  0  0  0  0  0  0  0
  1  2  1  0
  2  3  2  0
  3  4  1  0
  4  5  2  0
  5  6  1  0
  6  7  1  0
  7  8  1  0
  8  9  2  0
  9 10  1  0
 10 11  2  0
 11 12  1  0
 12 13  1  0
 12 14  2  0
 14 15  1  0
 15 16  2  0
 15 17  1  0
 17 18  1  0
  5 19  1  0
 19 20  2  0
 20 21  1  0
 21 22  1  0
 22 23  2  0
 23 24  1  0
 24 25  2  0
 25 26  1  0
 26 27  2  0
 20  2  1  0
 27 22  1  0
 17  6  2  0
 14  8  1  0
  1 28  1  0
  1 29  1  0
  1 30  1  0
  3 31  1  0
  4 32  1  0
  9 33  1  0
 10 34  1  0
 11 35  1  0
 13 36  1  0
 18 37  1  0
 19 38  1  0
 21 39  1  0
 21 40  1  0
 23 41  1  0
 24 42  1  0
 25 43  1  0
 26 44  1  0
 27 45  1  0
M  END
>  <meeko>  (7) 
{"is_sidechain": [false], "free_energy": -7.606, "intermolecular_energy": -11.748, "internal_energy": 1.657}

$$$$
