cand_047_out
     RDKit          3D

 38 40  0  0  0  0  0  0  0  0999 V2000
   52.2130  161.1380   30.6060 C   0  0  0  0  0  0  0  0  0  0  0  0
   51.3870  159.8940   30.4200 C   0  0  0  0  0  0  0  0  0  0  0  0
   51.9550  158.8020   29.7360 C   0  0  0  0  0  0  0  0  0  0  0  0
   51.2390  157.6140   29.5230 C   0  0  0  0  0  0  0  0  0  0  0  0
   51.8260  156.4740   28.7870 C   0  0  0  0  0  0  0  0  0  0  0  0
   52.3760  156.8450   27.5650 O   0  0  0  0  0  0  0  0  0  0  0  0
   52.9560  155.8830   26.7800 C   0  0  0  0  0  0  0  0  0  0  0  0
   53.5100  156.3020   25.5700 C   0  0  0  0  0  0  0  0  0  0  0  0
   54.1150  155.3710   24.7210 C   0  0  0  0  0  0  0  0  0  0  0  0
   54.1640  154.0230   25.0820 C   0  0  0  0  0  0  0  0  0  0  0  0
   53.6100  153.6070   26.2900 C   0  0  0  0  0  0  0  0  0  0  0  0
   53.6920  152.2740   26.5810 O   0  0  0  0  0  0  0  0  0  0  0  0
   53.0060  154.5400   27.1390 C   0  0  0  0  0  0  0  0  0  0  0  0
   52.4120  154.1440   28.4170 C   0  0  0  0  0  0  0  0  0  0  0  0
   52.4090  152.9770   28.8010 O   0  0  0  0  0  0  0  0  0  0  0  0
   51.8040  155.2090   29.2480 C   0  0  0  0  0  0  0  0  0  0  0  0
   51.2340  154.8240   30.4470 O   0  0  0  0  0  0  0  0  0  0  0  0
   49.9240  157.5380   29.9900 C   0  0  0  0  0  0  0  0  0  0  0  0
   49.3430  158.6150   30.6650 C   0  0  0  0  0  0  0  0  0  0  0  0
   50.0610  159.8020   30.8840 C   0  0  0  0  0  0  0  0  0  0  0  0
   49.3850  160.9220   31.6410 C   0  0  0  0  0  0  0  0  0  0  0  0
   48.6740  160.4240   32.8890 C   0  0  0  0  0  0  0  0  0  0  0  0
   49.6030  159.9160   33.7460 F   0  0  0  0  0  0  0  0  0  0  0  0
   52.3434  161.3343   31.6805 H   0  0  0  0  0  0  0  0  0  0  0  0
   53.1980  160.9977   30.1368 H   0  0  0  0  0  0  0  0  0  0  0  0
   51.7015  161.9913   30.1368 H   0  0  0  0  0  0  0  0  0  0  0  0
   52.9854  158.8822   29.3593 H   0  0  0  0  0  0  0  0  0  0  0  0
   53.4707  157.3636   25.2846 H   0  0  0  0  0  0  0  0  0  0  0  0
   54.5531  155.7006   23.7673 H   0  0  0  0  0  0  0  0  0  0  0  0
   54.6396  153.2907   24.4130 H   0  0  0  0  0  0  0  0  0  0  0  0
   53.3110  151.6440   26.0000 H   0  0  0  0  0  0  0  0  0  0  0  0
   50.3790  155.1300   30.6790 H   0  0  0  0  0  0  0  0  0  0  0  0
   49.3400  156.6206   29.8245 H   0  0  0  0  0  0  0  0  0  0  0  0
   48.3086  158.5318   31.0299 H   0  0  0  0  0  0  0  0  0  0  0  0
   50.1458  161.6592   31.9371 H   0  0  0  0  0  0  0  0  0  0  0  0
   48.6300  161.3701   30.9783 H   0  0  0  0  0  0  0  0  0  0  0  0
   48.1429  161.2583   33.3705 H   0  0  0  0  0  0  0  0  0  0  0  0
   47.9454  159.6449   32.6203 H   0  0  0  0  0  0  0  0  0  0  0  0
  1  2  1  0
  2  3  2  0
  3  4  1  0
  4  5  1  0
  5  6  1  0
  6  7  1  0
  7  8  2  0
  8  9  1  0
  9 10  2  0
 10 11  1  0
 11 12  1  0
 11 13  2  0
 13 14  1  0
 14 15  2  0
 14 16  1  0
 16 17  1  0
  4 18  2  0
 18 19  1  0
 19 20  2  0
 20 21  1  0
 21 22  1  0
 22 23  1  0
 20  2  1  0
 16  5  2  0
 13  7  1  0
  1 24  1  0
  1 25  1  0
  1 26  1  0
  3 27  1  0
  8 28  1  0
  9 29  1  0
 10 30  1  0
 12 31  1  0
 17 32  1  0
 18 33  1  0
 19 34  1  0
 21 35  1  0
 21 36  1  0
 22 37  1  0
 22 38  1  0
M  END
>  <meeko>  (1) 
{"is_sidechain": [false], "free_energy": -10.695, "intermolecular_energy": -13.196, "internal_energy": -0.303}

$$$$
cand_047_out
     RDKit          3D

 38 40  0  0  0  0  0  0  0  0999 V2000
   48.0120  158.8760   31.2440 C   0  0  0  0  0  0  0  0  0  0  0  0
   49.4260  158.9270   30.7310 C   0  0  0  0  0  0  0  0  0  0  0  0
   49.9360  157.8080   30.0440 C   0  0  0  0  0  0  0  0  0  0  0  0
   51.2460  157.7860   29.5450 C   0  0  0  0  0  0  0  0  0  0  0  0
   51.7910  156.6040   28.8420 C   0  0  0  0  0  0  0  0  0  0  0  0
   52.3540  156.9190   27.6110 O   0  0  0  0  0  0  0  0  0  0  0  0
   52.8980  155.9140   26.8540 C   0  0  0  0  0  0  0  0  0  0  0  0
   53.4660  156.2770   25.6320 C   0  0  0  0  0  0  0  0  0  0  0  0
   54.0370  155.3020   24.8110 C   0  0  0  0  0  0  0  0  0  0  0  0
   54.0370  153.9640   25.2110 C   0  0  0  0  0  0  0  0  0  0  0  0
   53.4690  153.6030   26.4310 C   0  0  0  0  0  0  0  0  0  0  0  0
   53.5030  152.2770   26.7600 O   0  0  0  0  0  0  0  0  0  0  0  0
   52.9000  154.5810   27.2520 C   0  0  0  0  0  0  0  0  0  0  0  0
   52.2930  154.2450   28.5410 C   0  0  0  0  0  0  0  0  0  0  0  0
   52.2480  153.0900   28.9590 O   0  0  0  0  0  0  0  0  0  0  0  0
   51.7240  155.3550   29.3400 C   0  0  0  0  0  0  0  0  0  0  0  0
   51.1410  155.0250   30.5500 O   0  0  0  0  0  0  0  0  0  0  0  0
   52.0600  158.9010   29.7620 C   0  0  0  0  0  0  0  0  0  0  0  0
   51.5710  160.0170   30.4480 C   0  0  0  0  0  0  0  0  0  0  0  0
   50.2570  160.0430   30.9420 C   0  0  0  0  0  0  0  0  0  0  0  0
   49.7810  161.2880   31.6550 C   0  0  0  0  0  0  0  0  0  0  0  0
   50.1570  161.2850   33.1280 C   0  0  0  0  0  0  0  0  0  0  0  0
   49.3750  160.3760   33.7740 F   0  0  0  0  0  0  0  0  0  0  0  0
   48.0208  158.8763   32.3440 H   0  0  0  0  0  0  0  0  0  0  0  0
   47.4585  159.7548   30.8815 H   0  0  0  0  0  0  0  0  0  0  0  0
   47.5233  157.9597   30.8815 H   0  0  0  0  0  0  0  0  0  0  0  0
   49.2905  156.9298   29.8954 H   0  0  0  0  0  0  0  0  0  0  0  0
   53.4640  157.3305   25.3156 H   0  0  0  0  0  0  0  0  0  0  0  0
   54.4869  155.5882   23.8489 H   0  0  0  0  0  0  0  0  0  0  0  0
   54.4850  153.1958   24.5635 H   0  0  0  0  0  0  0  0  0  0  0  0
   53.1920  151.9950   27.5990 H   0  0  0  0  0  0  0  0  0  0  0  0
   50.2430  154.7590   30.5790 H   0  0  0  0  0  0  0  0  0  0  0  0
   53.0951  158.9007   29.3897 H   0  0  0  0  0  0  0  0  0  0  0  0
   52.2255  160.8874   30.6029 H   0  0  0  0  0  0  0  0  0  0  0  0
   50.2359  162.1670   31.1750 H   0  0  0  0  0  0  0  0  0  0  0  0
   48.6835  161.3178   31.5865 H   0  0  0  0  0  0  0  0  0  0  0  0
   51.2159  161.0088   33.2397 H   0  0  0  0  0  0  0  0  0  0  0  0
   50.0029  162.2860   33.5573 H   0  0  0  0  0  0  0  0  0  0  0  0
  1  2  1  0
  2  3  2  0
  3  4  1  0
  4  5  1  0
  5  6  1  0
  6  7  1  0
  7  8  2  0
  8  9  1  0
  9 10  2  0
 10 11  1  0
 11 12  1  0
 11 13  2  0
 13 14  1  0
 14 15  2  0
 14 16  1  0
 16 17  1  0
  4 18  2  0
 18 19  1  0
 19 20  2  0
 20 21  1  0
 21 22  1  0
 22 23  1  0
 20  2  1  0
 16  5  2  0
 13  7  1  0
  1 24  1  0
  1 25  1  0
  1 26  1  0
  3 27  1  0
  8 28  1  0
  9 29  1  0
 10 30  1  0
 12 31  1  0
 17 32  1  0
 18 33  1  0
 19 34  1  0
 21 35  1  0
 21 36  1  0
 22 37  1  0
 22 38  1  0
M  END
>  <meeko>  (2) 
{"is_sidechain": [false], "free_energy": -10.422, "intermolecular_energy": -12.831, "internal_energy": -0.332}

$$$$
cand_047_out
     RDKit          3D

 38 40  0  0  0  0  0  0  0  0999 V2000
   53.6130  156.1280   25.7440 C   0  0  0  0  0  0  0  0  0  0  0  0
   52.8710  155.9140   27.0350 C   0  0  0  0  0  0  0  0  0  0  0  0
   52.4490  157.0410   27.7670 C   0  0  0  0  0  0  0  0  0  0  0  0
   51.7580  156.9130   28.9810 C   0  0  0  0  0  0  0  0  0  0  0  0
   51.3330  158.0950   29.7620 C   0  0  0  0  0  0  0  0  0  0  0  0
   50.0000  158.0360   30.1490 O   0  0  0  0  0  0  0  0  0  0  0  0
   49.4760  159.0690   30.8820 C   0  0  0  0  0  0  0  0  0  0  0  0
   48.1370  158.9620   31.2620 C   0  0  0  0  0  0  0  0  0  0  0  0
   47.5410  159.9810   32.0090 C   0  0  0  0  0  0  0  0  0  0  0  0
   48.2820  161.1070   32.3730 C   0  0  0  0  0  0  0  0  0  0  0  0
   49.6170  161.2120   31.9920 C   0  0  0  0  0  0  0  0  0  0  0  0
   50.2830  162.3410   32.3810 O   0  0  0  0  0  0  0  0  0  0  0  0
   50.2130  160.1910   31.2460 C   0  0  0  0  0  0  0  0  0  0  0  0
   51.6130  160.2630   30.8250 C   0  0  0  0  0  0  0  0  0  0  0  0
   52.3280  161.2250   31.1000 O   0  0  0  0  0  0  0  0  0  0  0  0
   52.1530  159.1250   30.0440 C   0  0  0  0  0  0  0  0  0  0  0  0
   53.4720  159.2080   29.6400 O   0  0  0  0  0  0  0  0  0  0  0  0
   51.5090  155.6290   29.4730 C   0  0  0  0  0  0  0  0  0  0  0  0
   51.9270  154.5000   28.7620 C   0  0  0  0  0  0  0  0  0  0  0  0
   52.6130  154.6270   27.5440 C   0  0  0  0  0  0  0  0  0  0  0  0
   53.0170  153.3680   26.8120 C   0  0  0  0  0  0  0  0  0  0  0  0
   51.8950  152.3440   26.7670 C   0  0  0  0  0  0  0  0  0  0  0  0
   52.4140  151.1440   26.3860 F   0  0  0  0  0  0  0  0  0  0  0  0
   54.6490  156.4268   25.9617 H   0  0  0  0  0  0  0  0  0  0  0  0
   53.6152  155.1939   25.1631 H   0  0  0  0  0  0  0  0  0  0  0  0
   53.1174  156.9198   25.1631 H   0  0  0  0  0  0  0  0  0  0  0  0
   52.6667  158.0463   27.3770 H   0  0  0  0  0  0  0  0  0  0  0  0
   47.5519  158.0763   30.9736 H   0  0  0  0  0  0  0  0  0  0  0  0
   46.4866  159.8962   32.3108 H   0  0  0  0  0  0  0  0  0  0  0  0
   47.8118  161.9098   32.9598 H   0  0  0  0  0  0  0  0  0  0  0  0
   50.6710  162.3860   33.2330 H   0  0  0  0  0  0  0  0  0  0  0  0
   54.1450  159.3740   30.2710 H   0  0  0  0  0  0  0  0  0  0  0  0
   50.9790  155.5053   30.4289 H   0  0  0  0  0  0  0  0  0  0  0  0
   51.7152  153.4978   29.1629 H   0  0  0  0  0  0  0  0  0  0  0  0
   53.2970  153.6319   25.7815 H   0  0  0  0  0  0  0  0  0  0  0  0
   53.8620  152.9189   27.3544 H   0  0  0  0  0  0  0  0  0  0  0  0
   51.4391  152.2504   27.7637 H   0  0  0  0  0  0  0  0  0  0  0  0
   51.1244  152.6636   26.0500 H   0  0  0  0  0  0  0  0  0  0  0  0
  1  2  1  0
  2  3  2  0
  3  4  1  0
  4  5  1  0
  5  6  1  0
  6  7  1  0
  7  8  2  0
  8  9  1  0
  9 10  2  0
 10 11  1  0
 11 12  1  0
 11 13  2  0
 13 14  1  0
 14 15  2  0
 14 16  1  0
 16 17  1  0
  4 18  2  0
 18 19  1  0
 19 20  2  0
 20 21  1  0
 21 22  1  0
 22 23  1  0
 20  2  1  0
 16  5  2  0
 13  7  1  0
  1 24  1  0
  1 25  1  0
  1 26  1  0
  3 27  1  0
  8 28  1  0
  9 29  1  0
 10 30  1  0
 12 31  1  0
 17 32  1  0
 18 33  1  0
 19 34  1  0
 21 35  1  0
 21 36  1  0
 22 37  1  0
 22 38  1  0
M  END
>  <meeko>  (3) 
{"is_sidechain": [false], "free_energy": -9.779, "intermolecular_energy": -12.213, "internal_energy": -0.156}

$$$$
cand_047_out
     RDKit          3D

 38 40  0  0  0  0  0  0  0  0999 V2000
   51.8760  153.2980   28.8540 C   0  0  0  0  0  0  0  0  0  0  0  0
   52.1300  154.7140   28.4150 C   0  0  0  0  0  0  0  0  0  0  0  0
   51.6780  155.7670   29.2330 C   0  0  0  0  0  0  0  0  0  0  0  0
   51.8770  157.1100   28.8810 C   0  0  0  0  0  0  0  0  0  0  0  0
   51.3840  158.2170   29.7280 C   0  0  0  0  0  0  0  0  0  0  0  0
   50.0410  158.0870   30.0620 O   0  0  0  0  0  0  0  0  0  0  0  0
   49.4560  159.0470   30.8470 C   0  0  0  0  0  0  0  0  0  0  0  0
   48.1100  158.8680   31.1690 C   0  0  0  0  0  0  0  0  0  0  0  0
   47.4530  159.8100   31.9640 C   0  0  0  0  0  0  0  0  0  0  0  0
   48.1410  160.9310   32.4350 C   0  0  0  0  0  0  0  0  0  0  0  0
   49.4840  161.1070   32.1110 C   0  0  0  0  0  0  0  0  0  0  0  0
   50.0970  162.2260   32.6030 O   0  0  0  0  0  0  0  0  0  0  0  0
   50.1410  160.1630   31.3160 C   0  0  0  0  0  0  0  0  0  0  0  0
   51.5510  160.3110   30.9520 C   0  0  0  0  0  0  0  0  0  0  0  0
   52.2220  161.2730   31.3210 O   0  0  0  0  0  0  0  0  0  0  0  0
   52.1570  159.2510   30.1130 C   0  0  0  0  0  0  0  0  0  0  0  0
   53.4860  159.4060   29.7640 O   0  0  0  0  0  0  0  0  0  0  0  0
   52.5230  157.3930   27.6740 C   0  0  0  0  0  0  0  0  0  0  0  0
   52.9720  156.3590   26.8470 C   0  0  0  0  0  0  0  0  0  0  0  0
   52.7790  155.0150   27.2020 C   0  0  0  0  0  0  0  0  0  0  0  0
   53.3080  153.9440   26.2760 C   0  0  0  0  0  0  0  0  0  0  0  0
   53.9700  154.5300   25.0400 C   0  0  0  0  0  0  0  0  0  0  0  0
   53.3450  154.0350   23.9360 F   0  0  0  0  0  0  0  0  0  0  0  0
   51.8675  153.2508   29.9530 H   0  0  0  0  0  0  0  0  0  0  0  0
   50.9033  152.9624   28.4651 H   0  0  0  0  0  0  0  0  0  0  0  0
   52.6714  152.6453   28.4651 H   0  0  0  0  0  0  0  0  0  0  0  0
   51.1557  155.5305   30.1717 H   0  0  0  0  0  0  0  0  0  0  0  0
   47.5672  157.9864   30.7973 H   0  0  0  0  0  0  0  0  0  0  0  0
   46.3924  159.6690   32.2196 H   0  0  0  0  0  0  0  0  0  0  0  0
   47.6231  161.6730   33.0604 H   0  0  0  0  0  0  0  0  0  0  0  0
   50.1130  163.0130   32.0940 H   0  0  0  0  0  0  0  0  0  0  0  0
   53.7170  159.9430   29.0330 H   0  0  0  0  0  0  0  0  0  0  0  0
   52.6795  158.4391   27.3721 H   0  0  0  0  0  0  0  0  0  0  0  0
   53.4840  156.6024   25.9043 H   0  0  0  0  0  0  0  0  0  0  0  0
   54.0474  153.3384   26.8205 H   0  0  0  0  0  0  0  0  0  0  0  0
   52.4557  153.3325   25.9449 H   0  0  0  0  0  0  0  0  0  0  0  0
   53.8804  155.6262   25.0562 H   0  0  0  0  0  0  0  0  0  0  0  0
   55.0361  154.2597   25.0210 H   0  0  0  0  0  0  0  0  0  0  0  0
  1  2  1  0
  2  3  2  0
  3  4  1  0
  4  5  1  0
  5  6  1  0
  6  7  1  0
  7  8  2  0
  8  9  1  0
  9 10  2  0
 10 11  1  0
 11 12  1  0
 11 13  2  0
 13 14  1  0
 14 15  2  0
 14 16  1  0
 16 17  1  0
  4 18  2  0
 18 19  1  0
 19 20  2  0
 20 21  1  0
 21 22  1  0
 22 23  1  0
 20  2  1  0
 16  5  2  0
 13  7  1  0
  1 24  1  0
  1 25  1  0
  1 26  1  0
  3 27  1  0
  8 28  1  0
  9 29  1  0
 10 30  1  0
 12 31  1  0
 17 32  1  0
 18 33  1  0
 19 34  1  0
 21 35  1  0
 21 36  1  0
 22 37  1  0
 22 38  1  0
M  END
>  <meeko>  (4) 
{"is_sidechain": [false], "free_energy": -9.255, "intermolecular_energy": -11.52, "internal_energy": -0.202}

$$$$
cand_047_out
     RDKit          3D

 38 40  0  0  0  0  0  0  0  0999 V2000
   53.7370  155.9110   25.5380 C   0  0  0  0  0  0  0  0  0  0  0  0
   52.9980  155.5670   26.8020 C   0  0  0  0  0  0  0  0  0  0  0  0
   52.3760  156.6030   27.5260 C   0  0  0  0  0  0  0  0  0  0  0  0
   51.6760  156.3540   28.7150 C   0  0  0  0  0  0  0  0  0  0  0  0
   51.0420  157.4430   29.4870 C   0  0  0  0  0  0  0  0  0  0  0  0
   51.9140  158.4890   29.7650 O   0  0  0  0  0  0  0  0  0  0  0  0
   51.4520  159.5670   30.4750 C   0  0  0  0  0  0  0  0  0  0  0  0
   52.3580  160.6000   30.7180 C   0  0  0  0  0  0  0  0  0  0  0  0
   51.9530  161.7270   31.4370 C   0  0  0  0  0  0  0  0  0  0  0  0
   50.6440  161.8190   31.9140 C   0  0  0  0  0  0  0  0  0  0  0  0
   49.7420  160.7860   31.6720 C   0  0  0  0  0  0  0  0  0  0  0  0
   48.4770  160.9400   32.1680 O   0  0  0  0  0  0  0  0  0  0  0  0
   50.1490  159.6600   30.9510 C   0  0  0  0  0  0  0  0  0  0  0  0
   49.2330  158.5510   30.6740 C   0  0  0  0  0  0  0  0  0  0  0  0
   48.0680  158.5550   31.0670 O   0  0  0  0  0  0  0  0  0  0  0  0
   49.7580  157.4070   29.8940 C   0  0  0  0  0  0  0  0  0  0  0  0
   48.8890  156.3600   29.6490 O   0  0  0  0  0  0  0  0  0  0  0  0
   51.6220  155.0410   29.1910 C   0  0  0  0  0  0  0  0  0  0  0  0
   52.2390  154.0010   28.4890 C   0  0  0  0  0  0  0  0  0  0  0  0
   52.9340  154.2500   27.2950 C   0  0  0  0  0  0  0  0  0  0  0  0
   53.5600  153.0800   26.5710 C   0  0  0  0  0  0  0  0  0  0  0  0
   52.5590  151.9670   26.3070 C   0  0  0  0  0  0  0  0  0  0  0  0
   53.1630  151.0090   25.5500 F   0  0  0  0  0  0  0  0  0  0  0  0
   54.7073  156.3627   25.7919 H   0  0  0  0  0  0  0  0  0  0  0  0
   53.9011  154.9967   24.9488 H   0  0  0  0  0  0  0  0  0  0  0  0
   53.1431  156.6252   24.9488 H   0  0  0  0  0  0  0  0  0  0  0  0
   52.4412  157.6342   27.1487 H   0  0  0  0  0  0  0  0  0  0  0  0
   53.3898  160.5269   30.3438 H   0  0  0  0  0  0  0  0  0  0  0  0
   52.6659  162.5427   31.6276 H   0  0  0  0  0  0  0  0  0  0  0  0
   50.3255  162.7066   32.4804 H   0  0  0  0  0  0  0  0  0  0  0  0
   48.1580  161.7960   32.3770 H   0  0  0  0  0  0  0  0  0  0  0  0
   49.2240  155.5280   29.3790 H   0  0  0  0  0  0  0  0  0  0  0  0
   51.0884  154.8235   30.1280 H   0  0  0  0  0  0  0  0  0  0  0  0
   52.1790  152.9737   28.8776 H   0  0  0  0  0  0  0  0  0  0  0  0
   53.9607  153.4319   25.6089 H   0  0  0  0  0  0  0  0  0  0  0  0
   54.3567  152.6733   27.2113 H   0  0  0  0  0  0  0  0  0  0  0  0
   52.2290  151.5314   27.2617 H   0  0  0  0  0  0  0  0  0  0  0  0
   51.6829  152.3680   25.7763 H   0  0  0  0  0  0  0  0  0  0  0  0
  1  2  1  0
  2  3  2  0
  3  4  1  0
  4  5  1  0
  5  6  1  0
  6  7  1  0
  7  8  2  0
  8  9  1  0
  9 10  2  0
 10 11  1  0
 11 12  1  0
 11 13  2  0
 13 14  1  0
 14 15  2  0
 14 16  1  0
 16 17  1  0
  4 18  2  0
 18 19  1  0
 19 20  2  0
 20 21  1  0
 21 22  1  0
 22 23  1  0
 20  2  1  0
 16  5  2  0
 13  7  1  0
  1 24  1  0
  1 25  1  0
  1 26  1  0
  3 27  1  0
  8 28  1  0
  9 29  1  0
 10 30  1  0
 12 31  1  0
 17 32  1  0
 18 33  1  0
 19 34  1  0
 21 35  1  0
 21 36  1  0
 22 37  1  0
 22 38  1  0
M  END
>  <meeko>  (5) 
{"is_sidechain": [false], "free_energy": -8.826, "intermolecular_energy": -11.012, "internal_energy": -0.181}

$$$$
cand_047_out
     RDKit          3D

 38 40  0  0  0  0  0  0  0  0999 V2000
   52.0200  159.4460   30.0560 C   0  0  0  0  0  0  0  0  0  0  0  0
   51.4360  158.1120   29.6780 C   0  0  0  0  0  0  0  0  0  0  0  0
   52.1320  157.3060   28.7570 C   0  0  0  0  0  0  0  0  0  0  0  0
   51.6420  156.0540   28.3570 C   0  0  0  0  0  0  0  0  0  0  0  0
   52.3600  155.2160   27.3730 C   0  0  0  0  0  0  0  0  0  0  0  0
   52.0430  153.8660   27.4790 O   0  0  0  0  0  0  0  0  0  0  0  0
   52.6390  152.9760   26.6240 C   0  0  0  0  0  0  0  0  0  0  0  0
   52.2800  151.6340   26.7550 C   0  0  0  0  0  0  0  0  0  0  0  0
   52.8520  150.6740   25.9160 C   0  0  0  0  0  0  0  0  0  0  0  0
   53.7830  151.0570   24.9480 C   0  0  0  0  0  0  0  0  0  0  0  0
   54.1400  152.3960   24.8190 C   0  0  0  0  0  0  0  0  0  0  0  0
   55.0580  152.7020   23.8520 O   0  0  0  0  0  0  0  0  0  0  0  0
   53.5660  153.3560   25.6590 C   0  0  0  0  0  0  0  0  0  0  0  0
   53.9140  154.7750   25.5570 C   0  0  0  0  0  0  0  0  0  0  0  0
   54.7300  155.1880   24.7360 O   0  0  0  0  0  0  0  0  0  0  0  0
   53.2440  155.7120   26.4870 C   0  0  0  0  0  0  0  0  0  0  0  0
   53.5890  157.0480   26.3920 O   0  0  0  0  0  0  0  0  0  0  0  0
   50.4190  155.6210   28.8780 C   0  0  0  0  0  0  0  0  0  0  0  0
   49.7120  156.4110   29.7880 C   0  0  0  0  0  0  0  0  0  0  0  0
   50.2060  157.6620   30.1950 C   0  0  0  0  0  0  0  0  0  0  0  0
   49.4060  158.4590   31.1990 C   0  0  0  0  0  0  0  0  0  0  0  0
   48.0930  158.9590   30.6190 C   0  0  0  0  0  0  0  0  0  0  0  0
   47.4560  159.7050   31.5640 F   0  0  0  0  0  0  0  0  0  0  0  0
   52.0578  159.5324   31.1519 H   0  0  0  0  0  0  0  0  0  0  0  0
   53.0373  159.5303   29.6462 H   0  0  0  0  0  0  0  0  0  0  0  0
   51.3918  160.2507   29.6462 H   0  0  0  0  0  0  0  0  0  0  0  0
   53.0840  157.6672   28.3407 H   0  0  0  0  0  0  0  0  0  0  0  0
   51.5474  151.3320   27.5180 H   0  0  0  0  0  0  0  0  0  0  0  0
   52.5688  149.6160   26.0180 H   0  0  0  0  0  0  0  0  0  0  0  0
   54.2337  150.3011   24.2881 H   0  0  0  0  0  0  0  0  0  0  0  0
   55.9640  152.7870   24.0770 H   0  0  0  0  0  0  0  0  0  0  0  0
   54.1940  157.3290   25.7340 H   0  0  0  0  0  0  0  0  0  0  0  0
   50.0092  154.6483   28.5683 H   0  0  0  0  0  0  0  0  0  0  0  0
   48.7551  156.0485   30.1916 H   0  0  0  0  0  0  0  0  0  0  0  0
   49.1891  157.8194   32.0673 H   0  0  0  0  0  0  0  0  0  0  0  0
   50.0038  159.3361   31.4877 H   0  0  0  0  0  0  0  0  0  0  0  0
   48.2917  159.5771   29.7310 H   0  0  0  0  0  0  0  0  0  0  0  0
   47.4629  158.1063   30.3261 H   0  0  0  0  0  0  0  0  0  0  0  0
  1  2  1  0
  2  3  2  0
  3  4  1  0
  4  5  1  0
  5  6  1  0
  6  7  1  0
  7  8  2  0
  8  9  1  0
  9 10  2  0
 10 11  1  0
 11 12  1  0
 11 13  2  0
 13 14  1  0
 14 15  2  0
 14 16  1  0
 16 17  1  0
  4 18  2  0
 18 19  1  0
 19 20  2  0
 20 21  1  0
 21 22  1  0
 22 23  1  0
 20  2  1  0
 16  5  2  0
 13  7  1  0
  1 24  1  0
  1 25  1  0
  1 26  1  0
  3 27  1  0
  8 28  1  0
  9 29  1  0
 10 30  1  0
 12 31  1  0
 17 32  1  0
 18 33  1  0
 19 34  1  0
 21 35  1  0
 21 36  1  0
 22 37  1  0
 22 38  1  0
M  END
>  <meeko>  (6) 
{"is_sidechain": [false], "free_energy": -8.719, "intermolecular_energy": -11.173, "internal_energy": 0.112}

$$$$
cand_047_out
     RDKit          3D

 38 40  0  0  0  0  0  0  0  0999 V2000
   51.8900  152.7910   28.1720 C   0  0  0  0  0  0  0  0  0  0  0  0
   52.1850  154.2420   27.9080 C   0  0  0  0  0  0  0  0  0  0  0  0
   51.5950  155.2140   28.7400 C   0  0  0  0  0  0  0  0  0  0  0  0
   51.8240  156.5840   28.5460 C   0  0  0  0  0  0  0  0  0  0  0  0
   51.1880  157.6070   29.4050 C   0  0  0  0  0  0  0  0  0  0  0  0
   52.0210  158.6890   29.6640 O   0  0  0  0  0  0  0  0  0  0  0  0
   51.5540  159.7130   30.4470 C   0  0  0  0  0  0  0  0  0  0  0  0
   52.4190  160.7860   30.6690 C   0  0  0  0  0  0  0  0  0  0  0  0
   52.0060  161.8610   31.4590 C   0  0  0  0  0  0  0  0  0  0  0  0
   50.7320  161.8620   32.0300 C   0  0  0  0  0  0  0  0  0  0  0  0
   49.8710  160.7890   31.8080 C   0  0  0  0  0  0  0  0  0  0  0  0
   48.6390  160.8530   32.3970 O   0  0  0  0  0  0  0  0  0  0  0  0
   50.2850  159.7150   31.0150 C   0  0  0  0  0  0  0  0  0  0  0  0
   49.4120  158.5680   30.7580 C   0  0  0  0  0  0  0  0  0  0  0  0
   48.2800  158.4920   31.2300 O   0  0  0  0  0  0  0  0  0  0  0  0
   49.9410  157.4840   29.8970 C   0  0  0  0  0  0  0  0  0  0  0  0
   49.1140  156.3990   29.6710 O   0  0  0  0  0  0  0  0  0  0  0  0
   52.6430  156.9790   27.4850 C   0  0  0  0  0  0  0  0  0  0  0  0
   53.2310  156.0280   26.6460 C   0  0  0  0  0  0  0  0  0  0  0  0
   53.0080  154.6560   26.8430 C   0  0  0  0  0  0  0  0  0  0  0  0
   53.6910  153.6760   25.9170 C   0  0  0  0  0  0  0  0  0  0  0  0
   54.1830  154.3410   24.6410 C   0  0  0  0  0  0  0  0  0  0  0  0
   53.7550  153.6080   23.5750 F   0  0  0  0  0  0  0  0  0  0  0  0
   51.8544  152.6157   29.2574 H   0  0  0  0  0  0  0  0  0  0  0  0
   50.9198  152.5270   27.7259 H   0  0  0  0  0  0  0  0  0  0  0  0
   52.6801  152.1691   27.7259 H   0  0  0  0  0  0  0  0  0  0  0  0
   50.9389  154.8906   29.5616 H   0  0  0  0  0  0  0  0  0  0  0  0
   53.4243  160.7847   30.2224 H   0  0  0  0  0  0  0  0  0  0  0  0
   52.6857  162.7085   31.6317 H   0  0  0  0  0  0  0  0  0  0  0  0
   50.4085  162.7082   32.6539 H   0  0  0  0  0  0  0  0  0  0  0  0
   48.5110  160.4980   33.2550 H   0  0  0  0  0  0  0  0  0  0  0  0
   48.2260  156.4190   29.9680 H   0  0  0  0  0  0  0  0  0  0  0  0
   52.8269  158.0490   27.3082 H   0  0  0  0  0  0  0  0  0  0  0  0
   53.8774  156.3593   25.8199 H   0  0  0  0  0  0  0  0  0  0  0  0
   54.5513  153.2339   26.4408 H   0  0  0  0  0  0  0  0  0  0  0  0
   52.9560  152.9073   25.6362 H   0  0  0  0  0  0  0  0  0  0  0  0
   53.7780  155.3616   24.5753 H   0  0  0  0  0  0  0  0  0  0  0  0
   55.2818  154.3928   24.6442 H   0  0  0  0  0  0  0  0  0  0  0  0
  1  2  1  0
  2  3  2  0
  3  4  1  0
  4  5  1  0
  5  6  1  0
  6  7  1  0
  7  8  2  0
  8  9  1  0
  9 10  2  0
 10 11  1  0
 11 12  1  0
 11 13  2  0
 13 14  1  0
 14 15  2  0
 14 16  1  0
 16 17  1  0
  4 18  2  0
 18 19  1  0
 19 20  2  0
 20 21  1  0
 21 22  1  0
 22 23  1  0
 20  2  1  0
 16  5  2  0
 13  7  1  0
  1 24  1  0
  1 25  1  0
  1 26  1  0
  3 27  1  0
  8 28  1  0
  9 29  1  0
 10 30  1  0
 12 31  1  0
 17 32  1  0
 18 33  1  0
 19 34  1  0
 21 35  1  0
 21 36  1  0
 22 37  1  0
 22 38  1  0
M  END
>  <meeko>  (7) 
{"is_sidechain": [false], "free_energy": -8.409, "intermolecular_energy": -10.649, "internal_energy": -0.028}

$$$$
cand_047_out
     RDKit          3D

 38 40  0  0  0  0  0  0  0  0999 V2000
   48.9430  157.1320   30.4380 C   0  0  0  0  0  0  0  0  0  0  0  0
   50.3020  157.1380   29.7940 C   0  0  0  0  0  0  0  0  0  0  0  0
   50.6760  156.0420   28.9930 C   0  0  0  0  0  0  0  0  0  0  0  0
   51.9300  155.9800   28.3680 C   0  0  0  0  0  0  0  0  0  0  0  0
   52.3330  154.8200   27.5450 C   0  0  0  0  0  0  0  0  0  0  0  0
   53.0270  155.1860   26.3970 O   0  0  0  0  0  0  0  0  0  0  0  0
   53.4610  154.2050   25.5440 C   0  0  0  0  0  0  0  0  0  0  0  0
   54.1670  154.6170   24.4120 C   0  0  0  0  0  0  0  0  0  0  0  0
   54.6360  153.6680   23.5000 C   0  0  0  0  0  0  0  0  0  0  0  0
   54.3980  152.3100   23.7190 C   0  0  0  0  0  0  0  0  0  0  0  0
   53.6930  151.9010   24.8490 C   0  0  0  0  0  0  0  0  0  0  0  0
   53.4950  150.5570   25.0010 O   0  0  0  0  0  0  0  0  0  0  0  0
   53.2250  152.8520   25.7610 C   0  0  0  0  0  0  0  0  0  0  0  0
   52.4800  152.4650   26.9610 C   0  0  0  0  0  0  0  0  0  0  0  0
   52.2250  151.2910   27.2190 O   0  0  0  0  0  0  0  0  0  0  0  0
   52.0350  153.5480   27.8690 C   0  0  0  0  0  0  0  0  0  0  0  0
   51.3210  153.1730   28.9920 O   0  0  0  0  0  0  0  0  0  0  0  0
   52.8280  157.0320   28.5730 C   0  0  0  0  0  0  0  0  0  0  0  0
   52.4750  158.1250   29.3700 C   0  0  0  0  0  0  0  0  0  0  0  0
   51.2170  158.1900   29.9910 C   0  0  0  0  0  0  0  0  0  0  0  0
   50.8870  159.4090   30.8210 C   0  0  0  0  0  0  0  0  0  0  0  0
   50.2350  160.5070   29.9960 C   0  0  0  0  0  0  0  0  0  0  0  0
   51.0910  161.5640   29.9240 F   0  0  0  0  0  0  0  0  0  0  0  0
   49.0558  157.1325   31.5322 H   0  0  0  0  0  0  0  0  0  0  0  0
   48.3856  158.0277   30.1264 H   0  0  0  0  0  0  0  0  0  0  0  0
   48.3936  156.2314   30.1264 H   0  0  0  0  0  0  0  0  0  0  0  0
   49.9664  155.2131   28.8539 H   0  0  0  0  0  0  0  0  0  0  0  0
   54.3537  155.6871   24.2384 H   0  0  0  0  0  0  0  0  0  0  0  0
   55.1934  153.9913   22.6085 H   0  0  0  0  0  0  0  0  0  0  0  0
   54.7667  151.5635   23.0001 H   0  0  0  0  0  0  0  0  0  0  0  0
   54.1530  150.0310   25.4110 H   0  0  0  0  0  0  0  0  0  0  0  0
   50.9570  152.3120   29.0490 H   0  0  0  0  0  0  0  0  0  0  0  0
   53.8218  156.9993   28.1026 H   0  0  0  0  0  0  0  0  0  0  0  0
   53.1930  158.9460   29.5128 H   0  0  0  0  0  0  0  0  0  0  0  0
   50.1973  159.1136   31.6254 H   0  0  0  0  0  0  0  0  0  0  0  0
   51.8292  159.8061   31.2267 H   0  0  0  0  0  0  0  0  0  0  0  0
   50.0223  160.1330   28.9836 H   0  0  0  0  0  0  0  0  0  0  0  0
   49.2911  160.8197   30.4664 H   0  0  0  0  0  0  0  0  0  0  0  0
  1  2  1  0
  2  3  2  0
  3  4  1  0
  4  5  1  0
  5  6  1  0
  6  7  1  0
  7  8  2  0
  8  9  1  0
  9 10  2  0
 10 11  1  0
 11 12  1  0
 11 13  2  0
 13 14  1  0
 14 15  2  0
 14 16  1  0
 16 17  1  0
  4 18  2  0
 18 19  1  0
 19 20  2  0
 20 21  1  0
 21 22  1  0
 22 23  1  0
 20  2  1  0
 16  5  2  0
 13  7  1  0
  1 24  1  0
  1 25  1  0
  1 26  1  0
  3 27  1  0
  8 28  1  0
  9 29  1  0
 10 30  1  0
 12 31  1  0
 17 32  1  0
 18 33  1  0
 19 34  1  0
 21 35  1  0
 21 36  1  0
 22 37  1  0
 22 38  1  0
M  END
>  <meeko>  (8) 
{"is_sidechain": [false], "free_energy": -8.338, "intermolecular_energy": -10.51, "internal_energy": -0.08}

$$$$
cand_047_out
     RDKit          3D

 38 40  0  0  0  0  0  0  0  0999 V2000
   49.2240  156.6510   30.2500 C   0  0  0  0  0  0  0  0  0  0  0  0
   50.5170  156.8990   29.5230 C   0  0  0  0  0  0  0  0  0  0  0  0
   50.9920  155.9150   28.6330 C   0  0  0  0  0  0  0  0  0  0  0  0
   52.1930  156.0790   27.9270 C   0  0  0  0  0  0  0  0  0  0  0  0
   52.7030  155.0390   27.0090 C   0  0  0  0  0  0  0  0  0  0  0  0
   52.2710  153.7610   27.3450 O   0  0  0  0  0  0  0  0  0  0  0  0
   52.6710  152.7010   26.5730 C   0  0  0  0  0  0  0  0  0  0  0  0
   52.2020  151.4390   26.9380 C   0  0  0  0  0  0  0  0  0  0  0  0
   52.5720  150.3160   26.1950 C   0  0  0  0  0  0  0  0  0  0  0  0
   53.4140  150.4550   25.0890 C   0  0  0  0  0  0  0  0  0  0  0  0
   53.8820  151.7150   24.7270 C   0  0  0  0  0  0  0  0  0  0  0  0
   54.7020  151.7800   23.6350 O   0  0  0  0  0  0  0  0  0  0  0  0
   53.5090  152.8390   25.4710 C   0  0  0  0  0  0  0  0  0  0  0  0
   53.9790  154.1820   25.1250 C   0  0  0  0  0  0  0  0  0  0  0  0
   54.7270  154.3840   24.1710 O   0  0  0  0  0  0  0  0  0  0  0  0
   53.5190  155.3070   25.9720 C   0  0  0  0  0  0  0  0  0  0  0  0
   53.9790  156.5700   25.6440 O   0  0  0  0  0  0  0  0  0  0  0  0
   52.9350  157.2440   28.1390 C   0  0  0  0  0  0  0  0  0  0  0  0
   52.4820  158.2270   29.0230 C   0  0  0  0  0  0  0  0  0  0  0  0
   51.2770  158.0670   29.7260 C   0  0  0  0  0  0  0  0  0  0  0  0
   50.8300  159.1760   30.6500 C   0  0  0  0  0  0  0  0  0  0  0  0
   51.7590  160.3780   30.5950 C   0  0  0  0  0  0  0  0  0  0  0  0
   51.5590  161.1340   31.7100 F   0  0  0  0  0  0  0  0  0  0  0  0
   49.4011  156.6850   31.3351 H   0  0  0  0  0  0  0  0  0  0  0  0
   48.4934  157.4254   29.9733 H   0  0  0  0  0  0  0  0  0  0  0  0
   48.8318  155.6613   29.9733 H   0  0  0  0  0  0  0  0  0  0  0  0
   50.4063  154.9952   28.4883 H   0  0  0  0  0  0  0  0  0  0  0  0
   51.5412  151.3285   27.8104 H   0  0  0  0  0  0  0  0  0  0  0  0
   52.2001  149.3210   26.4809 H   0  0  0  0  0  0  0  0  0  0  0  0
   53.7068  149.5700   24.5050 H   0  0  0  0  0  0  0  0  0  0  0  0
   55.6320  151.8200   23.7500 H   0  0  0  0  0  0  0  0  0  0  0  0
   54.1910  156.7740   24.7550 H   0  0  0  0  0  0  0  0  0  0  0  0
   53.8855  157.3888   27.6045 H   0  0  0  0  0  0  0  0  0  0  0  0
   53.0782  159.1396   29.1703 H   0  0  0  0  0  0  0  0  0  0  0  0
   49.8192  159.4957   30.3568 H   0  0  0  0  0  0  0  0  0  0  0  0
   50.8435  158.7852   31.6782 H   0  0  0  0  0  0  0  0  0  0  0  0
   52.8043  160.0371   30.5612 H   0  0  0  0  0  0  0  0  0  0  0  0
   51.5489  160.9740   29.6946 H   0  0  0  0  0  0  0  0  0  0  0  0
  1  2  1  0
  2  3  2  0
  3  4  1  0
  4  5  1  0
  5  6  1  0
  6  7  1  0
  7  8  2  0
  8  9  1  0
  9 10  2  0
 10 11  1  0
 11 12  1  0
 11 13  2  0
 13 14  1  0
 14 15  2  0
 14 16  1  0
 16 17  1  0
  4 18  2  0
 18 19  1  0
 19 20  2  0
 20 21  1  0
 21 22  1  0
 22 23  1  0
 20  2  1  0
 16  5  2  0
 13  7  1  0
  1 24  1  0
  1 25  1  0
  1 26  1  0
  3 27  1  0
  8 28  1  0
  9 29  1  0
 10 30  1  0
 12 31  1  0
 17 32  1  0
 18 33  1  0
 19 34  1  0
 21 35  1  0
 21 36  1  0
 22 37  1  0
 22 38  1  0
M  END
>  <meeko>  (9) 
{"is_sidechain": [false], "free_energy": -7.803, "intermolecular_energy": -10.052, "internal_energy": 0.122}

$$$$
