cand_016_out
     RDKit          3D

 35 37  0  0  0  0  0  0  0  0999 V2000
   52.1880  161.0540   30.6400 C   0  0  0  0  0  0  0  0  0  0  0  0
   51.3520  159.8180   30.4430 C   0  0  0  0  0  0  0  0  0  0  0  0
   51.8960  158.7370   29.7250 C   0  0  0  0  0  0  0  0  0  0  0  0
   51.1710  157.5550   29.5160 C   0  0  0  0  0  0  0  0  0  0  0  0
   51.7480  156.4090   28.7800 C   0  0  0  0  0  0  0  0  0  0  0  0
   52.3460  156.7820   27.5810 O   0  0  0  0  0  0  0  0  0  0  0  0
   52.9220  155.8150   26.7990 C   0  0  0  0  0  0  0  0  0  0  0  0
   53.4960  156.2310   25.5970 C   0  0  0  0  0  0  0  0  0  0  0  0
   54.1000  155.2960   24.7530 C   0  0  0  0  0  0  0  0  0  0  0  0
   54.1300  153.9470   25.1100 C   0  0  0  0  0  0  0  0  0  0  0  0
   53.5560  153.5340   26.3100 C   0  0  0  0  0  0  0  0  0  0  0  0
   53.6210  152.1990   26.5980 O   0  0  0  0  0  0  0  0  0  0  0  0
   52.9510  154.4700   27.1540 C   0  0  0  0  0  0  0  0  0  0  0  0
   52.3360  154.0780   28.4230 C   0  0  0  0  0  0  0  0  0  0  0  0
   52.3280  152.9110   28.8110 O   0  0  0  0  0  0  0  0  0  0  0  0
   51.7140  155.1450   29.2400 C   0  0  0  0  0  0  0  0  0  0  0  0
   51.1470  154.7670   30.4430 O   0  0  0  0  0  0  0  0  0  0  0  0
   49.8870  157.4570   30.0600 C   0  0  0  0  0  0  0  0  0  0  0  0
   49.3350  158.5170   30.7830 C   0  0  0  0  0  0  0  0  0  0  0  0
   50.0570  159.7040   30.9900 C   0  0  0  0  0  0  0  0  0  0  0  0
   49.4180  160.8340   31.7660 C   0  0  0  0  0  0  0  0  0  0  0  0
   48.4810  161.5210   31.0500 F   0  0  0  0  0  0  0  0  0  0  0  0
   48.7780  160.4140   32.8920 F   0  0  0  0  0  0  0  0  0  0  0  0
   52.3156  161.2427   31.7162 H   0  0  0  0  0  0  0  0  0  0  0  0
   53.1736  160.9081   30.1739 H   0  0  0  0  0  0  0  0  0  0  0  0
   51.6857  161.9145   30.1739 H   0  0  0  0  0  0  0  0  0  0  0  0
   52.9144  158.8212   29.3179 H   0  0  0  0  0  0  0  0  0  0  0  0
   53.4729  157.2938   25.3145 H   0  0  0  0  0  0  0  0  0  0  0  0
   54.5527  155.6234   23.8055 H   0  0  0  0  0  0  0  0  0  0  0  0
   54.6060  153.2114   24.4449 H   0  0  0  0  0  0  0  0  0  0  0  0
   53.4120  151.8940   27.4590 H   0  0  0  0  0  0  0  0  0  0  0  0
   51.4540  153.9990   30.8850 H   0  0  0  0  0  0  0  0  0  0  0  0
   49.3048  156.5347   29.9171 H   0  0  0  0  0  0  0  0  0  0  0  0
   48.3201  158.4208   31.1963 H   0  0  0  0  0  0  0  0  0  0  0  0
   50.2748  161.4785   32.0120 H   0  0  0  0  0  0  0  0  0  0  0  0
  1  2  1  0
  2  3  2  0
  3  4  1  0
  4  5  1  0
  5  6  1  0
  6  7  1  0
  7  8  2  0
  8  9  1  0
  9 10  2  0
 10 11  1  0
 11 12  1  0
 11 13  2  0
 13 14  1  0
 14 15  2  0
 14 16  1  0
 16 17  1  0
  4 18  2  0
 18 19  1  0
 19 20  2  0
 20 21  1  0
 21 22  1  0
 21 23  1  0
 20  2  1  0
 16  5  2  0
 13  7  1  0
  1 24  1  0
  1 25  1  0
  1 26  1  0
  3 27  1  0
  8 28  1  0
  9 29  1  0
 10 30  1  0
 12 31  1  0
 17 32  1  0
 18 33  1  0
 19 34  1  0
 21 35  1  0
M  END
>  <meeko>  (1) 
{"is_sidechain": [false], "free_energy": -11.033, "intermolecular_energy": -12.968, "internal_energy": -0.2}

$$$$
cand_016_out
     RDKit          3D

 35 37  0  0  0  0  0  0  0  0999 V2000
   48.2150  158.8830   31.2580 C   0  0  0  0  0  0  0  0  0  0  0  0
   49.6280  158.8800   30.7410 C   0  0  0  0  0  0  0  0  0  0  0  0
   50.0940  157.7510   30.0420 C   0  0  0  0  0  0  0  0  0  0  0  0
   51.3970  157.6910   29.5270 C   0  0  0  0  0  0  0  0  0  0  0  0
   51.8820  156.5150   28.7740 C   0  0  0  0  0  0  0  0  0  0  0  0
   52.4750  156.8550   27.5630 O   0  0  0  0  0  0  0  0  0  0  0  0
   52.9700  155.8570   26.7640 C   0  0  0  0  0  0  0  0  0  0  0  0
   53.5420  156.2420   25.5510 C   0  0  0  0  0  0  0  0  0  0  0  0
   54.0650  155.2750   24.6890 C   0  0  0  0  0  0  0  0  0  0  0  0
   54.0170  153.9250   25.0410 C   0  0  0  0  0  0  0  0  0  0  0  0
   53.4450  153.5430   26.2520 C   0  0  0  0  0  0  0  0  0  0  0  0
   53.4310  152.2050   26.5340 O   0  0  0  0  0  0  0  0  0  0  0  0
   52.9210  154.5110   27.1130 C   0  0  0  0  0  0  0  0  0  0  0  0
   52.3110  154.1530   28.3950 C   0  0  0  0  0  0  0  0  0  0  0  0
   52.2370  152.9870   28.7780 O   0  0  0  0  0  0  0  0  0  0  0  0
   51.7770  155.2530   29.2300 C   0  0  0  0  0  0  0  0  0  0  0  0
   51.2150  154.9060   30.4440 O   0  0  0  0  0  0  0  0  0  0  0  0
   52.2330  158.7980   29.7040 C   0  0  0  0  0  0  0  0  0  0  0  0
   51.7840  159.9310   30.3880 C   0  0  0  0  0  0  0  0  0  0  0  0
   50.4810  159.9910   30.9080 C   0  0  0  0  0  0  0  0  0  0  0  0
   50.0390  161.2290   31.6550 C   0  0  0  0  0  0  0  0  0  0  0  0
   48.8980  161.7860   31.1560 F   0  0  0  0  0  0  0  0  0  0  0  0
   49.7820  160.9960   32.9720 F   0  0  0  0  0  0  0  0  0  0  0  0
   48.2270  158.8830   32.3579 H   0  0  0  0  0  0  0  0  0  0  0  0
   47.6944  159.7822   30.8970 H   0  0  0  0  0  0  0  0  0  0  0  0
   47.6906  157.9860   30.8970 H   0  0  0  0  0  0  0  0  0  0  0  0
   49.4195  156.8944   29.8960 H   0  0  0  0  0  0  0  0  0  0  0  0
   53.5811  157.3058   25.2737 H   0  0  0  0  0  0  0  0  0  0  0  0
   54.5150  155.5776   23.7320 H   0  0  0  0  0  0  0  0  0  0  0  0
   54.4304  153.1640   24.3628 H   0  0  0  0  0  0  0  0  0  0  0  0
   54.2350  151.7500   26.6920 H   0  0  0  0  0  0  0  0  0  0  0  0
   50.6220  154.1820   30.4960 H   0  0  0  0  0  0  0  0  0  0  0  0
   53.2560  158.7767   29.3001 H   0  0  0  0  0  0  0  0  0  0  0  0
   52.4609  160.7879   30.5209 H   0  0  0  0  0  0  0  0  0  0  0  0
   50.8950  161.9084   31.5298 H   0  0  0  0  0  0  0  0  0  0  0  0
  1  2  1  0
  2  3  2  0
  3  4  1  0
  4  5  1  0
  5  6  1  0
  6  7  1  0
  7  8  2  0
  8  9  1  0
  9 10  2  0
 10 11  1  0
 11 12  1  0
 11 13  2  0
 13 14  1  0
 14 15  2  0
 14 16  1  0
 16 17  1  0
  4 18  2  0
 18 19  1  0
 19 20  2  0
 20 21  1  0
 21 22  1  0
 21 23  1  0
 20  2  1  0
 16  5  2  0
 13  7  1  0
  1 24  1  0
  1 25  1  0
  1 26  1  0
  3 27  1  0
  8 28  1  0
  9 29  1  0
 10 30  1  0
 12 31  1  0
 17 32  1  0
 18 33  1  0
 19 34  1  0
 21 35  1  0
M  END
>  <meeko>  (2) 
{"is_sidechain": [false], "free_energy": -10.988, "intermolecular_energy": -13.015, "internal_energy": -0.1}

$$$$
cand_016_out
     RDKit          3D

 35 37  0  0  0  0  0  0  0  0999 V2000
   53.6450  155.3470   25.3180 C   0  0  0  0  0  0  0  0  0  0  0  0
   52.9180  155.1950   26.6270 C   0  0  0  0  0  0  0  0  0  0  0  0
   52.5760  156.3510   27.3530 C   0  0  0  0  0  0  0  0  0  0  0  0
   51.8910  156.2770   28.5740 C   0  0  0  0  0  0  0  0  0  0  0  0
   51.5120  157.4910   29.3290 C   0  0  0  0  0  0  0  0  0  0  0  0
   50.1870  157.4760   29.7490 O   0  0  0  0  0  0  0  0  0  0  0  0
   49.7060  158.5430   30.4610 C   0  0  0  0  0  0  0  0  0  0  0  0
   48.3660  158.4940   30.8490 C   0  0  0  0  0  0  0  0  0  0  0  0
   47.8120  159.5490   31.5780 C   0  0  0  0  0  0  0  0  0  0  0  0
   48.5970  160.6520   31.9190 C   0  0  0  0  0  0  0  0  0  0  0  0
   49.9330  160.6990   31.5310 C   0  0  0  0  0  0  0  0  0  0  0  0
   50.6440  161.8080   31.8990 O   0  0  0  0  0  0  0  0  0  0  0  0
   50.4870  159.6440   30.8010 C   0  0  0  0  0  0  0  0  0  0  0  0
   51.8870  159.6540   30.3730 C   0  0  0  0  0  0  0  0  0  0  0  0
   52.6440  160.5850   30.6410 O   0  0  0  0  0  0  0  0  0  0  0  0
   52.3740  158.4900   29.5970 C   0  0  0  0  0  0  0  0  0  0  0  0
   53.7010  158.5030   29.2090 O   0  0  0  0  0  0  0  0  0  0  0  0
   51.5260  155.0160   29.0560 C   0  0  0  0  0  0  0  0  0  0  0  0
   51.8490  153.8590   28.3440 C   0  0  0  0  0  0  0  0  0  0  0  0
   52.5390  153.9300   27.1230 C   0  0  0  0  0  0  0  0  0  0  0  0
   52.8830  152.6530   26.3910 C   0  0  0  0  0  0  0  0  0  0  0  0
   54.1810  152.2650   26.5560 F   0  0  0  0  0  0  0  0  0  0  0  0
   52.1340  151.5880   26.7910 F   0  0  0  0  0  0  0  0  0  0  0  0
   54.7050  155.5686   25.5109 H   0  0  0  0  0  0  0  0  0  0  0  0
   53.5645  154.4126   24.7432 H   0  0  0  0  0  0  0  0  0  0  0  0
   53.1969  156.1709   24.7432 H   0  0  0  0  0  0  0  0  0  0  0  0
   52.8531  157.3373   26.9525 H   0  0  0  0  0  0  0  0  0  0  0  0
   47.7468  157.6253   30.5809 H   0  0  0  0  0  0  0  0  0  0  0  0
   46.7560  159.5106   31.8837 H   0  0  0  0  0  0  0  0  0  0  0  0
   48.1605  161.4825   32.4933 H   0  0  0  0  0  0  0  0  0  0  0  0
   50.5140  162.6200   31.4490 H   0  0  0  0  0  0  0  0  0  0  0  0
   54.2000  159.2940   29.2720 H   0  0  0  0  0  0  0  0  0  0  0  0
   50.9784  154.9346   30.0065 H   0  0  0  0  0  0  0  0  0  0  0  0
   51.5585  152.8770   28.7457 H   0  0  0  0  0  0  0  0  0  0  0  0
   52.6802  152.9116   25.3412 H   0  0  0  0  0  0  0  0  0  0  0  0
  1  2  1  0
  2  3  2  0
  3  4  1  0
  4  5  1  0
  5  6  1  0
  6  7  1  0
  7  8  2  0
  8  9  1  0
  9 10  2  0
 10 11  1  0
 11 12  1  0
 11 13  2  0
 13 14  1  0
 14 15  2  0
 14 16  1  0
 16 17  1  0
  4 18  2  0
 18 19  1  0
 19 20  2  0
 20 21  1  0
 21 22  1  0
 21 23  1  0
 20  2  1  0
 16  5  2  0
 13  7  1  0
  1 24  1  0
  1 25  1  0
  1 26  1  0
  3 27  1  0
  8 28  1  0
  9 29  1  0
 10 30  1  0
 12 31  1  0
 17 32  1  0
 18 33  1  0
 19 34  1  0
 21 35  1  0
M  END
>  <meeko>  (3) 
{"is_sidechain": [false], "free_energy": -10.359, "intermolecular_energy": -12.116, "internal_energy": -0.259}

$$$$
cand_016_out
     RDKit          3D

 35 37  0  0  0  0  0  0  0  0999 V2000
   53.7740  155.9730   25.4310 C   0  0  0  0  0  0  0  0  0  0  0  0
   53.0210  155.5950   26.6770 C   0  0  0  0  0  0  0  0  0  0  0  0
   52.4390  156.6140   27.4550 C   0  0  0  0  0  0  0  0  0  0  0  0
   51.7160  156.3260   28.6220 C   0  0  0  0  0  0  0  0  0  0  0  0
   51.0870  157.3920   29.4300 C   0  0  0  0  0  0  0  0  0  0  0  0
   51.9440  158.4560   29.6830 O   0  0  0  0  0  0  0  0  0  0  0  0
   51.4860  159.5150   30.4230 C   0  0  0  0  0  0  0  0  0  0  0  0
   52.3850  160.5540   30.6670 C   0  0  0  0  0  0  0  0  0  0  0  0
   51.9810  161.6640   31.4140 C   0  0  0  0  0  0  0  0  0  0  0  0
   50.6810  161.7350   31.9150 C   0  0  0  0  0  0  0  0  0  0  0  0
   49.7850  160.6970   31.6700 C   0  0  0  0  0  0  0  0  0  0  0  0
   48.5270  160.8310   32.1900 O   0  0  0  0  0  0  0  0  0  0  0  0
   50.1900  159.5860   30.9240 C   0  0  0  0  0  0  0  0  0  0  0  0
   49.2800  158.4740   30.6440 C   0  0  0  0  0  0  0  0  0  0  0  0
   48.1180  158.4660   31.0440 O   0  0  0  0  0  0  0  0  0  0  0  0
   49.8090  157.3400   29.8510 C   0  0  0  0  0  0  0  0  0  0  0  0
   48.9390  156.3010   29.5800 O   0  0  0  0  0  0  0  0  0  0  0  0
   51.5610  154.9870   28.9940 C   0  0  0  0  0  0  0  0  0  0  0  0
   52.1240  153.9630   28.2280 C   0  0  0  0  0  0  0  0  0  0  0  0
   52.8520  154.2490   27.0620 C   0  0  0  0  0  0  0  0  0  0  0  0
   53.4580  153.1120   26.2700 C   0  0  0  0  0  0  0  0  0  0  0  0
   54.5370  152.5420   26.8790 F   0  0  0  0  0  0  0  0  0  0  0  0
   52.5860  152.0910   26.0470 F   0  0  0  0  0  0  0  0  0  0  0  0
   54.7254  156.4506   25.7082 H   0  0  0  0  0  0  0  0  0  0  0  0
   53.9766  155.0698   24.8368 H   0  0  0  0  0  0  0  0  0  0  0  0
   53.1707  156.6751   24.8368 H   0  0  0  0  0  0  0  0  0  0  0  0
   52.5541  157.6616   27.1399 H   0  0  0  0  0  0  0  0  0  0  0  0
   53.4102  160.4995   30.2720 H   0  0  0  0  0  0  0  0  0  0  0  0
   52.6894  162.4831   31.6072 H   0  0  0  0  0  0  0  0  0  0  0  0
   50.3640  162.6092   32.5026 H   0  0  0  0  0  0  0  0  0  0  0  0
   48.2120  161.6760   32.4440 H   0  0  0  0  0  0  0  0  0  0  0  0
   49.2690  155.4310   29.4660 H   0  0  0  0  0  0  0  0  0  0  0  0
   50.9894  154.7370   29.8999 H   0  0  0  0  0  0  0  0  0  0  0  0
   51.9949  152.9171   28.5432 H   0  0  0  0  0  0  0  0  0  0  0  0
   53.7504  153.5984   25.3277 H   0  0  0  0  0  0  0  0  0  0  0  0
  1  2  1  0
  2  3  2  0
  3  4  1  0
  4  5  1  0
  5  6  1  0
  6  7  1  0
  7  8  2  0
  8  9  1  0
  9 10  2  0
 10 11  1  0
 11 12  1  0
 11 13  2  0
 13 14  1  0
 14 15  2  0
 14 16  1  0
 16 17  1  0
  4 18  2  0
 18 19  1  0
 19 20  2  0
 20 21  1  0
 21 22  1  0
 21 23  1  0
 20  2  1  0
 16  5  2  0
 13  7  1  0
  1 24  1  0
  1 25  1  0
  1 26  1  0
  3 27  1  0
  8 28  1  0
  9 29  1  0
 10 30  1  0
 12 31  1  0
 17 32  1  0
 18 33  1  0
 19 34  1  0
 21 35  1  0
M  END
>  <meeko>  (4) 
{"is_sidechain": [false], "free_energy": -9.272, "intermolecular_energy": -10.904, "internal_energy": -0.194}

$$$$
cand_016_out
     RDKit          3D

 35 37  0  0  0  0  0  0  0  0999 V2000
   51.9100  152.7990   28.1900 C   0  0  0  0  0  0  0  0  0  0  0  0
   52.1590  154.2590   27.9200 C   0  0  0  0  0  0  0  0  0  0  0  0
   51.5530  155.2180   28.7520 C   0  0  0  0  0  0  0  0  0  0  0  0
   51.7530  156.5920   28.5580 C   0  0  0  0  0  0  0  0  0  0  0  0
   51.1340  157.6010   29.4430 C   0  0  0  0  0  0  0  0  0  0  0  0
   51.9640  158.6880   29.6880 O   0  0  0  0  0  0  0  0  0  0  0  0
   51.5110  159.7000   30.4950 C   0  0  0  0  0  0  0  0  0  0  0  0
   52.3830  160.7640   30.7270 C   0  0  0  0  0  0  0  0  0  0  0  0
   51.9840  161.8280   31.5400 C   0  0  0  0  0  0  0  0  0  0  0  0
   50.7140  161.8270   32.1190 C   0  0  0  0  0  0  0  0  0  0  0  0
   49.8460  160.7640   31.8860 C   0  0  0  0  0  0  0  0  0  0  0  0
   48.6170  160.8280   32.4840 O   0  0  0  0  0  0  0  0  0  0  0  0
   50.2460  159.7000   31.0740 C   0  0  0  0  0  0  0  0  0  0  0  0
   49.3640  158.5630   30.8040 C   0  0  0  0  0  0  0  0  0  0  0  0
   48.2290  158.4930   31.2710 O   0  0  0  0  0  0  0  0  0  0  0  0
   49.8870  157.4820   29.9360 C   0  0  0  0  0  0  0  0  0  0  0  0
   49.0420  156.4200   29.6760 O   0  0  0  0  0  0  0  0  0  0  0  0
   52.5980  157.0000   27.5200 C   0  0  0  0  0  0  0  0  0  0  0  0
   53.2150  156.0610   26.6910 C   0  0  0  0  0  0  0  0  0  0  0  0
   53.0120  154.6840   26.8810 C   0  0  0  0  0  0  0  0  0  0  0  0
   53.6870  153.7020   25.9510 C   0  0  0  0  0  0  0  0  0  0  0  0
   52.8320  153.1240   25.0580 F   0  0  0  0  0  0  0  0  0  0  0  0
   54.6700  154.2660   25.1970 F   0  0  0  0  0  0  0  0  0  0  0  0
   51.8806  152.6268   29.2760 H   0  0  0  0  0  0  0  0  0  0  0  0
   50.9484  152.5027   27.7456 H   0  0  0  0  0  0  0  0  0  0  0  0
   52.7191  152.2007   27.7456 H   0  0  0  0  0  0  0  0  0  0  0  0
   50.9060  154.8813   29.5754 H   0  0  0  0  0  0  0  0  0  0  0  0
   53.3837  160.7653   30.2703 H   0  0  0  0  0  0  0  0  0  0  0  0
   52.6712  162.6670   31.7239 H   0  0  0  0  0  0  0  0  0  0  0  0
   50.3995  162.6649   32.7585 H   0  0  0  0  0  0  0  0  0  0  0  0
   47.8530  160.5500   32.0170 H   0  0  0  0  0  0  0  0  0  0  0  0
   48.3920  156.4910   29.0040 H   0  0  0  0  0  0  0  0  0  0  0  0
   52.7782  158.0726   27.3552 H   0  0  0  0  0  0  0  0  0  0  0  0
   53.8699  156.4047   25.8768 H   0  0  0  0  0  0  0  0  0  0  0  0
   54.0973  152.9531   26.6444 H   0  0  0  0  0  0  0  0  0  0  0  0
  1  2  1  0
  2  3  2  0
  3  4  1  0
  4  5  1  0
  5  6  1  0
  6  7  1  0
  7  8  2  0
  8  9  1  0
  9 10  2  0
 10 11  1  0
 11 12  1  0
 11 13  2  0
 13 14  1  0
 14 15  2  0
 14 16  1  0
 16 17  1  0
  4 18  2  0
 18 19  1  0
 19 20  2  0
 20 21  1  0
 21 22  1  0
 21 23  1  0
 20  2  1  0
 16  5  2  0
 13  7  1  0
  1 24  1  0
  1 25  1  0
  1 26  1  0
  3 27  1  0
  8 28  1  0
  9 29  1  0
 10 30  1  0
 12 31  1  0
 17 32  1  0
 18 33  1  0
 19 34  1  0
 21 35  1  0
M  END
>  <meeko>  (5) 
{"is_sidechain": [false], "free_energy": -8.773, "intermolecular_energy": -10.383, "internal_energy": -0.127}

$$$$
cand_016_out
     RDKit          3D

 35 37  0  0  0  0  0  0  0  0999 V2000
   51.9040  159.3840   30.0190 C   0  0  0  0  0  0  0  0  0  0  0  0
   51.3320  158.0480   29.6280 C   0  0  0  0  0  0  0  0  0  0  0  0
   52.0330  157.2510   28.7040 C   0  0  0  0  0  0  0  0  0  0  0  0
   51.5570  155.9930   28.3070 C   0  0  0  0  0  0  0  0  0  0  0  0
   52.3030  155.1460   27.3520 C   0  0  0  0  0  0  0  0  0  0  0  0
   51.9610  153.8020   27.4420 O   0  0  0  0  0  0  0  0  0  0  0  0
   52.5800  152.9040   26.6100 C   0  0  0  0  0  0  0  0  0  0  0  0
   52.2190  151.5630   26.7440 C   0  0  0  0  0  0  0  0  0  0  0  0
   52.8110  150.5970   25.9270 C   0  0  0  0  0  0  0  0  0  0  0  0
   53.7610  150.9720   24.9760 C   0  0  0  0  0  0  0  0  0  0  0  0
   54.1200  152.3110   24.8430 C   0  0  0  0  0  0  0  0  0  0  0  0
   55.0560  152.6080   23.8920 O   0  0  0  0  0  0  0  0  0  0  0  0
   53.5280  153.2770   25.6620 C   0  0  0  0  0  0  0  0  0  0  0  0
   53.8770  154.6940   25.5550 C   0  0  0  0  0  0  0  0  0  0  0  0
   54.6990  155.1040   24.7380 O   0  0  0  0  0  0  0  0  0  0  0  0
   53.1990  155.6370   26.4750 C   0  0  0  0  0  0  0  0  0  0  0  0
   53.5240  156.9750   26.3580 O   0  0  0  0  0  0  0  0  0  0  0  0
   50.3660  155.5250   28.8710 C   0  0  0  0  0  0  0  0  0  0  0  0
   49.6620  156.2980   29.7970 C   0  0  0  0  0  0  0  0  0  0  0  0
   50.1340  157.5610   30.1930 C   0  0  0  0  0  0  0  0  0  0  0  0
   49.3340  158.3720   31.1860 C   0  0  0  0  0  0  0  0  0  0  0  0
   49.9950  159.4750   31.6440 F   0  0  0  0  0  0  0  0  0  0  0  0
   48.1620  158.8400   30.6740 F   0  0  0  0  0  0  0  0  0  0  0  0
   51.9373  159.4618   31.1157 H   0  0  0  0  0  0  0  0  0  0  0  0
   52.9220  159.4799   29.6135 H   0  0  0  0  0  0  0  0  0  0  0  0
   51.2707  160.1868   29.6135 H   0  0  0  0  0  0  0  0  0  0  0  0
   52.9781  157.6241   28.2825 H   0  0  0  0  0  0  0  0  0  0  0  0
   51.4690  151.2668   27.4922 H   0  0  0  0  0  0  0  0  0  0  0  0
   52.5280  149.5394   26.0333 H   0  0  0  0  0  0  0  0  0  0  0  0
   54.2258  150.2108   24.3321 H   0  0  0  0  0  0  0  0  0  0  0  0
   55.3140  151.9570   23.2680 H   0  0  0  0  0  0  0  0  0  0  0  0
   54.0660  157.2650   25.6490 H   0  0  0  0  0  0  0  0  0  0  0  0
   49.9792  154.5366   28.5820 H   0  0  0  0  0  0  0  0  0  0  0  0
   48.7239  155.9124   30.2228 H   0  0  0  0  0  0  0  0  0  0  0  0
   49.1554  157.6541   32.0001 H   0  0  0  0  0  0  0  0  0  0  0  0
  1  2  1  0
  2  3  2  0
  3  4  1  0
  4  5  1  0
  5  6  1  0
  6  7  1  0
  7  8  2  0
  8  9  1  0
  9 10  2  0
 10 11  1  0
 11 12  1  0
 11 13  2  0
 13 14  1  0
 14 15  2  0
 14 16  1  0
 16 17  1  0
  4 18  2  0
 18 19  1  0
 19 20  2  0
 20 21  1  0
 21 22  1  0
 21 23  1  0
 20  2  1  0
 16  5  2  0
 13  7  1  0
  1 24  1  0
  1 25  1  0
  1 26  1  0
  3 27  1  0
  8 28  1  0
  9 29  1  0
 10 30  1  0
 12 31  1  0
 17 32  1  0
 18 33  1  0
 19 34  1  0
 21 35  1  0
M  END
>  <meeko>  (6) 
{"is_sidechain": [false], "free_energy": -8.426, "intermolecular_energy": -10.801, "internal_energy": 0.698}

$$$$
cand_016_out
     RDKit          3D

 35 37  0  0  0  0  0  0  0  0999 V2000
   48.9510  157.1140   30.3520 C   0  0  0  0  0  0  0  0  0  0  0  0
   50.3210  157.2430   29.7430 C   0  0  0  0  0  0  0  0  0  0  0  0
   50.7860  156.2230   28.8930 C   0  0  0  0  0  0  0  0  0  0  0  0
   52.0500  156.2890   28.2880 C   0  0  0  0  0  0  0  0  0  0  0  0
   52.5330  155.2280   27.3780 C   0  0  0  0  0  0  0  0  0  0  0  0
   52.0480  153.9690   27.7110 O   0  0  0  0  0  0  0  0  0  0  0  0
   52.4190  152.8930   26.9460 C   0  0  0  0  0  0  0  0  0  0  0  0
   51.9240  151.6450   27.3250 C   0  0  0  0  0  0  0  0  0  0  0  0
   52.2620  150.5070   26.5890 C   0  0  0  0  0  0  0  0  0  0  0  0
   53.0950  150.6180   25.4740 C   0  0  0  0  0  0  0  0  0  0  0  0
   53.5890  151.8640   25.0980 C   0  0  0  0  0  0  0  0  0  0  0  0
   54.3980  151.9000   23.9960 O   0  0  0  0  0  0  0  0  0  0  0  0
   53.2500  153.0020   25.8360 C   0  0  0  0  0  0  0  0  0  0  0  0
   53.7480  154.3300   25.4740 C   0  0  0  0  0  0  0  0  0  0  0  0
   54.4790  154.5100   24.5030 O   0  0  0  0  0  0  0  0  0  0  0  0
   53.3370  155.4700   26.3260 C   0  0  0  0  0  0  0  0  0  0  0  0
   53.8010  156.7220   25.9690 O   0  0  0  0  0  0  0  0  0  0  0  0
   52.8440  157.4150   28.5290 C   0  0  0  0  0  0  0  0  0  0  0  0
   52.3940  158.4410   29.3630 C   0  0  0  0  0  0  0  0  0  0  0  0
   51.1300  158.3750   29.9730 C   0  0  0  0  0  0  0  0  0  0  0  0
   50.6870  159.5000   30.8810 C   0  0  0  0  0  0  0  0  0  0  0  0
   51.7220  160.2490   31.3610 F   0  0  0  0  0  0  0  0  0  0  0  0
   49.8530  160.3850   30.2690 F   0  0  0  0  0  0  0  0  0  0  0  0
   49.0351  157.1219   31.4488 H   0  0  0  0  0  0  0  0  0  0  0  0
   48.3240  157.9571   30.0262 H   0  0  0  0  0  0  0  0  0  0  0  0
   48.4924  156.1687   30.0262 H   0  0  0  0  0  0  0  0  0  0  0  0
   50.1427  155.3523   28.6980 H   0  0  0  0  0  0  0  0  0  0  0  0
   51.2676  151.5572   28.2033 H   0  0  0  0  0  0  0  0  0  0  0  0
   51.8718  149.5230   26.8879 H   0  0  0  0  0  0  0  0  0  0  0  0
   53.3605  149.7222   24.8935 H   0  0  0  0  0  0  0  0  0  0  0  0
   55.2930  151.6280   24.0620 H   0  0  0  0  0  0  0  0  0  0  0  0
   54.6960  156.9530   26.1270 H   0  0  0  0  0  0  0  0  0  0  0  0
   53.8342  157.4934   28.0563 H   0  0  0  0  0  0  0  0  0  0  0  0
   53.0386  159.3135   29.5450 H   0  0  0  0  0  0  0  0  0  0  0  0
   50.1746  158.9688   31.6966 H   0  0  0  0  0  0  0  0  0  0  0  0
  1  2  1  0
  2  3  2  0
  3  4  1  0
  4  5  1  0
  5  6  1  0
  6  7  1  0
  7  8  2  0
  8  9  1  0
  9 10  2  0
 10 11  1  0
 11 12  1  0
 11 13  2  0
 13 14  1  0
 14 15  2  0
 14 16  1  0
 16 17  1  0
  4 18  2  0
 18 19  1  0
 19 20  2  0
 20 21  1  0
 21 22  1  0
 21 23  1  0
 20  2  1  0
 16  5  2  0
 13  7  1  0
  1 24  1  0
  1 25  1  0
  1 26  1  0
  3 27  1  0
  8 28  1  0
  9 29  1  0
 10 30  1  0
 12 31  1  0
 17 32  1  0
 18 33  1  0
 19 34  1  0
 21 35  1  0
M  END
>  <meeko>  (7) 
{"is_sidechain": [false], "free_energy": -8.246, "intermolecular_energy": -9.882, "internal_energy": -0.01}

$$$$
