cand_012_out
     RDKit          3D

 40 42  0  0  0  0  0  0  0  0999 V2000
   49.3170  160.2080   33.0670 C   0  0  0  0  0  0  0  0  0  0  0  0
   49.4740  160.5080   31.6410 N   0  0  0  0  0  0  0  0  0  0  0  0
   48.2600  161.0250   31.0010 C   0  0  0  0  0  0  0  0  0  0  0  0
   50.0520  159.4550   30.9080 C   0  0  0  0  0  0  0  0  0  0  0  0
   49.3480  158.2720   30.6310 C   0  0  0  0  0  0  0  0  0  0  0  0
   49.9290  157.2360   29.8940 C   0  0  0  0  0  0  0  0  0  0  0  0
   51.2300  157.3530   29.4010 C   0  0  0  0  0  0  0  0  0  0  0  0
   51.8800  156.2640   28.6420 C   0  0  0  0  0  0  0  0  0  0  0  0
   52.3890  156.6870   27.4190 O   0  0  0  0  0  0  0  0  0  0  0  0
   53.0150  155.7740   26.6090 C   0  0  0  0  0  0  0  0  0  0  0  0
   53.5210  156.2450   25.3970 C   0  0  0  0  0  0  0  0  0  0  0  0
   54.1700  155.3670   24.5260 C   0  0  0  0  0  0  0  0  0  0  0  0
   54.3130  154.0210   24.8670 C   0  0  0  0  0  0  0  0  0  0  0  0
   53.8070  153.5540   26.0770 C   0  0  0  0  0  0  0  0  0  0  0  0
   53.9810  152.2240   26.3480 O   0  0  0  0  0  0  0  0  0  0  0  0
   53.1590  154.4320   26.9490 C   0  0  0  0  0  0  0  0  0  0  0  0
   52.6110  153.9830   28.2300 C   0  0  0  0  0  0  0  0  0  0  0  0
   52.6920  152.8130   28.5980 O   0  0  0  0  0  0  0  0  0  0  0  0
   51.9470  154.9940   29.0840 C   0  0  0  0  0  0  0  0  0  0  0  0
   51.4200  154.5570   30.2850 O   0  0  0  0  0  0  0  0  0  0  0  0
   51.9400  158.5300   29.6820 C   0  0  0  0  0  0  0  0  0  0  0  0
   51.3660  159.5850   30.4240 C   0  0  0  0  0  0  0  0  0  0  0  0
   52.1720  160.8310   30.6960 C   0  0  0  0  0  0  0  0  0  0  0  0
   51.6560  161.9550   30.1190 F   0  0  0  0  0  0  0  0  0  0  0  0
   53.4500  160.7480   30.2090 F   0  0  0  0  0  0  0  0  0  0  0  0
   52.3250  161.1090   32.0230 F   0  0  0  0  0  0  0  0  0  0  0  0
   49.7456  161.0270   33.6633 H   0  0  0  0  0  0  0  0  0  0  0  0
   48.2480  160.1024   33.3040 H   0  0  0  0  0  0  0  0  0  0  0  0
   49.8396  159.2695   33.3040 H   0  0  0  0  0  0  0  0  0  0  0  0
   47.5401  161.3316   31.7741 H   0  0  0  0  0  0  0  0  0  0  0  0
   48.5166  161.8919   30.3744 H   0  0  0  0  0  0  0  0  0  0  0  0
   47.8128  160.2393   30.3744 H   0  0  0  0  0  0  0  0  0  0  0  0
   48.3185  158.1582   31.0015 H   0  0  0  0  0  0  0  0  0  0  0  0
   49.3546  156.3181   29.7002 H   0  0  0  0  0  0  0  0  0  0  0  0
   53.4090  157.3057   25.1280 H   0  0  0  0  0  0  0  0  0  0  0  0
   54.5690  155.7367   23.5699 H   0  0  0  0  0  0  0  0  0  0  0  0
   54.8247  153.3303   24.1807 H   0  0  0  0  0  0  0  0  0  0  0  0
   54.8180  151.8240   26.2130 H   0  0  0  0  0  0  0  0  0  0  0  0
   50.5830  154.1340   30.3030 H   0  0  0  0  0  0  0  0  0  0  0  0
   52.9715  158.6336   29.3143 H   0  0  0  0  0  0  0  0  0  0  0  0
  1  2  1  0
  2  3  1  0
  2  4  1  0
  4  5  2  0
  5  6  1  0
  6  7  2  0
  7  8  1  0
  8  9  1  0
  9 10  1  0
 10 11  2  0
 11 12  1  0
 12 13  2  0
 13 14  1  0
 14 15  1  0
 14 16  2  0
 16 17  1  0
 17 18  2  0
 17 19  1  0
 19 20  1  0
  7 21  1  0
 21 22  2  0
 22 23  1  0
 23 24  1  0
 23 25  1  0
 23 26  1  0
 22  4  1  0
 19  8  2  0
 16 10  1  0
  1 27  1  0
  1 28  1  0
  1 29  1  0
  3 30  1  0
  3 31  1  0
  3 32  1  0
  5 33  1  0
  6 34  1  0
 11 35  1  0
 12 36  1  0
 13 37  1  0
 15 38  1  0
 20 39  1  0
 21 40  1  0
M  END
>  <meeko>  (1) 
{"is_sidechain": [false], "free_energy": -10.352, "intermolecular_energy": -12.773, "internal_energy": -0.386}

$$$$
cand_012_out
     RDKit          3D

 40 42  0  0  0  0  0  0  0  0999 V2000
   52.1050  151.7520   26.6010 C   0  0  0  0  0  0  0  0  0  0  0  0
   52.9760  152.9130   26.3990 N   0  0  0  0  0  0  0  0  0  0  0  0
   54.4070  152.6200   26.5340 C   0  0  0  0  0  0  0  0  0  0  0  0
   52.5920  154.0390   27.1530 C   0  0  0  0  0  0  0  0  0  0  0  0
   52.0510  153.9160   28.4420 C   0  0  0  0  0  0  0  0  0  0  0  0
   51.6820  155.0410   29.1860 C   0  0  0  0  0  0  0  0  0  0  0  0
   51.8520  156.3270   28.6660 C   0  0  0  0  0  0  0  0  0  0  0  0
   51.4470  157.5330   29.4180 C   0  0  0  0  0  0  0  0  0  0  0  0
   50.1060  157.5150   29.7860 O   0  0  0  0  0  0  0  0  0  0  0  0
   49.5960  158.5780   30.4880 C   0  0  0  0  0  0  0  0  0  0  0  0
   48.2490  158.5120   30.8460 C   0  0  0  0  0  0  0  0  0  0  0  0
   47.6670  159.5610   31.5610 C   0  0  0  0  0  0  0  0  0  0  0  0
   48.4310  160.6750   31.9160 C   0  0  0  0  0  0  0  0  0  0  0  0
   49.7740  160.7370   31.5560 C   0  0  0  0  0  0  0  0  0  0  0  0
   50.4630  161.8570   31.9360 O   0  0  0  0  0  0  0  0  0  0  0  0
   50.3560  159.6870   30.8430 C   0  0  0  0  0  0  0  0  0  0  0  0
   51.7650  159.7130   30.4440 C   0  0  0  0  0  0  0  0  0  0  0  0
   52.5010  160.6610   30.7130 O   0  0  0  0  0  0  0  0  0  0  0  0
   52.2860  158.5480   29.6940 C   0  0  0  0  0  0  0  0  0  0  0  0
   53.6140  158.5900   29.3090 O   0  0  0  0  0  0  0  0  0  0  0  0
   52.3860  156.4540   27.3760 C   0  0  0  0  0  0  0  0  0  0  0  0
   52.7630  155.3260   26.6140 C   0  0  0  0  0  0  0  0  0  0  0  0
   53.3350  155.5180   25.2310 C   0  0  0  0  0  0  0  0  0  0  0  0
   54.6910  155.3740   25.1730 F   0  0  0  0  0  0  0  0  0  0  0  0
   53.0970  156.7720   24.7320 F   0  0  0  0  0  0  0  0  0  0  0  0
   52.8130  154.6710   24.2980 F   0  0  0  0  0  0  0  0  0  0  0  0
   51.9729  151.5759   27.6787 H   0  0  0  0  0  0  0  0  0  0  0  0
   51.1257  151.9433   26.1379 H   0  0  0  0  0  0  0  0  0  0  0  0
   52.5626  150.8653   26.1379 H   0  0  0  0  0  0  0  0  0  0  0  0
   54.6712  152.5659   27.6004 H   0  0  0  0  0  0  0  0  0  0  0  0
   54.6313  151.6573   26.0514 H   0  0  0  0  0  0  0  0  0  0  0  0
   54.9916  153.4171   26.0514 H   0  0  0  0  0  0  0  0  0  0  0  0
   51.9145  152.9144   28.8758 H   0  0  0  0  0  0  0  0  0  0  0  0
   51.2535  154.9124   30.1909 H   0  0  0  0  0  0  0  0  0  0  0  0
   47.6466  157.6353   30.5656 H   0  0  0  0  0  0  0  0  0  0  0  0
   46.6055  159.5098   31.8449 H   0  0  0  0  0  0  0  0  0  0  0  0
   47.9724  161.5014   32.4788 H   0  0  0  0  0  0  0  0  0  0  0  0
   50.0830  162.7050   31.8150 H   0  0  0  0  0  0  0  0  0  0  0  0
   54.0750  157.7930   29.1300 H   0  0  0  0  0  0  0  0  0  0  0  0
   52.5148  157.4583   26.9460 H   0  0  0  0  0  0  0  0  0  0  0  0
  1  2  1  0
  2  3  1  0
  2  4  1  0
  4  5  2  0
  5  6  1  0
  6  7  2  0
  7  8  1  0
  8  9  1  0
  9 10  1  0
 10 11  2  0
 11 12  1  0
 12 13  2  0
 13 14  1  0
 14 15  1  0
 14 16  2  0
 16 17  1  0
 17 18  2  0
 17 19  1  0
 19 20  1  0
  7 21  1  0
 21 22  2  0
 22 23  1  0
 23 24  1  0
 23 25  1  0
 23 26  1  0
 22  4  1  0
 19  8  2  0
 16 10  1  0
  1 27  1  0
  1 28  1  0
  1 29  1  0
  3 30  1  0
  3 31  1  0
  3 32  1  0
  5 33  1  0
  6 34  1  0
 11 35  1  0
 12 36  1  0
 13 37  1  0
 15 38  1  0
 20 39  1  0
 21 40  1  0
M  END
>  <meeko>  (2) 
{"is_sidechain": [false], "free_energy": -10.074, "intermolecular_energy": -12.767, "internal_energy": -0.049}

$$$$
cand_012_out
     RDKit          3D

 40 42  0  0  0  0  0  0  0  0999 V2000
   51.6190  161.8630   30.8950 C   0  0  0  0  0  0  0  0  0  0  0  0
   50.6710  160.7680   31.1190 N   0  0  0  0  0  0  0  0  0  0  0  0
   50.3450  160.5370   32.5310 C   0  0  0  0  0  0  0  0  0  0  0  0
   51.0250  159.5770   30.4560 C   0  0  0  0  0  0  0  0  0  0  0  0
   52.3490  159.3060   30.0780 C   0  0  0  0  0  0  0  0  0  0  0  0
   52.6910  158.1160   29.4270 C   0  0  0  0  0  0  0  0  0  0  0  0
   51.7180  157.1550   29.1420 C   0  0  0  0  0  0  0  0  0  0  0  0
   52.0450  155.9000   28.4320 C   0  0  0  0  0  0  0  0  0  0  0  0
   52.5310  156.1170   27.1480 O   0  0  0  0  0  0  0  0  0  0  0  0
   52.8710  155.0360   26.3750 C   0  0  0  0  0  0  0  0  0  0  0  0
   53.3650  155.3010   25.0970 C   0  0  0  0  0  0  0  0  0  0  0  0
   53.7290  154.2450   24.2590 C   0  0  0  0  0  0  0  0  0  0  0  0
   53.5990  152.9260   24.6980 C   0  0  0  0  0  0  0  0  0  0  0  0
   53.1040  152.6650   25.9730 C   0  0  0  0  0  0  0  0  0  0  0  0
   53.0010  151.3500   26.3380 O   0  0  0  0  0  0  0  0  0  0  0  0
   52.7410  153.7210   26.8120 C   0  0  0  0  0  0  0  0  0  0  0  0
   52.2170  153.4910   28.1590 C   0  0  0  0  0  0  0  0  0  0  0  0
   52.0660  152.3590   28.6150 O   0  0  0  0  0  0  0  0  0  0  0  0
   51.8660  154.6790   28.9700 C   0  0  0  0  0  0  0  0  0  0  0  0
   51.3570  154.4510   30.2350 O   0  0  0  0  0  0  0  0  0  0  0  0
   50.3920  157.4250   29.5110 C   0  0  0  0  0  0  0  0  0  0  0  0
   50.0330  158.6220   30.1690 C   0  0  0  0  0  0  0  0  0  0  0  0
   48.5930  158.8620   30.5470 C   0  0  0  0  0  0  0  0  0  0  0  0
   48.3120  158.5740   31.8510 F   0  0  0  0  0  0  0  0  0  0  0  0
   47.7230  158.0870   29.8260 F   0  0  0  0  0  0  0  0  0  0  0  0
   48.1740  160.1430   30.3330 F   0  0  0  0  0  0  0  0  0  0  0  0
   51.9599  162.2568   31.8639 H   0  0  0  0  0  0  0  0  0  0  0  0
   52.4833  161.4892   30.3265 H   0  0  0  0  0  0  0  0  0  0  0  0
   51.1253  162.6649   30.3265 H   0  0  0  0  0  0  0  0  0  0  0  0
   51.0778  161.0562   33.1662 H   0  0  0  0  0  0  0  0  0  0  0  0
   49.3372  160.9236   32.7426 H   0  0  0  0  0  0  0  0  0  0  0  0
   50.3757  159.4580   32.7426 H   0  0  0  0  0  0  0  0  0  0  0  0
   53.1340  160.0445   30.2981 H   0  0  0  0  0  0  0  0  0  0  0  0
   53.7365  157.9352   29.1366 H   0  0  0  0  0  0  0  0  0  0  0  0
   53.4675  156.3399   24.7504 H   0  0  0  0  0  0  0  0  0  0  0  0
   54.1187  154.4526   23.2515 H   0  0  0  0  0  0  0  0  0  0  0  0
   53.8871  152.0946   24.0379 H   0  0  0  0  0  0  0  0  0  0  0  0
   53.0740  151.1080   27.2410 H   0  0  0  0  0  0  0  0  0  0  0  0
   51.5770  155.0290   30.9400 H   0  0  0  0  0  0  0  0  0  0  0  0
   49.6111  156.6849   29.2819 H   0  0  0  0  0  0  0  0  0  0  0  0
  1  2  1  0
  2  3  1  0
  2  4  1  0
  4  5  2  0
  5  6  1  0
  6  7  2  0
  7  8  1  0
  8  9  1  0
  9 10  1  0
 10 11  2  0
 11 12  1  0
 12 13  2  0
 13 14  1  0
 14 15  1  0
 14 16  2  0
 16 17  1  0
 17 18  2  0
 17 19  1  0
 19 20  1  0
  7 21  1  0
 21 22  2  0
 22 23  1  0
 23 24  1  0
 23 25  1  0
 23 26  1  0
 22  4  1  0
 19  8  2  0
 16 10  1  0
  1 27  1  0
  1 28  1  0
  1 29  1  0
  3 30  1  0
  3 31  1  0
  3 32  1  0
  5 33  1  0
  6 34  1  0
 11 35  1  0
 12 36  1  0
 13 37  1  0
 15 38  1  0
 20 39  1  0
 21 40  1  0
M  END
>  <meeko>  (3) 
{"is_sidechain": [false], "free_energy": -9.262, "intermolecular_energy": -12.187, "internal_energy": 0.372}

$$$$
cand_012_out
     RDKit          3D

 40 42  0  0  0  0  0  0  0  0999 V2000
   52.4440  151.6670   26.3640 C   0  0  0  0  0  0  0  0  0  0  0  0
   53.2810  152.8710   26.3730 N   0  0  0  0  0  0  0  0  0  0  0  0
   54.6860  152.6210   26.7130 C   0  0  0  0  0  0  0  0  0  0  0  0
   52.7340  153.9270   27.1260 C   0  0  0  0  0  0  0  0  0  0  0  0
   52.1590  153.7160   28.3890 C   0  0  0  0  0  0  0  0  0  0  0  0
   51.6260  154.7740   29.1320 C   0  0  0  0  0  0  0  0  0  0  0  0
   51.6610  156.0800   28.6380 C   0  0  0  0  0  0  0  0  0  0  0  0
   51.0820  157.2140   29.3890 C   0  0  0  0  0  0  0  0  0  0  0  0
   52.0020  158.2290   29.6290 O   0  0  0  0  0  0  0  0  0  0  0  0
   51.5970  159.3420   30.3210 C   0  0  0  0  0  0  0  0  0  0  0  0
   52.5500  160.3400   30.5280 C   0  0  0  0  0  0  0  0  0  0  0  0
   52.2030  161.4990   31.2250 C   0  0  0  0  0  0  0  0  0  0  0  0
   50.9060  161.6600   31.7150 C   0  0  0  0  0  0  0  0  0  0  0  0
   49.9580  160.6610   31.5080 C   0  0  0  0  0  0  0  0  0  0  0  0
   48.7060  160.8830   32.0150 O   0  0  0  0  0  0  0  0  0  0  0  0
   50.3040  159.5030   30.8090 C   0  0  0  0  0  0  0  0  0  0  0  0
   49.3390  158.4290   30.5690 C   0  0  0  0  0  0  0  0  0  0  0  0
   48.1790  158.4930   30.9740 O   0  0  0  0  0  0  0  0  0  0  0  0
   49.8050  157.2440   29.8130 C   0  0  0  0  0  0  0  0  0  0  0  0
   48.8890  156.2290   29.6050 O   0  0  0  0  0  0  0  0  0  0  0  0
   52.2280  156.2950   27.3740 C   0  0  0  0  0  0  0  0  0  0  0  0
   52.7690  155.2360   26.6130 C   0  0  0  0  0  0  0  0  0  0  0  0
   53.3700  155.5220   25.2590 C   0  0  0  0  0  0  0  0  0  0  0  0
   54.7300  155.4160   25.2280 F   0  0  0  0  0  0  0  0  0  0  0  0
   53.1120  156.7960   24.8260 F   0  0  0  0  0  0  0  0  0  0  0  0
   52.8950  154.7170   24.2650 F   0  0  0  0  0  0  0  0  0  0  0  0
   52.2311  151.3607   27.3988 H   0  0  0  0  0  0  0  0  0  0  0  0
   51.4991  151.8812   25.8432 H   0  0  0  0  0  0  0  0  0  0  0  0
   52.9740  150.8559   25.8432 H   0  0  0  0  0  0  0  0  0  0  0  0
   54.8005  152.6006   27.8068 H   0  0  0  0  0  0  0  0  0  0  0  0
   54.9982  151.6532   26.2936 H   0  0  0  0  0  0  0  0  0  0  0  0
   55.3128  153.4217   26.2936 H   0  0  0  0  0  0  0  0  0  0  0  0
   52.1270  152.6973   28.8029 H   0  0  0  0  0  0  0  0  0  0  0  0
   51.1747  154.5757   30.1153 H   0  0  0  0  0  0  0  0  0  0  0  0
   53.5726  160.2139   30.1428 H   0  0  0  0  0  0  0  0  0  0  0  0
   52.9532  162.2867   31.3883 H   0  0  0  0  0  0  0  0  0  0  0  0
   50.6333  162.5738   32.2633 H   0  0  0  0  0  0  0  0  0  0  0  0
   48.0930  161.4070   31.5380 H   0  0  0  0  0  0  0  0  0  0  0  0
   49.1870  155.3690   29.3810 H   0  0  0  0  0  0  0  0  0  0  0  0
   52.2520  157.3156   26.9644 H   0  0  0  0  0  0  0  0  0  0  0  0
  1  2  1  0
  2  3  1  0
  2  4  1  0
  4  5  2  0
  5  6  1  0
  6  7  2  0
  7  8  1  0
  8  9  1  0
  9 10  1  0
 10 11  2  0
 11 12  1  0
 12 13  2  0
 13 14  1  0
 14 15  1  0
 14 16  2  0
 16 17  1  0
 17 18  2  0
 17 19  1  0
 19 20  1  0
  7 21  1  0
 21 22  2  0
 22 23  1  0
 23 24  1  0
 23 25  1  0
 23 26  1  0
 22  4  1  0
 19  8  2  0
 16 10  1  0
  1 27  1  0
  1 28  1  0
  1 29  1  0
  3 30  1  0
  3 31  1  0
  3 32  1  0
  5 33  1  0
  6 34  1  0
 11 35  1  0
 12 36  1  0
 13 37  1  0
 15 38  1  0
 20 39  1  0
 21 40  1  0
M  END
>  <meeko>  (4) 
{"is_sidechain": [false], "free_energy": -8.778, "intermolecular_energy": -10.951, "internal_energy": -0.265}

$$$$
cand_012_out
     RDKit          3D

 40 42  0  0  0  0  0  0  0  0999 V2000
   54.4490  154.6660   25.3340 C   0  0  0  0  0  0  0  0  0  0  0  0
   53.3960  154.2360   26.2590 N   0  0  0  0  0  0  0  0  0  0  0  0
   52.2990  153.5010   25.6190 C   0  0  0  0  0  0  0  0  0  0  0  0
   52.9270  155.2690   27.0920 C   0  0  0  0  0  0  0  0  0  0  0  0
   52.9730  156.6160   26.6980 C   0  0  0  0  0  0  0  0  0  0  0  0
   52.4950  157.6330   27.5300 C   0  0  0  0  0  0  0  0  0  0  0  0
   51.9470  157.3350   28.7790 C   0  0  0  0  0  0  0  0  0  0  0  0
   51.4580  158.3910   29.6910 C   0  0  0  0  0  0  0  0  0  0  0  0
   50.1160  158.2410   30.0220 O   0  0  0  0  0  0  0  0  0  0  0  0
   49.5330  159.1570   30.8600 C   0  0  0  0  0  0  0  0  0  0  0  0
   48.1870  158.9600   31.1740 C   0  0  0  0  0  0  0  0  0  0  0  0
   47.5330  159.8570   32.0220 C   0  0  0  0  0  0  0  0  0  0  0  0
   48.2230  160.9480   32.5540 C   0  0  0  0  0  0  0  0  0  0  0  0
   49.5650  161.1420   32.2370 C   0  0  0  0  0  0  0  0  0  0  0  0
   50.1790  162.2310   32.7920 O   0  0  0  0  0  0  0  0  0  0  0  0
   50.2200  160.2440   31.3900 C   0  0  0  0  0  0  0  0  0  0  0  0
   51.6290  160.4110   31.0310 C   0  0  0  0  0  0  0  0  0  0  0  0
   52.3020  161.3490   31.4530 O   0  0  0  0  0  0  0  0  0  0  0  0
   52.2310  159.4020   30.1310 C   0  0  0  0  0  0  0  0  0  0  0  0
   53.5590  159.5770   29.7850 O   0  0  0  0  0  0  0  0  0  0  0  0
   51.9050  155.9910   29.1800 C   0  0  0  0  0  0  0  0  0  0  0  0
   52.3830  154.9530   28.3500 C   0  0  0  0  0  0  0  0  0  0  0  0
   52.3120  153.5240   28.8270 C   0  0  0  0  0  0  0  0  0  0  0  0
   51.4570  152.7450   28.1030 F   0  0  0  0  0  0  0  0  0  0  0  0
   51.8650  153.4220   30.1190 F   0  0  0  0  0  0  0  0  0  0  0  0
   53.5170  152.8840   28.8270 F   0  0  0  0  0  0  0  0  0  0  0  0
   55.3181  155.0209   25.9073 H   0  0  0  0  0  0  0  0  0  0  0  0
   54.7490  153.8184   24.7003 H   0  0  0  0  0  0  0  0  0  0  0  0
   54.0699  155.4813   24.7003 H   0  0  0  0  0  0  0  0  0  0  0  0
   51.6491  153.0656   26.3923 H   0  0  0  0  0  0  0  0  0  0  0  0
   51.7129  154.1894   24.9925 H   0  0  0  0  0  0  0  0  0  0  0  0
   52.7127  152.6971   24.9925 H   0  0  0  0  0  0  0  0  0  0  0  0
   53.3934  156.8762   25.7154 H   0  0  0  0  0  0  0  0  0  0  0  0
   52.5514  158.6798   27.1967 H   0  0  0  0  0  0  0  0  0  0  0  0
   47.6429  158.1008   30.7548 H   0  0  0  0  0  0  0  0  0  0  0  0
   46.4726  159.7035   32.2710 H   0  0  0  0  0  0  0  0  0  0  0  0
   47.7073  161.6532   33.2225 H   0  0  0  0  0  0  0  0  0  0  0  0
   50.2590  163.0250   32.3000 H   0  0  0  0  0  0  0  0  0  0  0  0
   54.1350  158.8380   29.7520 H   0  0  0  0  0  0  0  0  0  0  0  0
   51.4889  155.7392   30.1666 H   0  0  0  0  0  0  0  0  0  0  0  0
  1  2  1  0
  2  3  1  0
  2  4  1  0
  4  5  2  0
  5  6  1  0
  6  7  2  0
  7  8  1  0
  8  9  1  0
  9 10  1  0
 10 11  2  0
 11 12  1  0
 12 13  2  0
 13 14  1  0
 14 15  1  0
 14 16  2  0
 16 17  1  0
 17 18  2  0
 17 19  1  0
 19 20  1  0
  7 21  1  0
 21 22  2  0
 22 23  1  0
 23 24  1  0
 23 25  1  0
 23 26  1  0
 22  4  1  0
 19  8  2  0
 16 10  1  0
  1 27  1  0
  1 28  1  0
  1 29  1  0
  3 30  1  0
  3 31  1  0
  3 32  1  0
  5 33  1  0
  6 34  1  0
 11 35  1  0
 12 36  1  0
 13 37  1  0
 15 38  1  0
 20 39  1  0
 21 40  1  0
M  END
>  <meeko>  (5) 
{"is_sidechain": [false], "free_energy": -8.087, "intermolecular_energy": -10.649, "internal_energy": 0.285}

$$$$
