cand_043_out
     RDKit          3D

 44 46  0  0  0  0  0  0  0  0999 V2000
   51.8140  160.6820   30.6540 C   0  0  0  0  0  0  0  0  0  0  0  0
   51.0280  159.4230   30.3930 C   0  0  0  0  0  0  0  0  0  0  0  0
   51.7170  158.4220   29.6640 C   0  0  0  0  0  0  0  0  0  0  0  0
   51.1370  157.1910   29.3400 C   0  0  0  0  0  0  0  0  0  0  0  0
   51.8920  156.1980   28.5470 C   0  0  0  0  0  0  0  0  0  0  0  0
   52.4130  156.7280   27.3720 O   0  0  0  0  0  0  0  0  0  0  0  0
   53.1370  155.9130   26.5400 C   0  0  0  0  0  0  0  0  0  0  0  0
   53.6280  156.4830   25.3650 C   0  0  0  0  0  0  0  0  0  0  0  0
   54.3750  155.7080   24.4740 C   0  0  0  0  0  0  0  0  0  0  0  0
   54.6300  154.3650   24.7580 C   0  0  0  0  0  0  0  0  0  0  0  0
   54.1390  153.7990   25.9320 C   0  0  0  0  0  0  0  0  0  0  0  0
   54.4250  152.4790   26.1480 O   0  0  0  0  0  0  0  0  0  0  0  0
   53.3900  154.5740   26.8220 C   0  0  0  0  0  0  0  0  0  0  0  0
   52.8550  154.0190   28.0660 C   0  0  0  0  0  0  0  0  0  0  0  0
   53.0430  152.8470   28.3890 O   0  0  0  0  0  0  0  0  0  0  0  0
   52.0690  154.9210   28.9370 C   0  0  0  0  0  0  0  0  0  0  0  0
   51.5790  154.3890   30.1150 O   0  0  0  0  0  0  0  0  0  0  0  0
   49.8280  156.9710   29.7480 C   0  0  0  0  0  0  0  0  0  0  0  0
   49.1350  157.9400   30.4830 C   0  0  0  0  0  0  0  0  0  0  0  0
   49.7060  159.1820   30.8490 C   0  0  0  0  0  0  0  0  0  0  0  0
   48.8560  160.1870   31.6720 C   0  0  0  0  0  0  0  0  0  0  0  0
   48.8120  161.5990   31.0440 C   0  0  0  0  0  0  0  0  0  0  0  0
   49.3930  160.4110   33.1150 C   0  0  0  0  0  0  0  0  0  0  0  0
   47.4230  159.6340   31.8220 C   0  0  0  0  0  0  0  0  0  0  0  0
   51.9101  160.8360   31.7389 H   0  0  0  0  0  0  0  0  0  0  0  0
   52.8147  160.5889   30.2068 H   0  0  0  0  0  0  0  0  0  0  0  0
   51.2909  161.5402   30.2068 H   0  0  0  0  0  0  0  0  0  0  0  0
   52.7492  158.6210   29.3400 H   0  0  0  0  0  0  0  0  0  0  0  0
   53.4273  157.5410   25.1404 H   0  0  0  0  0  0  0  0  0  0  0  0
   54.7627  156.1566   23.5475 H   0  0  0  0  0  0  0  0  0  0  0  0
   55.2175  153.7552   24.0559 H   0  0  0  0  0  0  0  0  0  0  0  0
   54.9150  152.2230   26.9050 H   0  0  0  0  0  0  0  0  0  0  0  0
   51.3180  153.4900   30.1490 H   0  0  0  0  0  0  0  0  0  0  0  0
   49.3300  156.0245   29.4907 H   0  0  0  0  0  0  0  0  0  0  0  0
   48.1004  157.7265   30.7898 H   0  0  0  0  0  0  0  0  0  0  0  0
   48.7884  162.3550   31.8427 H   0  0  0  0  0  0  0  0  0  0  0  0
   49.7058  161.7513   30.4212 H   0  0  0  0  0  0  0  0  0  0  0  0
   47.9104  161.6954   30.4212 H   0  0  0  0  0  0  0  0  0  0  0  0
   48.6318  160.0935   33.8429 H   0  0  0  0  0  0  0  0  0  0  0  0
   50.3092  159.8200   33.2611 H   0  0  0  0  0  0  0  0  0  0  0  0
   49.6176  161.4778   33.2611 H   0  0  0  0  0  0  0  0  0  0  0  0
   47.1766  159.5389   32.8898 H   0  0  0  0  0  0  0  0  0  0  0  0
   46.7122  160.3224   31.3415 H   0  0  0  0  0  0  0  0  0  0  0  0
   47.3589  158.6466   31.3415 H   0  0  0  0  0  0  0  0  0  0  0  0
  1  2  1  0
  2  3  2  0
  3  4  1  0
  4  5  1  0
  5  6  1  0
  6  7  1  0
  7  8  2  0
  8  9  1  0
  9 10  2  0
 10 11  1  0
 11 12  1  0
 11 13  2  0
 13 14  1  0
 14 15  2  0
 14 16  1  0
 16 17  1  0
  4 18  2  0
 18 19  1  0
 19 20  2  0
 20 21  1  0
 21 22  1  0
 21 23  1  0
 21 24  1  0
 20  2  1  0
 16  5  2  0
 13  7  1  0
  1 25  1  0
  1 26  1  0
  1 27  1  0
  3 28  1  0
  8 29  1  0
  9 30  1  0
 10 31  1  0
 12 32  1  0
 17 33  1  0
 18 34  1  0
 19 35  1  0
 22 36  1  0
 22 37  1  0
 22 38  1  0
 23 39  1  0
 23 40  1  0
 23 41  1  0
 24 42  1  0
 24 43  1  0
 24 44  1  0
M  END
>  <meeko>  (1) 
{"is_sidechain": [false], "free_energy": -11.644, "intermolecular_energy": -13.686, "internal_energy": -0.064}

$$$$
cand_043_out
     RDKit          3D

 44 46  0  0  0  0  0  0  0  0999 V2000
   48.2030  158.3450   30.9520 C   0  0  0  0  0  0  0  0  0  0  0  0
   49.6420  158.5240   30.5420 C   0  0  0  0  0  0  0  0  0  0  0  0
   50.1890  157.4620   29.7790 C   0  0  0  0  0  0  0  0  0  0  0  0
   51.5070  157.4700   29.3130 C   0  0  0  0  0  0  0  0  0  0  0  0
   52.0340  156.3170   28.5500 C   0  0  0  0  0  0  0  0  0  0  0  0
   52.5980  156.6870   27.3340 O   0  0  0  0  0  0  0  0  0  0  0  0
   53.1250  155.7130   26.5250 C   0  0  0  0  0  0  0  0  0  0  0  0
   53.6680  156.1270   25.3080 C   0  0  0  0  0  0  0  0  0  0  0  0
   54.2230  155.1860   24.4370 C   0  0  0  0  0  0  0  0  0  0  0  0
   54.2350  153.8340   24.7830 C   0  0  0  0  0  0  0  0  0  0  0  0
   53.6930  153.4230   25.9980 C   0  0  0  0  0  0  0  0  0  0  0  0
   53.7370  152.0840   26.2740 O   0  0  0  0  0  0  0  0  0  0  0  0
   53.1360  154.3650   26.8690 C   0  0  0  0  0  0  0  0  0  0  0  0
   52.5560  153.9770   28.1550 C   0  0  0  0  0  0  0  0  0  0  0  0
   52.5360  152.8070   28.5330 O   0  0  0  0  0  0  0  0  0  0  0  0
   51.9860  155.0500   29.0020 C   0  0  0  0  0  0  0  0  0  0  0  0
   51.4510  154.6730   30.2200 O   0  0  0  0  0  0  0  0  0  0  0  0
   52.2960  158.5670   29.6340 C   0  0  0  0  0  0  0  0  0  0  0  0
   51.7710  159.6330   30.3730 C   0  0  0  0  0  0  0  0  0  0  0  0
   50.4330  159.6650   30.8340 C   0  0  0  0  0  0  0  0  0  0  0  0
   49.9450  160.9000   31.6390 C   0  0  0  0  0  0  0  0  0  0  0  0
   51.0490  161.9620   31.8440 C   0  0  0  0  0  0  0  0  0  0  0  0
   49.4630  160.5460   33.0760 C   0  0  0  0  0  0  0  0  0  0  0  0
   48.7360  161.5300   30.9170 C   0  0  0  0  0  0  0  0  0  0  0  0
   48.1329  158.3363   32.0497 H   0  0  0  0  0  0  0  0  0  0  0  0
   47.6020  159.1753   30.5528 H   0  0  0  0  0  0  0  0  0  0  0  0
   47.8237  157.3928   30.5528 H   0  0  0  0  0  0  0  0  0  0  0  0
   49.5511  156.5972   29.5442 H   0  0  0  0  0  0  0  0  0  0  0  0
   53.6591  157.1925   25.0348 H   0  0  0  0  0  0  0  0  0  0  0  0
   54.6510  155.5112   23.4773 H   0  0  0  0  0  0  0  0  0  0  0  0
   54.6722  153.0939   24.0966 H   0  0  0  0  0  0  0  0  0  0  0  0
   53.7810  151.4630   25.5740 H   0  0  0  0  0  0  0  0  0  0  0  0
   50.5540  154.8570   30.4140 H   0  0  0  0  0  0  0  0  0  0  0  0
   53.3448  158.5982   29.3038 H   0  0  0  0  0  0  0  0  0  0  0  0
   52.4275  160.4843   30.6061 H   0  0  0  0  0  0  0  0  0  0  0  0
   51.2118  162.1186   32.9206 H   0  0  0  0  0  0  0  0  0  0  0  0
   51.9831  161.6144   31.3787 H   0  0  0  0  0  0  0  0  0  0  0  0
   50.7378  162.9089   31.3787 H   0  0  0  0  0  0  0  0  0  0  0  0
   50.1212  161.0294   33.8130 H   0  0  0  0  0  0  0  0  0  0  0  0
   48.4320  160.9031   33.2153 H   0  0  0  0  0  0  0  0  0  0  0  0
   49.4952  159.4553   33.2153 H   0  0  0  0  0  0  0  0  0  0  0  0
   48.0182  161.9040   31.6619 H   0  0  0  0  0  0  0  0  0  0  0  0
   49.0789  162.3641   30.2871 H   0  0  0  0  0  0  0  0  0  0  0  0
   48.2488  160.7711   30.2871 H   0  0  0  0  0  0  0  0  0  0  0  0
  1  2  1  0
  2  3  2  0
  3  4  1  0
  4  5  1  0
  5  6  1  0
  6  7  1  0
  7  8  2  0
  8  9  1  0
  9 10  2  0
 10 11  1  0
 11 12  1  0
 11 13  2  0
 13 14  1  0
 14 15  2  0
 14 16  1  0
 16 17  1  0
  4 18  2  0
 18 19  1  0
 19 20  2  0
 20 21  1  0
 21 22  1  0
 21 23  1  0
 21 24  1  0
 20  2  1  0
 16  5  2  0
 13  7  1  0
  1 25  1  0
  1 26  1  0
  1 27  1  0
  3 28  1  0
  8 29  1  0
  9 30  1  0
 10 31  1  0
 12 32  1  0
 17 33  1  0
 18 34  1  0
 19 35  1  0
 22 36  1  0
 22 37  1  0
 22 38  1  0
 23 39  1  0
 23 40  1  0
 23 41  1  0
 24 42  1  0
 24 43  1  0
 24 44  1  0
M  END
>  <meeko>  (2) 
{"is_sidechain": [false], "free_energy": -10.845, "intermolecular_energy": -12.841, "internal_energy": 0.029}

$$$$
cand_043_out
     RDKit          3D

 44 46  0  0  0  0  0  0  0  0999 V2000
   53.6120  156.3230   25.7190 C   0  0  0  0  0  0  0  0  0  0  0  0
   52.8210  155.9510   26.9460 C   0  0  0  0  0  0  0  0  0  0  0  0
   52.3820  157.0440   27.7360 C   0  0  0  0  0  0  0  0  0  0  0  0
   51.6320  156.8760   28.9040 C   0  0  0  0  0  0  0  0  0  0  0  0
   51.2320  158.0520   29.7070 C   0  0  0  0  0  0  0  0  0  0  0  0
   49.9090  157.9920   30.1310 O   0  0  0  0  0  0  0  0  0  0  0  0
   49.4070  159.0210   30.8860 C   0  0  0  0  0  0  0  0  0  0  0  0
   48.0710  158.9260   31.2770 C   0  0  0  0  0  0  0  0  0  0  0  0
   47.4980  159.9390   32.0480 C   0  0  0  0  0  0  0  0  0  0  0  0
   48.2590  161.0460   32.4280 C   0  0  0  0  0  0  0  0  0  0  0  0
   49.5920  161.1390   32.0360 C   0  0  0  0  0  0  0  0  0  0  0  0
   50.2800  162.2500   32.4410 O   0  0  0  0  0  0  0  0  0  0  0  0
   50.1650  160.1250   31.2620 C   0  0  0  0  0  0  0  0  0  0  0  0
   51.5620  160.1830   30.8290 C   0  0  0  0  0  0  0  0  0  0  0  0
   52.2980  161.1210   31.1290 O   0  0  0  0  0  0  0  0  0  0  0  0
   52.0710  159.0610   30.0070 C   0  0  0  0  0  0  0  0  0  0  0  0
   53.3950  159.1210   29.6140 O   0  0  0  0  0  0  0  0  0  0  0  0
   51.3290  155.5780   29.2930 C   0  0  0  0  0  0  0  0  0  0  0  0
   51.7380  154.4860   28.5190 C   0  0  0  0  0  0  0  0  0  0  0  0
   52.4740  154.6270   27.3180 C   0  0  0  0  0  0  0  0  0  0  0  0
   52.8740  153.3510   26.5270 C   0  0  0  0  0  0  0  0  0  0  0  0
   54.3120  152.8760   26.8350 C   0  0  0  0  0  0  0  0  0  0  0  0
   52.8410  153.5470   24.9840 C   0  0  0  0  0  0  0  0  0  0  0  0
   51.8680  152.2240   26.8440 C   0  0  0  0  0  0  0  0  0  0  0  0
   54.5689  156.7730   26.0221 H   0  0  0  0  0  0  0  0  0  0  0  0
   53.8046  155.4210   25.1195 H   0  0  0  0  0  0  0  0  0  0  0  0
   53.0401  157.0466   25.1195 H   0  0  0  0  0  0  0  0  0  0  0  0
   52.6418  158.0642   27.4172 H   0  0  0  0  0  0  0  0  0  0  0  0
   47.4702  158.0543   30.9782 H   0  0  0  0  0  0  0  0  0  0  0  0
   46.4448  159.8648   32.3567 H   0  0  0  0  0  0  0  0  0  0  0  0
   47.8065  161.8433   33.0359 H   0  0  0  0  0  0  0  0  0  0  0  0
   50.9530  162.1740   33.0890 H   0  0  0  0  0  0  0  0  0  0  0  0
   53.8900  158.3310   29.5160 H   0  0  0  0  0  0  0  0  0  0  0  0
   50.7614  155.4061   30.2194 H   0  0  0  0  0  0  0  0  0  0  0  0
   51.4759  153.4732   28.8590 H   0  0  0  0  0  0  0  0  0  0  0  0
   54.4569  152.8281   27.9244 H   0  0  0  0  0  0  0  0  0  0  0  0
   54.4696  151.8781   26.3999 H   0  0  0  0  0  0  0  0  0  0  0  0
   55.0330  153.5837   26.3999 H   0  0  0  0  0  0  0  0  0  0  0  0
   52.6624  154.6075   24.7528 H   0  0  0  0  0  0  0  0  0  0  0  0
   53.8043  153.2352   24.5541 H   0  0  0  0  0  0  0  0  0  0  0  0
   52.0329  152.9369   24.5541 H   0  0  0  0  0  0  0  0  0  0  0  0
   51.7709  152.1152   27.9343 H   0  0  0  0  0  0  0  0  0  0  0  0
   50.8881  152.4749   26.4118 H   0  0  0  0  0  0  0  0  0  0  0  0
   52.2281  151.2787   26.4118 H   0  0  0  0  0  0  0  0  0  0  0  0
  1  2  1  0
  2  3  2  0
  3  4  1  0
  4  5  1  0
  5  6  1  0
  6  7  1  0
  7  8  2  0
  8  9  1  0
  9 10  2  0
 10 11  1  0
 11 12  1  0
 11 13  2  0
 13 14  1  0
 14 15  2  0
 14 16  1  0
 16 17  1  0
  4 18  2  0
 18 19  1  0
 19 20  2  0
 20 21  1  0
 21 22  1  0
 21 23  1  0
 21 24  1  0
 20  2  1  0
 16  5  2  0
 13  7  1  0
  1 25  1  0
  1 26  1  0
  1 27  1  0
  3 28  1  0
  8 29  1  0
  9 30  1  0
 10 31  1  0
 12 32  1  0
 17 33  1  0
 18 34  1  0
 19 35  1  0
 22 36  1  0
 22 37  1  0
 22 38  1  0
 23 39  1  0
 23 40  1  0
 23 41  1  0
 24 42  1  0
 24 43  1  0
 24 44  1  0
M  END
>  <meeko>  (3) 
{"is_sidechain": [false], "free_energy": -9.95, "intermolecular_energy": -11.992, "internal_energy": 0.233}

$$$$
cand_043_out
     RDKit          3D

 44 46  0  0  0  0  0  0  0  0999 V2000
   51.8920  152.7880   28.7260 C   0  0  0  0  0  0  0  0  0  0  0  0
   52.1960  154.1220   28.0940 C   0  0  0  0  0  0  0  0  0  0  0  0
   51.8400  155.2530   28.8700 C   0  0  0  0  0  0  0  0  0  0  0  0
   52.0570  156.5640   28.4350 C   0  0  0  0  0  0  0  0  0  0  0  0
   51.6320  157.7060   29.2730 C   0  0  0  0  0  0  0  0  0  0  0  0
   50.2990  157.6230   29.6630 O   0  0  0  0  0  0  0  0  0  0  0  0
   49.7740  158.6200   30.4440 C   0  0  0  0  0  0  0  0  0  0  0  0
   48.4300  158.5040   30.8000 C   0  0  0  0  0  0  0  0  0  0  0  0
   47.8330  159.4840   31.5960 C   0  0  0  0  0  0  0  0  0  0  0  0
   48.5790  160.5790   32.0360 C   0  0  0  0  0  0  0  0  0  0  0  0
   49.9200  160.6920   31.6800 C   0  0  0  0  0  0  0  0  0  0  0  0
   50.5920  161.7900   32.1450 O   0  0  0  0  0  0  0  0  0  0  0  0
   50.5170  159.7120   30.8820 C   0  0  0  0  0  0  0  0  0  0  0  0
   51.9230  159.7930   30.4850 C   0  0  0  0  0  0  0  0  0  0  0  0
   52.6470  160.7220   30.8390 O   0  0  0  0  0  0  0  0  0  0  0  0
   52.4580  158.7070   29.6330 C   0  0  0  0  0  0  0  0  0  0  0  0
   53.7910  158.7870   29.2740 O   0  0  0  0  0  0  0  0  0  0  0  0
   52.6360  156.7400   27.1850 C   0  0  0  0  0  0  0  0  0  0  0  0
   53.0110  155.6360   26.4090 C   0  0  0  0  0  0  0  0  0  0  0  0
   52.8280  154.2990   26.8360 C   0  0  0  0  0  0  0  0  0  0  0  0
   53.2860  153.1440   25.9030 C   0  0  0  0  0  0  0  0  0  0  0  0
   52.3380  151.9240   25.9430 C   0  0  0  0  0  0  0  0  0  0  0  0
   54.6850  152.5730   26.2720 C   0  0  0  0  0  0  0  0  0  0  0  0
   53.3990  153.6750   24.4590 C   0  0  0  0  0  0  0  0  0  0  0  0
   51.9147  152.8875   29.8213 H   0  0  0  0  0  0  0  0  0  0  0  0
   50.8940  152.4510   28.4090 H   0  0  0  0  0  0  0  0  0  0  0  0
   52.6454  152.0519   28.4090 H   0  0  0  0  0  0  0  0  0  0  0  0
   51.3744  155.0932   29.8537 H   0  0  0  0  0  0  0  0  0  0  0  0
   47.8412  157.6416   30.4541 H   0  0  0  0  0  0  0  0  0  0  0  0
   46.7733  159.3930   31.8767 H   0  0  0  0  0  0  0  0  0  0  0  0
   48.1081  161.3508   32.6626 H   0  0  0  0  0  0  0  0  0  0  0  0
   51.5130  161.7390   32.3120 H   0  0  0  0  0  0  0  0  0  0  0  0
   54.3920  159.2630   29.8120 H   0  0  0  0  0  0  0  0  0  0  0  0
   52.8018  157.7571   26.8004 H   0  0  0  0  0  0  0  0  0  0  0  0
   53.4677  155.8159   25.4246 H   0  0  0  0  0  0  0  0  0  0  0  0
   52.1296  151.6558   26.9892 H   0  0  0  0  0  0  0  0  0  0  0  0
   51.3957  152.1750   25.4341 H   0  0  0  0  0  0  0  0  0  0  0  0
   52.8141  151.0729   25.4341 H   0  0  0  0  0  0  0  0  0  0  0  0
   54.7870  152.5314   27.3665 H   0  0  0  0  0  0  0  0  0  0  0  0
   54.7893  151.5604   25.8552 H   0  0  0  0  0  0  0  0  0  0  0  0
   55.4681  153.2235   25.8552 H   0  0  0  0  0  0  0  0  0  0  0  0
   53.6279  154.7507   24.4808 H   0  0  0  0  0  0  0  0  0  0  0  0
   54.2033  153.1395   23.9333 H   0  0  0  0  0  0  0  0  0  0  0  0
   52.4464  153.5134   23.9333 H   0  0  0  0  0  0  0  0  0  0  0  0
  1  2  1  0
  2  3  2  0
  3  4  1  0
  4  5  1  0
  5  6  1  0
  6  7  1  0
  7  8  2  0
  8  9  1  0
  9 10  2  0
 10 11  1  0
 11 12  1  0
 11 13  2  0
 13 14  1  0
 14 15  2  0
 14 16  1  0
 16 17  1  0
  4 18  2  0
 18 19  1  0
 19 20  2  0
 20 21  1  0
 21 22  1  0
 21 23  1  0
 21 24  1  0
 20  2  1  0
 16  5  2  0
 13  7  1  0
  1 25  1  0
  1 26  1  0
  1 27  1  0
  3 28  1  0
  8 29  1  0
  9 30  1  0
 10 31  1  0
 12 32  1  0
 17 33  1  0
 18 34  1  0
 19 35  1  0
 22 36  1  0
 22 37  1  0
 22 38  1  0
 23 39  1  0
 23 40  1  0
 23 41  1  0
 24 42  1  0
 24 43  1  0
 24 44  1  0
M  END
>  <meeko>  (4) 
{"is_sidechain": [false], "free_energy": -9.244, "intermolecular_energy": -11.028, "internal_energy": 0.098}

$$$$
cand_043_out
     RDKit          3D

 44 46  0  0  0  0  0  0  0  0999 V2000
   53.8220  156.2220   25.4890 C   0  0  0  0  0  0  0  0  0  0  0  0
   53.0110  155.6860   26.6400 C   0  0  0  0  0  0  0  0  0  0  0  0
   52.4090  156.6690   27.4640 C   0  0  0  0  0  0  0  0  0  0  0  0
   51.6190  156.3440   28.5720 C   0  0  0  0  0  0  0  0  0  0  0  0
   51.0460  157.4140   29.4160 C   0  0  0  0  0  0  0  0  0  0  0  0
   51.9380  158.4540   29.6500 O   0  0  0  0  0  0  0  0  0  0  0  0
   51.5340  159.5140   30.4210 C   0  0  0  0  0  0  0  0  0  0  0  0
   52.4660  160.5280   30.6410 C   0  0  0  0  0  0  0  0  0  0  0  0
   52.1180  161.6370   31.4160 C   0  0  0  0  0  0  0  0  0  0  0  0
   50.8410  161.7310   31.9700 C   0  0  0  0  0  0  0  0  0  0  0  0
   49.9120  160.7170   31.7490 C   0  0  0  0  0  0  0  0  0  0  0  0
   48.6790  160.8730   32.3210 O   0  0  0  0  0  0  0  0  0  0  0  0
   50.2610  159.6070   30.9740 C   0  0  0  0  0  0  0  0  0  0  0  0
   49.3160  158.5200   30.7170 C   0  0  0  0  0  0  0  0  0  0  0  0
   48.1710  158.5340   31.1640 O   0  0  0  0  0  0  0  0  0  0  0  0
   49.7850  157.3850   29.8900 C   0  0  0  0  0  0  0  0  0  0  0  0
   48.8800  156.3690   29.6430 O   0  0  0  0  0  0  0  0  0  0  0  0
   51.4420  154.9970   28.8620 C   0  0  0  0  0  0  0  0  0  0  0  0
   52.0140  154.0100   28.0510 C   0  0  0  0  0  0  0  0  0  0  0  0
   52.7950  154.3090   26.9090 C   0  0  0  0  0  0  0  0  0  0  0  0
   53.3790  153.1400   26.0700 C   0  0  0  0  0  0  0  0  0  0  0  0
   54.8440  152.8090   26.4330 C   0  0  0  0  0  0  0  0  0  0  0  0
   53.4040  153.4310   24.5420 C   0  0  0  0  0  0  0  0  0  0  0  0
   52.4940  151.8900   26.2600 C   0  0  0  0  0  0  0  0  0  0  0  0
   54.6804  156.7893   25.8781 H   0  0  0  0  0  0  0  0  0  0  0  0
   54.1841  155.3847   24.8743 H   0  0  0  0  0  0  0  0  0  0  0  0
   53.1937  156.8833   24.8743 H   0  0  0  0  0  0  0  0  0  0  0  0
   52.5692  157.7302   27.2229 H   0  0  0  0  0  0  0  0  0  0  0  0
   53.4733  160.4546   30.2051 H   0  0  0  0  0  0  0  0  0  0  0  0
   52.8521  162.4375   31.5898 H   0  0  0  0  0  0  0  0  0  0  0  0
   50.5683  162.6045   32.5804 H   0  0  0  0  0  0  0  0  0  0  0  0
   48.2610  161.7110   32.3130 H   0  0  0  0  0  0  0  0  0  0  0  0
   47.9760  156.5720   29.5090 H   0  0  0  0  0  0  0  0  0  0  0  0
   50.8459  154.7029   29.7384 H   0  0  0  0  0  0  0  0  0  0  0  0
   51.8492  152.9544   28.3129 H   0  0  0  0  0  0  0  0  0  0  0  0
   54.9540  152.7842   27.5272 H   0  0  0  0  0  0  0  0  0  0  0  0
   55.1125  151.8276   26.0151 H   0  0  0  0  0  0  0  0  0  0  0  0
   55.5084  153.5797   26.0151 H   0  0  0  0  0  0  0  0  0  0  0  0
   53.4971  154.5145   24.3766 H   0  0  0  0  0  0  0  0  0  0  0  0
   54.2611  152.9153   24.0845 H   0  0  0  0  0  0  0  0  0  0  0  0
   52.4715  153.0690   24.0845 H   0  0  0  0  0  0  0  0  0  0  0  0
   52.3575  151.6972   27.3343 H   0  0  0  0  0  0  0  0  0  0  0  0
   51.5138  152.0599   25.7905 H   0  0  0  0  0  0  0  0  0  0  0  0
   52.9799  151.0219   25.7905 H   0  0  0  0  0  0  0  0  0  0  0  0
  1  2  1  0
  2  3  2  0
  3  4  1  0
  4  5  1  0
  5  6  1  0
  6  7  1  0
  7  8  2  0
  8  9  1  0
  9 10  2  0
 10 11  1  0
 11 12  1  0
 11 13  2  0
 13 14  1  0
 14 15  2  0
 14 16  1  0
 16 17  1  0
  4 18  2  0
 18 19  1  0
 19 20  2  0
 20 21  1  0
 21 22  1  0
 21 23  1  0
 21 24  1  0
 20  2  1  0
 16  5  2  0
 13  7  1  0
  1 25  1  0
  1 26  1  0
  1 27  1  0
  3 28  1  0
  8 29  1  0
  9 30  1  0
 10 31  1  0
 12 32  1  0
 17 33  1  0
 18 34  1  0
 19 35  1  0
 22 36  1  0
 22 37  1  0
 22 38  1  0
 23 39  1  0
 23 40  1  0
 23 41  1  0
 24 42  1  0
 24 43  1  0
 24 44  1  0
M  END
>  <meeko>  (5) 
{"is_sidechain": [false], "free_energy": -8.954, "intermolecular_energy": -10.778, "internal_energy": 0.189}

$$$$
