cand_040_out
     RDKit          3D

 36 38  0  0  0  0  0  0  0  0999 V2000
   49.1540  160.7160   33.1010 C   0  0  0  0  0  0  0  0  0  0  0  0
   49.3350  160.7320   31.7740 C   0  0  0  0  0  0  0  0  0  0  0  0
   49.9890  159.6440   31.0320 C   0  0  0  0  0  0  0  0  0  0  0  0
   49.2900  158.4540   30.7880 C   0  0  0  0  0  0  0  0  0  0  0  0
   49.8710  157.4150   30.0560 C   0  0  0  0  0  0  0  0  0  0  0  0
   51.1630  157.5440   29.5350 C   0  0  0  0  0  0  0  0  0  0  0  0
   51.7690  156.4240   28.7840 C   0  0  0  0  0  0  0  0  0  0  0  0
   52.3360  156.8270   27.5800 O   0  0  0  0  0  0  0  0  0  0  0  0
   52.9350  155.8860   26.7820 C   0  0  0  0  0  0  0  0  0  0  0  0
   53.4770  156.3320   25.5750 C   0  0  0  0  0  0  0  0  0  0  0  0
   54.1030  155.4260   24.7160 C   0  0  0  0  0  0  0  0  0  0  0  0
   54.1860  154.0750   25.0630 C   0  0  0  0  0  0  0  0  0  0  0  0
   53.6440  153.6340   26.2670 C   0  0  0  0  0  0  0  0  0  0  0  0
   53.7610  152.3000   26.5440 O   0  0  0  0  0  0  0  0  0  0  0  0
   53.0170  154.5410   27.1260 C   0  0  0  0  0  0  0  0  0  0  0  0
   52.4340  154.1190   28.4000 C   0  0  0  0  0  0  0  0  0  0  0  0
   52.4750  152.9490   28.7790 O   0  0  0  0  0  0  0  0  0  0  0  0
   51.7860  155.1560   29.2350 C   0  0  0  0  0  0  0  0  0  0  0  0
   51.2510  154.7490   30.4420 O   0  0  0  0  0  0  0  0  0  0  0  0
   51.8640  158.7350   29.7790 C   0  0  0  0  0  0  0  0  0  0  0  0
   51.2920  159.7890   30.5190 C   0  0  0  0  0  0  0  0  0  0  0  0
   52.0950  161.0440   30.7320 C   0  0  0  0  0  0  0  0  0  0  0  0
   48.6569  161.5618   33.5985 H   0  0  0  0  0  0  0  0  0  0  0  0
   49.5025  159.8571   33.6933 H   0  0  0  0  0  0  0  0  0  0  0  0
   48.9755  161.6050   31.2096 H   0  0  0  0  0  0  0  0  0  0  0  0
   48.2685  158.3360   31.1786 H   0  0  0  0  0  0  0  0  0  0  0  0
   49.3066  156.4860   29.8877 H   0  0  0  0  0  0  0  0  0  0  0  0
   53.4111  157.3953   25.3011 H   0  0  0  0  0  0  0  0  0  0  0  0
   54.5312  155.7763   23.7652 H   0  0  0  0  0  0  0  0  0  0  0  0
   54.6786  153.3614   24.3862 H   0  0  0  0  0  0  0  0  0  0  0  0
   54.4980  151.8170   26.2240 H   0  0  0  0  0  0  0  0  0  0  0  0
   50.3290  154.8240   30.5950 H   0  0  0  0  0  0  0  0  0  0  0  0
   52.8841  158.8485   29.3833 H   0  0  0  0  0  0  0  0  0  0  0  0
   52.2115  161.2261   31.8105 H   0  0  0  0  0  0  0  0  0  0  0  0
   53.0867  160.9275   30.2706 H   0  0  0  0  0  0  0  0  0  0  0  0
   51.5736  161.8956   30.2706 H   0  0  0  0  0  0  0  0  0  0  0  0
  1  2  2  0
  2  3  1  0
  3  4  2  0
  4  5  1  0
  5  6  2  0
  6  7  1  0
  7  8  1  0
  8  9  1  0
  9 10  2  0
 10 11  1  0
 11 12  2  0
 12 13  1  0
 13 14  1  0
 13 15  2  0
 15 16  1  0
 16 17  2  0
 16 18  1  0
 18 19  1  0
  6 20  1  0
 20 21  2  0
 21 22  1  0
 21  3  1  0
 18  7  2  0
 15  9  1  0
  1 23  1  0
  1 24  1  0
  2 25  1  0
  4 26  1  0
  5 27  1  0
 10 28  1  0
 11 29  1  0
 12 30  1  0
 14 31  1  0
 19 32  1  0
 20 33  1  0
 22 34  1  0
 22 35  1  0
 22 36  1  0
M  END
>  <meeko>  (1) 
{"is_sidechain": [false], "free_energy": -10.874, "intermolecular_energy": -12.781, "internal_energy": -0.183}

$$$$
cand_040_out
     RDKit          3D

 36 38  0  0  0  0  0  0  0  0999 V2000
   49.9890  161.2830   32.9880 C   0  0  0  0  0  0  0  0  0  0  0  0
   49.9250  161.1740   31.6550 C   0  0  0  0  0  0  0  0  0  0  0  0
   50.3720  159.9840   30.9160 C   0  0  0  0  0  0  0  0  0  0  0  0
   51.6820  159.9290   30.4190 C   0  0  0  0  0  0  0  0  0  0  0  0
   52.1480  158.7980   29.7430 C   0  0  0  0  0  0  0  0  0  0  0  0
   51.3210  157.6840   29.5590 C   0  0  0  0  0  0  0  0  0  0  0  0
   51.8250  156.5070   28.8210 C   0  0  0  0  0  0  0  0  0  0  0  0
   52.4230  156.8430   27.6110 O   0  0  0  0  0  0  0  0  0  0  0  0
   52.9350  155.8450   26.8240 C   0  0  0  0  0  0  0  0  0  0  0  0
   53.5110  156.2270   25.6110 C   0  0  0  0  0  0  0  0  0  0  0  0
   54.0540  155.2590   24.7630 C   0  0  0  0  0  0  0  0  0  0  0  0
   54.0190  153.9100   25.1260 C   0  0  0  0  0  0  0  0  0  0  0  0
   53.4430  153.5330   26.3370 C   0  0  0  0  0  0  0  0  0  0  0  0
   53.4450  152.1970   26.6300 O   0  0  0  0  0  0  0  0  0  0  0  0
   52.9010  154.5010   27.1850 C   0  0  0  0  0  0  0  0  0  0  0  0
   52.2860  154.1480   28.4650 C   0  0  0  0  0  0  0  0  0  0  0  0
   52.2250  152.9840   28.8580 O   0  0  0  0  0  0  0  0  0  0  0  0
   51.7330  155.2480   29.2880 C   0  0  0  0  0  0  0  0  0  0  0  0
   51.1670  154.9040   30.5010 O   0  0  0  0  0  0  0  0  0  0  0  0
   50.0100  157.7390   30.0560 C   0  0  0  0  0  0  0  0  0  0  0  0
   49.5250  158.8740   30.7360 C   0  0  0  0  0  0  0  0  0  0  0  0
   48.1120  158.8600   31.2530 C   0  0  0  0  0  0  0  0  0  0  0  0
   49.6379  162.2009   33.4823 H   0  0  0  0  0  0  0  0  0  0  0  0
   50.3926  160.4547   33.5888 H   0  0  0  0  0  0  0  0  0  0  0  0
   49.5163  162.0196   31.0823 H   0  0  0  0  0  0  0  0  0  0  0  0
   52.3528  160.7887   30.5633 H   0  0  0  0  0  0  0  0  0  0  0  0
   53.1758  158.7832   29.3514 H   0  0  0  0  0  0  0  0  0  0  0  0
   53.5372  157.2885   25.3236 H   0  0  0  0  0  0  0  0  0  0  0  0
   54.5099  155.5590   23.8079 H   0  0  0  0  0  0  0  0  0  0  0  0
   54.4452  153.1478   24.4572 H   0  0  0  0  0  0  0  0  0  0  0  0
   53.2810  151.9090   27.5070 H   0  0  0  0  0  0  0  0  0  0  0  0
   50.9160  155.5730   31.1080 H   0  0  0  0  0  0  0  0  0  0  0  0
   49.3446  156.8751   29.9113 H   0  0  0  0  0  0  0  0  0  0  0  0
   48.1240  158.8601   32.3529 H   0  0  0  0  0  0  0  0  0  0  0  0
   47.5806  159.7529   30.8920 H   0  0  0  0  0  0  0  0  0  0  0  0
   47.5984  157.9567   30.8920 H   0  0  0  0  0  0  0  0  0  0  0  0
  1  2  2  0
  2  3  1  0
  3  4  2  0
  4  5  1  0
  5  6  2  0
  6  7  1  0
  7  8  1  0
  8  9  1  0
  9 10  2  0
 10 11  1  0
 11 12  2  0
 12 13  1  0
 13 14  1  0
 13 15  2  0
 15 16  1  0
 16 17  2  0
 16 18  1  0
 18 19  1  0
  6 20  1  0
 20 21  2  0
 21 22  1  0
 21  3  1  0
 18  7  2  0
 15  9  1  0
  1 23  1  0
  1 24  1  0
  2 25  1  0
  4 26  1  0
  5 27  1  0
 10 28  1  0
 11 29  1  0
 12 30  1  0
 14 31  1  0
 19 32  1  0
 20 33  1  0
 22 34  1  0
 22 35  1  0
 22 36  1  0
M  END
>  <meeko>  (2) 
{"is_sidechain": [false], "free_energy": -10.77, "intermolecular_energy": -12.672, "internal_energy": -0.17}

$$$$
cand_040_out
     RDKit          3D

 36 38  0  0  0  0  0  0  0  0999 V2000
   47.9020  160.0320   31.2910 C   0  0  0  0  0  0  0  0  0  0  0  0
   49.1850  159.7300   31.5260 C   0  0  0  0  0  0  0  0  0  0  0  0
   49.9610  158.7920   30.7020 C   0  0  0  0  0  0  0  0  0  0  0  0
   49.4130  157.5430   30.3740 C   0  0  0  0  0  0  0  0  0  0  0  0
   50.1110  156.6420   29.5640 C   0  0  0  0  0  0  0  0  0  0  0  0
   51.3690  156.9720   29.0480 C   0  0  0  0  0  0  0  0  0  0  0  0
   52.1010  155.9960   28.2130 C   0  0  0  0  0  0  0  0  0  0  0  0
   52.6840  156.5750   27.0910 O   0  0  0  0  0  0  0  0  0  0  0  0
   53.3950  155.7820   26.2290 C   0  0  0  0  0  0  0  0  0  0  0  0
   53.9500  156.4030   25.1080 C   0  0  0  0  0  0  0  0  0  0  0  0
   54.6880  155.6520   24.1910 C   0  0  0  0  0  0  0  0  0  0  0  0
   54.8700  154.2810   24.3930 C   0  0  0  0  0  0  0  0  0  0  0  0
   54.3150  153.6660   25.5110 C   0  0  0  0  0  0  0  0  0  0  0  0
   54.5340  152.3220   25.6480 O   0  0  0  0  0  0  0  0  0  0  0  0
   53.5770  154.4170   26.4290 C   0  0  0  0  0  0  0  0  0  0  0  0
   52.9770  153.8090   27.6170 C   0  0  0  0  0  0  0  0  0  0  0  0
   53.1000  152.6110   27.8680 O   0  0  0  0  0  0  0  0  0  0  0  0
   52.2060  154.6910   28.5240 C   0  0  0  0  0  0  0  0  0  0  0  0
   51.6550  154.1090   29.6500 O   0  0  0  0  0  0  0  0  0  0  0  0
   51.9170  158.2210   29.3760 C   0  0  0  0  0  0  0  0  0  0  0  0
   51.2280  159.1380   30.1950 C   0  0  0  0  0  0  0  0  0  0  0  0
   51.8690  160.4650   30.4970 C   0  0  0  0  0  0  0  0  0  0  0  0
   47.3755  160.7427   31.9451 H   0  0  0  0  0  0  0  0  0  0  0  0
   47.3743  159.5695   30.4439 H   0  0  0  0  0  0  0  0  0  0  0  0
   49.6848  160.2090   32.3808 H   0  0  0  0  0  0  0  0  0  0  0  0
   48.4200  157.2685   30.7595 H   0  0  0  0  0  0  0  0  0  0  0  0
   49.6664  155.6634   29.3300 H   0  0  0  0  0  0  0  0  0  0  0  0
   53.8060  157.4817   24.9478 H   0  0  0  0  0  0  0  0  0  0  0  0
   55.1268  156.1401   23.3083 H   0  0  0  0  0  0  0  0  0  0  0  0
   55.4507  153.6895   23.6698 H   0  0  0  0  0  0  0  0  0  0  0  0
   55.4090  151.9850   25.6340 H   0  0  0  0  0  0  0  0  0  0  0  0
   51.9210  154.3930   30.5020 H   0  0  0  0  0  0  0  0  0  0  0  0
   52.9088  158.4913   28.9844 H   0  0  0  0  0  0  0  0  0  0  0  0
   51.9347  160.6010   31.5866 H   0  0  0  0  0  0  0  0  0  0  0  0
   52.8793  160.4915   30.0626 H   0  0  0  0  0  0  0  0  0  0  0  0
   51.2618  161.2728   30.0626 H   0  0  0  0  0  0  0  0  0  0  0  0
  1  2  2  0
  2  3  1  0
  3  4  2  0
  4  5  1  0
  5  6  2  0
  6  7  1  0
  7  8  1  0
  8  9  1  0
  9 10  2  0
 10 11  1  0
 11 12  2  0
 12 13  1  0
 13 14  1  0
 13 15  2  0
 15 16  1  0
 16 17  2  0
 16 18  1  0
 18 19  1  0
  6 20  1  0
 20 21  2  0
 21 22  1  0
 21  3  1  0
 18  7  2  0
 15  9  1  0
  1 23  1  0
  1 24  1  0
  2 25  1  0
  4 26  1  0
  5 27  1  0
 10 28  1  0
 11 29  1  0
 12 30  1  0
 14 31  1  0
 19 32  1  0
 20 33  1  0
 22 34  1  0
 22 35  1  0
 22 36  1  0
M  END
>  <meeko>  (3) 
{"is_sidechain": [false], "free_energy": -10.048, "intermolecular_energy": -11.873, "internal_energy": -0.119}

$$$$
cand_040_out
     RDKit          3D

 36 38  0  0  0  0  0  0  0  0999 V2000
   52.1730  152.2610   26.6710 C   0  0  0  0  0  0  0  0  0  0  0  0
   52.9470  153.3430   26.8270 C   0  0  0  0  0  0  0  0  0  0  0  0
   52.5100  154.5570   27.5300 C   0  0  0  0  0  0  0  0  0  0  0  0
   51.8100  154.4430   28.7400 C   0  0  0  0  0  0  0  0  0  0  0  0
   51.4110  155.5790   29.4500 C   0  0  0  0  0  0  0  0  0  0  0  0
   51.7140  156.8610   28.9770 C   0  0  0  0  0  0  0  0  0  0  0  0
   51.2630  158.0500   29.7300 C   0  0  0  0  0  0  0  0  0  0  0  0
   49.9350  157.9610   30.1330 O   0  0  0  0  0  0  0  0  0  0  0  0
   49.3870  158.9980   30.8430 C   0  0  0  0  0  0  0  0  0  0  0  0
   48.0460  158.8740   31.2130 C   0  0  0  0  0  0  0  0  0  0  0  0
   47.4280  159.8940   31.9390 C   0  0  0  0  0  0  0  0  0  0  0  0
   48.1480  161.0370   32.2950 C   0  0  0  0  0  0  0  0  0  0  0  0
   49.4840  161.1570   31.9240 C   0  0  0  0  0  0  0  0  0  0  0  0
   50.1300  162.3010   32.3060 O   0  0  0  0  0  0  0  0  0  0  0  0
   50.1040  160.1370   31.1970 C   0  0  0  0  0  0  0  0  0  0  0  0
   51.5060  160.2240   30.7870 C   0  0  0  0  0  0  0  0  0  0  0  0
   52.2070  161.1940   31.0700 O   0  0  0  0  0  0  0  0  0  0  0  0
   52.0650  159.0930   30.0130 C   0  0  0  0  0  0  0  0  0  0  0  0
   53.3940  159.1790   29.6430 O   0  0  0  0  0  0  0  0  0  0  0  0
   52.4130  156.9750   27.7660 C   0  0  0  0  0  0  0  0  0  0  0  0
   52.8190  155.8390   27.0370 C   0  0  0  0  0  0  0  0  0  0  0  0
   53.5760  156.0350   25.7510 C   0  0  0  0  0  0  0  0  0  0  0  0
   52.5585  151.3818   26.1340 H   0  0  0  0  0  0  0  0  0  0  0  0
   51.1519  152.2516   27.0799 H   0  0  0  0  0  0  0  0  0  0  0  0
   53.9633  153.3216   26.4067 H   0  0  0  0  0  0  0  0  0  0  0  0
   51.5715  153.4449   29.1361 H   0  0  0  0  0  0  0  0  0  0  0  0
   50.8527  155.4642   30.3908 H   0  0  0  0  0  0  0  0  0  0  0  0
   47.4779  157.9746   30.9330 H   0  0  0  0  0  0  0  0  0  0  0  0
   46.3720  159.7974   32.2313 H   0  0  0  0  0  0  0  0  0  0  0  0
   47.6603  161.8401   32.8670 H   0  0  0  0  0  0  0  0  0  0  0  0
   51.0610  162.3640   32.2250 H   0  0  0  0  0  0  0  0  0  0  0  0
   53.9480  158.4260   29.7050 H   0  0  0  0  0  0  0  0  0  0  0  0
   52.6501  157.9757   27.3757 H   0  0  0  0  0  0  0  0  0  0  0  0
   54.6183  156.3049   25.9765 H   0  0  0  0  0  0  0  0  0  0  0  0
   53.5566  155.1022   25.1683 H   0  0  0  0  0  0  0  0  0  0  0  0
   53.1064  156.8412   25.1683 H   0  0  0  0  0  0  0  0  0  0  0  0
  1  2  2  0
  2  3  1  0
  3  4  2  0
  4  5  1  0
  5  6  2  0
  6  7  1  0
  7  8  1  0
  8  9  1  0
  9 10  2  0
 10 11  1  0
 11 12  2  0
 12 13  1  0
 13 14  1  0
 13 15  2  0
 15 16  1  0
 16 17  2  0
 16 18  1  0
 18 19  1  0
  6 20  1  0
 20 21  2  0
 21 22  1  0
 21  3  1  0
 18  7  2  0
 15  9  1  0
  1 23  1  0
  1 24  1  0
  2 25  1  0
  4 26  1  0
  5 27  1  0
 10 28  1  0
 11 29  1  0
 12 30  1  0
 14 31  1  0
 19 32  1  0
 20 33  1  0
 22 34  1  0
 22 35  1  0
 22 36  1  0
M  END
>  <meeko>  (4) 
{"is_sidechain": [false], "free_energy": -10.045, "intermolecular_energy": -11.79, "internal_energy": -0.2}

$$$$
cand_040_out
     RDKit          3D

 36 38  0  0  0  0  0  0  0  0999 V2000
   52.8080  152.0430   26.0360 C   0  0  0  0  0  0  0  0  0  0  0  0
   53.5030  153.0600   26.5590 C   0  0  0  0  0  0  0  0  0  0  0  0
   52.8810  154.1850   27.2740 C   0  0  0  0  0  0  0  0  0  0  0  0
   52.2100  153.9510   28.4820 C   0  0  0  0  0  0  0  0  0  0  0  0
   51.6380  155.0030   29.2030 C   0  0  0  0  0  0  0  0  0  0  0  0
   51.7350  156.3200   28.7420 C   0  0  0  0  0  0  0  0  0  0  0  0
   51.1030  157.4160   29.5070 C   0  0  0  0  0  0  0  0  0  0  0  0
   51.9720  158.4740   29.7520 O   0  0  0  0  0  0  0  0  0  0  0  0
   51.5140  159.5590   30.4530 C   0  0  0  0  0  0  0  0  0  0  0  0
   52.4240  160.5910   30.6900 C   0  0  0  0  0  0  0  0  0  0  0  0
   52.0220  161.7260   31.3970 C   0  0  0  0  0  0  0  0  0  0  0  0
   50.7100  161.8300   31.8670 C   0  0  0  0  0  0  0  0  0  0  0  0
   49.8050  160.7990   31.6290 C   0  0  0  0  0  0  0  0  0  0  0  0
   48.5370  160.9670   32.1160 O   0  0  0  0  0  0  0  0  0  0  0  0
   50.2080  159.6630   30.9220 C   0  0  0  0  0  0  0  0  0  0  0  0
   49.2880  158.5570   30.6510 C   0  0  0  0  0  0  0  0  0  0  0  0
   48.1170  158.5790   31.0250 O   0  0  0  0  0  0  0  0  0  0  0  0
   49.8160  157.3950   29.9000 C   0  0  0  0  0  0  0  0  0  0  0  0
   48.9360  156.3630   29.6380 O   0  0  0  0  0  0  0  0  0  0  0  0
   52.4060  156.5550   27.5330 C   0  0  0  0  0  0  0  0  0  0  0  0
   52.9840  155.5040   26.7930 C   0  0  0  0  0  0  0  0  0  0  0  0
   53.7000  155.8280   25.5090 C   0  0  0  0  0  0  0  0  0  0  0  0
   53.3324  151.2303   25.5121 H   0  0  0  0  0  0  0  0  0  0  0  0
   51.7123  152.0197   26.1300 H   0  0  0  0  0  0  0  0  0  0  0  0
   54.5974  153.0544   26.4484 H   0  0  0  0  0  0  0  0  0  0  0  0
   52.1323  152.9241   28.8685 H   0  0  0  0  0  0  0  0  0  0  0  0
   51.1061  154.7930   30.1427 H   0  0  0  0  0  0  0  0  0  0  0  0
   53.4568  160.5100   30.3201 H   0  0  0  0  0  0  0  0  0  0  0  0
   52.7388  162.5391   31.5842 H   0  0  0  0  0  0  0  0  0  0  0  0
   50.3930  162.7243   32.4236 H   0  0  0  0  0  0  0  0  0  0  0  0
   47.8950  160.2950   31.9940 H   0  0  0  0  0  0  0  0  0  0  0  0
   49.2520  155.5570   29.2790 H   0  0  0  0  0  0  0  0  0  0  0  0
   52.4830  157.5845   27.1532 H   0  0  0  0  0  0  0  0  0  0  0  0
   54.6803  156.2716   25.7377 H   0  0  0  0  0  0  0  0  0  0  0  0
   53.8417  154.9063   24.9256 H   0  0  0  0  0  0  0  0  0  0  0  0
   53.1012  156.5428   24.9256 H   0  0  0  0  0  0  0  0  0  0  0  0
  1  2  2  0
  2  3  1  0
  3  4  2  0
  4  5  1  0
  5  6  2  0
  6  7  1  0
  7  8  1  0
  8  9  1  0
  9 10  2  0
 10 11  1  0
 11 12  2  0
 12 13  1  0
 13 14  1  0
 13 15  2  0
 15 16  1  0
 16 17  2  0
 16 18  1  0
 18 19  1  0
  6 20  1  0
 20 21  2  0
 21 22  1  0
 21  3  1  0
 18  7  2  0
 15  9  1  0
  1 23  1  0
  1 24  1  0
  2 25  1  0
  4 26  1  0
  5 27  1  0
 10 28  1  0
 11 29  1  0
 12 30  1  0
 14 31  1  0
 19 32  1  0
 20 33  1  0
 22 34  1  0
 22 35  1  0
 22 36  1  0
M  END
>  <meeko>  (5) 
{"is_sidechain": [false], "free_energy": -9.077, "intermolecular_energy": -10.641, "internal_energy": -0.211}

$$$$
cand_040_out
     RDKit          3D

 36 38  0  0  0  0  0  0  0  0999 V2000
   48.2260  159.0130   30.7900 C   0  0  0  0  0  0  0  0  0  0  0  0
   49.3410  158.3570   31.1330 C   0  0  0  0  0  0  0  0  0  0  0  0
   50.1290  157.5500   30.1900 C   0  0  0  0  0  0  0  0  0  0  0  0
   49.6490  156.2970   29.7820 C   0  0  0  0  0  0  0  0  0  0  0  0
   50.3570  155.5200   28.8610 C   0  0  0  0  0  0  0  0  0  0  0  0
   51.5580  155.9820   28.3110 C   0  0  0  0  0  0  0  0  0  0  0  0
   52.3040  155.1360   27.3550 C   0  0  0  0  0  0  0  0  0  0  0  0
   51.9650  153.7900   27.4480 O   0  0  0  0  0  0  0  0  0  0  0  0
   52.5830  152.8920   26.6170 C   0  0  0  0  0  0  0  0  0  0  0  0
   52.2240  151.5500   26.7560 C   0  0  0  0  0  0  0  0  0  0  0  0
   52.8150  150.5840   25.9380 C   0  0  0  0  0  0  0  0  0  0  0  0
   53.7640  150.9580   24.9840 C   0  0  0  0  0  0  0  0  0  0  0  0
   54.1200  152.2980   24.8490 C   0  0  0  0  0  0  0  0  0  0  0  0
   55.0540  152.5940   23.8950 O   0  0  0  0  0  0  0  0  0  0  0  0
   53.5290  153.2650   25.6670 C   0  0  0  0  0  0  0  0  0  0  0  0
   53.8750  154.6820   25.5580 C   0  0  0  0  0  0  0  0  0  0  0  0
   54.6950  155.0910   24.7370 O   0  0  0  0  0  0  0  0  0  0  0  0
   53.1980  155.6260   26.4760 C   0  0  0  0  0  0  0  0  0  0  0  0
   53.5210  156.9640   26.3550 O   0  0  0  0  0  0  0  0  0  0  0  0
   52.0390  157.2350   28.7180 C   0  0  0  0  0  0  0  0  0  0  0  0
   51.3380  158.0280   29.6500 C   0  0  0  0  0  0  0  0  0  0  0  0
   51.9050  159.3680   30.0340 C   0  0  0  0  0  0  0  0  0  0  0  0
   47.6801  159.6008   31.5427 H   0  0  0  0  0  0  0  0  0  0  0  0
   47.8555  158.9643   29.7554 H   0  0  0  0  0  0  0  0  0  0  0  0
   49.6860  158.4252   32.1753 H   0  0  0  0  0  0  0  0  0  0  0  0
   48.7009  155.9201   30.1931 H   0  0  0  0  0  0  0  0  0  0  0  0
   49.9662  154.5352   28.5654 H   0  0  0  0  0  0  0  0  0  0  0  0
   51.4776  151.2540   27.5078 H   0  0  0  0  0  0  0  0  0  0  0  0
   52.5323  149.5264   26.0455 H   0  0  0  0  0  0  0  0  0  0  0  0
   54.2291  150.1964   24.3409 H   0  0  0  0  0  0  0  0  0  0  0  0
   54.7840  152.9350   23.0640 H   0  0  0  0  0  0  0  0  0  0  0  0
   52.9390  157.6190   26.6880 H   0  0  0  0  0  0  0  0  0  0  0  0
   52.9857  157.6081   28.3003 H   0  0  0  0  0  0  0  0  0  0  0  0
   51.9400  159.4508   31.1303 H   0  0  0  0  0  0  0  0  0  0  0  0
   52.9219  159.4664   29.6262 H   0  0  0  0  0  0  0  0  0  0  0  0
   51.2676  160.1664   29.6262 H   0  0  0  0  0  0  0  0  0  0  0  0
  1  2  2  0
  2  3  1  0
  3  4  2  0
  4  5  1  0
  5  6  2  0
  6  7  1  0
  7  8  1  0
  8  9  1  0
  9 10  2  0
 10 11  1  0
 11 12  2  0
 12 13  1  0
 13 14  1  0
 13 15  2  0
 15 16  1  0
 16 17  2  0
 16 18  1  0
 18 19  1  0
  6 20  1  0
 20 21  2  0
 21 22  1  0
 21  3  1  0
 18  7  2  0
 15  9  1  0
  1 23  1  0
  1 24  1  0
  2 25  1  0
  4 26  1  0
  5 27  1  0
 10 28  1  0
 11 29  1  0
 12 30  1  0
 14 31  1  0
 19 32  1  0
 20 33  1  0
 22 34  1  0
 22 35  1  0
 22 36  1  0
M  END
>  <meeko>  (6) 
{"is_sidechain": [false], "free_energy": -8.959, "intermolecular_energy": -10.774, "internal_energy": 0.061}

$$$$
