cand_003_out
     RDKit          3D

 35 37  0  0  0  0  0  0  0  0999 V2000
   52.0360  161.0150   30.6940 C   0  0  0  0  0  0  0  0  0  0  0  0
   51.2300  159.7630   30.4730 C   0  0  0  0  0  0  0  0  0  0  0  0
   51.8130  158.6900   29.7730 C   0  0  0  0  0  0  0  0  0  0  0  0
   51.1140  157.4930   29.5470 C   0  0  0  0  0  0  0  0  0  0  0  0
   51.7540  156.4010   28.7850 C   0  0  0  0  0  0  0  0  0  0  0  0
   52.3110  156.8310   27.5860 O   0  0  0  0  0  0  0  0  0  0  0  0
   52.9380  155.9160   26.7790 C   0  0  0  0  0  0  0  0  0  0  0  0
   53.4700  156.3880   25.5790 C   0  0  0  0  0  0  0  0  0  0  0  0
   54.1230  155.5090   24.7120 C   0  0  0  0  0  0  0  0  0  0  0  0
   54.2440  154.1590   25.0460 C   0  0  0  0  0  0  0  0  0  0  0  0
   53.7140  153.6900   26.2450 C   0  0  0  0  0  0  0  0  0  0  0  0
   53.8690  152.3570   26.5100 O   0  0  0  0  0  0  0  0  0  0  0  0
   53.0590  154.5700   27.1110 C   0  0  0  0  0  0  0  0  0  0  0  0
   52.4870  154.1180   28.3800 C   0  0  0  0  0  0  0  0  0  0  0  0
   52.5590  152.9470   28.7480 O   0  0  0  0  0  0  0  0  0  0  0  0
   51.8070  155.1290   29.2240 C   0  0  0  0  0  0  0  0  0  0  0  0
   51.2810  154.6950   30.4270 O   0  0  0  0  0  0  0  0  0  0  0  0
   49.8030  157.3880   30.0230 C   0  0  0  0  0  0  0  0  0  0  0  0
   49.2120  158.4440   30.7220 C   0  0  0  0  0  0  0  0  0  0  0  0
   49.9110  159.6390   30.9600 C   0  0  0  0  0  0  0  0  0  0  0  0
   49.2370  160.7600   31.7230 C   0  0  0  0  0  0  0  0  0  0  0  0
   48.9660  161.8430   30.9420 F   0  0  0  0  0  0  0  0  0  0  0  0
   49.9810  161.2350   32.7630 F   0  0  0  0  0  0  0  0  0  0  0  0
   48.0460  160.3820   32.2680 F   0  0  0  0  0  0  0  0  0  0  0  0
   52.1499  161.1919   31.7737 H   0  0  0  0  0  0  0  0  0  0  0  0
   53.0287  160.8978   30.2349 H   0  0  0  0  0  0  0  0  0  0  0  0
   51.5183  161.8701   30.2349 H   0  0  0  0  0  0  0  0  0  0  0  0
   52.8406  158.7914   29.3939 H   0  0  0  0  0  0  0  0  0  0  0  0
   53.3753  157.4518   25.3157 H   0  0  0  0  0  0  0  0  0  0  0  0
   54.5422  155.8807   23.7654 H   0  0  0  0  0  0  0  0  0  0  0  0
   54.7575  153.4666   24.3627 H   0  0  0  0  0  0  0  0  0  0  0  0
   54.3650  151.8180   25.9260 H   0  0  0  0  0  0  0  0  0  0  0  0
   51.6230  153.9250   30.8360 H   0  0  0  0  0  0  0  0  0  0  0  0
   49.2315  156.4651   29.8454 H   0  0  0  0  0  0  0  0  0  0  0  0
   48.1817  158.3376   31.0922 H   0  0  0  0  0  0  0  0  0  0  0  0
  1  2  1  0
  2  3  2  0
  3  4  1  0
  4  5  1  0
  5  6  1  0
  6  7  1  0
  7  8  2  0
  8  9  1  0
  9 10  2  0
 10 11  1  0
 11 12  1  0
 11 13  2  0
 13 14  1  0
 14 15  2  0
 14 16  1  0
 16 17  1  0
  4 18  2  0
 18 19  1  0
 19 20  2  0
 20 21  1  0
 21 22  1  0
 21 23  1  0
 21 24  1  0
 20  2  1  0
 16  5  2  0
 13  7  1  0
  1 25  1  0
  1 26  1  0
  1 27  1  0
  3 28  1  0
  8 29  1  0
  9 30  1  0
 10 31  1  0
 12 32  1  0
 17 33  1  0
 18 34  1  0
 19 35  1  0
M  END
>  <meeko>  (1) 
{"is_sidechain": [false], "free_energy": -11.416, "intermolecular_energy": -13.418, "internal_energy": -0.172}

$$$$
cand_003_out
     RDKit          3D

 35 37  0  0  0  0  0  0  0  0999 V2000
   48.1490  158.7720   31.2770 C   0  0  0  0  0  0  0  0  0  0  0  0
   49.5630  158.8300   30.7640 C   0  0  0  0  0  0  0  0  0  0  0  0
   50.0690  157.7400   30.0300 C   0  0  0  0  0  0  0  0  0  0  0  0
   51.3750  157.7430   29.5170 C   0  0  0  0  0  0  0  0  0  0  0  0
   51.8760  156.5670   28.7740 C   0  0  0  0  0  0  0  0  0  0  0  0
   52.4740  156.9050   27.5660 O   0  0  0  0  0  0  0  0  0  0  0  0
   52.9830  155.9060   26.7760 C   0  0  0  0  0  0  0  0  0  0  0  0
   53.5620  156.2880   25.5650 C   0  0  0  0  0  0  0  0  0  0  0  0
   54.1010  155.3210   24.7140 C   0  0  0  0  0  0  0  0  0  0  0  0
   54.0620  153.9730   25.0740 C   0  0  0  0  0  0  0  0  0  0  0  0
   53.4850  153.5940   26.2840 C   0  0  0  0  0  0  0  0  0  0  0  0
   53.4820  152.2570   26.5740 O   0  0  0  0  0  0  0  0  0  0  0  0
   52.9440  154.5620   27.1340 C   0  0  0  0  0  0  0  0  0  0  0  0
   52.3290  154.2060   28.4130 C   0  0  0  0  0  0  0  0  0  0  0  0
   52.2630  153.0420   28.8030 O   0  0  0  0  0  0  0  0  0  0  0  0
   51.7790  155.3070   29.2380 C   0  0  0  0  0  0  0  0  0  0  0  0
   51.2110  154.9620   30.4510 O   0  0  0  0  0  0  0  0  0  0  0  0
   52.1850  158.8560   29.7650 C   0  0  0  0  0  0  0  0  0  0  0  0
   51.6970  159.9460   30.4890 C   0  0  0  0  0  0  0  0  0  0  0  0
   50.3860  159.9530   30.9950 C   0  0  0  0  0  0  0  0  0  0  0  0
   49.8920  161.1530   31.7740 C   0  0  0  0  0  0  0  0  0  0  0  0
   50.8680  162.0770   31.9980 F   0  0  0  0  0  0  0  0  0  0  0  0
   49.3970  160.8380   33.0050 F   0  0  0  0  0  0  0  0  0  0  0  0
   48.8860  161.8170   31.1360 F   0  0  0  0  0  0  0  0  0  0  0  0
   48.1577  158.7724   32.3770 H   0  0  0  0  0  0  0  0  0  0  0  0
   47.5912  159.6480   30.9145 H   0  0  0  0  0  0  0  0  0  0  0  0
   47.6648  157.8532   30.9145 H   0  0  0  0  0  0  0  0  0  0  0  0
   49.4252  156.8655   29.8546 H   0  0  0  0  0  0  0  0  0  0  0  0
   53.5937  157.3502   25.2810 H   0  0  0  0  0  0  0  0  0  0  0  0
   54.5567  155.6218   23.7591 H   0  0  0  0  0  0  0  0  0  0  0  0
   54.4862  153.2112   24.4034 H   0  0  0  0  0  0  0  0  0  0  0  0
   54.1310  151.6940   26.2000 H   0  0  0  0  0  0  0  0  0  0  0  0
   51.6460  155.1840   31.2510 H   0  0  0  0  0  0  0  0  0  0  0  0
   53.2174  158.8730   29.3857 H   0  0  0  0  0  0  0  0  0  0  0  0
   52.3497  160.8135   30.6661 H   0  0  0  0  0  0  0  0  0  0  0  0
  1  2  1  0
  2  3  2  0
  3  4  1  0
  4  5  1  0
  5  6  1  0
  6  7  1  0
  7  8  2  0
  8  9  1  0
  9 10  2  0
 10 11  1  0
 11 12  1  0
 11 13  2  0
 13 14  1  0
 14 15  2  0
 14 16  1  0
 16 17  1  0
  4 18  2  0
 18 19  1  0
 19 20  2  0
 20 21  1  0
 21 22  1  0
 21 23  1  0
 21 24  1  0
 20  2  1  0
 16  5  2  0
 13  7  1  0
  1 25  1  0
  1 26  1  0
  1 27  1  0
  3 28  1  0
  8 29  1  0
  9 30  1  0
 10 31  1  0
 12 32  1  0
 17 33  1  0
 18 34  1  0
 19 35  1  0
M  END
>  <meeko>  (2) 
{"is_sidechain": [false], "free_energy": -11.276, "intermolecular_energy": -13.309, "internal_energy": -0.116}

$$$$
cand_003_out
     RDKit          3D

 35 37  0  0  0  0  0  0  0  0999 V2000
   53.7900  155.5520   25.3500 C   0  0  0  0  0  0  0  0  0  0  0  0
   53.0230  155.3370   26.6270 C   0  0  0  0  0  0  0  0  0  0  0  0
   52.6100  156.4570   27.3740 C   0  0  0  0  0  0  0  0  0  0  0  0
   51.8820  156.3180   28.5650 C   0  0  0  0  0  0  0  0  0  0  0  0
   51.4910  157.5190   29.3330 C   0  0  0  0  0  0  0  0  0  0  0  0
   50.1590  157.4970   29.7300 O   0  0  0  0  0  0  0  0  0  0  0  0
   49.6650  158.5540   30.4520 C   0  0  0  0  0  0  0  0  0  0  0  0
   48.3200  158.4970   30.8180 C   0  0  0  0  0  0  0  0  0  0  0  0
   47.7540  159.5400   31.5560 C   0  0  0  0  0  0  0  0  0  0  0  0
   48.5330  160.6370   31.9270 C   0  0  0  0  0  0  0  0  0  0  0  0
   49.8760  160.6910   31.5620 C   0  0  0  0  0  0  0  0  0  0  0  0
   50.5810  161.7930   31.9590 O   0  0  0  0  0  0  0  0  0  0  0  0
   50.4410  159.6480   30.8220 C   0  0  0  0  0  0  0  0  0  0  0  0
   51.8470  159.6650   30.4180 C   0  0  0  0  0  0  0  0  0  0  0  0
   52.5990  160.5920   30.7130 O   0  0  0  0  0  0  0  0  0  0  0  0
   52.3470  158.5140   29.6300 C   0  0  0  0  0  0  0  0  0  0  0  0
   53.6810  158.5330   29.2640 O   0  0  0  0  0  0  0  0  0  0  0  0
   51.5820  155.0280   29.0160 C   0  0  0  0  0  0  0  0  0  0  0  0
   51.9830  153.9060   28.2840 C   0  0  0  0  0  0  0  0  0  0  0  0
   52.7010  154.0410   27.0850 C   0  0  0  0  0  0  0  0  0  0  0  0
   53.1170  152.8030   26.3200 C   0  0  0  0  0  0  0  0  0  0  0  0
   54.4210  152.4670   26.5240 F   0  0  0  0  0  0  0  0  0  0  0  0
   52.9770  152.9240   24.9680 F   0  0  0  0  0  0  0  0  0  0  0  0
   52.3880  151.7030   26.6640 F   0  0  0  0  0  0  0  0  0  0  0  0
   54.8241  155.8419   25.5878 H   0  0  0  0  0  0  0  0  0  0  0  0
   53.7956  154.6208   24.7645 H   0  0  0  0  0  0  0  0  0  0  0  0
   53.3108  156.3504   24.7645 H   0  0  0  0  0  0  0  0  0  0  0  0
   52.8644  157.4652   27.0149 H   0  0  0  0  0  0  0  0  0  0  0  0
   47.7059  157.6323   30.5261 H   0  0  0  0  0  0  0  0  0  0  0  0
   46.6935  159.4963   31.8448 H   0  0  0  0  0  0  0  0  0  0  0  0
   48.0867  161.4581   32.5071 H   0  0  0  0  0  0  0  0  0  0  0  0
   50.7750  161.9230   32.8670 H   0  0  0  0  0  0  0  0  0  0  0  0
   54.1690  159.3310   29.3160 H   0  0  0  0  0  0  0  0  0  0  0  0
   51.0254  154.8951   29.9554 H   0  0  0  0  0  0  0  0  0  0  0  0
   51.7317  152.9009   28.6537 H   0  0  0  0  0  0  0  0  0  0  0  0
  1  2  1  0
  2  3  2  0
  3  4  1  0
  4  5  1  0
  5  6  1  0
  6  7  1  0
  7  8  2  0
  8  9  1  0
  9 10  2  0
 10 11  1  0
 11 12  1  0
 11 13  2  0
 13 14  1  0
 14 15  2  0
 14 16  1  0
 16 17  1  0
  4 18  2  0
 18 19  1  0
 19 20  2  0
 20 21  1  0
 21 22  1  0
 21 23  1  0
 21 24  1  0
 20  2  1  0
 16  5  2  0
 13  7  1  0
  1 25  1  0
  1 26  1  0
  1 27  1  0
  3 28  1  0
  8 29  1  0
  9 30  1  0
 10 31  1  0
 12 32  1  0
 17 33  1  0
 18 34  1  0
 19 35  1  0
M  END
>  <meeko>  (3) 
{"is_sidechain": [false], "free_energy": -10.581, "intermolecular_energy": -12.633, "internal_energy": 0.025}

$$$$
cand_003_out
     RDKit          3D

 35 37  0  0  0  0  0  0  0  0999 V2000
   53.7580  155.8560   25.5290 C   0  0  0  0  0  0  0  0  0  0  0  0
   52.9310  155.4870   26.7320 C   0  0  0  0  0  0  0  0  0  0  0  0
   52.3680  156.5120   27.5150 C   0  0  0  0  0  0  0  0  0  0  0  0
   51.5780  156.2280   28.6390 C   0  0  0  0  0  0  0  0  0  0  0  0
   51.0270  157.3350   29.4490 C   0  0  0  0  0  0  0  0  0  0  0  0
   51.9460  158.3540   29.6700 O   0  0  0  0  0  0  0  0  0  0  0  0
   51.5630  159.4440   30.4090 C   0  0  0  0  0  0  0  0  0  0  0  0
   52.5210  160.4370   30.6180 C   0  0  0  0  0  0  0  0  0  0  0  0
   52.1960  161.5750   31.3600 C   0  0  0  0  0  0  0  0  0  0  0  0
   50.9130  161.7200   31.8910 C   0  0  0  0  0  0  0  0  0  0  0  0
   49.9580  160.7290   31.6800 C   0  0  0  0  0  0  0  0  0  0  0  0
   48.7210  160.9360   32.2280 O   0  0  0  0  0  0  0  0  0  0  0  0
   50.2850  159.5900   30.9390 C   0  0  0  0  0  0  0  0  0  0  0  0
   49.3110  158.5250   30.6940 C   0  0  0  0  0  0  0  0  0  0  0  0
   48.1600  158.5830   31.1220 O   0  0  0  0  0  0  0  0  0  0  0  0
   49.7590  157.3560   29.9020 C   0  0  0  0  0  0  0  0  0  0  0  0
   48.8280  156.3620   29.6650 O   0  0  0  0  0  0  0  0  0  0  0  0
   51.3690  154.8890   28.9850 C   0  0  0  0  0  0  0  0  0  0  0  0
   51.9190  153.8600   28.2170 C   0  0  0  0  0  0  0  0  0  0  0  0
   52.7010  154.1400   27.0830 C   0  0  0  0  0  0  0  0  0  0  0  0
   53.2790  152.9980   26.2750 C   0  0  0  0  0  0  0  0  0  0  0  0
   54.6140  152.8240   26.4840 F   0  0  0  0  0  0  0  0  0  0  0  0
   53.1370  153.1570   24.9270 F   0  0  0  0  0  0  0  0  0  0  0  0
   52.6950  151.8000   26.5640 F   0  0  0  0  0  0  0  0  0  0  0  0
   54.7160  156.2835   25.8598 H   0  0  0  0  0  0  0  0  0  0  0  0
   53.9470  154.9568   24.9242 H   0  0  0  0  0  0  0  0  0  0  0  0
   53.2151  156.5973   24.9242 H   0  0  0  0  0  0  0  0  0  0  0  0
   52.5518  157.5609   27.2391 H   0  0  0  0  0  0  0  0  0  0  0  0
   53.5316  160.3236   30.1986 H   0  0  0  0  0  0  0  0  0  0  0  0
   52.9513  162.3573   31.5260 H   0  0  0  0  0  0  0  0  0  0  0  0
   50.6569  162.6161   32.4754 H   0  0  0  0  0  0  0  0  0  0  0  0
   47.9530  160.8360   31.7010 H   0  0  0  0  0  0  0  0  0  0  0  0
   48.5860  156.1480   28.7860 H   0  0  0  0  0  0  0  0  0  0  0  0
   50.7652  154.6437   29.8712 H   0  0  0  0  0  0  0  0  0  0  0  0
   51.7373  152.8138   28.5042 H   0  0  0  0  0  0  0  0  0  0  0  0
  1  2  1  0
  2  3  2  0
  3  4  1  0
  4  5  1  0
  5  6  1  0
  6  7  1  0
  7  8  2  0
  8  9  1  0
  9 10  2  0
 10 11  1  0
 11 12  1  0
 11 13  2  0
 13 14  1  0
 14 15  2  0
 14 16  1  0
 16 17  1  0
  4 18  2  0
 18 19  1  0
 19 20  2  0
 20 21  1  0
 21 22  1  0
 21 23  1  0
 21 24  1  0
 20  2  1  0
 16  5  2  0
 13  7  1  0
  1 25  1  0
  1 26  1  0
  1 27  1  0
  3 28  1  0
  8 29  1  0
  9 30  1  0
 10 31  1  0
 12 32  1  0
 17 33  1  0
 18 34  1  0
 19 35  1  0
M  END
>  <meeko>  (4) 
{"is_sidechain": [false], "free_energy": -9.346, "intermolecular_energy": -11.112, "internal_energy": -0.045}

$$$$
cand_003_out
     RDKit          3D

 35 37  0  0  0  0  0  0  0  0999 V2000
   51.8790  152.8160   28.3280 C   0  0  0  0  0  0  0  0  0  0  0  0
   52.1540  154.2640   28.0220 C   0  0  0  0  0  0  0  0  0  0  0  0
   51.5820  155.2570   28.8410 C   0  0  0  0  0  0  0  0  0  0  0  0
   51.8130  156.6220   28.6110 C   0  0  0  0  0  0  0  0  0  0  0  0
   51.1720  157.6330   29.4790 C   0  0  0  0  0  0  0  0  0  0  0  0
   51.9880  158.7300   29.7250 O   0  0  0  0  0  0  0  0  0  0  0  0
   51.5150  159.7440   30.5170 C   0  0  0  0  0  0  0  0  0  0  0  0
   52.3720  160.8200   30.7510 C   0  0  0  0  0  0  0  0  0  0  0  0
   51.9510  161.8870   31.5470 C   0  0  0  0  0  0  0  0  0  0  0  0
   50.6730  161.8790   32.1100 C   0  0  0  0  0  0  0  0  0  0  0  0
   49.8180  160.8050   31.8740 C   0  0  0  0  0  0  0  0  0  0  0  0
   48.5810  160.8620   32.4540 O   0  0  0  0  0  0  0  0  0  0  0  0
   50.2410  159.7370   31.0780 C   0  0  0  0  0  0  0  0  0  0  0  0
   49.3750  158.5890   30.8070 C   0  0  0  0  0  0  0  0  0  0  0  0
   48.2340  158.5120   31.2590 O   0  0  0  0  0  0  0  0  0  0  0  0
   49.9200  157.5050   29.9570 C   0  0  0  0  0  0  0  0  0  0  0  0
   49.0890  156.4310   29.6950 O   0  0  0  0  0  0  0  0  0  0  0  0
   52.6190  156.9880   27.5280 C   0  0  0  0  0  0  0  0  0  0  0  0
   53.1960  156.0140   26.7080 C   0  0  0  0  0  0  0  0  0  0  0  0
   52.9770  154.6460   26.9420 C   0  0  0  0  0  0  0  0  0  0  0  0
   53.6210  153.6210   26.0320 C   0  0  0  0  0  0  0  0  0  0  0  0
   52.7230  153.0010   25.2160 F   0  0  0  0  0  0  0  0  0  0  0  0
   54.2570  152.6190   26.7040 F   0  0  0  0  0  0  0  0  0  0  0  0
   54.5630  154.1650   25.2100 F   0  0  0  0  0  0  0  0  0  0  0  0
   51.8514  152.6704   29.4180 H   0  0  0  0  0  0  0  0  0  0  0  0
   50.9100  152.5273   27.8948 H   0  0  0  0  0  0  0  0  0  0  0  0
   52.6747  152.1922   27.8948 H   0  0  0  0  0  0  0  0  0  0  0  0
   50.9389  154.9554   29.6809 H   0  0  0  0  0  0  0  0  0  0  0  0
   53.3790  160.8276   30.3084 H   0  0  0  0  0  0  0  0  0  0  0  0
   52.6269  162.7351   31.7309 H   0  0  0  0  0  0  0  0  0  0  0  0
   50.3423  162.7190   32.7385 H   0  0  0  0  0  0  0  0  0  0  0  0
   48.4970  160.7990   33.3860 H   0  0  0  0  0  0  0  0  0  0  0  0
   49.3050  155.5810   30.0230 H   0  0  0  0  0  0  0  0  0  0  0  0
   52.8006  158.0527   27.3195 H   0  0  0  0  0  0  0  0  0  0  0  0
   53.8320  156.3237   25.8656 H   0  0  0  0  0  0  0  0  0  0  0  0
  1  2  1  0
  2  3  2  0
  3  4  1  0
  4  5  1  0
  5  6  1  0
  6  7  1  0
  7  8  2  0
  8  9  1  0
  9 10  2  0
 10 11  1  0
 11 12  1  0
 11 13  2  0
 13 14  1  0
 14 15  2  0
 14 16  1  0
 16 17  1  0
  4 18  2  0
 18 19  1  0
 19 20  2  0
 20 21  1  0
 21 22  1  0
 21 23  1  0
 21 24  1  0
 20  2  1  0
 16  5  2  0
 13  7  1  0
  1 25  1  0
  1 26  1  0
  1 27  1  0
  3 28  1  0
  8 29  1  0
  9 30  1  0
 10 31  1  0
 12 32  1  0
 17 33  1  0
 18 34  1  0
 19 35  1  0
M  END
>  <meeko>  (5) 
{"is_sidechain": [false], "free_energy": -9.184, "intermolecular_energy": -11.033, "internal_energy": 0.067}

$$$$
cand_003_out
     RDKit          3D

 35 37  0  0  0  0  0  0  0  0999 V2000
   51.9300  159.8710   30.1870 C   0  0  0  0  0  0  0  0  0  0  0  0
   51.2780  158.5500   29.8760 C   0  0  0  0  0  0  0  0  0  0  0  0
   51.9330  157.6500   29.0140 C   0  0  0  0  0  0  0  0  0  0  0  0
   51.3790  156.4000   28.6980 C   0  0  0  0  0  0  0  0  0  0  0  0
   52.0880  155.4950   27.7690 C   0  0  0  0  0  0  0  0  0  0  0  0
   51.6880  154.1700   27.8930 O   0  0  0  0  0  0  0  0  0  0  0  0
   52.2680  153.2240   27.0870 C   0  0  0  0  0  0  0  0  0  0  0  0
   51.8470  151.9040   27.2540 C   0  0  0  0  0  0  0  0  0  0  0  0
   52.3960  150.8920   26.4640 C   0  0  0  0  0  0  0  0  0  0  0  0
   53.3640  151.1990   25.5060 C   0  0  0  0  0  0  0  0  0  0  0  0
   53.7820  152.5170   25.3400 C   0  0  0  0  0  0  0  0  0  0  0  0
   54.7330  152.7480   24.3840 O   0  0  0  0  0  0  0  0  0  0  0  0
   53.2330  153.5290   26.1330 C   0  0  0  0  0  0  0  0  0  0  0  0
   53.6450  154.9260   25.9900 C   0  0  0  0  0  0  0  0  0  0  0  0
   54.4860  155.2780   25.1650 O   0  0  0  0  0  0  0  0  0  0  0  0
   53.0080  155.9230   26.8830 C   0  0  0  0  0  0  0  0  0  0  0  0
   53.3930  157.2420   26.7320 O   0  0  0  0  0  0  0  0  0  0  0  0
   50.1380  156.0630   29.2480 C   0  0  0  0  0  0  0  0  0  0  0  0
   49.4760  156.9450   30.1070 C   0  0  0  0  0  0  0  0  0  0  0  0
   50.0330  158.1930   30.4360 C   0  0  0  0  0  0  0  0  0  0  0  0
   49.2860  159.1210   31.3700 C   0  0  0  0  0  0  0  0  0  0  0  0
   48.7920  160.2230   30.7400 F   0  0  0  0  0  0  0  0  0  0  0  0
   50.0530  159.5970   32.3930 F   0  0  0  0  0  0  0  0  0  0  0  0
   48.2180  158.5180   31.9660 F   0  0  0  0  0  0  0  0  0  0  0  0
   51.9940  160.0006   31.2775 H   0  0  0  0  0  0  0  0  0  0  0  0
   52.9416  159.8912   29.7554 H   0  0  0  0  0  0  0  0  0  0  0  0
   51.3308  160.6863   29.7554 H   0  0  0  0  0  0  0  0  0  0  0  0
   52.9022  157.9334   28.5778 H   0  0  0  0  0  0  0  0  0  0  0  0
   51.0832  151.6610   28.0074 H   0  0  0  0  0  0  0  0  0  0  0  0
   52.0653  149.8513   26.5967 H   0  0  0  0  0  0  0  0  0  0  0  0
   53.7957  150.4014   24.8835 H   0  0  0  0  0  0  0  0  0  0  0  0
   54.7730  152.2030   23.6220 H   0  0  0  0  0  0  0  0  0  0  0  0
   53.8710  157.6710   27.4130 H   0  0  0  0  0  0  0  0  0  0  0  0
   49.6784  155.0943   29.0022 H   0  0  0  0  0  0  0  0  0  0  0  0
   48.5032  156.6577   30.5325 H   0  0  0  0  0  0  0  0  0  0  0  0
  1  2  1  0
  2  3  2  0
  3  4  1  0
  4  5  1  0
  5  6  1  0
  6  7  1  0
  7  8  2  0
  8  9  1  0
  9 10  2  0
 10 11  1  0
 11 12  1  0
 11 13  2  0
 13 14  1  0
 14 15  2  0
 14 16  1  0
 16 17  1  0
  4 18  2  0
 18 19  1  0
 19 20  2  0
 20 21  1  0
 21 22  1  0
 21 23  1  0
 21 24  1  0
 20  2  1  0
 16  5  2  0
 13  7  1  0
  1 25  1  0
  1 26  1  0
  1 27  1  0
  3 28  1  0
  8 29  1  0
  9 30  1  0
 10 31  1  0
 12 32  1  0
 17 33  1  0
 18 34  1  0
 19 35  1  0
M  END
>  <meeko>  (6) 
{"is_sidechain": [false], "free_energy": -8.816, "intermolecular_energy": -10.77, "internal_energy": 0.236}

$$$$
cand_003_out
     RDKit          3D

 35 37  0  0  0  0  0  0  0  0999 V2000
   51.6830  160.3560   30.6630 C   0  0  0  0  0  0  0  0  0  0  0  0
   51.0290  159.0410   30.3330 C   0  0  0  0  0  0  0  0  0  0  0  0
   51.6860  158.1490   29.4640 C   0  0  0  0  0  0  0  0  0  0  0  0
   51.1300  156.9050   29.1300 C   0  0  0  0  0  0  0  0  0  0  0  0
   51.8410  156.0090   28.1930 C   0  0  0  0  0  0  0  0  0  0  0  0
   51.4560  154.6790   28.3180 O   0  0  0  0  0  0  0  0  0  0  0  0
   52.0390  153.7410   27.5060 C   0  0  0  0  0  0  0  0  0  0  0  0
   51.6330  152.4160   27.6740 C   0  0  0  0  0  0  0  0  0  0  0  0
   52.1860  151.4110   26.8770 C   0  0  0  0  0  0  0  0  0  0  0  0
   53.1440  151.7300   25.9130 C   0  0  0  0  0  0  0  0  0  0  0  0
   53.5460  153.0530   25.7460 C   0  0  0  0  0  0  0  0  0  0  0  0
   54.4870  153.2950   24.7830 O   0  0  0  0  0  0  0  0  0  0  0  0
   52.9940  154.0580   26.5440 C   0  0  0  0  0  0  0  0  0  0  0  0
   53.3890  155.4600   26.4020 C   0  0  0  0  0  0  0  0  0  0  0  0
   54.2200  155.8210   25.5710 O   0  0  0  0  0  0  0  0  0  0  0  0
   52.7490  156.4480   27.3010 C   0  0  0  0  0  0  0  0  0  0  0  0
   53.1190  157.7710   27.1500 O   0  0  0  0  0  0  0  0  0  0  0  0
   49.8850  156.5650   29.6700 C   0  0  0  0  0  0  0  0  0  0  0  0
   49.2220  157.4380   30.5360 C   0  0  0  0  0  0  0  0  0  0  0  0
   49.7800  158.6800   30.8820 C   0  0  0  0  0  0  0  0  0  0  0  0
   49.0310  159.5990   31.8240 C   0  0  0  0  0  0  0  0  0  0  0  0
   47.7960  159.1270   32.1530 F   0  0  0  0  0  0  0  0  0  0  0  0
   48.8230  160.8480   31.3170 F   0  0  0  0  0  0  0  0  0  0  0  0
   49.6870  159.7890   33.0040 F   0  0  0  0  0  0  0  0  0  0  0  0
   51.7411  160.4727   31.7552 H   0  0  0  0  0  0  0  0  0  0  0  0
   52.6971  160.3782   30.2375 H   0  0  0  0  0  0  0  0  0  0  0  0
   51.0887  161.1781   30.2375 H   0  0  0  0  0  0  0  0  0  0  0  0
   52.6586  158.4344   29.0367 H   0  0  0  0  0  0  0  0  0  0  0  0
   50.8782  152.1636   28.4334 H   0  0  0  0  0  0  0  0  0  0  0  0
   51.8662  150.3668   27.0091 H   0  0  0  0  0  0  0  0  0  0  0  0
   53.5805  150.9381   25.2866 H   0  0  0  0  0  0  0  0  0  0  0  0
   54.2520  153.2500   23.8760 H   0  0  0  0  0  0  0  0  0  0  0  0
   53.5930  158.0400   26.3880 H   0  0  0  0  0  0  0  0  0  0  0  0
   49.4236  155.6008   29.4102 H   0  0  0  0  0  0  0  0  0  0  0  0
   48.2467  157.1481   30.9540 H   0  0  0  0  0  0  0  0  0  0  0  0
  1  2  1  0
  2  3  2  0
  3  4  1  0
  4  5  1  0
  5  6  1  0
  6  7  1  0
  7  8  2  0
  8  9  1  0
  9 10  2  0
 10 11  1  0
 11 12  1  0
 11 13  2  0
 13 14  1  0
 14 15  2  0
 14 16  1  0
 16 17  1  0
  4 18  2  0
 18 19  1  0
 19 20  2  0
 20 21  1  0
 21 22  1  0
 21 23  1  0
 21 24  1  0
 20  2  1  0
 16  5  2  0
 13  7  1  0
  1 25  1  0
  1 26  1  0
  1 27  1  0
  3 28  1  0
  8 29  1  0
  9 30  1  0
 10 31  1  0
 12 32  1  0
 17 33  1  0
 18 34  1  0
 19 35  1  0
M  END
>  <meeko>  (7) 
{"is_sidechain": [false], "free_energy": -8.531, "intermolecular_energy": -10.404, "internal_energy": 0.205}

$$$$
