cand_019_out
     RDKit          3D

 35 37  0  0  0  0  0  0  0  0999 V2000
   52.1850  152.9430   28.7820 O   0  0  0  0  0  0  0  0  0  0  0  0
   52.3020  154.1050   28.4000 C   0  0  0  0  0  0  0  0  0  0  0  0
   51.7950  155.2240   29.2270 C   0  0  0  0  0  0  0  0  0  0  0  0
   51.1790  154.8940   30.4210 O   0  0  0  0  0  0  0  0  0  0  0  0
   51.9430  156.4800   28.7700 C   0  0  0  0  0  0  0  0  0  0  0  0
   51.4640  157.6720   29.5030 C   0  0  0  0  0  0  0  0  0  0  0  0
   52.2840  158.7850   29.7160 C   0  0  0  0  0  0  0  0  0  0  0  0
   51.8020  159.9090   30.3920 C   0  0  0  0  0  0  0  0  0  0  0  0
   50.4860  159.9510   30.8720 C   0  0  0  0  0  0  0  0  0  0  0  0
   49.9960  161.1820   31.5910 C   0  0  0  0  0  0  0  0  0  0  0  0
   50.0200  161.0370   32.9450 F   0  0  0  0  0  0  0  0  0  0  0  0
   49.6350  158.8470   30.6430 C   0  0  0  0  0  0  0  0  0  0  0  0
   48.1990  158.8490   31.1190 C   0  0  0  0  0  0  0  0  0  0  0  0
   48.1020  158.8450   32.4780 F   0  0  0  0  0  0  0  0  0  0  0  0
   47.5020  159.9510   30.7130 F   0  0  0  0  0  0  0  0  0  0  0  0
   50.1400  157.7210   29.9650 C   0  0  0  0  0  0  0  0  0  0  0  0
   52.5390  156.7980   27.5550 O   0  0  0  0  0  0  0  0  0  0  0  0
   53.0260  155.7830   26.7700 C   0  0  0  0  0  0  0  0  0  0  0  0
   53.6250  156.1480   25.5630 C   0  0  0  0  0  0  0  0  0  0  0  0
   54.1400  155.1640   24.7160 C   0  0  0  0  0  0  0  0  0  0  0  0
   54.0550  153.8170   25.0750 C   0  0  0  0  0  0  0  0  0  0  0  0
   53.4560  153.4560   26.2790 C   0  0  0  0  0  0  0  0  0  0  0  0
   53.4060  152.1200   26.5680 O   0  0  0  0  0  0  0  0  0  0  0  0
   52.9410  154.4410   27.1260 C   0  0  0  0  0  0  0  0  0  0  0  0
   50.5250  154.2220   30.4410 H   0  0  0  0  0  0  0  0  0  0  0  0
   53.3203  158.7754   29.3471 H   0  0  0  0  0  0  0  0  0  0  0  0
   52.4647  160.7727   30.5496 H   0  0  0  0  0  0  0  0  0  0  0  0
   50.6385  162.0313   31.3153 H   0  0  0  0  0  0  0  0  0  0  0  0
   48.9516  161.3522   31.2906 H   0  0  0  0  0  0  0  0  0  0  0  0
   47.7792  157.9325   30.6788 H   0  0  0  0  0  0  0  0  0  0  0  0
   49.4799  156.8580   29.7932 H   0  0  0  0  0  0  0  0  0  0  0  0
   53.6913  157.2088   25.2795 H   0  0  0  0  0  0  0  0  0  0  0  0
   54.6131  155.4503   23.7651 H   0  0  0  0  0  0  0  0  0  0  0  0
   54.4607  153.0424   24.4076 H   0  0  0  0  0  0  0  0  0  0  0  0
   52.6210  151.7440   26.9140 H   0  0  0  0  0  0  0  0  0  0  0  0
  1  2  2  0
  2  3  1  0
  3  4  1  0
  3  5  2  0
  5  6  1  0
  6  7  2  0
  7  8  1  0
  8  9  2  0
  9 10  1  0
 10 11  1  0
  9 12  1  0
 12 13  1  0
 13 14  1  0
 13 15  1  0
 12 16  2  0
  5 17  1  0
 17 18  1  0
 18 19  2  0
 19 20  1  0
 20 21  2  0
 21 22  1  0
 22 23  1  0
 22 24  2  0
 24  2  1  0
 16  6  1  0
 24 18  1  0
  4 25  1  0
  7 26  1  0
  8 27  1  0
 10 28  1  0
 10 29  1  0
 13 30  1  0
 16 31  1  0
 19 32  1  0
 20 33  1  0
 21 34  1  0
 23 35  1  0
M  END
>  <meeko>  (1) 
{"is_sidechain": [false], "free_energy": -10.644, "intermolecular_energy": -13.133, "internal_energy": -0.152}

$$$$
cand_019_out
     RDKit          3D

 35 37  0  0  0  0  0  0  0  0999 V2000
   52.5220  160.6870   30.5670 O   0  0  0  0  0  0  0  0  0  0  0  0
   51.7860  159.7250   30.3580 C   0  0  0  0  0  0  0  0  0  0  0  0
   52.2990  158.5220   29.6630 C   0  0  0  0  0  0  0  0  0  0  0  0
   53.6200  158.5480   29.2540 O   0  0  0  0  0  0  0  0  0  0  0  0
   51.4580  157.4930   29.4540 C   0  0  0  0  0  0  0  0  0  0  0  0
   51.8560  156.2490   28.7600 C   0  0  0  0  0  0  0  0  0  0  0  0
   51.5790  154.9860   29.2940 C   0  0  0  0  0  0  0  0  0  0  0  0
   51.9440  153.8240   28.6090 C   0  0  0  0  0  0  0  0  0  0  0  0
   52.5960  153.8940   27.3700 C   0  0  0  0  0  0  0  0  0  0  0  0
   52.9690  152.6210   26.6540 C   0  0  0  0  0  0  0  0  0  0  0  0
   51.9730  151.6920   26.6920 F   0  0  0  0  0  0  0  0  0  0  0  0
   52.8600  155.1600   26.8030 C   0  0  0  0  0  0  0  0  0  0  0  0
   53.5400  155.2930   25.4580 C   0  0  0  0  0  0  0  0  0  0  0  0
   52.7100  154.9790   24.4230 F   0  0  0  0  0  0  0  0  0  0  0  0
   53.9700  156.5620   25.1980 F   0  0  0  0  0  0  0  0  0  0  0  0
   52.4900  156.3200   27.5100 C   0  0  0  0  0  0  0  0  0  0  0  0
   50.1240  157.4900   29.8450 O   0  0  0  0  0  0  0  0  0  0  0  0
   49.6220  158.5870   30.4970 C   0  0  0  0  0  0  0  0  0  0  0  0
   48.2800  158.5370   30.8800 C   0  0  0  0  0  0  0  0  0  0  0  0
   47.7060  159.6210   31.5480 C   0  0  0  0  0  0  0  0  0  0  0  0
   48.4720  160.7540   31.8310 C   0  0  0  0  0  0  0  0  0  0  0  0
   49.8100  160.8010   31.4470 C   0  0  0  0  0  0  0  0  0  0  0  0
   50.5010  161.9410   31.7570 O   0  0  0  0  0  0  0  0  0  0  0  0
   50.3830  159.7160   30.7800 C   0  0  0  0  0  0  0  0  0  0  0  0
   54.0620  157.7470   29.0490 H   0  0  0  0  0  0  0  0  0  0  0  0
   51.0677  154.9066   30.2647 H   0  0  0  0  0  0  0  0  0  0  0  0
   51.7167  152.8413   29.0479 H   0  0  0  0  0  0  0  0  0  0  0  0
   53.1902  152.8588   25.6030 H   0  0  0  0  0  0  0  0  0  0  0  0
   53.8451  152.1940   27.1640 H   0  0  0  0  0  0  0  0  0  0  0  0
   54.3877  154.5954   25.5272 H   0  0  0  0  0  0  0  0  0  0  0  0
   52.7031  157.3062   27.0718 H   0  0  0  0  0  0  0  0  0  0  0  0
   47.6760  157.6454   30.6560 H   0  0  0  0  0  0  0  0  0  0  0  0
   46.6494  159.5823   31.8515 H   0  0  0  0  0  0  0  0  0  0  0  0
   48.0193  161.6079   32.3563 H   0  0  0  0  0  0  0  0  0  0  0  0
   51.3850  162.0460   31.4660 H   0  0  0  0  0  0  0  0  0  0  0  0
  1  2  2  0
  2  3  1  0
  3  4  1  0
  3  5  2  0
  5  6  1  0
  6  7  2  0
  7  8  1  0
  8  9  2  0
  9 10  1  0
 10 11  1  0
  9 12  1  0
 12 13  1  0
 13 14  1  0
 13 15  1  0
 12 16  2  0
  5 17  1  0
 17 18  1  0
 18 19  2  0
 19 20  1  0
 20 21  2  0
 21 22  1  0
 22 23  1  0
 22 24  2  0
 24  2  1  0
 16  6  1  0
 24 18  1  0
  4 25  1  0
  7 26  1  0
  8 27  1  0
 10 28  1  0
 10 29  1  0
 13 30  1  0
 16 31  1  0
 19 32  1  0
 20 33  1  0
 21 34  1  0
 23 35  1  0
M  END
>  <meeko>  (2) 
{"is_sidechain": [false], "free_energy": -10.51, "intermolecular_energy": -12.834, "internal_energy": -0.285}

$$$$
cand_019_out
     RDKit          3D

 35 37  0  0  0  0  0  0  0  0999 V2000
   52.4970  153.0530   28.8300 O   0  0  0  0  0  0  0  0  0  0  0  0
   52.4410  154.2230   28.4570 C   0  0  0  0  0  0  0  0  0  0  0  0
   51.7670  155.2470   29.2880 C   0  0  0  0  0  0  0  0  0  0  0  0
   51.2010  154.8190   30.4760 O   0  0  0  0  0  0  0  0  0  0  0  0
   51.7280  156.5150   28.8410 C   0  0  0  0  0  0  0  0  0  0  0  0
   51.0720  157.6150   29.5800 C   0  0  0  0  0  0  0  0  0  0  0  0
   49.7650  157.5010   30.0640 C   0  0  0  0  0  0  0  0  0  0  0  0
   49.1740  158.5460   30.7790 C   0  0  0  0  0  0  0  0  0  0  0  0
   49.8760  159.7330   31.0320 C   0  0  0  0  0  0  0  0  0  0  0  0
   49.2110  160.8370   31.8140 C   0  0  0  0  0  0  0  0  0  0  0  0
   48.6140  161.7590   31.0060 F   0  0  0  0  0  0  0  0  0  0  0  0
   51.2060  159.8550   30.5750 C   0  0  0  0  0  0  0  0  0  0  0  0
   52.0170  161.1050   30.8400 C   0  0  0  0  0  0  0  0  0  0  0  0
   52.3940  161.2110   32.1450 F   0  0  0  0  0  0  0  0  0  0  0  0
   53.1800  161.1500   30.1260 F   0  0  0  0  0  0  0  0  0  0  0  0
   51.7830  158.7950   29.8510 C   0  0  0  0  0  0  0  0  0  0  0  0
   52.2770  156.9280   27.6320 O   0  0  0  0  0  0  0  0  0  0  0  0
   52.9140  156.0040   26.8430 C   0  0  0  0  0  0  0  0  0  0  0  0
   53.4590  156.4640   25.6430 C   0  0  0  0  0  0  0  0  0  0  0  0
   54.1200  155.5750   24.7930 C   0  0  0  0  0  0  0  0  0  0  0  0
   54.2350  154.2270   25.1410 C   0  0  0  0  0  0  0  0  0  0  0  0
   53.6900  153.7710   26.3390 C   0  0  0  0  0  0  0  0  0  0  0  0
   53.8400  152.4410   26.6180 O   0  0  0  0  0  0  0  0  0  0  0  0
   53.0290  154.6610   27.1890 C   0  0  0  0  0  0  0  0  0  0  0  0
   50.6190  154.0840   30.4790 H   0  0  0  0  0  0  0  0  0  0  0  0
   49.1956  156.5781   29.8797 H   0  0  0  0  0  0  0  0  0  0  0  0
   48.1438  158.4359   31.1485 H   0  0  0  0  0  0  0  0  0  0  0  0
   48.4469  160.3945   32.4700 H   0  0  0  0  0  0  0  0  0  0  0  0
   49.9899  161.3535   32.3941 H   0  0  0  0  0  0  0  0  0  0  0  0
   51.3411  161.9207   30.5437 H   0  0  0  0  0  0  0  0  0  0  0  0
   52.8168  158.8934   29.4884 H   0  0  0  0  0  0  0  0  0  0  0  0
   53.3679  157.5250   25.3675 H   0  0  0  0  0  0  0  0  0  0  0  0
   54.5509  155.9367   23.8478 H   0  0  0  0  0  0  0  0  0  0  0  0
   54.7549  153.5271   24.4703 H   0  0  0  0  0  0  0  0  0  0  0  0
   53.2760  151.8110   26.2140 H   0  0  0  0  0  0  0  0  0  0  0  0
  1  2  2  0
  2  3  1  0
  3  4  1  0
  3  5  2  0
  5  6  1  0
  6  7  2  0
  7  8  1  0
  8  9  2  0
  9 10  1  0
 10 11  1  0
  9 12  1  0
 12 13  1  0
 13 14  1  0
 13 15  1  0
 12 16  2  0
  5 17  1  0
 17 18  1  0
 18 19  2  0
 19 20  1  0
 20 21  2  0
 21 22  1  0
 22 23  1  0
 22 24  2  0
 24  2  1  0
 16  6  1  0
 24 18  1  0
  4 25  1  0
  7 26  1  0
  8 27  1  0
 10 28  1  0
 10 29  1  0
 13 30  1  0
 16 31  1  0
 19 32  1  0
 20 33  1  0
 21 34  1  0
 23 35  1  0
M  END
>  <meeko>  (3) 
{"is_sidechain": [false], "free_energy": -10.468, "intermolecular_energy": -12.735, "internal_energy": -0.332}

$$$$
cand_019_out
     RDKit          3D

 35 37  0  0  0  0  0  0  0  0999 V2000
   48.0800  158.4970   30.7890 O   0  0  0  0  0  0  0  0  0  0  0  0
   49.2640  158.4310   30.4660 C   0  0  0  0  0  0  0  0  0  0  0  0
   49.7890  157.2300   29.7770 C   0  0  0  0  0  0  0  0  0  0  0  0
   48.8950  156.2020   29.5360 O   0  0  0  0  0  0  0  0  0  0  0  0
   51.0920  157.1990   29.4420 C   0  0  0  0  0  0  0  0  0  0  0  0
   51.7270  156.0480   28.7640 C   0  0  0  0  0  0  0  0  0  0  0  0
   51.6830  154.7590   29.3030 C   0  0  0  0  0  0  0  0  0  0  0  0
   52.2710  153.6820   28.6330 C   0  0  0  0  0  0  0  0  0  0  0  0
   52.9170  153.8680   27.4020 C   0  0  0  0  0  0  0  0  0  0  0  0
   53.5340  152.6840   26.7020 C   0  0  0  0  0  0  0  0  0  0  0  0
   52.6300  151.9970   25.9490 F   0  0  0  0  0  0  0  0  0  0  0  0
   52.9480  155.1580   26.8300 C   0  0  0  0  0  0  0  0  0  0  0  0
   53.6120  155.4090   25.4930 C   0  0  0  0  0  0  0  0  0  0  0  0
   52.8460  154.9910   24.4470 F   0  0  0  0  0  0  0  0  0  0  0  0
   53.8520  156.7320   25.2550 F   0  0  0  0  0  0  0  0  0  0  0  0
   52.3560  156.2310   27.5220 C   0  0  0  0  0  0  0  0  0  0  0  0
   51.9870  158.2270   29.7140 O   0  0  0  0  0  0  0  0  0  0  0  0
   51.5290  159.3550   30.3460 C   0  0  0  0  0  0  0  0  0  0  0  0
   52.4590  160.3660   30.5900 C   0  0  0  0  0  0  0  0  0  0  0  0
   52.0590  161.5410   31.2310 C   0  0  0  0  0  0  0  0  0  0  0  0
   50.7300  161.7040   31.6270 C   0  0  0  0  0  0  0  0  0  0  0  0
   49.8040  160.6930   31.3820 C   0  0  0  0  0  0  0  0  0  0  0  0
   48.5200  160.9190   31.7970 O   0  0  0  0  0  0  0  0  0  0  0  0
   50.2050  159.5190   30.7420 C   0  0  0  0  0  0  0  0  0  0  0  0
   48.0350  156.3940   29.2180 H   0  0  0  0  0  0  0  0  0  0  0  0
   51.1795  154.5899   30.2663 H   0  0  0  0  0  0  0  0  0  0  0  0
   52.2265  152.6764   29.0767 H   0  0  0  0  0  0  0  0  0  0  0  0
   54.3406  153.0426   26.0457 H   0  0  0  0  0  0  0  0  0  0  0  0
   53.9165  151.9999   27.4738 H   0  0  0  0  0  0  0  0  0  0  0  0
   54.5529  154.8432   25.5602 H   0  0  0  0  0  0  0  0  0  0  0  0
   52.3868  157.2375   27.0792 H   0  0  0  0  0  0  0  0  0  0  0  0
   53.5060  160.2380   30.2780 H   0  0  0  0  0  0  0  0  0  0  0  0
   52.7916  162.3385   31.4239 H   0  0  0  0  0  0  0  0  0  0  0  0
   50.4150  162.6293   32.1316 H   0  0  0  0  0  0  0  0  0  0  0  0
   48.3520  161.5160   32.4990 H   0  0  0  0  0  0  0  0  0  0  0  0
  1  2  2  0
  2  3  1  0
  3  4  1  0
  3  5  2  0
  5  6  1  0
  6  7  2  0
  7  8  1  0
  8  9  2  0
  9 10  1  0
 10 11  1  0
  9 12  1  0
 12 13  1  0
 13 14  1  0
 13 15  1  0
 12 16  2  0
  5 17  1  0
 17 18  1  0
 18 19  2  0
 19 20  1  0
 20 21  2  0
 21 22  1  0
 22 23  1  0
 22 24  2  0
 24  2  1  0
 16  6  1  0
 24 18  1  0
  4 25  1  0
  7 26  1  0
  8 27  1  0
 10 28  1  0
 10 29  1  0
 13 30  1  0
 16 31  1  0
 19 32  1  0
 20 33  1  0
 21 34  1  0
 23 35  1  0
M  END
>  <meeko>  (4) 
{"is_sidechain": [false], "free_energy": -9.44, "intermolecular_energy": -11.343, "internal_energy": -0.456}

$$$$
cand_019_out
     RDKit          3D

 35 37  0  0  0  0  0  0  0  0999 V2000
   52.2870  161.3080   31.3860 O   0  0  0  0  0  0  0  0  0  0  0  0
   51.6100  160.3670   30.9780 C   0  0  0  0  0  0  0  0  0  0  0  0
   52.2090  159.3310   30.1050 C   0  0  0  0  0  0  0  0  0  0  0  0
   53.5410  159.4870   29.7680 O   0  0  0  0  0  0  0  0  0  0  0  0
   51.4310  158.3200   29.6810 C   0  0  0  0  0  0  0  0  0  0  0  0
   51.9170  157.2380   28.7970 C   0  0  0  0  0  0  0  0  0  0  0  0
   52.5510  157.5100   27.5810 C   0  0  0  0  0  0  0  0  0  0  0  0
   53.0230  156.4720   26.7730 C   0  0  0  0  0  0  0  0  0  0  0  0
   52.8760  155.1330   27.1620 C   0  0  0  0  0  0  0  0  0  0  0  0
   53.4040  154.0380   26.2700 C   0  0  0  0  0  0  0  0  0  0  0  0
   52.4630  153.5790   25.3990 F   0  0  0  0  0  0  0  0  0  0  0  0
   52.2640  154.8410   28.4000 C   0  0  0  0  0  0  0  0  0  0  0  0
   52.1010  153.4150   28.8790 C   0  0  0  0  0  0  0  0  0  0  0  0
   51.4380  152.6370   27.9790 F   0  0  0  0  0  0  0  0  0  0  0  0
   53.2930  152.7820   29.0900 F   0  0  0  0  0  0  0  0  0  0  0  0
   51.7890  155.8990   29.1980 C   0  0  0  0  0  0  0  0  0  0  0  0
   50.0850  158.1880   30.0040 O   0  0  0  0  0  0  0  0  0  0  0  0
   49.5030  159.1280   30.8170 C   0  0  0  0  0  0  0  0  0  0  0  0
   48.1530  158.9510   31.1240 C   0  0  0  0  0  0  0  0  0  0  0  0
   47.5000  159.8730   31.9450 C   0  0  0  0  0  0  0  0  0  0  0  0
   48.1950  160.9700   32.4580 C   0  0  0  0  0  0  0  0  0  0  0  0
   49.5420  161.1430   32.1500 C   0  0  0  0  0  0  0  0  0  0  0  0
   50.1620  162.2390   32.6850 O   0  0  0  0  0  0  0  0  0  0  0  0
   50.1950  160.2210   31.3280 C   0  0  0  0  0  0  0  0  0  0  0  0
   53.9120  158.9750   29.0760 H   0  0  0  0  0  0  0  0  0  0  0  0
   52.6798  158.5531   27.2565 H   0  0  0  0  0  0  0  0  0  0  0  0
   53.5165  156.7087   25.8189 H   0  0  0  0  0  0  0  0  0  0  0  0
   54.2558  154.4305   25.6953 H   0  0  0  0  0  0  0  0  0  0  0  0
   53.7045  153.1974   26.9128 H   0  0  0  0  0  0  0  0  0  0  0  0
   51.5379  153.5202   29.8180 H   0  0  0  0  0  0  0  0  0  0  0  0
   51.3057  155.6707   30.1594 H   0  0  0  0  0  0  0  0  0  0  0  0
   47.6046  158.0872   30.7202 H   0  0  0  0  0  0  0  0  0  0  0  0
   46.4361  159.7347   32.1880 H   0  0  0  0  0  0  0  0  0  0  0  0
   47.6796  161.6960   33.1040 H   0  0  0  0  0  0  0  0  0  0  0  0
   51.0470  162.4380   32.4520 H   0  0  0  0  0  0  0  0  0  0  0  0
  1  2  2  0
  2  3  1  0
  3  4  1  0
  3  5  2  0
  5  6  1  0
  6  7  2  0
  7  8  1  0
  8  9  2  0
  9 10  1  0
 10 11  1  0
  9 12  1  0
 12 13  1  0
 13 14  1  0
 13 15  1  0
 12 16  2  0
  5 17  1  0
 17 18  1  0
 18 19  2  0
 19 20  1  0
 20 21  2  0
 21 22  1  0
 22 23  1  0
 22 24  2  0
 24  2  1  0
 16  6  1  0
 24 18  1  0
  4 25  1  0
  7 26  1  0
  8 27  1  0
 10 28  1  0
 10 29  1  0
 13 30  1  0
 16 31  1  0
 19 32  1  0
 20 33  1  0
 21 34  1  0
 23 35  1  0
M  END
>  <meeko>  (5) 
{"is_sidechain": [false], "free_energy": -8.828, "intermolecular_energy": -10.839, "internal_energy": -0.206}

$$$$
cand_019_out
     RDKit          3D

 35 37  0  0  0  0  0  0  0  0999 V2000
   48.4960  158.1170   31.1730 O   0  0  0  0  0  0  0  0  0  0  0  0
   49.6010  158.2770   30.6580 C   0  0  0  0  0  0  0  0  0  0  0  0
   50.1420  157.2740   29.7120 C   0  0  0  0  0  0  0  0  0  0  0  0
   49.3580  156.1630   29.4580 O   0  0  0  0  0  0  0  0  0  0  0  0
   51.3560  157.4880   29.1740 C   0  0  0  0  0  0  0  0  0  0  0  0
   52.0000  156.5490   28.2290 C   0  0  0  0  0  0  0  0  0  0  0  0
   52.8130  156.9990   27.1840 C   0  0  0  0  0  0  0  0  0  0  0  0
   53.4310  156.0930   26.3170 C   0  0  0  0  0  0  0  0  0  0  0  0
   53.2510  154.7110   26.4740 C   0  0  0  0  0  0  0  0  0  0  0  0
   53.9380  153.7610   25.5260 C   0  0  0  0  0  0  0  0  0  0  0  0
   53.3410  153.7270   24.3020 F   0  0  0  0  0  0  0  0  0  0  0  0
   52.4550  154.2380   27.5400 C   0  0  0  0  0  0  0  0  0  0  0  0
   52.2480  152.7570   27.7690 C   0  0  0  0  0  0  0  0  0  0  0  0
   51.5350  152.5020   28.9020 F   0  0  0  0  0  0  0  0  0  0  0  0
   51.5500  152.1520   26.7630 F   0  0  0  0  0  0  0  0  0  0  0  0
   51.8370  155.1660   28.3990 C   0  0  0  0  0  0  0  0  0  0  0  0
   52.1460  158.5950   29.4580 O   0  0  0  0  0  0  0  0  0  0  0  0
   51.6700  159.5450   30.3260 C   0  0  0  0  0  0  0  0  0  0  0  0
   52.4920  160.6450   30.5750 C   0  0  0  0  0  0  0  0  0  0  0  0
   52.0670  161.6480   31.4490 C   0  0  0  0  0  0  0  0  0  0  0  0
   50.8220  161.5510   32.0740 C   0  0  0  0  0  0  0  0  0  0  0  0
   50.0040  160.4520   31.8230 C   0  0  0  0  0  0  0  0  0  0  0  0
   48.7980  160.4210   32.4680 O   0  0  0  0  0  0  0  0  0  0  0  0
   50.4290  159.4490   30.9490 C   0  0  0  0  0  0  0  0  0  0  0  0
   49.4420  155.7070   28.6430 H   0  0  0  0  0  0  0  0  0  0  0  0
   52.9681  158.0788   27.0425 H   0  0  0  0  0  0  0  0  0  0  0  0
   54.0664  156.4688   25.5015 H   0  0  0  0  0  0  0  0  0  0  0  0
   54.9829  154.0810   25.4007 H   0  0  0  0  0  0  0  0  0  0  0  0
   53.8749  152.7515   25.9583 H   0  0  0  0  0  0  0  0  0  0  0  0
   53.2715  152.3592   27.8335 H   0  0  0  0  0  0  0  0  0  0  0  0
   51.2103  154.7975   29.2245 H   0  0  0  0  0  0  0  0  0  0  0  0
   53.4731  160.7219   30.0836 H   0  0  0  0  0  0  0  0  0  0  0  0
   52.7139  162.5157   31.6454 H   0  0  0  0  0  0  0  0  0  0  0  0
   50.4881  162.3408   32.7630 H   0  0  0  0  0  0  0  0  0  0  0  0
   48.7370  160.6910   33.3630 H   0  0  0  0  0  0  0  0  0  0  0  0
  1  2  2  0
  2  3  1  0
  3  4  1  0
  3  5  2  0
  5  6  1  0
  6  7  2  0
  7  8  1  0
  8  9  2  0
  9 10  1  0
 10 11  1  0
  9 12  1  0
 12 13  1  0
 13 14  1  0
 13 15  1  0
 12 16  2  0
  5 17  1  0
 17 18  1  0
 18 19  2  0
 19 20  1  0
 20 21  2  0
 21 22  1  0
 22 23  1  0
 22 24  2  0
 24  2  1  0
 16  6  1  0
 24 18  1  0
  4 25  1  0
  7 26  1  0
  8 27  1  0
 10 28  1  0
 10 29  1  0
 13 30  1  0
 16 31  1  0
 19 32  1  0
 20 33  1  0
 21 34  1  0
 23 35  1  0
M  END
>  <meeko>  (6) 
{"is_sidechain": [false], "free_energy": -8.437, "intermolecular_energy": -10.462, "internal_energy": -0.101}

$$$$
cand_019_out
     RDKit          3D

 35 37  0  0  0  0  0  0  0  0999 V2000
   54.6920  155.1860   24.8090 O   0  0  0  0  0  0  0  0  0  0  0  0
   53.8590  154.7440   25.5980 C   0  0  0  0  0  0  0  0  0  0  0  0
   53.1240  155.6560   26.5040 C   0  0  0  0  0  0  0  0  0  0  0  0
   53.4320  157.0020   26.4270 O   0  0  0  0  0  0  0  0  0  0  0  0
   52.2220  155.1300   27.3520 C   0  0  0  0  0  0  0  0  0  0  0  0
   51.4390  155.9410   28.3100 C   0  0  0  0  0  0  0  0  0  0  0  0
   50.2880  155.4440   28.9280 C   0  0  0  0  0  0  0  0  0  0  0  0
   49.5770  156.2210   29.8470 C   0  0  0  0  0  0  0  0  0  0  0  0
   50.0020  157.5170   30.1740 C   0  0  0  0  0  0  0  0  0  0  0  0
   49.2160  158.3250   31.1750 C   0  0  0  0  0  0  0  0  0  0  0  0
   48.0300  158.7650   30.6710 F   0  0  0  0  0  0  0  0  0  0  0  0
   51.1770  158.0250   29.5800 C   0  0  0  0  0  0  0  0  0  0  0  0
   51.6930  159.4070   29.9150 C   0  0  0  0  0  0  0  0  0  0  0  0
   50.8460  160.3920   29.5020 F   0  0  0  0  0  0  0  0  0  0  0  0
   51.8500  159.6100   31.2560 F   0  0  0  0  0  0  0  0  0  0  0  0
   51.8770  157.2300   28.6520 C   0  0  0  0  0  0  0  0  0  0  0  0
   51.9410  153.7710   27.4400 O   0  0  0  0  0  0  0  0  0  0  0  0
   52.6010  152.9020   26.6090 C   0  0  0  0  0  0  0  0  0  0  0  0
   52.2800  151.5490   26.7240 C   0  0  0  0  0  0  0  0  0  0  0  0
   52.9170  150.6110   25.9070 C   0  0  0  0  0  0  0  0  0  0  0  0
   53.8730  151.0260   24.9780 C   0  0  0  0  0  0  0  0  0  0  0  0
   54.1900  152.3770   24.8660 C   0  0  0  0  0  0  0  0  0  0  0  0
   55.1350  152.7130   23.9360 O   0  0  0  0  0  0  0  0  0  0  0  0
   53.5540  153.3140   25.6820 C   0  0  0  0  0  0  0  0  0  0  0  0
   52.7450  157.6400   26.4240 H   0  0  0  0  0  0  0  0  0  0  0  0
   49.9375  154.4293   28.6883 H   0  0  0  0  0  0  0  0  0  0  0  0
   48.6725  155.8107   30.3198 H   0  0  0  0  0  0  0  0  0  0  0  0
   49.0144  157.6971   32.0554 H   0  0  0  0  0  0  0  0  0  0  0  0
   49.8165  159.2082   31.4384 H   0  0  0  0  0  0  0  0  0  0  0  0
   52.6599  159.4553   29.3927 H   0  0  0  0  0  0  0  0  0  0  0  0
   52.7890  157.6288   28.1838 H   0  0  0  0  0  0  0  0  0  0  0  0
   51.5272  151.2214   27.4561 H   0  0  0  0  0  0  0  0  0  0  0  0
   52.6648  149.5440   25.9960 H   0  0  0  0  0  0  0  0  0  0  0  0
   54.3747  150.2871   24.3359 H   0  0  0  0  0  0  0  0  0  0  0  0
   54.9500  152.6160   23.0230 H   0  0  0  0  0  0  0  0  0  0  0  0
  1  2  2  0
  2  3  1  0
  3  4  1  0
  3  5  2  0
  5  6  1  0
  6  7  2  0
  7  8  1  0
  8  9  2  0
  9 10  1  0
 10 11  1  0
  9 12  1  0
 12 13  1  0
 13 14  1  0
 13 15  1  0
 12 16  2  0
  5 17  1  0
 17 18  1  0
 18 19  2  0
 19 20  1  0
 20 21  2  0
 21 22  1  0
 22 23  1  0
 22 24  2  0
 24  2  1  0
 16  6  1  0
 24 18  1  0
  4 25  1  0
  7 26  1  0
  8 27  1  0
 10 28  1  0
 10 29  1  0
 13 30  1  0
 16 31  1  0
 19 32  1  0
 20 33  1  0
 21 34  1  0
 23 35  1  0
M  END
>  <meeko>  (7) 
{"is_sidechain": [false], "free_energy": -8.191, "intermolecular_energy": -10.524, "internal_energy": 0.266}

$$$$
