cand_037_out
     RDKit          3D

 35 37  0  0  0  0  0  0  0  0999 V2000
   52.1700  161.0600   30.6250 C   0  0  0  0  0  0  0  0  0  0  0  0
   51.3250  159.8270   30.4540 C   0  0  0  0  0  0  0  0  0  0  0  0
   51.8620  158.7230   29.7660 C   0  0  0  0  0  0  0  0  0  0  0  0
   51.1240  157.5460   29.5710 C   0  0  0  0  0  0  0  0  0  0  0  0
   51.7200  156.4170   28.8260 C   0  0  0  0  0  0  0  0  0  0  0  0
   52.3020  156.8090   27.6260 O   0  0  0  0  0  0  0  0  0  0  0  0
   52.8940  155.8600   26.8340 C   0  0  0  0  0  0  0  0  0  0  0  0
   53.4530  156.2960   25.6310 C   0  0  0  0  0  0  0  0  0  0  0  0
   54.0720  155.3790   24.7790 C   0  0  0  0  0  0  0  0  0  0  0  0
   54.1340  154.0290   25.1270 C   0  0  0  0  0  0  0  0  0  0  0  0
   53.5760  153.5960   26.3280 C   0  0  0  0  0  0  0  0  0  0  0  0
   53.6720  152.2600   26.6080 O   0  0  0  0  0  0  0  0  0  0  0  0
   52.9550  154.5130   27.1800 C   0  0  0  0  0  0  0  0  0  0  0  0
   52.3550  154.1000   28.4510 C   0  0  0  0  0  0  0  0  0  0  0  0
   52.3750  152.9320   28.8300 O   0  0  0  0  0  0  0  0  0  0  0  0
   51.7150  155.1490   29.2780 C   0  0  0  0  0  0  0  0  0  0  0  0
   51.1640  154.7510   30.4820 O   0  0  0  0  0  0  0  0  0  0  0  0
   49.8150  157.4950   30.0600 C   0  0  0  0  0  0  0  0  0  0  0  0
   49.2620  158.5870   30.7350 C   0  0  0  0  0  0  0  0  0  0  0  0
   50.0000  159.7650   30.9300 C   0  0  0  0  0  0  0  0  0  0  0  0
   49.3680  160.9100   31.6800 C   0  0  0  0  0  0  0  0  0  0  0  0
   48.4530  161.6020   30.9430 F   0  0  0  0  0  0  0  0  0  0  0  0
   52.3093  161.2633   31.6970 H   0  0  0  0  0  0  0  0  0  0  0  0
   53.1501  160.9014   30.1515 H   0  0  0  0  0  0  0  0  0  0  0  0
   51.6684  161.9168   30.1515 H   0  0  0  0  0  0  0  0  0  0  0  0
   52.8868  158.7846   29.3710 H   0  0  0  0  0  0  0  0  0  0  0  0
   53.4058  157.3598   25.3550 H   0  0  0  0  0  0  0  0  0  0  0  0
   54.5120  155.7217   23.8309 H   0  0  0  0  0  0  0  0  0  0  0  0
   54.6223  153.3083   24.4546 H   0  0  0  0  0  0  0  0  0  0  0  0
   54.4350  151.7820   26.3510 H   0  0  0  0  0  0  0  0  0  0  0  0
   51.3090  153.8800   30.7980 H   0  0  0  0  0  0  0  0  0  0  0  0
   49.2139  156.5857   29.9119 H   0  0  0  0  0  0  0  0  0  0  0  0
   48.2333  158.5223   31.1191 H   0  0  0  0  0  0  0  0  0  0  0  0
   48.8647  160.5072   32.5713 H   0  0  0  0  0  0  0  0  0  0  0  0
   50.1740  161.6124   31.9387 H   0  0  0  0  0  0  0  0  0  0  0  0
  1  2  1  0
  2  3  2  0
  3  4  1  0
  4  5  1  0
  5  6  1  0
  6  7  1  0
  7  8  2  0
  8  9  1  0
  9 10  2  0
 10 11  1  0
 11 12  1  0
 11 13  2  0
 13 14  1  0
 14 15  2  0
 14 16  1  0
 16 17  1  0
  4 18  2  0
 18 19  1  0
 19 20  2  0
 20 21  1  0
 21 22  1  0
 20  2  1  0
 16  5  2  0
 13  7  1  0
  1 23  1  0
  1 24  1  0
  1 25  1  0
  3 26  1  0
  8 27  1  0
  9 28  1  0
 10 29  1  0
 12 30  1  0
 17 31  1  0
 18 32  1  0
 19 33  1  0
 21 34  1  0
 21 35  1  0
M  END
>  <meeko>  (1) 
{"is_sidechain": [false], "free_energy": -10.577, "intermolecular_energy": -12.432, "internal_energy": -0.199}

$$$$
cand_037_out
     RDKit          3D

 35 37  0  0  0  0  0  0  0  0999 V2000
   48.2340  158.8320   31.3190 C   0  0  0  0  0  0  0  0  0  0  0  0
   49.6320  158.8810   30.7660 C   0  0  0  0  0  0  0  0  0  0  0  0
   50.1200  157.7750   30.0460 C   0  0  0  0  0  0  0  0  0  0  0  0
   51.4150  157.7590   29.5080 C   0  0  0  0  0  0  0  0  0  0  0  0
   51.8950  156.5680   28.7750 C   0  0  0  0  0  0  0  0  0  0  0  0
   52.4860  156.8840   27.5580 O   0  0  0  0  0  0  0  0  0  0  0  0
   52.9760  155.8710   26.7750 C   0  0  0  0  0  0  0  0  0  0  0  0
   53.5490  156.2330   25.5540 C   0  0  0  0  0  0  0  0  0  0  0  0
   54.0680  155.2500   24.7100 C   0  0  0  0  0  0  0  0  0  0  0  0
   54.0170  153.9060   25.0850 C   0  0  0  0  0  0  0  0  0  0  0  0
   53.4460  153.5460   26.3030 C   0  0  0  0  0  0  0  0  0  0  0  0
   53.4290  152.2130   26.6080 O   0  0  0  0  0  0  0  0  0  0  0  0
   52.9250  154.5310   27.1480 C   0  0  0  0  0  0  0  0  0  0  0  0
   52.3160  154.1970   28.4360 C   0  0  0  0  0  0  0  0  0  0  0  0
   52.2390  153.0390   28.8390 O   0  0  0  0  0  0  0  0  0  0  0  0
   51.7860  155.3140   29.2540 C   0  0  0  0  0  0  0  0  0  0  0  0
   51.2260  154.9890   30.4750 O   0  0  0  0  0  0  0  0  0  0  0  0
   52.2370  158.8700   29.7220 C   0  0  0  0  0  0  0  0  0  0  0  0
   51.7720  159.9720   30.4450 C   0  0  0  0  0  0  0  0  0  0  0  0
   50.4760  159.9890   30.9840 C   0  0  0  0  0  0  0  0  0  0  0  0
   50.0130  161.2080   31.7400 C   0  0  0  0  0  0  0  0  0  0  0  0
   49.9900  161.0310   33.0920 F   0  0  0  0  0  0  0  0  0  0  0  0
   48.2743  158.8334   32.4183 H   0  0  0  0  0  0  0  0  0  0  0  0
   47.6712  159.7110   30.9716 H   0  0  0  0  0  0  0  0  0  0  0  0
   47.7342  157.9158   30.9716 H   0  0  0  0  0  0  0  0  0  0  0  0
   49.4689  156.9003   29.9014 H   0  0  0  0  0  0  0  0  0  0  0  0
   53.5912  157.2915   25.2578 H   0  0  0  0  0  0  0  0  0  0  0  0
   54.5181  155.5346   23.7475 H   0  0  0  0  0  0  0  0  0  0  0  0
   54.4273  153.1325   24.4191 H   0  0  0  0  0  0  0  0  0  0  0  0
   53.5840  151.5770   25.9390 H   0  0  0  0  0  0  0  0  0  0  0  0
   50.7620  155.6390   30.9650 H   0  0  0  0  0  0  0  0  0  0  0  0
   53.2598  158.8766   29.3172 H   0  0  0  0  0  0  0  0  0  0  0  0
   52.4318  160.8394   30.5940 H   0  0  0  0  0  0  0  0  0  0  0  0
   50.6935  162.0408   31.5090 H   0  0  0  0  0  0  0  0  0  0  0  0
   48.9803  161.4142   31.4221 H   0  0  0  0  0  0  0  0  0  0  0  0
  1  2  1  0
  2  3  2  0
  3  4  1  0
  4  5  1  0
  5  6  1  0
  6  7  1  0
  7  8  2  0
  8  9  1  0
  9 10  2  0
 10 11  1  0
 11 12  1  0
 11 13  2  0
 13 14  1  0
 14 15  2  0
 14 16  1  0
 16 17  1  0
  4 18  2  0
 18 19  1  0
 19 20  2  0
 20 21  1  0
 21 22  1  0
 20  2  1  0
 16  5  2  0
 13  7  1  0
  1 23  1  0
  1 24  1  0
  1 25  1  0
  3 26  1  0
  8 27  1  0
  9 28  1  0
 10 29  1  0
 12 30  1  0
 17 31  1  0
 18 32  1  0
 19 33  1  0
 21 34  1  0
 21 35  1  0
M  END
>  <meeko>  (2) 
{"is_sidechain": [false], "free_energy": -10.384, "intermolecular_energy": -12.258, "internal_energy": -0.145}

$$$$
cand_037_out
     RDKit          3D

 35 37  0  0  0  0  0  0  0  0999 V2000
   53.6650  155.3500   25.4190 C   0  0  0  0  0  0  0  0  0  0  0  0
   52.9380  155.1910   26.7260 C   0  0  0  0  0  0  0  0  0  0  0  0
   52.5370  156.3430   27.4280 C   0  0  0  0  0  0  0  0  0  0  0  0
   51.8590  156.2600   28.6530 C   0  0  0  0  0  0  0  0  0  0  0  0
   51.4740  157.4960   29.3670 C   0  0  0  0  0  0  0  0  0  0  0  0
   50.1490  157.4880   29.7870 O   0  0  0  0  0  0  0  0  0  0  0  0
   49.6600  158.5750   30.4640 C   0  0  0  0  0  0  0  0  0  0  0  0
   48.3200  158.5290   30.8540 C   0  0  0  0  0  0  0  0  0  0  0  0
   47.7600  159.6030   31.5480 C   0  0  0  0  0  0  0  0  0  0  0  0
   48.5380  160.7220   31.8540 C   0  0  0  0  0  0  0  0  0  0  0  0
   49.8750  160.7650   31.4660 C   0  0  0  0  0  0  0  0  0  0  0  0
   50.5790  161.8890   31.7990 O   0  0  0  0  0  0  0  0  0  0  0  0
   50.4350  159.6900   30.7690 C   0  0  0  0  0  0  0  0  0  0  0  0
   51.8350  159.6940   30.3420 C   0  0  0  0  0  0  0  0  0  0  0  0
   52.5850  160.6380   30.5800 O   0  0  0  0  0  0  0  0  0  0  0  0
   52.3290  158.5090   29.6030 C   0  0  0  0  0  0  0  0  0  0  0  0
   53.6570  158.5180   29.2160 O   0  0  0  0  0  0  0  0  0  0  0  0
   51.6030  154.9930   29.1860 C   0  0  0  0  0  0  0  0  0  0  0  0
   52.0040  153.8390   28.5070 C   0  0  0  0  0  0  0  0  0  0  0  0
   52.6840  153.9210   27.2820 C   0  0  0  0  0  0  0  0  0  0  0  0
   53.0800  152.6480   26.5770 C   0  0  0  0  0  0  0  0  0  0  0  0
   52.1450  151.6600   26.6770 F   0  0  0  0  0  0  0  0  0  0  0  0
   54.7227  155.5813   25.6135 H   0  0  0  0  0  0  0  0  0  0  0  0
   53.5939  154.4151   24.8438 H   0  0  0  0  0  0  0  0  0  0  0  0
   53.2101  156.1699   24.8438 H   0  0  0  0  0  0  0  0  0  0  0  0
   52.7610  157.3335   27.0053 H   0  0  0  0  0  0  0  0  0  0  0  0
   47.7066  157.6478   30.6147 H   0  0  0  0  0  0  0  0  0  0  0  0
   46.7041  159.5680   31.8544 H   0  0  0  0  0  0  0  0  0  0  0  0
   48.0955  161.5679   32.4005 H   0  0  0  0  0  0  0  0  0  0  0  0
   51.0130  161.9420   32.6280 H   0  0  0  0  0  0  0  0  0  0  0  0
   54.1670  157.7340   29.2760 H   0  0  0  0  0  0  0  0  0  0  0  0
   51.0805  154.9035   30.1498 H   0  0  0  0  0  0  0  0  0  0  0  0
   51.7833  152.8518   28.9392 H   0  0  0  0  0  0  0  0  0  0  0  0
   53.2364  152.8735   25.5118 H   0  0  0  0  0  0  0  0  0  0  0  0
   53.9954  152.2791   27.0627 H   0  0  0  0  0  0  0  0  0  0  0  0
  1  2  1  0
  2  3  2  0
  3  4  1  0
  4  5  1  0
  5  6  1  0
  6  7  1  0
  7  8  2  0
  8  9  1  0
  9 10  2  0
 10 11  1  0
 11 12  1  0
 11 13  2  0
 13 14  1  0
 14 15  2  0
 14 16  1  0
 16 17  1  0
  4 18  2  0
 18 19  1  0
 19 20  2  0
 20 21  1  0
 21 22  1  0
 20  2  1  0
 16  5  2  0
 13  7  1  0
  1 23  1  0
  1 24  1  0
  1 25  1  0
  3 26  1  0
  8 27  1  0
  9 28  1  0
 10 29  1  0
 12 30  1  0
 17 31  1  0
 18 32  1  0
 19 33  1  0
 21 34  1  0
 21 35  1  0
M  END
>  <meeko>  (3) 
{"is_sidechain": [false], "free_energy": -9.866, "intermolecular_energy": -11.682, "internal_energy": -0.113}

$$$$
cand_037_out
     RDKit          3D

 35 37  0  0  0  0  0  0  0  0999 V2000
   51.9490  160.3940   30.4670 C   0  0  0  0  0  0  0  0  0  0  0  0
   51.2950  159.0700   30.1770 C   0  0  0  0  0  0  0  0  0  0  0  0
   51.9660  158.1440   29.3580 C   0  0  0  0  0  0  0  0  0  0  0  0
   51.4070  156.8940   29.0480 C   0  0  0  0  0  0  0  0  0  0  0  0
   52.1380  155.9580   28.1670 C   0  0  0  0  0  0  0  0  0  0  0  0
   52.7270  156.5900   27.0780 O   0  0  0  0  0  0  0  0  0  0  0  0
   53.4370  155.8380   26.1790 C   0  0  0  0  0  0  0  0  0  0  0  0
   53.9990  156.5110   25.0920 C   0  0  0  0  0  0  0  0  0  0  0  0
   54.7360  155.8030   24.1410 C   0  0  0  0  0  0  0  0  0  0  0  0
   54.9140  154.4250   24.2750 C   0  0  0  0  0  0  0  0  0  0  0  0
   54.3530  153.7550   25.3590 C   0  0  0  0  0  0  0  0  0  0  0  0
   54.5660  152.4060   25.4300 O   0  0  0  0  0  0  0  0  0  0  0  0
   53.6140  154.4630   26.3110 C   0  0  0  0  0  0  0  0  0  0  0  0
   53.0070  153.7990   27.4660 C   0  0  0  0  0  0  0  0  0  0  0  0
   53.1240  152.5910   27.6570 O   0  0  0  0  0  0  0  0  0  0  0  0
   52.2370  154.6390   28.4130 C   0  0  0  0  0  0  0  0  0  0  0  0
   51.6800  154.0030   29.5070 O   0  0  0  0  0  0  0  0  0  0  0  0
   50.1410  156.5890   29.5580 C   0  0  0  0  0  0  0  0  0  0  0  0
   49.4570  157.5030   30.3630 C   0  0  0  0  0  0  0  0  0  0  0  0
   50.0150  158.7530   30.6730 C   0  0  0  0  0  0  0  0  0  0  0  0
   49.2460  159.6980   31.5620 C   0  0  0  0  0  0  0  0  0  0  0  0
   49.7680  159.8060   32.8170 F   0  0  0  0  0  0  0  0  0  0  0  0
   52.0198  160.5374   31.5553 H   0  0  0  0  0  0  0  0  0  0  0  0
   52.9579  160.4084   30.0288 H   0  0  0  0  0  0  0  0  0  0  0  0
   51.3473  161.2039   30.0288 H   0  0  0  0  0  0  0  0  0  0  0  0
   52.9535  158.4058   28.9502 H   0  0  0  0  0  0  0  0  0  0  0  0
   53.8612  157.5971   24.9853 H   0  0  0  0  0  0  0  0  0  0  0  0
   55.1776  156.3324   23.2838 H   0  0  0  0  0  0  0  0  0  0  0  0
   55.4965  153.8693   23.5254 H   0  0  0  0  0  0  0  0  0  0  0  0
   54.9490  151.9540   24.7040 H   0  0  0  0  0  0  0  0  0  0  0  0
   51.2700  153.1670   29.4040 H   0  0  0  0  0  0  0  0  0  0  0  0
   49.6789  155.6189   29.3227 H   0  0  0  0  0  0  0  0  0  0  0  0
   48.4657  157.2390   30.7601 H   0  0  0  0  0  0  0  0  0  0  0  0
   49.2484  160.6946   31.0964 H   0  0  0  0  0  0  0  0  0  0  0  0
   48.2296  159.2907   31.6669 H   0  0  0  0  0  0  0  0  0  0  0  0
  1  2  1  0
  2  3  2  0
  3  4  1  0
  4  5  1  0
  5  6  1  0
  6  7  1  0
  7  8  2  0
  8  9  1  0
  9 10  2  0
 10 11  1  0
 11 12  1  0
 11 13  2  0
 13 14  1  0
 14 15  2  0
 14 16  1  0
 16 17  1  0
  4 18  2  0
 18 19  1  0
 19 20  2  0
 20 21  1  0
 21 22  1  0
 20  2  1  0
 16  5  2  0
 13  7  1  0
  1 23  1  0
  1 24  1  0
  1 25  1  0
  3 26  1  0
  8 27  1  0
  9 28  1  0
 10 29  1  0
 12 30  1  0
 17 31  1  0
 18 32  1  0
 19 33  1  0
 21 34  1  0
 21 35  1  0
M  END
>  <meeko>  (4) 
{"is_sidechain": [false], "free_energy": -9.858, "intermolecular_energy": -11.665, "internal_energy": -0.121}

$$$$
cand_037_out
     RDKit          3D

 35 37  0  0  0  0  0  0  0  0999 V2000
   53.6670  155.7900   25.5060 C   0  0  0  0  0  0  0  0  0  0  0  0
   52.9540  155.4370   26.7830 C   0  0  0  0  0  0  0  0  0  0  0  0
   52.3490  156.4630   27.5320 C   0  0  0  0  0  0  0  0  0  0  0  0
   51.6730  156.1980   28.7330 C   0  0  0  0  0  0  0  0  0  0  0  0
   51.0690  157.3080   29.4990 C   0  0  0  0  0  0  0  0  0  0  0  0
   51.9570  158.3540   29.7250 O   0  0  0  0  0  0  0  0  0  0  0  0
   51.5250  159.4520   30.4250 C   0  0  0  0  0  0  0  0  0  0  0  0
   52.4530  160.4720   30.6410 C   0  0  0  0  0  0  0  0  0  0  0  0
   52.0770  161.6170   31.3450 C   0  0  0  0  0  0  0  0  0  0  0  0
   50.7750  161.7450   31.8320 C   0  0  0  0  0  0  0  0  0  0  0  0
   49.8500  160.7270   31.6140 C   0  0  0  0  0  0  0  0  0  0  0  0
   48.5920  160.9160   32.1180 O   0  0  0  0  0  0  0  0  0  0  0  0
   50.2270  159.5790   30.9110 C   0  0  0  0  0  0  0  0  0  0  0  0
   49.2870  158.4850   30.6600 C   0  0  0  0  0  0  0  0  0  0  0  0
   48.1220  158.5260   31.0500 O   0  0  0  0  0  0  0  0  0  0  0  0
   49.7870  157.3090   29.9110 C   0  0  0  0  0  0  0  0  0  0  0  0
   48.8870  156.2880   29.6680 O   0  0  0  0  0  0  0  0  0  0  0  0
   51.6290  154.8780   29.1920 C   0  0  0  0  0  0  0  0  0  0  0  0
   52.2350  153.8480   28.4660 C   0  0  0  0  0  0  0  0  0  0  0  0
   52.9120  154.1130   27.2650 C   0  0  0  0  0  0  0  0  0  0  0  0
   53.5330  152.9670   26.5070 C   0  0  0  0  0  0  0  0  0  0  0  0
   52.6180  152.0880   26.0080 F   0  0  0  0  0  0  0  0  0  0  0  0
   54.6296  156.2666   25.7432 H   0  0  0  0  0  0  0  0  0  0  0  0
   53.8448  154.8758   24.9206 H   0  0  0  0  0  0  0  0  0  0  0  0
   53.0478  156.4856   24.9206 H   0  0  0  0  0  0  0  0  0  0  0  0
   52.4073  157.4990   27.1670 H   0  0  0  0  0  0  0  0  0  0  0  0
   53.4791  160.3736   30.2570 H   0  0  0  0  0  0  0  0  0  0  0  0
   52.8084  162.4205   31.5165 H   0  0  0  0  0  0  0  0  0  0  0  0
   50.4803  162.6480   32.3868 H   0  0  0  0  0  0  0  0  0  0  0  0
   47.9040  160.3200   31.8960 H   0  0  0  0  0  0  0  0  0  0  0  0
   48.0300  156.3210   30.0450 H   0  0  0  0  0  0  0  0  0  0  0  0
   51.1118  154.6472   30.1350 H   0  0  0  0  0  0  0  0  0  0  0  0
   52.1805  152.8154   28.8412 H   0  0  0  0  0  0  0  0  0  0  0  0
   54.1146  153.3780   25.6687 H   0  0  0  0  0  0  0  0  0  0  0  0
   54.1627  152.4114   27.2175 H   0  0  0  0  0  0  0  0  0  0  0  0
  1  2  1  0
  2  3  2  0
  3  4  1  0
  4  5  1  0
  5  6  1  0
  6  7  1  0
  7  8  2  0
  8  9  1  0
  9 10  2  0
 10 11  1  0
 11 12  1  0
 11 13  2  0
 13 14  1  0
 14 15  2  0
 14 16  1  0
 16 17  1  0
  4 18  2  0
 18 19  1  0
 19 20  2  0
 20 21  1  0
 21 22  1  0
 20  2  1  0
 16  5  2  0
 13  7  1  0
  1 23  1  0
  1 24  1  0
  1 25  1  0
  3 26  1  0
  8 27  1  0
  9 28  1  0
 10 29  1  0
 12 30  1  0
 17 31  1  0
 18 32  1  0
 19 33  1  0
 21 34  1  0
 21 35  1  0
M  END
>  <meeko>  (5) 
{"is_sidechain": [false], "free_energy": -8.888, "intermolecular_energy": -10.426, "internal_energy": -0.22}

$$$$
cand_037_out
     RDKit          3D

 35 37  0  0  0  0  0  0  0  0999 V2000
   51.8460  159.3420   30.0550 C   0  0  0  0  0  0  0  0  0  0  0  0
   51.2750  158.0020   29.6770 C   0  0  0  0  0  0  0  0  0  0  0  0
   51.9780  157.1940   28.7640 C   0  0  0  0  0  0  0  0  0  0  0  0
   51.4960  155.9370   28.3710 C   0  0  0  0  0  0  0  0  0  0  0  0
   52.2570  155.1290   27.3940 C   0  0  0  0  0  0  0  0  0  0  0  0
   51.9650  153.7720   27.4720 O   0  0  0  0  0  0  0  0  0  0  0  0
   52.6020  152.9060   26.6190 C   0  0  0  0  0  0  0  0  0  0  0  0
   52.2890  151.5510   26.7420 C   0  0  0  0  0  0  0  0  0  0  0  0
   52.9010  150.6180   25.9040 C   0  0  0  0  0  0  0  0  0  0  0  0
   53.8230  151.0360   24.9430 C   0  0  0  0  0  0  0  0  0  0  0  0
   54.1330  152.3890   24.8210 C   0  0  0  0  0  0  0  0  0  0  0  0
   55.0430  152.7300   23.8600 O   0  0  0  0  0  0  0  0  0  0  0  0
   53.5210  153.3240   25.6620 C   0  0  0  0  0  0  0  0  0  0  0  0
   53.8180  154.7540   25.5680 C   0  0  0  0  0  0  0  0  0  0  0  0
   54.6120  155.2010   24.7450 O   0  0  0  0  0  0  0  0  0  0  0  0
   53.1220  155.6610   26.5100 C   0  0  0  0  0  0  0  0  0  0  0  0
   53.3990  157.0120   26.4040 O   0  0  0  0  0  0  0  0  0  0  0  0
   50.2730  155.5020   28.8910 C   0  0  0  0  0  0  0  0  0  0  0  0
   49.5560  156.2970   29.7890 C   0  0  0  0  0  0  0  0  0  0  0  0
   50.0380  157.5560   30.1830 C   0  0  0  0  0  0  0  0  0  0  0  0
   49.2380  158.3700   31.1690 C   0  0  0  0  0  0  0  0  0  0  0  0
   48.0570  158.8260   30.6640 F   0  0  0  0  0  0  0  0  0  0  0  0
   51.8830  159.4288   31.1509 H   0  0  0  0  0  0  0  0  0  0  0  0
   52.8624  159.4362   29.6452 H   0  0  0  0  0  0  0  0  0  0  0  0
   51.2099  160.1404   29.6452 H   0  0  0  0  0  0  0  0  0  0  0  0
   52.9293  157.5575   28.3482 H   0  0  0  0  0  0  0  0  0  0  0  0
   51.5616  151.2196   27.4977 H   0  0  0  0  0  0  0  0  0  0  0  0
   52.6561  149.5500   26.0010 H   0  0  0  0  0  0  0  0  0  0  0  0
   54.3039  150.2988   24.2833 H   0  0  0  0  0  0  0  0  0  0  0  0
   54.7610  152.8790   22.9790 H   0  0  0  0  0  0  0  0  0  0  0  0
   53.3080  157.5680   27.1520 H   0  0  0  0  0  0  0  0  0  0  0  0
   49.8710  154.5234   28.5899 H   0  0  0  0  0  0  0  0  0  0  0  0
   48.6004  155.9316   30.1931 H   0  0  0  0  0  0  0  0  0  0  0  0
   49.0226  157.7418   32.0459 H   0  0  0  0  0  0  0  0  0  0  0  0
   49.8424  159.2521   31.4271 H   0  0  0  0  0  0  0  0  0  0  0  0
  1  2  1  0
  2  3  2  0
  3  4  1  0
  4  5  1  0
  5  6  1  0
  6  7  1  0
  7  8  2  0
  8  9  1  0
  9 10  2  0
 10 11  1  0
 11 12  1  0
 11 13  2  0
 13 14  1  0
 14 15  2  0
 14 16  1  0
 16 17  1  0
  4 18  2  0
 18 19  1  0
 19 20  2  0
 20 21  1  0
 21 22  1  0
 20  2  1  0
 16  5  2  0
 13  7  1  0
  1 23  1  0
  1 24  1  0
  1 25  1  0
  3 26  1  0
  8 27  1  0
  9 28  1  0
 10 29  1  0
 12 30  1  0
 17 31  1  0
 18 32  1  0
 19 33  1  0
 21 34  1  0
 21 35  1  0
M  END
>  <meeko>  (6) 
{"is_sidechain": [false], "free_energy": -8.569, "intermolecular_energy": -10.437, "internal_energy": 0.167}

$$$$
cand_037_out
     RDKit          3D

 35 37  0  0  0  0  0  0  0  0999 V2000
   51.9110  152.7810   28.4370 C   0  0  0  0  0  0  0  0  0  0  0  0
   52.1850  154.2210   28.0990 C   0  0  0  0  0  0  0  0  0  0  0  0
   51.6160  155.2300   28.8980 C   0  0  0  0  0  0  0  0  0  0  0  0
   51.8310  156.5900   28.6320 C   0  0  0  0  0  0  0  0  0  0  0  0
   51.1970  157.6180   29.4850 C   0  0  0  0  0  0  0  0  0  0  0  0
   52.0270  158.7060   29.7280 O   0  0  0  0  0  0  0  0  0  0  0  0
   51.5620  159.7350   30.5060 C   0  0  0  0  0  0  0  0  0  0  0  0
   52.4340  160.8010   30.7360 C   0  0  0  0  0  0  0  0  0  0  0  0
   52.0220  161.8810   31.5180 C   0  0  0  0  0  0  0  0  0  0  0  0
   50.7400  161.8970   32.0710 C   0  0  0  0  0  0  0  0  0  0  0  0
   49.8710  160.8340   31.8400 C   0  0  0  0  0  0  0  0  0  0  0  0
   48.6300  160.9140   32.4090 O   0  0  0  0  0  0  0  0  0  0  0  0
   50.2840  159.7520   31.0570 C   0  0  0  0  0  0  0  0  0  0  0  0
   49.4030  158.6130   30.7900 C   0  0  0  0  0  0  0  0  0  0  0  0
   48.2590  158.5570   31.2340 O   0  0  0  0  0  0  0  0  0  0  0  0
   49.9390  157.5130   29.9550 C   0  0  0  0  0  0  0  0  0  0  0  0
   49.0940  156.4500   29.6970 O   0  0  0  0  0  0  0  0  0  0  0  0
   52.6170  156.9340   27.5280 C   0  0  0  0  0  0  0  0  0  0  0  0
   53.1810  155.9450   26.7170 C   0  0  0  0  0  0  0  0  0  0  0  0
   52.9650  154.5840   26.9820 C   0  0  0  0  0  0  0  0  0  0  0  0
   53.6100  153.5530   26.0910 C   0  0  0  0  0  0  0  0  0  0  0  0
   52.8170  153.1620   25.0530 F   0  0  0  0  0  0  0  0  0  0  0  0
   51.8878  152.6589   29.5300 H   0  0  0  0  0  0  0  0  0  0  0  0
   50.9401  152.4834   28.0141 H   0  0  0  0  0  0  0  0  0  0  0  0
   52.7047  152.1477   28.0141 H   0  0  0  0  0  0  0  0  0  0  0  0
   50.9862  154.9445   29.7535 H   0  0  0  0  0  0  0  0  0  0  0  0
   53.4444  160.7895   30.3014 H   0  0  0  0  0  0  0  0  0  0  0  0
   52.7085  162.7212   31.6990 H   0  0  0  0  0  0  0  0  0  0  0  0
   50.4170  162.7483   32.6883 H   0  0  0  0  0  0  0  0  0  0  0  0
   48.1020  161.6760   32.2760 H   0  0  0  0  0  0  0  0  0  0  0  0
   49.3320  155.5860   29.9710 H   0  0  0  0  0  0  0  0  0  0  0  0
   52.7935  157.9945   27.2951 H   0  0  0  0  0  0  0  0  0  0  0  0
   53.8033  156.2379   25.8585 H   0  0  0  0  0  0  0  0  0  0  0  0
   54.5375  153.9784   25.6802 H   0  0  0  0  0  0  0  0  0  0  0  0
   53.7988  152.6626   26.7086 H   0  0  0  0  0  0  0  0  0  0  0  0
  1  2  1  0
  2  3  2  0
  3  4  1  0
  4  5  1  0
  5  6  1  0
  6  7  1  0
  7  8  2  0
  8  9  1  0
  9 10  2  0
 10 11  1  0
 11 12  1  0
 11 13  2  0
 13 14  1  0
 14 15  2  0
 14 16  1  0
 16 17  1  0
  4 18  2  0
 18 19  1  0
 19 20  2  0
 20 21  1  0
 21 22  1  0
 20  2  1  0
 16  5  2  0
 13  7  1  0
  1 23  1  0
  1 24  1  0
  1 25  1  0
  3 26  1  0
  8 27  1  0
  9 28  1  0
 10 29  1  0
 12 30  1  0
 17 31  1  0
 18 32  1  0
 19 33  1  0
 21 34  1  0
 21 35  1  0
M  END
>  <meeko>  (7) 
{"is_sidechain": [false], "free_energy": -8.396, "intermolecular_energy": -10.037, "internal_energy": -0.03}

$$$$
