cand_022_out
     RDKit          3D

 41 43  0  0  0  0  0  0  0  0999 V2000
   55.3270  153.9820   24.4590 C   0  0  0  0  0  0  0  0  0  0  0  0
   54.4640  155.1760   24.8330 C   0  0  0  0  0  0  0  0  0  0  0  0
   52.9910  154.7830   24.9570 C   0  0  0  0  0  0  0  0  0  0  0  0
   52.5590  154.6800   26.4040 C   0  0  0  0  0  0  0  0  0  0  0  0
   52.2680  155.8720   27.0990 C   0  0  0  0  0  0  0  0  0  0  0  0
   51.8820  155.8650   28.4470 C   0  0  0  0  0  0  0  0  0  0  0  0
   51.5510  157.1100   29.1690 C   0  0  0  0  0  0  0  0  0  0  0  0
   50.2530  157.1190   29.6650 O   0  0  0  0  0  0  0  0  0  0  0  0
   49.8150  158.2190   30.3580 C   0  0  0  0  0  0  0  0  0  0  0  0
   48.4990  158.1900   30.8250 C   0  0  0  0  0  0  0  0  0  0  0  0
   47.9910  159.2770   31.5390 C   0  0  0  0  0  0  0  0  0  0  0  0
   48.7960  160.3910   31.7880 C   0  0  0  0  0  0  0  0  0  0  0  0
   50.1080  160.4160   31.3210 C   0  0  0  0  0  0  0  0  0  0  0  0
   50.8410  161.5360   31.6000 O   0  0  0  0  0  0  0  0  0  0  0  0
   50.6160  159.3280   30.6050 C   0  0  0  0  0  0  0  0  0  0  0  0
   51.9890  159.3150   30.0970 C   0  0  0  0  0  0  0  0  0  0  0  0
   52.7600  160.2540   30.2810 O   0  0  0  0  0  0  0  0  0  0  0  0
   52.4280  158.1180   29.3440 C   0  0  0  0  0  0  0  0  0  0  0  0
   53.7300  158.1100   28.8800 O   0  0  0  0  0  0  0  0  0  0  0  0
   51.7720  154.6310   29.0970 C   0  0  0  0  0  0  0  0  0  0  0  0
   52.0620  153.4410   28.4250 C   0  0  0  0  0  0  0  0  0  0  0  0
   52.4650  153.4490   27.0810 C   0  0  0  0  0  0  0  0  0  0  0  0
   52.7600  152.1400   26.4020 C   0  0  0  0  0  0  0  0  0  0  0  0
   55.6847  153.4871   25.3740 H   0  0  0  0  0  0  0  0  0  0  0  0
   54.7325  153.2712   23.8662 H   0  0  0  0  0  0  0  0  0  0  0  0
   56.1884  154.3235   23.8662 H   0  0  0  0  0  0  0  0  0  0  0  0
   54.8091  155.5793   25.7965 H   0  0  0  0  0  0  0  0  0  0  0  0
   54.5551  155.9313   24.0385 H   0  0  0  0  0  0  0  0  0  0  0  0
   52.3756  155.5438   24.4545 H   0  0  0  0  0  0  0  0  0  0  0  0
   52.8587  153.7966   24.4886 H   0  0  0  0  0  0  0  0  0  0  0  0
   52.3459  156.8330   26.5695 H   0  0  0  0  0  0  0  0  0  0  0  0
   47.8643  157.3129   30.6307 H   0  0  0  0  0  0  0  0  0  0  0  0
   46.9544  159.2560   31.9063 H   0  0  0  0  0  0  0  0  0  0  0  0
   48.3948  161.2463   32.3514 H   0  0  0  0  0  0  0  0  0  0  0  0
   50.6850  162.3280   31.1230 H   0  0  0  0  0  0  0  0  0  0  0  0
   53.9270  158.4550   28.0310 H   0  0  0  0  0  0  0  0  0  0  0  0
   51.4535  154.5973   30.1493 H   0  0  0  0  0  0  0  0  0  0  0  0
   51.9730  152.4828   28.9578 H   0  0  0  0  0  0  0  0  0  0  0  0
   52.9349  151.3640   27.1618 H   0  0  0  0  0  0  0  0  0  0  0  0
   51.9043  151.8518   25.7738 H   0  0  0  0  0  0  0  0  0  0  0  0
   53.6566  152.2467   25.7738 H   0  0  0  0  0  0  0  0  0  0  0  0
  1  2  1  0
  2  3  1  0
  3  4  1  0
  4  5  2  0
  5  6  1  0
  6  7  1  0
  7  8  1  0
  8  9  1  0
  9 10  2  0
 10 11  1  0
 11 12  2  0
 12 13  1  0
 13 14  1  0
 13 15  2  0
 15 16  1  0
 16 17  2  0
 16 18  1  0
 18 19  1  0
  6 20  2  0
 20 21  1  0
 21 22  2  0
 22 23  1  0
 22  4  1  0
 18  7  2  0
 15  9  1  0
  1 24  1  0
  1 25  1  0
  1 26  1  0
  2 27  1  0
  2 28  1  0
  3 29  1  0
  3 30  1  0
  5 31  1  0
 10 32  1  0
 11 33  1  0
 12 34  1  0
 14 35  1  0
 19 36  1  0
 20 37  1  0
 21 38  1  0
 23 39  1  0
 23 40  1  0
 23 41  1  0
M  END
>  <meeko>  (1) 
{"is_sidechain": [false], "free_energy": -9.992, "intermolecular_energy": -12.328, "internal_energy": -0.556}

$$$$
cand_022_out
     RDKit          3D

 41 43  0  0  0  0  0  0  0  0999 V2000
   46.6880  160.1100   31.5000 C   0  0  0  0  0  0  0  0  0  0  0  0
   47.6320  159.3830   30.5560 C   0  0  0  0  0  0  0  0  0  0  0  0
   48.6540  158.5430   31.3260 C   0  0  0  0  0  0  0  0  0  0  0  0
   49.9960  158.5160   30.6270 C   0  0  0  0  0  0  0  0  0  0  0  0
   50.3610  157.3460   29.9310 C   0  0  0  0  0  0  0  0  0  0  0  0
   51.5950  157.2310   29.2760 C   0  0  0  0  0  0  0  0  0  0  0  0
   51.9680  156.0160   28.5230 C   0  0  0  0  0  0  0  0  0  0  0  0
   52.4720  156.2980   27.2580 O   0  0  0  0  0  0  0  0  0  0  0  0
   52.8580  155.2570   26.4510 C   0  0  0  0  0  0  0  0  0  0  0  0
   53.3440  155.5850   25.1840 C   0  0  0  0  0  0  0  0  0  0  0  0
   53.7560  154.5740   24.3140 C   0  0  0  0  0  0  0  0  0  0  0  0
   53.6820  153.2360   24.7090 C   0  0  0  0  0  0  0  0  0  0  0  0
   53.1970  152.9120   25.9730 C   0  0  0  0  0  0  0  0  0  0  0  0
   53.1530  151.5840   26.2970 O   0  0  0  0  0  0  0  0  0  0  0  0
   52.7850  153.9250   26.8440 C   0  0  0  0  0  0  0  0  0  0  0  0
   52.2680  153.6280   28.1820 C   0  0  0  0  0  0  0  0  0  0  0  0
   52.1800  152.4760   28.6040 O   0  0  0  0  0  0  0  0  0  0  0  0
   51.8510  154.7720   29.0230 C   0  0  0  0  0  0  0  0  0  0  0  0
   51.3770  154.4810   30.2900 O   0  0  0  0  0  0  0  0  0  0  0  0
   52.4670  158.3250   29.3120 C   0  0  0  0  0  0  0  0  0  0  0  0
   52.1240  159.4900   30.0020 C   0  0  0  0  0  0  0  0  0  0  0  0
   50.8960  159.5980   30.6720 C   0  0  0  0  0  0  0  0  0  0  0  0
   50.5720  160.8760   31.3960 C   0  0  0  0  0  0  0  0  0  0  0  0
   46.9706  159.8924   32.5406 H   0  0  0  0  0  0  0  0  0  0  0  0
   46.7532  161.1934   31.3213 H   0  0  0  0  0  0  0  0  0  0  0  0
   45.6572  159.7703   31.3213 H   0  0  0  0  0  0  0  0  0  0  0  0
   47.0449  158.7215   29.9020 H   0  0  0  0  0  0  0  0  0  0  0  0
   48.1762  160.1338   29.9643 H   0  0  0  0  0  0  0  0  0  0  0  0
   48.7838  158.9720   32.3306 H   0  0  0  0  0  0  0  0  0  0  0  0
   48.2765  157.5114   31.3839 H   0  0  0  0  0  0  0  0  0  0  0  0
   49.6584  156.5001   29.9010 H   0  0  0  0  0  0  0  0  0  0  0  0
   53.4022  156.6382   24.8718 H   0  0  0  0  0  0  0  0  0  0  0  0
   54.1396  154.8313   23.3157 H   0  0  0  0  0  0  0  0  0  0  0  0
   54.0063  152.4400   24.0225 H   0  0  0  0  0  0  0  0  0  0  0  0
   53.8190  151.0040   25.9850 H   0  0  0  0  0  0  0  0  0  0  0  0
   51.8540  154.7640   31.0450 H   0  0  0  0  0  0  0  0  0  0  0  0
   53.4339  158.2667   28.7908 H   0  0  0  0  0  0  0  0  0  0  0  0
   52.8273  160.3356   30.0204 H   0  0  0  0  0  0  0  0  0  0  0  0
   50.6157  160.7037   32.4815 H   0  0  0  0  0  0  0  0  0  0  0  0
   51.3023  161.6502   31.1180 H   0  0  0  0  0  0  0  0  0  0  0  0
   49.5611  161.2088   31.1180 H   0  0  0  0  0  0  0  0  0  0  0  0
  1  2  1  0
  2  3  1  0
  3  4  1  0
  4  5  2  0
  5  6  1  0
  6  7  1  0
  7  8  1  0
  8  9  1  0
  9 10  2  0
 10 11  1  0
 11 12  2  0
 12 13  1  0
 13 14  1  0
 13 15  2  0
 15 16  1  0
 16 17  2  0
 16 18  1  0
 18 19  1  0
  6 20  2  0
 20 21  1  0
 21 22  2  0
 22 23  1  0
 22  4  1  0
 18  7  2  0
 15  9  1  0
  1 24  1  0
  1 25  1  0
  1 26  1  0
  2 27  1  0
  2 28  1  0
  3 29  1  0
  3 30  1  0
  5 31  1  0
 10 32  1  0
 11 33  1  0
 12 34  1  0
 14 35  1  0
 19 36  1  0
 20 37  1  0
 21 38  1  0
 23 39  1  0
 23 40  1  0
 23 41  1  0
M  END
>  <meeko>  (2) 
{"is_sidechain": [false], "free_energy": -9.909, "intermolecular_energy": -12.546, "internal_energy": -0.235}

$$$$
cand_022_out
     RDKit          3D

 41 43  0  0  0  0  0  0  0  0999 V2000
   53.8410  162.3010   31.0880 C   0  0  0  0  0  0  0  0  0  0  0  0
   52.8420  161.1970   31.3960 C   0  0  0  0  0  0  0  0  0  0  0  0
   51.6830  161.1980   30.3980 C   0  0  0  0  0  0  0  0  0  0  0  0
   51.0010  159.8490   30.3300 C   0  0  0  0  0  0  0  0  0  0  0  0
   51.6370  158.8160   29.6120 C   0  0  0  0  0  0  0  0  0  0  0  0
   51.0620  157.5440   29.4840 C   0  0  0  0  0  0  0  0  0  0  0  0
   51.7390  156.4520   28.7550 C   0  0  0  0  0  0  0  0  0  0  0  0
   52.2960  156.8700   27.5510 O   0  0  0  0  0  0  0  0  0  0  0  0
   52.9560  155.9540   26.7730 C   0  0  0  0  0  0  0  0  0  0  0  0
   53.4870  156.4130   25.5660 C   0  0  0  0  0  0  0  0  0  0  0  0
   54.1720  155.5330   24.7270 C   0  0  0  0  0  0  0  0  0  0  0  0
   54.3290  154.1940   25.0930 C   0  0  0  0  0  0  0  0  0  0  0  0
   53.7990  153.7390   26.2980 C   0  0  0  0  0  0  0  0  0  0  0  0
   53.9890  152.4170   26.5960 O   0  0  0  0  0  0  0  0  0  0  0  0
   53.1120  154.6210   27.1370 C   0  0  0  0  0  0  0  0  0  0  0  0
   52.5390  154.1820   28.4120 C   0  0  0  0  0  0  0  0  0  0  0  0
   52.6420  153.0220   28.8060 O   0  0  0  0  0  0  0  0  0  0  0  0
   51.8240  155.1930   29.2230 C   0  0  0  0  0  0  0  0  0  0  0  0
   51.2980  154.7710   30.4310 O   0  0  0  0  0  0  0  0  0  0  0  0
   49.8310  157.3090   30.1060 C   0  0  0  0  0  0  0  0  0  0  0  0
   49.1840  158.3230   30.8170 C   0  0  0  0  0  0  0  0  0  0  0  0
   49.7520  159.6010   30.9310 C   0  0  0  0  0  0  0  0  0  0  0  0
   49.0180  160.6560   31.7110 C   0  0  0  0  0  0  0  0  0  0  0  0
   54.2229  162.7230   32.0293 H   0  0  0  0  0  0  0  0  0  0  0  0
   54.6774  161.8867   30.5059 H   0  0  0  0  0  0  0  0  0  0  0  0
   53.3455  163.0920   30.5059 H   0  0  0  0  0  0  0  0  0  0  0  0
   53.3558  160.2256   31.3467 H   0  0  0  0  0  0  0  0  0  0  0  0
   52.4325  161.3717   32.4019 H   0  0  0  0  0  0  0  0  0  0  0  0
   50.9467  161.9543   30.7077 H   0  0  0  0  0  0  0  0  0  0  0  0
   52.0890  161.4273   29.4017 H   0  0  0  0  0  0  0  0  0  0  0  0
   52.6106  159.0133   29.1395 H   0  0  0  0  0  0  0  0  0  0  0  0
   53.3655  157.4673   25.2767 H   0  0  0  0  0  0  0  0  0  0  0  0
   54.5892  155.8945   23.7755 H   0  0  0  0  0  0  0  0  0  0  0  0
   54.8696  153.5011   24.4315 H   0  0  0  0  0  0  0  0  0  0  0  0
   54.6420  151.9240   26.1390 H   0  0  0  0  0  0  0  0  0  0  0  0
   50.7350  154.0220   30.4610 H   0  0  0  0  0  0  0  0  0  0  0  0
   49.3670  156.3142   30.0344 H   0  0  0  0  0  0  0  0  0  0  0  0
   48.2148  158.1163   31.2945 H   0  0  0  0  0  0  0  0  0  0  0  0
   49.1463  160.4716   32.7878 H   0  0  0  0  0  0  0  0  0  0  0  0
   49.4226  161.6471   31.4579 H   0  0  0  0  0  0  0  0  0  0  0  0
   47.9481  160.6212   31.4579 H   0  0  0  0  0  0  0  0  0  0  0  0
  1  2  1  0
  2  3  1  0
  3  4  1  0
  4  5  2  0
  5  6  1  0
  6  7  1  0
  7  8  1  0
  8  9  1  0
  9 10  2  0
 10 11  1  0
 11 12  2  0
 12 13  1  0
 13 14  1  0
 13 15  2  0
 15 16  1  0
 16 17  2  0
 16 18  1  0
 18 19  1  0
  6 20  2  0
 20 21  1  0
 21 22  2  0
 22 23  1  0
 22  4  1  0
 18  7  2  0
 15  9  1  0
  1 24  1  0
  1 25  1  0
  1 26  1  0
  2 27  1  0
  2 28  1  0
  3 29  1  0
  3 30  1  0
  5 31  1  0
 10 32  1  0
 11 33  1  0
 12 34  1  0
 14 35  1  0
 19 36  1  0
 20 37  1  0
 21 38  1  0
 23 39  1  0
 23 40  1  0
 23 41  1  0
M  END
>  <meeko>  (3) 
{"is_sidechain": [false], "free_energy": -9.662, "intermolecular_energy": -12.246, "internal_energy": -0.231}

$$$$
cand_022_out
     RDKit          3D

 41 43  0  0  0  0  0  0  0  0999 V2000
   55.0410  156.7360   24.2360 C   0  0  0  0  0  0  0  0  0  0  0  0
   53.8850  156.6610   25.2200 C   0  0  0  0  0  0  0  0  0  0  0  0
   53.3810  155.2260   25.3810 C   0  0  0  0  0  0  0  0  0  0  0  0
   52.8000  154.9880   26.7580 C   0  0  0  0  0  0  0  0  0  0  0  0
   52.2340  156.0830   27.4410 C   0  0  0  0  0  0  0  0  0  0  0  0
   51.6940  155.9520   28.7280 C   0  0  0  0  0  0  0  0  0  0  0  0
   51.0770  157.0930   29.4350 C   0  0  0  0  0  0  0  0  0  0  0  0
   51.9730  158.1280   29.6760 O   0  0  0  0  0  0  0  0  0  0  0  0
   51.5300  159.2510   30.3260 C   0  0  0  0  0  0  0  0  0  0  0  0
   52.4670  160.2590   30.5600 C   0  0  0  0  0  0  0  0  0  0  0  0
   52.0810  161.4300   31.2160 C   0  0  0  0  0  0  0  0  0  0  0  0
   50.7590  161.5940   31.6380 C   0  0  0  0  0  0  0  0  0  0  0  0
   49.8270  160.5870   31.4020 C   0  0  0  0  0  0  0  0  0  0  0  0
   48.5510  160.8120   31.8410 O   0  0  0  0  0  0  0  0  0  0  0  0
   50.2140  159.4150   30.7460 C   0  0  0  0  0  0  0  0  0  0  0  0
   49.2650  158.3320   30.4800 C   0  0  0  0  0  0  0  0  0  0  0  0
   48.0840  158.4050   30.8140 O   0  0  0  0  0  0  0  0  0  0  0  0
   49.7780  157.1290   29.7860 C   0  0  0  0  0  0  0  0  0  0  0  0
   48.8700  156.1180   29.5280 O   0  0  0  0  0  0  0  0  0  0  0  0
   51.7110  154.6870   29.3260 C   0  0  0  0  0  0  0  0  0  0  0  0
   52.2720  153.5910   28.6650 C   0  0  0  0  0  0  0  0  0  0  0  0
   52.8280  153.7270   27.3850 C   0  0  0  0  0  0  0  0  0  0  0  0
   53.4150  152.5160   26.7140 C   0  0  0  0  0  0  0  0  0  0  0  0
   55.9899  156.7976   24.7891 H   0  0  0  0  0  0  0  0  0  0  0  0
   55.0430  155.8361   23.6034 H   0  0  0  0  0  0  0  0  0  0  0  0
   54.9267  157.6286   23.6034 H   0  0  0  0  0  0  0  0  0  0  0  0
   54.2231  157.0334   26.1983 H   0  0  0  0  0  0  0  0  0  0  0  0
   53.0598  157.2761   24.8319 H   0  0  0  0  0  0  0  0  0  0  0  0
   52.6025  155.0350   24.6277 H   0  0  0  0  0  0  0  0  0  0  0  0
   54.2348  154.5456   25.2468 H   0  0  0  0  0  0  0  0  0  0  0  0
   52.2154  157.0675   26.9508 H   0  0  0  0  0  0  0  0  0  0  0  0
   53.5079  160.1312   30.2282 H   0  0  0  0  0  0  0  0  0  0  0  0
   52.8189  162.2246   31.4008 H   0  0  0  0  0  0  0  0  0  0  0  0
   50.4555  162.5162   32.1552 H   0  0  0  0  0  0  0  0  0  0  0  0
   48.1080  161.6040   31.6050 H   0  0  0  0  0  0  0  0  0  0  0  0
   48.6780  155.8750   28.6430 H   0  0  0  0  0  0  0  0  0  0  0  0
   51.2777  154.5537   30.3282 H   0  0  0  0  0  0  0  0  0  0  0  0
   52.2775  152.6068   29.1562 H   0  0  0  0  0  0  0  0  0  0  0  0
   53.7600  151.8043   27.4785 H   0  0  0  0  0  0  0  0  0  0  0  0
   52.6490  152.0372   26.0863 H   0  0  0  0  0  0  0  0  0  0  0  0
   54.2654  152.8207   26.0863 H   0  0  0  0  0  0  0  0  0  0  0  0
  1  2  1  0
  2  3  1  0
  3  4  1  0
  4  5  2  0
  5  6  1  0
  6  7  1  0
  7  8  1  0
  8  9  1  0
  9 10  2  0
 10 11  1  0
 11 12  2  0
 12 13  1  0
 13 14  1  0
 13 15  2  0
 15 16  1  0
 16 17  2  0
 16 18  1  0
 18 19  1  0
  6 20  2  0
 20 21  1  0
 21 22  2  0
 22 23  1  0
 22  4  1  0
 18  7  2  0
 15  9  1  0
  1 24  1  0
  1 25  1  0
  1 26  1  0
  2 27  1  0
  2 28  1  0
  3 29  1  0
  3 30  1  0
  5 31  1  0
 10 32  1  0
 11 33  1  0
 12 34  1  0
 14 35  1  0
 19 36  1  0
 20 37  1  0
 21 38  1  0
 23 39  1  0
 23 40  1  0
 23 41  1  0
M  END
>  <meeko>  (4) 
{"is_sidechain": [false], "free_energy": -8.736, "intermolecular_energy": -10.901, "internal_energy": -0.435}

$$$$
cand_022_out
     RDKit          3D

 41 43  0  0  0  0  0  0  0  0999 V2000
   50.9780  161.2450   31.2710 C   0  0  0  0  0  0  0  0  0  0  0  0
   50.8460  160.3330   30.0620 C   0  0  0  0  0  0  0  0  0  0  0  0
   51.8980  159.2230   30.0830 C   0  0  0  0  0  0  0  0  0  0  0  0
   51.3170  157.8940   29.6510 C   0  0  0  0  0  0  0  0  0  0  0  0
   52.0310  157.1290   28.7060 C   0  0  0  0  0  0  0  0  0  0  0  0
   51.5520  155.8970   28.2390 C   0  0  0  0  0  0  0  0  0  0  0  0
   52.3110  155.0830   27.2680 C   0  0  0  0  0  0  0  0  0  0  0  0
   51.9970  153.7310   27.3340 O   0  0  0  0  0  0  0  0  0  0  0  0
   52.6310  152.8600   26.4850 C   0  0  0  0  0  0  0  0  0  0  0  0
   52.2950  151.5090   26.5960 C   0  0  0  0  0  0  0  0  0  0  0  0
   52.9030  150.5700   25.7610 C   0  0  0  0  0  0  0  0  0  0  0  0
   53.8460  150.9800   24.8150 C   0  0  0  0  0  0  0  0  0  0  0  0
   54.1790  152.3270   24.7060 C   0  0  0  0  0  0  0  0  0  0  0  0
   55.1080  152.6600   23.7600 O   0  0  0  0  0  0  0  0  0  0  0  0
   53.5700  153.2670   25.5440 C   0  0  0  0  0  0  0  0  0  0  0  0
   53.8920  154.6940   25.4630 C   0  0  0  0  0  0  0  0  0  0  0  0
   54.7060  155.1310   24.6520 O   0  0  0  0  0  0  0  0  0  0  0  0
   53.1980  155.6050   26.4000 C   0  0  0  0  0  0  0  0  0  0  0  0
   53.4990  156.9520   26.3050 O   0  0  0  0  0  0  0  0  0  0  0  0
   50.3390  155.4230   28.7490 C   0  0  0  0  0  0  0  0  0  0  0  0
   49.6150  156.1700   29.6830 C   0  0  0  0  0  0  0  0  0  0  0  0
   50.0860  157.4110   30.1370 C   0  0  0  0  0  0  0  0  0  0  0  0
   49.2730  158.1730   31.1460 C   0  0  0  0  0  0  0  0  0  0  0  0
   50.8917  160.6487   32.1913 H   0  0  0  0  0  0  0  0  0  0  0  0
   51.9578  161.7445   31.2483 H   0  0  0  0  0  0  0  0  0  0  0  0
   50.1800  162.0018   31.2483 H   0  0  0  0  0  0  0  0  0  0  0  0
   49.8448  159.8773   30.0650 H   0  0  0  0  0  0  0  0  0  0  0  0
   50.9974  160.9365   29.1549 H   0  0  0  0  0  0  0  0  0  0  0  0
   52.7159  159.4939   29.3991 H   0  0  0  0  0  0  0  0  0  0  0  0
   52.2656  159.1179   31.1144 H   0  0  0  0  0  0  0  0  0  0  0  0
   52.9902  157.5093   28.3247 H   0  0  0  0  0  0  0  0  0  0  0  0
   51.5524  151.1854   27.3402 H   0  0  0  0  0  0  0  0  0  0  0  0
   52.6393  149.5056   25.8479 H   0  0  0  0  0  0  0  0  0  0  0  0
   54.3245  150.2393   24.1574 H   0  0  0  0  0  0  0  0  0  0  0  0
   54.9450  152.4710   22.8570 H   0  0  0  0  0  0  0  0  0  0  0  0
   53.4960  157.3750   25.4690 H   0  0  0  0  0  0  0  0  0  0  0  0
   49.9501  154.4511   28.4113 H   0  0  0  0  0  0  0  0  0  0  0  0
   48.6616  155.7788   30.0677 H   0  0  0  0  0  0  0  0  0  0  0  0
   49.5826  157.8828   32.1609 H   0  0  0  0  0  0  0  0  0  0  0  0
   49.4349  159.2522   31.0077 H   0  0  0  0  0  0  0  0  0  0  0  0
   48.2065  157.9416   31.0077 H   0  0  0  0  0  0  0  0  0  0  0  0
  1  2  1  0
  2  3  1  0
  3  4  1  0
  4  5  2  0
  5  6  1  0
  6  7  1  0
  7  8  1  0
  8  9  1  0
  9 10  2  0
 10 11  1  0
 11 12  2  0
 12 13  1  0
 13 14  1  0
 13 15  2  0
 15 16  1  0
 16 17  2  0
 16 18  1  0
 18 19  1  0
  6 20  2  0
 20 21  1  0
 21 22  2  0
 22 23  1  0
 22  4  1  0
 18  7  2  0
 15  9  1  0
  1 24  1  0
  1 25  1  0
  1 26  1  0
  2 27  1  0
  2 28  1  0
  3 29  1  0
  3 30  1  0
  5 31  1  0
 10 32  1  0
 11 33  1  0
 12 34  1  0
 14 35  1  0
 19 36  1  0
 20 37  1  0
 21 38  1  0
 23 39  1  0
 23 40  1  0
 23 41  1  0
M  END
>  <meeko>  (5) 
{"is_sidechain": [false], "free_energy": -7.959, "intermolecular_energy": -11.047, "internal_energy": 0.672}

$$$$
cand_022_out
     RDKit          3D

 41 43  0  0  0  0  0  0  0  0999 V2000
   51.5210  150.9500   28.1230 C   0  0  0  0  0  0  0  0  0  0  0  0
   51.5260  152.4140   27.7110 C   0  0  0  0  0  0  0  0  0  0  0  0
   51.9390  153.3190   28.8740 C   0  0  0  0  0  0  0  0  0  0  0  0
   52.1790  154.7410   28.4170 C   0  0  0  0  0  0  0  0  0  0  0  0
   51.6880  155.7910   29.2200 C   0  0  0  0  0  0  0  0  0  0  0  0
   51.8490  157.1360   28.8580 C   0  0  0  0  0  0  0  0  0  0  0  0
   51.3590  158.2370   29.7110 C   0  0  0  0  0  0  0  0  0  0  0  0
   50.0220  158.0920   30.0660 O   0  0  0  0  0  0  0  0  0  0  0  0
   49.4390  159.0480   30.8590 C   0  0  0  0  0  0  0  0  0  0  0  0
   48.0920  158.8700   31.1780 C   0  0  0  0  0  0  0  0  0  0  0  0
   47.4380  159.8050   31.9830 C   0  0  0  0  0  0  0  0  0  0  0  0
   48.1290  160.9170   32.4690 C   0  0  0  0  0  0  0  0  0  0  0  0
   49.4730  161.0910   32.1490 C   0  0  0  0  0  0  0  0  0  0  0  0
   50.0910  162.2010   32.6580 O   0  0  0  0  0  0  0  0  0  0  0  0
   50.1280  160.1550   31.3430 C   0  0  0  0  0  0  0  0  0  0  0  0
   51.5400  160.3020   30.9830 C   0  0  0  0  0  0  0  0  0  0  0  0
   52.2160  161.2490   31.3780 O   0  0  0  0  0  0  0  0  0  0  0  0
   52.1360  159.2590   30.1170 C   0  0  0  0  0  0  0  0  0  0  0  0
   53.4730  159.4000   29.7940 O   0  0  0  0  0  0  0  0  0  0  0  0
   52.5340  157.4240   27.6720 C   0  0  0  0  0  0  0  0  0  0  0  0
   53.0230  156.3960   26.8620 C   0  0  0  0  0  0  0  0  0  0  0  0
   52.8460  155.0500   27.2160 C   0  0  0  0  0  0  0  0  0  0  0  0
   53.3960  153.9810   26.3120 C   0  0  0  0  0  0  0  0  0  0  0  0
   51.5208  150.8780   29.2206 H   0  0  0  0  0  0  0  0  0  0  0  0
   50.6212  150.4596   27.7232 H   0  0  0  0  0  0  0  0  0  0  0  0
   52.4175  150.4535   27.7232 H   0  0  0  0  0  0  0  0  0  0  0  0
   52.2358  152.5502   26.8818 H   0  0  0  0  0  0  0  0  0  0  0  0
   50.5073  152.6905   27.4016 H   0  0  0  0  0  0  0  0  0  0  0  0
   51.1389  153.3172   29.6289 H   0  0  0  0  0  0  0  0  0  0  0  0
   52.8781  152.9304   29.2948 H   0  0  0  0  0  0  0  0  0  0  0  0
   51.1642  155.5482   30.1563 H   0  0  0  0  0  0  0  0  0  0  0  0
   47.5464  157.9946   30.7959 H   0  0  0  0  0  0  0  0  0  0  0  0
   46.3764  159.6653   32.2348 H   0  0  0  0  0  0  0  0  0  0  0  0
   47.6131  161.6533   33.1028 H   0  0  0  0  0  0  0  0  0  0  0  0
   49.7730  162.5910   33.4490 H   0  0  0  0  0  0  0  0  0  0  0  0
   53.8280  160.2520   29.6300 H   0  0  0  0  0  0  0  0  0  0  0  0
   52.6891  158.4715   27.3742 H   0  0  0  0  0  0  0  0  0  0  0  0
   53.5551  156.6458   25.9322 H   0  0  0  0  0  0  0  0  0  0  0  0
   53.8152  153.1662   26.9205 H   0  0  0  0  0  0  0  0  0  0  0  0
   52.5889  153.5866   25.6772 H   0  0  0  0  0  0  0  0  0  0  0  0
   54.1861  154.4084   25.6772 H   0  0  0  0  0  0  0  0  0  0  0  0
  1  2  1  0
  2  3  1  0
  3  4  1  0
  4  5  2  0
  5  6  1  0
  6  7  1  0
  7  8  1  0
  8  9  1  0
  9 10  2  0
 10 11  1  0
 11 12  2  0
 12 13  1  0
 13 14  1  0
 13 15  2  0
 15 16  1  0
 16 17  2  0
 16 18  1  0
 18 19  1  0
  6 20  2  0
 20 21  1  0
 21 22  2  0
 22 23  1  0
 22  4  1  0
 18  7  2  0
 15  9  1  0
  1 24  1  0
  1 25  1  0
  1 26  1  0
  2 27  1  0
  2 28  1  0
  3 29  1  0
  3 30  1  0
  5 31  1  0
 10 32  1  0
 11 33  1  0
 12 34  1  0
 14 35  1  0
 19 36  1  0
 20 37  1  0
 21 38  1  0
 23 39  1  0
 23 40  1  0
 23 41  1  0
M  END
>  <meeko>  (6) 
{"is_sidechain": [false], "free_energy": -7.413, "intermolecular_energy": -10.194, "internal_energy": 0.491}

$$$$
cand_022_out
     RDKit          3D

 41 43  0  0  0  0  0  0  0  0999 V2000
   47.7700  159.2230   31.2670 C   0  0  0  0  0  0  0  0  0  0  0  0
   48.3410  158.5230   30.0440 C   0  0  0  0  0  0  0  0  0  0  0  0
   49.2460  157.3550   30.4420 C   0  0  0  0  0  0  0  0  0  0  0  0
   50.5970  157.4370   29.7650 C   0  0  0  0  0  0  0  0  0  0  0  0
   50.9850  156.3780   28.9200 C   0  0  0  0  0  0  0  0  0  0  0  0
   52.2290  156.3670   28.2730 C   0  0  0  0  0  0  0  0  0  0  0  0
   52.6260  155.2710   27.3660 C   0  0  0  0  0  0  0  0  0  0  0  0
   52.1330  154.0340   27.7650 O   0  0  0  0  0  0  0  0  0  0  0  0
   52.4280  152.9270   27.0100 C   0  0  0  0  0  0  0  0  0  0  0  0
   51.9240  151.7040   27.4550 C   0  0  0  0  0  0  0  0  0  0  0  0
   52.1860  150.5390   26.7320 C   0  0  0  0  0  0  0  0  0  0  0  0
   52.9500  150.5950   25.5640 C   0  0  0  0  0  0  0  0  0  0  0  0
   53.4500  151.8170   25.1220 C   0  0  0  0  0  0  0  0  0  0  0  0
   54.1890  151.8020   23.9710 O   0  0  0  0  0  0  0  0  0  0  0  0
   53.1880  152.9840   25.8470 C   0  0  0  0  0  0  0  0  0  0  0  0
   53.6960  154.2880   25.4170 C   0  0  0  0  0  0  0  0  0  0  0  0
   54.3690  154.4200   24.3960 O   0  0  0  0  0  0  0  0  0  0  0  0
   53.3690  155.4610   26.2590 C   0  0  0  0  0  0  0  0  0  0  0  0
   53.8420  156.6900   25.8370 O   0  0  0  0  0  0  0  0  0  0  0  0
   53.0860  157.4540   28.4710 C   0  0  0  0  0  0  0  0  0  0  0  0
   52.7200  158.5110   29.3090 C   0  0  0  0  0  0  0  0  0  0  0  0
   51.4830  158.5120   29.9710 C   0  0  0  0  0  0  0  0  0  0  0  0
   51.1340  159.6760   30.8580 C   0  0  0  0  0  0  0  0  0  0  0  0
   48.1596  158.7454   32.1781 H   0  0  0  0  0  0  0  0  0  0  0  0
   48.0646  160.2827   31.2538 H   0  0  0  0  0  0  0  0  0  0  0  0
   46.6727  159.1473   31.2538 H   0  0  0  0  0  0  0  0  0  0  0  0
   47.5118  158.1406   29.4306 H   0  0  0  0  0  0  0  0  0  0  0  0
   48.9420  159.2498   29.4778 H   0  0  0  0  0  0  0  0  0  0  0  0
   49.3920  157.3727   31.5321 H   0  0  0  0  0  0  0  0  0  0  0  0
   48.7596  156.4209   30.1242 H   0  0  0  0  0  0  0  0  0  0  0  0
   50.2932  155.5372   28.7637 H   0  0  0  0  0  0  0  0  0  0  0  0
   51.3213  151.6582   28.3740 H   0  0  0  0  0  0  0  0  0  0  0  0
   51.7899  149.5747   27.0829 H   0  0  0  0  0  0  0  0  0  0  0  0
   53.1560  149.6764   24.9951 H   0  0  0  0  0  0  0  0  0  0  0  0
   54.5440  150.9950   23.6530 H   0  0  0  0  0  0  0  0  0  0  0  0
   54.7600  156.8750   25.8700 H   0  0  0  0  0  0  0  0  0  0  0  0
   54.0603  157.4775   27.9609 H   0  0  0  0  0  0  0  0  0  0  0  0
   53.4118  159.3543   29.4516 H   0  0  0  0  0  0  0  0  0  0  0  0
   51.2245  159.3740   31.9118 H   0  0  0  0  0  0  0  0  0  0  0  0
   51.8214  160.5105   30.6553 H   0  0  0  0  0  0  0  0  0  0  0  0
   50.1008  159.9946   30.6553 H   0  0  0  0  0  0  0  0  0  0  0  0
  1  2  1  0
  2  3  1  0
  3  4  1  0
  4  5  2  0
  5  6  1  0
  6  7  1  0
  7  8  1  0
  8  9  1  0
  9 10  2  0
 10 11  1  0
 11 12  2  0
 12 13  1  0
 13 14  1  0
 13 15  2  0
 15 16  1  0
 16 17  2  0
 16 18  1  0
 18 19  1  0
  6 20  2  0
 20 21  1  0
 21 22  2  0
 22 23  1  0
 22  4  1  0
 18  7  2  0
 15  9  1  0
  1 24  1  0
  1 25  1  0
  1 26  1  0
  2 27  1  0
  2 28  1  0
  3 29  1  0
  3 30  1  0
  5 31  1  0
 10 32  1  0
 11 33  1  0
 12 34  1  0
 14 35  1  0
 19 36  1  0
 20 37  1  0
 21 38  1  0
 23 39  1  0
 23 40  1  0
 23 41  1  0
M  END
>  <meeko>  (7) 
{"is_sidechain": [false], "free_energy": -7.404, "intermolecular_energy": -10.067, "internal_energy": 0.376}

$$$$
cand_022_out
     RDKit          3D

 41 43  0  0  0  0  0  0  0  0999 V2000
   52.5110  151.1680   26.2910 C   0  0  0  0  0  0  0  0  0  0  0  0
   51.8160  152.2820   27.0570 C   0  0  0  0  0  0  0  0  0  0  0  0
   52.7990  153.0440   27.9480 C   0  0  0  0  0  0  0  0  0  0  0  0
   52.7990  154.5260   27.6420 C   0  0  0  0  0  0  0  0  0  0  0  0
   52.1540  155.3930   28.5460 C   0  0  0  0  0  0  0  0  0  0  0  0
   52.0900  156.7760   28.3240 C   0  0  0  0  0  0  0  0  0  0  0  0
   51.4370  157.6900   29.2840 C   0  0  0  0  0  0  0  0  0  0  0  0
   52.1870  158.8330   29.5380 O   0  0  0  0  0  0  0  0  0  0  0  0
   51.6950  159.7680   30.4130 C   0  0  0  0  0  0  0  0  0  0  0  0
   52.4870  160.8930   30.6490 C   0  0  0  0  0  0  0  0  0  0  0  0
   52.0450  161.8840   31.5280 C   0  0  0  0  0  0  0  0  0  0  0  0
   50.8110  161.7510   32.1700 C   0  0  0  0  0  0  0  0  0  0  0  0
   50.0230  160.6280   31.9320 C   0  0  0  0  0  0  0  0  0  0  0  0
   48.8270  160.5620   32.5920 O   0  0  0  0  0  0  0  0  0  0  0  0
   50.4670  159.6360   31.0520 C   0  0  0  0  0  0  0  0  0  0  0  0
   49.6690  158.4400   30.7750 C   0  0  0  0  0  0  0  0  0  0  0  0
   48.5710  158.2560   31.2950 O   0  0  0  0  0  0  0  0  0  0  0  0
   50.2330  157.4460   29.8340 C   0  0  0  0  0  0  0  0  0  0  0  0
   49.4650  156.3260   29.5690 O   0  0  0  0  0  0  0  0  0  0  0  0
   52.7050  157.2920   27.1790 C   0  0  0  0  0  0  0  0  0  0  0  0
   53.3450  156.4450   26.2690 C   0  0  0  0  0  0  0  0  0  0  0  0
   53.3930  155.0600   26.4820 C   0  0  0  0  0  0  0  0  0  0  0  0
   54.0990  154.1930   25.4750 C   0  0  0  0  0  0  0  0  0  0  0  0
   52.9553  150.4559   27.0020 H   0  0  0  0  0  0  0  0  0  0  0  0
   51.7783  150.6456   25.6583 H   0  0  0  0  0  0  0  0  0  0  0  0
   53.3023  151.5964   25.6583 H   0  0  0  0  0  0  0  0  0  0  0  0
   51.3660  152.9834   26.3390 H   0  0  0  0  0  0  0  0  0  0  0  0
   51.0443  151.8318   27.6987 H   0  0  0  0  0  0  0  0  0  0  0  0
   52.5138  152.8973   29.0002 H   0  0  0  0  0  0  0  0  0  0  0  0
   53.8094  152.6542   27.7553 H   0  0  0  0  0  0  0  0  0  0  0  0
   51.6882  154.9738   29.4500 H   0  0  0  0  0  0  0  0  0  0  0  0
   53.4581  160.9988   30.1432 H   0  0  0  0  0  0  0  0  0  0  0  0
   52.6690  162.7704   31.7152 H   0  0  0  0  0  0  0  0  0  0  0  0
   50.4628  162.5319   32.8620 H   0  0  0  0  0  0  0  0  0  0  0  0
   48.8120  160.4880   33.5260 H   0  0  0  0  0  0  0  0  0  0  0  0
   48.8410  156.0260   30.2000 H   0  0  0  0  0  0  0  0  0  0  0  0
   52.6851  158.3759   26.9922 H   0  0  0  0  0  0  0  0  0  0  0  0
   53.8181  156.8718   25.3723 H   0  0  0  0  0  0  0  0  0  0  0  0
   54.7093  153.4435   26.0002 H   0  0  0  0  0  0  0  0  0  0  0  0
   53.3555  153.6837   24.8443 H   0  0  0  0  0  0  0  0  0  0  0  0
   54.7484  154.8179   24.8443 H   0  0  0  0  0  0  0  0  0  0  0  0
  1  2  1  0
  2  3  1  0
  3  4  1  0
  4  5  2  0
  5  6  1  0
  6  7  1  0
  7  8  1  0
  8  9  1  0
  9 10  2  0
 10 11  1  0
 11 12  2  0
 12 13  1  0
 13 14  1  0
 13 15  2  0
 15 16  1  0
 16 17  2  0
 16 18  1  0
 18 19  1  0
  6 20  2  0
 20 21  1  0
 21 22  2  0
 22 23  1  0
 22  4  1  0
 18  7  2  0
 15  9  1  0
  1 24  1  0
  1 25  1  0
  1 26  1  0
  2 27  1  0
  2 28  1  0
  3 29  1  0
  3 30  1  0
  5 31  1  0
 10 32  1  0
 11 33  1  0
 12 34  1  0
 14 35  1  0
 19 36  1  0
 20 37  1  0
 21 38  1  0
 23 39  1  0
 23 40  1  0
 23 41  1  0
M  END
>  <meeko>  (8) 
{"is_sidechain": [false], "free_energy": -7.282, "intermolecular_energy": -9.422, "internal_energy": -0.118}

$$$$
