cand_055_out
     RDKit          3D

 41 43  0  0  0  0  0  0  0  0999 V2000
   48.6900  161.5110   33.6960 C   0  0  0  0  0  0  0  0  0  0  0  0
   50.0120  161.1450   33.0400 C   0  0  0  0  0  0  0  0  0  0  0  0
   49.9320  161.2690   31.5170 C   0  0  0  0  0  0  0  0  0  0  0  0
   50.4020  160.0080   30.8250 C   0  0  0  0  0  0  0  0  0  0  0  0
   51.7250  159.9580   30.3570 C   0  0  0  0  0  0  0  0  0  0  0  0
   52.2140  158.8250   29.7020 C   0  0  0  0  0  0  0  0  0  0  0  0
   51.3970  157.7090   29.5010 C   0  0  0  0  0  0  0  0  0  0  0  0
   51.8820  156.5070   28.7890 C   0  0  0  0  0  0  0  0  0  0  0  0
   52.4510  156.8020   27.5560 O   0  0  0  0  0  0  0  0  0  0  0  0
   52.9430  155.7770   26.7900 C   0  0  0  0  0  0  0  0  0  0  0  0
   53.5180  156.1210   25.5650 C   0  0  0  0  0  0  0  0  0  0  0  0
   54.0370  155.1240   24.7350 C   0  0  0  0  0  0  0  0  0  0  0  0
   53.9780  153.7860   25.1280 C   0  0  0  0  0  0  0  0  0  0  0  0
   53.4040  153.4460   26.3500 C   0  0  0  0  0  0  0  0  0  0  0  0
   53.3790  152.1170   26.6720 O   0  0  0  0  0  0  0  0  0  0  0  0
   52.8860  154.4430   27.1810 C   0  0  0  0  0  0  0  0  0  0  0  0
   52.2730  154.1290   28.4720 C   0  0  0  0  0  0  0  0  0  0  0  0
   52.1790  152.9750   28.8840 O   0  0  0  0  0  0  0  0  0  0  0  0
   51.7610  155.2600   29.2810 C   0  0  0  0  0  0  0  0  0  0  0  0
   51.1730  154.9490   30.4940 O   0  0  0  0  0  0  0  0  0  0  0  0
   50.0700  157.7650   29.9550 C   0  0  0  0  0  0  0  0  0  0  0  0
   49.5580  158.9010   30.6110 C   0  0  0  0  0  0  0  0  0  0  0  0
   48.1320  158.8830   31.0860 C   0  0  0  0  0  0  0  0  0  0  0  0
   48.8024  161.4799   34.7898 H   0  0  0  0  0  0  0  0  0  0  0  0
   48.3952  162.5245   33.3864 H   0  0  0  0  0  0  0  0  0  0  0  0
   47.9160  160.7934   33.3864 H   0  0  0  0  0  0  0  0  0  0  0  0
   50.7960  161.8202   33.4135 H   0  0  0  0  0  0  0  0  0  0  0  0
   50.2455  160.0997   33.2907 H   0  0  0  0  0  0  0  0  0  0  0  0
   48.8883  161.4647   31.2300 H   0  0  0  0  0  0  0  0  0  0  0  0
   50.5890  162.0947   31.2062 H   0  0  0  0  0  0  0  0  0  0  0  0
   52.3863  160.8239   30.5084 H   0  0  0  0  0  0  0  0  0  0  0  0
   53.2529  158.8111   29.3407 H   0  0  0  0  0  0  0  0  0  0  0  0
   53.5623  157.1752   25.2539 H   0  0  0  0  0  0  0  0  0  0  0  0
   54.4926  155.3938   23.7708 H   0  0  0  0  0  0  0  0  0  0  0  0
   54.3845  153.0012   24.4731 H   0  0  0  0  0  0  0  0  0  0  0  0
   52.7990  151.5360   26.2200 H   0  0  0  0  0  0  0  0  0  0  0  0
   51.4430  155.3940   31.2720 H   0  0  0  0  0  0  0  0  0  0  0  0
   49.4123  156.8981   29.7940 H   0  0  0  0  0  0  0  0  0  0  0  0
   48.1119  158.8827   32.1858 H   0  0  0  0  0  0  0  0  0  0  0  0
   47.6090  159.7746   30.7099 H   0  0  0  0  0  0  0  0  0  0  0  0
   47.6316  157.9785   30.7099 H   0  0  0  0  0  0  0  0  0  0  0  0
  1  2  1  0
  2  3  1  0
  3  4  1  0
  4  5  2  0
  5  6  1  0
  6  7  2  0
  7  8  1  0
  8  9  1  0
  9 10  1  0
 10 11  2  0
 11 12  1  0
 12 13  2  0
 13 14  1  0
 14 15  1  0
 14 16  2  0
 16 17  1  0
 17 18  2  0
 17 19  1  0
 19 20  1  0
  7 21  1  0
 21 22  2  0
 22 23  1  0
 22  4  1  0
 19  8  2  0
 16 10  1  0
  1 24  1  0
  1 25  1  0
  1 26  1  0
  2 27  1  0
  2 28  1  0
  3 29  1  0
  3 30  1  0
  5 31  1  0
  6 32  1  0
 11 33  1  0
 12 34  1  0
 13 35  1  0
 15 36  1  0
 20 37  1  0
 21 38  1  0
 23 39  1  0
 23 40  1  0
 23 41  1  0
M  END
>  <meeko>  (1) 
{"is_sidechain": [false], "free_energy": -10.854, "intermolecular_energy": -13.392, "internal_energy": -0.321}

$$$$
cand_055_out
     RDKit          3D

 41 43  0  0  0  0  0  0  0  0999 V2000
   54.3270  151.1160   24.8090 C   0  0  0  0  0  0  0  0  0  0  0  0
   54.1380  152.1220   25.9320 C   0  0  0  0  0  0  0  0  0  0  0  0
   52.6630  152.2600   26.3150 C   0  0  0  0  0  0  0  0  0  0  0  0
   52.3880  153.5590   27.0390 C   0  0  0  0  0  0  0  0  0  0  0  0
   51.9460  153.5010   28.3700 C   0  0  0  0  0  0  0  0  0  0  0  0
   51.6670  154.6660   29.0880 C   0  0  0  0  0  0  0  0  0  0  0  0
   51.8270  155.9220   28.4970 C   0  0  0  0  0  0  0  0  0  0  0  0
   51.5150  157.1710   29.2270 C   0  0  0  0  0  0  0  0  0  0  0  0
   50.2050  157.2140   29.6890 O   0  0  0  0  0  0  0  0  0  0  0  0
   49.7820  158.3180   30.3830 C   0  0  0  0  0  0  0  0  0  0  0  0
   48.4630  158.3120   30.8410 C   0  0  0  0  0  0  0  0  0  0  0  0
   47.9680  159.4060   31.5540 C   0  0  0  0  0  0  0  0  0  0  0  0
   48.7910  160.5060   31.8080 C   0  0  0  0  0  0  0  0  0  0  0  0
   50.1060  160.5090   31.3500 C   0  0  0  0  0  0  0  0  0  0  0  0
   50.8550  161.6180   31.6330 O   0  0  0  0  0  0  0  0  0  0  0  0
   50.6010  159.4130   30.6380 C   0  0  0  0  0  0  0  0  0  0  0  0
   51.9760  159.3770   30.1390 C   0  0  0  0  0  0  0  0  0  0  0  0
   52.7580  160.3080   30.3160 O   0  0  0  0  0  0  0  0  0  0  0  0
   52.4050  158.1650   29.4010 C   0  0  0  0  0  0  0  0  0  0  0  0
   53.7030  158.1480   28.9230 O   0  0  0  0  0  0  0  0  0  0  0  0
   52.2540  155.9810   27.1620 C   0  0  0  0  0  0  0  0  0  0  0  0
   52.5320  154.8170   26.4210 C   0  0  0  0  0  0  0  0  0  0  0  0
   53.0030  154.9570   25.0000 C   0  0  0  0  0  0  0  0  0  0  0  0
   54.5141  150.1200   25.2366 H   0  0  0  0  0  0  0  0  0  0  0  0
   53.4191  151.0841   24.1887 H   0  0  0  0  0  0  0  0  0  0  0  0
   55.1845  151.4157   24.1887 H   0  0  0  0  0  0  0  0  0  0  0  0
   54.7065  151.7870   26.8121 H   0  0  0  0  0  0  0  0  0  0  0  0
   54.4986  153.1013   25.5841 H   0  0  0  0  0  0  0  0  0  0  0  0
   52.0533  152.2267   25.4000 H   0  0  0  0  0  0  0  0  0  0  0  0
   52.4074  151.4315   26.9919 H   0  0  0  0  0  0  0  0  0  0  0  0
   51.8173  152.5223   28.8553 H   0  0  0  0  0  0  0  0  0  0  0  0
   51.3180  154.5941   30.1287 H   0  0  0  0  0  0  0  0  0  0  0  0
   47.8145  157.4465   30.6404 H   0  0  0  0  0  0  0  0  0  0  0  0
   46.9293  159.4016   31.9159 H   0  0  0  0  0  0  0  0  0  0  0  0
   48.4009  161.3682   32.3688 H   0  0  0  0  0  0  0  0  0  0  0  0
   50.6200  162.1720   32.3500 H   0  0  0  0  0  0  0  0  0  0  0  0
   54.3710  157.6940   29.3990 H   0  0  0  0  0  0  0  0  0  0  0  0
   52.3748  156.9631   26.6815 H   0  0  0  0  0  0  0  0  0  0  0  0
   54.0574  155.2704   24.9924 H   0  0  0  0  0  0  0  0  0  0  0  0
   52.9040  153.9906   24.4840 H   0  0  0  0  0  0  0  0  0  0  0  0
   52.3922  155.7124   24.4840 H   0  0  0  0  0  0  0  0  0  0  0  0
  1  2  1  0
  2  3  1  0
  3  4  1  0
  4  5  2  0
  5  6  1  0
  6  7  2  0
  7  8  1  0
  8  9  1  0
  9 10  1  0
 10 11  2  0
 11 12  1  0
 12 13  2  0
 13 14  1  0
 14 15  1  0
 14 16  2  0
 16 17  1  0
 17 18  2  0
 17 19  1  0
 19 20  1  0
  7 21  1  0
 21 22  2  0
 22 23  1  0
 22  4  1  0
 19  8  2  0
 16 10  1  0
  1 24  1  0
  1 25  1  0
  1 26  1  0
  2 27  1  0
  2 28  1  0
  3 29  1  0
  3 30  1  0
  5 31  1  0
  6 32  1  0
 11 33  1  0
 12 34  1  0
 13 35  1  0
 15 36  1  0
 20 37  1  0
 21 38  1  0
 23 39  1  0
 23 40  1  0
 23 41  1  0
M  END
>  <meeko>  (2) 
{"is_sidechain": [false], "free_energy": -9.981, "intermolecular_energy": -12.555, "internal_energy": -0.081}

$$$$
cand_055_out
     RDKit          3D

 41 43  0  0  0  0  0  0  0  0999 V2000
   48.5110  161.5370   31.3100 C   0  0  0  0  0  0  0  0  0  0  0  0
   49.5870  161.1260   30.3170 C   0  0  0  0  0  0  0  0  0  0  0  0
   50.7230  160.3700   31.0080 C   0  0  0  0  0  0  0  0  0  0  0  0
   51.0540  159.0780   30.2940 C   0  0  0  0  0  0  0  0  0  0  0  0
   52.3160  158.9540   29.6900 C   0  0  0  0  0  0  0  0  0  0  0  0
   52.6760  157.7890   29.0080 C   0  0  0  0  0  0  0  0  0  0  0  0
   51.7880  156.7140   28.9160 C   0  0  0  0  0  0  0  0  0  0  0  0
   52.1350  155.4780   28.1800 C   0  0  0  0  0  0  0  0  0  0  0  0
   52.6750  155.7310   26.9240 O   0  0  0  0  0  0  0  0  0  0  0  0
   53.0420  154.6730   26.1340 C   0  0  0  0  0  0  0  0  0  0  0  0
   53.5930  154.9730   24.8880 C   0  0  0  0  0  0  0  0  0  0  0  0
   53.9860  153.9410   24.0330 C   0  0  0  0  0  0  0  0  0  0  0  0
   53.8270  152.6100   24.4230 C   0  0  0  0  0  0  0  0  0  0  0  0
   53.2770  152.3130   25.6680 C   0  0  0  0  0  0  0  0  0  0  0  0
   53.1490  150.9890   25.9860 O   0  0  0  0  0  0  0  0  0  0  0  0
   52.8850  153.3460   26.5230 C   0  0  0  0  0  0  0  0  0  0  0  0
   52.3020  153.0770   27.8390 C   0  0  0  0  0  0  0  0  0  0  0  0
   52.1240  151.9330   28.2500 O   0  0  0  0  0  0  0  0  0  0  0  0
   51.9260  154.2430   28.6720 C   0  0  0  0  0  0  0  0  0  0  0  0
   51.3640  153.9770   29.9080 O   0  0  0  0  0  0  0  0  0  0  0  0
   50.5220  156.8430   29.5060 C   0  0  0  0  0  0  0  0  0  0  0  0
   50.1390  158.0120   30.1910 C   0  0  0  0  0  0  0  0  0  0  0  0
   48.7720  158.0740   30.8140 C   0  0  0  0  0  0  0  0  0  0  0  0
   48.8842  161.3945   32.3349 H   0  0  0  0  0  0  0  0  0  0  0  0
   48.2557  162.5959   31.1567 H   0  0  0  0  0  0  0  0  0  0  0  0
   47.6148  160.9179   31.1567 H   0  0  0  0  0  0  0  0  0  0  0  0
   49.1382  160.4763   29.5512 H   0  0  0  0  0  0  0  0  0  0  0  0
   50.0035  162.0361   29.8606 H   0  0  0  0  0  0  0  0  0  0  0  0
   51.6186  161.0085   31.0223 H   0  0  0  0  0  0  0  0  0  0  0  0
   50.3975  160.1226   32.0292 H   0  0  0  0  0  0  0  0  0  0  0  0
   53.0318  159.7867   29.7549 H   0  0  0  0  0  0  0  0  0  0  0  0
   53.6683  157.7173   28.5388 H   0  0  0  0  0  0  0  0  0  0  0  0
   53.7178  156.0214   24.5792 H   0  0  0  0  0  0  0  0  0  0  0  0
   54.4214  154.1772   23.0509 H   0  0  0  0  0  0  0  0  0  0  0  0
   54.1353  151.7975   23.7487 H   0  0  0  0  0  0  0  0  0  0  0  0
   52.3840  150.6880   26.4370 H   0  0  0  0  0  0  0  0  0  0  0  0
   50.7800  154.5950   30.2990 H   0  0  0  0  0  0  0  0  0  0  0  0
   49.8093  156.0085   29.4315 H   0  0  0  0  0  0  0  0  0  0  0  0
   48.8679  158.0697   31.9098 H   0  0  0  0  0  0  0  0  0  0  0  0
   48.2647  158.9961   30.4940 H   0  0  0  0  0  0  0  0  0  0  0  0
   48.1833  157.2016   30.4940 H   0  0  0  0  0  0  0  0  0  0  0  0
  1  2  1  0
  2  3  1  0
  3  4  1  0
  4  5  2  0
  5  6  1  0
  6  7  2  0
  7  8  1  0
  8  9  1  0
  9 10  1  0
 10 11  2  0
 11 12  1  0
 12 13  2  0
 13 14  1  0
 14 15  1  0
 14 16  2  0
 16 17  1  0
 17 18  2  0
 17 19  1  0
 19 20  1  0
  7 21  1  0
 21 22  2  0
 22 23  1  0
 22  4  1  0
 19  8  2  0
 16 10  1  0
  1 24  1  0
  1 25  1  0
  1 26  1  0
  2 27  1  0
  2 28  1  0
  3 29  1  0
  3 30  1  0
  5 31  1  0
  6 32  1  0
 11 33  1  0
 12 34  1  0
 13 35  1  0
 15 36  1  0
 20 37  1  0
 21 38  1  0
 23 39  1  0
 23 40  1  0
 23 41  1  0
M  END
>  <meeko>  (3) 
{"is_sidechain": [false], "free_energy": -9.874, "intermolecular_energy": -12.578, "internal_energy": 0.074}

$$$$
cand_055_out
     RDKit          3D

 41 43  0  0  0  0  0  0  0  0999 V2000
   53.3760  150.9890   25.5080 C   0  0  0  0  0  0  0  0  0  0  0  0
   52.6990  152.1160   26.2700 C   0  0  0  0  0  0  0  0  0  0  0  0
   53.6030  153.3470   26.3660 C   0  0  0  0  0  0  0  0  0  0  0  0
   52.9590  154.4560   27.1680 C   0  0  0  0  0  0  0  0  0  0  0  0
   52.2570  154.1150   28.3360 C   0  0  0  0  0  0  0  0  0  0  0  0
   51.6330  155.0930   29.1130 C   0  0  0  0  0  0  0  0  0  0  0  0
   51.6970  156.4410   28.7480 C   0  0  0  0  0  0  0  0  0  0  0  0
   51.0250  157.4950   29.5390 C   0  0  0  0  0  0  0  0  0  0  0  0
   51.8670  158.5580   29.8470 O   0  0  0  0  0  0  0  0  0  0  0  0
   51.3710  159.6060   30.5790 C   0  0  0  0  0  0  0  0  0  0  0  0
   52.2470  160.6580   30.8520 C   0  0  0  0  0  0  0  0  0  0  0  0
   51.8060  161.7560   31.5940 C   0  0  0  0  0  0  0  0  0  0  0  0
   50.4920  161.8020   32.0630 C   0  0  0  0  0  0  0  0  0  0  0  0
   49.6200  160.7510   31.7880 C   0  0  0  0  0  0  0  0  0  0  0  0
   48.3480  160.8600   32.2790 O   0  0  0  0  0  0  0  0  0  0  0  0
   50.0620  159.6530   31.0450 C   0  0  0  0  0  0  0  0  0  0  0  0
   49.1780  158.5280   30.7350 C   0  0  0  0  0  0  0  0  0  0  0  0
   48.0110  158.4920   31.1180 O   0  0  0  0  0  0  0  0  0  0  0  0
   49.7410  157.4150   29.9350 C   0  0  0  0  0  0  0  0  0  0  0  0
   48.9010  156.3520   29.6590 O   0  0  0  0  0  0  0  0  0  0  0  0
   52.3850  156.7810   27.5730 C   0  0  0  0  0  0  0  0  0  0  0  0
   53.0130  155.8070   26.7740 C   0  0  0  0  0  0  0  0  0  0  0  0
   53.7470  156.2470   25.5370 C   0  0  0  0  0  0  0  0  0  0  0  0
   53.8072  150.2713   26.2214 H   0  0  0  0  0  0  0  0  0  0  0  0
   52.6355  150.4775   24.8755 H   0  0  0  0  0  0  0  0  0  0  0  0
   54.1754  151.4025   24.8755 H   0  0  0  0  0  0  0  0  0  0  0  0
   51.7708  152.3933   25.7489 H   0  0  0  0  0  0  0  0  0  0  0  0
   52.4839  151.7641   27.2897 H   0  0  0  0  0  0  0  0  0  0  0  0
   54.5470  153.0585   26.8515 H   0  0  0  0  0  0  0  0  0  0  0  0
   53.7806  153.7210   25.3469 H   0  0  0  0  0  0  0  0  0  0  0  0
   52.1979  153.0605   28.6434 H   0  0  0  0  0  0  0  0  0  0  0  0
   51.0858  154.8000   30.0211 H   0  0  0  0  0  0  0  0  0  0  0  0
   53.2828  160.6223   30.4834 H   0  0  0  0  0  0  0  0  0  0  0  0
   52.4952  162.5859   31.8092 H   0  0  0  0  0  0  0  0  0  0  0  0
   50.1458  162.6665   32.6486 H   0  0  0  0  0  0  0  0  0  0  0  0
   47.6140  160.7170   31.7140 H   0  0  0  0  0  0  0  0  0  0  0  0
   49.2180  155.4740   29.7310 H   0  0  0  0  0  0  0  0  0  0  0  0
   52.4348  157.8368   27.2683 H   0  0  0  0  0  0  0  0  0  0  0  0
   54.6575  156.7928   25.8255 H   0  0  0  0  0  0  0  0  0  0  0  0
   54.0219  155.3647   24.9404 H   0  0  0  0  0  0  0  0  0  0  0  0
   53.0984  156.9053   24.9404 H   0  0  0  0  0  0  0  0  0  0  0  0
  1  2  1  0
  2  3  1  0
  3  4  1  0
  4  5  2  0
  5  6  1  0
  6  7  2  0
  7  8  1  0
  8  9  1  0
  9 10  1  0
 10 11  2  0
 11 12  1  0
 12 13  2  0
 13 14  1  0
 14 15  1  0
 14 16  2  0
 16 17  1  0
 17 18  2  0
 17 19  1  0
 19 20  1  0
  7 21  1  0
 21 22  2  0
 22 23  1  0
 22  4  1  0
 19  8  2  0
 16 10  1  0
  1 24  1  0
  1 25  1  0
  1 26  1  0
  2 27  1  0
  2 28  1  0
  3 29  1  0
  3 30  1  0
  5 31  1  0
  6 32  1  0
 11 33  1  0
 12 34  1  0
 13 35  1  0
 15 36  1  0
 20 37  1  0
 21 38  1  0
 23 39  1  0
 23 40  1  0
 23 41  1  0
M  END
>  <meeko>  (4) 
{"is_sidechain": [false], "free_energy": -9.048, "intermolecular_energy": -11.202, "internal_energy": -0.282}

$$$$
cand_055_out
     RDKit          3D

 41 43  0  0  0  0  0  0  0  0999 V2000
   48.2170  160.5930   30.8950 C   0  0  0  0  0  0  0  0  0  0  0  0
   48.1460  159.1150   30.5460 C   0  0  0  0  0  0  0  0  0  0  0  0
   49.2870  158.3330   31.1980 C   0  0  0  0  0  0  0  0  0  0  0  0
   50.0810  157.5420   30.1820 C   0  0  0  0  0  0  0  0  0  0  0  0
   49.5880  156.2890   29.7790 C   0  0  0  0  0  0  0  0  0  0  0  0
   50.2810  155.5080   28.8510 C   0  0  0  0  0  0  0  0  0  0  0  0
   51.4810  155.9580   28.2950 C   0  0  0  0  0  0  0  0  0  0  0  0
   52.2470  155.1410   27.3290 C   0  0  0  0  0  0  0  0  0  0  0  0
   51.9620  153.7830   27.4250 O   0  0  0  0  0  0  0  0  0  0  0  0
   52.6030  152.9100   26.5860 C   0  0  0  0  0  0  0  0  0  0  0  0
   52.2760  151.5580   26.7070 C   0  0  0  0  0  0  0  0  0  0  0  0
   52.8940  150.6150   25.8830 C   0  0  0  0  0  0  0  0  0  0  0  0
   53.8400  151.0230   24.9390 C   0  0  0  0  0  0  0  0  0  0  0  0
   54.1630  152.3720   24.8200 C   0  0  0  0  0  0  0  0  0  0  0  0
   55.0970  152.7020   23.8760 O   0  0  0  0  0  0  0  0  0  0  0  0
   53.5440  153.3150   25.6440 C   0  0  0  0  0  0  0  0  0  0  0  0
   53.8560  154.7430   25.5520 C   0  0  0  0  0  0  0  0  0  0  0  0
   54.6810  155.1780   24.7510 O   0  0  0  0  0  0  0  0  0  0  0  0
   53.1390  155.6610   26.4660 C   0  0  0  0  0  0  0  0  0  0  0  0
   53.4510  157.0060   26.3780 O   0  0  0  0  0  0  0  0  0  0  0  0
   51.9810  157.2030   28.7080 C   0  0  0  0  0  0  0  0  0  0  0  0
   51.3010  158.0000   29.6480 C   0  0  0  0  0  0  0  0  0  0  0  0
   51.8880  159.3300   30.0310 C   0  0  0  0  0  0  0  0  0  0  0  0
   48.2227  160.7117   31.9886 H   0  0  0  0  0  0  0  0  0  0  0  0
   49.1369  161.0253   30.4745 H   0  0  0  0  0  0  0  0  0  0  0  0
   47.3427  161.1115   30.4745 H   0  0  0  0  0  0  0  0  0  0  0  0
   47.1864  158.7094   30.8992 H   0  0  0  0  0  0  0  0  0  0  0  0
   48.2349  159.0121   29.4544 H   0  0  0  0  0  0  0  0  0  0  0  0
   49.9606  159.0411   31.7027 H   0  0  0  0  0  0  0  0  0  0  0  0
   48.8482  157.6236   31.9151 H   0  0  0  0  0  0  0  0  0  0  0  0
   48.6423  155.9178   30.2007 H   0  0  0  0  0  0  0  0  0  0  0  0
   49.8776  154.5284   28.5549 H   0  0  0  0  0  0  0  0  0  0  0  0
   51.5323  151.2359   27.4507 H   0  0  0  0  0  0  0  0  0  0  0  0
   52.6358  149.5499   25.9772 H   0  0  0  0  0  0  0  0  0  0  0  0
   54.3284  150.2800   24.2914 H   0  0  0  0  0  0  0  0  0  0  0  0
   54.8270  153.0650   23.0560 H   0  0  0  0  0  0  0  0  0  0  0  0
   53.8040  157.4540   27.1210 H   0  0  0  0  0  0  0  0  0  0  0  0
   52.9298  157.5655   28.2856 H   0  0  0  0  0  0  0  0  0  0  0  0
   51.9245  159.4127   31.1273 H   0  0  0  0  0  0  0  0  0  0  0  0
   52.9062  159.4126   29.6230 H   0  0  0  0  0  0  0  0  0  0  0  0
   51.2628  160.1379   29.6230 H   0  0  0  0  0  0  0  0  0  0  0  0
  1  2  1  0
  2  3  1  0
  3  4  1  0
  4  5  2  0
  5  6  1  0
  6  7  2  0
  7  8  1  0
  8  9  1  0
  9 10  1  0
 10 11  2  0
 11 12  1  0
 12 13  2  0
 13 14  1  0
 14 15  1  0
 14 16  2  0
 16 17  1  0
 17 18  2  0
 17 19  1  0
 19 20  1  0
  7 21  1  0
 21 22  2  0
 22 23  1  0
 22  4  1  0
 19  8  2  0
 16 10  1  0
  1 24  1  0
  1 25  1  0
  1 26  1  0
  2 27  1  0
  2 28  1  0
  3 29  1  0
  3 30  1  0
  5 31  1  0
  6 32  1  0
 11 33  1  0
 12 34  1  0
 13 35  1  0
 15 36  1  0
 20 37  1  0
 21 38  1  0
 23 39  1  0
 23 40  1  0
 23 41  1  0
M  END
>  <meeko>  (5) 
{"is_sidechain": [false], "free_energy": -8.947, "intermolecular_energy": -11.305, "internal_energy": -0.055}

$$$$
