cand_005_out
     RDKit          3D

 36 38  0  0  0  0  0  0  0  0999 V2000
   47.3690  159.5000   30.8100 C   0  0  0  0  0  0  0  0  0  0  0  0
   48.4010  158.8630   31.3740 C   0  0  0  0  0  0  0  0  0  0  0  0
   49.7570  158.9010   30.8100 C   0  0  0  0  0  0  0  0  0  0  0  0
   50.2230  157.7830   30.0940 C   0  0  0  0  0  0  0  0  0  0  0  0
   51.5150  157.7470   29.5460 C   0  0  0  0  0  0  0  0  0  0  0  0
   51.9550  156.5630   28.7790 C   0  0  0  0  0  0  0  0  0  0  0  0
   52.5560  156.8940   27.5700 O   0  0  0  0  0  0  0  0  0  0  0  0
   53.0090  155.8860   26.7580 C   0  0  0  0  0  0  0  0  0  0  0  0
   53.6180  156.2620   25.5600 C   0  0  0  0  0  0  0  0  0  0  0  0
   54.1000  155.2860   24.6870 C   0  0  0  0  0  0  0  0  0  0  0  0
   53.9750  153.9330   25.0100 C   0  0  0  0  0  0  0  0  0  0  0  0
   53.3660  153.5600   26.2060 C   0  0  0  0  0  0  0  0  0  0  0  0
   53.2760  152.2190   26.4600 O   0  0  0  0  0  0  0  0  0  0  0  0
   52.8850  154.5380   27.0800 C   0  0  0  0  0  0  0  0  0  0  0  0
   52.2400  154.1870   28.3470 C   0  0  0  0  0  0  0  0  0  0  0  0
   52.0850  153.0200   28.6990 O   0  0  0  0  0  0  0  0  0  0  0  0
   51.7690  155.3000   29.2050 C   0  0  0  0  0  0  0  0  0  0  0  0
   51.1480  154.9590   30.3920 O   0  0  0  0  0  0  0  0  0  0  0  0
   52.3380  158.8650   29.7140 C   0  0  0  0  0  0  0  0  0  0  0  0
   51.8900  159.9800   30.4270 C   0  0  0  0  0  0  0  0  0  0  0  0
   50.6000  160.0130   30.9860 C   0  0  0  0  0  0  0  0  0  0  0  0
   50.1450  161.2400   31.7410 C   0  0  0  0  0  0  0  0  0  0  0  0
   49.1520  161.9220   31.1060 F   0  0  0  0  0  0  0  0  0  0  0  0
   51.1420  162.1520   31.9350 F   0  0  0  0  0  0  0  0  0  0  0  0
   49.6740  160.9550   32.9880 F   0  0  0  0  0  0  0  0  0  0  0  0
   46.3706  159.4432   31.2683 H   0  0  0  0  0  0  0  0  0  0  0  0
   47.5186  160.0807   29.8878 H   0  0  0  0  0  0  0  0  0  0  0  0
   48.2277  158.2884   32.2959 H   0  0  0  0  0  0  0  0  0  0  0  0
   49.5590  156.9163   29.9604 H   0  0  0  0  0  0  0  0  0  0  0  0
   53.7180  157.3271   25.3041 H   0  0  0  0  0  0  0  0  0  0  0  0
   54.5794  155.5828   23.7425 H   0  0  0  0  0  0  0  0  0  0  0  0
   54.3563  153.1641   24.3219 H   0  0  0  0  0  0  0  0  0  0  0  0
   53.5710  151.8760   27.2800 H   0  0  0  0  0  0  0  0  0  0  0  0
   51.6210  155.0060   31.2000 H   0  0  0  0  0  0  0  0  0  0  0  0
   53.3489  158.8667   29.2802 H   0  0  0  0  0  0  0  0  0  0  0  0
   52.5569  160.8457   30.5531 H   0  0  0  0  0  0  0  0  0  0  0  0
  1  2  2  0
  2  3  1  0
  3  4  2  0
  4  5  1  0
  5  6  1  0
  6  7  1  0
  7  8  1  0
  8  9  2  0
  9 10  1  0
 10 11  2  0
 11 12  1  0
 12 13  1  0
 12 14  2  0
 14 15  1  0
 15 16  2  0
 15 17  1  0
 17 18  1  0
  5 19  2  0
 19 20  1  0
 20 21  2  0
 21 22  1  0
 22 23  1  0
 22 24  1  0
 22 25  1  0
 21  3  1  0
 17  6  2  0
 14  8  1  0
  1 26  1  0
  1 27  1  0
  2 28  1  0
  4 29  1  0
  9 30  1  0
 10 31  1  0
 11 32  1  0
 13 33  1  0
 18 34  1  0
 19 35  1  0
 20 36  1  0
M  END
>  <meeko>  (1) 
{"is_sidechain": [false], "free_energy": -11.074, "intermolecular_energy": -13.663, "internal_energy": -0.052}

$$$$
cand_005_out
     RDKit          3D

 36 38  0  0  0  0  0  0  0  0999 V2000
   52.7310  161.3780   30.4920 C   0  0  0  0  0  0  0  0  0  0  0  0
   51.6920  160.9340   31.2090 C   0  0  0  0  0  0  0  0  0  0  0  0
   50.9280  159.7370   30.8350 C   0  0  0  0  0  0  0  0  0  0  0  0
   51.5700  158.7280   30.0940 C   0  0  0  0  0  0  0  0  0  0  0  0
   50.8920  157.5680   29.6900 C   0  0  0  0  0  0  0  0  0  0  0  0
   51.6120  156.5210   28.9350 C   0  0  0  0  0  0  0  0  0  0  0  0
   52.1440  156.9860   27.7380 O   0  0  0  0  0  0  0  0  0  0  0  0
   52.8370  156.1140   26.9380 C   0  0  0  0  0  0  0  0  0  0  0  0
   53.3650  156.6260   25.7520 C   0  0  0  0  0  0  0  0  0  0  0  0
   54.0800  155.7910   24.8910 C   0  0  0  0  0  0  0  0  0  0  0  0
   54.2680  154.4460   25.2150 C   0  0  0  0  0  0  0  0  0  0  0  0
   53.7390  153.9370   26.3990 C   0  0  0  0  0  0  0  0  0  0  0  0
   53.9590  152.6120   26.6540 O   0  0  0  0  0  0  0  0  0  0  0  0
   53.0240  154.7730   27.2600 C   0  0  0  0  0  0  0  0  0  0  0  0
   52.4530  154.2790   28.5140 C   0  0  0  0  0  0  0  0  0  0  0  0
   52.5680  153.1070   28.8660 O   0  0  0  0  0  0  0  0  0  0  0  0
   51.7170  155.2480   29.3600 C   0  0  0  0  0  0  0  0  0  0  0  0
   51.1690  154.7690   30.5350 O   0  0  0  0  0  0  0  0  0  0  0  0
   49.5490  157.4240   30.0530 C   0  0  0  0  0  0  0  0  0  0  0  0
   48.8970  158.4200   30.7850 C   0  0  0  0  0  0  0  0  0  0  0  0
   49.5730  159.5880   31.1820 C   0  0  0  0  0  0  0  0  0  0  0  0
   48.8390  160.6390   31.9810 C   0  0  0  0  0  0  0  0  0  0  0  0
   49.3860  160.8570   33.2080 F   0  0  0  0  0  0  0  0  0  0  0  0
   47.5330  160.3190   32.2200 F   0  0  0  0  0  0  0  0  0  0  0  0
   48.8010  161.8520   31.3590 F   0  0  0  0  0  0  0  0  0  0  0  0
   53.2740  162.2800   30.8108 H   0  0  0  0  0  0  0  0  0  0  0  0
   53.0421  160.8410   29.5838 H   0  0  0  0  0  0  0  0  0  0  0  0
   51.3989  161.4871   32.1135 H   0  0  0  0  0  0  0  0  0  0  0  0
   52.6294  158.8516   29.8248 H   0  0  0  0  0  0  0  0  0  0  0  0
   53.2182  157.6856   25.4959 H   0  0  0  0  0  0  0  0  0  0  0  0
   54.4959  156.1937   23.9557 H   0  0  0  0  0  0  0  0  0  0  0  0
   54.8327  153.7895   24.5367 H   0  0  0  0  0  0  0  0  0  0  0  0
   54.2290  152.3370   27.5080 H   0  0  0  0  0  0  0  0  0  0  0  0
   51.7260  154.5050   31.2400 H   0  0  0  0  0  0  0  0  0  0  0  0
   49.0001  156.5171   29.7592 H   0  0  0  0  0  0  0  0  0  0  0  0
   47.8388  158.2886   31.0549 H   0  0  0  0  0  0  0  0  0  0  0  0
  1  2  2  0
  2  3  1  0
  3  4  2  0
  4  5  1  0
  5  6  1  0
  6  7  1  0
  7  8  1  0
  8  9  2  0
  9 10  1  0
 10 11  2  0
 11 12  1  0
 12 13  1  0
 12 14  2  0
 14 15  1  0
 15 16  2  0
 15 17  1  0
 17 18  1  0
  5 19  2  0
 19 20  1  0
 20 21  2  0
 21 22  1  0
 22 23  1  0
 22 24  1  0
 22 25  1  0
 21  3  1  0
 17  6  2  0
 14  8  1  0
  1 26  1  0
  1 27  1  0
  2 28  1  0
  4 29  1  0
  9 30  1  0
 10 31  1  0
 11 32  1  0
 13 33  1  0
 18 34  1  0
 19 35  1  0
 20 36  1  0
M  END
>  <meeko>  (2) 
{"is_sidechain": [false], "free_energy": -11.061, "intermolecular_energy": -13.282, "internal_energy": -0.418}

$$$$
cand_005_out
     RDKit          3D

 36 38  0  0  0  0  0  0  0  0999 V2000
   54.0330  156.5360   25.0210 C   0  0  0  0  0  0  0  0  0  0  0  0
   53.6680  155.3410   25.4990 C   0  0  0  0  0  0  0  0  0  0  0  0
   52.9220  155.1860   26.7540 C   0  0  0  0  0  0  0  0  0  0  0  0
   52.5660  156.3400   27.4770 C   0  0  0  0  0  0  0  0  0  0  0  0
   51.8700  156.2610   28.6930 C   0  0  0  0  0  0  0  0  0  0  0  0
   51.4940  157.5000   29.4060 C   0  0  0  0  0  0  0  0  0  0  0  0
   50.1580  157.5180   29.7920 O   0  0  0  0  0  0  0  0  0  0  0  0
   49.6770  158.6130   30.4620 C   0  0  0  0  0  0  0  0  0  0  0  0
   48.3350  158.5840   30.8430 C   0  0  0  0  0  0  0  0  0  0  0  0
   47.7810  159.6680   31.5270 C   0  0  0  0  0  0  0  0  0  0  0  0
   48.5690  160.7810   31.8310 C   0  0  0  0  0  0  0  0  0  0  0  0
   49.9080  160.8070   31.4490 C   0  0  0  0  0  0  0  0  0  0  0  0
   50.6200  161.9270   31.7780 O   0  0  0  0  0  0  0  0  0  0  0  0
   50.4620  159.7220   30.7650 C   0  0  0  0  0  0  0  0  0  0  0  0
   51.8640  159.7100   30.3470 C   0  0  0  0  0  0  0  0  0  0  0  0
   52.6200  160.6540   30.5710 O   0  0  0  0  0  0  0  0  0  0  0  0
   52.3550  158.5080   29.6330 C   0  0  0  0  0  0  0  0  0  0  0  0
   53.6770  158.5120   29.2290 O   0  0  0  0  0  0  0  0  0  0  0  0
   51.5180  154.9960   29.1750 C   0  0  0  0  0  0  0  0  0  0  0  0
   51.8690  153.8420   28.4700 C   0  0  0  0  0  0  0  0  0  0  0  0
   52.5760  153.9190   27.2570 C   0  0  0  0  0  0  0  0  0  0  0  0
   52.9290  152.6500   26.5170 C   0  0  0  0  0  0  0  0  0  0  0  0
   54.2420  152.3100   26.6340 F   0  0  0  0  0  0  0  0  0  0  0  0
   52.6930  152.7260   25.1750 F   0  0  0  0  0  0  0  0  0  0  0  0
   52.2170  151.5680   26.9440 F   0  0  0  0  0  0  0  0  0  0  0  0
   54.5914  156.6030   24.0756 H   0  0  0  0  0  0  0  0  0  0  0  0
   53.7747  157.4515   25.5733 H   0  0  0  0  0  0  0  0  0  0  0  0
   53.9373  154.4393   24.9295 H   0  0  0  0  0  0  0  0  0  0  0  0
   52.8401  157.3282   27.0790 H   0  0  0  0  0  0  0  0  0  0  0  0
   47.7140  157.7079   30.6047 H   0  0  0  0  0  0  0  0  0  0  0  0
   46.7229  159.6456   31.8269 H   0  0  0  0  0  0  0  0  0  0  0  0
   48.1329  161.6346   32.3707 H   0  0  0  0  0  0  0  0  0  0  0  0
   51.3840  161.8560   32.3170 H   0  0  0  0  0  0  0  0  0  0  0  0
   54.3270  158.9350   29.7550 H   0  0  0  0  0  0  0  0  0  0  0  0
   50.9593  154.9089   30.1185 H   0  0  0  0  0  0  0  0  0  0  0  0
   51.5876  152.8569   28.8705 H   0  0  0  0  0  0  0  0  0  0  0  0
  1  2  2  0
  2  3  1  0
  3  4  2  0
  4  5  1  0
  5  6  1  0
  6  7  1  0
  7  8  1  0
  8  9  2  0
  9 10  1  0
 10 11  2  0
 11 12  1  0
 12 13  1  0
 12 14  2  0
 14 15  1  0
 15 16  2  0
 15 17  1  0
 17 18  1  0
  5 19  2  0
 19 20  1  0
 20 21  2  0
 21 22  1  0
 22 23  1  0
 22 24  1  0
 22 25  1  0
 21  3  1  0
 17  6  2  0
 14  8  1  0
  1 26  1  0
  1 27  1  0
  2 28  1  0
  4 29  1  0
  9 30  1  0
 10 31  1  0
 11 32  1  0
 13 33  1  0
 18 34  1  0
 19 35  1  0
 20 36  1  0
M  END
>  <meeko>  (3) 
{"is_sidechain": [false], "free_energy": -11.024, "intermolecular_energy": -13.474, "internal_energy": -0.181}

$$$$
cand_005_out
     RDKit          3D

 36 38  0  0  0  0  0  0  0  0999 V2000
   54.1470  156.6560   25.1870 C   0  0  0  0  0  0  0  0  0  0  0  0
   53.4990  155.5050   25.4000 C   0  0  0  0  0  0  0  0  0  0  0  0
   52.8160  155.2040   26.6650 C   0  0  0  0  0  0  0  0  0  0  0  0
   52.2830  156.2690   27.4150 C   0  0  0  0  0  0  0  0  0  0  0  0
   51.6350  156.0520   28.6410 C   0  0  0  0  0  0  0  0  0  0  0  0
   51.0660  157.1960   29.3840 C   0  0  0  0  0  0  0  0  0  0  0  0
   51.9970  158.2000   29.6250 O   0  0  0  0  0  0  0  0  0  0  0  0
   51.5990  159.3210   30.3090 C   0  0  0  0  0  0  0  0  0  0  0  0
   52.5620  160.3110   30.5170 C   0  0  0  0  0  0  0  0  0  0  0  0
   52.2240  161.4760   31.2070 C   0  0  0  0  0  0  0  0  0  0  0  0
   50.9250  161.6540   31.6890 C   0  0  0  0  0  0  0  0  0  0  0  0
   49.9670  160.6640   31.4810 C   0  0  0  0  0  0  0  0  0  0  0  0
   48.7160  160.9020   31.9800 O   0  0  0  0  0  0  0  0  0  0  0  0
   50.3060  159.4980   30.7890 C   0  0  0  0  0  0  0  0  0  0  0  0
   49.3290  158.4350   30.5490 C   0  0  0  0  0  0  0  0  0  0  0  0
   48.1690  158.5130   30.9470 O   0  0  0  0  0  0  0  0  0  0  0  0
   49.7870  157.2420   29.7990 C   0  0  0  0  0  0  0  0  0  0  0  0
   48.8610  156.2360   29.5890 O   0  0  0  0  0  0  0  0  0  0  0  0
   51.5140  154.7380   29.1050 C   0  0  0  0  0  0  0  0  0  0  0  0
   52.0430  153.6720   28.3730 C   0  0  0  0  0  0  0  0  0  0  0  0
   52.7020  153.8880   27.1490 C   0  0  0  0  0  0  0  0  0  0  0  0
   53.2520  152.7100   26.3800 C   0  0  0  0  0  0  0  0  0  0  0  0
   54.5820  152.5080   26.5900 F   0  0  0  0  0  0  0  0  0  0  0  0
   53.1160  152.8400   25.0280 F   0  0  0  0  0  0  0  0  0  0  0  0
   52.6350  151.5350   26.6900 F   0  0  0  0  0  0  0  0  0  0  0  0
   54.6442  156.8370   24.2226 H   0  0  0  0  0  0  0  0  0  0  0  0
   54.1826  157.4214   25.9763 H   0  0  0  0  0  0  0  0  0  0  0  0
   53.4769  154.7546   24.5961 H   0  0  0  0  0  0  0  0  0  0  0  0
   52.3765  157.2957   27.0313 H   0  0  0  0  0  0  0  0  0  0  0  0
   53.5852  160.1727   30.1376 H   0  0  0  0  0  0  0  0  0  0  0  0
   52.9821  162.2558   31.3717 H   0  0  0  0  0  0  0  0  0  0  0  0
   50.6592  162.5734   32.2313 H   0  0  0  0  0  0  0  0  0  0  0  0
   48.3510  161.7630   31.9370 H   0  0  0  0  0  0  0  0  0  0  0  0
   48.3310  156.2410   28.8170 H   0  0  0  0  0  0  0  0  0  0  0  0
   50.9971  154.5419   30.0560 H   0  0  0  0  0  0  0  0  0  0  0  0
   51.9426  152.6472   28.7600 H   0  0  0  0  0  0  0  0  0  0  0  0
  1  2  2  0
  2  3  1  0
  3  4  2  0
  4  5  1  0
  5  6  1  0
  6  7  1  0
  7  8  1  0
  8  9  2  0
  9 10  1  0
 10 11  2  0
 11 12  1  0
 12 13  1  0
 12 14  2  0
 14 15  1  0
 15 16  2  0
 15 17  1  0
 17 18  1  0
  5 19  2  0
 19 20  1  0
 20 21  2  0
 21 22  1  0
 22 23  1  0
 22 24  1  0
 22 25  1  0
 21  3  1  0
 17  6  2  0
 14  8  1  0
  1 26  1  0
  1 27  1  0
  2 28  1  0
  4 29  1  0
  9 30  1  0
 10 31  1  0
 11 32  1  0
 13 33  1  0
 18 34  1  0
 19 35  1  0
 20 36  1  0
M  END
>  <meeko>  (4) 
{"is_sidechain": [false], "free_energy": -9.667, "intermolecular_energy": -11.782, "internal_energy": -0.198}

$$$$
cand_005_out
     RDKit          3D

 36 38  0  0  0  0  0  0  0  0999 V2000
   51.4440  152.4250   28.2100 C   0  0  0  0  0  0  0  0  0  0  0  0
   52.2030  153.3370   28.8300 C   0  0  0  0  0  0  0  0  0  0  0  0
   52.3440  154.7140   28.3390 C   0  0  0  0  0  0  0  0  0  0  0  0
   51.8700  155.7690   29.1400 C   0  0  0  0  0  0  0  0  0  0  0  0
   51.9580  157.1060   28.7220 C   0  0  0  0  0  0  0  0  0  0  0  0
   51.4710  158.1860   29.6070 C   0  0  0  0  0  0  0  0  0  0  0  0
   50.1270  158.0520   29.9340 O   0  0  0  0  0  0  0  0  0  0  0  0
   49.5480  158.9910   30.7500 C   0  0  0  0  0  0  0  0  0  0  0  0
   48.2000  158.8110   31.0650 C   0  0  0  0  0  0  0  0  0  0  0  0
   47.5490  159.7310   31.8890 C   0  0  0  0  0  0  0  0  0  0  0  0
   48.2440  160.8300   32.3990 C   0  0  0  0  0  0  0  0  0  0  0  0
   49.5890  161.0070   32.0820 C   0  0  0  0  0  0  0  0  0  0  0  0
   50.2080  162.1040   32.6140 O   0  0  0  0  0  0  0  0  0  0  0  0
   50.2400  160.0860   31.2580 C   0  0  0  0  0  0  0  0  0  0  0  0
   51.6520  160.2350   30.9020 C   0  0  0  0  0  0  0  0  0  0  0  0
   52.3300  161.1780   31.3040 O   0  0  0  0  0  0  0  0  0  0  0  0
   52.2500  159.2000   30.0270 C   0  0  0  0  0  0  0  0  0  0  0  0
   53.5800  159.3570   29.6840 O   0  0  0  0  0  0  0  0  0  0  0  0
   52.5450  157.3760   27.4820 C   0  0  0  0  0  0  0  0  0  0  0  0
   53.0150  156.3380   26.6740 C   0  0  0  0  0  0  0  0  0  0  0  0
   52.9180  154.9970   27.0870 C   0  0  0  0  0  0  0  0  0  0  0  0
   53.4470  153.9010   26.1910 C   0  0  0  0  0  0  0  0  0  0  0  0
   52.4700  153.2740   25.4800 F   0  0  0  0  0  0  0  0  0  0  0  0
   54.0890  152.9090   26.8760 F   0  0  0  0  0  0  0  0  0  0  0  0
   54.3550  154.3500   25.2780 F   0  0  0  0  0  0  0  0  0  0  0  0
   51.3686  151.4050   28.6150 H   0  0  0  0  0  0  0  0  0  0  0  0
   50.8957  152.6956   27.2956 H   0  0  0  0  0  0  0  0  0  0  0  0
   52.7421  153.0436   29.7428 H   0  0  0  0  0  0  0  0  0  0  0  0
   51.4196  155.5406   30.1172 H   0  0  0  0  0  0  0  0  0  0  0  0
   47.6516  157.9456   30.6646 H   0  0  0  0  0  0  0  0  0  0  0  0
   46.4866  159.5901   32.1371 H   0  0  0  0  0  0  0  0  0  0  0  0
   47.7307  161.5538   33.0492 H   0  0  0  0  0  0  0  0  0  0  0  0
   49.7870  162.5990   33.2880 H   0  0  0  0  0  0  0  0  0  0  0  0
   53.8590  159.2070   28.8020 H   0  0  0  0  0  0  0  0  0  0  0  0
   52.6377  158.4171   27.1391 H   0  0  0  0  0  0  0  0  0  0  0  0
   53.4680  156.5730   25.6996 H   0  0  0  0  0  0  0  0  0  0  0  0
  1  2  2  0
  2  3  1  0
  3  4  2  0
  4  5  1  0
  5  6  1  0
  6  7  1  0
  7  8  1  0
  8  9  2  0
  9 10  1  0
 10 11  2  0
 11 12  1  0
 12 13  1  0
 12 14  2  0
 14 15  1  0
 15 16  2  0
 15 17  1  0
 17 18  1  0
  5 19  2  0
 19 20  1  0
 20 21  2  0
 21 22  1  0
 22 23  1  0
 22 24  1  0
 22 25  1  0
 21  3  1  0
 17  6  2  0
 14  8  1  0
  1 26  1  0
  1 27  1  0
  2 28  1  0
  4 29  1  0
  9 30  1  0
 10 31  1  0
 11 32  1  0
 13 33  1  0
 18 34  1  0
 19 35  1  0
 20 36  1  0
M  END
>  <meeko>  (5) 
{"is_sidechain": [false], "free_energy": -8.925, "intermolecular_energy": -11.309, "internal_energy": 0.245}

$$$$
cand_005_out
     RDKit          3D

 36 38  0  0  0  0  0  0  0  0999 V2000
   51.5840  152.1200   27.6700 C   0  0  0  0  0  0  0  0  0  0  0  0
   52.5090  152.9420   28.1780 C   0  0  0  0  0  0  0  0  0  0  0  0
   52.5800  154.3660   27.8280 C   0  0  0  0  0  0  0  0  0  0  0  0
   51.9580  155.3030   28.6740 C   0  0  0  0  0  0  0  0  0  0  0  0
   51.9730  156.6770   28.3860 C   0  0  0  0  0  0  0  0  0  0  0  0
   51.3300  157.6290   29.3160 C   0  0  0  0  0  0  0  0  0  0  0  0
   52.1140  158.7470   29.5740 O   0  0  0  0  0  0  0  0  0  0  0  0
   51.6340  159.7100   30.4240 C   0  0  0  0  0  0  0  0  0  0  0  0
   52.4480  160.8230   30.6440 C   0  0  0  0  0  0  0  0  0  0  0  0
   52.0200  161.8400   31.5000 C   0  0  0  0  0  0  0  0  0  0  0  0
   50.7800  161.7460   32.1360 C   0  0  0  0  0  0  0  0  0  0  0  0
   49.9710  160.6330   31.9150 C   0  0  0  0  0  0  0  0  0  0  0  0
   48.7710  160.6050   32.5700 O   0  0  0  0  0  0  0  0  0  0  0  0
   50.3990  159.6170   31.0580 C   0  0  0  0  0  0  0  0  0  0  0  0
   49.5790  158.4320   30.7990 C   0  0  0  0  0  0  0  0  0  0  0  0
   48.4800  158.2720   31.3250 O   0  0  0  0  0  0  0  0  0  0  0  0
   50.1210  157.4150   29.8680 C   0  0  0  0  0  0  0  0  0  0  0  0
   49.3460  156.2930   29.6410 O   0  0  0  0  0  0  0  0  0  0  0  0
   52.6380  157.1060   27.2340 C   0  0  0  0  0  0  0  0  0  0  0  0
   53.2560  156.1870   26.3820 C   0  0  0  0  0  0  0  0  0  0  0  0
   53.2330  154.8090   26.6630 C   0  0  0  0  0  0  0  0  0  0  0  0
   53.9200  153.8450   25.7250 C   0  0  0  0  0  0  0  0  0  0  0  0
   54.5810  152.8460   26.3740 F   0  0  0  0  0  0  0  0  0  0  0  0
   54.8580  154.4420   24.9320 F   0  0  0  0  0  0  0  0  0  0  0  0
   53.0590  153.2340   24.8620 F   0  0  0  0  0  0  0  0  0  0  0  0
   51.5705  151.0596   27.9622 H   0  0  0  0  0  0  0  0  0  0  0  0
   50.8369  152.5044   26.9600 H   0  0  0  0  0  0  0  0  0  0  0  0
   53.2457  152.5348   28.8861 H   0  0  0  0  0  0  0  0  0  0  0  0
   51.4479  154.9504   29.5826 H   0  0  0  0  0  0  0  0  0  0  0  0
   53.4248  160.8986   30.1439 H   0  0  0  0  0  0  0  0  0  0  0  0
   52.6608  162.7170   31.6738 H   0  0  0  0  0  0  0  0  0  0  0  0
   50.4431  162.5480   32.8092 H   0  0  0  0  0  0  0  0  0  0  0  0
   48.5320  159.8560   33.0800 H   0  0  0  0  0  0  0  0  0  0  0  0
   48.8220  155.9360   30.3310 H   0  0  0  0  0  0  0  0  0  0  0  0
   52.6753  158.1792   26.9954 H   0  0  0  0  0  0  0  0  0  0  0  0
   53.7684  156.5467   25.4776 H   0  0  0  0  0  0  0  0  0  0  0  0
  1  2  2  0
  2  3  1  0
  3  4  2  0
  4  5  1  0
  5  6  1  0
  6  7  1  0
  7  8  1  0
  8  9  2  0
  9 10  1  0
 10 11  2  0
 11 12  1  0
 12 13  1  0
 12 14  2  0
 14 15  1  0
 15 16  2  0
 15 17  1  0
 17 18  1  0
  5 19  2  0
 19 20  1  0
 20 21  2  0
 21 22  1  0
 22 23  1  0
 22 24  1  0
 22 25  1  0
 21  3  1  0
 17  6  2  0
 14  8  1  0
  1 26  1  0
  1 27  1  0
  2 28  1  0
  4 29  1  0
  9 30  1  0
 10 31  1  0
 11 32  1  0
 13 33  1  0
 18 34  1  0
 19 35  1  0
 20 36  1  0
M  END
>  <meeko>  (6) 
{"is_sidechain": [false], "free_energy": -8.493, "intermolecular_energy": -10.453, "internal_energy": -0.078}

$$$$
cand_005_out
     RDKit          3D

 36 38  0  0  0  0  0  0  0  0999 V2000
   47.9180  158.6820   30.0610 C   0  0  0  0  0  0  0  0  0  0  0  0
   48.9290  158.0140   30.6290 C   0  0  0  0  0  0  0  0  0  0  0  0
   50.2830  157.9990   30.0620 C   0  0  0  0  0  0  0  0  0  0  0  0
   50.6680  156.9110   29.2570 C   0  0  0  0  0  0  0  0  0  0  0  0
   51.9530  156.8260   28.7000 C   0  0  0  0  0  0  0  0  0  0  0  0
   52.3070  155.6780   27.8400 C   0  0  0  0  0  0  0  0  0  0  0  0
   51.8190  154.4690   28.3230 O   0  0  0  0  0  0  0  0  0  0  0  0
   52.0780  153.3210   27.6190 C   0  0  0  0  0  0  0  0  0  0  0  0
   51.5580  152.1320   28.1320 C   0  0  0  0  0  0  0  0  0  0  0  0
   51.7860  150.9270   27.4650 C   0  0  0  0  0  0  0  0  0  0  0  0
   52.5330  150.9090   26.2860 C   0  0  0  0  0  0  0  0  0  0  0  0
   53.0520  152.0980   25.7760 C   0  0  0  0  0  0  0  0  0  0  0  0
   53.7740  152.0080   24.6180 O   0  0  0  0  0  0  0  0  0  0  0  0
   52.8220  153.3030   26.4440 C   0  0  0  0  0  0  0  0  0  0  0  0
   53.3490  154.5740   25.9410 C   0  0  0  0  0  0  0  0  0  0  0  0
   54.0210  154.6400   24.9140 O   0  0  0  0  0  0  0  0  0  0  0  0
   53.0430  155.7960   26.7200 C   0  0  0  0  0  0  0  0  0  0  0  0
   53.5570  156.9890   26.2460 O   0  0  0  0  0  0  0  0  0  0  0  0
   52.8550  157.8650   28.9510 C   0  0  0  0  0  0  0  0  0  0  0  0
   52.4880  158.9500   29.7530 C   0  0  0  0  0  0  0  0  0  0  0  0
   51.2040  159.0310   30.3200 C   0  0  0  0  0  0  0  0  0  0  0  0
   50.8390  160.2240   31.1720 C   0  0  0  0  0  0  0  0  0  0  0  0
   50.0410  161.1190   30.5260 F   0  0  0  0  0  0  0  0  0  0  0  0
   51.9250  160.9410   31.5860 F   0  0  0  0  0  0  0  0  0  0  0  0
   50.1800  159.8820   32.3160 F   0  0  0  0  0  0  0  0  0  0  0  0
   46.9194  158.6646   30.5221 H   0  0  0  0  0  0  0  0  0  0  0  0
   48.0856  159.2484   29.1331 H   0  0  0  0  0  0  0  0  0  0  0  0
   48.7380  157.4545   31.5566 H   0  0  0  0  0  0  0  0  0  0  0  0
   49.9436  156.1071   29.0595 H   0  0  0  0  0  0  0  0  0  0  0  0
   50.9691  152.1442   29.0610 H   0  0  0  0  0  0  0  0  0  0  0  0
   51.3761  149.9897   27.8694 H   0  0  0  0  0  0  0  0  0  0  0  0
   52.7116  149.9592   25.7608 H   0  0  0  0  0  0  0  0  0  0  0  0
   54.4590  151.3750   24.5410 H   0  0  0  0  0  0  0  0  0  0  0  0
   54.1000  157.5190   26.7970 H   0  0  0  0  0  0  0  0  0  0  0  0
   53.8634  157.8282   28.5130 H   0  0  0  0  0  0  0  0  0  0  0  0
   53.2154  159.7529   29.9433 H   0  0  0  0  0  0  0  0  0  0  0  0
  1  2  2  0
  2  3  1  0
  3  4  2  0
  4  5  1  0
  5  6  1  0
  6  7  1  0
  7  8  1  0
  8  9  2  0
  9 10  1  0
 10 11  2  0
 11 12  1  0
 12 13  1  0
 12 14  2  0
 14 15  1  0
 15 16  2  0
 15 17  1  0
 17 18  1  0
  5 19  2  0
 19 20  1  0
 20 21  2  0
 21 22  1  0
 22 23  1  0
 22 24  1  0
 22 25  1  0
 21  3  1  0
 17  6  2  0
 14  8  1  0
  1 26  1  0
  1 27  1  0
  2 28  1  0
  4 29  1  0
  9 30  1  0
 10 31  1  0
 11 32  1  0
 13 33  1  0
 18 34  1  0
 19 35  1  0
 20 36  1  0
M  END
>  <meeko>  (7) 
{"is_sidechain": [false], "free_energy": -8.307, "intermolecular_energy": -10.203, "internal_energy": -0.099}

$$$$
cand_005_out
     RDKit          3D

 36 38  0  0  0  0  0  0  0  0999 V2000
   52.2370  160.6890   31.3240 C   0  0  0  0  0  0  0  0  0  0  0  0
   51.4420  160.3710   30.2960 C   0  0  0  0  0  0  0  0  0  0  0  0
   50.8880  159.0240   30.1120 C   0  0  0  0  0  0  0  0  0  0  0  0
   51.5420  158.1360   29.2380 C   0  0  0  0  0  0  0  0  0  0  0  0
   51.0530  156.8410   29.0040 C   0  0  0  0  0  0  0  0  0  0  0  0
   51.7860  155.9320   28.0980 C   0  0  0  0  0  0  0  0  0  0  0  0
   51.3870  154.6070   28.2220 O   0  0  0  0  0  0  0  0  0  0  0  0
   51.9900  153.6570   27.4370 C   0  0  0  0  0  0  0  0  0  0  0  0
   51.5510  152.3410   27.5850 C   0  0  0  0  0  0  0  0  0  0  0  0
   52.1240  151.3250   26.8180 C   0  0  0  0  0  0  0  0  0  0  0  0
   53.1360  151.6240   25.9030 C   0  0  0  0  0  0  0  0  0  0  0  0
   53.5740  152.9390   25.7590 C   0  0  0  0  0  0  0  0  0  0  0  0
   54.5680  153.1610   24.8460 O   0  0  0  0  0  0  0  0  0  0  0  0
   52.9990  153.9550   26.5260 C   0  0  0  0  0  0  0  0  0  0  0  0
   53.4290  155.3490   26.4040 C   0  0  0  0  0  0  0  0  0  0  0  0
   54.3180  155.6910   25.6280 O   0  0  0  0  0  0  0  0  0  0  0  0
   52.7520  156.3510   27.2590 C   0  0  0  0  0  0  0  0  0  0  0  0
   53.1750  157.6620   27.1480 O   0  0  0  0  0  0  0  0  0  0  0  0
   49.8950  156.4370   29.6760 C   0  0  0  0  0  0  0  0  0  0  0  0
   49.2330  157.3100   30.5440 C   0  0  0  0  0  0  0  0  0  0  0  0
   49.7150  158.6120   30.7710 C   0  0  0  0  0  0  0  0  0  0  0  0
   48.9790  159.5240   31.7240 C   0  0  0  0  0  0  0  0  0  0  0  0
   49.6000  159.6520   32.9290 F   0  0  0  0  0  0  0  0  0  0  0  0
   47.7160  159.0930   32.0130 F   0  0  0  0  0  0  0  0  0  0  0  0
   48.8230  160.7890   31.2390 F   0  0  0  0  0  0  0  0  0  0  0  0
   52.6286  161.7124   31.4204 H   0  0  0  0  0  0  0  0  0  0  0  0
   52.4990  159.9270   32.0728 H   0  0  0  0  0  0  0  0  0  0  0  0
   51.1937  161.1495   29.5596 H   0  0  0  0  0  0  0  0  0  0  0  0
   52.4584  158.4644   28.7258 H   0  0  0  0  0  0  0  0  0  0  0  0
   50.7541  152.1042   28.3054 H   0  0  0  0  0  0  0  0  0  0  0  0
   51.7779  150.2874   26.9344 H   0  0  0  0  0  0  0  0  0  0  0  0
   53.5861  150.8235   25.2976 H   0  0  0  0  0  0  0  0  0  0  0  0
   55.3410  152.6320   24.8570 H   0  0  0  0  0  0  0  0  0  0  0  0
   53.4730  158.1260   27.9060 H   0  0  0  0  0  0  0  0  0  0  0  0
   49.5011  155.4219   29.5199 H   0  0  0  0  0  0  0  0  0  0  0  0
   48.3205  156.9735   31.0579 H   0  0  0  0  0  0  0  0  0  0  0  0
  1  2  2  0
  2  3  1  0
  3  4  2  0
  4  5  1  0
  5  6  1  0
  6  7  1  0
  7  8  1  0
  8  9  2  0
  9 10  1  0
 10 11  2  0
 11 12  1  0
 12 13  1  0
 12 14  2  0
 14 15  1  0
 15 16  2  0
 15 17  1  0
 17 18  1  0
  5 19  2  0
 19 20  1  0
 20 21  2  0
 21 22  1  0
 22 23  1  0
 22 24  1  0
 22 25  1  0
 21  3  1  0
 17  6  2  0
 14  8  1  0
  1 26  1  0
  1 27  1  0
  2 28  1  0
  4 29  1  0
  9 30  1  0
 10 31  1  0
 11 32  1  0
 13 33  1  0
 18 34  1  0
 19 35  1  0
 20 36  1  0
M  END
>  <meeko>  (8) 
{"is_sidechain": [false], "free_energy": -8.089, "intermolecular_energy": -10.235, "internal_energy": 0.202}

$$$$
