rasagiline_out
     RDKit          3D

 27 28  0  0  0  0  0  0  0  0999 V2000
   36.1050   29.3110  -17.3790 C   0  0  0  0  0  0  0  0  0  0  0  0
   36.8290   29.1750  -16.4300 C   0  0  0  0  0  0  0  0  0  0  0  0
   37.7150   29.0110  -15.2710 C   0  0  0  0  0  0  0  0  0  0  0  0
   38.6840   27.9590  -15.5480 N   0  0  0  0  0  0  0  0  0  0  0  0
   39.1940   27.3390  -14.3310 C   0  0  2  0  0  0  0  0  0  0  0  0
   39.4320   28.3280  -13.1670 C   0  0  0  0  0  0  0  0  0  0  0  0
   40.5440   27.7160  -12.3030 C   0  0  0  0  0  0  0  0  0  0  0  0
   41.3450   26.9930  -13.3400 C   0  0  0  0  0  0  0  0  0  0  0  0
   42.6430   26.5220  -13.2370 C   0  0  0  0  0  0  0  0  0  0  0  0
   43.1860   25.8360  -14.3260 C   0  0  0  0  0  0  0  0  0  0  0  0
   42.4280   25.6210  -15.4880 C   0  0  0  0  0  0  0  0  0  0  0  0
   41.1150   26.0880  -15.5760 C   0  0  0  0  0  0  0  0  0  0  0  0
   40.5850   26.7830  -14.4990 C   0  0  0  0  0  0  0  0  0  0  0  0
   35.4421   29.4355  -18.2479 H   0  0  0  0  0  0  0  0  0  0  0  0
   38.2442   29.9556  -15.0770 H   0  0  0  0  0  0  0  0  0  0  0  0
   37.1184   28.7380  -14.3881 H   0  0  0  0  0  0  0  0  0  0  0  0
   39.4660   28.3630  -16.0630 H   0  0  0  0  0  0  0  0  0  0  0  0
   38.2120   27.2360  -16.0920 H   0  0  0  0  0  0  0  0  0  0  0  0
   38.4138   26.5918  -14.1236 H   0  0  0  0  0  0  0  0  0  0  0  0
   39.7478   29.3068  -13.5572 H   0  0  0  0  0  0  0  0  0  0  0  0
   38.5135   28.4872  -12.5831 H   0  0  0  0  0  0  0  0  0  0  0  0
   41.1397   28.4928  -11.8013 H   0  0  0  0  0  0  0  0  0  0  0  0
   40.1824   27.0783  -11.4829 H   0  0  0  0  0  0  0  0  0  0  0  0
   43.2312   26.6838  -12.3216 H   0  0  0  0  0  0  0  0  0  0  0  0
   44.2185   25.4603  -14.2725 H   0  0  0  0  0  0  0  0  0  0  0  0
   42.8723   25.0800  -16.3365 H   0  0  0  0  0  0  0  0  0  0  0  0
   40.5141   25.9086  -16.4797 H   0  0  0  0  0  0  0  0  0  0  0  0
  1  2  3  0
  2  3  1  0
  3  4  1  0
  4  5  1  0
  5  6  1  0
  6  7  1  0
  7  8  1  0
  8  9  2  0
  9 10  1  0
 10 11  2  0
 11 12  1  0
 12 13  2  0
 13  5  1  0
 13  8  1  0
  1 14  1  0
  3 15  1  0
  3 16  1  0
  4 17  1  0
  4 18  1  0
  5 19  1  1
  6 20  1  0
  6 21  1  0
  7 22  1  0
  7 23  1  0
  9 24  1  0
 10 25  1  0
 11 26  1  0
 12 27  1  0
M  CHG  1   4   1
M  END
>  <meeko>  (1) 
{"is_sidechain": [false], "free_energy": -8.065, "intermolecular_energy": -9.008, "internal_energy": -0.163}

$$$$
rasagiline_out
     RDKit          3D

 27 28  0  0  0  0  0  0  0  0999 V2000
   36.9950   29.1920  -16.9640 C   0  0  0  0  0  0  0  0  0  0  0  0
   37.5730   28.1440  -16.8550 C   0  0  0  0  0  0  0  0  0  0  0  0
   38.2790   26.8640  -16.7200 C   0  0  0  0  0  0  0  0  0  0  0  0
   39.6240   27.1030  -16.2140 N   0  0  0  0  0  0  0  0  0  0  0  0
   39.7400   26.8190  -14.7890 C   0  0  2  0  0  0  0  0  0  0  0  0
   39.3840   28.0120  -13.8730 C   0  0  0  0  0  0  0  0  0  0  0  0
   40.1810   27.8110  -12.5760 C   0  0  0  0  0  0  0  0  0  0  0  0
   41.4050   27.1250  -13.0970 C   0  0  0  0  0  0  0  0  0  0  0  0
   42.6300   26.9770  -12.4680 C   0  0  0  0  0  0  0  0  0  0  0  0
   43.6300   26.2610  -13.1300 C   0  0  0  0  0  0  0  0  0  0  0  0
   43.3910   25.6970  -14.3930 C   0  0  0  0  0  0  0  0  0  0  0  0
   42.1480   25.8400  -15.0110 C   0  0  0  0  0  0  0  0  0  0  0  0
   41.1620   26.5650  -14.3580 C   0  0  0  0  0  0  0  0  0  0  0  0
   36.4659   30.1512  -17.0638 H   0  0  0  0  0  0  0  0  0  0  0  0
   37.7329   26.2161  -16.0185 H   0  0  0  0  0  0  0  0  0  0  0  0
   38.3385   26.3724  -17.7022 H   0  0  0  0  0  0  0  0  0  0  0  0
   39.8630   28.0820  -16.3730 H   0  0  0  0  0  0  0  0  0  0  0  0
   40.2590   26.4780  -16.7100 H   0  0  0  0  0  0  0  0  0  0  0  0
   39.0594   25.9614  -14.6826 H   0  0  0  0  0  0  0  0  0  0  0  0
   39.6699   28.9596  -14.3530 H   0  0  0  0  0  0  0  0  0  0  0  0
   38.3028   28.0563  -13.6756 H   0  0  0  0  0  0  0  0  0  0  0  0
   40.4278   28.7717  -12.1004 H   0  0  0  0  0  0  0  0  0  0  0  0
   39.6444   27.2510  -11.7960 H   0  0  0  0  0  0  0  0  0  0  0  0
   42.8105   27.4117  -11.4738 H   0  0  0  0  0  0  0  0  0  0  0  0
   44.6153   26.1378  -12.6566 H   0  0  0  0  0  0  0  0  0  0  0  0
   44.1907   25.1373  -14.9002 H   0  0  0  0  0  0  0  0  0  0  0  0
   41.9543   25.3876  -15.9947 H   0  0  0  0  0  0  0  0  0  0  0  0
  1  2  3  0
  2  3  1  0
  3  4  1  0
  4  5  1  0
  5  6  1  0
  6  7  1  0
  7  8  1  0
  8  9  2  0
  9 10  1  0
 10 11  2  0
 11 12  1  0
 12 13  2  0
 13  5  1  0
 13  8  1  0
  1 14  1  0
  3 15  1  0
  3 16  1  0
  4 17  1  0
  4 18  1  0
  5 19  1  1
  6 20  1  0
  6 21  1  0
  7 22  1  0
  7 23  1  0
  9 24  1  0
 10 25  1  0
 11 26  1  0
 12 27  1  0
M  CHG  1   4   1
M  END
>  <meeko>  (2) 
{"is_sidechain": [false], "free_energy": -7.997, "intermolecular_energy": -8.917, "internal_energy": -0.178}

$$$$
rasagiline_out
     RDKit          3D

 27 28  0  0  0  0  0  0  0  0999 V2000
   36.8560   29.1710  -16.6920 C   0  0  0  0  0  0  0  0  0  0  0  0
   37.3500   28.2310  -17.2540 C   0  0  0  0  0  0  0  0  0  0  0  0
   37.9520   27.0810  -17.9410 C   0  0  0  0  0  0  0  0  0  0  0  0
   38.5590   26.1940  -16.9580 N   0  0  0  0  0  0  0  0  0  0  0  0
   39.9120   26.6030  -16.6010 C   0  0  2  0  0  0  0  0  0  0  0  0
   40.9860   25.5170  -16.8420 C   0  0  0  0  0  0  0  0  0  0  0  0
   42.1140   25.7970  -15.8380 C   0  0  0  0  0  0  0  0  0  0  0  0
   41.3390   26.3720  -14.6940 C   0  0  0  0  0  0  0  0  0  0  0  0
   41.7470   26.5170  -13.3780 C   0  0  0  0  0  0  0  0  0  0  0  0
   40.8670   27.1200  -12.4760 C   0  0  0  0  0  0  0  0  0  0  0  0
   39.6080   27.5770  -12.8990 C   0  0  0  0  0  0  0  0  0  0  0  0
   39.2130   27.4380  -14.2310 C   0  0  0  0  0  0  0  0  0  0  0  0
   40.0830   26.8250  -15.1200 C   0  0  0  0  0  0  0  0  0  0  0  0
   36.4037   30.0316  -16.1775 H   0  0  0  0  0  0  0  0  0  0  0  0
   37.1738   26.5363  -18.4958 H   0  0  0  0  0  0  0  0  0  0  0  0
   38.7221   27.4339  -18.6427 H   0  0  0  0  0  0  0  0  0  0  0  0
   38.5930   25.2510  -17.3450 H   0  0  0  0  0  0  0  0  0  0  0  0
   37.9890   26.2300  -16.1120 H   0  0  0  0  0  0  0  0  0  0  0  0
   40.0408   27.4995  -17.2252 H   0  0  0  0  0  0  0  0  0  0  0  0
   40.5619   24.5168  -16.6694 H   0  0  0  0  0  0  0  0  0  0  0  0
   41.3563   25.5434  -17.8774 H   0  0  0  0  0  0  0  0  0  0  0  0
   42.6364   24.8732  -15.5487 H   0  0  0  0  0  0  0  0  0  0  0  0
   42.9111   26.4511  -16.2211 H   0  0  0  0  0  0  0  0  0  0  0  0
   42.7375   26.1667  -13.0520 H   0  0  0  0  0  0  0  0  0  0  0  0
   41.1632   27.2382  -11.4233 H   0  0  0  0  0  0  0  0  0  0  0  0
   38.9274   28.0484  -12.1747 H   0  0  0  0  0  0  0  0  0  0  0  0
   38.2329   27.8068  -14.5679 H   0  0  0  0  0  0  0  0  0  0  0  0
  1  2  3  0
  2  3  1  0
  3  4  1  0
  4  5  1  0
  5  6  1  0
  6  7  1  0
  7  8  1  0
  8  9  2  0
  9 10  1  0
 10 11  2  0
 11 12  1  0
 12 13  2  0
 13  5  1  0
 13  8  1  0
  1 14  1  0
  3 15  1  0
  3 16  1  0
  4 17  1  0
  4 18  1  0
  5 19  1  6
  6 20  1  0
  6 21  1  0
  7 22  1  0
  7 23  1  0
  9 24  1  0
 10 25  1  0
 11 26  1  0
 12 27  1  0
M  CHG  1   4   1
M  END
>  <meeko>  (3) 
{"is_sidechain": [false], "free_energy": -7.675, "intermolecular_energy": -8.314, "internal_energy": -0.421}

$$$$
rasagiline_out
     RDKit          3D

 27 28  0  0  0  0  0  0  0  0999 V2000
   43.4640   26.9700  -12.6890 C   0  0  0  0  0  0  0  0  0  0  0  0
   42.2710   26.9640  -12.5470 C   0  0  0  0  0  0  0  0  0  0  0  0
   40.8120   26.9540  -12.3750 C   0  0  0  0  0  0  0  0  0  0  0  0
   40.1970   27.7650  -13.4170 N   0  0  0  0  0  0  0  0  0  0  0  0
   39.5220   26.9560  -14.4260 C   0  0  2  0  0  0  0  0  0  0  0  0
   40.4540   26.4230  -15.5370 C   0  0  0  0  0  0  0  0  0  0  0  0
   39.5760   26.2370  -16.7830 C   0  0  0  0  0  0  0  0  0  0  0  0
   38.5740   27.3330  -16.5910 C   0  0  0  0  0  0  0  0  0  0  0  0
   37.7240   27.8830  -17.5340 C   0  0  0  0  0  0  0  0  0  0  0  0
   36.8360   28.8810  -17.1230 C   0  0  0  0  0  0  0  0  0  0  0  0
   36.8020   29.3020  -15.7840 C   0  0  0  0  0  0  0  0  0  0  0  0
   37.6550   28.7300  -14.8380 C   0  0  0  0  0  0  0  0  0  0  0  0
   38.5460   27.7510  -15.2530 C   0  0  0  0  0  0  0  0  0  0  0  0
   44.5563   26.9755  -12.8190 H   0  0  0  0  0  0  0  0  0  0  0  0
   40.4410   25.9210  -12.4469 H   0  0  0  0  0  0  0  0  0  0  0  0
   40.5553   27.3668  -11.3882 H   0  0  0  0  0  0  0  0  0  0  0  0
   40.9230   28.3170  -13.8730 H   0  0  0  0  0  0  0  0  0  0  0  0
   39.4970   28.3610  -12.9760 H   0  0  0  0  0  0  0  0  0  0  0  0
   39.0735   26.1647  -13.8073 H   0  0  0  0  0  0  0  0  0  0  0  0
   41.2564   27.1472  -15.7411 H   0  0  0  0  0  0  0  0  0  0  0  0
   40.9314   25.4777  -15.2393 H   0  0  0  0  0  0  0  0  0  0  0  0
   40.1537   26.3751  -17.7088 H   0  0  0  0  0  0  0  0  0  0  0  0
   39.1373   25.2333  -16.8835 H   0  0  0  0  0  0  0  0  0  0  0  0
   37.7465   27.5436  -18.5801 H   0  0  0  0  0  0  0  0  0  0  0  0
   36.1570   29.3412  -17.8559 H   0  0  0  0  0  0  0  0  0  0  0  0
   36.0974   30.0892  -15.4776 H   0  0  0  0  0  0  0  0  0  0  0  0
   37.6212   29.0490  -13.7858 H   0  0  0  0  0  0  0  0  0  0  0  0
  1  2  3  0
  2  3  1  0
  3  4  1  0
  4  5  1  0
  5  6  1  0
  6  7  1  0
  7  8  1  0
  8  9  2  0
  9 10  1  0
 10 11  2  0
 11 12  1  0
 12 13  2  0
 13  5  1  0
 13  8  1  0
  1 14  1  0
  3 15  1  0
  3 16  1  0
  4 17  1  0
  4 18  1  0
  5 19  1  1
  6 20  1  0
  6 21  1  0
  7 22  1  0
  7 23  1  0
  9 24  1  0
 10 25  1  0
 11 26  1  0
 12 27  1  0
M  CHG  1   4   1
M  END
>  <meeko>  (4) 
{"is_sidechain": [false], "free_energy": -7.583, "intermolecular_energy": -8.442, "internal_energy": -0.191}

$$$$
rasagiline_out
     RDKit          3D

 27 28  0  0  0  0  0  0  0  0999 V2000
   43.9740   27.2430  -13.4140 C   0  0  0  0  0  0  0  0  0  0  0  0
   43.2200   26.4440  -13.9010 C   0  0  0  0  0  0  0  0  0  0  0  0
   42.2980   25.4700  -14.4970 C   0  0  0  0  0  0  0  0  0  0  0  0
   40.9480   25.7200  -14.0110 N   0  0  0  0  0  0  0  0  0  0  0  0
   40.5460   27.1120  -14.1770 C   0  0  2  0  0  0  0  0  0  0  0  0
   39.8220   27.7130  -12.9510 C   0  0  0  0  0  0  0  0  0  0  0  0
   38.9050   28.8200  -13.4920 C   0  0  0  0  0  0  0  0  0  0  0  0
   38.5580   28.2680  -14.8390 C   0  0  0  0  0  0  0  0  0  0  0  0
   37.5150   28.6430  -15.6690 C   0  0  0  0  0  0  0  0  0  0  0  0
   37.3990   28.0140  -16.9110 C   0  0  0  0  0  0  0  0  0  0  0  0
   38.3240   27.0360  -17.3080 C   0  0  0  0  0  0  0  0  0  0  0  0
   39.3800   26.6750  -16.4690 C   0  0  0  0  0  0  0  0  0  0  0  0
   39.4830   27.2900  -15.2300 C   0  0  0  0  0  0  0  0  0  0  0  0
   44.6642   27.9744  -12.9682 H   0  0  0  0  0  0  0  0  0  0  0  0
   42.3177   25.5689  -15.5924 H   0  0  0  0  0  0  0  0  0  0  0  0
   42.6068   24.4525  -14.2155 H   0  0  0  0  0  0  0  0  0  0  0  0
   40.9090   25.4850  -13.0190 H   0  0  0  0  0  0  0  0  0  0  0  0
   40.3080   25.1430  -14.5570 H   0  0  0  0  0  0  0  0  0  0  0  0
   41.5101   27.5922  -14.4005 H   0  0  0  0  0  0  0  0  0  0  0  0
   39.2269   26.9397  -12.4432 H   0  0  0  0  0  0  0  0  0  0  0  0
   40.5395   28.1107  -12.2182 H   0  0  0  0  0  0  0  0  0  0  0  0
   38.0106   28.9467  -12.8644 H   0  0  0  0  0  0  0  0  0  0  0  0
   39.3644   29.8192  -13.5153 H   0  0  0  0  0  0  0  0  0  0  0  0
   36.7966   29.4160  -15.3585 H   0  0  0  0  0  0  0  0  0  0  0  0
   36.5740   28.2882  -17.5849 H   0  0  0  0  0  0  0  0  0  0  0  0
   38.2161   26.5496  -18.2887 H   0  0  0  0  0  0  0  0  0  0  0  0
   40.1145   25.9191  -16.7838 H   0  0  0  0  0  0  0  0  0  0  0  0
  1  2  3  0
  2  3  1  0
  3  4  1  0
  4  5  1  0
  5  6  1  0
  6  7  1  0
  7  8  1  0
  8  9  2  0
  9 10  1  0
 10 11  2  0
 11 12  1  0
 12 13  2  0
 13  5  1  0
 13  8  1  0
  1 14  1  0
  3 15  1  0
  3 16  1  0
  4 17  1  0
  4 18  1  0
  5 19  1  6
  6 20  1  0
  6 21  1  0
  7 22  1  0
  7 23  1  0
  9 24  1  0
 10 25  1  0
 11 26  1  0
 12 27  1  0
M  CHG  1   4   1
M  END
>  <meeko>  (5) 
{"is_sidechain": [false], "free_energy": -7.299, "intermolecular_energy": -8.014, "internal_energy": -0.302}

$$$$
rasagiline_out
     RDKit          3D

 27 28  0  0  0  0  0  0  0  0999 V2000
   47.8650   26.2180  -14.5960 C   0  0  0  0  0  0  0  0  0  0  0  0
   46.9610   25.5930  -14.1120 C   0  0  0  0  0  0  0  0  0  0  0  0
   45.8560   24.8270  -13.5230 C   0  0  0  0  0  0  0  0  0  0  0  0
   44.6620   24.9930  -14.3400 N   0  0  0  0  0  0  0  0  0  0  0  0
   43.9220   26.2040  -14.0050 C   0  0  2  0  0  0  0  0  0  0  0  0
   43.5840   26.3450  -12.5030 C   0  0  0  0  0  0  0  0  0  0  0  0
   42.3080   27.1950  -12.4270 C   0  0  0  0  0  0  0  0  0  0  0  0
   41.6240   26.7950  -13.6970 C   0  0  0  0  0  0  0  0  0  0  0  0
   40.2930   26.9690  -14.0380 C   0  0  0  0  0  0  0  0  0  0  0  0
   39.8740   26.5500  -15.3030 C   0  0  0  0  0  0  0  0  0  0  0  0
   40.7840   25.9790  -16.2060 C   0  0  0  0  0  0  0  0  0  0  0  0
   42.1270   25.8210  -15.8570 C   0  0  0  0  0  0  0  0  0  0  0  0
   42.5360   26.2240  -14.5950 C   0  0  0  0  0  0  0  0  0  0  0  0
   48.6931   26.7905  -15.0393 H   0  0  0  0  0  0  0  0  0  0  0  0
   46.1282   23.7619  -13.4832 H   0  0  0  0  0  0  0  0  0  0  0  0
   45.6578   25.1925  -12.5046 H   0  0  0  0  0  0  0  0  0  0  0  0
   44.0530   24.1880  -14.1970 H   0  0  0  0  0  0  0  0  0  0  0  0
   44.9580   25.0690  -15.3130 H   0  0  0  0  0  0  0  0  0  0  0  0
   44.6002   26.9841  -14.3812 H   0  0  0  0  0  0  0  0  0  0  0  0
   43.4092   25.3547  -12.0573 H   0  0  0  0  0  0  0  0  0  0  0  0
   44.4107   26.8141  -11.9493 H   0  0  0  0  0  0  0  0  0  0  0  0
   41.7036   26.9388  -11.5444 H   0  0  0  0  0  0  0  0  0  0  0  0
   42.4876   28.2758  -12.3290 H   0  0  0  0  0  0  0  0  0  0  0  0
   39.5843   27.4252  -13.3312 H   0  0  0  0  0  0  0  0  0  0  0  0
   38.8200   26.6688  -15.5943 H   0  0  0  0  0  0  0  0  0  0  0  0
   40.4364   25.6530  -17.1974 H   0  0  0  0  0  0  0  0  0  0  0  0
   42.8449   25.3862  -16.5681 H   0  0  0  0  0  0  0  0  0  0  0  0
  1  2  3  0
  2  3  1  0
  3  4  1  0
  4  5  1  0
  5  6  1  0
  6  7  1  0
  7  8  1  0
  8  9  2  0
  9 10  1  0
 10 11  2  0
 11 12  1  0
 12 13  2  0
 13  5  1  0
 13  8  1  0
  1 14  1  0
  3 15  1  0
  3 16  1  0
  4 17  1  0
  4 18  1  0
  5 19  1  6
  6 20  1  0
  6 21  1  0
  7 22  1  0
  7 23  1  0
  9 24  1  0
 10 25  1  0
 11 26  1  0
 12 27  1  0
M  CHG  1   4   1
M  END
>  <meeko>  (6) 
{"is_sidechain": [false], "free_energy": -7.075, "intermolecular_energy": -7.816, "internal_energy": -0.25}

$$$$
rasagiline_out
     RDKit          3D

 27 28  0  0  0  0  0  0  0  0999 V2000
   46.9400   25.3310  -13.9460 C   0  0  0  0  0  0  0  0  0  0  0  0
   45.7730   25.0660  -14.0400 C   0  0  0  0  0  0  0  0  0  0  0  0
   44.3450   24.7410  -14.1570 C   0  0  0  0  0  0  0  0  0  0  0  0
   43.6730   25.7840  -14.9200 N   0  0  0  0  0  0  0  0  0  0  0  0
   42.2450   25.5300  -15.0710 C   0  0  2  0  0  0  0  0  0  0  0  0
   41.6960   25.8220  -16.4860 C   0  0  0  0  0  0  0  0  0  0  0  0
   40.2140   26.1790  -16.3080 C   0  0  0  0  0  0  0  0  0  0  0  0
   40.2380   26.8290  -14.9590 C   0  0  0  0  0  0  0  0  0  0  0  0
   39.2760   27.6460  -14.3910 C   0  0  0  0  0  0  0  0  0  0  0  0
   39.4900   28.1160  -13.0930 C   0  0  0  0  0  0  0  0  0  0  0  0
   40.6470   27.7570  -12.3830 C   0  0  0  0  0  0  0  0  0  0  0  0
   41.6040   26.9210  -12.9600 C   0  0  0  0  0  0  0  0  0  0  0  0
   41.3950   26.4690  -14.2550 C   0  0  0  0  0  0  0  0  0  0  0  0
   48.0094   25.5738  -13.8599 H   0  0  0  0  0  0  0  0  0  0  0  0
   44.2291   23.7764  -14.6728 H   0  0  0  0  0  0  0  0  0  0  0  0
   43.8996   24.6747  -13.1534 H   0  0  0  0  0  0  0  0  0  0  0  0
   44.0960   25.8360  -15.8460 H   0  0  0  0  0  0  0  0  0  0  0  0
   43.7810   26.6610  -14.4100 H   0  0  0  0  0  0  0  0  0  0  0  0
   42.1807   24.4709  -14.7807 H   0  0  0  0  0  0  0  0  0  0  0  0
   42.2390   26.6647  -16.9388 H   0  0  0  0  0  0  0  0  0  0  0  0
   41.8211   24.9542  -17.1503 H   0  0  0  0  0  0  0  0  0  0  0  0
   39.8698   26.8759  -17.0864 H   0  0  0  0  0  0  0  0  0  0  0  0
   39.5281   25.3227  -16.3871 H   0  0  0  0  0  0  0  0  0  0  0  0
   38.3667   27.9181  -14.9471 H   0  0  0  0  0  0  0  0  0  0  0  0
   38.7446   28.7740  -12.6224 H   0  0  0  0  0  0  0  0  0  0  0  0
   40.8005   28.1382  -11.3626 H   0  0  0  0  0  0  0  0  0  0  0  0
   42.5042   26.6269  -12.4004 H   0  0  0  0  0  0  0  0  0  0  0  0
  1  2  3  0
  2  3  1  0
  3  4  1  0
  4  5  1  0
  5  6  1  0
  6  7  1  0
  7  8  1  0
  8  9  2  0
  9 10  1  0
 10 11  2  0
 11 12  1  0
 12 13  2  0
 13  5  1  0
 13  8  1  0
  1 14  1  0
  3 15  1  0
  3 16  1  0
  4 17  1  0
  4 18  1  0
  5 19  1  1
  6 20  1  0
  6 21  1  0
  7 22  1  0
  7 23  1  0
  9 24  1  0
 10 25  1  0
 11 26  1  0
 12 27  1  0
M  CHG  1   4   1
M  END
>  <meeko>  (7) 
{"is_sidechain": [false], "free_energy": -7.026, "intermolecular_energy": -7.841, "internal_energy": -0.171}

$$$$
rasagiline_out
     RDKit          3D

 27 28  0  0  0  0  0  0  0  0999 V2000
   38.0550   29.1170  -15.1070 C   0  0  0  0  0  0  0  0  0  0  0  0
   38.6950   28.8190  -14.1360 C   0  0  0  0  0  0  0  0  0  0  0  0
   39.4800   28.4550  -12.9490 C   0  0  0  0  0  0  0  0  0  0  0  0
   40.0270   27.1160  -13.1220 N   0  0  0  0  0  0  0  0  0  0  0  0
   41.0150   27.0530  -14.1930 C   0  0  2  0  0  0  0  0  0  0  0  0
   40.7170   25.9820  -15.2670 C   0  0  0  0  0  0  0  0  0  0  0  0
   42.0760   25.5750  -15.8570 C   0  0  0  0  0  0  0  0  0  0  0  0
   42.9660   25.7510  -14.6670 C   0  0  0  0  0  0  0  0  0  0  0  0
   44.2380   25.2380  -14.4730 C   0  0  0  0  0  0  0  0  0  0  0  0
   44.9080   25.5630  -13.2910 C   0  0  0  0  0  0  0  0  0  0  0  0
   44.3110   26.3980  -12.3350 C   0  0  0  0  0  0  0  0  0  0  0  0
   43.0340   26.9220  -12.5470 C   0  0  0  0  0  0  0  0  0  0  0  0
   42.3650   26.5840  -13.7140 C   0  0  0  0  0  0  0  0  0  0  0  0
   37.4686   29.3900  -15.9967 H   0  0  0  0  0  0  0  0  0  0  0  0
   40.3027   29.1734  -12.8187 H   0  0  0  0  0  0  0  0  0  0  0  0
   38.8323   28.4751  -12.0601 H   0  0  0  0  0  0  0  0  0  0  0  0
   39.2630   26.4770  -13.3440 H   0  0  0  0  0  0  0  0  0  0  0  0
   40.4920   26.8540  -12.2530 H   0  0  0  0  0  0  0  0  0  0  0  0
   40.9877   28.0837  -14.5763 H   0  0  0  0  0  0  0  0  0  0  0  0
   40.2236   25.1113  -14.8104 H   0  0  0  0  0  0  0  0  0  0  0  0
   40.0434   26.3714  -16.0446 H   0  0  0  0  0  0  0  0  0  0  0  0
   42.0692   24.5318  -16.2060 H   0  0  0  0  0  0  0  0  0  0  0  0
   42.3795   26.1552  -16.7409 H   0  0  0  0  0  0  0  0  0  0  0  0
   44.7079   24.5921  -15.2293 H   0  0  0  0  0  0  0  0  0  0  0  0
   45.9149   25.1596  -13.1080 H   0  0  0  0  0  0  0  0  0  0  0  0
   44.8536   26.6423  -11.4099 H   0  0  0  0  0  0  0  0  0  0  0  0
   42.5691   27.5879  -11.8051 H   0  0  0  0  0  0  0  0  0  0  0  0
  1  2  3  0
  2  3  1  0
  3  4  1  0
  4  5  1  0
  5  6  1  0
  6  7  1  0
  7  8  1  0
  8  9  2  0
  9 10  1  0
 10 11  2  0
 11 12  1  0
 12 13  2  0
 13  5  1  0
 13  8  1  0
  1 14  1  0
  3 15  1  0
  3 16  1  0
  4 17  1  0
  4 18  1  0
  5 19  1  6
  6 20  1  0
  6 21  1  0
  7 22  1  0
  7 23  1  0
  9 24  1  0
 10 25  1  0
 11 26  1  0
 12 27  1  0
M  CHG  1   4   1
M  END
>  <meeko>  (8) 
{"is_sidechain": [false], "free_energy": -6.853, "intermolecular_energy": -7.498, "internal_energy": -0.319}

$$$$
rasagiline_out
     RDKit          3D

 27 28  0  0  0  0  0  0  0  0999 V2000
   46.1590   24.6800  -13.7990 C   0  0  0  0  0  0  0  0  0  0  0  0
   45.3560   25.4970  -13.4370 C   0  0  0  0  0  0  0  0  0  0  0  0
   44.3750   26.4940  -12.9910 C   0  0  0  0  0  0  0  0  0  0  0  0
   43.0300   26.0060  -13.2650 N   0  0  0  0  0  0  0  0  0  0  0  0
   42.0650   27.0880  -13.4170 C   0  0  2  0  0  0  0  0  0  0  0  0
   41.1270   27.2750  -12.2030 C   0  0  0  0  0  0  0  0  0  0  0  0
   39.8310   27.8900  -12.7520 C   0  0  0  0  0  0  0  0  0  0  0  0
   39.7860   27.2840  -14.1200 C   0  0  0  0  0  0  0  0  0  0  0  0
   38.7020   27.1950  -14.9760 C   0  0  0  0  0  0  0  0  0  0  0  0
   38.8970   26.6180  -16.2330 C   0  0  0  0  0  0  0  0  0  0  0  0
   40.1640   26.1530  -16.6190 C   0  0  0  0  0  0  0  0  0  0  0  0
   41.2540   26.2600  -15.7530 C   0  0  0  0  0  0  0  0  0  0  0  0
   41.0530   26.8200  -14.5000 C   0  0  0  0  0  0  0  0  0  0  0  0
   46.8942   23.9320  -14.1304 H   0  0  0  0  0  0  0  0  0  0  0  0
   44.4904   26.6646  -11.9105 H   0  0  0  0  0  0  0  0  0  0  0  0
   44.5400   27.4385  -13.5302 H   0  0  0  0  0  0  0  0  0  0  0  0
   42.7350   25.4110  -12.4910 H   0  0  0  0  0  0  0  0  0  0  0  0
   43.0590   25.4890  -14.1440 H   0  0  0  0  0  0  0  0  0  0  0  0
   42.7277   27.9466  -13.6005 H   0  0  0  0  0  0  0  0  0  0  0  0
   40.9176   26.3042  -11.7300 H   0  0  0  0  0  0  0  0  0  0  0  0
   41.5846   27.9211  -11.4393 H   0  0  0  0  0  0  0  0  0  0  0  0
   38.9579   27.5962  -12.1509 H   0  0  0  0  0  0  0  0  0  0  0  0
   39.8105   28.9898  -12.7418 H   0  0  0  0  0  0  0  0  0  0  0  0
   37.7125   27.5690  -14.6742 H   0  0  0  0  0  0  0  0  0  0  0  0
   38.0489   26.5270  -16.9276 H   0  0  0  0  0  0  0  0  0  0  0  0
   40.2993   25.7004  -17.6124 H   0  0  0  0  0  0  0  0  0  0  0  0
   42.2505   25.9078  -16.0578 H   0  0  0  0  0  0  0  0  0  0  0  0
  1  2  3  0
  2  3  1  0
  3  4  1  0
  4  5  1  0
  5  6  1  0
  6  7  1  0
  7  8  1  0
  8  9  2  0
  9 10  1  0
 10 11  2  0
 11 12  1  0
 12 13  2  0
 13  5  1  0
 13  8  1  0
  1 14  1  0
  3 15  1  0
  3 16  1  0
  4 17  1  0
  4 18  1  0
  5 19  1  6
  6 20  1  0
  6 21  1  0
  7 22  1  0
  7 23  1  0
  9 24  1  0
 10 25  1  0
 11 26  1  0
 12 27  1  0
M  CHG  1   4   1
M  END
>  <meeko>  (9) 
{"is_sidechain": [false], "free_energy": -6.727, "intermolecular_energy": -7.506, "internal_energy": -0.17}

$$$$
