safinamide_out
     RDKit          3D

 42 43  0  0  0  0  0  0  0  0999 V2000
   46.9740   24.5580  -13.4260 C   0  0  0  0  0  0  0  0  0  0  0  0
   46.9970   26.0750  -13.5920 C   0  0  2  0  0  0  0  0  0  0  0  0
   45.6250   26.5520  -13.9000 N   0  0  0  0  0  0  0  0  0  0  0  0
   44.7680   26.4970  -12.7100 C   0  0  0  0  0  0  0  0  0  0  0  0
   43.3130   26.5800  -13.1090 C   0  0  0  0  0  0  0  0  0  0  0  0
   42.8970   26.1420  -14.3730 C   0  0  0  0  0  0  0  0  0  0  0  0
   41.5480   26.2000  -14.7440 C   0  0  0  0  0  0  0  0  0  0  0  0
   40.5970   26.6910  -13.8500 C   0  0  0  0  0  0  0  0  0  0  0  0
   39.2540   26.8020  -14.0800 O   0  0  0  0  0  0  0  0  0  0  0  0
   38.7210   28.1180  -14.1910 C   0  0  0  0  0  0  0  0  0  0  0  0
   37.9750   28.2080  -15.4990 C   0  0  0  0  0  0  0  0  0  0  0  0
   37.0870   29.2700  -15.7410 C   0  0  0  0  0  0  0  0  0  0  0  0
   36.4060   29.3660  -16.9580 C   0  0  0  0  0  0  0  0  0  0  0  0
   36.6130   28.4070  -17.9480 C   0  0  0  0  0  0  0  0  0  0  0  0
   37.5020   27.3650  -17.7150 C   0  0  0  0  0  0  0  0  0  0  0  0
   37.7050   26.4470  -18.6700 F   0  0  0  0  0  0  0  0  0  0  0  0
   38.1850   27.2580  -16.5080 C   0  0  0  0  0  0  0  0  0  0  0  0
   41.0070   27.1200  -12.5860 C   0  0  0  0  0  0  0  0  0  0  0  0
   42.3520   27.0630  -12.2140 C   0  0  0  0  0  0  0  0  0  0  0  0
   47.9540   26.4440  -14.7390 C   0  0  0  0  0  0  0  0  0  0  0  0
   47.8130   25.6850  -15.8690 N   0  0  0  0  0  0  0  0  0  0  0  0
   48.8030   27.3240  -14.6590 O   0  0  0  0  0  0  0  0  0  0  0  0
   46.9702   24.3063  -12.3552 H   0  0  0  0  0  0  0  0  0  0  0  0
   46.0696   24.1508  -13.9016 H   0  0  0  0  0  0  0  0  0  0  0  0
   47.8657   24.1235  -13.9016 H   0  0  0  0  0  0  0  0  0  0  0  0
   47.3458   26.5511  -12.6637 H   0  0  0  0  0  0  0  0  0  0  0  0
   45.2220   25.9620  -14.6280 H   0  0  0  0  0  0  0  0  0  0  0  0
   45.6810   27.5210  -14.2140 H   0  0  0  0  0  0  0  0  0  0  0  0
   44.9453   25.5505  -12.1783 H   0  0  0  0  0  0  0  0  0  0  0  0
   45.0091   27.3473  -12.0551 H   0  0  0  0  0  0  0  0  0  0  0  0
   43.6392   25.7477  -15.0827 H   0  0  0  0  0  0  0  0  0  0  0  0
   41.2379   25.8577  -15.7423 H   0  0  0  0  0  0  0  0  0  0  0  0
   38.0340   28.3146  -13.3547 H   0  0  0  0  0  0  0  0  0  0  0  0
   39.5300   28.8627  -14.1596 H   0  0  0  0  0  0  0  0  0  0  0  0
   36.9263   30.0331  -14.9652 H   0  0  0  0  0  0  0  0  0  0  0  0
   35.7076   30.1974  -17.1341 H   0  0  0  0  0  0  0  0  0  0  0  0
   36.0768   28.4746  -18.9061 H   0  0  0  0  0  0  0  0  0  0  0  0
   38.8892   26.4287  -16.3455 H   0  0  0  0  0  0  0  0  0  0  0  0
   40.2622   27.5073  -11.8752 H   0  0  0  0  0  0  0  0  0  0  0  0
   42.6574   27.3995  -11.2123 H   0  0  0  0  0  0  0  0  0  0  0  0
   47.1230   24.9830  -15.9080 H   0  0  0  0  0  0  0  0  0  0  0  0
   48.4040   25.8380  -16.6420 H   0  0  0  0  0  0  0  0  0  0  0  0
  1  2  1  0
  2  3  1  0
  3  4  1  0
  4  5  1  0
  5  6  2  0
  6  7  1  0
  7  8  2  0
  8  9  1  0
  9 10  1  0
 10 11  1  0
 11 12  2  0
 12 13  1  0
 13 14  2  0
 14 15  1  0
 15 16  1  0
 15 17  2  0
  8 18  1  0
 18 19  2  0
  2 20  1  0
 20 21  1  0
 20 22  2  0
 19  5  1  0
 17 11  1  0
  1 23  1  0
  1 24  1  0
  1 25  1  0
  2 26  1  1
  3 27  1  0
  3 28  1  0
  4 29  1  0
  4 30  1  0
  6 31  1  0
  7 32  1  0
 10 33  1  0
 10 34  1  0
 12 35  1  0
 13 36  1  0
 14 37  1  0
 17 38  1  0
 18 39  1  0
 19 40  1  0
 21 41  1  0
 21 42  1  0
M  CHG  1   3   1
M  END
>  <meeko>  (1) 
{"is_sidechain": [false], "free_energy": -9.372, "intermolecular_energy": -13.208, "internal_energy": -0.657}

$$$$
safinamide_out
     RDKit          3D

 42 43  0  0  0  0  0  0  0  0999 V2000
   46.9220   24.5150  -13.4350 C   0  0  0  0  0  0  0  0  0  0  0  0
   46.9410   26.0360  -13.5670 C   0  0  2  0  0  0  0  0  0  0  0  0
   45.5700   26.5140  -13.8780 N   0  0  0  0  0  0  0  0  0  0  0  0
   44.7240   26.5030  -12.6790 C   0  0  0  0  0  0  0  0  0  0  0  0
   43.2660   26.5880  -13.0680 C   0  0  0  0  0  0  0  0  0  0  0  0
   42.8380   26.1390  -14.3240 C   0  0  0  0  0  0  0  0  0  0  0  0
   41.4860   26.1970  -14.6840 C   0  0  0  0  0  0  0  0  0  0  0  0
   40.5450   26.7020  -13.7880 C   0  0  0  0  0  0  0  0  0  0  0  0
   39.2000   26.8150  -14.0090 O   0  0  0  0  0  0  0  0  0  0  0  0
   38.6960   28.1180  -14.2880 C   0  0  0  0  0  0  0  0  0  0  0  0
   38.0630   28.0870  -15.6570 C   0  0  0  0  0  0  0  0  0  0  0  0
   38.3860   27.0680  -16.5680 C   0  0  0  0  0  0  0  0  0  0  0  0
   37.7890   27.0260  -17.8310 C   0  0  0  0  0  0  0  0  0  0  0  0
   36.8580   27.9960  -18.1930 C   0  0  0  0  0  0  0  0  0  0  0  0
   36.5260   28.9970  -17.2870 C   0  0  0  0  0  0  0  0  0  0  0  0
   35.6250   29.9260  -17.6320 F   0  0  0  0  0  0  0  0  0  0  0  0
   37.1140   29.0490  -16.0270 C   0  0  0  0  0  0  0  0  0  0  0  0
   40.9660   27.1420  -12.5320 C   0  0  0  0  0  0  0  0  0  0  0  0
   42.3140   27.0840  -12.1700 C   0  0  0  0  0  0  0  0  0  0  0  0
   47.9080   26.4330  -14.6970 C   0  0  0  0  0  0  0  0  0  0  0  0
   47.7780   25.7000  -15.8450 N   0  0  0  0  0  0  0  0  0  0  0  0
   48.7550   27.3120  -14.5880 O   0  0  0  0  0  0  0  0  0  0  0  0
   46.9186   24.2394  -12.3701 H   0  0  0  0  0  0  0  0  0  0  0  0
   46.0188   24.1161  -13.9199 H   0  0  0  0  0  0  0  0  0  0  0  0
   47.8150   24.0937  -13.9199 H   0  0  0  0  0  0  0  0  0  0  0  0
   47.2789   26.4934  -12.6254 H   0  0  0  0  0  0  0  0  0  0  0  0
   45.1560   25.9060  -14.5830 H   0  0  0  0  0  0  0  0  0  0  0  0
   45.6310   27.4730  -14.2210 H   0  0  0  0  0  0  0  0  0  0  0  0
   44.8973   25.5713  -12.1206 H   0  0  0  0  0  0  0  0  0  0  0  0
   44.9792   27.3699  -12.0518 H   0  0  0  0  0  0  0  0  0  0  0  0
   43.5730   25.7359  -15.0362 H   0  0  0  0  0  0  0  0  0  0  0  0
   41.1660   25.8435  -15.6753 H   0  0  0  0  0  0  0  0  0  0  0  0
   37.9444   28.3972  -13.5349 H   0  0  0  0  0  0  0  0  0  0  0  0
   39.5095   28.8579  -14.2586 H   0  0  0  0  0  0  0  0  0  0  0  0
   39.1160   26.2954  -16.2847 H   0  0  0  0  0  0  0  0  0  0  0  0
   38.0545   26.2269  -18.5388 H   0  0  0  0  0  0  0  0  0  0  0  0
   36.3890   27.9706  -19.1877 H   0  0  0  0  0  0  0  0  0  0  0  0
   36.8338   29.8452  -15.3216 H   0  0  0  0  0  0  0  0  0  0  0  0
   40.2281   27.5389  -11.8193 H   0  0  0  0  0  0  0  0  0  0  0  0
   42.6287   27.4298  -11.1743 H   0  0  0  0  0  0  0  0  0  0  0  0
   47.0900   24.9990  -15.9070 H   0  0  0  0  0  0  0  0  0  0  0  0
   48.3750   25.8730  -16.6090 H   0  0  0  0  0  0  0  0  0  0  0  0
  1  2  1  0
  2  3  1  0
  3  4  1  0
  4  5  1  0
  5  6  2  0
  6  7  1  0
  7  8  2  0
  8  9  1  0
  9 10  1  0
 10 11  1  0
 11 12  2  0
 12 13  1  0
 13 14  2  0
 14 15  1  0
 15 16  1  0
 15 17  2  0
  8 18  1  0
 18 19  2  0
  2 20  1  0
 20 21  1  0
 20 22  2  0
 19  5  1  0
 17 11  1  0
  1 23  1  0
  1 24  1  0
  1 25  1  0
  2 26  1  1
  3 27  1  0
  3 28  1  0
  4 29  1  0
  4 30  1  0
  6 31  1  0
  7 32  1  0
 10 33  1  0
 10 34  1  0
 12 35  1  0
 13 36  1  0
 14 37  1  0
 17 38  1  0
 18 39  1  0
 19 40  1  0
 21 41  1  0
 21 42  1  0
M  CHG  1   3   1
M  END
>  <meeko>  (2) 
{"is_sidechain": [false], "free_energy": -9.308, "intermolecular_energy": -13.146, "internal_energy": -0.629}

$$$$
safinamide_out
     RDKit          3D

 42 43  0  0  0  0  0  0  0  0999 V2000
   46.5590   24.6880  -13.5760 C   0  0  0  0  0  0  0  0  0  0  0  0
   46.8860   26.1800  -13.5920 C   0  0  2  0  0  0  0  0  0  0  0  0
   45.6400   26.9470  -13.8470 N   0  0  0  0  0  0  0  0  0  0  0  0
   44.6700   26.7520  -12.7640 C   0  0  0  0  0  0  0  0  0  0  0  0
   43.2830   26.5590  -13.3320 C   0  0  0  0  0  0  0  0  0  0  0  0
   42.1580   27.0150  -12.6330 C   0  0  0  0  0  0  0  0  0  0  0  0
   40.8720   26.8560  -13.1620 C   0  0  0  0  0  0  0  0  0  0  0  0
   40.6960   26.2410  -14.4010 C   0  0  0  0  0  0  0  0  0  0  0  0
   39.5030   26.0230  -15.0320 O   0  0  0  0  0  0  0  0  0  0  0  0
   39.3860   26.4810  -16.3760 C   0  0  0  0  0  0  0  0  0  0  0  0
   38.2970   27.5250  -16.4170 C   0  0  0  0  0  0  0  0  0  0  0  0
   37.6220   27.8030  -17.6180 C   0  0  0  0  0  0  0  0  0  0  0  0
   36.6010   28.7570  -17.6570 C   0  0  0  0  0  0  0  0  0  0  0  0
   36.2400   29.4360  -16.4950 C   0  0  0  0  0  0  0  0  0  0  0  0
   36.8970   29.1520  -15.3040 C   0  0  0  0  0  0  0  0  0  0  0  0
   36.5450   29.8010  -14.1860 F   0  0  0  0  0  0  0  0  0  0  0  0
   37.9150   28.2040  -15.2530 C   0  0  0  0  0  0  0  0  0  0  0  0
   41.8160   25.7930  -15.1050 C   0  0  0  0  0  0  0  0  0  0  0  0
   43.1000   25.9520  -14.5800 C   0  0  0  0  0  0  0  0  0  0  0  0
   47.9150   26.4600  -14.7010 C   0  0  0  0  0  0  0  0  0  0  0  0
   47.7940   25.6670  -15.8100 N   0  0  0  0  0  0  0  0  0  0  0  0
   48.8010   27.3020  -14.6080 O   0  0  0  0  0  0  0  0  0  0  0  0
   46.4828   24.3405  -12.5351 H   0  0  0  0  0  0  0  0  0  0  0  0
   45.6020   24.5168  -14.0907 H   0  0  0  0  0  0  0  0  0  0  0  0
   47.3567   24.1323  -14.0907 H   0  0  0  0  0  0  0  0  0  0  0  0
   47.3080   26.4857  -12.6233 H   0  0  0  0  0  0  0  0  0  0  0  0
   45.2270   26.6320  -14.7240 H   0  0  0  0  0  0  0  0  0  0  0  0
   45.8740   27.9390  -13.8970 H   0  0  0  0  0  0  0  0  0  0  0  0
   44.9506   25.8624  -12.1811 H   0  0  0  0  0  0  0  0  0  0  0  0
   44.6716   27.6417  -12.1171 H   0  0  0  0  0  0  0  0  0  0  0  0
   42.2869   27.5041  -11.6562 H   0  0  0  0  0  0  0  0  0  0  0  0
   39.9985   27.2169  -12.5993 H   0  0  0  0  0  0  0  0  0  0  0  0
   40.3387   26.9216  -16.7050 H   0  0  0  0  0  0  0  0  0  0  0  0
   39.1399   25.6440  -17.0460 H   0  0  0  0  0  0  0  0  0  0  0  0
   37.8998   27.2647  -18.5362 H   0  0  0  0  0  0  0  0  0  0  0  0
   36.0833   28.9714  -18.6036 H   0  0  0  0  0  0  0  0  0  0  0  0
   35.4407   30.1913  -16.5203 H   0  0  0  0  0  0  0  0  0  0  0  0
   38.4190   27.9883  -14.2994 H   0  0  0  0  0  0  0  0  0  0  0  0
   41.6850   25.3094  -16.0843 H   0  0  0  0  0  0  0  0  0  0  0  0
   43.9720   25.5986  -15.1499 H   0  0  0  0  0  0  0  0  0  0  0  0
   47.0730   24.9980  -15.8600 H   0  0  0  0  0  0  0  0  0  0  0  0
   48.4280   25.7650  -16.5560 H   0  0  0  0  0  0  0  0  0  0  0  0
  1  2  1  0
  2  3  1  0
  3  4  1  0
  4  5  1  0
  5  6  2  0
  6  7  1  0
  7  8  2  0
  8  9  1  0
  9 10  1  0
 10 11  1  0
 11 12  2  0
 12 13  1  0
 13 14  2  0
 14 15  1  0
 15 16  1  0
 15 17  2  0
  8 18  1  0
 18 19  2  0
  2 20  1  0
 20 21  1  0
 20 22  2  0
 19  5  1  0
 17 11  1  0
  1 23  1  0
  1 24  1  0
  1 25  1  0
  2 26  1  1
  3 27  1  0
  3 28  1  0
  4 29  1  0
  4 30  1  0
  6 31  1  0
  7 32  1  0
 10 33  1  0
 10 34  1  0
 12 35  1  0
 13 36  1  0
 14 37  1  0
 17 38  1  0
 18 39  1  0
 19 40  1  0
 21 41  1  0
 21 42  1  0
M  CHG  1   3   1
M  END
>  <meeko>  (3) 
{"is_sidechain": [false], "free_energy": -9.174, "intermolecular_energy": -12.863, "internal_energy": -0.723}

$$$$
safinamide_out
     RDKit          3D

 42 43  0  0  0  0  0  0  0  0999 V2000
   36.0870   29.4760  -17.6500 C   0  0  0  0  0  0  0  0  0  0  0  0
   36.9400   28.4060  -16.9740 C   0  0  2  0  0  0  0  0  0  0  0  0
   37.9210   29.0630  -16.0730 N   0  0  0  0  0  0  0  0  0  0  0  0
   37.7860   28.5700  -14.6980 C   0  0  0  0  0  0  0  0  0  0  0  0
   39.0930   27.9800  -14.2230 C   0  0  0  0  0  0  0  0  0  0  0  0
   39.7490   27.0020  -14.9810 C   0  0  0  0  0  0  0  0  0  0  0  0
   40.9700   26.4640  -14.5570 C   0  0  0  0  0  0  0  0  0  0  0  0
   41.5530   26.9030  -13.3700 C   0  0  0  0  0  0  0  0  0  0  0  0
   42.7360   26.4670  -12.8410 O   0  0  0  0  0  0  0  0  0  0  0  0
   43.8740   27.3050  -13.0160 C   0  0  0  0  0  0  0  0  0  0  0  0
   45.0420   26.4280  -13.3930 C   0  0  0  0  0  0  0  0  0  0  0  0
   44.9100   25.0300  -13.4020 C   0  0  0  0  0  0  0  0  0  0  0  0
   45.9850   24.2140  -13.7670 C   0  0  0  0  0  0  0  0  0  0  0  0
   47.1990   24.7890  -14.1340 C   0  0  0  0  0  0  0  0  0  0  0  0
   47.3270   26.1730  -14.1390 C   0  0  0  0  0  0  0  0  0  0  0  0
   48.4940   26.7250  -14.4990 F   0  0  0  0  0  0  0  0  0  0  0  0
   46.2650   26.9950  -13.7780 C   0  0  0  0  0  0  0  0  0  0  0  0
   40.9070   27.8850  -12.6150 C   0  0  0  0  0  0  0  0  0  0  0  0
   39.6890   28.4240  -13.0370 C   0  0  0  0  0  0  0  0  0  0  0  0
   37.6770   27.5910  -18.0520 C   0  0  0  0  0  0  0  0  0  0  0  0
   38.9610   27.9950  -18.2970 N   0  0  0  0  0  0  0  0  0  0  0  0
   37.1640   26.6690  -18.6750 O   0  0  0  0  0  0  0  0  0  0  0  0
   35.5957   30.0922  -16.8826 H   0  0  0  0  0  0  0  0  0  0  0  0
   36.7275   30.1133  -18.2773 H   0  0  0  0  0  0  0  0  0  0  0  0
   35.3230   28.9936  -18.2773 H   0  0  0  0  0  0  0  0  0  0  0  0
   36.3021   27.7312  -16.3843 H   0  0  0  0  0  0  0  0  0  0  0  0
   37.7610   30.0700  -16.0830 H   0  0  0  0  0  0  0  0  0  0  0  0
   38.8610   28.8460  -16.4040 H   0  0  0  0  0  0  0  0  0  0  0  0
   37.5036   29.4044  -14.0392 H   0  0  0  0  0  0  0  0  0  0  0  0
   37.0104   27.7905  -14.6714 H   0  0  0  0  0  0  0  0  0  0  0  0
   39.2990   26.6520  -15.9218 H   0  0  0  0  0  0  0  0  0  0  0  0
   41.4700   25.6933  -15.1620 H   0  0  0  0  0  0  0  0  0  0  0  0
   43.6812   28.0349  -13.8160 H   0  0  0  0  0  0  0  0  0  0  0  0
   44.0913   27.8547  -12.0883 H   0  0  0  0  0  0  0  0  0  0  0  0
   43.9507   24.5721  -13.1189 H   0  0  0  0  0  0  0  0  0  0  0  0
   45.8720   23.1198  -13.7643 H   0  0  0  0  0  0  0  0  0  0  0  0
   48.0502   24.1527  -14.4178 H   0  0  0  0  0  0  0  0  0  0  0  0
   46.3844   28.0884  -13.7945 H   0  0  0  0  0  0  0  0  0  0  0  0
   41.3623   28.2378  -11.6779 H   0  0  0  0  0  0  0  0  0  0  0  0
   39.1961   29.2010  -12.4342 H   0  0  0  0  0  0  0  0  0  0  0  0
   39.3500   28.7390  -17.7830 H   0  0  0  0  0  0  0  0  0  0  0  0
   39.4950   27.5430  -18.9900 H   0  0  0  0  0  0  0  0  0  0  0  0
  1  2  1  0
  2  3  1  0
  3  4  1  0
  4  5  1  0
  5  6  2  0
  6  7  1  0
  7  8  2  0
  8  9  1  0
  9 10  1  0
 10 11  1  0
 11 12  2  0
 12 13  1  0
 13 14  2  0
 14 15  1  0
 15 16  1  0
 15 17  2  0
  8 18  1  0
 18 19  2  0
  2 20  1  0
 20 21  1  0
 20 22  2  0
 19  5  1  0
 17 11  1  0
  1 23  1  0
  1 24  1  0
  1 25  1  0
  2 26  1  1
  3 27  1  0
  3 28  1  0
  4 29  1  0
  4 30  1  0
  6 31  1  0
  7 32  1  0
 10 33  1  0
 10 34  1  0
 12 35  1  0
 13 36  1  0
 14 37  1  0
 17 38  1  0
 18 39  1  0
 19 40  1  0
 21 41  1  0
 21 42  1  0
M  CHG  1   3   1
M  END
>  <meeko>  (4) 
{"is_sidechain": [false], "free_energy": -8.678, "intermolecular_energy": -12.194, "internal_energy": -0.693}

$$$$
safinamide_out
     RDKit          3D

 42 43  0  0  0  0  0  0  0  0999 V2000
   37.4930   29.3550  -14.6230 C   0  0  0  0  0  0  0  0  0  0  0  0
   37.2660   28.6110  -15.9370 C   0  0  2  0  0  0  0  0  0  0  0  0
   38.5270   27.9360  -16.3370 N   0  0  0  0  0  0  0  0  0  0  0  0
   38.6490   26.6220  -15.6950 C   0  0  0  0  0  0  0  0  0  0  0  0
   39.8890   26.5750  -14.8340 C   0  0  0  0  0  0  0  0  0  0  0  0
   41.1190   26.1870  -15.3810 C   0  0  0  0  0  0  0  0  0  0  0  0
   42.2770   26.1580  -14.5940 C   0  0  0  0  0  0  0  0  0  0  0  0
   42.2190   26.5220  -13.2500 C   0  0  0  0  0  0  0  0  0  0  0  0
   43.2660   26.5390  -12.3710 O   0  0  0  0  0  0  0  0  0  0  0  0
   44.3750   27.3710  -12.7010 C   0  0  0  0  0  0  0  0  0  0  0  0
   45.4590   26.4930  -13.2750 C   0  0  0  0  0  0  0  0  0  0  0  0
   45.3870   25.0960  -13.1450 C   0  0  0  0  0  0  0  0  0  0  0  0
   46.3810   24.2780  -13.6910 C   0  0  0  0  0  0  0  0  0  0  0  0
   47.4500   24.8480  -14.3790 C   0  0  0  0  0  0  0  0  0  0  0  0
   47.5140   26.2290  -14.5200 C   0  0  0  0  0  0  0  0  0  0  0  0
   48.5400   26.7760  -15.1870 F   0  0  0  0  0  0  0  0  0  0  0  0
   46.5320   27.0540  -13.9810 C   0  0  0  0  0  0  0  0  0  0  0  0
   40.9960   26.9170  -12.7030 C   0  0  0  0  0  0  0  0  0  0  0  0
   39.8400   26.9480  -13.4870 C   0  0  0  0  0  0  0  0  0  0  0  0
   36.8380   29.6160  -17.0200 C   0  0  0  0  0  0  0  0  0  0  0  0
   37.7130   30.6480  -17.2220 N   0  0  0  0  0  0  0  0  0  0  0  0
   35.7860   29.5350  -17.6450 O   0  0  0  0  0  0  0  0  0  0  0  0
   37.2871   28.6801  -13.7792 H   0  0  0  0  0  0  0  0  0  0  0  0
   38.5368   29.6983  -14.5716 H   0  0  0  0  0  0  0  0  0  0  0  0
   36.8187   30.2226  -14.5716 H   0  0  0  0  0  0  0  0  0  0  0  0
   36.4750   27.8567  -15.8129 H   0  0  0  0  0  0  0  0  0  0  0  0
   39.3180   28.5160  -16.0610 H   0  0  0  0  0  0  0  0  0  0  0  0
   38.5160   27.8020  -17.3480 H   0  0  0  0  0  0  0  0  0  0  0  0
   37.7639   26.4406  -15.0675 H   0  0  0  0  0  0  0  0  0  0  0  0
   38.7229   25.8480  -16.4731 H   0  0  0  0  0  0  0  0  0  0  0  0
   41.1759   25.9016  -16.4418 H   0  0  0  0  0  0  0  0  0  0  0  0
   43.2344   25.8472  -15.0376 H   0  0  0  0  0  0  0  0  0  0  0  0
   44.0702   28.1226  -13.4441 H   0  0  0  0  0  0  0  0  0  0  0  0
   44.7405   27.8951  -11.8056 H   0  0  0  0  0  0  0  0  0  0  0  0
   44.5409   24.6415  -12.6088 H   0  0  0  0  0  0  0  0  0  0  0  0
   46.3190   23.1856  -13.5774 H   0  0  0  0  0  0  0  0  0  0  0  0
   48.2371   24.2100  -14.8072 H   0  0  0  0  0  0  0  0  0  0  0  0
   46.5975   28.1446  -14.1087 H   0  0  0  0  0  0  0  0  0  0  0  0
   40.9424   27.2069  -11.6432 H   0  0  0  0  0  0  0  0  0  0  0  0
   38.8860   27.2676  -13.0423 H   0  0  0  0  0  0  0  0  0  0  0  0
   38.5510   30.6910  -16.7070 H   0  0  0  0  0  0  0  0  0  0  0  0
   37.5030   31.3500  -17.8800 H   0  0  0  0  0  0  0  0  0  0  0  0
  1  2  1  0
  2  3  1  0
  3  4  1  0
  4  5  1  0
  5  6  2  0
  6  7  1  0
  7  8  2  0
  8  9  1  0
  9 10  1  0
 10 11  1  0
 11 12  2  0
 12 13  1  0
 13 14  2  0
 14 15  1  0
 15 16  1  0
 15 17  2  0
  8 18  1  0
 18 19  2  0
  2 20  1  0
 20 21  1  0
 20 22  2  0
 19  5  1  0
 17 11  1  0
  1 23  1  0
  1 24  1  0
  1 25  1  0
  2 26  1  1
  3 27  1  0
  3 28  1  0
  4 29  1  0
  4 30  1  0
  6 31  1  0
  7 32  1  0
 10 33  1  0
 10 34  1  0
 12 35  1  0
 13 36  1  0
 14 37  1  0
 17 38  1  0
 18 39  1  0
 19 40  1  0
 21 41  1  0
 21 42  1  0
M  CHG  1   3   1
M  END
>  <meeko>  (5) 
{"is_sidechain": [false], "free_energy": -8.035, "intermolecular_energy": -11.418, "internal_energy": -0.563}

$$$$
safinamide_out
     RDKit          3D

 42 43  0  0  0  0  0  0  0  0999 V2000
   36.1310   28.7750  -17.8840 C   0  0  0  0  0  0  0  0  0  0  0  0
   37.4370   28.5680  -17.1220 C   0  0  2  0  0  0  0  0  0  0  0  0
   37.5900   27.1250  -16.8030 N   0  0  0  0  0  0  0  0  0  0  0  0
   38.8770   26.6120  -17.2880 C   0  0  0  0  0  0  0  0  0  0  0  0
   39.8670   26.5260  -16.1490 C   0  0  0  0  0  0  0  0  0  0  0  0
   39.5030   26.9310  -14.8590 C   0  0  0  0  0  0  0  0  0  0  0  0
   40.4090   26.8370  -13.7950 C   0  0  0  0  0  0  0  0  0  0  0  0
   41.6900   26.3300  -14.0100 C   0  0  0  0  0  0  0  0  0  0  0  0
   42.6680   26.1820  -13.0670 O   0  0  0  0  0  0  0  0  0  0  0  0
   43.7390   27.1220  -13.0900 C   0  0  0  0  0  0  0  0  0  0  0  0
   45.0050   26.3750  -13.4280 C   0  0  0  0  0  0  0  0  0  0  0  0
   45.0350   24.9700  -13.3900 C   0  0  0  0  0  0  0  0  0  0  0  0
   46.2010   24.2740  -13.7190 C   0  0  0  0  0  0  0  0  0  0  0  0
   47.3450   24.9730  -14.0970 C   0  0  0  0  0  0  0  0  0  0  0  0
   47.3120   26.3610  -14.1490 C   0  0  0  0  0  0  0  0  0  0  0  0
   48.4120   27.0320  -14.5190 F   0  0  0  0  0  0  0  0  0  0  0  0
   46.1580   27.0660  -13.8240 C   0  0  0  0  0  0  0  0  0  0  0  0
   42.0530   25.9160  -15.2930 C   0  0  0  0  0  0  0  0  0  0  0  0
   41.1510   26.0080  -16.3560 C   0  0  0  0  0  0  0  0  0  0  0  0
   37.4030   29.3940  -15.8240 C   0  0  0  0  0  0  0  0  0  0  0  0
   38.3540   30.3750  -15.7450 N   0  0  0  0  0  0  0  0  0  0  0  0
   36.6160   29.1880  -14.9080 O   0  0  0  0  0  0  0  0  0  0  0  0
   35.3058   28.9058  -17.1685 H   0  0  0  0  0  0  0  0  0  0  0  0
   36.2135   29.6713  -18.5164 H   0  0  0  0  0  0  0  0  0  0  0  0
   35.9323   27.8971  -18.5164 H   0  0  0  0  0  0  0  0  0  0  0  0
   38.2885   28.8964  -17.7361 H   0  0  0  0  0  0  0  0  0  0  0  0
   36.8360   26.6030  -17.2480 H   0  0  0  0  0  0  0  0  0  0  0  0
   37.5570   27.0110  -15.7900 H   0  0  0  0  0  0  0  0  0  0  0  0
   38.7301   25.6103  -17.7182 H   0  0  0  0  0  0  0  0  0  0  0  0
   39.2702   27.2959  -18.0546 H   0  0  0  0  0  0  0  0  0  0  0  0
   38.4930   27.3279  -14.6790 H   0  0  0  0  0  0  0  0  0  0  0  0
   40.1095   27.1636  -12.7882 H   0  0  0  0  0  0  0  0  0  0  0  0
   43.5445   27.8915  -13.8516 H   0  0  0  0  0  0  0  0  0  0  0  0
   43.8356   27.6165  -12.1122 H   0  0  0  0  0  0  0  0  0  0  0  0
   44.1321   24.4134  -13.0985 H   0  0  0  0  0  0  0  0  0  0  0  0
   46.2155   23.1748  -13.6795 H   0  0  0  0  0  0  0  0  0  0  0  0
   48.2672   24.4304  -14.3523 H   0  0  0  0  0  0  0  0  0  0  0  0
   46.1504   28.1647  -13.8777 H   0  0  0  0  0  0  0  0  0  0  0  0
   43.0611   25.5126  -15.4690 H   0  0  0  0  0  0  0  0  0  0  0  0
   41.4509   25.6721  -17.3596 H   0  0  0  0  0  0  0  0  0  0  0  0
   38.9750   30.5200  -16.4950 H   0  0  0  0  0  0  0  0  0  0  0  0
   38.4170   30.9340  -14.9370 H   0  0  0  0  0  0  0  0  0  0  0  0
  1  2  1  0
  2  3  1  0
  3  4  1  0
  4  5  1  0
  5  6  2  0
  6  7  1  0
  7  8  2  0
  8  9  1  0
  9 10  1  0
 10 11  1  0
 11 12  2  0
 12 13  1  0
 13 14  2  0
 14 15  1  0
 15 16  1  0
 15 17  2  0
  8 18  1  0
 18 19  2  0
  2 20  1  0
 20 21  1  0
 20 22  2  0
 19  5  1  0
 17 11  1  0
  1 23  1  0
  1 24  1  0
  1 25  1  0
  2 26  1  6
  3 27  1  0
  3 28  1  0
  4 29  1  0
  4 30  1  0
  6 31  1  0
  7 32  1  0
 10 33  1  0
 10 34  1  0
 12 35  1  0
 13 36  1  0
 14 37  1  0
 17 38  1  0
 18 39  1  0
 19 40  1  0
 21 41  1  0
 21 42  1  0
M  CHG  1   3   1
M  END
>  <meeko>  (6) 
{"is_sidechain": [false], "free_energy": -7.827, "intermolecular_energy": -11.153, "internal_energy": -0.535}

$$$$
safinamide_out
     RDKit          3D

 42 43  0  0  0  0  0  0  0  0999 V2000
   37.1300   29.0780  -16.6580 C   0  0  0  0  0  0  0  0  0  0  0  0
   37.8010   27.7130  -16.5290 C   0  0  2  0  0  0  0  0  0  0  0  0
   39.0430   27.8550  -15.7260 N   0  0  0  0  0  0  0  0  0  0  0  0
   39.1380   26.7990  -14.7110 C   0  0  0  0  0  0  0  0  0  0  0  0
   40.5540   26.6960  -14.1960 C   0  0  0  0  0  0  0  0  0  0  0  0
   41.5620   26.1380  -14.9930 C   0  0  0  0  0  0  0  0  0  0  0  0
   42.8800   26.0550  -14.5300 C   0  0  0  0  0  0  0  0  0  0  0  0
   43.2070   26.5350  -13.2620 C   0  0  0  0  0  0  0  0  0  0  0  0
   44.4480   26.5180  -12.6880 O   0  0  0  0  0  0  0  0  0  0  0  0
   45.2950   25.4170  -13.0040 C   0  0  0  0  0  0  0  0  0  0  0  0
   46.5650   25.9660  -13.6060 C   0  0  0  0  0  0  0  0  0  0  0  0
   46.9230   25.6460  -14.9260 C   0  0  0  0  0  0  0  0  0  0  0  0
   48.0910   26.1650  -15.4930 C   0  0  0  0  0  0  0  0  0  0  0  0
   48.9050   27.0160  -14.7490 C   0  0  0  0  0  0  0  0  0  0  0  0
   48.5430   27.3460  -13.4480 C   0  0  0  0  0  0  0  0  0  0  0  0
   49.3240   28.1690  -12.7360 F   0  0  0  0  0  0  0  0  0  0  0  0
   47.3840   26.8340  -12.8730 C   0  0  0  0  0  0  0  0  0  0  0  0
   42.2080   27.1000  -12.4670 C   0  0  0  0  0  0  0  0  0  0  0  0
   40.8910   27.1850  -12.9280 C   0  0  0  0  0  0  0  0  0  0  0  0
   38.1370   27.1790  -17.9320 C   0  0  0  0  0  0  0  0  0  0  0  0
   39.4540   27.2950  -18.2880 N   0  0  0  0  0  0  0  0  0  0  0  0
   37.3040   26.7120  -18.6990 O   0  0  0  0  0  0  0  0  0  0  0  0
   36.9302   29.4845  -15.6556 H   0  0  0  0  0  0  0  0  0  0  0  0
   37.7942   29.7628  -17.2057 H   0  0  0  0  0  0  0  0  0  0  0  0
   36.1821   28.9703  -17.2057 H   0  0  0  0  0  0  0  0  0  0  0  0
   37.1244   27.0057  -16.0271 H   0  0  0  0  0  0  0  0  0  0  0  0
   39.0390   28.7630  -15.2630 H   0  0  0  0  0  0  0  0  0  0  0  0
   39.8440   27.7740  -16.3520 H   0  0  0  0  0  0  0  0  0  0  0  0
   38.4638   27.0369  -13.8750 H   0  0  0  0  0  0  0  0  0  0  0  0
   38.8503   25.8389  -15.1642 H   0  0  0  0  0  0  0  0  0  0  0  0
   41.3142   25.7601  -15.9959 H   0  0  0  0  0  0  0  0  0  0  0  0
   43.6590   25.6106  -15.1669 H   0  0  0  0  0  0  0  0  0  0  0  0
   45.5289   24.8512  -12.0901 H   0  0  0  0  0  0  0  0  0  0  0  0
   44.7957   24.7411  -13.7139 H   0  0  0  0  0  0  0  0  0  0  0  0
   46.2784   24.9808  -15.5193 H   0  0  0  0  0  0  0  0  0  0  0  0
   48.3666   25.9017  -16.5249 H   0  0  0  0  0  0  0  0  0  0  0  0
   49.8275   27.4239  -15.1877 H   0  0  0  0  0  0  0  0  0  0  0  0
   47.1113   27.1107  -11.8439 H   0  0  0  0  0  0  0  0  0  0  0  0
   42.4600   27.4825  -11.4669 H   0  0  0  0  0  0  0  0  0  0  0  0
   40.1162   27.6379  -12.2919 H   0  0  0  0  0  0  0  0  0  0  0  0
   40.1040   27.6750  -17.6540 H   0  0  0  0  0  0  0  0  0  0  0  0
   39.7500   27.0010  -19.1800 H   0  0  0  0  0  0  0  0  0  0  0  0
  1  2  1  0
  2  3  1  0
  3  4  1  0
  4  5  1  0
  5  6  2  0
  6  7  1  0
  7  8  2  0
  8  9  1  0
  9 10  1  0
 10 11  1  0
 11 12  2  0
 12 13  1  0
 13 14  2  0
 14 15  1  0
 15 16  1  0
 15 17  2  0
  8 18  1  0
 18 19  2  0
  2 20  1  0
 20 21  1  0
 20 22  2  0
 19  5  1  0
 17 11  1  0
  1 23  1  0
  1 24  1  0
  1 25  1  0
  2 26  1  1
  3 27  1  0
  3 28  1  0
  4 29  1  0
  4 30  1  0
  6 31  1  0
  7 32  1  0
 10 33  1  0
 10 34  1  0
 12 35  1  0
 13 36  1  0
 14 37  1  0
 17 38  1  0
 18 39  1  0
 19 40  1  0
 21 41  1  0
 21 42  1  0
M  CHG  1   3   1
M  END
>  <meeko>  (7) 
{"is_sidechain": [false], "free_energy": -7.591, "intermolecular_energy": -10.723, "internal_energy": -0.632}

$$$$
safinamide_out
     RDKit          3D

 42 43  0  0  0  0  0  0  0  0999 V2000
   47.8010   26.8830  -13.2260 C   0  0  0  0  0  0  0  0  0  0  0  0
   46.9130   26.1170  -14.2040 C   0  0  2  0  0  0  0  0  0  0  0  0
   45.5840   26.7770  -14.2730 N   0  0  0  0  0  0  0  0  0  0  0  0
   44.9030   26.7270  -12.9740 C   0  0  0  0  0  0  0  0  0  0  0  0
   43.4050   26.7420  -13.1680 C   0  0  0  0  0  0  0  0  0  0  0  0
   42.5550   27.1140  -12.1190 C   0  0  0  0  0  0  0  0  0  0  0  0
   41.1670   27.1470  -12.2970 C   0  0  0  0  0  0  0  0  0  0  0  0
   40.6120   26.8130  -13.5320 C   0  0  0  0  0  0  0  0  0  0  0  0
   39.2810   26.8040  -13.8430 O   0  0  0  0  0  0  0  0  0  0  0  0
   38.6200   28.0640  -13.9070 C   0  0  0  0  0  0  0  0  0  0  0  0
   37.9590   28.1730  -15.2590 C   0  0  0  0  0  0  0  0  0  0  0  0
   37.0430   29.2060  -15.5220 C   0  0  0  0  0  0  0  0  0  0  0  0
   36.4410   29.3210  -16.7780 C   0  0  0  0  0  0  0  0  0  0  0  0
   36.7550   28.4110  -17.7850 C   0  0  0  0  0  0  0  0  0  0  0  0
   37.6720   27.3980  -17.5300 C   0  0  0  0  0  0  0  0  0  0  0  0
   37.9780   26.5260  -18.5010 F   0  0  0  0  0  0  0  0  0  0  0  0
   38.2770   27.2730  -16.2840 C   0  0  0  0  0  0  0  0  0  0  0  0
   41.4560   26.4510  -14.5830 C   0  0  0  0  0  0  0  0  0  0  0  0
   42.8420   26.4180  -14.4080 C   0  0  0  0  0  0  0  0  0  0  0  0
   46.7570   24.6660  -13.7160 C   0  0  0  0  0  0  0  0  0  0  0  0
   47.9310   24.0420  -13.3900 N   0  0  0  0  0  0  0  0  0  0  0  0
   45.6800   24.0850  -13.6470 O   0  0  0  0  0  0  0  0  0  0  0  0
   47.5113   26.6331  -12.1947 H   0  0  0  0  0  0  0  0  0  0  0  0
   48.8523   26.6038  -13.3894 H   0  0  0  0  0  0  0  0  0  0  0  0
   47.6791   27.9639  -13.3894 H   0  0  0  0  0  0  0  0  0  0  0  0
   47.3685   26.1137  -15.2052 H   0  0  0  0  0  0  0  0  0  0  0  0
   45.0110   26.3010  -14.9680 H   0  0  0  0  0  0  0  0  0  0  0  0
   45.7200   27.7550  -14.5290 H   0  0  0  0  0  0  0  0  0  0  0  0
   45.1918   25.8052  -12.4478 H   0  0  0  0  0  0  0  0  0  0  0  0
   45.1965   27.6060  -12.3814 H   0  0  0  0  0  0  0  0  0  0  0  0
   42.9837   27.3837  -11.1425 H   0  0  0  0  0  0  0  0  0  0  0  0
   40.5130   27.4368  -11.4614 H   0  0  0  0  0  0  0  0  0  0  0  0
   37.8608   28.1285  -13.1136 H   0  0  0  0  0  0  0  0  0  0  0  0
   39.3412   28.8825  -13.7660 H   0  0  0  0  0  0  0  0  0  0  0  0
   36.7976   29.9308  -14.7318 H   0  0  0  0  0  0  0  0  0  0  0  0
   35.7201   30.1291  -16.9712 H   0  0  0  0  0  0  0  0  0  0  0  0
   36.2810   28.4935  -18.7742 H   0  0  0  0  0  0  0  0  0  0  0  0
   39.0046   26.4680  -16.1036 H   0  0  0  0  0  0  0  0  0  0  0  0
   41.0251   26.1886  -15.5605 H   0  0  0  0  0  0  0  0  0  0  0  0
   43.4935   26.1362  -15.2483 H   0  0  0  0  0  0  0  0  0  0  0  0
   48.7830   24.5310  -13.4550 H   0  0  0  0  0  0  0  0  0  0  0  0
   47.9230   23.1040  -13.0930 H   0  0  0  0  0  0  0  0  0  0  0  0
  1  2  1  0
  2  3  1  0
  3  4  1  0
  4  5  1  0
  5  6  2  0
  6  7  1  0
  7  8  2  0
  8  9  1  0
  9 10  1  0
 10 11  1  0
 11 12  2  0
 12 13  1  0
 13 14  2  0
 14 15  1  0
 15 16  1  0
 15 17  2  0
  8 18  1  0
 18 19  2  0
  2 20  1  0
 20 21  1  0
 20 22  2  0
 19  5  1  0
 17 11  1  0
  1 23  1  0
  1 24  1  0
  1 25  1  0
  2 26  1  6
  3 27  1  0
  3 28  1  0
  4 29  1  0
  4 30  1  0
  6 31  1  0
  7 32  1  0
 10 33  1  0
 10 34  1  0
 12 35  1  0
 13 36  1  0
 14 37  1  0
 17 38  1  0
 18 39  1  0
 19 40  1  0
 21 41  1  0
 21 42  1  0
M  CHG  1   3   1
M  END
>  <meeko>  (8) 
{"is_sidechain": [false], "free_energy": -7.559, "intermolecular_energy": -11.056, "internal_energy": -0.254}

$$$$
