native_9IV_out
     RDKit          3D

 37 40  0  0  0  0  0  0  0  0999 V2000
   19.3240  -22.7220   40.2040 Cl  0  0  0  0  0  0  0  0  0  0  0  0
   18.7540  -23.0880   38.6180 C   0  0  0  0  0  0  0  0  0  0  0  0
   18.9840  -22.1650   37.5950 C   0  0  0  0  0  0  0  0  0  0  0  0
   18.5370  -22.4310   36.2990 C   0  0  0  0  0  0  0  0  0  0  0  0
   17.8650  -23.6220   36.0220 C   0  0  0  0  0  0  0  0  0  0  0  0
   17.6340  -24.5480   37.0420 C   0  0  0  0  0  0  0  0  0  0  0  0
   18.0620  -24.2730   38.3460 C   0  0  0  0  0  0  0  0  0  0  0  0
   17.8780  -25.1930   39.3560 O   0  0  0  0  0  0  0  0  0  0  0  0
   18.9910  -25.8690   39.7980 C   0  0  0  0  0  0  0  0  0  0  0  0
   20.0950  -26.1320   38.9850 C   0  0  0  0  0  0  0  0  0  0  0  0
   21.1760  -26.8520   39.4990 C   0  0  0  0  0  0  0  0  0  0  0  0
   21.1720  -27.3200   40.8210 C   0  0  0  0  0  0  0  0  0  0  0  0
   22.2820  -28.0670   41.2680 N   0  0  0  0  0  0  0  0  0  0  0  0
   22.9480  -27.9720   42.5000 C   0  0  0  0  0  0  0  0  0  0  0  0
   22.6300  -26.9100   43.2840 N   0  0  0  0  0  0  0  0  0  0  0  0
   23.2380  -26.7850   44.4810 C   0  0  0  0  0  0  0  0  0  0  0  0
   24.1440  -27.6030   45.0410 N   0  0  0  0  0  0  0  0  0  0  0  0
   24.4060  -28.6530   44.2490 C   0  0  0  0  0  0  0  0  0  0  0  0
   25.2680  -29.6660   44.5660 N   0  0  0  0  0  0  0  0  0  0  0  0
   25.2850  -30.5930   43.5540 C   0  0  0  0  0  0  0  0  0  0  0  0
   24.4190  -30.1570   42.5740 C   0  0  0  0  0  0  0  0  0  0  0  0
   23.8640  -28.9150   43.0000 C   0  0  0  0  0  0  0  0  0  0  0  0
   20.0380  -27.0850   41.6070 C   0  0  0  0  0  0  0  0  0  0  0  0
   18.9520  -26.3640   41.0990 C   0  0  0  0  0  0  0  0  0  0  0  0
   19.5178  -21.2276   37.8105 H   0  0  0  0  0  0  0  0  0  0  0  0
   18.7149  -21.7008   35.4957 H   0  0  0  0  0  0  0  0  0  0  0  0
   17.5169  -23.8319   34.9998 H   0  0  0  0  0  0  0  0  0  0  0  0
   17.1160  -25.4928   36.8206 H   0  0  0  0  0  0  0  0  0  0  0  0
   20.1135  -25.7741   37.9450 H   0  0  0  0  0  0  0  0  0  0  0  0
   22.0450  -27.0553   38.8560 H   0  0  0  0  0  0  0  0  0  0  0  0
   22.6330  -28.7370   40.6380 H   0  0  0  0  0  0  0  0  0  0  0  0
   22.9565  -25.9019   45.0734 H   0  0  0  0  0  0  0  0  0  0  0  0
   25.7970  -29.7230   45.3940 H   0  0  0  0  0  0  0  0  0  0  0  0
   25.8817  -31.5168   43.5294 H   0  0  0  0  0  0  0  0  0  0  0  0
   24.1957  -30.6758   41.6301 H   0  0  0  0  0  0  0  0  0  0  0  0
   20.0002  -27.4717   42.6361 H   0  0  0  0  0  0  0  0  0  0  0  0
   18.0667  -26.1880   41.7277 H   0  0  0  0  0  0  0  0  0  0  0  0
  1  2  1  0
  2  3  2  0
  3  4  1  0
  4  5  2  0
  5  6  1  0
  6  7  2  0
  7  8  1  0
  8  9  1  0
  9 10  2  0
 10 11  1  0
 11 12  2  0
 12 13  1  0
 13 14  1  0
 14 15  2  0
 15 16  1  0
 16 17  2  0
 17 18  1  0
 18 19  1  0
 19 20  1  0
 20 21  2  0
 21 22  1  0
 12 23  1  0
 23 24  2  0
  7  2  1  0
 24  9  1  0
 22 14  1  0
 22 18  2  0
  3 25  1  0
  4 26  1  0
  5 27  1  0
  6 28  1  0
 10 29  1  0
 11 30  1  0
 13 31  1  0
 16 32  1  0
 19 33  1  0
 20 34  1  0
 21 35  1  0
 23 36  1  0
 24 37  1  0
M  END
>  <meeko>  (1) 
{"is_sidechain": [false], "free_energy": -8.596, "intermolecular_energy": -10.607, "internal_energy": -0.158}

$$$$
native_9IV_out
     RDKit          3D

 37 40  0  0  0  0  0  0  0  0999 V2000
   18.1780  -23.9350   36.8320 Cl  0  0  0  0  0  0  0  0  0  0  0  0
   18.6200  -24.1230   38.4890 C   0  0  0  0  0  0  0  0  0  0  0  0
   19.3030  -23.0810   39.1210 C   0  0  0  0  0  0  0  0  0  0  0  0
   19.6730  -23.2000   40.4620 C   0  0  0  0  0  0  0  0  0  0  0  0
   19.3570  -24.3570   41.1740 C   0  0  0  0  0  0  0  0  0  0  0  0
   18.6740  -25.4000   40.5460 C   0  0  0  0  0  0  0  0  0  0  0  0
   18.3210  -25.2920   39.1960 C   0  0  0  0  0  0  0  0  0  0  0  0
   17.6120  -26.2950   38.5710 O   0  0  0  0  0  0  0  0  0  0  0  0
   18.3150  -27.4140   38.1910 C   0  0  0  0  0  0  0  0  0  0  0  0
   18.7780  -27.6180   36.8900 C   0  0  0  0  0  0  0  0  0  0  0  0
   19.4590  -28.7970   36.5740 C   0  0  0  0  0  0  0  0  0  0  0  0
   19.6850  -29.7840   37.5440 C   0  0  0  0  0  0  0  0  0  0  0  0
   20.3520  -30.9630   37.1530 N   0  0  0  0  0  0  0  0  0  0  0  0
   19.7890  -32.2070   36.8260 C   0  0  0  0  0  0  0  0  0  0  0  0
   19.8020  -32.5550   35.5140 N   0  0  0  0  0  0  0  0  0  0  0  0
   19.2820  -33.7460   35.1550 C   0  0  0  0  0  0  0  0  0  0  0  0
   18.7380  -34.6860   35.9450 N   0  0  0  0  0  0  0  0  0  0  0  0
   18.7730  -34.3170   37.2340 C   0  0  0  0  0  0  0  0  0  0  0  0
   18.3160  -35.0810   38.2720 N   0  0  0  0  0  0  0  0  0  0  0  0
   18.5230  -34.4230   39.4580 C   0  0  0  0  0  0  0  0  0  0  0  0
   19.1220  -33.2150   39.1670 C   0  0  0  0  0  0  0  0  0  0  0  0
   19.2720  -33.1310   37.7520 C   0  0  0  0  0  0  0  0  0  0  0  0
   19.1750  -29.5820   38.8320 C   0  0  0  0  0  0  0  0  0  0  0  0
   18.4930  -28.4050   39.1550 C   0  0  0  0  0  0  0  0  0  0  0  0
   19.5494  -22.1663   38.5618 H   0  0  0  0  0  0  0  0  0  0  0  0
   20.2142  -22.3805   40.9575 H   0  0  0  0  0  0  0  0  0  0  0  0
   19.6463  -24.4477   42.2314 H   0  0  0  0  0  0  0  0  0  0  0  0
   18.4133  -26.3065   41.1120 H   0  0  0  0  0  0  0  0  0  0  0  0
   18.6077  -26.8543   36.1169 H   0  0  0  0  0  0  0  0  0  0  0  0
   19.8235  -28.9531   35.5479 H   0  0  0  0  0  0  0  0  0  0  0  0
   21.3330  -30.9070   37.1030 H   0  0  0  0  0  0  0  0  0  0  0  0
   19.3064  -33.9768   34.0798 H   0  0  0  0  0  0  0  0  0  0  0  0
   17.9000  -35.9690   38.1820 H   0  0  0  0  0  0  0  0  0  0  0  0
   18.2590  -34.7921   40.4600 H   0  0  0  0  0  0  0  0  0  0  0  0
   19.4294  -32.4520   39.8973 H   0  0  0  0  0  0  0  0  0  0  0  0
   19.3125  -30.3585   39.5990 H   0  0  0  0  0  0  0  0  0  0  0  0
   18.0965  -28.2609   40.1709 H   0  0  0  0  0  0  0  0  0  0  0  0
  1  2  1  0
  2  3  2  0
  3  4  1  0
  4  5  2  0
  5  6  1  0
  6  7  2  0
  7  8  1  0
  8  9  1  0
  9 10  2  0
 10 11  1  0
 11 12  2  0
 12 13  1  0
 13 14  1  0
 14 15  2  0
 15 16  1  0
 16 17  2  0
 17 18  1  0
 18 19  1  0
 19 20  1  0
 20 21  2  0
 21 22  1  0
 12 23  1  0
 23 24  2  0
  7  2  1  0
 24  9  1  0
 22 14  1  0
 22 18  2  0
  3 25  1  0
  4 26  1  0
  5 27  1  0
  6 28  1  0
 10 29  1  0
 11 30  1  0
 13 31  1  0
 16 32  1  0
 19 33  1  0
 20 34  1  0
 21 35  1  0
 23 36  1  0
 24 37  1  0
M  END
>  <meeko>  (2) 
{"is_sidechain": [false], "free_energy": -8.496, "intermolecular_energy": -9.898, "internal_energy": -0.742}

$$$$
native_9IV_out
     RDKit          3D

 37 40  0  0  0  0  0  0  0  0999 V2000
   16.8410  -24.4860   35.4730 Cl  0  0  0  0  0  0  0  0  0  0  0  0
   17.8410  -23.8830   36.7430 C   0  0  0  0  0  0  0  0  0  0  0  0
   18.4550  -22.6390   36.5770 C   0  0  0  0  0  0  0  0  0  0  0  0
   19.2700  -22.1210   37.5860 C   0  0  0  0  0  0  0  0  0  0  0  0
   19.4680  -22.8420   38.7640 C   0  0  0  0  0  0  0  0  0  0  0  0
   18.8560  -24.0850   38.9340 C   0  0  0  0  0  0  0  0  0  0  0  0
   18.0560  -24.6160   37.9150 C   0  0  0  0  0  0  0  0  0  0  0  0
   17.4120  -25.8230   38.0820 O   0  0  0  0  0  0  0  0  0  0  0  0
   18.1530  -26.9620   37.8640 C   0  0  0  0  0  0  0  0  0  0  0  0
   18.8040  -27.2290   36.6590 C   0  0  0  0  0  0  0  0  0  0  0  0
   19.5120  -28.4240   36.5040 C   0  0  0  0  0  0  0  0  0  0  0  0
   19.5780  -29.3640   37.5420 C   0  0  0  0  0  0  0  0  0  0  0  0
   20.2840  -30.5640   37.3110 N   0  0  0  0  0  0  0  0  0  0  0  0
   19.7620  -31.8240   36.9790 C   0  0  0  0  0  0  0  0  0  0  0  0
   19.8200  -32.1810   35.6710 N   0  0  0  0  0  0  0  0  0  0  0  0
   19.3390  -33.3880   35.3090 C   0  0  0  0  0  0  0  0  0  0  0  0
   18.7990  -34.3350   36.0920 N   0  0  0  0  0  0  0  0  0  0  0  0
   18.7900  -33.9560   37.3780 C   0  0  0  0  0  0  0  0  0  0  0  0
   18.3240  -34.7230   38.4100 N   0  0  0  0  0  0  0  0  0  0  0  0
   18.4830  -34.0520   39.5950 C   0  0  0  0  0  0  0  0  0  0  0  0
   19.0580  -32.8310   39.3100 C   0  0  0  0  0  0  0  0  0  0  0  0
   19.2440  -32.7530   37.8990 C   0  0  0  0  0  0  0  0  0  0  0  0
   18.8830  -29.0990   38.7280 C   0  0  0  0  0  0  0  0  0  0  0  0
   18.1730  -27.9060   38.8890 C   0  0  0  0  0  0  0  0  0  0  0  0
   18.2964  -22.0671   35.6508 H   0  0  0  0  0  0  0  0  0  0  0  0
   19.7563  -21.1435   37.4518 H   0  0  0  0  0  0  0  0  0  0  0  0
   20.1069  -22.4306   39.5594 H   0  0  0  0  0  0  0  0  0  0  0  0
   19.0022  -24.6471   39.8682 H   0  0  0  0  0  0  0  0  0  0  0  0
   18.7601  -26.5021   35.8346 H   0  0  0  0  0  0  0  0  0  0  0  0
   20.0252  -28.6301   35.5531 H   0  0  0  0  0  0  0  0  0  0  0  0
   21.2630  -30.5100   37.3930 H   0  0  0  0  0  0  0  0  0  0  0  0
   19.3966  -33.6263   34.2367 H   0  0  0  0  0  0  0  0  0  0  0  0
   17.9340  -35.6220   38.3160 H   0  0  0  0  0  0  0  0  0  0  0  0
   18.2027  -34.4207   40.5927 H   0  0  0  0  0  0  0  0  0  0  0  0
   19.3256  -32.0549   40.0421 H   0  0  0  0  0  0  0  0  0  0  0  0
   18.8959  -29.8382   39.5425 H   0  0  0  0  0  0  0  0  0  0  0  0
   17.6295  -27.7120   39.8255 H   0  0  0  0  0  0  0  0  0  0  0  0
  1  2  1  0
  2  3  2  0
  3  4  1  0
  4  5  2  0
  5  6  1  0
  6  7  2  0
  7  8  1  0
  8  9  1  0
  9 10  2  0
 10 11  1  0
 11 12  2  0
 12 13  1  0
 13 14  1  0
 14 15  2  0
 15 16  1  0
 16 17  2  0
 17 18  1  0
 18 19  1  0
 19 20  1  0
 20 21  2  0
 21 22  1  0
 12 23  1  0
 23 24  2  0
  7  2  1  0
 24  9  1  0
 22 14  1  0
 22 18  2  0
  3 25  1  0
  4 26  1  0
  5 27  1  0
  6 28  1  0
 10 29  1  0
 11 30  1  0
 13 31  1  0
 16 32  1  0
 19 33  1  0
 20 34  1  0
 21 35  1  0
 23 36  1  0
 24 37  1  0
M  END
>  <meeko>  (3) 
{"is_sidechain": [false], "free_energy": -8.392, "intermolecular_energy": -9.637, "internal_energy": -0.875}

$$$$
native_9IV_out
     RDKit          3D

 37 40  0  0  0  0  0  0  0  0999 V2000
   19.3460  -24.5000   40.3640 Cl  0  0  0  0  0  0  0  0  0  0  0  0
   18.8490  -23.9420   38.8090 C   0  0  0  0  0  0  0  0  0  0  0  0
   19.3670  -22.7340   38.3350 C   0  0  0  0  0  0  0  0  0  0  0  0
   18.9870  -22.2540   37.0800 C   0  0  0  0  0  0  0  0  0  0  0  0
   18.0930  -22.9830   36.2950 C   0  0  0  0  0  0  0  0  0  0  0  0
   17.5740  -24.1910   36.7640 C   0  0  0  0  0  0  0  0  0  0  0  0
   17.9370  -24.6630   38.0310 C   0  0  0  0  0  0  0  0  0  0  0  0
   17.4650  -25.8720   38.4940 O   0  0  0  0  0  0  0  0  0  0  0  0
   18.1910  -26.9940   38.1660 C   0  0  0  0  0  0  0  0  0  0  0  0
   18.5860  -27.2910   36.8610 C   0  0  0  0  0  0  0  0  0  0  0  0
   19.2950  -28.4670   36.6030 C   0  0  0  0  0  0  0  0  0  0  0  0
   19.6170  -29.3590   37.6360 C   0  0  0  0  0  0  0  0  0  0  0  0
   20.3080  -30.5430   37.3040 N   0  0  0  0  0  0  0  0  0  0  0  0
   19.7700  -31.8080   37.0190 C   0  0  0  0  0  0  0  0  0  0  0  0
   19.7910  -32.1990   35.7200 N   0  0  0  0  0  0  0  0  0  0  0  0
   19.2940  -33.4110   35.4020 C   0  0  0  0  0  0  0  0  0  0  0  0
   18.7680  -34.3340   36.2230 N   0  0  0  0  0  0  0  0  0  0  0  0
   18.7950  -33.9210   37.4990 C   0  0  0  0  0  0  0  0  0  0  0  0
   18.3520  -34.6590   38.5620 N   0  0  0  0  0  0  0  0  0  0  0  0
   18.5450  -33.9580   39.7250 C   0  0  0  0  0  0  0  0  0  0  0  0
   19.1200  -32.7490   39.3930 C   0  0  0  0  0  0  0  0  0  0  0  0
   19.2700  -32.7090   37.9760 C   0  0  0  0  0  0  0  0  0  0  0  0
   19.1740  -29.0660   38.9320 C   0  0  0  0  0  0  0  0  0  0  0  0
   18.4640  -27.8910   39.1960 C   0  0  0  0  0  0  0  0  0  0  0  0
   20.0750  -22.1604   38.9512 H   0  0  0  0  0  0  0  0  0  0  0  0
   19.3926  -21.3008   36.7101 H   0  0  0  0  0  0  0  0  0  0  0  0
   17.7968  -22.6053   35.3052 H   0  0  0  0  0  0  0  0  0  0  0  0
   16.8802  -24.7717   36.1384 H   0  0  0  0  0  0  0  0  0  0  0  0
   18.3403  -26.6024   36.0391 H   0  0  0  0  0  0  0  0  0  0  0  0
   19.6056  -28.6968   35.5731 H   0  0  0  0  0  0  0  0  0  0  0  0
   21.2900  -30.4730   37.2690 H   0  0  0  0  0  0  0  0  0  0  0  0
   19.3230  -33.6775   34.3352 H   0  0  0  0  0  0  0  0  0  0  0  0
   17.9530  -35.5570   38.5020 H   0  0  0  0  0  0  0  0  0  0  0  0
   18.2878  -34.2983   40.7389 H   0  0  0  0  0  0  0  0  0  0  0  0
   19.4113  -31.9558   40.0973 H   0  0  0  0  0  0  0  0  0  0  0  0
   19.3871  -29.7683   39.7513 H   0  0  0  0  0  0  0  0  0  0  0  0
   18.1205  -27.6746   40.2184 H   0  0  0  0  0  0  0  0  0  0  0  0
  1  2  1  0
  2  3  2  0
  3  4  1  0
  4  5  2  0
  5  6  1  0
  6  7  2  0
  7  8  1  0
  8  9  1  0
  9 10  2  0
 10 11  1  0
 11 12  2  0
 12 13  1  0
 13 14  1  0
 14 15  2  0
 15 16  1  0
 16 17  2  0
 17 18  1  0
 18 19  1  0
 19 20  1  0
 20 21  2  0
 21 22  1  0
 12 23  1  0
 23 24  2  0
  7  2  1  0
 24  9  1  0
 22 14  1  0
 22 18  2  0
  3 25  1  0
  4 26  1  0
  5 27  1  0
  6 28  1  0
 10 29  1  0
 11 30  1  0
 13 31  1  0
 16 32  1  0
 19 33  1  0
 20 34  1  0
 21 35  1  0
 23 36  1  0
 24 37  1  0
M  END
>  <meeko>  (4) 
{"is_sidechain": [false], "free_energy": -8.338, "intermolecular_energy": -9.705, "internal_energy": -0.74}

$$$$
native_9IV_out
     RDKit          3D

 37 40  0  0  0  0  0  0  0  0999 V2000
   22.7190  -26.1250   45.3570 Cl  0  0  0  0  0  0  0  0  0  0  0  0
   23.3240  -27.4160   44.3860 C   0  0  0  0  0  0  0  0  0  0  0  0
   24.2470  -28.3000   44.9490 C   0  0  0  0  0  0  0  0  0  0  0  0
   24.7560  -29.3570   44.1900 C   0  0  0  0  0  0  0  0  0  0  0  0
   24.3380  -29.5350   42.8710 C   0  0  0  0  0  0  0  0  0  0  0  0
   23.4160  -28.6530   42.3050 C   0  0  0  0  0  0  0  0  0  0  0  0
   22.9210  -27.5810   43.0560 C   0  0  0  0  0  0  0  0  0  0  0  0
   21.9800  -26.7250   42.5260 O   0  0  0  0  0  0  0  0  0  0  0  0
   21.3730  -27.1110   41.3540 C   0  0  0  0  0  0  0  0  0  0  0  0
   21.7660  -26.6370   40.1010 C   0  0  0  0  0  0  0  0  0  0  0  0
   21.0790  -27.0520   38.9570 C   0  0  0  0  0  0  0  0  0  0  0  0
   19.9970  -27.9400   39.0460 C   0  0  0  0  0  0  0  0  0  0  0  0
   19.3270  -28.2960   37.8570 N   0  0  0  0  0  0  0  0  0  0  0  0
   19.5700  -29.4010   37.0250 C   0  0  0  0  0  0  0  0  0  0  0  0
   19.9260  -29.1310   35.7430 N   0  0  0  0  0  0  0  0  0  0  0  0
   20.1790  -30.1620   34.9120 C   0  0  0  0  0  0  0  0  0  0  0  0
   20.1410  -31.4760   35.1840 N   0  0  0  0  0  0  0  0  0  0  0  0
   19.8180  -31.6980   36.4660 C   0  0  0  0  0  0  0  0  0  0  0  0
   19.7270  -32.9360   37.0400 N   0  0  0  0  0  0  0  0  0  0  0  0
   19.4020  -32.8090   38.3670 C   0  0  0  0  0  0  0  0  0  0  0  0
   19.2820  -31.4620   38.6410 C   0  0  0  0  0  0  0  0  0  0  0  0
   19.5290  -30.7460   37.4330 C   0  0  0  0  0  0  0  0  0  0  0  0
   19.5900  -28.3700   40.3140 C   0  0  0  0  0  0  0  0  0  0  0  0
   20.2720  -27.9580   41.4630 C   0  0  0  0  0  0  0  0  0  0  0  0
   24.5735  -28.1641   45.9906 H   0  0  0  0  0  0  0  0  0  0  0  0
   25.4870  -30.0494   44.6329 H   0  0  0  0  0  0  0  0  0  0  0  0
   24.7353  -30.3710   42.2766 H   0  0  0  0  0  0  0  0  0  0  0  0
   23.0785  -28.8006   41.2685 H   0  0  0  0  0  0  0  0  0  0  0  0
   22.6126  -25.9400   40.0146 H   0  0  0  0  0  0  0  0  0  0  0  0
   21.3917  -26.6764   37.9715 H   0  0  0  0  0  0  0  0  0  0  0  0
   18.6000  -27.6960   37.5750 H   0  0  0  0  0  0  0  0  0  0  0  0
   20.4509  -29.8924   33.8808 H   0  0  0  0  0  0  0  0  0  0  0  0
   19.8710  -33.7890   36.5720 H   0  0  0  0  0  0  0  0  0  0  0  0
   19.2624  -33.6323   39.0830 H   0  0  0  0  0  0  0  0  0  0  0  0
   19.0389  -31.0191   39.6181 H   0  0  0  0  0  0  0  0  0  0  0  0
   18.7229  -29.0403   40.4079 H   0  0  0  0  0  0  0  0  0  0  0  0
   19.9393  -28.3026   42.4532 H   0  0  0  0  0  0  0  0  0  0  0  0
  1  2  1  0
  2  3  2  0
  3  4  1  0
  4  5  2  0
  5  6  1  0
  6  7  2  0
  7  8  1  0
  8  9  1  0
  9 10  2  0
 10 11  1  0
 11 12  2  0
 12 13  1  0
 13 14  1  0
 14 15  2  0
 15 16  1  0
 16 17  2  0
 17 18  1  0
 18 19  1  0
 19 20  1  0
 20 21  2  0
 21 22  1  0
 12 23  1  0
 23 24  2  0
  7  2  1  0
 24  9  1  0
 22 14  1  0
 22 18  2  0
  3 25  1  0
  4 26  1  0
  5 27  1  0
  6 28  1  0
 10 29  1  0
 11 30  1  0
 13 31  1  0
 16 32  1  0
 19 33  1  0
 20 34  1  0
 21 35  1  0
 23 36  1  0
 24 37  1  0
M  END
>  <meeko>  (5) 
{"is_sidechain": [false], "free_energy": -8.064, "intermolecular_energy": -9.511, "internal_energy": -0.597}

$$$$
native_9IV_out
     RDKit          3D

 37 40  0  0  0  0  0  0  0  0999 V2000
   19.6320  -32.5450   35.4490 Cl  0  0  0  0  0  0  0  0  0  0  0  0
   19.2860  -32.8160   37.1170 C   0  0  0  0  0  0  0  0  0  0  0  0
   18.5930  -33.9750   37.4760 C   0  0  0  0  0  0  0  0  0  0  0  0
   18.2980  -34.2250   38.8180 C   0  0  0  0  0  0  0  0  0  0  0  0
   18.6990  -33.3210   39.8030 C   0  0  0  0  0  0  0  0  0  0  0  0
   19.3920  -32.1630   39.4480 C   0  0  0  0  0  0  0  0  0  0  0  0
   19.6710  -31.8990   38.1010 C   0  0  0  0  0  0  0  0  0  0  0  0
   20.3880  -30.7810   37.7360 O   0  0  0  0  0  0  0  0  0  0  0  0
   19.6850  -29.6070   37.5880 C   0  0  0  0  0  0  0  0  0  0  0  0
   18.9540  -29.0220   38.6230 C   0  0  0  0  0  0  0  0  0  0  0  0
   18.2390  -27.8450   38.3850 C   0  0  0  0  0  0  0  0  0  0  0  0
   18.2430  -27.2390   37.1210 C   0  0  0  0  0  0  0  0  0  0  0  0
   17.4770  -26.0690   36.9390 N   0  0  0  0  0  0  0  0  0  0  0  0
   17.9350  -24.7670   36.6840 C   0  0  0  0  0  0  0  0  0  0  0  0
   17.7370  -24.2870   35.4290 N   0  0  0  0  0  0  0  0  0  0  0  0
   18.1520  -23.0370   35.1430 C   0  0  0  0  0  0  0  0  0  0  0  0
   18.7480  -22.1520   35.9580 N   0  0  0  0  0  0  0  0  0  0  0  0
   18.8950  -22.6530   37.1930 C   0  0  0  0  0  0  0  0  0  0  0  0
   19.4450  -21.9740   38.2450 N   0  0  0  0  0  0  0  0  0  0  0  0
   19.4220  -22.7610   39.3680 C   0  0  0  0  0  0  0  0  0  0  0  0
   18.8480  -23.9660   39.0220 C   0  0  0  0  0  0  0  0  0  0  0  0
   18.5220  -23.9140   37.6350 C   0  0  0  0  0  0  0  0  0  0  0  0
   18.9460  -27.8650   36.0840 C   0  0  0  0  0  0  0  0  0  0  0  0
   19.6630  -29.0420   36.3150 C   0  0  0  0  0  0  0  0  0  0  0  0
   18.2798  -34.6906   36.7015 H   0  0  0  0  0  0  0  0  0  0  0  0
   17.7488  -35.1357   39.0992 H   0  0  0  0  0  0  0  0  0  0  0  0
   18.4686  -33.5215   40.8597 H   0  0  0  0  0  0  0  0  0  0  0  0
   19.7192  -31.4575   40.2260 H   0  0  0  0  0  0  0  0  0  0  0  0
   18.9407  -29.4849   39.6208 H   0  0  0  0  0  0  0  0  0  0  0  0
   17.6637  -27.3867   39.2029 H   0  0  0  0  0  0  0  0  0  0  0  0
   16.5000  -26.1790   37.0000 H   0  0  0  0  0  0  0  0  0  0  0  0
   17.9806  -22.6988   34.1104 H   0  0  0  0  0  0  0  0  0  0  0  0
   19.8040  -21.0580   38.2030 H   0  0  0  0  0  0  0  0  0  0  0  0
   19.7942  -22.4814   40.3646 H   0  0  0  0  0  0  0  0  0  0  0  0
   18.6726  -24.8169   39.6967 H   0  0  0  0  0  0  0  0  0  0  0  0
   18.9336  -27.4250   35.0759 H   0  0  0  0  0  0  0  0  0  0  0  0
   20.2105  -29.5227   35.4909 H   0  0  0  0  0  0  0  0  0  0  0  0
  1  2  1  0
  2  3  2  0
  3  4  1  0
  4  5  2  0
  5  6  1  0
  6  7  2  0
  7  8  1  0
  8  9  1  0
  9 10  2  0
 10 11  1  0
 11 12  2  0
 12 13  1  0
 13 14  1  0
 14 15  2  0
 15 16  1  0
 16 17  2  0
 17 18  1  0
 18 19  1  0
 19 20  1  0
 20 21  2  0
 21 22  1  0
 12 23  1  0
 23 24  2  0
  7  2  1  0
 24  9  1  0
 22 14  1  0
 22 18  2  0
  3 25  1  0
  4 26  1  0
  5 27  1  0
  6 28  1  0
 10 29  1  0
 11 30  1  0
 13 31  1  0
 16 32  1  0
 19 33  1  0
 20 34  1  0
 21 35  1  0
 23 36  1  0
 24 37  1  0
M  END
>  <meeko>  (6) 
{"is_sidechain": [false], "free_energy": -8.017, "intermolecular_energy": -9.302, "internal_energy": -0.747}

$$$$
native_9IV_out
     RDKit          3D

 37 40  0  0  0  0  0  0  0  0999 V2000
   23.2850  -26.7520   45.3000 Cl  0  0  0  0  0  0  0  0  0  0  0  0
   23.7130  -28.0290   44.2230 C   0  0  0  0  0  0  0  0  0  0  0  0
   24.4200  -29.1230   44.7300 C   0  0  0  0  0  0  0  0  0  0  0  0
   24.7810  -30.1740   43.8850 C   0  0  0  0  0  0  0  0  0  0  0  0
   24.4320  -30.1380   42.5350 C   0  0  0  0  0  0  0  0  0  0  0  0
   23.7260  -29.0470   42.0240 C   0  0  0  0  0  0  0  0  0  0  0  0
   23.3810  -27.9820   42.8650 C   0  0  0  0  0  0  0  0  0  0  0  0
   22.6500  -26.9160   42.3870 O   0  0  0  0  0  0  0  0  0  0  0  0
   21.7650  -27.1720   41.3650 C   0  0  0  0  0  0  0  0  0  0  0  0
   21.9370  -26.6860   40.0690 C   0  0  0  0  0  0  0  0  0  0  0  0
   20.9780  -26.9640   39.0920 C   0  0  0  0  0  0  0  0  0  0  0  0
   19.8390  -27.7250   39.3930 C   0  0  0  0  0  0  0  0  0  0  0  0
   18.8940  -27.9440   38.3690 N   0  0  0  0  0  0  0  0  0  0  0  0
   19.1150  -27.9960   36.9840 C   0  0  0  0  0  0  0  0  0  0  0  0
   19.7090  -29.1180   36.5040 N   0  0  0  0  0  0  0  0  0  0  0  0
   19.9320  -29.2150   35.1780 C   0  0  0  0  0  0  0  0  0  0  0  0
   19.6260  -28.3270   34.2180 N   0  0  0  0  0  0  0  0  0  0  0  0
   19.0130  -27.2500   34.7290 C   0  0  0  0  0  0  0  0  0  0  0  0
   18.5610  -26.1910   33.9910 N   0  0  0  0  0  0  0  0  0  0  0  0
   17.9620  -25.2730   34.8160 C   0  0  0  0  0  0  0  0  0  0  0  0
   18.0380  -25.7570   36.1050 C   0  0  0  0  0  0  0  0  0  0  0  0
   18.7200  -27.0090   36.0630 C   0  0  0  0  0  0  0  0  0  0  0  0
   19.6610  -28.1670   40.7090 C   0  0  0  0  0  0  0  0  0  0  0  0
   20.6170  -27.8920   41.6910 C   0  0  0  0  0  0  0  0  0  0  0  0
   24.6921  -29.1558   45.7953 H   0  0  0  0  0  0  0  0  0  0  0  0
   25.3416  -31.0320   44.2845 H   0  0  0  0  0  0  0  0  0  0  0  0
   24.7132  -30.9698   41.8723 H   0  0  0  0  0  0  0  0  0  0  0  0
   23.4411  -29.0242   40.9618 H   0  0  0  0  0  0  0  0  0  0  0  0
   22.8241  -26.0863   39.8173 H   0  0  0  0  0  0  0  0  0  0  0  0
   21.1184  -26.5801   38.0708 H   0  0  0  0  0  0  0  0  0  0  0  0
   17.9630  -28.0770   38.6630 H   0  0  0  0  0  0  0  0  0  0  0  0
   20.4268  -30.1374   34.8398 H   0  0  0  0  0  0  0  0  0  0  0  0
   18.6510  -26.1010   33.0150 H   0  0  0  0  0  0  0  0  0  0  0  0
   17.5038  -24.3225   34.5053 H   0  0  0  0  0  0  0  0  0  0  0  0
   17.6428  -25.2648   37.0059 H   0  0  0  0  0  0  0  0  0  0  0  0
   18.7584  -28.7374   40.9736 H   0  0  0  0  0  0  0  0  0  0  0  0
   20.4632  -28.2441   42.7217 H   0  0  0  0  0  0  0  0  0  0  0  0
  1  2  1  0
  2  3  2  0
  3  4  1  0
  4  5  2  0
  5  6  1  0
  6  7  2  0
  7  8  1  0
  8  9  1  0
  9 10  2  0
 10 11  1  0
 11 12  2  0
 12 13  1  0
 13 14  1  0
 14 15  2  0
 15 16  1  0
 16 17  2  0
 17 18  1  0
 18 19  1  0
 19 20  1  0
 20 21  2  0
 21 22  1  0
 12 23  1  0
 23 24  2  0
  7  2  1  0
 24  9  1  0
 22 14  1  0
 22 18  2  0
  3 25  1  0
  4 26  1  0
  5 27  1  0
  6 28  1  0
 10 29  1  0
 11 30  1  0
 13 31  1  0
 16 32  1  0
 19 33  1  0
 20 34  1  0
 21 35  1  0
 23 36  1  0
 24 37  1  0
M  END
>  <meeko>  (7) 
{"is_sidechain": [false], "free_energy": -7.97, "intermolecular_energy": -9.335, "internal_energy": -0.657}

$$$$
native_9IV_out
     RDKit          3D

 37 40  0  0  0  0  0  0  0  0999 V2000
   19.4180  -23.2600   40.0600 Cl  0  0  0  0  0  0  0  0  0  0  0  0
   18.8270  -23.1210   38.4460 C   0  0  0  0  0  0  0  0  0  0  0  0
   19.3220  -22.0940   37.6390 C   0  0  0  0  0  0  0  0  0  0  0  0
   18.8640  -21.9540   36.3260 C   0  0  0  0  0  0  0  0  0  0  0  0
   17.9170  -22.8430   35.8180 C   0  0  0  0  0  0  0  0  0  0  0  0
   17.4210  -23.8710   36.6210 C   0  0  0  0  0  0  0  0  0  0  0  0
   17.8620  -24.0000   37.9440 C   0  0  0  0  0  0  0  0  0  0  0  0
   17.4120  -25.0330   38.7380 O   0  0  0  0  0  0  0  0  0  0  0  0
   18.0810  -26.2310   38.6440 C   0  0  0  0  0  0  0  0  0  0  0  0
   18.1300  -26.9860   37.4710 C   0  0  0  0  0  0  0  0  0  0  0  0
   18.8040  -28.2100   37.4640 C   0  0  0  0  0  0  0  0  0  0  0  0
   19.4330  -28.6970   38.6190 C   0  0  0  0  0  0  0  0  0  0  0  0
   20.0700  -29.9530   38.5530 N   0  0  0  0  0  0  0  0  0  0  0  0
   19.5050  -31.1930   38.2150 C   0  0  0  0  0  0  0  0  0  0  0  0
   18.7290  -31.7850   39.1580 N   0  0  0  0  0  0  0  0  0  0  0  0
   18.1580  -32.9720   38.8720 C   0  0  0  0  0  0  0  0  0  0  0  0
   18.2390  -33.6800   37.7340 N   0  0  0  0  0  0  0  0  0  0  0  0
   18.9870  -33.0460   36.8200 C   0  0  0  0  0  0  0  0  0  0  0  0
   19.2280  -33.5120   35.5570 N   0  0  0  0  0  0  0  0  0  0  0  0
   20.0060  -32.6130   34.8720 C   0  0  0  0  0  0  0  0  0  0  0  0
   20.2680  -31.5570   35.7190 C   0  0  0  0  0  0  0  0  0  0  0  0
   19.6360  -31.8300   36.9670 C   0  0  0  0  0  0  0  0  0  0  0  0
   19.3350  -27.9470   39.7970 C   0  0  0  0  0  0  0  0  0  0  0  0
   18.6620  -26.7220   39.8120 C   0  0  0  0  0  0  0  0  0  0  0  0
   20.0725  -21.3952   38.0370 H   0  0  0  0  0  0  0  0  0  0  0  0
   19.2508  -21.1420   35.6927 H   0  0  0  0  0  0  0  0  0  0  0  0
   17.5606  -22.7337   34.7831 H   0  0  0  0  0  0  0  0  0  0  0  0
   16.6841  -24.5796   36.2150 H   0  0  0  0  0  0  0  0  0  0  0  0
   17.6405  -26.6193   36.5567 H   0  0  0  0  0  0  0  0  0  0  0  0
   18.8419  -28.8014   36.5373 H   0  0  0  0  0  0  0  0  0  0  0  0
   21.0300  -29.9610   38.7710 H   0  0  0  0  0  0  0  0  0  0  0  0
   17.5485  -33.4170   39.6722 H   0  0  0  0  0  0  0  0  0  0  0  0
   18.8930  -34.3630   35.1930 H   0  0  0  0  0  0  0  0  0  0  0  0
   20.3572  -32.7161   33.8347 H   0  0  0  0  0  0  0  0  0  0  0  0
   20.8598  -30.6625   35.4748 H   0  0  0  0  0  0  0  0  0  0  0  0
   19.7933  -28.3264   40.7222 H   0  0  0  0  0  0  0  0  0  0  0  0
   18.5909  -26.1452   40.7459 H   0  0  0  0  0  0  0  0  0  0  0  0
  1  2  1  0
  2  3  2  0
  3  4  1  0
  4  5  2  0
  5  6  1  0
  6  7  2  0
  7  8  1  0
  8  9  1  0
  9 10  2  0
 10 11  1  0
 11 12  2  0
 12 13  1  0
 13 14  1  0
 14 15  2  0
 15 16  1  0
 16 17  2  0
 17 18  1  0
 18 19  1  0
 19 20  1  0
 20 21  2  0
 21 22  1  0
 12 23  1  0
 23 24  2  0
  7  2  1  0
 24  9  1  0
 22 14  1  0
 22 18  2  0
  3 25  1  0
  4 26  1  0
  5 27  1  0
  6 28  1  0
 10 29  1  0
 11 30  1  0
 13 31  1  0
 16 32  1  0
 19 33  1  0
 20 34  1  0
 21 35  1  0
 23 36  1  0
 24 37  1  0
M  END
>  <meeko>  (8) 
{"is_sidechain": [false], "free_energy": -7.554, "intermolecular_energy": -8.757, "internal_energy": -0.722}

$$$$
native_9IV_out
     RDKit          3D

 37 40  0  0  0  0  0  0  0  0999 V2000
   21.9710  -25.0640   45.2640 Cl  0  0  0  0  0  0  0  0  0  0  0  0
   20.4530  -24.2450   45.3200 C   0  0  0  0  0  0  0  0  0  0  0  0
   19.8690  -24.0050   46.5660 C   0  0  0  0  0  0  0  0  0  0  0  0
   18.6410  -23.3440   46.6460 C   0  0  0  0  0  0  0  0  0  0  0  0
   18.0000  -22.9170   45.4830 C   0  0  0  0  0  0  0  0  0  0  0  0
   18.5810  -23.1540   44.2360 C   0  0  0  0  0  0  0  0  0  0  0  0
   19.8010  -23.8360   44.1520 C   0  0  0  0  0  0  0  0  0  0  0  0
   20.4080  -24.0440   42.9330 O   0  0  0  0  0  0  0  0  0  0  0  0
   19.8350  -24.9770   42.1000 C   0  0  0  0  0  0  0  0  0  0  0  0
   19.8180  -26.3430   42.3830 C   0  0  0  0  0  0  0  0  0  0  0  0
   19.2430  -27.2320   41.4710 C   0  0  0  0  0  0  0  0  0  0  0  0
   18.6820  -26.7750   40.2700 C   0  0  0  0  0  0  0  0  0  0  0  0
   18.1450  -27.7270   39.3790 N   0  0  0  0  0  0  0  0  0  0  0  0
   18.7930  -28.3850   38.3220 C   0  0  0  0  0  0  0  0  0  0  0  0
   19.0820  -27.6380   37.2260 N   0  0  0  0  0  0  0  0  0  0  0  0
   19.7140  -28.2270   36.1910 C   0  0  0  0  0  0  0  0  0  0  0  0
   20.1290  -29.4990   36.0870 N   0  0  0  0  0  0  0  0  0  0  0  0
   19.8530  -30.1930   37.2010 C   0  0  0  0  0  0  0  0  0  0  0  0
   20.1790  -31.5060   37.3980 N   0  0  0  0  0  0  0  0  0  0  0  0
   19.7790  -31.9010   38.6490 C   0  0  0  0  0  0  0  0  0  0  0  0
   19.1820  -30.8170   39.2580 C   0  0  0  0  0  0  0  0  0  0  0  0
   19.2110  -29.7280   38.3390 C   0  0  0  0  0  0  0  0  0  0  0  0
   18.7470  -25.4060   39.9830 C   0  0  0  0  0  0  0  0  0  0  0  0
   19.3210  -24.5110   40.8910 C   0  0  0  0  0  0  0  0  0  0  0  0
   20.3761  -24.3365   47.4841 H   0  0  0  0  0  0  0  0  0  0  0  0
   18.1790  -23.1600   47.6272 H   0  0  0  0  0  0  0  0  0  0  0  0
   17.0352  -22.3927   45.5486 H   0  0  0  0  0  0  0  0  0  0  0  0
   18.0809  -22.8054   43.3204 H   0  0  0  0  0  0  0  0  0  0  0  0
   20.2553  -26.7186   43.3199 H   0  0  0  0  0  0  0  0  0  0  0  0
   19.2303  -28.3080   41.6990 H   0  0  0  0  0  0  0  0  0  0  0  0
   17.1970  -27.9580   39.5150 H   0  0  0  0  0  0  0  0  0  0  0  0
   19.9149  -27.5835   35.3218 H   0  0  0  0  0  0  0  0  0  0  0  0
   20.6330  -32.0820   36.7410 H   0  0  0  0  0  0  0  0  0  0  0  0
   19.9105  -32.9013   39.0873 H   0  0  0  0  0  0  0  0  0  0  0  0
   18.7586  -30.7966   40.2730 H   0  0  0  0  0  0  0  0  0  0  0  0
   18.3417  -25.0302   39.0319 H   0  0  0  0  0  0  0  0  0  0  0  0
   19.3670  -23.4385   40.6511 H   0  0  0  0  0  0  0  0  0  0  0  0
  1  2  1  0
  2  3  2  0
  3  4  1  0
  4  5  2  0
  5  6  1  0
  6  7  2  0
  7  8  1  0
  8  9  1  0
  9 10  2  0
 10 11  1  0
 11 12  2  0
 12 13  1  0
 13 14  1  0
 14 15  2  0
 15 16  1  0
 16 17  2  0
 17 18  1  0
 18 19  1  0
 19 20  1  0
 20 21  2  0
 21 22  1  0
 12 23  1  0
 23 24  2  0
  7  2  1  0
 24  9  1  0
 22 14  1  0
 22 18  2  0
  3 25  1  0
  4 26  1  0
  5 27  1  0
  6 28  1  0
 10 29  1  0
 11 30  1  0
 13 31  1  0
 16 32  1  0
 19 33  1  0
 20 34  1  0
 21 35  1  0
 23 36  1  0
 24 37  1  0
M  END
>  <meeko>  (9) 
{"is_sidechain": [false], "free_energy": -7.545, "intermolecular_energy": -8.584, "internal_energy": -0.883}

$$$$
