native_9IV_out
     RDKit          3D

 37 40  0  0  0  0  0  0  0  0999 V2000
   73.3480   39.0170   -1.6680 Cl  0  0  0  0  0  0  0  0  0  0  0  0
   72.2360   38.4330   -0.4860 C   0  0  0  0  0  0  0  0  0  0  0  0
   72.2540   37.0730   -0.1670 C   0  0  0  0  0  0  0  0  0  0  0  0
   71.3670   36.5670    0.7870 C   0  0  0  0  0  0  0  0  0  0  0  0
   70.4680   37.4200    1.4260 C   0  0  0  0  0  0  0  0  0  0  0  0
   70.4480   38.7800    1.1110 C   0  0  0  0  0  0  0  0  0  0  0  0
   71.3210   39.2850    0.1390 C   0  0  0  0  0  0  0  0  0  0  0  0
   71.3420   40.6310   -0.1560 O   0  0  0  0  0  0  0  0  0  0  0  0
   70.2450   41.1450   -0.8090 C   0  0  0  0  0  0  0  0  0  0  0  0
   69.4540   40.3930   -1.6790 C   0  0  0  0  0  0  0  0  0  0  0  0
   68.3740   40.9970   -2.3280 C   0  0  0  0  0  0  0  0  0  0  0  0
   68.0700   42.3500   -2.1220 C   0  0  0  0  0  0  0  0  0  0  0  0
   66.9850   42.9050   -2.8320 N   0  0  0  0  0  0  0  0  0  0  0  0
   66.9830   43.4410   -4.1290 C   0  0  0  0  0  0  0  0  0  0  0  0
   65.7880   43.8680   -4.6100 N   0  0  0  0  0  0  0  0  0  0  0  0
   65.7410   44.4000   -5.8480 C   0  0  0  0  0  0  0  0  0  0  0  0
   66.7540   44.5880   -6.7090 N   0  0  0  0  0  0  0  0  0  0  0  0
   67.9200   44.1830   -6.1840 C   0  0  0  0  0  0  0  0  0  0  0  0
   69.1280   44.2740   -6.8170 N   0  0  0  0  0  0  0  0  0  0  0  0
   70.1180   43.7970   -5.9960 C   0  0  0  0  0  0  0  0  0  0  0  0
   69.5260   43.3910   -4.8190 C   0  0  0  0  0  0  0  0  0  0  0  0
   68.1230   43.6190   -4.9340 C   0  0  0  0  0  0  0  0  0  0  0  0
   68.9010   43.0990   -1.2810 C   0  0  0  0  0  0  0  0  0  0  0  0
   69.9830   42.5020   -0.6280 C   0  0  0  0  0  0  0  0  0  0  0  0
   72.9665   36.4003   -0.6668 H   0  0  0  0  0  0  0  0  0  0  0  0
   71.3780   35.4951    1.0340 H   0  0  0  0  0  0  0  0  0  0  0  0
   69.7733   37.0207    2.1796 H   0  0  0  0  0  0  0  0  0  0  0  0
   69.7475   39.4541    1.6256 H   0  0  0  0  0  0  0  0  0  0  0  0
   69.6796   39.3305   -1.8528 H   0  0  0  0  0  0  0  0  0  0  0  0
   67.7519   40.4010   -3.0119 H   0  0  0  0  0  0  0  0  0  0  0  0
   66.1220   42.9190   -2.3580 H   0  0  0  0  0  0  0  0  0  0  0  0
   64.7480   44.7202   -6.1964 H   0  0  0  0  0  0  0  0  0  0  0  0
   69.2680   44.6290   -7.7250 H   0  0  0  0  0  0  0  0  0  0  0  0
   71.1908   43.7474   -6.2339 H   0  0  0  0  0  0  0  0  0  0  0  0
   70.0439   42.9666   -3.9462 H   0  0  0  0  0  0  0  0  0  0  0  0
   68.7002   44.1702   -1.1322 H   0  0  0  0  0  0  0  0  0  0  0  0
   70.6282   43.1035    0.0292 H   0  0  0  0  0  0  0  0  0  0  0  0
  1  2  1  0
  2  3  2  0
  3  4  1  0
  4  5  2  0
  5  6  1  0
  6  7  2  0
  7  8  1  0
  8  9  1  0
  9 10  2  0
 10 11  1  0
 11 12  2  0
 12 13  1  0
 13 14  1  0
 14 15  2  0
 15 16  1  0
 16 17  2  0
 17 18  1  0
 18 19  1  0
 19 20  1  0
 20 21  2  0
 21 22  1  0
 12 23  1  0
 23 24  2  0
  7  2  1  0
 24  9  1  0
 22 14  1  0
 22 18  2  0
  3 25  1  0
  4 26  1  0
  5 27  1  0
  6 28  1  0
 10 29  1  0
 11 30  1  0
 13 31  1  0
 16 32  1  0
 19 33  1  0
 20 34  1  0
 21 35  1  0
 23 36  1  0
 24 37  1  0
M  END
>  <meeko>  (1) 
{"is_sidechain": [false], "free_energy": -8.098, "intermolecular_energy": -9.992, "internal_energy": -0.661}

$$$$
native_9IV_out
     RDKit          3D

 37 40  0  0  0  0  0  0  0  0999 V2000
   73.3810   39.1200   -1.4030 Cl  0  0  0  0  0  0  0  0  0  0  0  0
   72.2550   38.4120   -0.3050 C   0  0  0  0  0  0  0  0  0  0  0  0
   72.3290   37.0370   -0.0650 C   0  0  0  0  0  0  0  0  0  0  0  0
   71.4320   36.4330    0.8190 C   0  0  0  0  0  0  0  0  0  0  0  0
   70.4650   37.2010    1.4690 C   0  0  0  0  0  0  0  0  0  0  0  0
   70.3880   38.5750    1.2320 C   0  0  0  0  0  0  0  0  0  0  0  0
   71.2720   39.1790    0.3300 C   0  0  0  0  0  0  0  0  0  0  0  0
   71.2360   40.5400    0.1140 O   0  0  0  0  0  0  0  0  0  0  0  0
   70.2520   41.0150   -0.7210 C   0  0  0  0  0  0  0  0  0  0  0  0
   69.5550   40.2020   -1.6160 C   0  0  0  0  0  0  0  0  0  0  0  0
   68.5890   40.7660   -2.4550 C   0  0  0  0  0  0  0  0  0  0  0  0
   68.3080   42.1390   -2.4150 C   0  0  0  0  0  0  0  0  0  0  0  0
   67.3440   42.6490   -3.3090 N   0  0  0  0  0  0  0  0  0  0  0  0
   67.5590   43.3020   -4.5330 C   0  0  0  0  0  0  0  0  0  0  0  0
   68.8150   43.2390   -5.0430 N   0  0  0  0  0  0  0  0  0  0  0  0
   69.0640   43.8440   -6.2220 C   0  0  0  0  0  0  0  0  0  0  0  0
   68.2080   44.5180   -7.0070 N   0  0  0  0  0  0  0  0  0  0  0  0
   66.9740   44.5290   -6.4820 C   0  0  0  0  0  0  0  0  0  0  0  0
   65.8880   45.1170   -7.0690 N   0  0  0  0  0  0  0  0  0  0  0  0
   64.7780   44.9240   -6.2860 C   0  0  0  0  0  0  0  0  0  0  0  0
   65.1680   44.2010   -5.1790 C   0  0  0  0  0  0  0  0  0  0  0  0
   66.5680   43.9570   -5.2860 C   0  0  0  0  0  0  0  0  0  0  0  0
   69.0490   42.9450   -1.5420 C   0  0  0  0  0  0  0  0  0  0  0  0
   70.0160   42.3880   -0.7000 C   0  0  0  0  0  0  0  0  0  0  0  0
   73.0937   36.4305   -0.5724 H   0  0  0  0  0  0  0  0  0  0  0  0
   71.4879   35.3500    1.0032 H   0  0  0  0  0  0  0  0  0  0  0  0
   69.7629   36.7237    2.1685 H   0  0  0  0  0  0  0  0  0  0  0  0
   69.6335   39.1822    1.7535 H   0  0  0  0  0  0  0  0  0  0  0  0
   69.7645   39.1231   -1.6612 H   0  0  0  0  0  0  0  0  0  0  0  0
   68.0405   40.1218   -3.1580 H   0  0  0  0  0  0  0  0  0  0  0  0
   66.4040   42.5340   -3.0400 H   0  0  0  0  0  0  0  0  0  0  0  0
   70.0995   43.7770   -6.5870 H   0  0  0  0  0  0  0  0  0  0  0  0
   65.9000   45.6050   -7.9230 H   0  0  0  0  0  0  0  0  0  0  0  0
   63.7605   45.2816   -6.5025 H   0  0  0  0  0  0  0  0  0  0  0  0
   64.5143   43.8708   -4.3583 H   0  0  0  0  0  0  0  0  0  0  0  0
   68.8680   44.0297   -1.5185 H   0  0  0  0  0  0  0  0  0  0  0  0
   70.5910   43.0342   -0.0204 H   0  0  0  0  0  0  0  0  0  0  0  0
  1  2  1  0
  2  3  2  0
  3  4  1  0
  4  5  2  0
  5  6  1  0
  6  7  2  0
  7  8  1  0
  8  9  1  0
  9 10  2  0
 10 11  1  0
 11 12  2  0
 12 13  1  0
 13 14  1  0
 14 15  2  0
 15 16  1  0
 16 17  2  0
 17 18  1  0
 18 19  1  0
 19 20  1  0
 20 21  2  0
 21 22  1  0
 12 23  1  0
 23 24  2  0
  7  2  1  0
 24  9  1  0
 22 14  1  0
 22 18  2  0
  3 25  1  0
  4 26  1  0
  5 27  1  0
  6 28  1  0
 10 29  1  0
 11 30  1  0
 13 31  1  0
 16 32  1  0
 19 33  1  0
 20 34  1  0
 21 35  1  0
 23 36  1  0
 24 37  1  0
M  END
>  <meeko>  (2) 
{"is_sidechain": [false], "free_energy": -7.845, "intermolecular_energy": -9.741, "internal_energy": -0.599}

$$$$
native_9IV_out
     RDKit          3D

 37 40  0  0  0  0  0  0  0  0999 V2000
   68.3330   43.9450   -2.3920 Cl  0  0  0  0  0  0  0  0  0  0  0  0
   68.2450   44.0350   -4.1120 C   0  0  0  0  0  0  0  0  0  0  0  0
   66.9860   44.0180   -4.7190 C   0  0  0  0  0  0  0  0  0  0  0  0
   66.8790   44.0910   -6.1090 C   0  0  0  0  0  0  0  0  0  0  0  0
   68.0280   44.1880   -6.8950 C   0  0  0  0  0  0  0  0  0  0  0  0
   69.2880   44.2060   -6.2930 C   0  0  0  0  0  0  0  0  0  0  0  0
   69.3980   44.1110   -4.9000 C   0  0  0  0  0  0  0  0  0  0  0  0
   70.6310   44.1670   -4.2870 O   0  0  0  0  0  0  0  0  0  0  0  0
   71.1550   42.9810   -3.8270 C   0  0  0  0  0  0  0  0  0  0  0  0
   70.9650   41.7610   -4.4770 C   0  0  0  0  0  0  0  0  0  0  0  0
   71.5040   40.5940   -3.9300 C   0  0  0  0  0  0  0  0  0  0  0  0
   72.2340   40.6250   -2.7340 C   0  0  0  0  0  0  0  0  0  0  0  0
   72.7260   39.4070   -2.2190 N   0  0  0  0  0  0  0  0  0  0  0  0
   72.1400   38.5790   -1.2490 C   0  0  0  0  0  0  0  0  0  0  0  0
   72.9370   37.6290   -0.6990 N   0  0  0  0  0  0  0  0  0  0  0  0
   72.4190   36.8170    0.2450 C   0  0  0  0  0  0  0  0  0  0  0  0
   71.1750   36.8210    0.7510 N   0  0  0  0  0  0  0  0  0  0  0  0
   70.4310   37.7930    0.2040 C   0  0  0  0  0  0  0  0  0  0  0  0
   69.1320   38.0570    0.5400 N   0  0  0  0  0  0  0  0  0  0  0  0
   68.6750   39.1280   -0.1850 C   0  0  0  0  0  0  0  0  0  0  0  0
   69.7030   39.5510   -1.0000 C   0  0  0  0  0  0  0  0  0  0  0  0
   70.8220   38.6980   -0.7720 C   0  0  0  0  0  0  0  0  0  0  0  0
   72.3770   41.8510   -2.0730 C   0  0  0  0  0  0  0  0  0  0  0  0
   71.8400   43.0230   -2.6140 C   0  0  0  0  0  0  0  0  0  0  0  0
   66.0788   43.9471   -4.1009 H   0  0  0  0  0  0  0  0  0  0  0  0
   65.8877   44.0720   -6.5853 H   0  0  0  0  0  0  0  0  0  0  0  0
   67.9412   44.2503   -7.9898 H   0  0  0  0  0  0  0  0  0  0  0  0
   70.1929   44.2947   -6.9121 H   0  0  0  0  0  0  0  0  0  0  0  0
   70.3934   41.7183   -5.4159 H   0  0  0  0  0  0  0  0  0  0  0  0
   71.3529   39.6347   -4.4466 H   0  0  0  0  0  0  0  0  0  0  0  0
   73.5860   39.1010   -2.5860 H   0  0  0  0  0  0  0  0  0  0  0  0
   73.1011   36.0558    0.6516 H   0  0  0  0  0  0  0  0  0  0  0  0
   68.6040   37.5550    1.2020 H   0  0  0  0  0  0  0  0  0  0  0  0
   67.6693   39.5697   -0.1265 H   0  0  0  0  0  0  0  0  0  0  0  0
   69.6663   40.3970   -1.7020 H   0  0  0  0  0  0  0  0  0  0  0  0
   72.9184   41.8926   -1.1164 H   0  0  0  0  0  0  0  0  0  0  0  0
   71.9582   43.9786   -2.0821 H   0  0  0  0  0  0  0  0  0  0  0  0
  1  2  1  0
  2  3  2  0
  3  4  1  0
  4  5  2  0
  5  6  1  0
  6  7  2  0
  7  8  1  0
  8  9  1  0
  9 10  2  0
 10 11  1  0
 11 12  2  0
 12 13  1  0
 13 14  1  0
 14 15  2  0
 15 16  1  0
 16 17  2  0
 17 18  1  0
 18 19  1  0
 19 20  1  0
 20 21  2  0
 21 22  1  0
 12 23  1  0
 23 24  2  0
  7  2  1  0
 24  9  1  0
 22 14  1  0
 22 18  2  0
  3 25  1  0
  4 26  1  0
  5 27  1  0
  6 28  1  0
 10 29  1  0
 11 30  1  0
 13 31  1  0
 16 32  1  0
 19 33  1  0
 20 34  1  0
 21 35  1  0
 23 36  1  0
 24 37  1  0
M  END
>  <meeko>  (3) 
{"is_sidechain": [false], "free_energy": -7.633, "intermolecular_energy": -9.342, "internal_energy": -0.737}

$$$$
native_9IV_out
     RDKit          3D

 37 40  0  0  0  0  0  0  0  0999 V2000
   73.2790   45.9090   -4.4500 Cl  0  0  0  0  0  0  0  0  0  0  0  0
   73.7970   44.8300   -5.6920 C   0  0  0  0  0  0  0  0  0  0  0  0
   74.8580   45.2170   -6.5150 C   0  0  0  0  0  0  0  0  0  0  0  0
   75.3030   44.3660   -7.5290 C   0  0  0  0  0  0  0  0  0  0  0  0
   74.6940   43.1260   -7.7180 C   0  0  0  0  0  0  0  0  0  0  0  0
   73.6330   42.7350   -6.8980 C   0  0  0  0  0  0  0  0  0  0  0  0
   73.1710   43.5960   -5.8950 C   0  0  0  0  0  0  0  0  0  0  0  0
   72.1530   43.2100   -5.0510 O   0  0  0  0  0  0  0  0  0  0  0  0
   72.4250   42.1930   -4.1650 C   0  0  0  0  0  0  0  0  0  0  0  0
   73.2060   42.3680   -3.0220 C   0  0  0  0  0  0  0  0  0  0  0  0
   73.4650   41.2770   -2.1870 C   0  0  0  0  0  0  0  0  0  0  0  0
   72.9520   40.0050   -2.4790 C   0  0  0  0  0  0  0  0  0  0  0  0
   73.2740   38.9410   -1.6120 N   0  0  0  0  0  0  0  0  0  0  0  0
   72.4140   38.2240   -0.7650 C   0  0  0  0  0  0  0  0  0  0  0  0
   72.9590   37.1850   -0.0820 N   0  0  0  0  0  0  0  0  0  0  0  0
   72.1710   36.4750    0.7500 C   0  0  0  0  0  0  0  0  0  0  0  0
   70.8700   36.6620    1.0230 N   0  0  0  0  0  0  0  0  0  0  0  0
   70.3790   37.7150    0.3530 C   0  0  0  0  0  0  0  0  0  0  0  0
   69.0910   38.1640    0.4490 N   0  0  0  0  0  0  0  0  0  0  0  0
   68.9260   39.2710   -0.3440 C   0  0  0  0  0  0  0  0  0  0  0  0
   70.1330   39.5280   -0.9590 C   0  0  0  0  0  0  0  0  0  0  0  0
   71.0620   38.5340   -0.5340 C   0  0  0  0  0  0  0  0  0  0  0  0
   72.2080   39.8400   -3.6530 C   0  0  0  0  0  0  0  0  0  0  0  0
   71.9460   40.9260   -4.4930 C   0  0  0  0  0  0  0  0  0  0  0  0
   75.3431   46.1927   -6.3640 H   0  0  0  0  0  0  0  0  0  0  0  0
   76.1349   44.6743   -8.1793 H   0  0  0  0  0  0  0  0  0  0  0  0
   75.0495   42.4549   -8.5138 H   0  0  0  0  0  0  0  0  0  0  0  0
   73.1608   41.7517   -7.0400 H   0  0  0  0  0  0  0  0  0  0  0  0
   73.6159   43.3595   -2.7791 H   0  0  0  0  0  0  0  0  0  0  0  0
   74.0809   41.4186   -1.2867 H   0  0  0  0  0  0  0  0  0  0  0  0
   74.2200   38.6670   -1.5980 H   0  0  0  0  0  0  0  0  0  0  0  0
   72.6554   35.6362    1.2712 H   0  0  0  0  0  0  0  0  0  0  0  0
   68.3880   37.7550    1.0030 H   0  0  0  0  0  0  0  0  0  0  0  0
   67.9984   39.8492   -0.4671 H   0  0  0  0  0  0  0  0  0  0  0  0
   70.3420   40.3541   -1.6546 H   0  0  0  0  0  0  0  0  0  0  0  0
   71.8248   38.8435   -3.9178 H   0  0  0  0  0  0  0  0  0  0  0  0
   71.3615   40.7806   -5.4134 H   0  0  0  0  0  0  0  0  0  0  0  0
  1  2  1  0
  2  3  2  0
  3  4  1  0
  4  5  2  0
  5  6  1  0
  6  7  2  0
  7  8  1  0
  8  9  1  0
  9 10  2  0
 10 11  1  0
 11 12  2  0
 12 13  1  0
 13 14  1  0
 14 15  2  0
 15 16  1  0
 16 17  2  0
 17 18  1  0
 18 19  1  0
 19 20  1  0
 20 21  2  0
 21 22  1  0
 12 23  1  0
 23 24  2  0
  7  2  1  0
 24  9  1  0
 22 14  1  0
 22 18  2  0
  3 25  1  0
  4 26  1  0
  5 27  1  0
  6 28  1  0
 10 29  1  0
 11 30  1  0
 13 31  1  0
 16 32  1  0
 19 33  1  0
 20 34  1  0
 21 35  1  0
 23 36  1  0
 24 37  1  0
M  END
>  <meeko>  (4) 
{"is_sidechain": [false], "free_energy": -7.532, "intermolecular_energy": -9.389, "internal_energy": -0.566}

$$$$
native_9IV_out
     RDKit          3D

 37 40  0  0  0  0  0  0  0  0999 V2000
   64.8820   44.6980   -4.4140 Cl  0  0  0  0  0  0  0  0  0  0  0  0
   66.2630   44.5560   -5.4390 C   0  0  0  0  0  0  0  0  0  0  0  0
   66.0710   44.5540   -6.8230 C   0  0  0  0  0  0  0  0  0  0  0  0
   67.1670   44.4410   -7.6800 C   0  0  0  0  0  0  0  0  0  0  0  0
   68.4560   44.3380   -7.1570 C   0  0  0  0  0  0  0  0  0  0  0  0
   68.6520   44.3400   -5.7750 C   0  0  0  0  0  0  0  0  0  0  0  0
   67.5530   44.4310   -4.9130 C   0  0  0  0  0  0  0  0  0  0  0  0
   67.7310   44.4750   -3.5470 O   0  0  0  0  0  0  0  0  0  0  0  0
   68.1610   43.3200   -2.9350 C   0  0  0  0  0  0  0  0  0  0  0  0
   67.7780   42.0460   -3.3580 C   0  0  0  0  0  0  0  0  0  0  0  0
   68.2320   40.9210   -2.6640 C   0  0  0  0  0  0  0  0  0  0  0  0
   69.0670   41.0490   -1.5450 C   0  0  0  0  0  0  0  0  0  0  0  0
   69.4650   39.8760   -0.8720 N   0  0  0  0  0  0  0  0  0  0  0  0
   70.7250   39.2560   -0.8860 C   0  0  0  0  0  0  0  0  0  0  0  0
   71.6630   39.8030   -1.7000 N   0  0  0  0  0  0  0  0  0  0  0  0
   72.8900   39.2460   -1.7370 C   0  0  0  0  0  0  0  0  0  0  0  0
   73.3440   38.1890   -1.0440 N   0  0  0  0  0  0  0  0  0  0  0  0
   72.3970   37.6990   -0.2300 C   0  0  0  0  0  0  0  0  0  0  0  0
   72.5740   36.6400    0.6160 N   0  0  0  0  0  0  0  0  0  0  0  0
   71.4210   36.4140    1.3230 C   0  0  0  0  0  0  0  0  0  0  0  0
   70.4900   37.3470    0.9150 C   0  0  0  0  0  0  0  0  0  0  0  0
   71.0970   38.1610   -0.0860 C   0  0  0  0  0  0  0  0  0  0  0  0
   69.4040   42.3360   -1.1100 C   0  0  0  0  0  0  0  0  0  0  0  0
   68.9540   43.4660   -1.7990 C   0  0  0  0  0  0  0  0  0  0  0  0
   65.0558   44.6415   -7.2374 H   0  0  0  0  0  0  0  0  0  0  0  0
   67.0140   44.4332   -8.7693 H   0  0  0  0  0  0  0  0  0  0  0  0
   69.3188   44.2551   -7.8343 H   0  0  0  0  0  0  0  0  0  0  0  0
   69.6697   44.2701   -5.3635 H   0  0  0  0  0  0  0  0  0  0  0  0
   67.1221   41.9281   -4.2332 H   0  0  0  0  0  0  0  0  0  0  0  0
   67.9292   39.9187   -3.0012 H   0  0  0  0  0  0  0  0  0  0  0  0
   68.7740   39.4370   -0.3250 H   0  0  0  0  0  0  0  0  0  0  0  0
   73.6108   39.7169   -2.4216 H   0  0  0  0  0  0  0  0  0  0  0  0
   73.4040   36.1180    0.7050 H   0  0  0  0  0  0  0  0  0  0  0  0
   71.2662   35.6302    2.0791 H   0  0  0  0  0  0  0  0  0  0  0  0
   69.4622   37.4454    1.2945 H   0  0  0  0  0  0  0  0  0  0  0  0
   70.0309   42.4598   -0.2146 H   0  0  0  0  0  0  0  0  0  0  0  0
   69.2262   44.4709   -1.4440 H   0  0  0  0  0  0  0  0  0  0  0  0
  1  2  1  0
  2  3  2  0
  3  4  1  0
  4  5  2  0
  5  6  1  0
  6  7  2  0
  7  8  1  0
  8  9  1  0
  9 10  2  0
 10 11  1  0
 11 12  2  0
 12 13  1  0
 13 14  1  0
 14 15  2  0
 15 16  1  0
 16 17  2  0
 17 18  1  0
 18 19  1  0
 19 20  1  0
 20 21  2  0
 21 22  1  0
 12 23  1  0
 23 24  2  0
  7  2  1  0
 24  9  1  0
 22 14  1  0
 22 18  2  0
  3 25  1  0
  4 26  1  0
  5 27  1  0
  6 28  1  0
 10 29  1  0
 11 30  1  0
 13 31  1  0
 16 32  1  0
 19 33  1  0
 20 34  1  0
 21 35  1  0
 23 36  1  0
 24 37  1  0
M  END
>  <meeko>  (5) 
{"is_sidechain": [false], "free_energy": -7.482, "intermolecular_energy": -9.246, "internal_energy": -0.647}

$$$$
native_9IV_out
     RDKit          3D

 37 40  0  0  0  0  0  0  0  0999 V2000
   68.8800   44.1900   -6.7140 Cl  0  0  0  0  0  0  0  0  0  0  0  0
   68.2210   44.1920   -5.1200 C   0  0  0  0  0  0  0  0  0  0  0  0
   66.8360   44.3050   -4.9700 C   0  0  0  0  0  0  0  0  0  0  0  0
   66.2700   44.3090   -3.6930 C   0  0  0  0  0  0  0  0  0  0  0  0
   67.0850   44.1940   -2.5670 C   0  0  0  0  0  0  0  0  0  0  0  0
   68.4680   44.0810   -2.7130 C   0  0  0  0  0  0  0  0  0  0  0  0
   69.0400   44.0980   -3.9910 C   0  0  0  0  0  0  0  0  0  0  0  0
   70.4000   43.9480   -4.1550 O   0  0  0  0  0  0  0  0  0  0  0  0
   70.9550   42.7660   -3.7220 C   0  0  0  0  0  0  0  0  0  0  0  0
   70.7130   41.5380   -4.3390 C   0  0  0  0  0  0  0  0  0  0  0  0
   71.2890   40.3760   -3.8200 C   0  0  0  0  0  0  0  0  0  0  0  0
   72.1100   40.4210   -2.6840 C   0  0  0  0  0  0  0  0  0  0  0  0
   72.6370   39.2090   -2.1920 N   0  0  0  0  0  0  0  0  0  0  0  0
   72.1240   38.3940   -1.1710 C   0  0  0  0  0  0  0  0  0  0  0  0
   72.9660   37.4640   -0.6530 N   0  0  0  0  0  0  0  0  0  0  0  0
   72.5190   36.6660    0.3360 C   0  0  0  0  0  0  0  0  0  0  0  0
   71.3100   36.6650    0.9200 N   0  0  0  0  0  0  0  0  0  0  0  0
   70.5200   37.6180    0.4020 C   0  0  0  0  0  0  0  0  0  0  0  0
   69.2420   37.8740    0.8150 N   0  0  0  0  0  0  0  0  0  0  0  0
   68.7260   38.9250    0.1000 C   0  0  0  0  0  0  0  0  0  0  0  0
   69.6960   39.3420   -0.7880 C   0  0  0  0  0  0  0  0  0  0  0  0
   70.8380   38.5070   -0.6140 C   0  0  0  0  0  0  0  0  0  0  0  0
   72.3060   41.6550   -2.0520 C   0  0  0  0  0  0  0  0  0  0  0  0
   71.7320   42.8220   -2.5660 C   0  0  0  0  0  0  0  0  0  0  0  0
   66.1918   44.3908   -5.8575 H   0  0  0  0  0  0  0  0  0  0  0  0
   65.1804   44.4029   -3.5753 H   0  0  0  0  0  0  0  0  0  0  0  0
   66.6368   44.1924   -1.5624 H   0  0  0  0  0  0  0  0  0  0  0  0
   69.1086   43.9786   -1.8247 H   0  0  0  0  0  0  0  0  0  0  0  0
   70.0711   41.4852   -5.2307 H   0  0  0  0  0  0  0  0  0  0  0  0
   71.0955   39.4104   -4.3101 H   0  0  0  0  0  0  0  0  0  0  0  0
   73.4670   38.8960   -2.6180 H   0  0  0  0  0  0  0  0  0  0  0  0
   73.2351   35.9209    0.7128 H   0  0  0  0  0  0  0  0  0  0  0  0
   68.7630   37.3790    1.5180 H   0  0  0  0  0  0  0  0  0  0  0  0
   67.7208   39.3570    0.2141 H   0  0  0  0  0  0  0  0  0  0  0  0
   69.6043   40.1722   -1.5038 H   0  0  0  0  0  0  0  0  0  0  0  0
   72.9189   41.7071   -1.1401 H   0  0  0  0  0  0  0  0  0  0  0  0
   71.8936   43.7842   -2.0581 H   0  0  0  0  0  0  0  0  0  0  0  0
  1  2  1  0
  2  3  2  0
  3  4  1  0
  4  5  2  0
  5  6  1  0
  6  7  2  0
  7  8  1  0
  8  9  1  0
  9 10  2  0
 10 11  1  0
 11 12  2  0
 12 13  1  0
 13 14  1  0
 14 15  2  0
 15 16  1  0
 16 17  2  0
 17 18  1  0
 18 19  1  0
 19 20  1  0
 20 21  2  0
 21 22  1  0
 12 23  1  0
 23 24  2  0
  7  2  1  0
 24  9  1  0
 22 14  1  0
 22 18  2  0
  3 25  1  0
  4 26  1  0
  5 27  1  0
  6 28  1  0
 10 29  1  0
 11 30  1  0
 13 31  1  0
 16 32  1  0
 19 33  1  0
 20 34  1  0
 21 35  1  0
 23 36  1  0
 24 37  1  0
M  END
>  <meeko>  (6) 
{"is_sidechain": [false], "free_energy": -7.478, "intermolecular_energy": -9.03, "internal_energy": -0.858}

$$$$
native_9IV_out
     RDKit          3D

 37 40  0  0  0  0  0  0  0  0999 V2000
   68.0490   38.9160    0.1180 Cl  0  0  0  0  0  0  0  0  0  0  0  0
   69.7130   38.4790   -0.0120 C   0  0  0  0  0  0  0  0  0  0  0  0
   70.2560   37.6220    0.9490 C   0  0  0  0  0  0  0  0  0  0  0  0
   71.5990   37.2480    0.8720 C   0  0  0  0  0  0  0  0  0  0  0  0
   72.4000   37.7250   -0.1660 C   0  0  0  0  0  0  0  0  0  0  0  0
   71.8610   38.5810   -1.1280 C   0  0  0  0  0  0  0  0  0  0  0  0
   70.5200   38.9750   -1.0410 C   0  0  0  0  0  0  0  0  0  0  0  0
   69.9610   39.7870   -2.0040 O   0  0  0  0  0  0  0  0  0  0  0  0
   70.6990   40.8750   -2.4090 C   0  0  0  0  0  0  0  0  0  0  0  0
   70.8570   42.0220   -1.6300 C   0  0  0  0  0  0  0  0  0  0  0  0
   71.5970   43.0990   -2.1260 C   0  0  0  0  0  0  0  0  0  0  0  0
   72.1860   43.0480   -3.3970 C   0  0  0  0  0  0  0  0  0  0  0  0
   72.8940   44.1800   -3.8500 N   0  0  0  0  0  0  0  0  0  0  0  0
   74.1870   44.5920   -3.4900 C   0  0  0  0  0  0  0  0  0  0  0  0
   74.4930   45.8970   -3.7070 N   0  0  0  0  0  0  0  0  0  0  0  0
   75.7200   46.3380   -3.3660 C   0  0  0  0  0  0  0  0  0  0  0  0
   76.7260   45.6470   -2.8070 N   0  0  0  0  0  0  0  0  0  0  0  0
   76.3720   44.3730   -2.5810 C   0  0  0  0  0  0  0  0  0  0  0  0
   77.1800   43.4360   -1.9980 N   0  0  0  0  0  0  0  0  0  0  0  0
   76.5070   42.2460   -1.8910 C   0  0  0  0  0  0  0  0  0  0  0  0
   75.2470   42.4300   -2.4210 C   0  0  0  0  0  0  0  0  0  0  0  0
   75.1560   43.7770   -2.8770 C   0  0  0  0  0  0  0  0  0  0  0  0
   71.9800   41.9070   -4.1820 C   0  0  0  0  0  0  0  0  0  0  0  0
   71.2410   40.8260   -3.6920 C   0  0  0  0  0  0  0  0  0  0  0  0
   69.6253   37.2420    1.7662 H   0  0  0  0  0  0  0  0  0  0  0  0
   72.0263   36.5761    1.6310 H   0  0  0  0  0  0  0  0  0  0  0  0
   73.4570   37.4264   -0.2264 H   0  0  0  0  0  0  0  0  0  0  0  0
   72.4893   38.9458   -1.9539 H   0  0  0  0  0  0  0  0  0  0  0  0
   70.4013   42.0782   -0.6304 H   0  0  0  0  0  0  0  0  0  0  0  0
   71.7192   44.0014   -1.5089 H   0  0  0  0  0  0  0  0  0  0  0  0
   72.4240   44.7520   -4.4980 H   0  0  0  0  0  0  0  0  0  0  0  0
   75.9230   47.3993   -3.5720 H   0  0  0  0  0  0  0  0  0  0  0  0
   78.1050   43.5920   -1.6990 H   0  0  0  0  0  0  0  0  0  0  0  0
   76.9008   41.3135   -1.4604 H   0  0  0  0  0  0  0  0  0  0  0  0
   74.4529   41.6712   -2.4811 H   0  0  0  0  0  0  0  0  0  0  0  0
   72.4044   41.8606   -5.1958 H   0  0  0  0  0  0  0  0  0  0  0  0
   71.0872   39.9359   -4.3198 H   0  0  0  0  0  0  0  0  0  0  0  0
  1  2  1  0
  2  3  2  0
  3  4  1  0
  4  5  2  0
  5  6  1  0
  6  7  2  0
  7  8  1  0
  8  9  1  0
  9 10  2  0
 10 11  1  0
 11 12  2  0
 12 13  1  0
 13 14  1  0
 14 15  2  0
 15 16  1  0
 16 17  2  0
 17 18  1  0
 18 19  1  0
 19 20  1  0
 20 21  2  0
 21 22  1  0
 12 23  1  0
 23 24  2  0
  7  2  1  0
 24  9  1  0
 22 14  1  0
 22 18  2  0
  3 25  1  0
  4 26  1  0
  5 27  1  0
  6 28  1  0
 10 29  1  0
 11 30  1  0
 13 31  1  0
 16 32  1  0
 19 33  1  0
 20 34  1  0
 21 35  1  0
 23 36  1  0
 24 37  1  0
M  END
>  <meeko>  (7) 
{"is_sidechain": [false], "free_energy": -7.461, "intermolecular_energy": -9.107, "internal_energy": -0.76}

$$$$
native_9IV_out
     RDKit          3D

 37 40  0  0  0  0  0  0  0  0999 V2000
   76.3190   42.2030   -1.6740 Cl  0  0  0  0  0  0  0  0  0  0  0  0
   75.9690   43.5080   -2.7460 C   0  0  0  0  0  0  0  0  0  0  0  0
   76.6260   44.7260   -2.5540 C   0  0  0  0  0  0  0  0  0  0  0  0
   76.3660   45.8030   -3.4050 C   0  0  0  0  0  0  0  0  0  0  0  0
   75.4550   45.6620   -4.4510 C   0  0  0  0  0  0  0  0  0  0  0  0
   74.7960   44.4470   -4.6470 C   0  0  0  0  0  0  0  0  0  0  0  0
   75.0390   43.3730   -3.7820 C   0  0  0  0  0  0  0  0  0  0  0  0
   74.4270   42.1550   -3.9840 O   0  0  0  0  0  0  0  0  0  0  0  0
   73.1150   42.0410   -3.5880 C   0  0  0  0  0  0  0  0  0  0  0  0
   72.5890   42.7180   -2.4880 C   0  0  0  0  0  0  0  0  0  0  0  0
   71.2520   42.5260   -2.1310 C   0  0  0  0  0  0  0  0  0  0  0  0
   70.4260   41.6590   -2.8600 C   0  0  0  0  0  0  0  0  0  0  0  0
   69.0940   41.4860   -2.4290 N   0  0  0  0  0  0  0  0  0  0  0  0
   68.5870   40.5130   -1.5530 C   0  0  0  0  0  0  0  0  0  0  0  0
   67.2360   40.4310   -1.4490 N   0  0  0  0  0  0  0  0  0  0  0  0
   66.7070   39.5030   -0.6270 C   0  0  0  0  0  0  0  0  0  0  0  0
   67.3500   38.5990    0.1290 N   0  0  0  0  0  0  0  0  0  0  0  0
   68.6780   38.6930   -0.0270 C   0  0  0  0  0  0  0  0  0  0  0  0
   69.5910   37.8870    0.5960 N   0  0  0  0  0  0  0  0  0  0  0  0
   70.8580   38.2300    0.2000 C   0  0  0  0  0  0  0  0  0  0  0  0
   70.7490   39.2790   -0.6890 C   0  0  0  0  0  0  0  0  0  0  0  0
   69.3660   39.5920   -0.8290 C   0  0  0  0  0  0  0  0  0  0  0  0
   70.9820   40.9540   -3.9340 C   0  0  0  0  0  0  0  0  0  0  0  0
   72.3190   41.1420   -4.2970 C   0  0  0  0  0  0  0  0  0  0  0  0
   77.3486   44.8370   -1.7321 H   0  0  0  0  0  0  0  0  0  0  0  0
   76.8803   46.7629   -3.2497 H   0  0  0  0  0  0  0  0  0  0  0  0
   75.2552   46.5096   -5.1230 H   0  0  0  0  0  0  0  0  0  0  0  0
   74.0866   44.3335   -5.4800 H   0  0  0  0  0  0  0  0  0  0  0  0
   73.2241   43.4003   -1.9039 H   0  0  0  0  0  0  0  0  0  0  0  0
   70.8408   43.0638   -1.2640 H   0  0  0  0  0  0  0  0  0  0  0  0
   68.4380   42.1270   -2.7870 H   0  0  0  0  0  0  0  0  0  0  0  0
   65.6087   39.4840   -0.5681 H   0  0  0  0  0  0  0  0  0  0  0  0
   69.3710   37.1680    1.2320 H   0  0  0  0  0  0  0  0  0  0  0  0
   71.7929   37.7544    0.5315 H   0  0  0  0  0  0  0  0  0  0  0  0
   71.5821   39.7844   -1.1994 H   0  0  0  0  0  0  0  0  0  0  0  0
   70.3599   40.2440   -4.4988 H   0  0  0  0  0  0  0  0  0  0  0  0
   72.7433   40.5804   -5.1424 H   0  0  0  0  0  0  0  0  0  0  0  0
  1  2  1  0
  2  3  2  0
  3  4  1  0
  4  5  2  0
  5  6  1  0
  6  7  2  0
  7  8  1  0
  8  9  1  0
  9 10  2  0
 10 11  1  0
 11 12  2  0
 12 13  1  0
 13 14  1  0
 14 15  2  0
 15 16  1  0
 16 17  2  0
 17 18  1  0
 18 19  1  0
 19 20  1  0
 20 21  2  0
 21 22  1  0
 12 23  1  0
 23 24  2  0
  7  2  1  0
 24  9  1  0
 22 14  1  0
 22 18  2  0
  3 25  1  0
  4 26  1  0
  5 27  1  0
  6 28  1  0
 10 29  1  0
 11 30  1  0
 13 31  1  0
 16 32  1  0
 19 33  1  0
 20 34  1  0
 21 35  1  0
 23 36  1  0
 24 37  1  0
M  END
>  <meeko>  (8) 
{"is_sidechain": [false], "free_energy": -7.377, "intermolecular_energy": -9.046, "internal_energy": -0.717}

$$$$
native_9IV_out
     RDKit          3D

 37 40  0  0  0  0  0  0  0  0999 V2000
   68.5250   39.0070    0.3880 Cl  0  0  0  0  0  0  0  0  0  0  0  0
   70.0430   38.1920    0.2950 C   0  0  0  0  0  0  0  0  0  0  0  0
   70.2900   37.1360    1.1750 C   0  0  0  0  0  0  0  0  0  0  0  0
   71.5090   36.4550    1.1250 C   0  0  0  0  0  0  0  0  0  0  0  0
   72.4780   36.8240    0.1920 C   0  0  0  0  0  0  0  0  0  0  0  0
   72.2340   37.8780   -0.6900 C   0  0  0  0  0  0  0  0  0  0  0  0
   71.0220   38.5760   -0.6270 C   0  0  0  0  0  0  0  0  0  0  0  0
   70.7490   39.5930   -1.5160 O   0  0  0  0  0  0  0  0  0  0  0  0
   71.8200   40.1570   -2.1700 C   0  0  0  0  0  0  0  0  0  0  0  0
   73.0170   40.4840   -1.5310 C   0  0  0  0  0  0  0  0  0  0  0  0
   74.0490   41.0830   -2.2580 C   0  0  0  0  0  0  0  0  0  0  0  0
   73.9020   41.3650   -3.6240 C   0  0  0  0  0  0  0  0  0  0  0  0
   74.9710   41.9980   -4.2930 N   0  0  0  0  0  0  0  0  0  0  0  0
   75.8160   43.0090   -3.8090 C   0  0  0  0  0  0  0  0  0  0  0  0
   77.1180   42.6750   -3.6190 N   0  0  0  0  0  0  0  0  0  0  0  0
   77.9670   43.6180   -3.1660 C   0  0  0  0  0  0  0  0  0  0  0  0
   77.7040   44.9020   -2.8730 N   0  0  0  0  0  0  0  0  0  0  0  0
   76.4170   45.1980   -3.1040 C   0  0  0  0  0  0  0  0  0  0  0  0
   75.8610   46.4340   -2.9230 N   0  0  0  0  0  0  0  0  0  0  0  0
   74.5360   46.4030   -3.2740 C   0  0  0  0  0  0  0  0  0  0  0  0
   74.2420   45.1190   -3.6840 C   0  0  0  0  0  0  0  0  0  0  0  0
   75.4300   44.3390   -3.5650 C   0  0  0  0  0  0  0  0  0  0  0  0
   72.6790   41.0700   -4.2380 C   0  0  0  0  0  0  0  0  0  0  0  0
   71.6430   40.4710   -3.5160 C   0  0  0  0  0  0  0  0  0  0  0  0
   69.5246   36.8403    1.9077 H   0  0  0  0  0  0  0  0  0  0  0  0
   71.7047   35.6270    1.8222 H   0  0  0  0  0  0  0  0  0  0  0  0
   73.4354   36.2839    0.1512 H   0  0  0  0  0  0  0  0  0  0  0  0
   72.9935   38.1600   -1.4341 H   0  0  0  0  0  0  0  0  0  0  0  0
   73.1474   40.2711   -0.4597 H   0  0  0  0  0  0  0  0  0  0  0  0
   74.9915   41.3374   -1.7510 H   0  0  0  0  0  0  0  0  0  0  0  0
   75.1450   41.6930   -5.2120 H   0  0  0  0  0  0  0  0  0  0  0  0
   79.0080   43.2952   -3.0172 H   0  0  0  0  0  0  0  0  0  0  0  0
   76.3400   47.2280   -2.5900 H   0  0  0  0  0  0  0  0  0  0  0  0
   73.8341   47.2491   -3.2356 H   0  0  0  0  0  0  0  0  0  0  0  0
   73.2647   44.7605   -4.0396 H   0  0  0  0  0  0  0  0  0  0  0  0
   72.5317   41.3124   -5.3008 H   0  0  0  0  0  0  0  0  0  0  0  0
   70.6865   40.2471   -4.0110 H   0  0  0  0  0  0  0  0  0  0  0  0
  1  2  1  0
  2  3  2  0
  3  4  1  0
  4  5  2  0
  5  6  1  0
  6  7  2  0
  7  8  1  0
  8  9  1  0
  9 10  2  0
 10 11  1  0
 11 12  2  0
 12 13  1  0
 13 14  1  0
 14 15  2  0
 15 16  1  0
 16 17  2  0
 17 18  1  0
 18 19  1  0
 19 20  1  0
 20 21  2  0
 21 22  1  0
 12 23  1  0
 23 24  2  0
  7  2  1  0
 24  9  1  0
 22 14  1  0
 22 18  2  0
  3 25  1  0
  4 26  1  0
  5 27  1  0
  6 28  1  0
 10 29  1  0
 11 30  1  0
 13 31  1  0
 16 32  1  0
 19 33  1  0
 20 34  1  0
 21 35  1  0
 23 36  1  0
 24 37  1  0
M  END
>  <meeko>  (9) 
{"is_sidechain": [false], "free_energy": -7.259, "intermolecular_energy": -9.381, "internal_energy": -0.236}

$$$$
