cand_021_out
     RDKit          3D

 36 38  0  0  0  0  0  0  0  0999 V2000
  178.7280   13.9390   44.2330 C   0  0  0  0  0  0  0  0  0  0  0  0
  179.7690   14.4510   44.9020 C   0  0  0  0  0  0  0  0  0  0  0  0
  180.2680   15.8120   44.6710 C   0  0  0  0  0  0  0  0  0  0  0  0
  179.7900   16.8630   45.4750 C   0  0  0  0  0  0  0  0  0  0  0  0
  180.2390   18.1800   45.3030 C   0  0  0  0  0  0  0  0  0  0  0  0
  179.7520   19.2820   46.1580 C   0  0  0  0  0  0  0  0  0  0  0  0
  178.3660   19.3570   46.2090 O   0  0  0  0  0  0  0  0  0  0  0  0
  177.7820   20.3390   46.9690 C   0  0  0  0  0  0  0  0  0  0  0  0
  176.3870   20.3870   46.9790 C   0  0  0  0  0  0  0  0  0  0  0  0
  175.7300   21.3620   47.7340 C   0  0  0  0  0  0  0  0  0  0  0  0
  176.4660   22.2850   48.4770 C   0  0  0  0  0  0  0  0  0  0  0  0
  177.8580   22.2350   48.4660 C   0  0  0  0  0  0  0  0  0  0  0  0
  178.5160   23.1690   49.2170 O   0  0  0  0  0  0  0  0  0  0  0  0
  178.5150   21.2610   47.7100 C   0  0  0  0  0  0  0  0  0  0  0  0
  179.9750   21.1720   47.6700 C   0  0  0  0  0  0  0  0  0  0  0  0
  180.6930   21.9440   48.3030 O   0  0  0  0  0  0  0  0  0  0  0  0
  180.5750   20.1080   46.8320 C   0  0  0  0  0  0  0  0  0  0  0  0
  181.9540   20.0230   46.8120 O   0  0  0  0  0  0  0  0  0  0  0  0
  181.2030   18.4330   44.3210 C   0  0  0  0  0  0  0  0  0  0  0  0
  181.6920   17.3980   43.5200 C   0  0  0  0  0  0  0  0  0  0  0  0
  181.2320   16.0800   43.6820 C   0  0  0  0  0  0  0  0  0  0  0  0
  181.7650   14.9890   42.7860 C   0  0  0  0  0  0  0  0  0  0  0  0
  183.0910   15.1380   42.5070 F   0  0  0  0  0  0  0  0  0  0  0  0
  181.1460   14.9360   41.5700 F   0  0  0  0  0  0  0  0  0  0  0  0
  178.3909   12.9130   44.4418 H   0  0  0  0  0  0  0  0  0  0  0  0
  178.2100   14.5445   43.4747 H   0  0  0  0  0  0  0  0  0  0  0  0
  180.2707   13.8261   45.6555 H   0  0  0  0  0  0  0  0  0  0  0  0
  179.0469   16.6464   46.2566 H   0  0  0  0  0  0  0  0  0  0  0  0
  175.8062   19.6589   46.3938 H   0  0  0  0  0  0  0  0  0  0  0  0
  174.6307   21.4018   47.7425 H   0  0  0  0  0  0  0  0  0  0  0  0
  175.9475   23.0519   49.0712 H   0  0  0  0  0  0  0  0  0  0  0  0
  179.3700   22.9820   49.5570 H   0  0  0  0  0  0  0  0  0  0  0  0
  182.3730   19.2740   46.4360 H   0  0  0  0  0  0  0  0  0  0  0  0
  181.5795   19.4567   44.1782 H   0  0  0  0  0  0  0  0  0  0  0  0
  182.4478   17.6179   42.7516 H   0  0  0  0  0  0  0  0  0  0  0  0
  181.5732   14.0734   43.3646 H   0  0  0  0  0  0  0  0  0  0  0  0
  1  2  2  0
  2  3  1  0
  3  4  2  0
  4  5  1  0
  5  6  1  0
  6  7  1  0
  7  8  1  0
  8  9  2  0
  9 10  1  0
 10 11  2  0
 11 12  1  0
 12 13  1  0
 12 14  2  0
 14 15  1  0
 15 16  2  0
 15 17  1  0
 17 18  1  0
  5 19  2  0
 19 20  1  0
 20 21  2  0
 21 22  1  0
 22 23  1  0
 22 24  1  0
 21  3  1  0
 17  6  2  0
 14  8  1  0
  1 25  1  0
  1 26  1  0
  2 27  1  0
  4 28  1  0
  9 29  1  0
 10 30  1  0
 11 31  1  0
 13 32  1  0
 18 33  1  0
 19 34  1  0
 20 35  1  0
 22 36  1  0
M  END
>  <meeko>  (1) 
{"is_sidechain": [false], "free_energy": -8.018, "intermolecular_energy": -9.893, "internal_energy": -0.375}

$$$$
cand_021_out
     RDKit          3D

 36 38  0  0  0  0  0  0  0  0999 V2000
  174.7590   20.0560   47.2780 C   0  0  0  0  0  0  0  0  0  0  0  0
  175.6270   21.0250   46.9600 C   0  0  0  0  0  0  0  0  0  0  0  0
  177.0750   20.8890   47.1580 C   0  0  0  0  0  0  0  0  0  0  0  0
  177.7820   19.9300   46.4110 C   0  0  0  0  0  0  0  0  0  0  0  0
  179.1670   19.7630   46.5540 C   0  0  0  0  0  0  0  0  0  0  0  0
  179.9150   18.7700   45.7570 C   0  0  0  0  0  0  0  0  0  0  0  0
  179.3210   17.5130   45.7620 O   0  0  0  0  0  0  0  0  0  0  0  0
  179.9150   16.4960   45.0600 C   0  0  0  0  0  0  0  0  0  0  0  0
  179.2940   15.2470   45.1060 C   0  0  0  0  0  0  0  0  0  0  0  0
  179.8470   14.1680   44.4110 C   0  0  0  0  0  0  0  0  0  0  0  0
  181.0190   14.3390   43.6710 C   0  0  0  0  0  0  0  0  0  0  0  0
  181.6360   15.5870   43.6270 C   0  0  0  0  0  0  0  0  0  0  0  0
  182.7800   15.6830   42.8830 O   0  0  0  0  0  0  0  0  0  0  0  0
  181.0840   16.6650   44.3230 C   0  0  0  0  0  0  0  0  0  0  0  0
  181.7000   17.9920   44.3030 C   0  0  0  0  0  0  0  0  0  0  0  0
  182.7280   18.2240   43.6690 O   0  0  0  0  0  0  0  0  0  0  0  0
  181.0400   19.0660   45.0800 C   0  0  0  0  0  0  0  0  0  0  0  0
  181.6220   20.3190   45.0440 O   0  0  0  0  0  0  0  0  0  0  0  0
  179.8490   20.5970   47.4480 C   0  0  0  0  0  0  0  0  0  0  0  0
  179.1610   21.5580   48.1920 C   0  0  0  0  0  0  0  0  0  0  0  0
  177.7710   21.7160   48.0600 C   0  0  0  0  0  0  0  0  0  0  0  0
  177.0560   22.7500   48.8930 C   0  0  0  0  0  0  0  0  0  0  0  0
  175.9930   22.2350   49.5740 F   0  0  0  0  0  0  0  0  0  0  0  0
  176.5450   23.7810   48.1560 F   0  0  0  0  0  0  0  0  0  0  0  0
  173.6821   20.2055   47.1106 H   0  0  0  0  0  0  0  0  0  0  0  0
  175.1229   19.1105   47.7066 H   0  0  0  0  0  0  0  0  0  0  0  0
  175.2388   21.9614   46.5328 H   0  0  0  0  0  0  0  0  0  0  0  0
  177.2356   19.2957   45.6975 H   0  0  0  0  0  0  0  0  0  0  0  0
  178.3707   15.1120   45.6884 H   0  0  0  0  0  0  0  0  0  0  0  0
  179.3586   13.1830   44.4469 H   0  0  0  0  0  0  0  0  0  0  0  0
  181.4541   13.4897   43.1239 H   0  0  0  0  0  0  0  0  0  0  0  0
  182.8410   16.3200   42.1970 H   0  0  0  0  0  0  0  0  0  0  0  0
  182.5020   20.4370   45.3440 H   0  0  0  0  0  0  0  0  0  0  0  0
  180.9379   20.4943   47.5656 H   0  0  0  0  0  0  0  0  0  0  0  0
  179.7154   22.2007   48.8917 H   0  0  0  0  0  0  0  0  0  0  0  0
  177.8405   23.1066   49.5767 H   0  0  0  0  0  0  0  0  0  0  0  0
  1  2  2  0
  2  3  1  0
  3  4  2  0
  4  5  1  0
  5  6  1  0
  6  7  1  0
  7  8  1  0
  8  9  2  0
  9 10  1  0
 10 11  2  0
 11 12  1  0
 12 13  1  0
 12 14  2  0
 14 15  1  0
 15 16  2  0
 15 17  1  0
 17 18  1  0
  5 19  2  0
 19 20  1  0
 20 21  2  0
 21 22  1  0
 22 23  1  0
 22 24  1  0
 21  3  1  0
 17  6  2  0
 14  8  1  0
  1 25  1  0
  1 26  1  0
  2 27  1  0
  4 28  1  0
  9 29  1  0
 10 30  1  0
 11 31  1  0
 13 32  1  0
 18 33  1  0
 19 34  1  0
 20 35  1  0
 22 36  1  0
M  END
>  <meeko>  (2) 
{"is_sidechain": [false], "free_energy": -7.455, "intermolecular_energy": -9.383, "internal_energy": -0.19}

$$$$
cand_021_out
     RDKit          3D

 36 38  0  0  0  0  0  0  0  0999 V2000
  181.2690   17.0600   41.0350 C   0  0  0  0  0  0  0  0  0  0  0  0
  181.8340   17.0350   42.2490 C   0  0  0  0  0  0  0  0  0  0  0  0
  181.0510   16.9200   43.4850 C   0  0  0  0  0  0  0  0  0  0  0  0
  180.8010   18.0750   44.2480 C   0  0  0  0  0  0  0  0  0  0  0  0
  180.0510   18.0240   45.4320 C   0  0  0  0  0  0  0  0  0  0  0  0
  179.7700   19.2390   46.2240 C   0  0  0  0  0  0  0  0  0  0  0  0
  178.4190   19.5610   46.2600 O   0  0  0  0  0  0  0  0  0  0  0  0
  178.0200   20.6700   46.9620 C   0  0  0  0  0  0  0  0  0  0  0  0
  176.6570   20.9670   46.9570 C   0  0  0  0  0  0  0  0  0  0  0  0
  176.1840   22.0810   47.6550 C   0  0  0  0  0  0  0  0  0  0  0  0
  177.0740   22.8970   48.3560 C   0  0  0  0  0  0  0  0  0  0  0  0
  178.4350   22.5990   48.3580 C   0  0  0  0  0  0  0  0  0  0  0  0
  179.2500   23.4400   49.0650 O   0  0  0  0  0  0  0  0  0  0  0  0
  178.9070   21.4850   47.6600 C   0  0  0  0  0  0  0  0  0  0  0  0
  180.3280   21.1360   47.6370 C   0  0  0  0  0  0  0  0  0  0  0  0
  181.1730   21.8000   48.2350 O   0  0  0  0  0  0  0  0  0  0  0  0
  180.7270   19.9400   46.8610 C   0  0  0  0  0  0  0  0  0  0  0  0
  182.0700   19.6100   46.8570 O   0  0  0  0  0  0  0  0  0  0  0  0
  179.5280   16.7910   45.8360 C   0  0  0  0  0  0  0  0  0  0  0  0
  179.7640   15.6360   45.0860 C   0  0  0  0  0  0  0  0  0  0  0  0
  180.5260   15.6840   43.9070 C   0  0  0  0  0  0  0  0  0  0  0  0
  180.7790   14.4150   43.1300 C   0  0  0  0  0  0  0  0  0  0  0  0
  180.0700   14.3590   41.9670 F   0  0  0  0  0  0  0  0  0  0  0  0
  180.4360   13.2840   43.8150 F   0  0  0  0  0  0  0  0  0  0  0  0
  181.8984   17.1475   40.1371 H   0  0  0  0  0  0  0  0  0  0  0  0
  180.1755   16.9930   40.9358 H   0  0  0  0  0  0  0  0  0  0  0  0
  182.9294   17.1034   42.3227 H   0  0  0  0  0  0  0  0  0  0  0  0
  181.2031   19.0408   43.9081 H   0  0  0  0  0  0  0  0  0  0  0  0
  175.9555   20.3249   46.4042 H   0  0  0  0  0  0  0  0  0  0  0  0
  175.1093   22.3154   47.6523 H   0  0  0  0  0  0  0  0  0  0  0  0
  176.7012   23.7738   48.9058 H   0  0  0  0  0  0  0  0  0  0  0  0
  179.4000   23.2900   49.9790 H   0  0  0  0  0  0  0  0  0  0  0  0
  182.4300   19.1000   47.5560 H   0  0  0  0  0  0  0  0  0  0  0  0
  178.9246   16.7301   46.7537 H   0  0  0  0  0  0  0  0  0  0  0  0
  179.3472   14.6756   45.4236 H   0  0  0  0  0  0  0  0  0  0  0  0
  181.8623   14.4476   42.9418 H   0  0  0  0  0  0  0  0  0  0  0  0
  1  2  2  0
  2  3  1  0
  3  4  2  0
  4  5  1  0
  5  6  1  0
  6  7  1  0
  7  8  1  0
  8  9  2  0
  9 10  1  0
 10 11  2  0
 11 12  1  0
 12 13  1  0
 12 14  2  0
 14 15  1  0
 15 16  2  0
 15 17  1  0
 17 18  1  0
  5 19  2  0
 19 20  1  0
 20 21  2  0
 21 22  1  0
 22 23  1  0
 22 24  1  0
 21  3  1  0
 17  6  2  0
 14  8  1  0
  1 25  1  0
  1 26  1  0
  2 27  1  0
  4 28  1  0
  9 29  1  0
 10 30  1  0
 11 31  1  0
 13 32  1  0
 18 33  1  0
 19 34  1  0
 20 35  1  0
 22 36  1  0
M  END
>  <meeko>  (3) 
{"is_sidechain": [false], "free_energy": -6.914, "intermolecular_energy": -8.527, "internal_energy": -0.378}

$$$$
cand_021_out
     RDKit          3D

 36 38  0  0  0  0  0  0  0  0999 V2000
  179.9780   15.0810   45.3400 C   0  0  0  0  0  0  0  0  0  0  0  0
  179.1860   16.1600   45.3780 C   0  0  0  0  0  0  0  0  0  0  0  0
  179.7120   17.5300   45.3600 C   0  0  0  0  0  0  0  0  0  0  0  0
  179.0900   18.5130   46.1510 C   0  0  0  0  0  0  0  0  0  0  0  0
  179.5570   19.8360   46.1780 C   0  0  0  0  0  0  0  0  0  0  0  0
  178.9170   20.8650   47.0220 C   0  0  0  0  0  0  0  0  0  0  0  0
  177.5340   20.7420   47.0720 O   0  0  0  0  0  0  0  0  0  0  0  0
  176.8150   21.6380   47.8220 C   0  0  0  0  0  0  0  0  0  0  0  0
  175.4270   21.4870   47.8310 C   0  0  0  0  0  0  0  0  0  0  0  0
  174.6370   22.3650   48.5770 C   0  0  0  0  0  0  0  0  0  0  0  0
  175.2330   23.3920   49.3110 C   0  0  0  0  0  0  0  0  0  0  0  0
  176.6170   23.5400   49.3000 C   0  0  0  0  0  0  0  0  0  0  0  0
  177.1350   24.5670   50.0410 O   0  0  0  0  0  0  0  0  0  0  0  0
  177.4080   22.6620   48.5540 C   0  0  0  0  0  0  0  0  0  0  0  0
  178.8660   22.7820   48.5150 C   0  0  0  0  0  0  0  0  0  0  0  0
  179.4650   23.6550   49.1400 O   0  0  0  0  0  0  0  0  0  0  0  0
  179.6120   21.8070   47.6880 C   0  0  0  0  0  0  0  0  0  0  0  0
  180.9900   21.9200   47.6680 O   0  0  0  0  0  0  0  0  0  0  0  0
  180.6830   20.1610   45.4140 C   0  0  0  0  0  0  0  0  0  0  0  0
  181.3150   19.1930   44.6290 C   0  0  0  0  0  0  0  0  0  0  0  0
  180.8400   17.8720   44.5900 C   0  0  0  0  0  0  0  0  0  0  0  0
  181.5330   16.8560   43.7150 C   0  0  0  0  0  0  0  0  0  0  0  0
  182.8250   17.1920   43.4400 F   0  0  0  0  0  0  0  0  0  0  0  0
  180.9360   16.6920   42.4980 F   0  0  0  0  0  0  0  0  0  0  0  0
  179.5363   14.0737   45.3556 H   0  0  0  0  0  0  0  0  0  0  0  0
  181.0703   15.2019   45.2932 H   0  0  0  0  0  0  0  0  0  0  0  0
  178.0968   16.0136   45.4246 H   0  0  0  0  0  0  0  0  0  0  0  0
  178.2177   18.2383   46.7623 H   0  0  0  0  0  0  0  0  0  0  0  0
  174.9566   20.6786   47.2520 H   0  0  0  0  0  0  0  0  0  0  0  0
  173.5434   22.2469   48.5860 H   0  0  0  0  0  0  0  0  0  0  0  0
  174.6098   24.0833   49.8972 H   0  0  0  0  0  0  0  0  0  0  0  0
  176.8680   25.4490   49.8710 H   0  0  0  0  0  0  0  0  0  0  0  0
  181.4740   21.6210   46.9230 H   0  0  0  0  0  0  0  0  0  0  0  0
  181.0747   21.1887   45.4314 H   0  0  0  0  0  0  0  0  0  0  0  0
  182.1972   19.4697   44.0331 H   0  0  0  0  0  0  0  0  0  0  0  0
  181.4734   15.9317   44.3084 H   0  0  0  0  0  0  0  0  0  0  0  0
  1  2  2  0
  2  3  1  0
  3  4  2  0
  4  5  1  0
  5  6  1  0
  6  7  1  0
  7  8  1  0
  8  9  2  0
  9 10  1  0
 10 11  2  0
 11 12  1  0
 12 13  1  0
 12 14  2  0
 14 15  1  0
 15 16  2  0
 15 17  1  0
 17 18  1  0
  5 19  2  0
 19 20  1  0
 20 21  2  0
 21 22  1  0
 22 23  1  0
 22 24  1  0
 21  3  1  0
 17  6  2  0
 14  8  1  0
  1 25  1  0
  1 26  1  0
  2 27  1  0
  4 28  1  0
  9 29  1  0
 10 30  1  0
 11 31  1  0
 13 32  1  0
 18 33  1  0
 19 34  1  0
 20 35  1  0
 22 36  1  0
M  END
>  <meeko>  (4) 
{"is_sidechain": [false], "free_energy": -6.486, "intermolecular_energy": -8.829, "internal_energy": 0.452}

$$$$
cand_021_out
     RDKit          3D

 36 38  0  0  0  0  0  0  0  0999 V2000
  179.1090   14.2020   44.1720 C   0  0  0  0  0  0  0  0  0  0  0  0
  179.8190   14.9040   45.0640 C   0  0  0  0  0  0  0  0  0  0  0  0
  180.0080   16.3570   44.9610 C   0  0  0  0  0  0  0  0  0  0  0  0
  179.1360   17.2120   45.6590 C   0  0  0  0  0  0  0  0  0  0  0  0
  179.2750   18.6060   45.6020 C   0  0  0  0  0  0  0  0  0  0  0  0
  178.3730   19.5060   46.3490 C   0  0  0  0  0  0  0  0  0  0  0  0
  178.9870   20.6930   46.7320 O   0  0  0  0  0  0  0  0  0  0  0  0
  178.2590   21.6190   47.4350 C   0  0  0  0  0  0  0  0  0  0  0  0
  178.9190   22.7890   47.8130 C   0  0  0  0  0  0  0  0  0  0  0  0
  178.2350   23.7740   48.5300 C   0  0  0  0  0  0  0  0  0  0  0  0
  176.8930   23.5890   48.8670 C   0  0  0  0  0  0  0  0  0  0  0  0
  176.2370   22.4200   48.4880 C   0  0  0  0  0  0  0  0  0  0  0  0
  174.9230   22.3050   48.8510 O   0  0  0  0  0  0  0  0  0  0  0  0
  176.9210   21.4350   47.7720 C   0  0  0  0  0  0  0  0  0  0  0  0
  176.2700   20.1930   47.3550 C   0  0  0  0  0  0  0  0  0  0  0  0
  175.0890   19.9590   47.6070 O   0  0  0  0  0  0  0  0  0  0  0  0
  177.0860   19.2090   46.6070 C   0  0  0  0  0  0  0  0  0  0  0  0
  176.4580   18.0450   46.2050 O   0  0  0  0  0  0  0  0  0  0  0  0
  180.3280   19.1400   44.8510 C   0  0  0  0  0  0  0  0  0  0  0  0
  181.2050   18.3030   44.1570 C   0  0  0  0  0  0  0  0  0  0  0  0
  181.0570   16.9060   44.2010 C   0  0  0  0  0  0  0  0  0  0  0  0
  182.0100   16.0310   43.4250 C   0  0  0  0  0  0  0  0  0  0  0  0
  181.5390   15.7060   42.1880 F   0  0  0  0  0  0  0  0  0  0  0  0
  182.2680   14.8370   44.0360 F   0  0  0  0  0  0  0  0  0  0  0  0
  178.9959   13.1145   44.2923 H   0  0  0  0  0  0  0  0  0  0  0  0
  178.6387   14.7128   43.3188 H   0  0  0  0  0  0  0  0  0  0  0  0
  180.2797   14.3708   45.9086 H   0  0  0  0  0  0  0  0  0  0  0  0
  178.3264   16.7770   46.2635 H   0  0  0  0  0  0  0  0  0  0  0  0
  179.9762   22.9356   47.5469 H   0  0  0  0  0  0  0  0  0  0  0  0
  178.7545   24.6963   48.8293 H   0  0  0  0  0  0  0  0  0  0  0  0
  176.3545   24.3650   49.4308 H   0  0  0  0  0  0  0  0  0  0  0  0
  174.2710   22.8270   48.4250 H   0  0  0  0  0  0  0  0  0  0  0  0
  175.5230   18.0120   46.1470 H   0  0  0  0  0  0  0  0  0  0  0  0
  180.4666   20.2303   44.8067 H   0  0  0  0  0  0  0  0  0  0  0  0
  182.0229   18.7434   43.5678 H   0  0  0  0  0  0  0  0  0  0  0  0
  182.9200   16.6458   43.3625 H   0  0  0  0  0  0  0  0  0  0  0  0
  1  2  2  0
  2  3  1  0
  3  4  2  0
  4  5  1  0
  5  6  1  0
  6  7  1  0
  7  8  1  0
  8  9  2  0
  9 10  1  0
 10 11  2  0
 11 12  1  0
 12 13  1  0
 12 14  2  0
 14 15  1  0
 15 16  2  0
 15 17  1  0
 17 18  1  0
  5 19  2  0
 19 20  1  0
 20 21  2  0
 21 22  1  0
 22 23  1  0
 22 24  1  0
 21  3  1  0
 17  6  2  0
 14  8  1  0
  1 25  1  0
  1 26  1  0
  2 27  1  0
  4 28  1  0
  9 29  1  0
 10 30  1  0
 11 31  1  0
 13 32  1  0
 18 33  1  0
 19 34  1  0
 20 35  1  0
 22 36  1  0
M  END
>  <meeko>  (5) 
{"is_sidechain": [false], "free_energy": -6.465, "intermolecular_energy": -8.592, "internal_energy": 0.241}

$$$$
cand_021_out
     RDKit          3D

 36 38  0  0  0  0  0  0  0  0999 V2000
  176.5160   20.5940   46.5180 C   0  0  0  0  0  0  0  0  0  0  0  0
  177.5410   20.0880   47.2150 C   0  0  0  0  0  0  0  0  0  0  0  0
  178.8690   19.8700   46.6270 C   0  0  0  0  0  0  0  0  0  0  0  0
  179.0630   18.7810   45.7580 C   0  0  0  0  0  0  0  0  0  0  0  0
  180.3070   18.5310   45.1620 C   0  0  0  0  0  0  0  0  0  0  0  0
  180.5080   17.3990   44.2340 C   0  0  0  0  0  0  0  0  0  0  0  0
  180.8150   17.8070   42.9410 O   0  0  0  0  0  0  0  0  0  0  0  0
  181.0260   16.8530   41.9780 C   0  0  0  0  0  0  0  0  0  0  0  0
  181.3160   17.3070   40.6900 C   0  0  0  0  0  0  0  0  0  0  0  0
  181.5430   16.3880   39.6630 C   0  0  0  0  0  0  0  0  0  0  0  0
  181.4810   15.0180   39.9230 C   0  0  0  0  0  0  0  0  0  0  0  0
  181.1920   14.5680   41.2090 C   0  0  0  0  0  0  0  0  0  0  0  0
  181.1470   13.2140   41.3940 O   0  0  0  0  0  0  0  0  0  0  0  0
  180.9640   15.4870   42.2360 C   0  0  0  0  0  0  0  0  0  0  0  0
  180.6570   15.0570   43.6010 C   0  0  0  0  0  0  0  0  0  0  0  0
  180.5920   13.8690   43.9120 O   0  0  0  0  0  0  0  0  0  0  0  0
  180.4240   16.1110   44.6150 C   0  0  0  0  0  0  0  0  0  0  0  0
  180.1490   15.6950   45.9050 O   0  0  0  0  0  0  0  0  0  0  0  0
  181.3620   19.4100   45.4290 C   0  0  0  0  0  0  0  0  0  0  0  0
  181.1830   20.4990   46.2850 C   0  0  0  0  0  0  0  0  0  0  0  0
  179.9400   20.7420   46.8940 C   0  0  0  0  0  0  0  0  0  0  0  0
  179.7850   21.9160   47.8300 C   0  0  0  0  0  0  0  0  0  0  0  0
  179.2640   23.0150   47.2140 F   0  0  0  0  0  0  0  0  0  0  0  0
  180.9660   22.3340   48.3730 F   0  0  0  0  0  0  0  0  0  0  0  0
  175.5394   20.7389   47.0030 H   0  0  0  0  0  0  0  0  0  0  0  0
  176.6505   20.8648   45.4604 H   0  0  0  0  0  0  0  0  0  0  0  0
  177.3820   19.8248   48.2711 H   0  0  0  0  0  0  0  0  0  0  0  0
  178.2189   18.1099   45.5410 H   0  0  0  0  0  0  0  0  0  0  0  0
  181.3656   18.3865   40.4844 H   0  0  0  0  0  0  0  0  0  0  0  0
  181.7710   16.7445   38.6476 H   0  0  0  0  0  0  0  0  0  0  0  0
  181.6601   14.2950   39.1136 H   0  0  0  0  0  0  0  0  0  0  0  0
  180.3220   12.7670   41.3970 H   0  0  0  0  0  0  0  0  0  0  0  0
  180.7510   15.1370   46.3560 H   0  0  0  0  0  0  0  0  0  0  0  0
  182.3427   19.2418   44.9599 H   0  0  0  0  0  0  0  0  0  0  0  0
  182.0267   21.1759   46.4853 H   0  0  0  0  0  0  0  0  0  0  0  0
  179.1096   21.5302   48.6078 H   0  0  0  0  0  0  0  0  0  0  0  0
  1  2  2  0
  2  3  1  0
  3  4  2  0
  4  5  1  0
  5  6  1  0
  6  7  1  0
  7  8  1  0
  8  9  2  0
  9 10  1  0
 10 11  2  0
 11 12  1  0
 12 13  1  0
 12 14  2  0
 14 15  1  0
 15 16  2  0
 15 17  1  0
 17 18  1  0
  5 19  2  0
 19 20  1  0
 20 21  2  0
 21 22  1  0
 22 23  1  0
 22 24  1  0
 21  3  1  0
 17  6  2  0
 14  8  1  0
  1 25  1  0
  1 26  1  0
  2 27  1  0
  4 28  1  0
  9 29  1  0
 10 30  1  0
 11 31  1  0
 13 32  1  0
 18 33  1  0
 19 34  1  0
 20 35  1  0
 22 36  1  0
M  END
>  <meeko>  (6) 
{"is_sidechain": [false], "free_energy": -5.649, "intermolecular_energy": -6.722, "internal_energy": -0.622}

$$$$
cand_021_out
     RDKit          3D

 36 38  0  0  0  0  0  0  0  0999 V2000
  178.5310   22.8900   47.4020 C   0  0  0  0  0  0  0  0  0  0  0  0
  179.2090   21.7780   47.7120 C   0  0  0  0  0  0  0  0  0  0  0  0
  180.2610   21.2250   46.8500 C   0  0  0  0  0  0  0  0  0  0  0  0
  181.4370   21.9690   46.6410 C   0  0  0  0  0  0  0  0  0  0  0  0
  182.4770   21.4850   45.8350 C   0  0  0  0  0  0  0  0  0  0  0  0
  183.7210   22.2560   45.6300 C   0  0  0  0  0  0  0  0  0  0  0  0
  184.3090   22.0140   44.3940 O   0  0  0  0  0  0  0  0  0  0  0  0
  185.4730   22.6670   44.0750 C   0  0  0  0  0  0  0  0  0  0  0  0
  186.0390   22.3820   42.8310 C   0  0  0  0  0  0  0  0  0  0  0  0
  187.2230   23.0140   42.4440 C   0  0  0  0  0  0  0  0  0  0  0  0
  187.8400   23.9290   43.2990 C   0  0  0  0  0  0  0  0  0  0  0  0
  187.2730   24.2110   44.5400 C   0  0  0  0  0  0  0  0  0  0  0  0
  187.9300   25.1160   45.3280 O   0  0  0  0  0  0  0  0  0  0  0  0
  186.0900   23.5780   44.9280 C   0  0  0  0  0  0  0  0  0  0  0  0
  185.4610   23.8450   46.2220 C   0  0  0  0  0  0  0  0  0  0  0  0
  185.9390   24.6430   47.0270 O   0  0  0  0  0  0  0  0  0  0  0  0
  184.2120   23.1170   46.5400 C   0  0  0  0  0  0  0  0  0  0  0  0
  183.6180   23.3860   47.7590 O   0  0  0  0  0  0  0  0  0  0  0  0
  182.3370   20.2200   45.2540 C   0  0  0  0  0  0  0  0  0  0  0  0
  181.1770   19.4670   45.4570 C   0  0  0  0  0  0  0  0  0  0  0  0
  180.1280   19.9570   46.2530 C   0  0  0  0  0  0  0  0  0  0  0  0
  178.8810   19.1270   46.4360 C   0  0  0  0  0  0  0  0  0  0  0  0
  178.9690   17.9050   45.8390 F   0  0  0  0  0  0  0  0  0  0  0  0
  177.7630   19.7070   45.9080 F   0  0  0  0  0  0  0  0  0  0  0  0
  177.7510   23.2657   48.0805 H   0  0  0  0  0  0  0  0  0  0  0  0
  178.7540   23.4280   46.4688 H   0  0  0  0  0  0  0  0  0  0  0  0
  178.9681   21.2575   48.6507 H   0  0  0  0  0  0  0  0  0  0  0  0
  181.5427   22.9530   47.1211 H   0  0  0  0  0  0  0  0  0  0  0  0
  185.5534   21.6611   42.1569 H   0  0  0  0  0  0  0  0  0  0  0  0
  187.6699   22.7904   41.4641 H   0  0  0  0  0  0  0  0  0  0  0  0
  188.7723   24.4265   42.9934 H   0  0  0  0  0  0  0  0  0  0  0  0
  188.7570   24.8930   45.7100 H   0  0  0  0  0  0  0  0  0  0  0  0
  182.6870   23.4830   47.8160 H   0  0  0  0  0  0  0  0  0  0  0  0
  183.1478   19.8140   44.6313 H   0  0  0  0  0  0  0  0  0  0  0  0
  181.0841   18.4768   44.9869 H   0  0  0  0  0  0  0  0  0  0  0  0
  178.7975   19.0368   47.5291 H   0  0  0  0  0  0  0  0  0  0  0  0
  1  2  2  0
  2  3  1  0
  3  4  2  0
  4  5  1  0
  5  6  1  0
  6  7  1  0
  7  8  1  0
  8  9  2  0
  9 10  1  0
 10 11  2  0
 11 12  1  0
 12 13  1  0
 12 14  2  0
 14 15  1  0
 15 16  2  0
 15 17  1  0
 17 18  1  0
  5 19  2  0
 19 20  1  0
 20 21  2  0
 21 22  1  0
 22 23  1  0
 22 24  1  0
 21  3  1  0
 17  6  2  0
 14  8  1  0
  1 25  1  0
  1 26  1  0
  2 27  1  0
  4 28  1  0
  9 29  1  0
 10 30  1  0
 11 31  1  0
 13 32  1  0
 18 33  1  0
 19 34  1  0
 20 35  1  0
 22 36  1  0
M  END
>  <meeko>  (7) 
{"is_sidechain": [false], "free_energy": -5.556, "intermolecular_energy": -7.086, "internal_energy": -0.144}

$$$$
cand_021_out
     RDKit          3D

 36 38  0  0  0  0  0  0  0  0999 V2000
  178.4490   22.6350   47.6550 C   0  0  0  0  0  0  0  0  0  0  0  0
  179.3130   21.6560   47.9490 C   0  0  0  0  0  0  0  0  0  0  0  0
  180.4400   21.3040   47.0760 C   0  0  0  0  0  0  0  0  0  0  0  0
  181.5450   22.1710   47.0020 C   0  0  0  0  0  0  0  0  0  0  0  0
  182.6520   21.8790   46.1910 C   0  0  0  0  0  0  0  0  0  0  0  0
  183.8230   22.7780   46.1250 C   0  0  0  0  0  0  0  0  0  0  0  0
  184.1620   23.3160   47.3610 O   0  0  0  0  0  0  0  0  0  0  0  0
  185.2320   24.1700   47.4410 C   0  0  0  0  0  0  0  0  0  0  0  0
  185.5280   24.7000   48.6980 C   0  0  0  0  0  0  0  0  0  0  0  0
  186.6070   25.5750   48.8490 C   0  0  0  0  0  0  0  0  0  0  0  0
  187.3880   25.9190   47.7450 C   0  0  0  0  0  0  0  0  0  0  0  0
  187.0910   25.3890   46.4910 C   0  0  0  0  0  0  0  0  0  0  0  0
  187.8970   25.7670   45.4540 O   0  0  0  0  0  0  0  0  0  0  0  0
  186.0120   24.5140   46.3410 C   0  0  0  0  0  0  0  0  0  0  0  0
  185.6650   23.9350   45.0420 C   0  0  0  0  0  0  0  0  0  0  0  0
  186.3090   24.1830   44.0240 O   0  0  0  0  0  0  0  0  0  0  0  0
  184.4980   23.0250   44.9880 C   0  0  0  0  0  0  0  0  0  0  0  0
  184.1860   22.4720   43.7600 O   0  0  0  0  0  0  0  0  0  0  0  0
  182.6500   20.6820   45.4660 C   0  0  0  0  0  0  0  0  0  0  0  0
  181.5610   19.8090   45.5340 C   0  0  0  0  0  0  0  0  0  0  0  0
  180.4460   20.1070   46.3350 C   0  0  0  0  0  0  0  0  0  0  0  0
  179.2780   19.1520   46.3720 C   0  0  0  0  0  0  0  0  0  0  0  0
  179.5140   18.0050   45.6760 F   0  0  0  0  0  0  0  0  0  0  0  0
  178.1370   19.6730   45.8320 F   0  0  0  0  0  0  0  0  0  0  0  0
  177.6199   22.8614   48.3415 H   0  0  0  0  0  0  0  0  0  0  0  0
  178.5680   23.2132   46.7268 H   0  0  0  0  0  0  0  0  0  0  0  0
  179.1731   21.0919   48.8829 H   0  0  0  0  0  0  0  0  0  0  0  0
  181.5412   23.0987   47.5931 H   0  0  0  0  0  0  0  0  0  0  0  0
  184.9126   24.4292   49.5686 H   0  0  0  0  0  0  0  0  0  0  0  0
  186.8409   25.9931   49.8392 H   0  0  0  0  0  0  0  0  0  0  0  0
  188.2372   26.6078   47.8645 H   0  0  0  0  0  0  0  0  0  0  0  0
  187.5190   26.1040   44.6640 H   0  0  0  0  0  0  0  0  0  0  0  0
  183.8230   21.6090   43.7120 H   0  0  0  0  0  0  0  0  0  0  0  0
  183.5146   20.4257   44.8361 H   0  0  0  0  0  0  0  0  0  0  0  0
  181.5770   18.8755   44.9523 H   0  0  0  0  0  0  0  0  0  0  0  0
  179.1491   18.9532   47.4462 H   0  0  0  0  0  0  0  0  0  0  0  0
  1  2  2  0
  2  3  1  0
  3  4  2  0
  4  5  1  0
  5  6  1  0
  6  7  1  0
  7  8  1  0
  8  9  2  0
  9 10  1  0
 10 11  2  0
 11 12  1  0
 12 13  1  0
 12 14  2  0
 14 15  1  0
 15 16  2  0
 15 17  1  0
 17 18  1  0
  5 19  2  0
 19 20  1  0
 20 21  2  0
 21 22  1  0
 22 23  1  0
 22 24  1  0
 21  3  1  0
 17  6  2  0
 14  8  1  0
  1 25  1  0
  1 26  1  0
  2 27  1  0
  4 28  1  0
  9 29  1  0
 10 30  1  0
 11 31  1  0
 13 32  1  0
 18 33  1  0
 19 34  1  0
 20 35  1  0
 22 36  1  0
M  END
>  <meeko>  (8) 
{"is_sidechain": [false], "free_energy": -5.538, "intermolecular_energy": -6.947, "internal_energy": -0.261}

$$$$
cand_021_out
     RDKit          3D

 36 38  0  0  0  0  0  0  0  0999 V2000
  186.9500   21.3740   43.1000 C   0  0  0  0  0  0  0  0  0  0  0  0
  186.1760   22.4530   43.2670 C   0  0  0  0  0  0  0  0  0  0  0  0
  185.4150   22.7000   44.4980 C   0  0  0  0  0  0  0  0  0  0  0  0
  184.1900   22.0360   44.6910 C   0  0  0  0  0  0  0  0  0  0  0  0
  183.4260   22.2290   45.8510 C   0  0  0  0  0  0  0  0  0  0  0  0
  182.1490   21.5190   46.0650 C   0  0  0  0  0  0  0  0  0  0  0  0
  181.2450   22.2480   46.8280 O   0  0  0  0  0  0  0  0  0  0  0  0
  180.0170   21.7020   47.1030 C   0  0  0  0  0  0  0  0  0  0  0  0
  179.1460   22.4620   47.8850 C   0  0  0  0  0  0  0  0  0  0  0  0
  177.8790   21.9650   48.2000 C   0  0  0  0  0  0  0  0  0  0  0  0
  177.4840   20.7110   47.7330 C   0  0  0  0  0  0  0  0  0  0  0  0
  178.3540   19.9540   46.9520 C   0  0  0  0  0  0  0  0  0  0  0  0
  177.9030   18.7350   46.5280 O   0  0  0  0  0  0  0  0  0  0  0  0
  179.6220   20.4510   46.6380 C   0  0  0  0  0  0  0  0  0  0  0  0
  180.5670   19.6900   45.8200 C   0  0  0  0  0  0  0  0  0  0  0  0
  180.2900   18.5810   45.3660 O   0  0  0  0  0  0  0  0  0  0  0  0
  181.8880   20.3020   45.5510 C   0  0  0  0  0  0  0  0  0  0  0  0
  182.7690   19.5810   44.7670 O   0  0  0  0  0  0  0  0  0  0  0  0
  183.9230   23.0840   46.8410 C   0  0  0  0  0  0  0  0  0  0  0  0
  185.1410   23.7450   46.6660 C   0  0  0  0  0  0  0  0  0  0  0  0
  185.9000   23.5640   45.4970 C   0  0  0  0  0  0  0  0  0  0  0  0
  187.2020   24.3090   45.3310 C   0  0  0  0  0  0  0  0  0  0  0  0
  187.8550   24.4990   46.5120 F   0  0  0  0  0  0  0  0  0  0  0  0
  187.0470   25.5580   44.8000 F   0  0  0  0  0  0  0  0  0  0  0  0
  187.5013   21.2329   42.1586 H   0  0  0  0  0  0  0  0  0  0  0  0
  187.0349   20.6282   43.9041 H   0  0  0  0  0  0  0  0  0  0  0  0
  186.1072   23.1847   42.4485 H   0  0  0  0  0  0  0  0  0  0  0  0
  183.8228   21.3494   43.9140 H   0  0  0  0  0  0  0  0  0  0  0  0
  179.4567   23.4510   48.2528 H   0  0  0  0  0  0  0  0  0  0  0  0
  177.1920   22.5629   48.8169 H   0  0  0  0  0  0  0  0  0  0  0  0
  176.4861   20.3205   47.9815 H   0  0  0  0  0  0  0  0  0  0  0  0
  177.2530   18.2760   47.0250 H   0  0  0  0  0  0  0  0  0  0  0  0
  182.4450   19.0330   44.0800 H   0  0  0  0  0  0  0  0  0  0  0  0
  183.3486   23.2371   47.7665 H   0  0  0  0  0  0  0  0  0  0  0  0
  185.5115   24.4168   47.4543 H   0  0  0  0  0  0  0  0  0  0  0  0
  187.7763   23.6618   44.6518 H   0  0  0  0  0  0  0  0  0  0  0  0
  1  2  2  0
  2  3  1  0
  3  4  2  0
  4  5  1  0
  5  6  1  0
  6  7  1  0
  7  8  1  0
  8  9  2  0
  9 10  1  0
 10 11  2  0
 11 12  1  0
 12 13  1  0
 12 14  2  0
 14 15  1  0
 15 16  2  0
 15 17  1  0
 17 18  1  0
  5 19  2  0
 19 20  1  0
 20 21  2  0
 21 22  1  0
 22 23  1  0
 22 24  1  0
 21  3  1  0
 17  6  2  0
 14  8  1  0
  1 25  1  0
  1 26  1  0
  2 27  1  0
  4 28  1  0
  9 29  1  0
 10 30  1  0
 11 31  1  0
 13 32  1  0
 18 33  1  0
 19 34  1  0
 20 35  1  0
 22 36  1  0
M  END
>  <meeko>  (9) 
{"is_sidechain": [false], "free_energy": -5.416, "intermolecular_energy": -6.886, "internal_energy": -0.171}

$$$$
