cand_015_out
     RDKit          3D

 36 38  0  0  0  0  0  0  0  0999 V2000
  181.0890   14.4950   41.6160 C   0  0  0  0  0  0  0  0  0  0  0  0
  181.7960   15.1590   42.5370 C   0  0  0  0  0  0  0  0  0  0  0  0
  183.1040   14.8490   42.6740 F   0  0  0  0  0  0  0  0  0  0  0  0
  181.2400   16.1820   43.4400 C   0  0  0  0  0  0  0  0  0  0  0  0
  181.5210   17.5400   43.2070 C   0  0  0  0  0  0  0  0  0  0  0  0
  181.0330   18.5370   44.0580 C   0  0  0  0  0  0  0  0  0  0  0  0
  180.2510   18.2080   45.1680 C   0  0  0  0  0  0  0  0  0  0  0  0
  179.7490   19.2400   46.1000 C   0  0  0  0  0  0  0  0  0  0  0  0
  178.3650   19.2290   46.2250 O   0  0  0  0  0  0  0  0  0  0  0  0
  177.7670   20.1370   47.0600 C   0  0  0  0  0  0  0  0  0  0  0  0
  176.3760   20.0810   47.1660 C   0  0  0  0  0  0  0  0  0  0  0  0
  175.7030   20.9790   47.9980 C   0  0  0  0  0  0  0  0  0  0  0  0
  176.4210   21.9320   48.7240 C   0  0  0  0  0  0  0  0  0  0  0  0
  177.8080   21.9860   48.6170 C   0  0  0  0  0  0  0  0  0  0  0  0
  178.4490   22.9440   49.3540 O   0  0  0  0  0  0  0  0  0  0  0  0
  178.4800   21.0860   47.7840 C   0  0  0  0  0  0  0  0  0  0  0  0
  179.9370   21.1090   47.6430 C   0  0  0  0  0  0  0  0  0  0  0  0
  180.6380   21.9220   48.2420 O   0  0  0  0  0  0  0  0  0  0  0  0
  180.5530   20.1090   46.7410 C   0  0  0  0  0  0  0  0  0  0  0  0
  181.9290   20.1470   46.6040 O   0  0  0  0  0  0  0  0  0  0  0  0
  179.9830   16.8530   45.4140 C   0  0  0  0  0  0  0  0  0  0  0  0
  180.4580   15.8360   44.5620 C   0  0  0  0  0  0  0  0  0  0  0  0
  180.1270   14.4050   44.8950 C   0  0  0  0  0  0  0  0  0  0  0  0
  180.0214   14.7194   41.4750 H   0  0  0  0  0  0  0  0  0  0  0  0
  181.5752   13.7245   40.9995 H   0  0  0  0  0  0  0  0  0  0  0  0
  182.1356   17.8233   42.3399 H   0  0  0  0  0  0  0  0  0  0  0  0
  181.2675   19.5916   43.8511 H   0  0  0  0  0  0  0  0  0  0  0  0
  175.8103   19.3302   46.5947 H   0  0  0  0  0  0  0  0  0  0  0  0
  174.6070   20.9355   48.0814 H   0  0  0  0  0  0  0  0  0  0  0  0
  175.8913   22.6389   49.3794 H   0  0  0  0  0  0  0  0  0  0  0  0
  177.9540   23.5240   49.8990 H   0  0  0  0  0  0  0  0  0  0  0  0
  182.4300   20.7740   47.0880 H   0  0  0  0  0  0  0  0  0  0  0  0
  179.3860   16.5770   46.2957 H   0  0  0  0  0  0  0  0  0  0  0  0
  180.0981   14.2800   45.9875 H   0  0  0  0  0  0  0  0  0  0  0  0
  179.1455   14.1473   44.4704 H   0  0  0  0  0  0  0  0  0  0  0  0
  180.8956   13.7425   44.4704 H   0  0  0  0  0  0  0  0  0  0  0  0
  1  2  2  0
  2  3  1  0
  2  4  1  0
  4  5  2  0
  5  6  1  0
  6  7  2  0
  7  8  1  0
  8  9  1  0
  9 10  1  0
 10 11  2  0
 11 12  1  0
 12 13  2  0
 13 14  1  0
 14 15  1  0
 14 16  2  0
 16 17  1  0
 17 18  2  0
 17 19  1  0
 19 20  1  0
  7 21  1  0
 21 22  2  0
 22 23  1  0
 22  4  1  0
 19  8  2  0
 16 10  1  0
  1 24  1  0
  1 25  1  0
  5 26  1  0
  6 27  1  0
 11 28  1  0
 12 29  1  0
 13 30  1  0
 15 31  1  0
 20 32  1  0
 21 33  1  0
 23 34  1  0
 23 35  1  0
 23 36  1  0
M  END
>  <meeko>  (1) 
{"is_sidechain": [false], "free_energy": -8.636, "intermolecular_energy": -10.151, "internal_energy": -0.251}

$$$$
cand_015_out
     RDKit          3D

 36 38  0  0  0  0  0  0  0  0999 V2000
  176.6800   23.8270   48.8080 C   0  0  0  0  0  0  0  0  0  0  0  0
  176.5190   22.5030   48.8920 C   0  0  0  0  0  0  0  0  0  0  0  0
  175.6080   22.0320   49.7730 F   0  0  0  0  0  0  0  0  0  0  0  0
  177.2890   21.5150   48.1160 C   0  0  0  0  0  0  0  0  0  0  0  0
  178.6790   21.4160   48.3040 C   0  0  0  0  0  0  0  0  0  0  0  0
  179.4470   20.5090   47.5660 C   0  0  0  0  0  0  0  0  0  0  0  0
  178.8500   19.6730   46.6190 C   0  0  0  0  0  0  0  0  0  0  0  0
  179.6430   18.7280   45.8040 C   0  0  0  0  0  0  0  0  0  0  0  0
  179.1330   17.4350   45.8260 O   0  0  0  0  0  0  0  0  0  0  0  0
  179.7740   16.4570   45.1110 C   0  0  0  0  0  0  0  0  0  0  0  0
  179.2190   15.1760   45.1510 C   0  0  0  0  0  0  0  0  0  0  0  0
  179.8250   14.1330   44.4460 C   0  0  0  0  0  0  0  0  0  0  0  0
  180.9830   14.3700   43.7030 C   0  0  0  0  0  0  0  0  0  0  0  0
  181.5340   15.6480   43.6650 C   0  0  0  0  0  0  0  0  0  0  0  0
  182.6690   15.8100   42.9190 O   0  0  0  0  0  0  0  0  0  0  0  0
  180.9280   16.6920   44.3700 C   0  0  0  0  0  0  0  0  0  0  0  0
  181.4740   18.0500   44.3570 C   0  0  0  0  0  0  0  0  0  0  0  0
  182.4940   18.3360   43.7330 O   0  0  0  0  0  0  0  0  0  0  0  0
  180.7520   19.0850   45.1320 C   0  0  0  0  0  0  0  0  0  0  0  0
  181.2850   20.3620   45.1230 O   0  0  0  0  0  0  0  0  0  0  0  0
  177.4660   19.7820   46.4160 C   0  0  0  0  0  0  0  0  0  0  0  0
  176.6760   20.6830   47.1570 C   0  0  0  0  0  0  0  0  0  0  0  0
  175.1960   20.7380   46.8800 C   0  0  0  0  0  0  0  0  0  0  0  0
  177.4116   24.2485   48.1030 H   0  0  0  0  0  0  0  0  0  0  0  0
  176.0809   24.4953   49.4439 H   0  0  0  0  0  0  0  0  0  0  0  0
  179.1713   22.0633   49.0446 H   0  0  0  0  0  0  0  0  0  0  0  0
  180.5328   20.4534   47.7331 H   0  0  0  0  0  0  0  0  0  0  0  0
  178.3067   14.9886   45.7363 H   0  0  0  0  0  0  0  0  0  0  0  0
  179.3890   13.1235   44.4764 H   0  0  0  0  0  0  0  0  0  0  0  0
  181.4594   13.5481   43.1484 H   0  0  0  0  0  0  0  0  0  0  0  0
  183.5010   15.8840   43.3420 H   0  0  0  0  0  0  0  0  0  0  0  0
  180.7690   21.0830   44.8190 H   0  0  0  0  0  0  0  0  0  0  0  0
  176.9847   19.1468   45.6578 H   0  0  0  0  0  0  0  0  0  0  0  0
  174.6453   20.7585   47.8320 H   0  0  0  0  0  0  0  0  0  0  0  0
  174.9644   21.6454   46.3029 H   0  0  0  0  0  0  0  0  0  0  0  0
  174.8977   19.8503   46.3029 H   0  0  0  0  0  0  0  0  0  0  0  0
  1  2  2  0
  2  3  1  0
  2  4  1  0
  4  5  2  0
  5  6  1  0
  6  7  2  0
  7  8  1  0
  8  9  1  0
  9 10  1  0
 10 11  2  0
 11 12  1  0
 12 13  2  0
 13 14  1  0
 14 15  1  0
 14 16  2  0
 16 17  1  0
 17 18  2  0
 17 19  1  0
 19 20  1  0
  7 21  1  0
 21 22  2  0
 22 23  1  0
 22  4  1  0
 19  8  2  0
 16 10  1  0
  1 24  1  0
  1 25  1  0
  5 26  1  0
  6 27  1  0
 11 28  1  0
 12 29  1  0
 13 30  1  0
 15 31  1  0
 20 32  1  0
 21 33  1  0
 23 34  1  0
 23 35  1  0
 23 36  1  0
M  END
>  <meeko>  (2) 
{"is_sidechain": [false], "free_energy": -7.708, "intermolecular_energy": -9.02, "internal_energy": -0.29}

$$$$
cand_015_out
     RDKit          3D

 36 38  0  0  0  0  0  0  0  0999 V2000
  181.2380   14.4900   41.8140 C   0  0  0  0  0  0  0  0  0  0  0  0
  180.7480   14.4890   43.0580 C   0  0  0  0  0  0  0  0  0  0  0  0
  180.4040   13.2990   43.6010 F   0  0  0  0  0  0  0  0  0  0  0  0
  180.5220   15.6980   43.8690 C   0  0  0  0  0  0  0  0  0  0  0  0
  179.7060   15.6240   45.0120 C   0  0  0  0  0  0  0  0  0  0  0  0
  179.4460   16.7570   45.7910 C   0  0  0  0  0  0  0  0  0  0  0  0
  179.9940   17.9970   45.4520 C   0  0  0  0  0  0  0  0  0  0  0  0
  179.7110   19.2150   46.2410 C   0  0  0  0  0  0  0  0  0  0  0  0
  178.3620   19.5510   46.2520 O   0  0  0  0  0  0  0  0  0  0  0  0
  177.9610   20.6620   46.9480 C   0  0  0  0  0  0  0  0  0  0  0  0
  176.5960   20.9530   46.9430 C   0  0  0  0  0  0  0  0  0  0  0  0
  176.1200   22.0730   47.6310 C   0  0  0  0  0  0  0  0  0  0  0  0
  177.0090   22.9000   48.3210 C   0  0  0  0  0  0  0  0  0  0  0  0
  178.3700   22.6060   48.3240 C   0  0  0  0  0  0  0  0  0  0  0  0
  179.1840   23.4570   49.0190 O   0  0  0  0  0  0  0  0  0  0  0  0
  178.8450   21.4860   47.6360 C   0  0  0  0  0  0  0  0  0  0  0  0
  180.2680   21.1420   47.6140 C   0  0  0  0  0  0  0  0  0  0  0  0
  181.1120   21.8240   48.1900 O   0  0  0  0  0  0  0  0  0  0  0  0
  180.6670   19.9300   46.8610 C   0  0  0  0  0  0  0  0  0  0  0  0
  182.0150   19.6210   46.8350 O   0  0  0  0  0  0  0  0  0  0  0  0
  180.7940   18.0770   44.3030 C   0  0  0  0  0  0  0  0  0  0  0  0
  181.0740   16.9450   43.5120 C   0  0  0  0  0  0  0  0  0  0  0  0
  181.9420   17.1150   42.2930 C   0  0  0  0  0  0  0  0  0  0  0  0
  181.5291   15.4381   41.3383 H   0  0  0  0  0  0  0  0  0  0  0  0
  181.3501   13.5427   41.2663 H   0  0  0  0  0  0  0  0  0  0  0  0
  179.2642   14.6583   45.2988 H   0  0  0  0  0  0  0  0  0  0  0  0
  178.8034   16.6707   46.6796 H   0  0  0  0  0  0  0  0  0  0  0  0
  175.8959   20.3022   46.3986 H   0  0  0  0  0  0  0  0  0  0  0  0
  175.0443   22.3031   47.6289 H   0  0  0  0  0  0  0  0  0  0  0  0
  176.6347   23.7821   48.8612 H   0  0  0  0  0  0  0  0  0  0  0  0
  179.7010   23.1340   49.7310 H   0  0  0  0  0  0  0  0  0  0  0  0
  182.6310   20.2410   46.4960 H   0  0  0  0  0  0  0  0  0  0  0  0
  181.2147   19.0506   44.0111 H   0  0  0  0  0  0  0  0  0  0  0  0
  182.9771   17.3177   42.6053 H   0  0  0  0  0  0  0  0  0  0  0  0
  181.9141   16.1943   41.6917 H   0  0  0  0  0  0  0  0  0  0  0  0
  181.5688   17.9571   41.6917 H   0  0  0  0  0  0  0  0  0  0  0  0
  1  2  2  0
  2  3  1  0
  2  4  1  0
  4  5  2  0
  5  6  1  0
  6  7  2  0
  7  8  1  0
  8  9  1  0
  9 10  1  0
 10 11  2  0
 11 12  1  0
 12 13  2  0
 13 14  1  0
 14 15  1  0
 14 16  2  0
 16 17  1  0
 17 18  2  0
 17 19  1  0
 19 20  1  0
  7 21  1  0
 21 22  2  0
 22 23  1  0
 22  4  1  0
 19  8  2  0
 16 10  1  0
  1 24  1  0
  1 25  1  0
  5 26  1  0
  6 27  1  0
 11 28  1  0
 12 29  1  0
 13 30  1  0
 15 31  1  0
 20 32  1  0
 21 33  1  0
 23 34  1  0
 23 35  1  0
 23 36  1  0
M  END
>  <meeko>  (3) 
{"is_sidechain": [false], "free_energy": -6.729, "intermolecular_energy": -8.7, "internal_energy": 0.54}

$$$$
cand_015_out
     RDKit          3D

 36 38  0  0  0  0  0  0  0  0999 V2000
  181.8960   15.6440   42.2880 C   0  0  0  0  0  0  0  0  0  0  0  0
  181.7140   15.7030   43.6110 C   0  0  0  0  0  0  0  0  0  0  0  0
  182.3610   14.7980   44.3790 F   0  0  0  0  0  0  0  0  0  0  0  0
  180.8290   16.6650   44.2920 C   0  0  0  0  0  0  0  0  0  0  0  0
  181.0730   18.0440   44.1630 C   0  0  0  0  0  0  0  0  0  0  0  0
  180.2710   18.9860   44.8160 C   0  0  0  0  0  0  0  0  0  0  0  0
  179.2010   18.5790   45.6180 C   0  0  0  0  0  0  0  0  0  0  0  0
  178.3570   19.5520   46.3430 C   0  0  0  0  0  0  0  0  0  0  0  0
  179.0610   20.6790   46.7510 O   0  0  0  0  0  0  0  0  0  0  0  0
  178.3960   21.6630   47.4370 C   0  0  0  0  0  0  0  0  0  0  0  0
  179.1380   22.7840   47.8140 C   0  0  0  0  0  0  0  0  0  0  0  0
  178.5230   23.8230   48.5170 C   0  0  0  0  0  0  0  0  0  0  0  0
  177.1670   23.7410   48.8420 C   0  0  0  0  0  0  0  0  0  0  0  0
  176.4300   22.6220   48.4650 C   0  0  0  0  0  0  0  0  0  0  0  0
  175.1070   22.6060   48.8150 O   0  0  0  0  0  0  0  0  0  0  0  0
  177.0460   21.5830   47.7600 C   0  0  0  0  0  0  0  0  0  0  0  0
  176.3070   20.3900   47.3440 C   0  0  0  0  0  0  0  0  0  0  0  0
  175.1140   20.2400   47.6000 O   0  0  0  0  0  0  0  0  0  0  0  0
  177.0520   19.3500   46.5970 C   0  0  0  0  0  0  0  0  0  0  0  0
  176.3470   18.2210   46.2200 O   0  0  0  0  0  0  0  0  0  0  0  0
  178.9660   17.2030   45.7620 C   0  0  0  0  0  0  0  0  0  0  0  0
  179.7570   16.2410   45.1040 C   0  0  0  0  0  0  0  0  0  0  0  0
  179.4390   14.7840   45.3120 C   0  0  0  0  0  0  0  0  0  0  0  0
  181.3865   16.3634   41.6301 H   0  0  0  0  0  0  0  0  0  0  0  0
  182.5553   14.8760   41.8572 H   0  0  0  0  0  0  0  0  0  0  0  0
  181.9097   18.3881   43.5373 H   0  0  0  0  0  0  0  0  0  0  0  0
  180.4847   20.0585   44.6970 H   0  0  0  0  0  0  0  0  0  0  0  0
  180.2058   22.8491   47.5578 H   0  0  0  0  0  0  0  0  0  0  0  0
  179.1071   24.7063   48.8148 H   0  0  0  0  0  0  0  0  0  0  0  0
  176.6825   24.5593   49.3949 H   0  0  0  0  0  0  0  0  0  0  0  0
  174.5390   21.9470   48.4670 H   0  0  0  0  0  0  0  0  0  0  0  0
  176.3680   17.9320   45.3290 H   0  0  0  0  0  0  0  0  0  0  0  0
  178.1409   16.8662   46.4068 H   0  0  0  0  0  0  0  0  0  0  0  0
  179.3921   14.5692   46.3898 H   0  0  0  0  0  0  0  0  0  0  0  0
  178.4688   14.5507   44.8491 H   0  0  0  0  0  0  0  0  0  0  0  0
  180.2238   14.1677   44.8491 H   0  0  0  0  0  0  0  0  0  0  0  0
  1  2  2  0
  2  3  1  0
  2  4  1  0
  4  5  2  0
  5  6  1  0
  6  7  2  0
  7  8  1  0
  8  9  1  0
  9 10  1  0
 10 11  2  0
 11 12  1  0
 12 13  2  0
 13 14  1  0
 14 15  1  0
 14 16  2  0
 16 17  1  0
 17 18  2  0
 17 19  1  0
 19 20  1  0
  7 21  1  0
 21 22  2  0
 22 23  1  0
 22  4  1  0
 19  8  2  0
 16 10  1  0
  1 24  1  0
  1 25  1  0
  5 26  1  0
  6 27  1  0
 11 28  1  0
 12 29  1  0
 13 30  1  0
 15 31  1  0
 20 32  1  0
 21 33  1  0
 23 34  1  0
 23 35  1  0
 23 36  1  0
M  END
>  <meeko>  (4) 
{"is_sidechain": [false], "free_energy": -6.467, "intermolecular_energy": -7.854, "internal_energy": 0.002}

$$$$
cand_015_out
     RDKit          3D

 36 38  0  0  0  0  0  0  0  0999 V2000
  180.5300   14.3830   42.6160 C   0  0  0  0  0  0  0  0  0  0  0  0
  181.2970   15.1430   43.4040 C   0  0  0  0  0  0  0  0  0  0  0  0
  182.6130   14.8430   43.4840 F   0  0  0  0  0  0  0  0  0  0  0  0
  180.8040   16.2650   44.2220 C   0  0  0  0  0  0  0  0  0  0  0  0
  179.7060   16.0700   45.0780 C   0  0  0  0  0  0  0  0  0  0  0  0
  179.1930   17.1190   45.8490 C   0  0  0  0  0  0  0  0  0  0  0  0
  179.7610   18.3930   45.7880 C   0  0  0  0  0  0  0  0  0  0  0  0
  179.2190   19.5260   46.5690 C   0  0  0  0  0  0  0  0  0  0  0  0
  177.8290   19.5290   46.6230 O   0  0  0  0  0  0  0  0  0  0  0  0
  177.1960   20.5280   47.3170 C   0  0  0  0  0  0  0  0  0  0  0  0
  175.8010   20.4840   47.3570 C   0  0  0  0  0  0  0  0  0  0  0  0
  175.0930   21.4730   48.0450 C   0  0  0  0  0  0  0  0  0  0  0  0
  175.7780   22.5030   48.6910 C   0  0  0  0  0  0  0  0  0  0  0  0
  177.1700   22.5440   48.6490 C   0  0  0  0  0  0  0  0  0  0  0  0
  177.7770   23.5810   49.3030 O   0  0  0  0  0  0  0  0  0  0  0  0
  177.8780   21.5540   47.9610 C   0  0  0  0  0  0  0  0  0  0  0  0
  179.3400   21.5600   47.8930 C   0  0  0  0  0  0  0  0  0  0  0  0
  180.0140   22.4370   48.4290 O   0  0  0  0  0  0  0  0  0  0  0  0
  179.9940   20.4630   47.1440 C   0  0  0  0  0  0  0  0  0  0  0  0
  181.3750   20.4850   47.0750 O   0  0  0  0  0  0  0  0  0  0  0  0
  180.8450   18.5960   44.9210 C   0  0  0  0  0  0  0  0  0  0  0  0
  181.3810   17.5490   44.1450 C   0  0  0  0  0  0  0  0  0  0  0  0
  182.5460   17.8490   43.2390 C   0  0  0  0  0  0  0  0  0  0  0  0
  179.4546   14.5955   42.5248 H   0  0  0  0  0  0  0  0  0  0  0  0
  180.9742   13.5450   42.0588 H   0  0  0  0  0  0  0  0  0  0  0  0
  179.2418   15.0749   45.1429 H   0  0  0  0  0  0  0  0  0  0  0  0
  178.3329   16.9380   46.5103 H   0  0  0  0  0  0  0  0  0  0  0  0
  175.2604   19.6724   46.8480 H   0  0  0  0  0  0  0  0  0  0  0  0
  173.9940   21.4396   48.0774 H   0  0  0  0  0  0  0  0  0  0  0  0
  175.2199   23.2811   49.2324 H   0  0  0  0  0  0  0  0  0  0  0  0
  178.4450   23.4070   49.9370 H   0  0  0  0  0  0  0  0  0  0  0  0
  181.8260   19.8790   46.5200 H   0  0  0  0  0  0  0  0  0  0  0  0
  181.2886   19.5997   44.8449 H   0  0  0  0  0  0  0  0  0  0  0  0
  183.4338   18.0776   43.8469 H   0  0  0  0  0  0  0  0  0  0  0  0
  182.7515   16.9745   42.6042 H   0  0  0  0  0  0  0  0  0  0  0  0
  182.3036   18.7140   42.6042 H   0  0  0  0  0  0  0  0  0  0  0  0
  1  2  2  0
  2  3  1  0
  2  4  1  0
  4  5  2  0
  5  6  1  0
  6  7  2  0
  7  8  1  0
  8  9  1  0
  9 10  1  0
 10 11  2  0
 11 12  1  0
 12 13  2  0
 13 14  1  0
 14 15  1  0
 14 16  2  0
 16 17  1  0
 17 18  2  0
 17 19  1  0
 19 20  1  0
  7 21  1  0
 21 22  2  0
 22 23  1  0
 22  4  1  0
 19  8  2  0
 16 10  1  0
  1 24  1  0
  1 25  1  0
  5 26  1  0
  6 27  1  0
 11 28  1  0
 12 29  1  0
 13 30  1  0
 15 31  1  0
 20 32  1  0
 21 33  1  0
 23 34  1  0
 23 35  1  0
 23 36  1  0
M  END
>  <meeko>  (5) 
{"is_sidechain": [false], "free_energy": -6.241, "intermolecular_energy": -7.55, "internal_energy": -0.037}

$$$$
