cand_055_out
     RDKit          3D

 41 43  0  0  0  0  0  0  0  0999 V2000
  181.2260   15.3590   40.3440 C   0  0  0  0  0  0  0  0  0  0  0  0
  180.9770   14.5750   41.6230 C   0  0  0  0  0  0  0  0  0  0  0  0
  181.9420   14.9970   42.7320 C   0  0  0  0  0  0  0  0  0  0  0  0
  181.3470   16.0700   43.6180 C   0  0  0  0  0  0  0  0  0  0  0  0
  181.7440   17.4010   43.4100 C   0  0  0  0  0  0  0  0  0  0  0  0
  181.2370   18.4350   44.2010 C   0  0  0  0  0  0  0  0  0  0  0  0
  180.3170   18.1680   45.2180 C   0  0  0  0  0  0  0  0  0  0  0  0
  179.7830   19.2400   46.0860 C   0  0  0  0  0  0  0  0  0  0  0  0
  178.3930   19.2920   46.0870 O   0  0  0  0  0  0  0  0  0  0  0  0
  177.7650   20.2420   46.8510 C   0  0  0  0  0  0  0  0  0  0  0  0
  176.3700   20.2490   46.8330 C   0  0  0  0  0  0  0  0  0  0  0  0
  175.6680   21.1910   47.5880 C   0  0  0  0  0  0  0  0  0  0  0  0
  176.3610   22.1270   48.3590 C   0  0  0  0  0  0  0  0  0  0  0  0
  177.7530   22.1170   48.3760 C   0  0  0  0  0  0  0  0  0  0  0  0
  178.3680   23.0610   49.1510 O   0  0  0  0  0  0  0  0  0  0  0  0
  178.4550   21.1730   47.6200 C   0  0  0  0  0  0  0  0  0  0  0  0
  179.9180   21.1290   47.6090 C   0  0  0  0  0  0  0  0  0  0  0  0
  180.5980   21.9230   48.2560 O   0  0  0  0  0  0  0  0  0  0  0  0
  180.5660   20.0850   46.7810 C   0  0  0  0  0  0  0  0  0  0  0  0
  181.9490   20.0620   46.7690 O   0  0  0  0  0  0  0  0  0  0  0  0
  179.9320   16.8360   45.4360 C   0  0  0  0  0  0  0  0  0  0  0  0
  180.4380   15.7810   44.6540 C   0  0  0  0  0  0  0  0  0  0  0  0
  179.9670   14.3800   44.9320 C   0  0  0  0  0  0  0  0  0  0  0  0
  181.5501   16.3794   40.5966 H   0  0  0  0  0  0  0  0  0  0  0  0
  182.0100   14.8605   39.7551 H   0  0  0  0  0  0  0  0  0  0  0  0
  180.2980   15.4042   39.7551 H   0  0  0  0  0  0  0  0  0  0  0  0
  179.9451   14.7555   41.9585 H   0  0  0  0  0  0  0  0  0  0  0  0
  181.1373   13.5074   41.4118 H   0  0  0  0  0  0  0  0  0  0  0  0
  182.1812   14.1183   43.3490 H   0  0  0  0  0  0  0  0  0  0  0  0
  182.8467   15.4072   42.2596 H   0  0  0  0  0  0  0  0  0  0  0  0
  182.4650   17.6329   42.6123 H   0  0  0  0  0  0  0  0  0  0  0  0
  181.5653   19.4694   44.0213 H   0  0  0  0  0  0  0  0  0  0  0  0
  175.8236   19.5132   46.2247 H   0  0  0  0  0  0  0  0  0  0  0  0
  174.5681   21.1958   47.5755 H   0  0  0  0  0  0  0  0  0  0  0  0
  175.8080   22.8706   48.9516 H   0  0  0  0  0  0  0  0  0  0  0  0
  178.2290   23.0690   50.0780 H   0  0  0  0  0  0  0  0  0  0  0  0
  182.4110   20.1580   45.9600 H   0  0  0  0  0  0  0  0  0  0  0  0
  179.2155   16.6106   46.2397 H   0  0  0  0  0  0  0  0  0  0  0  0
  179.9133   14.2201   46.0190 H   0  0  0  0  0  0  0  0  0  0  0  0
  178.9703   14.2338   44.4902 H   0  0  0  0  0  0  0  0  0  0  0  0
  180.6729   13.6614   44.4902 H   0  0  0  0  0  0  0  0  0  0  0  0
  1  2  1  0
  2  3  1  0
  3  4  1  0
  4  5  2  0
  5  6  1  0
  6  7  2  0
  7  8  1  0
  8  9  1  0
  9 10  1  0
 10 11  2  0
 11 12  1  0
 12 13  2  0
 13 14  1  0
 14 15  1  0
 14 16  2  0
 16 17  1  0
 17 18  2  0
 17 19  1  0
 19 20  1  0
  7 21  1  0
 21 22  2  0
 22 23  1  0
 22  4  1  0
 19  8  2  0
 16 10  1  0
  1 24  1  0
  1 25  1  0
  1 26  1  0
  2 27  1  0
  2 28  1  0
  3 29  1  0
  3 30  1  0
  5 31  1  0
  6 32  1  0
 11 33  1  0
 12 34  1  0
 13 35  1  0
 15 36  1  0
 20 37  1  0
 21 38  1  0
 23 39  1  0
 23 40  1  0
 23 41  1  0
M  END
>  <meeko>  (1) 
{"is_sidechain": [false], "free_energy": -8.839, "intermolecular_energy": -10.906, "internal_energy": -0.321}

$$$$
cand_055_out
     RDKit          3D

 41 43  0  0  0  0  0  0  0  0999 V2000
  177.7980   24.1260   47.4160 C   0  0  0  0  0  0  0  0  0  0  0  0
  177.3750   23.8300   48.8460 C   0  0  0  0  0  0  0  0  0  0  0  0
  176.7730   22.4290   48.9710 C   0  0  0  0  0  0  0  0  0  0  0  0
  177.5150   21.4210   48.1220 C   0  0  0  0  0  0  0  0  0  0  0  0
  178.9070   21.3140   48.2760 C   0  0  0  0  0  0  0  0  0  0  0  0
  179.6480   20.4080   47.5140 C   0  0  0  0  0  0  0  0  0  0  0  0
  179.0190   19.5800   46.5810 C   0  0  0  0  0  0  0  0  0  0  0  0
  179.7830   18.6290   45.7440 C   0  0  0  0  0  0  0  0  0  0  0  0
  179.2450   17.3470   45.7550 O   0  0  0  0  0  0  0  0  0  0  0  0
  179.8560   16.3650   45.0200 C   0  0  0  0  0  0  0  0  0  0  0  0
  179.2740   15.0960   45.0490 C   0  0  0  0  0  0  0  0  0  0  0  0
  179.8470   14.0500   44.3230 C   0  0  0  0  0  0  0  0  0  0  0  0
  181.0020   14.2710   43.5700 C   0  0  0  0  0  0  0  0  0  0  0  0
  181.5800   15.5370   43.5430 C   0  0  0  0  0  0  0  0  0  0  0  0
  182.7110   15.6840   42.7870 O   0  0  0  0  0  0  0  0  0  0  0  0
  181.0060   16.5840   44.2690 C   0  0  0  0  0  0  0  0  0  0  0  0
  181.5830   17.9300   44.2680 C   0  0  0  0  0  0  0  0  0  0  0  0
  182.6010   18.2010   43.6360 O   0  0  0  0  0  0  0  0  0  0  0  0
  180.8930   18.9710   45.0640 C   0  0  0  0  0  0  0  0  0  0  0  0
  181.4540   20.2350   45.0660 O   0  0  0  0  0  0  0  0  0  0  0  0
  177.6300   19.6960   46.4160 C   0  0  0  0  0  0  0  0  0  0  0  0
  176.8690   20.6090   47.1700 C   0  0  0  0  0  0  0  0  0  0  0  0
  175.3820   20.6670   46.9520 C   0  0  0  0  0  0  0  0  0  0  0  0
  178.6992   24.7566   47.4233 H   0  0  0  0  0  0  0  0  0  0  0  0
  178.0153   23.1819   46.8950 H   0  0  0  0  0  0  0  0  0  0  0  0
  176.9855   24.6536   46.8950 H   0  0  0  0  0  0  0  0  0  0  0  0
  178.2553   23.9012   49.5017 H   0  0  0  0  0  0  0  0  0  0  0  0
  176.6095   24.5634   49.1396 H   0  0  0  0  0  0  0  0  0  0  0  0
  176.8222   22.1130   50.0235 H   0  0  0  0  0  0  0  0  0  0  0  0
  175.7316   22.4717   48.6192 H   0  0  0  0  0  0  0  0  0  0  0  0
  179.4215   21.9537   49.0081 H   0  0  0  0  0  0  0  0  0  0  0  0
  180.7378   20.3458   47.6498 H   0  0  0  0  0  0  0  0  0  0  0  0
  178.3651   14.9206   45.6432 H   0  0  0  0  0  0  0  0  0  0  0  0
  179.3880   13.0506   44.3442 H   0  0  0  0  0  0  0  0  0  0  0  0
  181.4541   13.4464   42.9994 H   0  0  0  0  0  0  0  0  0  0  0  0
  182.8980   16.5060   42.3780 H   0  0  0  0  0  0  0  0  0  0  0  0
  181.4820   20.7360   44.2750 H   0  0  0  0  0  0  0  0  0  0  0  0
  177.1230   19.0568   45.6782 H   0  0  0  0  0  0  0  0  0  0  0  0
  174.8693   20.6870   47.9250 H   0  0  0  0  0  0  0  0  0  0  0  0
  175.1296   21.5757   46.3858 H   0  0  0  0  0  0  0  0  0  0  0  0
  175.0596   19.7807   46.3858 H   0  0  0  0  0  0  0  0  0  0  0  0
  1  2  1  0
  2  3  1  0
  3  4  1  0
  4  5  2  0
  5  6  1  0
  6  7  2  0
  7  8  1  0
  8  9  1  0
  9 10  1  0
 10 11  2  0
 11 12  1  0
 12 13  2  0
 13 14  1  0
 14 15  1  0
 14 16  2  0
 16 17  1  0
 17 18  2  0
 17 19  1  0
 19 20  1  0
  7 21  1  0
 21 22  2  0
 22 23  1  0
 22  4  1  0
 19  8  2  0
 16 10  1  0
  1 24  1  0
  1 25  1  0
  1 26  1  0
  2 27  1  0
  2 28  1  0
  3 29  1  0
  3 30  1  0
  5 31  1  0
  6 32  1  0
 11 33  1  0
 12 34  1  0
 13 35  1  0
 15 36  1  0
 20 37  1  0
 21 38  1  0
 23 39  1  0
 23 40  1  0
 23 41  1  0
M  END
>  <meeko>  (2) 
{"is_sidechain": [false], "free_energy": -7.162, "intermolecular_energy": -9.046, "internal_energy": -0.112}

$$$$
cand_055_out
     RDKit          3D

 41 43  0  0  0  0  0  0  0  0999 V2000
  181.1610   14.3660   41.8800 C   0  0  0  0  0  0  0  0  0  0  0  0
  181.5620   15.8120   42.1190 C   0  0  0  0  0  0  0  0  0  0  0  0
  181.9790   16.0430   43.5730 C   0  0  0  0  0  0  0  0  0  0  0  0
  181.0020   16.9380   44.3020 C   0  0  0  0  0  0  0  0  0  0  0  0
  181.1830   18.3290   44.2210 C   0  0  0  0  0  0  0  0  0  0  0  0
  180.3190   19.2070   44.8810 C   0  0  0  0  0  0  0  0  0  0  0  0
  179.2490   18.7200   45.6360 C   0  0  0  0  0  0  0  0  0  0  0  0
  178.3340   19.6260   46.3640 C   0  0  0  0  0  0  0  0  0  0  0  0
  178.9610   20.7870   46.8030 O   0  0  0  0  0  0  0  0  0  0  0  0
  178.2270   21.7170   47.4940 C   0  0  0  0  0  0  0  0  0  0  0  0
  178.8920   22.8740   47.9030 C   0  0  0  0  0  0  0  0  0  0  0  0
  178.2030   23.8600   48.6120 C   0  0  0  0  0  0  0  0  0  0  0  0
  176.8500   23.6890   48.9130 C   0  0  0  0  0  0  0  0  0  0  0  0
  176.1890   22.5350   48.5030 C   0  0  0  0  0  0  0  0  0  0  0  0
  174.8650   22.4320   48.8330 O   0  0  0  0  0  0  0  0  0  0  0  0
  176.8790   21.5480   47.7930 C   0  0  0  0  0  0  0  0  0  0  0  0
  176.2210   20.3200   47.3450 C   0  0  0  0  0  0  0  0  0  0  0  0
  175.0350   20.0940   47.5770 O   0  0  0  0  0  0  0  0  0  0  0  0
  177.0390   19.3400   46.5920 C   0  0  0  0  0  0  0  0  0  0  0  0
  176.4100   18.1780   46.1850 O   0  0  0  0  0  0  0  0  0  0  0  0
  179.0760   17.3310   45.7300 C   0  0  0  0  0  0  0  0  0  0  0  0
  179.9410   16.4310   45.0780 C   0  0  0  0  0  0  0  0  0  0  0  0
  179.6860   14.9550   45.2090 C   0  0  0  0  0  0  0  0  0  0  0  0
  181.0206   13.8599   42.8465 H   0  0  0  0  0  0  0  0  0  0  0  0
  180.2205   14.3357   41.3102 H   0  0  0  0  0  0  0  0  0  0  0  0
  181.9515   13.8556   41.3102 H   0  0  0  0  0  0  0  0  0  0  0  0
  182.4066   16.0627   41.4604 H   0  0  0  0  0  0  0  0  0  0  0  0
  180.6942   16.4522   41.9020 H   0  0  0  0  0  0  0  0  0  0  0  0
  182.0257   15.0724   44.0885 H   0  0  0  0  0  0  0  0  0  0  0  0
  182.9613   16.5380   43.5725 H   0  0  0  0  0  0  0  0  0  0  0  0
  182.0175   18.7330   43.6291 H   0  0  0  0  0  0  0  0  0  0  0  0
  180.4829   20.2921   44.8054 H   0  0  0  0  0  0  0  0  0  0  0  0
  179.9579   23.0089   47.6670 H   0  0  0  0  0  0  0  0  0  0  0  0
  178.7264   24.7724   48.9338 H   0  0  0  0  0  0  0  0  0  0  0  0
  176.3078   24.4650   49.4731 H   0  0  0  0  0  0  0  0  0  0  0  0
  174.3990   23.1840   49.1420 H   0  0  0  0  0  0  0  0  0  0  0  0
  176.4290   17.4190   46.7330 H   0  0  0  0  0  0  0  0  0  0  0  0
  178.2428   16.9344   46.3287 H   0  0  0  0  0  0  0  0  0  0  0  0
  179.6392   14.6841   46.2741 H   0  0  0  0  0  0  0  0  0  0  0  0
  178.7311   14.7034   44.7244 H   0  0  0  0  0  0  0  0  0  0  0  0
  180.5012   14.3976   44.7244 H   0  0  0  0  0  0  0  0  0  0  0  0
  1  2  1  0
  2  3  1  0
  3  4  1  0
  4  5  2  0
  5  6  1  0
  6  7  2  0
  7  8  1  0
  8  9  1  0
  9 10  1  0
 10 11  2  0
 11 12  1  0
 12 13  2  0
 13 14  1  0
 14 15  1  0
 14 16  2  0
 16 17  1  0
 17 18  2  0
 17 19  1  0
 19 20  1  0
  7 21  1  0
 21 22  2  0
 22 23  1  0
 22  4  1  0
 19  8  2  0
 16 10  1  0
  1 24  1  0
  1 25  1  0
  1 26  1  0
  2 27  1  0
  2 28  1  0
  3 29  1  0
  3 30  1  0
  5 31  1  0
  6 32  1  0
 11 33  1  0
 12 34  1  0
 13 35  1  0
 15 36  1  0
 20 37  1  0
 21 38  1  0
 23 39  1  0
 23 40  1  0
 23 41  1  0
M  END
>  <meeko>  (3) 
{"is_sidechain": [false], "free_energy": -7.108, "intermolecular_energy": -8.941, "internal_energy": -0.149}

$$$$
cand_055_out
     RDKit          3D

 41 43  0  0  0  0  0  0  0  0999 V2000
  181.1510   15.0480   40.9120 C   0  0  0  0  0  0  0  0  0  0  0  0
  180.4080   14.5990   42.1600 C   0  0  0  0  0  0  0  0  0  0  0  0
  181.2460   14.8270   43.4190 C   0  0  0  0  0  0  0  0  0  0  0  0
  180.7590   16.0210   44.2100 C   0  0  0  0  0  0  0  0  0  0  0  0
  179.6690   15.8470   45.0780 C   0  0  0  0  0  0  0  0  0  0  0  0
  179.1680   16.9140   45.8280 C   0  0  0  0  0  0  0  0  0  0  0  0
  179.7450   18.1830   45.7350 C   0  0  0  0  0  0  0  0  0  0  0  0
  179.2190   19.3350   46.4990 C   0  0  0  0  0  0  0  0  0  0  0  0
  177.8310   19.3490   46.5680 O   0  0  0  0  0  0  0  0  0  0  0  0
  177.2110   20.3650   47.2480 C   0  0  0  0  0  0  0  0  0  0  0  0
  175.8160   20.3310   47.3040 C   0  0  0  0  0  0  0  0  0  0  0  0
  175.1220   21.3370   47.9800 C   0  0  0  0  0  0  0  0  0  0  0  0
  175.8200   22.3760   48.5980 C   0  0  0  0  0  0  0  0  0  0  0  0
  177.2110   22.4060   48.5410 C   0  0  0  0  0  0  0  0  0  0  0  0
  177.8320   23.4530   49.1670 O   0  0  0  0  0  0  0  0  0  0  0  0
  177.9060   21.3990   47.8650 C   0  0  0  0  0  0  0  0  0  0  0  0
  179.3670   21.3950   47.7810 C   0  0  0  0  0  0  0  0  0  0  0  0
  180.0520   22.2780   48.2930 O   0  0  0  0  0  0  0  0  0  0  0  0
  180.0070   20.2780   47.0470 C   0  0  0  0  0  0  0  0  0  0  0  0
  181.3880   20.2910   46.9630 O   0  0  0  0  0  0  0  0  0  0  0  0
  180.8250   18.3610   44.8570 C   0  0  0  0  0  0  0  0  0  0  0  0
  181.3380   17.2990   44.0880 C   0  0  0  0  0  0  0  0  0  0  0  0
  182.5090   17.5600   43.1810 C   0  0  0  0  0  0  0  0  0  0  0  0
  182.0589   15.5966   41.2032 H   0  0  0  0  0  0  0  0  0  0  0  0
  181.4304   14.1674   40.3149 H   0  0  0  0  0  0  0  0  0  0  0  0
  180.5014   15.7048   40.3149 H   0  0  0  0  0  0  0  0  0  0  0  0
  179.4719   15.1704   42.2445 H   0  0  0  0  0  0  0  0  0  0  0  0
  180.2007   13.5223   42.0717 H   0  0  0  0  0  0  0  0  0  0  0  0
  181.1856   13.9308   44.0539 H   0  0  0  0  0  0  0  0  0  0  0  0
  182.2829   15.0227   43.1085 H   0  0  0  0  0  0  0  0  0  0  0  0
  179.2023   14.8551   45.1689 H   0  0  0  0  0  0  0  0  0  0  0  0
  178.3108   16.7534   46.4983 H   0  0  0  0  0  0  0  0  0  0  0  0
  175.2648   19.5133   46.8166 H   0  0  0  0  0  0  0  0  0  0  0  0
  174.0233   21.3105   48.0255 H   0  0  0  0  0  0  0  0  0  0  0  0
  175.2726   23.1690   49.1286 H   0  0  0  0  0  0  0  0  0  0  0  0
  177.4080   24.2860   49.2180 H   0  0  0  0  0  0  0  0  0  0  0  0
  181.8960   19.7400   47.5250 H   0  0  0  0  0  0  0  0  0  0  0  0
  181.2831   19.3570   44.7671 H   0  0  0  0  0  0  0  0  0  0  0  0
  183.4049   17.7597   43.7872 H   0  0  0  0  0  0  0  0  0  0  0  0
  182.6847   16.6790   42.5462 H   0  0  0  0  0  0  0  0  0  0  0  0
  182.2939   18.4322   42.5462 H   0  0  0  0  0  0  0  0  0  0  0  0
  1  2  1  0
  2  3  1  0
  3  4  1  0
  4  5  2  0
  5  6  1  0
  6  7  2  0
  7  8  1  0
  8  9  1  0
  9 10  1  0
 10 11  2  0
 11 12  1  0
 12 13  2  0
 13 14  1  0
 14 15  1  0
 14 16  2  0
 16 17  1  0
 17 18  2  0
 17 19  1  0
 19 20  1  0
  7 21  1  0
 21 22  2  0
 22 23  1  0
 22  4  1  0
 19  8  2  0
 16 10  1  0
  1 24  1  0
  1 25  1  0
  1 26  1  0
  2 27  1  0
  2 28  1  0
  3 29  1  0
  3 30  1  0
  5 31  1  0
  6 32  1  0
 11 33  1  0
 12 34  1  0
 13 35  1  0
 15 36  1  0
 20 37  1  0
 21 38  1  0
 23 39  1  0
 23 40  1  0
 23 41  1  0
M  END
>  <meeko>  (4) 
{"is_sidechain": [false], "free_energy": -6.679, "intermolecular_energy": -8.319, "internal_energy": -0.243}

$$$$
cand_055_out
     RDKit          3D

 41 43  0  0  0  0  0  0  0  0999 V2000
  180.4440   14.3280   43.1420 C   0  0  0  0  0  0  0  0  0  0  0  0
  180.7270   15.1790   44.3690 C   0  0  0  0  0  0  0  0  0  0  0  0
  181.3110   16.5390   43.9820 C   0  0  0  0  0  0  0  0  0  0  0  0
  180.7250   17.6600   44.8130 C   0  0  0  0  0  0  0  0  0  0  0  0
  179.4850   17.4490   45.4380 C   0  0  0  0  0  0  0  0  0  0  0  0
  178.8890   18.4490   46.2100 C   0  0  0  0  0  0  0  0  0  0  0  0
  179.5170   19.6850   46.3840 C   0  0  0  0  0  0  0  0  0  0  0  0
  178.8970   20.7690   47.1760 C   0  0  0  0  0  0  0  0  0  0  0  0
  177.5100   20.6880   47.2100 O   0  0  0  0  0  0  0  0  0  0  0  0
  176.8060   21.6320   47.9110 C   0  0  0  0  0  0  0  0  0  0  0  0
  175.4160   21.5040   47.9300 C   0  0  0  0  0  0  0  0  0  0  0  0
  174.6400   22.4340   48.6250 C   0  0  0  0  0  0  0  0  0  0  0  0
  175.2520   23.4920   49.2990 C   0  0  0  0  0  0  0  0  0  0  0  0
  176.6390   23.6180   49.2790 C   0  0  0  0  0  0  0  0  0  0  0  0
  177.1730   24.6790   49.9580 O   0  0  0  0  0  0  0  0  0  0  0  0
  177.4150   22.6870   48.5840 C   0  0  0  0  0  0  0  0  0  0  0  0
  178.8750   22.7830   48.5370 C   0  0  0  0  0  0  0  0  0  0  0  0
  179.4860   23.6890   49.0990 O   0  0  0  0  0  0  0  0  0  0  0  0
  179.6070   21.7410   47.7790 C   0  0  0  0  0  0  0  0  0  0  0  0
  180.9850   21.8490   47.7320 O   0  0  0  0  0  0  0  0  0  0  0  0
  180.7490   19.9020   45.7480 C   0  0  0  0  0  0  0  0  0  0  0  0
  181.3610   18.9080   44.9600 C   0  0  0  0  0  0  0  0  0  0  0  0
  182.6900   19.2040   44.3220 C   0  0  0  0  0  0  0  0  0  0  0  0
  180.1115   13.3282   43.4580 H   0  0  0  0  0  0  0  0  0  0  0  0
  179.6556   14.8034   42.5400 H   0  0  0  0  0  0  0  0  0  0  0  0
  181.3601   14.2365   42.5400 H   0  0  0  0  0  0  0  0  0  0  0  0
  179.7880   15.3363   44.9199 H   0  0  0  0  0  0  0  0  0  0  0  0
  181.4624   14.6515   44.9942 H   0  0  0  0  0  0  0  0  0  0  0  0
  182.4002   16.5150   44.1342 H   0  0  0  0  0  0  0  0  0  0  0  0
  181.0629   16.7298   42.9275 H   0  0  0  0  0  0  0  0  0  0  0  0
  178.9755   16.4816   45.3177 H   0  0  0  0  0  0  0  0  0  0  0  0
  177.9152   18.2615   46.6859 H   0  0  0  0  0  0  0  0  0  0  0  0
  174.9325   20.6714   47.3980 H   0  0  0  0  0  0  0  0  0  0  0  0
  173.5448   22.3326   48.6413 H   0  0  0  0  0  0  0  0  0  0  0  0
  174.6400   24.2250   49.8450 H   0  0  0  0  0  0  0  0  0  0  0  0
  177.5630   25.3880   49.4870 H   0  0  0  0  0  0  0  0  0  0  0  0
  181.4910   21.1900   47.3000 H   0  0  0  0  0  0  0  0  0  0  0  0
  181.2498   20.8740   45.8681 H   0  0  0  0  0  0  0  0  0  0  0  0
  183.4436   19.3718   45.1055 H   0  0  0  0  0  0  0  0  0  0  0  0
  182.9946   18.3517   43.6969 H   0  0  0  0  0  0  0  0  0  0  0  0
  182.6041   20.1050   43.6969 H   0  0  0  0  0  0  0  0  0  0  0  0
  1  2  1  0
  2  3  1  0
  3  4  1  0
  4  5  2  0
  5  6  1  0
  6  7  2  0
  7  8  1  0
  8  9  1  0
  9 10  1  0
 10 11  2  0
 11 12  1  0
 12 13  2  0
 13 14  1  0
 14 15  1  0
 14 16  2  0
 16 17  1  0
 17 18  2  0
 17 19  1  0
 19 20  1  0
  7 21  1  0
 21 22  2  0
 22 23  1  0
 22  4  1  0
 19  8  2  0
 16 10  1  0
  1 24  1  0
  1 25  1  0
  1 26  1  0
  2 27  1  0
  2 28  1  0
  3 29  1  0
  3 30  1  0
  5 31  1  0
  6 32  1  0
 11 33  1  0
 12 34  1  0
 13 35  1  0
 15 36  1  0
 20 37  1  0
 21 38  1  0
 23 39  1  0
 23 40  1  0
 23 41  1  0
M  END
>  <meeko>  (5) 
{"is_sidechain": [false], "free_energy": -6.394, "intermolecular_energy": -8.209, "internal_energy": -0.001}

$$$$
