cand_051_out
     RDKit          3D

 44 46  0  0  0  0  0  0  0  0999 V2000
  179.6790   15.1350   45.1760 C   0  0  0  0  0  0  0  0  0  0  0  0
  180.1400   16.5610   45.0540 C   0  0  0  0  0  0  0  0  0  0  0  0
  179.5150   17.5420   45.8480 C   0  0  0  0  0  0  0  0  0  0  0  0
  179.8890   18.8940   45.7870 C   0  0  0  0  0  0  0  0  0  0  0  0
  179.1870   19.8920   46.6220 C   0  0  0  0  0  0  0  0  0  0  0  0
  177.8140   19.6790   46.6780 O   0  0  0  0  0  0  0  0  0  0  0  0
  177.0400   20.5340   47.4200 C   0  0  0  0  0  0  0  0  0  0  0  0
  175.6660   20.2910   47.4380 C   0  0  0  0  0  0  0  0  0  0  0  0
  174.8210   21.1230   48.1760 C   0  0  0  0  0  0  0  0  0  0  0  0
  175.3490   22.1960   48.8960 C   0  0  0  0  0  0  0  0  0  0  0  0
  176.7210   22.4350   48.8770 C   0  0  0  0  0  0  0  0  0  0  0  0
  177.1710   23.5030   49.6060 O   0  0  0  0  0  0  0  0  0  0  0  0
  177.5670   21.6040   48.1380 C   0  0  0  0  0  0  0  0  0  0  0  0
  179.0120   21.8200   48.0920 C   0  0  0  0  0  0  0  0  0  0  0  0
  179.5530   22.7380   48.7050 O   0  0  0  0  0  0  0  0  0  0  0  0
  179.8190   20.8860   47.2730 C   0  0  0  0  0  0  0  0  0  0  0  0
  181.1860   21.0920   47.2470 O   0  0  0  0  0  0  0  0  0  0  0  0
  180.8970   19.2620   44.8920 C   0  0  0  0  0  0  0  0  0  0  0  0
  181.5250   18.3020   44.0950 C   0  0  0  0  0  0  0  0  0  0  0  0
  181.1640   16.9460   44.1660 C   0  0  0  0  0  0  0  0  0  0  0  0
  181.8930   15.9610   43.2740 C   0  0  0  0  0  0  0  0  0  0  0  0
  181.0550   15.4550   42.0820 C   0  0  0  0  0  0  0  0  0  0  0  0
  181.5060   14.0450   41.6930 C   0  0  0  0  0  0  0  0  0  0  0  0
  181.1590   16.3810   40.8670 C   0  0  0  0  0  0  0  0  0  0  0  0
  179.5925   14.8673   46.2394 H   0  0  0  0  0  0  0  0  0  0  0  0
  178.6990   15.0235   44.6889 H   0  0  0  0  0  0  0  0  0  0  0  0
  180.4082   14.4710   44.6889 H   0  0  0  0  0  0  0  0  0  0  0  0
  178.7110   17.2405   46.5355 H   0  0  0  0  0  0  0  0  0  0  0  0
  175.2489   19.4452   46.8717 H   0  0  0  0  0  0  0  0  0  0  0  0
  173.7377   20.9324   48.1898 H   0  0  0  0  0  0  0  0  0  0  0  0
  174.6832   22.8511   49.4769 H   0  0  0  0  0  0  0  0  0  0  0  0
  177.9690   23.9300   49.3660 H   0  0  0  0  0  0  0  0  0  0  0  0
  181.5390   21.9250   47.4920 H   0  0  0  0  0  0  0  0  0  0  0  0
  181.1986   20.3170   44.8144 H   0  0  0  0  0  0  0  0  0  0  0  0
  182.3173   18.6136   43.3985 H   0  0  0  0  0  0  0  0  0  0  0  0
  182.7941   16.4531   42.8792 H   0  0  0  0  0  0  0  0  0  0  0  0
  182.1271   15.0830   43.8940 H   0  0  0  0  0  0  0  0  0  0  0  0
  180.0025   15.4415   42.4014 H   0  0  0  0  0  0  0  0  0  0  0  0
  181.6943   13.4562   42.6029 H   0  0  0  0  0  0  0  0  0  0  0  0
  180.7184   13.5591   41.0983 H   0  0  0  0  0  0  0  0  0  0  0  0
  182.4293   14.1064   41.0983 H   0  0  0  0  0  0  0  0  0  0  0  0
  181.2758   17.4205   41.2072 H   0  0  0  0  0  0  0  0  0  0  0  0
  182.0305   16.0936   40.2605 H   0  0  0  0  0  0  0  0  0  0  0  0
  180.2454   16.2941   40.2605 H   0  0  0  0  0  0  0  0  0  0  0  0
  1  2  1  0
  2  3  2  0
  3  4  1  0
  4  5  1  0
  5  6  1  0
  6  7  1  0
  7  8  2  0
  8  9  1  0
  9 10  2  0
 10 11  1  0
 11 12  1  0
 11 13  2  0
 13 14  1  0
 14 15  2  0
 14 16  1  0
 16 17  1  0
  4 18  2  0
 18 19  1  0
 19 20  2  0
 20 21  1  0
 21 22  1  0
 22 23  1  0
 22 24  1  0
 20  2  1  0
 16  5  2  0
 13  7  1  0
  1 25  1  0
  1 26  1  0
  1 27  1  0
  3 28  1  0
  8 29  1  0
  9 30  1  0
 10 31  1  0
 12 32  1  0
 17 33  1  0
 18 34  1  0
 19 35  1  0
 21 36  1  0
 21 37  1  0
 22 38  1  0
 23 39  1  0
 23 40  1  0
 23 41  1  0
 24 42  1  0
 24 43  1  0
 24 44  1  0
M  END
>  <meeko>  (1) 
{"is_sidechain": [false], "free_energy": -8.477, "intermolecular_energy": -10.459, "internal_energy": -0.319}

$$$$
cand_051_out
     RDKit          3D

 44 46  0  0  0  0  0  0  0  0999 V2000
  179.5820   15.1270   45.2500 C   0  0  0  0  0  0  0  0  0  0  0  0
  179.8470   16.6020   45.1250 C   0  0  0  0  0  0  0  0  0  0  0  0
  179.0320   17.4970   45.8440 C   0  0  0  0  0  0  0  0  0  0  0  0
  179.2160   18.8870   45.7740 C   0  0  0  0  0  0  0  0  0  0  0  0
  178.3200   19.7890   46.5290 C   0  0  0  0  0  0  0  0  0  0  0  0
  178.9540   20.9540   46.9450 O   0  0  0  0  0  0  0  0  0  0  0  0
  178.2360   21.8810   47.6580 C   0  0  0  0  0  0  0  0  0  0  0  0
  178.9150   23.0300   48.0680 C   0  0  0  0  0  0  0  0  0  0  0  0
  178.2420   24.0140   48.7950 C   0  0  0  0  0  0  0  0  0  0  0  0
  176.8920   23.8510   49.1120 C   0  0  0  0  0  0  0  0  0  0  0  0
  176.2170   22.7040   48.7010 C   0  0  0  0  0  0  0  0  0  0  0  0
  174.8960   22.6090   49.0440 O   0  0  0  0  0  0  0  0  0  0  0  0
  176.8900   21.7180   47.9740 C   0  0  0  0  0  0  0  0  0  0  0  0
  176.2190   20.4990   47.5230 C   0  0  0  0  0  0  0  0  0  0  0  0
  175.0300   20.2870   47.7560 O   0  0  0  0  0  0  0  0  0  0  0  0
  177.0240   19.5140   46.7660 C   0  0  0  0  0  0  0  0  0  0  0  0
  176.3760   18.3710   46.3330 O   0  0  0  0  0  0  0  0  0  0  0  0
  180.2280   19.3800   44.9460 C   0  0  0  0  0  0  0  0  0  0  0  0
  181.0440   18.5060   44.2230 C   0  0  0  0  0  0  0  0  0  0  0  0
  180.8710   17.1140   44.3040 C   0  0  0  0  0  0  0  0  0  0  0  0
  181.7980   16.2280   43.4940 C   0  0  0  0  0  0  0  0  0  0  0  0
  181.1290   15.5800   42.2640 C   0  0  0  0  0  0  0  0  0  0  0  0
  181.8530   14.2790   41.9060 C   0  0  0  0  0  0  0  0  0  0  0  0
  181.1190   16.5130   41.0520 C   0  0  0  0  0  0  0  0  0  0  0  0
  179.5326   14.8522   46.3140 H   0  0  0  0  0  0  0  0  0  0  0  0
  178.6258   14.8838   44.7637 H   0  0  0  0  0  0  0  0  0  0  0  0
  180.3938   14.5661   44.7637 H   0  0  0  0  0  0  0  0  0  0  0  0
  178.2282   17.0957   46.4787 H   0  0  0  0  0  0  0  0  0  0  0  0
  179.9785   23.1599   47.8187 H   0  0  0  0  0  0  0  0  0  0  0  0
  178.7764   24.9194   49.1186 H   0  0  0  0  0  0  0  0  0  0  0  0
  176.3627   24.6266   49.6850 H   0  0  0  0  0  0  0  0  0  0  0  0
  174.2500   22.4600   48.3830 H   0  0  0  0  0  0  0  0  0  0  0  0
  176.7190   17.8840   45.6100 H   0  0  0  0  0  0  0  0  0  0  0  0
  180.3836   20.4657   44.8626 H   0  0  0  0  0  0  0  0  0  0  0  0
  181.8362   18.9152   43.5788 H   0  0  0  0  0  0  0  0  0  0  0  0
  182.6441   16.8388   43.1461 H   0  0  0  0  0  0  0  0  0  0  0  0
  182.1125   15.4071   44.1552 H   0  0  0  0  0  0  0  0  0  0  0  0
  180.0825   15.3702   42.5302 H   0  0  0  0  0  0  0  0  0  0  0  0
  182.1443   13.7556   42.8286 H   0  0  0  0  0  0  0  0  0  0  0  0
  181.1826   13.6367   41.3161 H   0  0  0  0  0  0  0  0  0  0  0  0
  182.7522   14.5102   41.3161 H   0  0  0  0  0  0  0  0  0  0  0  0
  181.1078   17.5584   41.3941 H   0  0  0  0  0  0  0  0  0  0  0  0
  182.0191   16.3354   40.4451 H   0  0  0  0  0  0  0  0  0  0  0  0
  180.2229   16.3162   40.4451 H   0  0  0  0  0  0  0  0  0  0  0  0
  1  2  1  0
  2  3  2  0
  3  4  1  0
  4  5  1  0
  5  6  1  0
  6  7  1  0
  7  8  2  0
  8  9  1  0
  9 10  2  0
 10 11  1  0
 11 12  1  0
 11 13  2  0
 13 14  1  0
 14 15  2  0
 14 16  1  0
 16 17  1  0
  4 18  2  0
 18 19  1  0
 19 20  2  0
 20 21  1  0
 21 22  1  0
 22 23  1  0
 22 24  1  0
 20  2  1  0
 16  5  2  0
 13  7  1  0
  1 25  1  0
  1 26  1  0
  1 27  1  0
  3 28  1  0
  8 29  1  0
  9 30  1  0
 10 31  1  0
 12 32  1  0
 17 33  1  0
 18 34  1  0
 19 35  1  0
 21 36  1  0
 21 37  1  0
 22 38  1  0
 23 39  1  0
 23 40  1  0
 23 41  1  0
 24 42  1  0
 24 43  1  0
 24 44  1  0
M  END
>  <meeko>  (2) 
{"is_sidechain": [false], "free_energy": -7.535, "intermolecular_energy": -9.49, "internal_energy": -0.126}

$$$$
cand_051_out
     RDKit          3D

 44 46  0  0  0  0  0  0  0  0999 V2000
  175.0830   20.0910   47.2170 C   0  0  0  0  0  0  0  0  0  0  0  0
  176.5730   20.2120   47.3760 C   0  0  0  0  0  0  0  0  0  0  0  0
  177.4050   19.4080   46.5740 C   0  0  0  0  0  0  0  0  0  0  0  0
  178.8050   19.4620   46.6690 C   0  0  0  0  0  0  0  0  0  0  0  0
  179.6370   18.5810   45.8230 C   0  0  0  0  0  0  0  0  0  0  0  0
  179.1710   17.2710   45.7880 O   0  0  0  0  0  0  0  0  0  0  0  0
  179.8520   16.3450   45.0390 C   0  0  0  0  0  0  0  0  0  0  0  0
  179.3580   15.0390   45.0430 C   0  0  0  0  0  0  0  0  0  0  0  0
  180.0020   14.0490   44.2990 C   0  0  0  0  0  0  0  0  0  0  0  0
  181.1390   14.3620   43.5520 C   0  0  0  0  0  0  0  0  0  0  0  0
  181.6290   15.6660   43.5480 C   0  0  0  0  0  0  0  0  0  0  0  0
  182.7450   15.9040   42.7930 O   0  0  0  0  0  0  0  0  0  0  0  0
  180.9850   16.6570   44.2930 C   0  0  0  0  0  0  0  0  0  0  0  0
  181.4660   18.0380   44.3170 C   0  0  0  0  0  0  0  0  0  0  0  0
  182.4550   18.3940   43.6790 O   0  0  0  0  0  0  0  0  0  0  0  0
  180.7160   19.0110   45.1450 C   0  0  0  0  0  0  0  0  0  0  0  0
  181.1720   20.3170   45.1490 O   0  0  0  0  0  0  0  0  0  0  0  0
  179.3710   20.3310   47.6060 C   0  0  0  0  0  0  0  0  0  0  0  0
  178.5600   21.1340   48.4110 C   0  0  0  0  0  0  0  0  0  0  0  0
  177.1590   21.0920   48.3070 C   0  0  0  0  0  0  0  0  0  0  0  0
  176.3450   21.9960   49.2110 C   0  0  0  0  0  0  0  0  0  0  0  0
  176.6670   23.4970   49.0530 C   0  0  0  0  0  0  0  0  0  0  0  0
  175.3890   24.3220   49.2260 C   0  0  0  0  0  0  0  0  0  0  0  0
  177.3020   23.8110   47.6960 C   0  0  0  0  0  0  0  0  0  0  0  0
  174.6103   20.0526   48.2095 H   0  0  0  0  0  0  0  0  0  0  0  0
  174.7015   20.9611   46.6626 H   0  0  0  0  0  0  0  0  0  0  0  0
  174.8469   19.1707   46.6626 H   0  0  0  0  0  0  0  0  0  0  0  0
  176.9450   18.7174   45.8519 H   0  0  0  0  0  0  0  0  0  0  0  0
  178.4626   14.7907   45.6317 H   0  0  0  0  0  0  0  0  0  0  0  0
  179.6128   13.0202   44.3013 H   0  0  0  0  0  0  0  0  0  0  0  0
  181.6470   13.5806   42.9678 H   0  0  0  0  0  0  0  0  0  0  0  0
  183.4740   16.3580   43.1660 H   0  0  0  0  0  0  0  0  0  0  0  0
  181.2290   20.7900   45.9560 H   0  0  0  0  0  0  0  0  0  0  0  0
  180.4648   20.3829   47.7103 H   0  0  0  0  0  0  0  0  0  0  0  0
  179.0267   21.8123   49.1404 H   0  0  0  0  0  0  0  0  0  0  0  0
  175.2796   21.8449   48.9825 H   0  0  0  0  0  0  0  0  0  0  0  0
  176.5993   21.7234   50.2459 H   0  0  0  0  0  0  0  0  0  0  0  0
  177.3968   23.7624   49.8321 H   0  0  0  0  0  0  0  0  0  0  0  0
  175.1814   24.4560   50.2979 H   0  0  0  0  0  0  0  0  0  0  0  0
  175.5208   25.3059   48.7522 H   0  0  0  0  0  0  0  0  0  0  0  0
  174.5466   23.7968   48.7522 H   0  0  0  0  0  0  0  0  0  0  0  0
  178.2782   24.2937   47.8509 H   0  0  0  0  0  0  0  0  0  0  0  0
  177.4402   22.8774   47.1310 H   0  0  0  0  0  0  0  0  0  0  0  0
  176.6439   24.4875   47.1310 H   0  0  0  0  0  0  0  0  0  0  0  0
  1  2  1  0
  2  3  2  0
  3  4  1  0
  4  5  1  0
  5  6  1  0
  6  7  1  0
  7  8  2  0
  8  9  1  0
  9 10  2  0
 10 11  1  0
 11 12  1  0
 11 13  2  0
 13 14  1  0
 14 15  2  0
 14 16  1  0
 16 17  1  0
  4 18  2  0
 18 19  1  0
 19 20  2  0
 20 21  1  0
 21 22  1  0
 22 23  1  0
 22 24  1  0
 20  2  1  0
 16  5  2  0
 13  7  1  0
  1 25  1  0
  1 26  1  0
  1 27  1  0
  3 28  1  0
  8 29  1  0
  9 30  1  0
 10 31  1  0
 12 32  1  0
 17 33  1  0
 18 34  1  0
 19 35  1  0
 21 36  1  0
 21 37  1  0
 22 38  1  0
 23 39  1  0
 23 40  1  0
 23 41  1  0
 24 42  1  0
 24 43  1  0
 24 44  1  0
M  END
>  <meeko>  (3) 
{"is_sidechain": [false], "free_energy": -7.112, "intermolecular_energy": -8.998, "internal_energy": -0.097}

$$$$
cand_051_out
     RDKit          3D

 44 46  0  0  0  0  0  0  0  0999 V2000
  182.8150   18.5030   43.8790 C   0  0  0  0  0  0  0  0  0  0  0  0
  181.5110   18.1890   44.5590 C   0  0  0  0  0  0  0  0  0  0  0  0
  180.8820   19.1990   45.3100 C   0  0  0  0  0  0  0  0  0  0  0  0
  179.6650   18.9790   45.9750 C   0  0  0  0  0  0  0  0  0  0  0  0
  179.0540   20.0640   46.7720 C   0  0  0  0  0  0  0  0  0  0  0  0
  177.6810   19.9100   46.9290 O   0  0  0  0  0  0  0  0  0  0  0  0
  176.9860   20.8490   47.6490 C   0  0  0  0  0  0  0  0  0  0  0  0
  175.6080   20.6630   47.7690 C   0  0  0  0  0  0  0  0  0  0  0  0
  174.8420   21.5810   48.4900 C   0  0  0  0  0  0  0  0  0  0  0  0
  175.4520   22.6830   49.0920 C   0  0  0  0  0  0  0  0  0  0  0  0
  176.8280   22.8660   48.9710 C   0  0  0  0  0  0  0  0  0  0  0  0
  177.3610   23.9660   49.5850 O   0  0  0  0  0  0  0  0  0  0  0  0
  177.5950   21.9480   48.2480 C   0  0  0  0  0  0  0  0  0  0  0  0
  179.0420   22.1020   48.0970 C   0  0  0  0  0  0  0  0  0  0  0  0
  179.6530   23.0420   48.6030 O   0  0  0  0  0  0  0  0  0  0  0  0
  179.7610   21.0780   47.3040 C   0  0  0  0  0  0  0  0  0  0  0  0
  181.1300   21.2270   47.1790 O   0  0  0  0  0  0  0  0  0  0  0  0
  179.0880   17.7090   45.8960 C   0  0  0  0  0  0  0  0  0  0  0  0
  179.7000   16.6950   45.1570 C   0  0  0  0  0  0  0  0  0  0  0  0
  180.9100   16.9170   44.4770 C   0  0  0  0  0  0  0  0  0  0  0  0
  181.5130   15.7690   43.6920 C   0  0  0  0  0  0  0  0  0  0  0  0
  180.7960   15.4770   42.3580 C   0  0  0  0  0  0  0  0  0  0  0  0
  181.4880   14.3140   41.6420 C   0  0  0  0  0  0  0  0  0  0  0  0
  180.7650   16.7000   41.4390 C   0  0  0  0  0  0  0  0  0  0  0  0
  183.5889   18.6893   44.6382 H   0  0  0  0  0  0  0  0  0  0  0  0
  183.1153   17.6515   43.2507 H   0  0  0  0  0  0  0  0  0  0  0  0
  182.6947   19.3979   43.2507 H   0  0  0  0  0  0  0  0  0  0  0  0
  181.3570   20.1888   45.3781 H   0  0  0  0  0  0  0  0  0  0  0  0
  175.1262   19.7945   47.2963 H   0  0  0  0  0  0  0  0  0  0  0  0
  173.7557   21.4356   48.5839 H   0  0  0  0  0  0  0  0  0  0  0  0
  174.8477   23.4052   49.6606 H   0  0  0  0  0  0  0  0  0  0  0  0
  176.8060   24.5520   50.0610 H   0  0  0  0  0  0  0  0  0  0  0  0
  181.5890   20.7770   46.4970 H   0  0  0  0  0  0  0  0  0  0  0  0
  178.1428   17.5062   46.4209 H   0  0  0  0  0  0  0  0  0  0  0  0
  179.2264   15.7035   45.1059 H   0  0  0  0  0  0  0  0  0  0  0  0
  182.5633   16.0128   43.4742 H   0  0  0  0  0  0  0  0  0  0  0  0
  181.4078   14.8679   44.3140 H   0  0  0  0  0  0  0  0  0  0  0  0
  179.7551   15.2111   42.5941 H   0  0  0  0  0  0  0  0  0  0  0  0
  181.9017   13.6187   42.3872 H   0  0  0  0  0  0  0  0  0  0  0  0
  180.7579   13.7846   41.0122 H   0  0  0  0  0  0  0  0  0  0  0  0
  182.3016   14.7031   41.0122 H   0  0  0  0  0  0  0  0  0  0  0  0
  180.7418   17.6158   42.0480 H   0  0  0  0  0  0  0  0  0  0  0  0
  181.6633   16.7045   40.8042 H   0  0  0  0  0  0  0  0  0  0  0  0
  179.8676   16.6590   40.8042 H   0  0  0  0  0  0  0  0  0  0  0  0
  1  2  1  0
  2  3  2  0
  3  4  1  0
  4  5  1  0
  5  6  1  0
  6  7  1  0
  7  8  2  0
  8  9  1  0
  9 10  2  0
 10 11  1  0
 11 12  1  0
 11 13  2  0
 13 14  1  0
 14 15  2  0
 14 16  1  0
 16 17  1  0
  4 18  2  0
 18 19  1  0
 19 20  2  0
 20 21  1  0
 21 22  1  0
 22 23  1  0
 22 24  1  0
 20  2  1  0
 16  5  2  0
 13  7  1  0
  1 25  1  0
  1 26  1  0
  1 27  1  0
  3 28  1  0
  8 29  1  0
  9 30  1  0
 10 31  1  0
 12 32  1  0
 17 33  1  0
 18 34  1  0
 19 35  1  0
 21 36  1  0
 21 37  1  0
 22 38  1  0
 23 39  1  0
 23 40  1  0
 23 41  1  0
 24 42  1  0
 24 43  1  0
 24 44  1  0
M  END
>  <meeko>  (4) 
{"is_sidechain": [false], "free_energy": -6.762, "intermolecular_energy": -8.5, "internal_energy": -0.162}

$$$$
cand_051_out
     RDKit          3D

 44 46  0  0  0  0  0  0  0  0999 V2000
  182.1900   21.4140   46.7120 C   0  0  0  0  0  0  0  0  0  0  0  0
  181.0390   20.4810   46.4550 C   0  0  0  0  0  0  0  0  0  0  0  0
  181.2350   19.3900   45.5860 C   0  0  0  0  0  0  0  0  0  0  0  0
  180.2070   18.4800   45.2950 C   0  0  0  0  0  0  0  0  0  0  0  0
  180.4530   17.3640   44.3570 C   0  0  0  0  0  0  0  0  0  0  0  0
  180.7390   17.7970   43.0670 O   0  0  0  0  0  0  0  0  0  0  0  0
  180.9880   16.8630   42.0940 C   0  0  0  0  0  0  0  0  0  0  0  0
  181.2570   17.3410   40.8110 C   0  0  0  0  0  0  0  0  0  0  0  0
  181.5220   16.4430   39.7740 C   0  0  0  0  0  0  0  0  0  0  0  0
  181.5180   15.0690   40.0200 C   0  0  0  0  0  0  0  0  0  0  0  0
  181.2500   14.5950   41.3020 C   0  0  0  0  0  0  0  0  0  0  0  0
  181.2640   13.2370   41.4740 O   0  0  0  0  0  0  0  0  0  0  0  0
  180.9850   15.4930   42.3400 C   0  0  0  0  0  0  0  0  0  0  0  0
  180.6990   15.0370   43.7000 C   0  0  0  0  0  0  0  0  0  0  0  0
  180.6850   13.8440   43.9970 O   0  0  0  0  0  0  0  0  0  0  0  0
  180.4230   16.0700   44.7250 C   0  0  0  0  0  0  0  0  0  0  0  0
  180.1670   15.6280   46.0100 O   0  0  0  0  0  0  0  0  0  0  0  0
  178.9540   18.6890   45.8770 C   0  0  0  0  0  0  0  0  0  0  0  0
  178.7410   19.7670   46.7400 C   0  0  0  0  0  0  0  0  0  0  0  0
  179.7730   20.6710   47.0450 C   0  0  0  0  0  0  0  0  0  0  0  0
  179.4690   21.8140   47.9920 C   0  0  0  0  0  0  0  0  0  0  0  0
  178.0880   22.4630   47.7690 C   0  0  0  0  0  0  0  0  0  0  0  0
  178.2460   23.9790   47.6160 C   0  0  0  0  0  0  0  0  0  0  0  0
  177.1150   22.1610   48.9110 C   0  0  0  0  0  0  0  0  0  0  0  0
  182.3330   21.5299   47.7965 H   0  0  0  0  0  0  0  0  0  0  0  0
  183.1051   20.9996   46.2637 H   0  0  0  0  0  0  0  0  0  0  0  0
  181.9739   22.3950   46.2637 H   0  0  0  0  0  0  0  0  0  0  0  0
  182.2221   19.2471   45.1221 H   0  0  0  0  0  0  0  0  0  0  0  0
  181.2604   18.4236   40.6162 H   0  0  0  0  0  0  0  0  0  0  0  0
  181.7341   16.8193   38.7623 H   0  0  0  0  0  0  0  0  0  0  0  0
  181.7260   14.3622   39.2032 H   0  0  0  0  0  0  0  0  0  0  0  0
  182.0780   12.7860   41.5750 H   0  0  0  0  0  0  0  0  0  0  0  0
  179.8050   16.2160   46.6440 H   0  0  0  0  0  0  0  0  0  0  0  0
  178.1275   17.9983   45.6536 H   0  0  0  0  0  0  0  0  0  0  0  0
  177.7472   19.9108   47.1890 H   0  0  0  0  0  0  0  0  0  0  0  0
  179.5083   21.4296   49.0219 H   0  0  0  0  0  0  0  0  0  0  0  0
  180.2214   22.5935   47.8018 H   0  0  0  0  0  0  0  0  0  0  0  0
  177.6661   22.0312   46.8495 H   0  0  0  0  0  0  0  0  0  0  0  0
  178.2946   24.4449   48.6113 H   0  0  0  0  0  0  0  0  0  0  0  0
  179.1718   24.1973   47.0634 H   0  0  0  0  0  0  0  0  0  0  0  0
  177.3851   24.3835   47.0634 H   0  0  0  0  0  0  0  0  0  0  0  0
  177.6210   22.3181   49.8750 H   0  0  0  0  0  0  0  0  0  0  0  0
  176.2461   22.8317   48.8394 H   0  0  0  0  0  0  0  0  0  0  0  0
  176.7786   21.1162   48.8394 H   0  0  0  0  0  0  0  0  0  0  0  0
  1  2  1  0
  2  3  2  0
  3  4  1  0
  4  5  1  0
  5  6  1  0
  6  7  1  0
  7  8  2  0
  8  9  1  0
  9 10  2  0
 10 11  1  0
 11 12  1  0
 11 13  2  0
 13 14  1  0
 14 15  2  0
 14 16  1  0
 16 17  1  0
  4 18  2  0
 18 19  1  0
 19 20  2  0
 20 21  1  0
 21 22  1  0
 22 23  1  0
 22 24  1  0
 20  2  1  0
 16  5  2  0
 13  7  1  0
  1 25  1  0
  1 26  1  0
  1 27  1  0
  3 28  1  0
  8 29  1  0
  9 30  1  0
 10 31  1  0
 12 32  1  0
 17 33  1  0
 18 34  1  0
 19 35  1  0
 21 36  1  0
 21 37  1  0
 22 38  1  0
 23 39  1  0
 23 40  1  0
 23 41  1  0
 24 42  1  0
 24 43  1  0
 24 44  1  0
M  END
>  <meeko>  (5) 
{"is_sidechain": [false], "free_energy": -5.931, "intermolecular_energy": -7.067, "internal_energy": -0.57}

$$$$
