cand_012_out
     RDKit          3D

 40 42  0  0  0  0  0  0  0  0999 V2000
  182.7050   15.0000   42.5480 C   0  0  0  0  0  0  0  0  0  0  0  0
  181.2720   15.3040   42.6080 N   0  0  0  0  0  0  0  0  0  0  0  0
  180.6320   15.4290   41.2940 C   0  0  0  0  0  0  0  0  0  0  0  0
  180.9640   16.3860   43.4530 C   0  0  0  0  0  0  0  0  0  0  0  0
  181.3330   17.7020   43.1340 C   0  0  0  0  0  0  0  0  0  0  0  0
  181.0130   18.7720   43.9770 C   0  0  0  0  0  0  0  0  0  0  0  0
  180.3060   18.5580   45.1620 C   0  0  0  0  0  0  0  0  0  0  0  0
  179.9770   19.6650   46.0860 C   0  0  0  0  0  0  0  0  0  0  0  0
  178.6190   19.9610   46.1130 O   0  0  0  0  0  0  0  0  0  0  0  0
  178.1760   20.9720   46.9270 C   0  0  0  0  0  0  0  0  0  0  0  0
  176.8040   21.2260   46.9310 C   0  0  0  0  0  0  0  0  0  0  0  0
  176.2880   22.2430   47.7380 C   0  0  0  0  0  0  0  0  0  0  0  0
  177.1420   23.0040   48.5390 C   0  0  0  0  0  0  0  0  0  0  0  0
  178.5100   22.7480   48.5310 C   0  0  0  0  0  0  0  0  0  0  0  0
  179.2890   23.5310   49.3390 O   0  0  0  0  0  0  0  0  0  0  0  0
  179.0270   21.7300   47.7260 C   0  0  0  0  0  0  0  0  0  0  0  0
  180.4590   21.4280   47.6880 C   0  0  0  0  0  0  0  0  0  0  0  0
  181.2750   22.0570   48.3580 O   0  0  0  0  0  0  0  0  0  0  0  0
  180.9040   20.3270   46.8040 C   0  0  0  0  0  0  0  0  0  0  0  0
  182.2600   20.0600   46.7640 O   0  0  0  0  0  0  0  0  0  0  0  0
  179.9420   17.2440   45.4890 C   0  0  0  0  0  0  0  0  0  0  0  0
  180.2570   16.1550   44.6470 C   0  0  0  0  0  0  0  0  0  0  0  0
  179.8400   14.7600   45.0430 C   0  0  0  0  0  0  0  0  0  0  0  0
  179.2180   14.0690   44.0440 F   0  0  0  0  0  0  0  0  0  0  0  0
  178.9440   14.7540   46.0790 F   0  0  0  0  0  0  0  0  0  0  0  0
  180.8720   13.9790   45.4740 F   0  0  0  0  0  0  0  0  0  0  0  0
  183.1049   14.9152   43.5692 H   0  0  0  0  0  0  0  0  0  0  0  0
  182.8562   14.0498   42.0149 H   0  0  0  0  0  0  0  0  0  0  0  0
  183.2290   15.8070   42.0149 H   0  0  0  0  0  0  0  0  0  0  0  0
  179.5603   15.6383   41.4266 H   0  0  0  0  0  0  0  0  0  0  0  0
  181.1001   16.2527   40.7350 H   0  0  0  0  0  0  0  0  0  0  0  0
  180.7557   14.4897   40.7350 H   0  0  0  0  0  0  0  0  0  0  0  0
  181.8849   17.8962   42.2025 H   0  0  0  0  0  0  0  0  0  0  0  0
  181.3214   19.7918   43.7035 H   0  0  0  0  0  0  0  0  0  0  0  0
  176.1305   20.6271   46.3004 H   0  0  0  0  0  0  0  0  0  0  0  0
  175.2067   22.4447   47.7424 H   0  0  0  0  0  0  0  0  0  0  0  0
  176.7345   23.8038   49.1748 H   0  0  0  0  0  0  0  0  0  0  0  0
  179.9230   23.1360   49.9050 H   0  0  0  0  0  0  0  0  0  0  0  0
  182.8770   20.7660   46.7780 H   0  0  0  0  0  0  0  0  0  0  0  0
  179.3969   17.0566   46.4258 H   0  0  0  0  0  0  0  0  0  0  0  0
  1  2  1  0
  2  3  1  0
  2  4  1  0
  4  5  2  0
  5  6  1  0
  6  7  2  0
  7  8  1  0
  8  9  1  0
  9 10  1  0
 10 11  2  0
 11 12  1  0
 12 13  2  0
 13 14  1  0
 14 15  1  0
 14 16  2  0
 16 17  1  0
 17 18  2  0
 17 19  1  0
 19 20  1  0
  7 21  1  0
 21 22  2  0
 22 23  1  0
 23 24  1  0
 23 25  1  0
 23 26  1  0
 22  4  1  0
 19  8  2  0
 16 10  1  0
  1 27  1  0
  1 28  1  0
  1 29  1  0
  3 30  1  0
  3 31  1  0
  3 32  1  0
  5 33  1  0
  6 34  1  0
 11 35  1  0
 12 36  1  0
 13 37  1  0
 15 38  1  0
 20 39  1  0
 21 40  1  0
M  END
>  <meeko>  (1) 
{"is_sidechain": [false], "free_energy": -7.929, "intermolecular_energy": -9.784, "internal_energy": -0.502}

$$$$
cand_012_out
     RDKit          3D

 40 42  0  0  0  0  0  0  0  0999 V2000
  176.8410   23.5730   48.7160 C   0  0  0  0  0  0  0  0  0  0  0  0
  176.4120   22.1730   48.7760 N   0  0  0  0  0  0  0  0  0  0  0  0
  176.1720   21.6780   50.1360 C   0  0  0  0  0  0  0  0  0  0  0  0
  177.2330   21.3030   48.0330 C   0  0  0  0  0  0  0  0  0  0  0  0
  178.6330   21.4020   48.0620 C   0  0  0  0  0  0  0  0  0  0  0  0
  179.4390   20.5270   47.3280 C   0  0  0  0  0  0  0  0  0  0  0  0
  178.8700   19.5190   46.5460 C   0  0  0  0  0  0  0  0  0  0  0  0
  179.6950   18.5970   45.7380 C   0  0  0  0  0  0  0  0  0  0  0  0
  179.2160   17.2920   45.7500 O   0  0  0  0  0  0  0  0  0  0  0  0
  179.8910   16.3300   45.0420 C   0  0  0  0  0  0  0  0  0  0  0  0
  179.3680   15.0370   45.0720 C   0  0  0  0  0  0  0  0  0  0  0  0
  180.0080   14.0110   44.3720 C   0  0  0  0  0  0  0  0  0  0  0  0
  181.1690   14.2780   43.6440 C   0  0  0  0  0  0  0  0  0  0  0  0
  181.6890   15.5700   43.6170 C   0  0  0  0  0  0  0  0  0  0  0  0
  182.8290   15.7610   42.8850 O   0  0  0  0  0  0  0  0  0  0  0  0
  181.0480   16.5960   44.3160 C   0  0  0  0  0  0  0  0  0  0  0  0
  181.5610   17.9670   44.3140 C   0  0  0  0  0  0  0  0  0  0  0  0
  182.5810   18.2800   43.7020 O   0  0  0  0  0  0  0  0  0  0  0  0
  180.8060   18.9820   45.0820 C   0  0  0  0  0  0  0  0  0  0  0  0
  181.3070   20.2710   45.0870 O   0  0  0  0  0  0  0  0  0  0  0  0
  177.4710   19.4210   46.5090 C   0  0  0  0  0  0  0  0  0  0  0  0
  176.6450   20.2970   47.2460 C   0  0  0  0  0  0  0  0  0  0  0  0
  175.1450   20.1470   47.1730 C   0  0  0  0  0  0  0  0  0  0  0  0
  174.5450   20.0320   48.3920 F   0  0  0  0  0  0  0  0  0  0  0  0
  174.7620   19.0230   46.4900 F   0  0  0  0  0  0  0  0  0  0  0  0
  174.5210   21.1740   46.5260 F   0  0  0  0  0  0  0  0  0  0  0  0
  176.9608   23.9639   49.7372 H   0  0  0  0  0  0  0  0  0  0  0  0
  177.8009   23.6398   48.1829 H   0  0  0  0  0  0  0  0  0  0  0  0
  176.0834   24.1661   48.1829 H   0  0  0  0  0  0  0  0  0  0  0  0
  176.5315   22.4194   50.8648 H   0  0  0  0  0  0  0  0  0  0  0  0
  175.0941   21.5136   50.2815 H   0  0  0  0  0  0  0  0  0  0  0  0
  176.7104   20.7299   50.2815 H   0  0  0  0  0  0  0  0  0  0  0  0
  179.1053   22.1840   48.6747 H   0  0  0  0  0  0  0  0  0  0  0  0
  180.5332   20.6334   47.3666 H   0  0  0  0  0  0  0  0  0  0  0  0
  178.4535   14.8256   45.6456 H   0  0  0  0  0  0  0  0  0  0  0  0
  179.5964   12.9912   44.3945 H   0  0  0  0  0  0  0  0  0  0  0  0
  181.6721   13.4698   43.0929 H   0  0  0  0  0  0  0  0  0  0  0  0
  183.4990   16.3350   43.2020 H   0  0  0  0  0  0  0  0  0  0  0  0
  181.7390   20.6030   45.8500 H   0  0  0  0  0  0  0  0  0  0  0  0
  177.0052   18.6407   45.8891 H   0  0  0  0  0  0  0  0  0  0  0  0
  1  2  1  0
  2  3  1  0
  2  4  1  0
  4  5  2  0
  5  6  1  0
  6  7  2  0
  7  8  1  0
  8  9  1  0
  9 10  1  0
 10 11  2  0
 11 12  1  0
 12 13  2  0
 13 14  1  0
 14 15  1  0
 14 16  2  0
 16 17  1  0
 17 18  2  0
 17 19  1  0
 19 20  1  0
  7 21  1  0
 21 22  2  0
 22 23  1  0
 23 24  1  0
 23 25  1  0
 23 26  1  0
 22  4  1  0
 19  8  2  0
 16 10  1  0
  1 27  1  0
  1 28  1  0
  1 29  1  0
  3 30  1  0
  3 31  1  0
  3 32  1  0
  5 33  1  0
  6 34  1  0
 11 35  1  0
 12 36  1  0
 13 37  1  0
 15 38  1  0
 20 39  1  0
 21 40  1  0
M  END
>  <meeko>  (2) 
{"is_sidechain": [false], "free_energy": -6.976, "intermolecular_energy": -9.241, "internal_energy": 0.131}

$$$$
cand_012_out
     RDKit          3D

 40 42  0  0  0  0  0  0  0  0999 V2000
  175.7100   21.6660   50.0890 C   0  0  0  0  0  0  0  0  0  0  0  0
  175.7390   21.9510   48.6510 N   0  0  0  0  0  0  0  0  0  0  0  0
  174.4130   22.0340   48.0300 C   0  0  0  0  0  0  0  0  0  0  0  0
  176.6090   21.1100   47.9310 C   0  0  0  0  0  0  0  0  0  0  0  0
  176.2820   19.7740   47.6500 C   0  0  0  0  0  0  0  0  0  0  0  0
  177.1500   18.9500   46.9260 C   0  0  0  0  0  0  0  0  0  0  0  0
  178.3690   19.4400   46.4520 C   0  0  0  0  0  0  0  0  0  0  0  0
  179.3180   18.5850   45.7070 C   0  0  0  0  0  0  0  0  0  0  0  0
  178.9520   17.2440   45.7090 O   0  0  0  0  0  0  0  0  0  0  0  0
  179.7490   16.3380   45.0560 C   0  0  0  0  0  0  0  0  0  0  0  0
  179.3370   15.0050   45.0730 C   0  0  0  0  0  0  0  0  0  0  0  0
  180.1040   14.0320   44.4270 C   0  0  0  0  0  0  0  0  0  0  0  0
  181.2790   14.3920   43.7660 C   0  0  0  0  0  0  0  0  0  0  0  0
  181.6870   15.7230   43.7510 C   0  0  0  0  0  0  0  0  0  0  0  0
  182.8490   16.0050   43.0850 O   0  0  0  0  0  0  0  0  0  0  0  0
  180.9200   16.6960   44.3960 C   0  0  0  0  0  0  0  0  0  0  0  0
  181.3130   18.1060   44.4050 C   0  0  0  0  0  0  0  0  0  0  0  0
  182.3370   18.5010   43.8510 O   0  0  0  0  0  0  0  0  0  0  0  0
  180.4290   19.0590   45.1130 C   0  0  0  0  0  0  0  0  0  0  0  0
  180.8170   20.3870   45.1290 O   0  0  0  0  0  0  0  0  0  0  0  0
  178.7030   20.7720   46.7370 C   0  0  0  0  0  0  0  0  0  0  0  0
  177.8360   21.6150   47.4660 C   0  0  0  0  0  0  0  0  0  0  0  0
  178.2420   23.0420   47.7440 C   0  0  0  0  0  0  0  0  0  0  0  0
  177.3020   23.9610   47.3790 F   0  0  0  0  0  0  0  0  0  0  0  0
  179.3710   23.4100   47.0600 F   0  0  0  0  0  0  0  0  0  0  0  0
  178.5370   23.2850   49.0530 F   0  0  0  0  0  0  0  0  0  0  0  0
  175.8057   22.6066   50.6512 H   0  0  0  0  0  0  0  0  0  0  0  0
  174.7578   21.1797   50.3473 H   0  0  0  0  0  0  0  0  0  0  0  0
  176.5448   20.9979   50.3473 H   0  0  0  0  0  0  0  0  0  0  0  0
  173.6432   22.0822   48.8143 H   0  0  0  0  0  0  0  0  0  0  0  0
  174.3567   22.9374   47.4050 H   0  0  0  0  0  0  0  0  0  0  0  0
  174.2445   21.1446   47.4050 H   0  0  0  0  0  0  0  0  0  0  0  0
  175.3241   19.3671   48.0063 H   0  0  0  0  0  0  0  0  0  0  0  0
  176.8695   17.9050   46.7278 H   0  0  0  0  0  0  0  0  0  0  0  0
  178.4107   14.7208   45.5937 H   0  0  0  0  0  0  0  0  0  0  0  0
  179.7811   12.9805   44.4395 H   0  0  0  0  0  0  0  0  0  0  0  0
  181.8820   13.6253   43.2575 H   0  0  0  0  0  0  0  0  0  0  0  0
  182.8570   16.0330   42.1480 H   0  0  0  0  0  0  0  0  0  0  0  0
  181.6060   20.6380   45.5670 H   0  0  0  0  0  0  0  0  0  0  0  0
  179.6654   21.1704   46.3834 H   0  0  0  0  0  0  0  0  0  0  0  0
  1  2  1  0
  2  3  1  0
  2  4  1  0
  4  5  2  0
  5  6  1  0
  6  7  2  0
  7  8  1  0
  8  9  1  0
  9 10  1  0
 10 11  2  0
 11 12  1  0
 12 13  2  0
 13 14  1  0
 14 15  1  0
 14 16  2  0
 16 17  1  0
 17 18  2  0
 17 19  1  0
 19 20  1  0
  7 21  1  0
 21 22  2  0
 22 23  1  0
 23 24  1  0
 23 25  1  0
 23 26  1  0
 22  4  1  0
 19  8  2  0
 16 10  1  0
  1 27  1  0
  1 28  1  0
  1 29  1  0
  3 30  1  0
  3 31  1  0
  3 32  1  0
  5 33  1  0
  6 34  1  0
 11 35  1  0
 12 36  1  0
 13 37  1  0
 15 38  1  0
 20 39  1  0
 21 40  1  0
M  END
>  <meeko>  (3) 
{"is_sidechain": [false], "free_energy": -5.897, "intermolecular_energy": -7.88, "internal_energy": 0.102}

$$$$
cand_012_out
     RDKit          3D

 40 42  0  0  0  0  0  0  0  0999 V2000
  186.8400   24.8740   44.0650 C   0  0  0  0  0  0  0  0  0  0  0  0
  186.8530   23.9140   45.1730 N   0  0  0  0  0  0  0  0  0  0  0  0
  187.9300   22.9200   45.0920 C   0  0  0  0  0  0  0  0  0  0  0  0
  185.6010   23.3190   45.4130 C   0  0  0  0  0  0  0  0  0  0  0  0
  184.9900   22.4750   44.4720 C   0  0  0  0  0  0  0  0  0  0  0  0
  183.7490   21.8820   44.7250 C   0  0  0  0  0  0  0  0  0  0  0  0
  183.0830   22.1070   45.9320 C   0  0  0  0  0  0  0  0  0  0  0  0
  181.7590   21.5160   46.2160 C   0  0  0  0  0  0  0  0  0  0  0  0
  180.9460   22.3500   46.9760 O   0  0  0  0  0  0  0  0  0  0  0  0
  179.6880   21.9220   47.3150 C   0  0  0  0  0  0  0  0  0  0  0  0
  178.9030   22.7960   48.0680 C   0  0  0  0  0  0  0  0  0  0  0  0
  177.6120   22.4210   48.4470 C   0  0  0  0  0  0  0  0  0  0  0  0
  177.1080   21.1740   48.0750 C   0  0  0  0  0  0  0  0  0  0  0  0
  177.8940   20.3030   47.3240 C   0  0  0  0  0  0  0  0  0  0  0  0
  177.3370   19.0980   46.9940 O   0  0  0  0  0  0  0  0  0  0  0  0
  179.1840   20.6790   46.9440 C   0  0  0  0  0  0  0  0  0  0  0  0
  180.0440   19.7950   46.1550 C   0  0  0  0  0  0  0  0  0  0  0  0
  179.6740   18.6790   45.7940 O   0  0  0  0  0  0  0  0  0  0  0  0
  181.3930   20.2890   45.8000 C   0  0  0  0  0  0  0  0  0  0  0  0
  182.2030   19.4400   45.0680 O   0  0  0  0  0  0  0  0  0  0  0  0
  183.6860   22.9560   46.8720 C   0  0  0  0  0  0  0  0  0  0  0  0
  184.9390   23.5610   46.6300 C   0  0  0  0  0  0  0  0  0  0  0  0
  185.5450   24.4640   47.6760 C   0  0  0  0  0  0  0  0  0  0  0  0
  186.7720   24.0540   48.1100 F   0  0  0  0  0  0  0  0  0  0  0  0
  184.7830   24.5400   48.8120 F   0  0  0  0  0  0  0  0  0  0  0  0
  185.6880   25.7580   47.2690 F   0  0  0  0  0  0  0  0  0  0  0  0
  186.8261   25.8978   44.4670 H   0  0  0  0  0  0  0  0  0  0  0  0
  187.7401   24.7344   43.4483 H   0  0  0  0  0  0  0  0  0  0  0  0
  185.9440   24.7101   43.4483 H   0  0  0  0  0  0  0  0  0  0  0  0
  188.2411   22.6329   46.1073 H   0  0  0  0  0  0  0  0  0  0  0  0
  187.5689   22.0311   44.5540 H   0  0  0  0  0  0  0  0  0  0  0  0
  188.7871   23.3511   44.5540 H   0  0  0  0  0  0  0  0  0  0  0  0
  185.4976   22.2762   43.5166 H   0  0  0  0  0  0  0  0  0  0  0  0
  183.2922   21.2311   43.9649 H   0  0  0  0  0  0  0  0  0  0  0  0
  179.3002   23.7786   48.3626 H   0  0  0  0  0  0  0  0  0  0  0  0
  176.9917   23.1096   49.0395 H   0  0  0  0  0  0  0  0  0  0  0  0
  176.0914   20.8792   48.3744 H   0  0  0  0  0  0  0  0  0  0  0  0
  176.7250   19.0420   46.2860 H   0  0  0  0  0  0  0  0  0  0  0  0
  182.8860   18.9600   45.4960 H   0  0  0  0  0  0  0  0  0  0  0  0
  183.1694   23.1557   47.8224 H   0  0  0  0  0  0  0  0  0  0  0  0
  1  2  1  0
  2  3  1  0
  2  4  1  0
  4  5  2  0
  5  6  1  0
  6  7  2  0
  7  8  1  0
  8  9  1  0
  9 10  1  0
 10 11  2  0
 11 12  1  0
 12 13  2  0
 13 14  1  0
 14 15  1  0
 14 16  2  0
 16 17  1  0
 17 18  2  0
 17 19  1  0
 19 20  1  0
  7 21  1  0
 21 22  2  0
 22 23  1  0
 23 24  1  0
 23 25  1  0
 23 26  1  0
 22  4  1  0
 19  8  2  0
 16 10  1  0
  1 27  1  0
  1 28  1  0
  1 29  1  0
  3 30  1  0
  3 31  1  0
  3 32  1  0
  5 33  1  0
  6 34  1  0
 11 35  1  0
 12 36  1  0
 13 37  1  0
 15 38  1  0
 20 39  1  0
 21 40  1  0
M  END
>  <meeko>  (4) 
{"is_sidechain": [false], "free_energy": -5.531, "intermolecular_energy": -7.096, "internal_energy": -0.23}

$$$$
cand_012_out
     RDKit          3D

 40 42  0  0  0  0  0  0  0  0999 V2000
  187.9300   24.3460   46.5260 C   0  0  0  0  0  0  0  0  0  0  0  0
  187.1790   24.1530   45.2820 N   0  0  0  0  0  0  0  0  0  0  0  0
  187.0620   25.3620   44.4590 C   0  0  0  0  0  0  0  0  0  0  0  0
  185.9370   23.5190   45.4710 C   0  0  0  0  0  0  0  0  0  0  0  0
  185.0790   23.8700   46.5250 C   0  0  0  0  0  0  0  0  0  0  0  0
  183.8430   23.2400   46.6980 C   0  0  0  0  0  0  0  0  0  0  0  0
  183.4210   22.2440   45.8150 C   0  0  0  0  0  0  0  0  0  0  0  0
  182.1310   21.5420   45.9880 C   0  0  0  0  0  0  0  0  0  0  0  0
  181.2180   22.2680   46.7430 O   0  0  0  0  0  0  0  0  0  0  0  0
  179.9790   21.7300   46.9840 C   0  0  0  0  0  0  0  0  0  0  0  0
  179.0910   22.4990   47.7370 C   0  0  0  0  0  0  0  0  0  0  0  0
  177.8130   22.0090   48.0190 C   0  0  0  0  0  0  0  0  0  0  0  0
  177.4260   20.7530   47.5490 C   0  0  0  0  0  0  0  0  0  0  0  0
  178.3150   19.9880   46.7990 C   0  0  0  0  0  0  0  0  0  0  0  0
  177.8700   18.7670   46.3710 O   0  0  0  0  0  0  0  0  0  0  0  0
  179.5920   20.4780   46.5160 C   0  0  0  0  0  0  0  0  0  0  0  0
  180.5580   19.7070   45.7320 C   0  0  0  0  0  0  0  0  0  0  0  0
  180.2940   18.5910   45.2890 O   0  0  0  0  0  0  0  0  0  0  0  0
  181.8830   20.3180   45.4830 C   0  0  0  0  0  0  0  0  0  0  0  0
  182.7940   19.5750   44.7550 O   0  0  0  0  0  0  0  0  0  0  0  0
  184.2770   21.8850   44.7640 C   0  0  0  0  0  0  0  0  0  0  0  0
  185.5280   22.5130   44.5770 C   0  0  0  0  0  0  0  0  0  0  0  0
  186.4100   22.0920   43.4280 C   0  0  0  0  0  0  0  0  0  0  0  0
  186.2900   22.8840   42.3240 F   0  0  0  0  0  0  0  0  0  0  0  0
  186.1240   20.8280   42.9810 F   0  0  0  0  0  0  0  0  0  0  0  0
  187.7380   22.0550   43.7390 F   0  0  0  0  0  0  0  0  0  0  0  0
  187.2654   24.1752   47.3858 H   0  0  0  0  0  0  0  0  0  0  0  0
  188.7676   23.6339   46.5629 H   0  0  0  0  0  0  0  0  0  0  0  0
  188.3205   25.3737   46.5629 H   0  0  0  0  0  0  0  0  0  0  0  0
  186.9767   26.2432   45.1119 H   0  0  0  0  0  0  0  0  0  0  0  0
  187.9547   25.4611   43.8240 H   0  0  0  0  0  0  0  0  0  0  0  0
  186.1668   25.2881   43.8240 H   0  0  0  0  0  0  0  0  0  0  0  0
  185.3855   24.6572   47.2296 H   0  0  0  0  0  0  0  0  0  0  0  0
  183.1962   23.5320   47.5385 H   0  0  0  0  0  0  0  0  0  0  0  0
  179.3962   23.4886   48.1078 H   0  0  0  0  0  0  0  0  0  0  0  0
  177.1112   22.6138   48.6121 H   0  0  0  0  0  0  0  0  0  0  0  0
  176.4197   20.3681   47.7709 H   0  0  0  0  0  0  0  0  0  0  0  0
  177.8550   18.5680   45.4550 H   0  0  0  0  0  0  0  0  0  0  0  0
  183.3080   18.9170   45.1800 H   0  0  0  0  0  0  0  0  0  0  0  0
  183.9658   21.0932   44.0667 H   0  0  0  0  0  0  0  0  0  0  0  0
  1  2  1  0
  2  3  1  0
  2  4  1  0
  4  5  2  0
  5  6  1  0
  6  7  2  0
  7  8  1  0
  8  9  1  0
  9 10  1  0
 10 11  2  0
 11 12  1  0
 12 13  2  0
 13 14  1  0
 14 15  1  0
 14 16  2  0
 16 17  1  0
 17 18  2  0
 17 19  1  0
 19 20  1  0
  7 21  1  0
 21 22  2  0
 22 23  1  0
 23 24  1  0
 23 25  1  0
 23 26  1  0
 22  4  1  0
 19  8  2  0
 16 10  1  0
  1 27  1  0
  1 28  1  0
  1 29  1  0
  3 30  1  0
  3 31  1  0
  3 32  1  0
  5 33  1  0
  6 34  1  0
 11 35  1  0
 12 36  1  0
 13 37  1  0
 15 38  1  0
 20 39  1  0
 21 40  1  0
M  END
>  <meeko>  (5) 
{"is_sidechain": [false], "free_energy": -5.075, "intermolecular_energy": -6.995, "internal_energy": 0.23}

$$$$
