cand_020_out
     RDKit          3D

 50 53  0  0  0  0  0  0  0  0999 V2000
  179.0610   23.1230   47.3720 C   0  0  0  0  0  0  0  0  0  0  0  0
  179.6390   21.9020   48.0710 C   0  0  0  0  0  0  0  0  0  0  0  0
  179.8080   20.7330   47.1270 C   0  0  0  0  0  0  0  0  0  0  0  0
  181.0880   20.4430   46.6300 C   0  0  0  0  0  0  0  0  0  0  0  0
  181.2880   19.3860   45.7410 C   0  0  0  0  0  0  0  0  0  0  0  0
  180.2130   18.5950   45.3210 C   0  0  0  0  0  0  0  0  0  0  0  0
  180.4490   17.4610   44.4020 C   0  0  0  0  0  0  0  0  0  0  0  0
  180.7520   17.8690   43.1070 O   0  0  0  0  0  0  0  0  0  0  0  0
  180.9940   16.9170   42.1520 C   0  0  0  0  0  0  0  0  0  0  0  0
  181.3080   17.3710   40.8700 C   0  0  0  0  0  0  0  0  0  0  0  0
  181.5640   16.4540   39.8490 C   0  0  0  0  0  0  0  0  0  0  0  0
  181.5060   15.0830   40.1080 C   0  0  0  0  0  0  0  0  0  0  0  0
  181.1930   14.6320   41.3880 C   0  0  0  0  0  0  0  0  0  0  0  0
  181.1520   13.2780   41.5730 O   0  0  0  0  0  0  0  0  0  0  0  0
  180.9370   15.5500   42.4100 C   0  0  0  0  0  0  0  0  0  0  0  0
  180.6030   15.1190   43.7680 C   0  0  0  0  0  0  0  0  0  0  0  0
  180.5270   13.9310   44.0730 O   0  0  0  0  0  0  0  0  0  0  0  0
  180.3580   16.1720   44.7810 C   0  0  0  0  0  0  0  0  0  0  0  0
  180.0320   15.7520   46.0570 O   0  0  0  0  0  0  0  0  0  0  0  0
  178.9350   18.8850   45.8210 C   0  0  0  0  0  0  0  0  0  0  0  0
  178.7110   19.9530   46.7110 C   0  0  0  0  0  0  0  0  0  0  0  0
  177.4200   20.2510   47.2070 N   0  0  0  0  0  0  0  0  0  0  0  0
  176.5230   20.8170   46.1870 C   0  0  0  0  0  0  0  0  0  0  0  0
  175.2550   21.3270   46.8710 C   0  0  0  0  0  0  0  0  0  0  0  0
  174.5840   20.2190   47.6820 C   0  0  0  0  0  0  0  0  0  0  0  0
  175.5720   19.5800   48.6570 C   0  0  0  0  0  0  0  0  0  0  0  0
  176.8400   19.1140   47.9390 C   0  0  0  0  0  0  0  0  0  0  0  0
  178.7177   23.8481   48.1246 H   0  0  0  0  0  0  0  0  0  0  0  0
  179.8354   23.5862   46.7430 H   0  0  0  0  0  0  0  0  0  0  0  0
  178.2118   22.8177   46.7430 H   0  0  0  0  0  0  0  0  0  0  0  0
  180.6217   22.1649   48.4894 H   0  0  0  0  0  0  0  0  0  0  0  0
  178.9364   21.6001   48.8617 H   0  0  0  0  0  0  0  0  0  0  0  0
  181.9447   21.0568   46.9452 H   0  0  0  0  0  0  0  0  0  0  0  0
  182.3002   19.1727   45.3670 H   0  0  0  0  0  0  0  0  0  0  0  0
  181.3537   18.4506   40.6643 H   0  0  0  0  0  0  0  0  0  0  0  0
  181.8118   16.8120   38.8388 H   0  0  0  0  0  0  0  0  0  0  0  0
  181.7071   14.3609   39.3029 H   0  0  0  0  0  0  0  0  0  0  0  0
  181.9420   12.8050   41.7520 H   0  0  0  0  0  0  0  0  0  0  0  0
  180.6760   15.7780   46.7380 H   0  0  0  0  0  0  0  0  0  0  0  0
  178.0844   18.2610   45.5093 H   0  0  0  0  0  0  0  0  0  0  0  0
  177.0262   21.6497   45.6739 H   0  0  0  0  0  0  0  0  0  0  0  0
  176.2631   20.0439   45.4489 H   0  0  0  0  0  0  0  0  0  0  0  0
  175.5186   22.1559   47.5444 H   0  0  0  0  0  0  0  0  0  0  0  0
  174.5525   21.6672   46.0959 H   0  0  0  0  0  0  0  0  0  0  0  0
  173.7441   20.6465   48.2493 H   0  0  0  0  0  0  0  0  0  0  0  0
  174.2253   19.4445   46.9881 H   0  0  0  0  0  0  0  0  0  0  0  0
  175.8460   20.3186   49.4248 H   0  0  0  0  0  0  0  0  0  0  0  0
  175.0902   18.7032   49.1143 H   0  0  0  0  0  0  0  0  0  0  0  0
  177.5658   18.7411   48.6766 H   0  0  0  0  0  0  0  0  0  0  0  0
  176.5933   18.3053   47.2354 H   0  0  0  0  0  0  0  0  0  0  0  0
  1  2  1  0
  2  3  1  0
  3  4  2  0
  4  5  1  0
  5  6  2  0
  6  7  1  0
  7  8  1  0
  8  9  1  0
  9 10  2  0
 10 11  1  0
 11 12  2  0
 12 13  1  0
 13 14  1  0
 13 15  2  0
 15 16  1  0
 16 17  2  0
 16 18  1  0
 18 19  1  0
  6 20  1  0
 20 21  2  0
 21 22  1  0
 22 23  1  0
 23 24  1  0
 24 25  1  0
 25 26  1  0
 26 27  1  0
 21  3  1  0
 27 22  1  0
 18  7  2  0
 15  9  1  0
  1 28  1  0
  1 29  1  0
  1 30  1  0
  2 31  1  0
  2 32  1  0
  4 33  1  0
  5 34  1  0
 10 35  1  0
 11 36  1  0
 12 37  1  0
 14 38  1  0
 19 39  1  0
 20 40  1  0
 23 41  1  0
 23 42  1  0
 24 43  1  0
 24 44  1  0
 25 45  1  0
 25 46  1  0
 26 47  1  0
 26 48  1  0
 27 49  1  0
 27 50  1  0
M  END
>  <meeko>  (1) 
{"is_sidechain": [false], "free_energy": -5.9, "intermolecular_energy": -7.28, "internal_energy": -0.774}

$$$$
cand_020_out
     RDKit          3D

 50 53  0  0  0  0  0  0  0  0999 V2000
  187.2440   25.6690   46.0740 C   0  0  0  0  0  0  0  0  0  0  0  0
  187.2660   24.3340   45.3450 C   0  0  0  0  0  0  0  0  0  0  0  0
  185.9530   23.5940   45.4750 C   0  0  0  0  0  0  0  0  0  0  0  0
  185.1370   23.8520   46.5880 C   0  0  0  0  0  0  0  0  0  0  0  0
  183.9270   23.1790   46.7590 C   0  0  0  0  0  0  0  0  0  0  0  0
  183.5040   22.2250   45.8270 C   0  0  0  0  0  0  0  0  0  0  0  0
  182.2040   21.5440   46.0100 C   0  0  0  0  0  0  0  0  0  0  0  0
  181.3120   22.2820   46.7810 O   0  0  0  0  0  0  0  0  0  0  0  0
  180.0670   21.7650   47.0290 C   0  0  0  0  0  0  0  0  0  0  0  0
  179.1990   22.5460   47.7940 C   0  0  0  0  0  0  0  0  0  0  0  0
  177.9160   22.0780   48.0860 C   0  0  0  0  0  0  0  0  0  0  0  0
  177.5000   20.8320   47.6140 C   0  0  0  0  0  0  0  0  0  0  0  0
  178.3680   20.0560   46.8500 C   0  0  0  0  0  0  0  0  0  0  0  0
  177.8970   18.8460   46.4200 O   0  0  0  0  0  0  0  0  0  0  0  0
  179.6520   20.5240   46.5580 C   0  0  0  0  0  0  0  0  0  0  0  0
  180.5950   19.7400   45.7590 C   0  0  0  0  0  0  0  0  0  0  0  0
  180.3050   18.6310   45.3130 O   0  0  0  0  0  0  0  0  0  0  0  0
  181.9290   20.3290   45.4990 C   0  0  0  0  0  0  0  0  0  0  0  0
  182.8150   19.5740   44.7540 O   0  0  0  0  0  0  0  0  0  0  0  0
  184.3190   21.9710   44.7140 C   0  0  0  0  0  0  0  0  0  0  0  0
  185.5480   22.6330   44.5280 C   0  0  0  0  0  0  0  0  0  0  0  0
  186.3750   22.3690   43.4110 N   0  0  0  0  0  0  0  0  0  0  0  0
  186.7860   20.9600   43.3140 C   0  0  0  0  0  0  0  0  0  0  0  0
  187.8600   20.8300   42.2350 C   0  0  0  0  0  0  0  0  0  0  0  0
  187.3660   21.3820   40.8980 C   0  0  0  0  0  0  0  0  0  0  0  0
  186.8460   22.8110   41.0550 C   0  0  0  0  0  0  0  0  0  0  0  0
  185.7990   22.9030   42.1660 C   0  0  0  0  0  0  0  0  0  0  0  0
  187.2469   25.4939   47.1600 H   0  0  0  0  0  0  0  0  0  0  0  0
  188.1326   26.2540   45.7946 H   0  0  0  0  0  0  0  0  0  0  0  0
  186.3366   26.2244   45.7946 H   0  0  0  0  0  0  0  0  0  0  0  0
  187.4672   24.5151   44.2788 H   0  0  0  0  0  0  0  0  0  0  0  0
  188.0519   23.7126   45.7990 H   0  0  0  0  0  0  0  0  0  0  0  0
  185.4558   24.5942   47.3347 H   0  0  0  0  0  0  0  0  0  0  0  0
  183.2995   23.4005   47.6349 H   0  0  0  0  0  0  0  0  0  0  0  0
  179.5250   23.5284   48.1662 H   0  0  0  0  0  0  0  0  0  0  0  0
  177.2317   22.6927   48.6893 H   0  0  0  0  0  0  0  0  0  0  0  0
  176.4894   20.4641   47.8449 H   0  0  0  0  0  0  0  0  0  0  0  0
  178.4120   18.3230   45.8360 H   0  0  0  0  0  0  0  0  0  0  0  0
  183.2090   19.9360   43.9850 H   0  0  0  0  0  0  0  0  0  0  0  0
  183.9892   21.2348   43.9662 H   0  0  0  0  0  0  0  0  0  0  0  0
  187.1916   20.6264   44.2806 H   0  0  0  0  0  0  0  0  0  0  0  0
  185.9184   20.3362   43.0528 H   0  0  0  0  0  0  0  0  0  0  0  0
  188.7530   21.3911   42.5475 H   0  0  0  0  0  0  0  0  0  0  0  0
  188.0988   19.7640   42.1062 H   0  0  0  0  0  0  0  0  0  0  0  0
  188.1975   21.3787   40.1779 H   0  0  0  0  0  0  0  0  0  0  0  0
  186.5431   20.7466   40.5386 H   0  0  0  0  0  0  0  0  0  0  0  0
  187.6887   23.4738   41.3011 H   0  0  0  0  0  0  0  0  0  0  0  0
  186.3751   23.1148   40.1085 H   0  0  0  0  0  0  0  0  0  0  0  0
  185.5096   23.9538   42.3143 H   0  0  0  0  0  0  0  0  0  0  0  0
  184.9088   22.3199   41.8877 H   0  0  0  0  0  0  0  0  0  0  0  0
  1  2  1  0
  2  3  1  0
  3  4  2  0
  4  5  1  0
  5  6  2  0
  6  7  1  0
  7  8  1  0
  8  9  1  0
  9 10  2  0
 10 11  1  0
 11 12  2  0
 12 13  1  0
 13 14  1  0
 13 15  2  0
 15 16  1  0
 16 17  2  0
 16 18  1  0
 18 19  1  0
  6 20  1  0
 20 21  2  0
 21 22  1  0
 22 23  1  0
 23 24  1  0
 24 25  1  0
 25 26  1  0
 26 27  1  0
 21  3  1  0
 27 22  1  0
 18  7  2  0
 15  9  1  0
  1 28  1  0
  1 29  1  0
  1 30  1  0
  2 31  1  0
  2 32  1  0
  4 33  1  0
  5 34  1  0
 10 35  1  0
 11 36  1  0
 12 37  1  0
 14 38  1  0
 19 39  1  0
 20 40  1  0
 23 41  1  0
 23 42  1  0
 24 43  1  0
 24 44  1  0
 25 45  1  0
 25 46  1  0
 26 47  1  0
 26 48  1  0
 27 49  1  0
 27 50  1  0
M  END
>  <meeko>  (2) 
{"is_sidechain": [false], "free_energy": -5.749, "intermolecular_energy": -7.461, "internal_energy": -0.407}

$$$$
cand_020_out
     RDKit          3D

 50 53  0  0  0  0  0  0  0  0999 V2000
  179.8910   17.8050   45.5240 C   0  0  0  0  0  0  0  0  0  0  0  0
  179.3930   19.1770   45.9490 C   0  0  0  0  0  0  0  0  0  0  0  0
  180.5150   20.1880   46.0360 C   0  0  0  0  0  0  0  0  0  0  0  0
  181.7730   19.8500   45.5120 C   0  0  0  0  0  0  0  0  0  0  0  0
  182.8430   20.7420   45.5870 C   0  0  0  0  0  0  0  0  0  0  0  0
  182.6850   21.9930   46.1940 C   0  0  0  0  0  0  0  0  0  0  0  0
  183.8220   22.9380   46.2380 C   0  0  0  0  0  0  0  0  0  0  0  0
  184.1110   23.3750   47.5260 O   0  0  0  0  0  0  0  0  0  0  0  0
  185.1450   24.2560   47.7110 C   0  0  0  0  0  0  0  0  0  0  0  0
  185.4090   24.6560   49.0220 C   0  0  0  0  0  0  0  0  0  0  0  0
  186.4480   25.5540   49.2800 C   0  0  0  0  0  0  0  0  0  0  0  0
  187.2210   26.0520   48.2290 C   0  0  0  0  0  0  0  0  0  0  0  0
  186.9550   25.6510   46.9220 C   0  0  0  0  0  0  0  0  0  0  0  0
  187.7490   26.1770   45.9410 O   0  0  0  0  0  0  0  0  0  0  0  0
  185.9160   24.7520   46.6640 C   0  0  0  0  0  0  0  0  0  0  0  0
  185.6030   24.3050   45.3060 C   0  0  0  0  0  0  0  0  0  0  0  0
  186.2340   24.7030   44.3290 O   0  0  0  0  0  0  0  0  0  0  0  0
  184.4880   23.3440   45.1410 C   0  0  0  0  0  0  0  0  0  0  0  0
  184.1940   22.9390   43.8520 O   0  0  0  0  0  0  0  0  0  0  0  0
  181.4270   22.3300   46.7150 C   0  0  0  0  0  0  0  0  0  0  0  0
  180.3370   21.4400   46.6570 C   0  0  0  0  0  0  0  0  0  0  0  0
  179.0720   21.7760   47.1910 N   0  0  0  0  0  0  0  0  0  0  0  0
  178.7730   21.0840   48.4550 C   0  0  0  0  0  0  0  0  0  0  0  0
  177.3070   21.3200   48.8140 C   0  0  0  0  0  0  0  0  0  0  0  0
  176.9900   22.8140   48.8830 C   0  0  0  0  0  0  0  0  0  0  0  0
  177.4100   23.5210   47.5950 C   0  0  0  0  0  0  0  0  0  0  0  0
  178.8730   23.2320   47.2530 C   0  0  0  0  0  0  0  0  0  0  0  0
  180.1100   17.2015   46.4172 H   0  0  0  0  0  0  0  0  0  0  0  0
  179.1174   17.3039   44.9236 H   0  0  0  0  0  0  0  0  0  0  0  0
  180.8059   17.9168   44.9236 H   0  0  0  0  0  0  0  0  0  0  0  0
  178.6542   19.5294   45.2142 H   0  0  0  0  0  0  0  0  0  0  0  0
  178.9461   19.0801   46.9494 H   0  0  0  0  0  0  0  0  0  0  0  0
  181.9168   18.8688   45.0360 H   0  0  0  0  0  0  0  0  0  0  0  0
  183.8190   20.4597   45.1655 H   0  0  0  0  0  0  0  0  0  0  0  0
  184.8002   24.2650   49.8505 H   0  0  0  0  0  0  0  0  0  0  0  0
  186.6574   25.8692   50.3128 H   0  0  0  0  0  0  0  0  0  0  0  0
  188.0382   26.7595   48.4330 H   0  0  0  0  0  0  0  0  0  0  0  0
  188.6340   26.4180   46.1330 H   0  0  0  0  0  0  0  0  0  0  0  0
  183.5930   23.4350   43.3300 H   0  0  0  0  0  0  0  0  0  0  0  0
  181.2880   23.3164   47.1816 H   0  0  0  0  0  0  0  0  0  0  0  0
  178.9553   20.0056   48.3376 H   0  0  0  0  0  0  0  0  0  0  0  0
  179.4198   21.4735   49.2550 H   0  0  0  0  0  0  0  0  0  0  0  0
  176.6701   20.8527   48.0485 H   0  0  0  0  0  0  0  0  0  0  0  0
  177.1138   20.8762   49.8018 H   0  0  0  0  0  0  0  0  0  0  0  0
  175.9079   22.9461   49.0298 H   0  0  0  0  0  0  0  0  0  0  0  0
  177.5483   23.2531   49.7229 H   0  0  0  0  0  0  0  0  0  0  0  0
  176.7731   23.1700   46.7697 H   0  0  0  0  0  0  0  0  0  0  0  0
  177.2956   24.6052   47.7413 H   0  0  0  0  0  0  0  0  0  0  0  0
  179.1193   23.6796   46.2789 H   0  0  0  0  0  0  0  0  0  0  0  0
  179.5272   23.6638   48.0247 H   0  0  0  0  0  0  0  0  0  0  0  0
  1  2  1  0
  2  3  1  0
  3  4  2  0
  4  5  1  0
  5  6  2  0
  6  7  1  0
  7  8  1  0
  8  9  1  0
  9 10  2  0
 10 11  1  0
 11 12  2  0
 12 13  1  0
 13 14  1  0
 13 15  2  0
 15 16  1  0
 16 17  2  0
 16 18  1  0
 18 19  1  0
  6 20  1  0
 20 21  2  0
 21 22  1  0
 22 23  1  0
 23 24  1  0
 24 25  1  0
 25 26  1  0
 26 27  1  0
 21  3  1  0
 27 22  1  0
 18  7  2  0
 15  9  1  0
  1 28  1  0
  1 29  1  0
  1 30  1  0
  2 31  1  0
  2 32  1  0
  4 33  1  0
  5 34  1  0
 10 35  1  0
 11 36  1  0
 12 37  1  0
 14 38  1  0
 19 39  1  0
 20 40  1  0
 23 41  1  0
 23 42  1  0
 24 43  1  0
 24 44  1  0
 25 45  1  0
 25 46  1  0
 26 47  1  0
 26 48  1  0
 27 49  1  0
 27 50  1  0
M  END
>  <meeko>  (3) 
{"is_sidechain": [false], "free_energy": -5.538, "intermolecular_energy": -7.223, "internal_energy": -0.384}

$$$$
cand_020_out
     RDKit          3D

 50 53  0  0  0  0  0  0  0  0999 V2000
  178.2250   24.2020   47.9900 C   0  0  0  0  0  0  0  0  0  0  0  0
  178.8920   23.1060   48.8070 C   0  0  0  0  0  0  0  0  0  0  0  0
  179.3050   21.9300   47.9500 C   0  0  0  0  0  0  0  0  0  0  0  0
  180.6620   21.7690   47.6300 C   0  0  0  0  0  0  0  0  0  0  0  0
  181.0870   20.7100   46.8260 C   0  0  0  0  0  0  0  0  0  0  0  0
  180.1650   19.7890   46.3160 C   0  0  0  0  0  0  0  0  0  0  0  0
  180.6370   18.6560   45.4910 C   0  0  0  0  0  0  0  0  0  0  0  0
  179.8370   17.5260   45.6180 O   0  0  0  0  0  0  0  0  0  0  0  0
  180.1610   16.4000   44.9070 C   0  0  0  0  0  0  0  0  0  0  0  0
  179.3220   15.2940   45.0540 C   0  0  0  0  0  0  0  0  0  0  0  0
  179.5970   14.1140   44.3580 C   0  0  0  0  0  0  0  0  0  0  0  0
  180.7090   14.0390   43.5170 C   0  0  0  0  0  0  0  0  0  0  0  0
  181.5440   15.1440   43.3720 C   0  0  0  0  0  0  0  0  0  0  0  0
  182.6150   15.0030   42.5340 O   0  0  0  0  0  0  0  0  0  0  0  0
  181.2690   16.3250   44.0680 C   0  0  0  0  0  0  0  0  0  0  0  0
  182.1210   17.5090   43.9450 C   0  0  0  0  0  0  0  0  0  0  0  0
  183.1200   17.5180   43.2290 O   0  0  0  0  0  0  0  0  0  0  0  0
  181.7370   18.7130   44.7180 C   0  0  0  0  0  0  0  0  0  0  0  0
  182.5570   19.8200   44.6020 O   0  0  0  0  0  0  0  0  0  0  0  0
  178.8100   19.9500   46.6400 C   0  0  0  0  0  0  0  0  0  0  0  0
  178.3600   21.0170   47.4410 C   0  0  0  0  0  0  0  0  0  0  0  0
  176.9930   21.1860   47.7590 N   0  0  0  0  0  0  0  0  0  0  0  0
  176.0880   20.7220   46.6950 C   0  0  0  0  0  0  0  0  0  0  0  0
  174.6650   21.1690   47.0250 C   0  0  0  0  0  0  0  0  0  0  0  0
  174.2380   20.6700   48.4050 C   0  0  0  0  0  0  0  0  0  0  0  0
  175.2540   21.0760   49.4720 C   0  0  0  0  0  0  0  0  0  0  0  0
  176.6690   20.6410   49.0870 C   0  0  0  0  0  0  0  0  0  0  0  0
  177.7746   24.9421   48.6678 H   0  0  0  0  0  0  0  0  0  0  0  0
  178.9763   24.6952   47.3557 H   0  0  0  0  0  0  0  0  0  0  0  0
  177.4418   23.7614   47.3557 H   0  0  0  0  0  0  0  0  0  0  0  0
  179.7864   23.5212   49.2945 H   0  0  0  0  0  0  0  0  0  0  0  0
  178.1644   22.7458   49.5491 H   0  0  0  0  0  0  0  0  0  0  0  0
  181.4001   22.4865   48.0177 H   0  0  0  0  0  0  0  0  0  0  0  0
  182.1559   20.5984   46.5913 H   0  0  0  0  0  0  0  0  0  0  0  0
  178.4459   15.3513   45.7166 H   0  0  0  0  0  0  0  0  0  0  0  0
  178.9360   13.2423   44.4729 H   0  0  0  0  0  0  0  0  0  0  0  0
  180.9250   13.1093   42.9702 H   0  0  0  0  0  0  0  0  0  0  0  0
  182.7710   15.6370   41.8620 H   0  0  0  0  0  0  0  0  0  0  0  0
  182.9930   19.9980   43.7920 H   0  0  0  0  0  0  0  0  0  0  0  0
  178.0786   19.2227   46.2578 H   0  0  0  0  0  0  0  0  0  0  0  0
  176.3972   21.1554   45.7324 H   0  0  0  0  0  0  0  0  0  0  0  0
  176.1270   19.6249   46.6251 H   0  0  0  0  0  0  0  0  0  0  0  0
  174.6212   22.2680   47.0109 H   0  0  0  0  0  0  0  0  0  0  0  0
  173.9824   20.7454   46.2735 H   0  0  0  0  0  0  0  0  0  0  0  0
  173.2588   21.1032   48.6572 H   0  0  0  0  0  0  0  0  0  0  0  0
  174.1778   19.5720   48.3778 H   0  0  0  0  0  0  0  0  0  0  0  0
  175.2344   22.1697   49.5875 H   0  0  0  0  0  0  0  0  0  0  0  0
  174.9832   20.5798   50.4156 H   0  0  0  0  0  0  0  0  0  0  0  0
  177.3868   21.0233   49.8277 H   0  0  0  0  0  0  0  0  0  0  0  0
  176.7264   19.5428   49.0622 H   0  0  0  0  0  0  0  0  0  0  0  0
  1  2  1  0
  2  3  1  0
  3  4  2  0
  4  5  1  0
  5  6  2  0
  6  7  1  0
  7  8  1  0
  8  9  1  0
  9 10  2  0
 10 11  1  0
 11 12  2  0
 12 13  1  0
 13 14  1  0
 13 15  2  0
 15 16  1  0
 16 17  2  0
 16 18  1  0
 18 19  1  0
  6 20  1  0
 20 21  2  0
 21 22  1  0
 22 23  1  0
 23 24  1  0
 24 25  1  0
 25 26  1  0
 26 27  1  0
 21  3  1  0
 27 22  1  0
 18  7  2  0
 15  9  1  0
  1 28  1  0
  1 29  1  0
  1 30  1  0
  2 31  1  0
  2 32  1  0
  4 33  1  0
  5 34  1  0
 10 35  1  0
 11 36  1  0
 12 37  1  0
 14 38  1  0
 19 39  1  0
 20 40  1  0
 23 41  1  0
 23 42  1  0
 24 43  1  0
 24 44  1  0
 25 45  1  0
 25 46  1  0
 26 47  1  0
 26 48  1  0
 27 49  1  0
 27 50  1  0
M  END
>  <meeko>  (4) 
{"is_sidechain": [false], "free_energy": -5.211, "intermolecular_energy": -7.102, "internal_energy": -0.101}

$$$$
cand_020_out
     RDKit          3D

 50 53  0  0  0  0  0  0  0  0999 V2000
  187.2960   24.8670   43.7380 C   0  0  0  0  0  0  0  0  0  0  0  0
  187.3180   24.0950   45.0490 C   0  0  0  0  0  0  0  0  0  0  0  0
  185.9830   23.4520   45.3530 C   0  0  0  0  0  0  0  0  0  0  0  0
  185.4000   22.6130   44.3910 C   0  0  0  0  0  0  0  0  0  0  0  0
  184.1610   22.0140   44.6190 C   0  0  0  0  0  0  0  0  0  0  0  0
  183.4680   22.2440   45.8130 C   0  0  0  0  0  0  0  0  0  0  0  0
  182.1700   21.5770   46.0510 C   0  0  0  0  0  0  0  0  0  0  0  0
  181.3240   22.3190   46.8670 O   0  0  0  0  0  0  0  0  0  0  0  0
  180.0850   21.8160   47.1690 C   0  0  0  0  0  0  0  0  0  0  0  0
  179.2630   22.6020   47.9790 C   0  0  0  0  0  0  0  0  0  0  0  0
  177.9890   22.1470   48.3270 C   0  0  0  0  0  0  0  0  0  0  0  0
  177.5360   20.9100   47.8650 C   0  0  0  0  0  0  0  0  0  0  0  0
  178.3580   20.1290   47.0570 C   0  0  0  0  0  0  0  0  0  0  0  0
  177.8540   18.9280   46.6400 O   0  0  0  0  0  0  0  0  0  0  0  0
  179.6330   20.5830   46.7090 C   0  0  0  0  0  0  0  0  0  0  0  0
  180.5290   19.7940   45.8620 C   0  0  0  0  0  0  0  0  0  0  0  0
  180.2050   18.6930   45.4230 O   0  0  0  0  0  0  0  0  0  0  0  0
  181.8560   20.3700   45.5450 C   0  0  0  0  0  0  0  0  0  0  0  0
  182.6980   19.6090   44.7550 O   0  0  0  0  0  0  0  0  0  0  0  0
  184.0540   23.0810   46.7750 C   0  0  0  0  0  0  0  0  0  0  0  0
  185.2990   23.7020   46.5590 C   0  0  0  0  0  0  0  0  0  0  0  0
  185.8840   24.5540   47.5240 N   0  0  0  0  0  0  0  0  0  0  0  0
  184.9650   25.5950   48.0130 C   0  0  0  0  0  0  0  0  0  0  0  0
  185.7550   26.5980   48.8520 C   0  0  0  0  0  0  0  0  0  0  0  0
  186.4960   25.9000   49.9920 C   0  0  0  0  0  0  0  0  0  0  0  0
  187.3590   24.7550   49.4620 C   0  0  0  0  0  0  0  0  0  0  0  0
  186.5390   23.7930   48.6000 C   0  0  0  0  0  0  0  0  0  0  0  0
  187.2653   25.9462   43.9485 H   0  0  0  0  0  0  0  0  0  0  0  0
  188.2012   24.6320   43.1589 H   0  0  0  0  0  0  0  0  0  0  0  0
  186.4056   24.5809   43.1589 H   0  0  0  0  0  0  0  0  0  0  0  0
  188.0841   23.3083   44.9846 H   0  0  0  0  0  0  0  0  0  0  0  0
  187.5433   24.8063   45.8573 H   0  0  0  0  0  0  0  0  0  0  0  0
  185.9273   22.4251   43.4441 H   0  0  0  0  0  0  0  0  0  0  0  0
  183.7248   21.3552   43.8537 H   0  0  0  0  0  0  0  0  0  0  0  0
  179.6180   23.5777   48.3424 H   0  0  0  0  0  0  0  0  0  0  0  0
  177.3413   22.7647   48.9665 H   0  0  0  0  0  0  0  0  0  0  0  0
  176.5321   20.5532   48.1387 H   0  0  0  0  0  0  0  0  0  0  0  0
  177.6020   18.2810   47.2710 H   0  0  0  0  0  0  0  0  0  0  0  0
  183.5660   19.4130   45.0470 H   0  0  0  0  0  0  0  0  0  0  0  0
  183.5261   23.2567   47.7239 H   0  0  0  0  0  0  0  0  0  0  0  0
  184.5033   26.1111   47.1583 H   0  0  0  0  0  0  0  0  0  0  0  0
  184.1750   25.1367   48.6260 H   0  0  0  0  0  0  0  0  0  0  0  0
  186.4861   27.1081   48.2076 H   0  0  0  0  0  0  0  0  0  0  0  0
  185.0498   27.3222   49.2858 H   0  0  0  0  0  0  0  0  0  0  0  0
  187.1409   26.6303   50.5027 H   0  0  0  0  0  0  0  0  0  0  0  0
  185.7546   25.4864   50.6915 H   0  0  0  0  0  0  0  0  0  0  0  0
  188.1753   25.1731   48.8547 H   0  0  0  0  0  0  0  0  0  0  0  0
  187.7593   24.1961   50.3207 H   0  0  0  0  0  0  0  0  0  0  0  0
  187.2026   23.0325   48.1627 H   0  0  0  0  0  0  0  0  0  0  0  0
  185.7784   23.2950   49.2193 H   0  0  0  0  0  0  0  0  0  0  0  0
  1  2  1  0
  2  3  1  0
  3  4  2  0
  4  5  1  0
  5  6  2  0
  6  7  1  0
  7  8  1  0
  8  9  1  0
  9 10  2  0
 10 11  1  0
 11 12  2  0
 12 13  1  0
 13 14  1  0
 13 15  2  0
 15 16  1  0
 16 17  2  0
 16 18  1  0
 18 19  1  0
  6 20  1  0
 20 21  2  0
 21 22  1  0
 22 23  1  0
 23 24  1  0
 24 25  1  0
 25 26  1  0
 26 27  1  0
 21  3  1  0
 27 22  1  0
 18  7  2  0
 15  9  1  0
  1 28  1  0
  1 29  1  0
  1 30  1  0
  2 31  1  0
  2 32  1  0
  4 33  1  0
  5 34  1  0
 10 35  1  0
 11 36  1  0
 12 37  1  0
 14 38  1  0
 19 39  1  0
 20 40  1  0
 23 41  1  0
 23 42  1  0
 24 43  1  0
 24 44  1  0
 25 45  1  0
 25 46  1  0
 26 47  1  0
 26 48  1  0
 27 49  1  0
 27 50  1  0
M  END
>  <meeko>  (5) 
{"is_sidechain": [false], "free_energy": -5.2, "intermolecular_energy": -6.812, "internal_energy": -0.378}

$$$$
cand_020_out
     RDKit          3D

 50 53  0  0  0  0  0  0  0  0999 V2000
  177.3880   19.8840   45.6870 C   0  0  0  0  0  0  0  0  0  0  0  0
  178.5850   19.1780   46.3060 C   0  0  0  0  0  0  0  0  0  0  0  0
  179.8490   20.0020   46.1970 C   0  0  0  0  0  0  0  0  0  0  0  0
  180.9850   19.4240   45.6100 C   0  0  0  0  0  0  0  0  0  0  0  0
  182.1790   20.1400   45.5050 C   0  0  0  0  0  0  0  0  0  0  0  0
  182.2700   21.4480   45.9910 C   0  0  0  0  0  0  0  0  0  0  0  0
  183.5340   22.2020   45.8450 C   0  0  0  0  0  0  0  0  0  0  0  0
  184.1770   21.9470   44.6380 O   0  0  0  0  0  0  0  0  0  0  0  0
  185.3620   22.5810   44.3720 C   0  0  0  0  0  0  0  0  0  0  0  0
  185.9650   22.3070   43.1430 C   0  0  0  0  0  0  0  0  0  0  0  0
  187.1760   22.9180   42.8100 C   0  0  0  0  0  0  0  0  0  0  0  0
  187.7840   23.8020   43.7030 C   0  0  0  0  0  0  0  0  0  0  0  0
  187.1800   24.0730   44.9290 C   0  0  0  0  0  0  0  0  0  0  0  0
  187.8290   24.9470   45.7570 O   0  0  0  0  0  0  0  0  0  0  0  0
  185.9680   23.4620   45.2620 C   0  0  0  0  0  0  0  0  0  0  0  0
  185.3010   23.7190   46.5390 C   0  0  0  0  0  0  0  0  0  0  0  0
  185.7770   24.4790   47.3800 O   0  0  0  0  0  0  0  0  0  0  0  0
  184.0160   23.0280   46.7920 C   0  0  0  0  0  0  0  0  0  0  0  0
  183.4010   23.2690   48.0060 O   0  0  0  0  0  0  0  0  0  0  0  0
  181.1320   22.0250   46.5750 C   0  0  0  0  0  0  0  0  0  0  0  0
  179.9210   21.3170   46.6980 C   0  0  0  0  0  0  0  0  0  0  0  0
  178.7770   21.8940   47.2960 N   0  0  0  0  0  0  0  0  0  0  0  0
  178.5140   21.3890   48.6530 C   0  0  0  0  0  0  0  0  0  0  0  0
  177.1400   21.8820   49.1070 C   0  0  0  0  0  0  0  0  0  0  0  0
  177.0490   23.4050   49.0290 C   0  0  0  0  0  0  0  0  0  0  0  0
  177.4320   23.9060   47.6370 C   0  0  0  0  0  0  0  0  0  0  0  0
  178.7960   23.3630   47.2070 C   0  0  0  0  0  0  0  0  0  0  0  0
  176.7360   20.2685   46.4852 H   0  0  0  0  0  0  0  0  0  0  0  0
  177.7375   20.7206   45.0641 H   0  0  0  0  0  0  0  0  0  0  0  0
  176.8250   19.1734   45.0641 H   0  0  0  0  0  0  0  0  0  0  0  0
  178.3750   18.9892   47.3691 H   0  0  0  0  0  0  0  0  0  0  0  0
  178.7448   18.2375   45.7583 H   0  0  0  0  0  0  0  0  0  0  0  0
  180.9341   18.3938   45.2278 H   0  0  0  0  0  0  0  0  0  0  0  0
  183.0562   19.6708   45.0356 H   0  0  0  0  0  0  0  0  0  0  0  0
  185.4871   21.6109   42.4380 H   0  0  0  0  0  0  0  0  0  0  0  0
  187.6517   22.7021   41.8419 H   0  0  0  0  0  0  0  0  0  0  0  0
  188.7374   24.2833   43.4395 H   0  0  0  0  0  0  0  0  0  0  0  0
  187.3700   25.6790   46.1190 H   0  0  0  0  0  0  0  0  0  0  0  0
  183.8900   23.1930   48.8030 H   0  0  0  0  0  0  0  0  0  0  0  0
  181.1874   23.0587   46.9469 H   0  0  0  0  0  0  0  0  0  0  0  0
  178.5282   20.2891   48.6469 H   0  0  0  0  0  0  0  0  0  0  0  0
  179.2882   21.7549   49.3435 H   0  0  0  0  0  0  0  0  0  0  0  0
  176.3681   21.4422   48.4583 H   0  0  0  0  0  0  0  0  0  0  0  0
  176.9867   21.5758   50.1524 H   0  0  0  0  0  0  0  0  0  0  0  0
  176.0176   23.7156   49.2519 H   0  0  0  0  0  0  0  0  0  0  0  0
  177.7479   23.8358   49.7611 H   0  0  0  0  0  0  0  0  0  0  0  0
  176.6708   23.5752   46.9151 H   0  0  0  0  0  0  0  0  0  0  0  0
  177.4890   25.0041   47.6666 H   0  0  0  0  0  0  0  0  0  0  0  0
  179.0038   23.6670   46.1705 H   0  0  0  0  0  0  0  0  0  0  0  0
  179.5802   23.7650   47.8653 H   0  0  0  0  0  0  0  0  0  0  0  0
  1  2  1  0
  2  3  1  0
  3  4  2  0
  4  5  1  0
  5  6  2  0
  6  7  1  0
  7  8  1  0
  8  9  1  0
  9 10  2  0
 10 11  1  0
 11 12  2  0
 12 13  1  0
 13 14  1  0
 13 15  2  0
 15 16  1  0
 16 17  2  0
 16 18  1  0
 18 19  1  0
  6 20  1  0
 20 21  2  0
 21 22  1  0
 22 23  1  0
 23 24  1  0
 24 25  1  0
 25 26  1  0
 26 27  1  0
 21  3  1  0
 27 22  1  0
 18  7  2  0
 15  9  1  0
  1 28  1  0
  1 29  1  0
  1 30  1  0
  2 31  1  0
  2 32  1  0
  4 33  1  0
  5 34  1  0
 10 35  1  0
 11 36  1  0
 12 37  1  0
 14 38  1  0
 19 39  1  0
 20 40  1  0
 23 41  1  0
 23 42  1  0
 24 43  1  0
 24 44  1  0
 25 45  1  0
 25 46  1  0
 26 47  1  0
 26 48  1  0
 27 49  1  0
 27 50  1  0
M  END
>  <meeko>  (6) 
{"is_sidechain": [false], "free_energy": -5.115, "intermolecular_energy": -7.261, "internal_energy": 0.176}

$$$$
cand_020_out
     RDKit          3D

 50 53  0  0  0  0  0  0  0  0999 V2000
  176.8190   19.2710   46.5250 C   0  0  0  0  0  0  0  0  0  0  0  0
  178.0260   18.4810   46.0430 C   0  0  0  0  0  0  0  0  0  0  0  0
  179.2870   19.3160   46.0370 C   0  0  0  0  0  0  0  0  0  0  0  0
  179.2990   20.5290   46.7420 C   0  0  0  0  0  0  0  0  0  0  0  0
  180.4340   21.3420   46.7490 C   0  0  0  0  0  0  0  0  0  0  0  0
  181.5830   20.9670   46.0450 C   0  0  0  0  0  0  0  0  0  0  0  0
  182.7860   21.8260   46.0880 C   0  0  0  0  0  0  0  0  0  0  0  0
  183.4950   21.8210   44.8920 O   0  0  0  0  0  0  0  0  0  0  0  0
  184.6340   22.5770   44.7940 C   0  0  0  0  0  0  0  0  0  0  0  0
  185.3060   22.5530   43.5710 C   0  0  0  0  0  0  0  0  0  0  0  0
  186.4750   23.2990   43.4040 C   0  0  0  0  0  0  0  0  0  0  0  0
  186.9720   24.0680   44.4580 C   0  0  0  0  0  0  0  0  0  0  0  0
  186.2990   24.0900   45.6770 C   0  0  0  0  0  0  0  0  0  0  0  0
  186.8400   24.8630   46.6670 O   0  0  0  0  0  0  0  0  0  0  0  0
  185.1290   23.3440   45.8440 C   0  0  0  0  0  0  0  0  0  0  0  0
  184.3920   23.3380   47.1080 C   0  0  0  0  0  0  0  0  0  0  0  0
  184.7690   23.9840   48.0840 O   0  0  0  0  0  0  0  0  0  0  0  0
  183.1590   22.5200   47.1790 C   0  0  0  0  0  0  0  0  0  0  0  0
  182.4780   22.5140   48.3820 O   0  0  0  0  0  0  0  0  0  0  0  0
  181.5700   19.7520   45.3430 C   0  0  0  0  0  0  0  0  0  0  0  0
  180.4320   18.9230   45.3160 C   0  0  0  0  0  0  0  0  0  0  0  0
  180.4150   17.7040   44.6000 N   0  0  0  0  0  0  0  0  0  0  0  0
  181.5400   17.5670   43.6610 C   0  0  0  0  0  0  0  0  0  0  0  0
  181.2980   16.3470   42.7720 C   0  0  0  0  0  0  0  0  0  0  0  0
  181.0890   15.0870   43.6120 C   0  0  0  0  0  0  0  0  0  0  0  0
  179.9870   15.2980   44.6490 C   0  0  0  0  0  0  0  0  0  0  0  0
  180.2490   16.5470   45.4940 C   0  0  0  0  0  0  0  0  0  0  0  0
  176.8030   19.2815   47.6248 H   0  0  0  0  0  0  0  0  0  0  0  0
  176.8824   20.3029   46.1494 H   0  0  0  0  0  0  0  0  0  0  0  0
  175.8987   18.8000   46.1494 H   0  0  0  0  0  0  0  0  0  0  0  0
  178.1748   17.6187   46.7096 H   0  0  0  0  0  0  0  0  0  0  0  0
  177.8289   18.1578   45.0102 H   0  0  0  0  0  0  0  0  0  0  0  0
  178.4025   20.8435   47.2964 H   0  0  0  0  0  0  0  0  0  0  0  0
  180.4246   22.2861   47.3134 H   0  0  0  0  0  0  0  0  0  0  0  0
  184.9156   21.9475   42.7398 H   0  0  0  0  0  0  0  0  0  0  0  0
  187.0050   23.2806   42.4403 H   0  0  0  0  0  0  0  0  0  0  0  0
  187.8928   24.6550   44.3259 H   0  0  0  0  0  0  0  0  0  0  0  0
  187.4750   25.5190   46.4560 H   0  0  0  0  0  0  0  0  0  0  0  0
  182.9510   22.4350   49.1880 H   0  0  0  0  0  0  0  0  0  0  0  0
  182.4733   19.4387   44.7990 H   0  0  0  0  0  0  0  0  0  0  0  0
  181.6121   18.4700   43.0370 H   0  0  0  0  0  0  0  0  0  0  0  0
  182.4786   17.4400   44.2203 H   0  0  0  0  0  0  0  0  0  0  0  0
  180.4024   16.5220   42.1578 H   0  0  0  0  0  0  0  0  0  0  0  0
  182.1816   16.1989   42.1337 H   0  0  0  0  0  0  0  0  0  0  0  0
  180.8055   14.2558   42.9496 H   0  0  0  0  0  0  0  0  0  0  0  0
  182.0269   14.8568   44.1386 H   0  0  0  0  0  0  0  0  0  0  0  0
  179.0239   15.4123   44.1300 H   0  0  0  0  0  0  0  0  0  0  0  0
  179.9681   14.4247   45.3176 H   0  0  0  0  0  0  0  0  0  0  0  0
  179.3977   16.7212   46.1685 H   0  0  0  0  0  0  0  0  0  0  0  0
  181.1609   16.4061   46.0927 H   0  0  0  0  0  0  0  0  0  0  0  0
  1  2  1  0
  2  3  1  0
  3  4  2  0
  4  5  1  0
  5  6  2  0
  6  7  1  0
  7  8  1  0
  8  9  1  0
  9 10  2  0
 10 11  1  0
 11 12  2  0
 12 13  1  0
 13 14  1  0
 13 15  2  0
 15 16  1  0
 16 17  2  0
 16 18  1  0
 18 19  1  0
  6 20  1  0
 20 21  2  0
 21 22  1  0
 22 23  1  0
 23 24  1  0
 24 25  1  0
 25 26  1  0
 26 27  1  0
 21  3  1  0
 27 22  1  0
 18  7  2  0
 15  9  1  0
  1 28  1  0
  1 29  1  0
  1 30  1  0
  2 31  1  0
  2 32  1  0
  4 33  1  0
  5 34  1  0
 10 35  1  0
 11 36  1  0
 12 37  1  0
 14 38  1  0
 19 39  1  0
 20 40  1  0
 23 41  1  0
 23 42  1  0
 24 43  1  0
 24 44  1  0
 25 45  1  0
 25 46  1  0
 26 47  1  0
 26 48  1  0
 27 49  1  0
 27 50  1  0
M  END
>  <meeko>  (7) 
{"is_sidechain": [false], "free_energy": -4.836, "intermolecular_energy": -6.834, "internal_energy": 0.094}

$$$$
cand_020_out
     RDKit          3D

 50 53  0  0  0  0  0  0  0  0999 V2000
  177.1970   20.4670   46.2580 C   0  0  0  0  0  0  0  0  0  0  0  0
  178.3580   19.4880   46.3500 C   0  0  0  0  0  0  0  0  0  0  0  0
  179.6980   20.1870   46.2790 C   0  0  0  0  0  0  0  0  0  0  0  0
  179.8650   21.4010   46.9620 C   0  0  0  0  0  0  0  0  0  0  0  0
  181.0770   22.0910   46.9100 C   0  0  0  0  0  0  0  0  0  0  0  0
  182.1510   21.5870   46.1680 C   0  0  0  0  0  0  0  0  0  0  0  0
  183.4380   22.3160   46.1490 C   0  0  0  0  0  0  0  0  0  0  0  0
  183.6570   23.0540   47.3080 O   0  0  0  0  0  0  0  0  0  0  0  0
  184.8140   23.7800   47.4220 C   0  0  0  0  0  0  0  0  0  0  0  0
  184.9980   24.4940   48.6070 C   0  0  0  0  0  0  0  0  0  0  0  0
  186.1550   25.2550   48.7880 C   0  0  0  0  0  0  0  0  0  0  0  0
  187.1260   25.3040   47.7860 C   0  0  0  0  0  0  0  0  0  0  0  0
  186.9390   24.5900   46.6050 C   0  0  0  0  0  0  0  0  0  0  0  0
  187.9280   24.6820   45.6650 O   0  0  0  0  0  0  0  0  0  0  0  0
  185.7820   23.8280   46.4240 C   0  0  0  0  0  0  0  0  0  0  0  0
  185.5460   23.0640   45.1980 C   0  0  0  0  0  0  0  0  0  0  0  0
  186.3510   23.0610   44.2690 O   0  0  0  0  0  0  0  0  0  0  0  0
  184.2910   22.2810   45.1090 C   0  0  0  0  0  0  0  0  0  0  0  0
  184.0750   21.5730   43.9420 O   0  0  0  0  0  0  0  0  0  0  0  0
  181.9830   20.3710   45.4890 C   0  0  0  0  0  0  0  0  0  0  0  0
  180.7650   19.6650   45.5220 C   0  0  0  0  0  0  0  0  0  0  0  0
  180.5920   18.4450   44.8290 N   0  0  0  0  0  0  0  0  0  0  0  0
  181.7140   18.1230   43.9330 C   0  0  0  0  0  0  0  0  0  0  0  0
  181.3240   16.9310   43.0590 C   0  0  0  0  0  0  0  0  0  0  0  0
  180.9050   15.7350   43.9150 C   0  0  0  0  0  0  0  0  0  0  0  0
  179.8140   16.1300   44.9090 C   0  0  0  0  0  0  0  0  0  0  0  0
  180.2300   17.3460   45.7390 C   0  0  0  0  0  0  0  0  0  0  0  0
  176.8693   20.7434   47.2710 H   0  0  0  0  0  0  0  0  0  0  0  0
  177.5202   21.3693   45.7182 H   0  0  0  0  0  0  0  0  0  0  0  0
  176.3622   19.9961   45.7182 H   0  0  0  0  0  0  0  0  0  0  0  0
  178.2905   18.9463   47.3050 H   0  0  0  0  0  0  0  0  0  0  0  0
  178.2892   18.7992   45.4951 H   0  0  0  0  0  0  0  0  0  0  0  0
  179.0297   21.8145   47.5462 H   0  0  0  0  0  0  0  0  0  0  0  0
  181.1889   23.0389   47.4568 H   0  0  0  0  0  0  0  0  0  0  0  0
  184.2333   24.4574   49.3968 H   0  0  0  0  0  0  0  0  0  0  0  0
  186.3016   25.8171   49.7221 H   0  0  0  0  0  0  0  0  0  0  0  0
  188.0362   25.9049   47.9290 H   0  0  0  0  0  0  0  0  0  0  0  0
  187.8350   24.2440   44.8410 H   0  0  0  0  0  0  0  0  0  0  0  0
  183.2530   21.1450   43.7990 H   0  0  0  0  0  0  0  0  0  0  0  0
  182.8256   19.9577   44.9152 H   0  0  0  0  0  0  0  0  0  0  0  0
  181.9379   18.9908   43.2952 H   0  0  0  0  0  0  0  0  0  0  0  0
  182.6054   17.8734   44.5272 H   0  0  0  0  0  0  0  0  0  0  0  0
  180.4841   17.2205   42.4104 H   0  0  0  0  0  0  0  0  0  0  0  0
  182.1962   16.6402   42.4550 H   0  0  0  0  0  0  0  0  0  0  0  0
  180.5231   14.9390   43.2589 H   0  0  0  0  0  0  0  0  0  0  0  0
  181.7816   15.3821   44.4780 H   0  0  0  0  0  0  0  0  0  0  0  0
  178.8952   16.3722   44.3547 H   0  0  0  0  0  0  0  0  0  0  0  0
  179.6456   15.2849   45.5927 H   0  0  0  0  0  0  0  0  0  0  0  0
  179.3930   17.6587   46.3805 H   0  0  0  0  0  0  0  0  0  0  0  0
  181.0920   17.0875   46.3715 H   0  0  0  0  0  0  0  0  0  0  0  0
  1  2  1  0
  2  3  1  0
  3  4  2  0
  4  5  1  0
  5  6  2  0
  6  7  1  0
  7  8  1  0
  8  9  1  0
  9 10  2  0
 10 11  1  0
 11 12  2  0
 12 13  1  0
 13 14  1  0
 13 15  2  0
 15 16  1  0
 16 17  2  0
 16 18  1  0
 18 19  1  0
  6 20  1  0
 20 21  2  0
 21 22  1  0
 22 23  1  0
 23 24  1  0
 24 25  1  0
 25 26  1  0
 26 27  1  0
 21  3  1  0
 27 22  1  0
 18  7  2  0
 15  9  1  0
  1 28  1  0
  1 29  1  0
  1 30  1  0
  2 31  1  0
  2 32  1  0
  4 33  1  0
  5 34  1  0
 10 35  1  0
 11 36  1  0
 12 37  1  0
 14 38  1  0
 19 39  1  0
 20 40  1  0
 23 41  1  0
 23 42  1  0
 24 43  1  0
 24 44  1  0
 25 45  1  0
 25 46  1  0
 26 47  1  0
 26 48  1  0
 27 49  1  0
 27 50  1  0
M  END
>  <meeko>  (8) 
{"is_sidechain": [false], "free_energy": -4.19, "intermolecular_energy": -6.151, "internal_energy": 0.207}

$$$$
cand_020_out
     RDKit          3D

 50 53  0  0  0  0  0  0  0  0999 V2000
  175.1350   20.5470   50.1080 C   0  0  0  0  0  0  0  0  0  0  0  0
  175.0300   20.8020   48.6120 C   0  0  0  0  0  0  0  0  0  0  0  0
  176.1350   20.1140   47.8400 C   0  0  0  0  0  0  0  0  0  0  0  0
  175.8780   18.8620   47.2610 C   0  0  0  0  0  0  0  0  0  0  0  0
  176.8720   18.1820   46.5560 C   0  0  0  0  0  0  0  0  0  0  0  0
  178.1510   18.7330   46.4180 C   0  0  0  0  0  0  0  0  0  0  0  0
  179.1830   18.0120   45.6420 C   0  0  0  0  0  0  0  0  0  0  0  0
  178.8720   16.6710   45.4470 O   0  0  0  0  0  0  0  0  0  0  0  0
  179.7450   15.8840   44.7420 C   0  0  0  0  0  0  0  0  0  0  0  0
  179.3860   14.5480   44.5580 C   0  0  0  0  0  0  0  0  0  0  0  0
  180.2320   13.6900   43.8500 C   0  0  0  0  0  0  0  0  0  0  0  0
  181.4350   14.1680   43.3270 C   0  0  0  0  0  0  0  0  0  0  0  0
  181.7900   15.5010   43.5120 C   0  0  0  0  0  0  0  0  0  0  0  0
  182.9820   15.9030   42.9750 O   0  0  0  0  0  0  0  0  0  0  0  0
  180.9440   16.3590   44.2200 C   0  0  0  0  0  0  0  0  0  0  0  0
  181.2800   17.7670   44.4370 C   0  0  0  0  0  0  0  0  0  0  0  0
  182.3230   18.2590   44.0130 O   0  0  0  0  0  0  0  0  0  0  0  0
  180.3110   18.5940   45.1930 C   0  0  0  0  0  0  0  0  0  0  0  0
  180.6450   19.9190   45.4020 O   0  0  0  0  0  0  0  0  0  0  0  0
  178.4040   19.9870   46.9940 C   0  0  0  0  0  0  0  0  0  0  0  0
  177.4170   20.6840   47.7170 C   0  0  0  0  0  0  0  0  0  0  0  0
  177.6760   21.9430   48.3070 N   0  0  0  0  0  0  0  0  0  0  0  0
  179.0770   22.3710   48.1720 C   0  0  0  0  0  0  0  0  0  0  0  0
  179.3050   23.6060   49.0430 C   0  0  0  0  0  0  0  0  0  0  0  0
  178.3230   24.7200   48.6840 C   0  0  0  0  0  0  0  0  0  0  0  0
  176.8820   24.2150   48.7300 C   0  0  0  0  0  0  0  0  0  0  0  0
  176.7040   22.9600   47.8730 C   0  0  0  0  0  0  0  0  0  0  0  0
  174.7720   21.4286   50.6566 H   0  0  0  0  0  0  0  0  0  0  0  0
  174.5240   19.6720   50.3746 H   0  0  0  0  0  0  0  0  0  0  0  0
  176.1850   20.3559   50.3746 H   0  0  0  0  0  0  0  0  0  0  0  0
  174.0600   20.4257   48.2549 H   0  0  0  0  0  0  0  0  0  0  0  0
  175.1228   21.8853   48.4449 H   0  0  0  0  0  0  0  0  0  0  0  0
  174.8802   18.4107   47.3641 H   0  0  0  0  0  0  0  0  0  0  0  0
  176.6482   17.2041   46.1047 H   0  0  0  0  0  0  0  0  0  0  0  0
  178.4383   14.1707   44.9697 H   0  0  0  0  0  0  0  0  0  0  0  0
  179.9497   12.6368   43.7046 H   0  0  0  0  0  0  0  0  0  0  0  0
  182.1009   13.4925   42.7699 H   0  0  0  0  0  0  0  0  0  0  0  0
  183.2350   16.8050   43.0160 H   0  0  0  0  0  0  0  0  0  0  0  0
  180.3690   20.5740   44.7920 H   0  0  0  0  0  0  0  0  0  0  0  0
  179.4005   20.4380   46.8776 H   0  0  0  0  0  0  0  0  0  0  0  0
  179.7438   21.5600   48.5000 H   0  0  0  0  0  0  0  0  0  0  0  0
  179.2927   22.6122   47.1207 H   0  0  0  0  0  0  0  0  0  0  0  0
  179.1666   23.3315   50.0992 H   0  0  0  0  0  0  0  0  0  0  0  0
  180.3277   23.9721   48.8699 H   0  0  0  0  0  0  0  0  0  0  0  0
  178.4379   25.5459   49.4014 H   0  0  0  0  0  0  0  0  0  0  0  0
  178.5414   25.0641   47.6623 H   0  0  0  0  0  0  0  0  0  0  0  0
  176.6187   23.9779   49.7714 H   0  0  0  0  0  0  0  0  0  0  0  0
  176.2256   25.0028   48.3318 H   0  0  0  0  0  0  0  0  0  0  0  0
  175.6826   22.5707   47.9964 H   0  0  0  0  0  0  0  0  0  0  0  0
  176.8704   23.2059   46.8138 H   0  0  0  0  0  0  0  0  0  0  0  0
  1  2  1  0
  2  3  1  0
  3  4  2  0
  4  5  1  0
  5  6  2  0
  6  7  1  0
  7  8  1  0
  8  9  1  0
  9 10  2  0
 10 11  1  0
 11 12  2  0
 12 13  1  0
 13 14  1  0
 13 15  2  0
 15 16  1  0
 16 17  2  0
 16 18  1  0
 18 19  1  0
  6 20  1  0
 20 21  2  0
 21 22  1  0
 22 23  1  0
 23 24  1  0
 24 25  1  0
 25 26  1  0
 26 27  1  0
 21  3  1  0
 27 22  1  0
 18  7  2  0
 15  9  1  0
  1 28  1  0
  1 29  1  0
  1 30  1  0
  2 31  1  0
  2 32  1  0
  4 33  1  0
  5 34  1  0
 10 35  1  0
 11 36  1  0
 12 37  1  0
 14 38  1  0
 19 39  1  0
 20 40  1  0
 23 41  1  0
 23 42  1  0
 24 43  1  0
 24 44  1  0
 25 45  1  0
 25 46  1  0
 26 47  1  0
 26 48  1  0
 27 49  1  0
 27 50  1  0
M  END
>  <meeko>  (9) 
{"is_sidechain": [false], "free_energy": -4.034, "intermolecular_energy": -6.237, "internal_energy": 0.486}

$$$$
