cand_022_out
     RDKit          3D

 41 43  0  0  0  0  0  0  0  0999 V2000
  175.5640   19.6290   49.1460 C   0  0  0  0  0  0  0  0  0  0  0  0
  175.0060   19.8830   47.7550 C   0  0  0  0  0  0  0  0  0  0  0  0
  175.6580   21.1070   47.1080 C   0  0  0  0  0  0  0  0  0  0  0  0
  177.1670   21.0600   47.2150 C   0  0  0  0  0  0  0  0  0  0  0  0
  177.8560   20.0680   46.4880 C   0  0  0  0  0  0  0  0  0  0  0  0
  179.2510   19.9430   46.5500 C   0  0  0  0  0  0  0  0  0  0  0  0
  179.9770   18.9210   45.7690 C   0  0  0  0  0  0  0  0  0  0  0  0
  179.3510   17.6800   45.7870 O   0  0  0  0  0  0  0  0  0  0  0  0
  179.9210   16.6390   45.1000 C   0  0  0  0  0  0  0  0  0  0  0  0
  179.2660   15.4080   45.1580 C   0  0  0  0  0  0  0  0  0  0  0  0
  179.7920   14.3060   44.4790 C   0  0  0  0  0  0  0  0  0  0  0  0
  180.9710   14.4350   43.7430 C   0  0  0  0  0  0  0  0  0  0  0  0
  181.6220   15.6650   43.6860 C   0  0  0  0  0  0  0  0  0  0  0  0
  182.7720   15.7220   42.9470 O   0  0  0  0  0  0  0  0  0  0  0  0
  181.0960   16.7670   44.3660 C   0  0  0  0  0  0  0  0  0  0  0  0
  181.7490   18.0770   44.3330 C   0  0  0  0  0  0  0  0  0  0  0  0
  182.7860   18.2710   43.7010 O   0  0  0  0  0  0  0  0  0  0  0  0
  181.1140   19.1770   45.0940 C   0  0  0  0  0  0  0  0  0  0  0  0
  181.7330   20.4130   45.0450 O   0  0  0  0  0  0  0  0  0  0  0  0
  179.9620   20.8480   47.3450 C   0  0  0  0  0  0  0  0  0  0  0  0
  179.2940   21.8350   48.0760 C   0  0  0  0  0  0  0  0  0  0  0  0
  177.8970   21.9480   48.0280 C   0  0  0  0  0  0  0  0  0  0  0  0
  177.2270   23.0300   48.8290 C   0  0  0  0  0  0  0  0  0  0  0  0
  174.8349   19.9609   49.8998 H   0  0  0  0  0  0  0  0  0  0  0  0
  175.7584   18.5537   49.2724 H   0  0  0  0  0  0  0  0  0  0  0  0
  176.5026   20.1886   49.2724 H   0  0  0  0  0  0  0  0  0  0  0  0
  175.1970   19.0010   47.1260 H   0  0  0  0  0  0  0  0  0  0  0  0
  173.9260   20.0718   47.8439 H   0  0  0  0  0  0  0  0  0  0  0  0
  175.3769   21.1405   46.0450 H   0  0  0  0  0  0  0  0  0  0  0  0
  175.3046   22.0039   47.6378 H   0  0  0  0  0  0  0  0  0  0  0  0
  177.2839   19.3735   45.8552 H   0  0  0  0  0  0  0  0  0  0  0  0
  178.3367   15.3055   45.7376 H   0  0  0  0  0  0  0  0  0  0  0  0
  179.2763   13.3354   44.5245 H   0  0  0  0  0  0  0  0  0  0  0  0
  181.3851   13.5670   43.2091 H   0  0  0  0  0  0  0  0  0  0  0  0
  183.3790   16.4240   43.0790 H   0  0  0  0  0  0  0  0  0  0  0  0
  181.2370   21.1920   45.2070 H   0  0  0  0  0  0  0  0  0  0  0  0
  181.0589   20.7824   47.3956 H   0  0  0  0  0  0  0  0  0  0  0  0
  179.8729   22.5334   48.6981 H   0  0  0  0  0  0  0  0  0  0  0  0
  177.3545   22.8242   49.9020 H   0  0  0  0  0  0  0  0  0  0  0  0
  177.6818   24.0015   48.5855 H   0  0  0  0  0  0  0  0  0  0  0  0
  176.1546   23.0558   48.5855 H   0  0  0  0  0  0  0  0  0  0  0  0
  1  2  1  0
  2  3  1  0
  3  4  1  0
  4  5  2  0
  5  6  1  0
  6  7  1  0
  7  8  1  0
  8  9  1  0
  9 10  2  0
 10 11  1  0
 11 12  2  0
 12 13  1  0
 13 14  1  0
 13 15  2  0
 15 16  1  0
 16 17  2  0
 16 18  1  0
 18 19  1  0
  6 20  2  0
 20 21  1  0
 21 22  2  0
 22 23  1  0
 22  4  1  0
 18  7  2  0
 15  9  1  0
  1 24  1  0
  1 25  1  0
  1 26  1  0
  2 27  1  0
  2 28  1  0
  3 29  1  0
  3 30  1  0
  5 31  1  0
 10 32  1  0
 11 33  1  0
 12 34  1  0
 14 35  1  0
 19 36  1  0
 20 37  1  0
 21 38  1  0
 23 39  1  0
 23 40  1  0
 23 41  1  0
M  END
>  <meeko>  (1) 
{"is_sidechain": [false], "free_energy": -7.459, "intermolecular_energy": -9.204, "internal_energy": -0.277}

$$$$
cand_022_out
     RDKit          3D

 41 43  0  0  0  0  0  0  0  0999 V2000
  181.1800   15.1400   40.1370 C   0  0  0  0  0  0  0  0  0  0  0  0
  181.1780   16.3570   41.0480 C   0  0  0  0  0  0  0  0  0  0  0  0
  181.9360   16.0810   42.3480 C   0  0  0  0  0  0  0  0  0  0  0  0
  181.0280   16.1740   43.5560 C   0  0  0  0  0  0  0  0  0  0  0  0
  180.8050   17.4440   44.1260 C   0  0  0  0  0  0  0  0  0  0  0  0
  179.9950   17.6140   45.2580 C   0  0  0  0  0  0  0  0  0  0  0  0
  179.7390   18.9470   45.8400 C   0  0  0  0  0  0  0  0  0  0  0  0
  178.3930   19.1710   46.1060 O   0  0  0  0  0  0  0  0  0  0  0  0
  178.0160   20.3720   46.6500 C   0  0  0  0  0  0  0  0  0  0  0  0
  176.6530   20.5600   46.8870 C   0  0  0  0  0  0  0  0  0  0  0  0
  176.2010   21.7600   47.4410 C   0  0  0  0  0  0  0  0  0  0  0  0
  177.1100   22.7710   47.7580 C   0  0  0  0  0  0  0  0  0  0  0  0
  178.4690   22.5810   47.5220 C   0  0  0  0  0  0  0  0  0  0  0  0
  179.3050   23.6110   47.8560 O   0  0  0  0  0  0  0  0  0  0  0  0
  178.9210   21.3800   46.9660 C   0  0  0  0  0  0  0  0  0  0  0  0
  180.3410   21.1400   46.7010 C   0  0  0  0  0  0  0  0  0  0  0  0
  181.2020   21.9780   46.9600 O   0  0  0  0  0  0  0  0  0  0  0  0
  180.7140   19.8370   46.1040 C   0  0  0  0  0  0  0  0  0  0  0  0
  182.0590   19.6160   45.8700 O   0  0  0  0  0  0  0  0  0  0  0  0
  179.3880   16.4820   45.8120 C   0  0  0  0  0  0  0  0  0  0  0  0
  179.6020   15.2150   45.2630 C   0  0  0  0  0  0  0  0  0  0  0  0
  180.4260   15.0430   44.1410 C   0  0  0  0  0  0  0  0  0  0  0  0
  180.6200   13.6600   43.5850 C   0  0  0  0  0  0  0  0  0  0  0  0
  181.1815   14.2250   40.7475 H   0  0  0  0  0  0  0  0  0  0  0  0
  180.2818   15.1557   39.5021 H   0  0  0  0  0  0  0  0  0  0  0  0
  182.0781   15.1587   39.5021 H   0  0  0  0  0  0  0  0  0  0  0  0
  181.6585   17.1968   40.5247 H   0  0  0  0  0  0  0  0  0  0  0  0
  180.1351   16.5999   41.2997 H   0  0  0  0  0  0  0  0  0  0  0  0
  182.3659   15.0695   42.3022 H   0  0  0  0  0  0  0  0  0  0  0  0
  182.7251   16.8402   42.4528 H   0  0  0  0  0  0  0  0  0  0  0  0
  181.2793   18.3257   43.6703 H   0  0  0  0  0  0  0  0  0  0  0  0
  175.9359   19.7640   46.6377 H   0  0  0  0  0  0  0  0  0  0  0  0
  175.1272   21.9086   47.6278 H   0  0  0  0  0  0  0  0  0  0  0  0
  176.7532   23.7160   48.1934 H   0  0  0  0  0  0  0  0  0  0  0  0
  179.7130   24.1200   47.1830 H   0  0  0  0  0  0  0  0  0  0  0  0
  182.6200   20.3330   45.6470 H   0  0  0  0  0  0  0  0  0  0  0  0
  178.7345   16.5905   46.6902 H   0  0  0  0  0  0  0  0  0  0  0  0
  179.1167   14.3388   45.7178 H   0  0  0  0  0  0  0  0  0  0  0  0
  180.7206   12.9428   44.4129 H   0  0  0  0  0  0  0  0  0  0  0  0
  179.7512   13.3878   42.9676 H   0  0  0  0  0  0  0  0  0  0  0  0
  181.5301   13.6374   42.9676 H   0  0  0  0  0  0  0  0  0  0  0  0
  1  2  1  0
  2  3  1  0
  3  4  1  0
  4  5  2  0
  5  6  1  0
  6  7  1  0
  7  8  1  0
  8  9  1  0
  9 10  2  0
 10 11  1  0
 11 12  2  0
 12 13  1  0
 13 14  1  0
 13 15  2  0
 15 16  1  0
 16 17  2  0
 16 18  1  0
 18 19  1  0
  6 20  2  0
 20 21  1  0
 21 22  2  0
 22 23  1  0
 22  4  1  0
 18  7  2  0
 15  9  1  0
  1 24  1  0
  1 25  1  0
  1 26  1  0
  2 27  1  0
  2 28  1  0
  3 29  1  0
  3 30  1  0
  5 31  1  0
 10 32  1  0
 11 33  1  0
 12 34  1  0
 14 35  1  0
 19 36  1  0
 20 37  1  0
 21 38  1  0
 23 39  1  0
 23 40  1  0
 23 41  1  0
M  END
>  <meeko>  (2) 
{"is_sidechain": [false], "free_energy": -7.424, "intermolecular_energy": -9.028, "internal_energy": -0.408}

$$$$
cand_022_out
     RDKit          3D

 41 43  0  0  0  0  0  0  0  0999 V2000
  178.0230   24.0510   47.2930 C   0  0  0  0  0  0  0  0  0  0  0  0
  178.8960   23.2610   48.2540 C   0  0  0  0  0  0  0  0  0  0  0  0
  178.0810   22.2110   49.0130 C   0  0  0  0  0  0  0  0  0  0  0  0
  177.5840   21.1160   48.0940 C   0  0  0  0  0  0  0  0  0  0  0  0
  178.5370   20.3580   47.3850 C   0  0  0  0  0  0  0  0  0  0  0  0
  178.1590   19.3400   46.4980 C   0  0  0  0  0  0  0  0  0  0  0  0
  179.1580   18.5270   45.7740 C   0  0  0  0  0  0  0  0  0  0  0  0
  178.8290   17.1770   45.7340 O   0  0  0  0  0  0  0  0  0  0  0  0
  179.6720   16.3070   45.0910 C   0  0  0  0  0  0  0  0  0  0  0  0
  179.3100   14.9590   45.0880 C   0  0  0  0  0  0  0  0  0  0  0  0
  180.1240   14.0210   44.4500 C   0  0  0  0  0  0  0  0  0  0  0  0
  181.2980   14.4290   43.8140 C   0  0  0  0  0  0  0  0  0  0  0  0
  181.6560   15.7750   43.8180 C   0  0  0  0  0  0  0  0  0  0  0  0
  182.8180   16.1070   43.1760 O   0  0  0  0  0  0  0  0  0  0  0  0
  180.8420   16.7140   44.4580 C   0  0  0  0  0  0  0  0  0  0  0  0
  181.1830   18.1370   44.4850 C   0  0  0  0  0  0  0  0  0  0  0  0
  182.1950   18.5740   43.9420 O   0  0  0  0  0  0  0  0  0  0  0  0
  180.2570   19.0480   45.1970 C   0  0  0  0  0  0  0  0  0  0  0  0
  180.5810   20.3920   45.2050 O   0  0  0  0  0  0  0  0  0  0  0  0
  176.7950   19.0740   46.3390 C   0  0  0  0  0  0  0  0  0  0  0  0
  175.8370   19.8190   47.0310 C   0  0  0  0  0  0  0  0  0  0  0  0
  176.2150   20.8500   47.9040 C   0  0  0  0  0  0  0  0  0  0  0  0
  175.1440   21.6190   48.6290 C   0  0  0  0  0  0  0  0  0  0  0  0
  177.3261   24.6816   47.8646 H   0  0  0  0  0  0  0  0  0  0  0  0
  178.6581   24.6875   46.6594 H   0  0  0  0  0  0  0  0  0  0  0  0
  177.4529   23.3556   46.6594 H   0  0  0  0  0  0  0  0  0  0  0  0
  179.6892   22.7552   47.6839 H   0  0  0  0  0  0  0  0  0  0  0  0
  179.3270   23.9604   48.9855 H   0  0  0  0  0  0  0  0  0  0  0  0
  178.7151   21.7622   49.7918 H   0  0  0  0  0  0  0  0  0  0  0  0
  177.2064   22.7102   49.4557 H   0  0  0  0  0  0  0  0  0  0  0  0
  179.6063   20.5706   47.5313 H   0  0  0  0  0  0  0  0  0  0  0  0
  178.3847   14.6361   45.5876 H   0  0  0  0  0  0  0  0  0  0  0  0
  179.8397   12.9584   44.4485 H   0  0  0  0  0  0  0  0  0  0  0  0
  181.9385   13.6895   43.3111 H   0  0  0  0  0  0  0  0  0  0  0  0
  182.7950   16.3900   42.2830 H   0  0  0  0  0  0  0  0  0  0  0  0
  180.9480   20.7810   45.9750 H   0  0  0  0  0  0  0  0  0  0  0  0
  176.4731   18.2693   45.6616 H   0  0  0  0  0  0  0  0  0  0  0  0
  174.7697   19.5937   46.8891 H   0  0  0  0  0  0  0  0  0  0  0  0
  175.2889   21.5149   49.7144 H   0  0  0  0  0  0  0  0  0  0  0  0
  175.2039   22.6817   48.3513 H   0  0  0  0  0  0  0  0  0  0  0  0
  174.1562   21.2226   48.3513 H   0  0  0  0  0  0  0  0  0  0  0  0
  1  2  1  0
  2  3  1  0
  3  4  1  0
  4  5  2  0
  5  6  1  0
  6  7  1  0
  7  8  1  0
  8  9  1  0
  9 10  2  0
 10 11  1  0
 11 12  2  0
 12 13  1  0
 13 14  1  0
 13 15  2  0
 15 16  1  0
 16 17  2  0
 16 18  1  0
 18 19  1  0
  6 20  2  0
 20 21  1  0
 21 22  2  0
 22 23  1  0
 22  4  1  0
 18  7  2  0
 15  9  1  0
  1 24  1  0
  1 25  1  0
  1 26  1  0
  2 27  1  0
  2 28  1  0
  3 29  1  0
  3 30  1  0
  5 31  1  0
 10 32  1  0
 11 33  1  0
 12 34  1  0
 14 35  1  0
 19 36  1  0
 20 37  1  0
 21 38  1  0
 23 39  1  0
 23 40  1  0
 23 41  1  0
M  END
>  <meeko>  (3) 
{"is_sidechain": [false], "free_energy": -6.536, "intermolecular_energy": -7.91, "internal_energy": -0.431}

$$$$
cand_022_out
     RDKit          3D

 41 43  0  0  0  0  0  0  0  0999 V2000
  180.1490   14.0130   43.7790 C   0  0  0  0  0  0  0  0  0  0  0  0
  180.6490   15.0410   44.7820 C   0  0  0  0  0  0  0  0  0  0  0  0
  179.5460   16.0300   45.1630 C   0  0  0  0  0  0  0  0  0  0  0  0
  180.0570   17.4540   45.1960 C   0  0  0  0  0  0  0  0  0  0  0  0
  179.3740   18.3900   46.0000 C   0  0  0  0  0  0  0  0  0  0  0  0
  179.7710   19.7330   46.0690 C   0  0  0  0  0  0  0  0  0  0  0  0
  179.0730   20.7080   46.9310 C   0  0  0  0  0  0  0  0  0  0  0  0
  177.7000   20.4970   46.9850 O   0  0  0  0  0  0  0  0  0  0  0  0
  176.9300   21.3330   47.7520 C   0  0  0  0  0  0  0  0  0  0  0  0
  175.5550   21.0930   47.7660 C   0  0  0  0  0  0  0  0  0  0  0  0
  174.7130   21.9070   48.5270 C   0  0  0  0  0  0  0  0  0  0  0  0
  175.2460   22.9590   49.2760 C   0  0  0  0  0  0  0  0  0  0  0  0
  176.6180   23.1960   49.2610 C   0  0  0  0  0  0  0  0  0  0  0  0
  177.0730   24.2410   50.0160 O   0  0  0  0  0  0  0  0  0  0  0  0
  177.4600   22.3810   48.4970 C   0  0  0  0  0  0  0  0  0  0  0  0
  178.9070   22.5960   48.4540 C   0  0  0  0  0  0  0  0  0  0  0  0
  179.4510   23.4970   49.0910 O   0  0  0  0  0  0  0  0  0  0  0  0
  179.7090   21.6830   47.6080 C   0  0  0  0  0  0  0  0  0  0  0  0
  181.0770   21.8860   47.5850 O   0  0  0  0  0  0  0  0  0  0  0  0
  180.8860   20.1320   45.3250 C   0  0  0  0  0  0  0  0  0  0  0  0
  181.5720   19.2190   44.5190 C   0  0  0  0  0  0  0  0  0  0  0  0
  181.1640   17.8790   44.4370 C   0  0  0  0  0  0  0  0  0  0  0  0
  181.9390   16.9360   43.5590 C   0  0  0  0  0  0  0  0  0  0  0  0
  179.7293   13.1501   44.3167 H   0  0  0  0  0  0  0  0  0  0  0  0
  179.3704   14.4655   43.1474 H   0  0  0  0  0  0  0  0  0  0  0  0
  180.9857   13.6799   43.1474 H   0  0  0  0  0  0  0  0  0  0  0  0
  180.9914   14.5200   45.6882 H   0  0  0  0  0  0  0  0  0  0  0  0
  181.4741   15.6030   44.3202 H   0  0  0  0  0  0  0  0  0  0  0  0
  178.7338   15.9599   44.4244 H   0  0  0  0  0  0  0  0  0  0  0  0
  179.1869   15.7715   46.1701 H   0  0  0  0  0  0  0  0  0  0  0  0
  178.5064   18.0575   46.5888 H   0  0  0  0  0  0  0  0  0  0  0  0
  175.1350   20.2635   47.1782 H   0  0  0  0  0  0  0  0  0  0  0  0
  173.6291   21.7196   48.5366 H   0  0  0  0  0  0  0  0  0  0  0  0
  174.5829   23.5990   49.8766 H   0  0  0  0  0  0  0  0  0  0  0  0
  177.8860   24.6550   49.8010 H   0  0  0  0  0  0  0  0  0  0  0  0
  181.5970   21.6580   48.3300 H   0  0  0  0  0  0  0  0  0  0  0  0
  181.2271   21.1766   45.3747 H   0  0  0  0  0  0  0  0  0  0  0  0
  182.4447   19.5560   43.9404 H   0  0  0  0  0  0  0  0  0  0  0  0
  182.5125   16.2382   44.1868 H   0  0  0  0  0  0  0  0  0  0  0  0
  181.2419   16.3697   42.9239 H   0  0  0  0  0  0  0  0  0  0  0  0
  182.6296   17.5102   42.9239 H   0  0  0  0  0  0  0  0  0  0  0  0
  1  2  1  0
  2  3  1  0
  3  4  1  0
  4  5  2  0
  5  6  1  0
  6  7  1  0
  7  8  1  0
  8  9  1  0
  9 10  2  0
 10 11  1  0
 11 12  2  0
 12 13  1  0
 13 14  1  0
 13 15  2  0
 15 16  1  0
 16 17  2  0
 16 18  1  0
 18 19  1  0
  6 20  2  0
 20 21  1  0
 21 22  2  0
 22 23  1  0
 22  4  1  0
 18  7  2  0
 15  9  1  0
  1 24  1  0
  1 25  1  0
  1 26  1  0
  2 27  1  0
  2 28  1  0
  3 29  1  0
  3 30  1  0
  5 31  1  0
 10 32  1  0
 11 33  1  0
 12 34  1  0
 14 35  1  0
 19 36  1  0
 20 37  1  0
 21 38  1  0
 23 39  1  0
 23 40  1  0
 23 41  1  0
M  END
>  <meeko>  (4) 
{"is_sidechain": [false], "free_energy": -6.535, "intermolecular_energy": -9.508, "internal_energy": 1.169}

$$$$
cand_022_out
     RDKit          3D

 41 43  0  0  0  0  0  0  0  0999 V2000
  180.6120   14.1710   43.0250 C   0  0  0  0  0  0  0  0  0  0  0  0
  179.6200   14.9720   43.8540 C   0  0  0  0  0  0  0  0  0  0  0  0
  180.2880   15.5810   45.0880 C   0  0  0  0  0  0  0  0  0  0  0  0
  180.2330   17.0930   45.0650 C   0  0  0  0  0  0  0  0  0  0  0  0
  179.1910   17.7340   45.7670 C   0  0  0  0  0  0  0  0  0  0  0  0
  179.0570   19.1290   45.7780 C   0  0  0  0  0  0  0  0  0  0  0  0
  177.9820   19.8030   46.5340 C   0  0  0  0  0  0  0  0  0  0  0  0
  178.3650   21.0430   47.0310 O   0  0  0  0  0  0  0  0  0  0  0  0
  177.4590   21.7770   47.7540 C   0  0  0  0  0  0  0  0  0  0  0  0
  177.8920   23.0100   48.2450 C   0  0  0  0  0  0  0  0  0  0  0  0
  177.0190   23.8080   48.9880 C   0  0  0  0  0  0  0  0  0  0  0  0
  175.7150   23.3750   49.2390 C   0  0  0  0  0  0  0  0  0  0  0  0
  175.2870   22.1450   48.7460 C   0  0  0  0  0  0  0  0  0  0  0  0
  173.9980   21.7820   49.0270 O   0  0  0  0  0  0  0  0  0  0  0  0
  176.1610   21.3460   48.0030 C   0  0  0  0  0  0  0  0  0  0  0  0
  175.7500   20.0460   47.4680 C   0  0  0  0  0  0  0  0  0  0  0  0
  174.6180   19.6010   47.6410 O   0  0  0  0  0  0  0  0  0  0  0  0
  176.7550   19.2750   46.7020 C   0  0  0  0  0  0  0  0  0  0  0  0
  176.3520   18.0550   46.1900 O   0  0  0  0  0  0  0  0  0  0  0  0
  180.0030   19.8900   45.0820 C   0  0  0  0  0  0  0  0  0  0  0  0
  181.0390   19.2720   44.3780 C   0  0  0  0  0  0  0  0  0  0  0  0
  181.1630   17.8750   44.3520 C   0  0  0  0  0  0  0  0  0  0  0  0
  182.2990   17.2590   43.5830 C   0  0  0  0  0  0  0  0  0  0  0  0
  181.2910   13.6227   43.6946 H   0  0  0  0  0  0  0  0  0  0  0  0
  180.0670   13.4567   42.3904 H   0  0  0  0  0  0  0  0  0  0  0  0
  181.1955   14.8542   42.3904 H   0  0  0  0  0  0  0  0  0  0  0  0
  179.2070   15.7816   43.2343 H   0  0  0  0  0  0  0  0  0  0  0  0
  178.8227   14.2933   44.1912 H   0  0  0  0  0  0  0  0  0  0  0  0
  179.7705   15.2191   45.9887 H   0  0  0  0  0  0  0  0  0  0  0  0
  181.3449   15.2762   45.0915 H   0  0  0  0  0  0  0  0  0  0  0  0
  178.4637   17.1223   46.3209 H   0  0  0  0  0  0  0  0  0  0  0  0
  178.9185   23.3524   48.0472 H   0  0  0  0  0  0  0  0  0  0  0  0
  177.3591   24.7794   49.3762 H   0  0  0  0  0  0  0  0  0  0  0  0
  175.0281   24.0038   49.8244 H   0  0  0  0  0  0  0  0  0  0  0  0
  173.8300   21.0710   49.6140 H   0  0  0  0  0  0  0  0  0  0  0  0
  176.9150   17.3080   46.2590 H   0  0  0  0  0  0  0  0  0  0  0  0
  179.9298   20.9875   45.0895 H   0  0  0  0  0  0  0  0  0  0  0  0
  181.7691   19.8905   43.8354 H   0  0  0  0  0  0  0  0  0  0  0  0
  183.0422   16.8560   44.2867 H   0  0  0  0  0  0  0  0  0  0  0  0
  181.9148   16.4457   42.9499 H   0  0  0  0  0  0  0  0  0  0  0  0
  182.7710   18.0247   42.9499 H   0  0  0  0  0  0  0  0  0  0  0  0
  1  2  1  0
  2  3  1  0
  3  4  1  0
  4  5  2  0
  5  6  1  0
  6  7  1  0
  7  8  1  0
  8  9  1  0
  9 10  2  0
 10 11  1  0
 11 12  2  0
 12 13  1  0
 13 14  1  0
 13 15  2  0
 15 16  1  0
 16 17  2  0
 16 18  1  0
 18 19  1  0
  6 20  2  0
 20 21  1  0
 21 22  2  0
 22 23  1  0
 22  4  1  0
 18  7  2  0
 15  9  1  0
  1 24  1  0
  1 25  1  0
  1 26  1  0
  2 27  1  0
  2 28  1  0
  3 29  1  0
  3 30  1  0
  5 31  1  0
 10 32  1  0
 11 33  1  0
 12 34  1  0
 14 35  1  0
 19 36  1  0
 20 37  1  0
 21 38  1  0
 23 39  1  0
 23 40  1  0
 23 41  1  0
M  END
>  <meeko>  (5) 
{"is_sidechain": [false], "free_energy": -6.147, "intermolecular_energy": -7.748, "internal_energy": -0.113}

$$$$
cand_022_out
     RDKit          3D

 41 43  0  0  0  0  0  0  0  0999 V2000
  175.5430   18.4510   46.9890 C   0  0  0  0  0  0  0  0  0  0  0  0
  176.3770   19.5720   46.3900 C   0  0  0  0  0  0  0  0  0  0  0  0
  177.4870   20.0140   47.3460 C   0  0  0  0  0  0  0  0  0  0  0  0
  178.8580   19.8380   46.7310 C   0  0  0  0  0  0  0  0  0  0  0  0
  179.0600   18.7570   45.8480 C   0  0  0  0  0  0  0  0  0  0  0  0
  180.3050   18.5110   45.2540 C   0  0  0  0  0  0  0  0  0  0  0  0
  180.5110   17.3960   44.3080 C   0  0  0  0  0  0  0  0  0  0  0  0
  180.8250   17.8260   43.0240 O   0  0  0  0  0  0  0  0  0  0  0  0
  181.0420   16.8900   42.0450 C   0  0  0  0  0  0  0  0  0  0  0  0
  181.3400   17.3680   40.7670 C   0  0  0  0  0  0  0  0  0  0  0  0
  181.5730   16.4680   39.7250 C   0  0  0  0  0  0  0  0  0  0  0  0
  181.5100   15.0930   39.9590 C   0  0  0  0  0  0  0  0  0  0  0  0
  181.2130   14.6200   41.2340 C   0  0  0  0  0  0  0  0  0  0  0  0
  181.1670   13.2620   41.3950 O   0  0  0  0  0  0  0  0  0  0  0  0
  180.9780   15.5210   42.2770 C   0  0  0  0  0  0  0  0  0  0  0  0
  180.6630   15.0650   43.6330 C   0  0  0  0  0  0  0  0  0  0  0  0
  180.5960   13.8710   43.9180 O   0  0  0  0  0  0  0  0  0  0  0  0
  180.4240   16.1000   44.6640 C   0  0  0  0  0  0  0  0  0  0  0  0
  180.1390   15.6580   45.9430 O   0  0  0  0  0  0  0  0  0  0  0  0
  181.3600   19.3830   45.5440 C   0  0  0  0  0  0  0  0  0  0  0  0
  181.1800   20.4560   46.4210 C   0  0  0  0  0  0  0  0  0  0  0  0
  179.9380   20.6910   47.0290 C   0  0  0  0  0  0  0  0  0  0  0  0
  179.7950   21.8630   47.9610 C   0  0  0  0  0  0  0  0  0  0  0  0
  175.5858   18.5085   48.0867 H   0  0  0  0  0  0  0  0  0  0  0  0
  174.4993   18.5528   46.6569 H   0  0  0  0  0  0  0  0  0  0  0  0
  175.9405   17.4806   46.6569 H   0  0  0  0  0  0  0  0  0  0  0  0
  176.8316   19.2184   45.4528 H   0  0  0  0  0  0  0  0  0  0  0  0
  175.7176   20.4325   46.2036 H   0  0  0  0  0  0  0  0  0  0  0  0
  177.3415   21.0756   47.5948 H   0  0  0  0  0  0  0  0  0  0  0  0
  177.4327   19.3868   48.2480 H   0  0  0  0  0  0  0  0  0  0  0  0
  178.2169   18.0885   45.6193 H   0  0  0  0  0  0  0  0  0  0  0  0
  181.3910   18.4511   40.5816 H   0  0  0  0  0  0  0  0  0  0  0  0
  181.8067   16.8432   38.7177 H   0  0  0  0  0  0  0  0  0  0  0  0
  181.6947   14.3850   39.1376 H   0  0  0  0  0  0  0  0  0  0  0  0
  181.6230   12.8590   42.1080 H   0  0  0  0  0  0  0  0  0  0  0  0
  180.8060   15.6700   46.6020 H   0  0  0  0  0  0  0  0  0  0  0  0
  182.3425   19.2221   45.0763 H   0  0  0  0  0  0  0  0  0  0  0  0
  182.0248   21.1263   46.6377 H   0  0  0  0  0  0  0  0  0  0  0  0
  179.8380   21.5108   49.0022 H   0  0  0  0  0  0  0  0  0  0  0  0
  180.6128   22.5764   47.7812 H   0  0  0  0  0  0  0  0  0  0  0  0
  178.8297   22.3588   47.7812 H   0  0  0  0  0  0  0  0  0  0  0  0
  1  2  1  0
  2  3  1  0
  3  4  1  0
  4  5  2  0
  5  6  1  0
  6  7  1  0
  7  8  1  0
  8  9  1  0
  9 10  2  0
 10 11  1  0
 11 12  2  0
 12 13  1  0
 13 14  1  0
 13 15  2  0
 15 16  1  0
 16 17  2  0
 16 18  1  0
 18 19  1  0
  6 20  2  0
 20 21  1  0
 21 22  2  0
 22 23  1  0
 22  4  1  0
 18  7  2  0
 15  9  1  0
  1 24  1  0
  1 25  1  0
  1 26  1  0
  2 27  1  0
  2 28  1  0
  3 29  1  0
  3 30  1  0
  5 31  1  0
 10 32  1  0
 11 33  1  0
 12 34  1  0
 14 35  1  0
 19 36  1  0
 20 37  1  0
 21 38  1  0
 23 39  1  0
 23 40  1  0
 23 41  1  0
M  END
>  <meeko>  (6) 
{"is_sidechain": [false], "free_energy": -5.861, "intermolecular_energy": -6.988, "internal_energy": -0.52}

$$$$
cand_022_out
     RDKit          3D

 41 43  0  0  0  0  0  0  0  0999 V2000
  178.2600   23.7710   47.5480 C   0  0  0  0  0  0  0  0  0  0  0  0
  178.2250   22.2880   47.2150 C   0  0  0  0  0  0  0  0  0  0  0  0
  179.3160   21.5220   47.9650 C   0  0  0  0  0  0  0  0  0  0  0  0
  180.4820   21.1800   47.0620 C   0  0  0  0  0  0  0  0  0  0  0  0
  181.5720   22.0720   47.0150 C   0  0  0  0  0  0  0  0  0  0  0  0
  182.6810   21.8390   46.1890 C   0  0  0  0  0  0  0  0  0  0  0  0
  183.8370   22.7590   46.1580 C   0  0  0  0  0  0  0  0  0  0  0  0
  184.0560   23.3930   47.3760 O   0  0  0  0  0  0  0  0  0  0  0  0
  185.1000   24.2750   47.4860 C   0  0  0  0  0  0  0  0  0  0  0  0
  185.2740   24.9000   48.7220 C   0  0  0  0  0  0  0  0  0  0  0  0
  186.3190   25.8090   48.9030 C   0  0  0  0  0  0  0  0  0  0  0  0
  187.1900   26.0920   47.8490 C   0  0  0  0  0  0  0  0  0  0  0  0
  187.0150   25.4670   46.6170 C   0  0  0  0  0  0  0  0  0  0  0  0
  187.9030   25.7900   45.6280 O   0  0  0  0  0  0  0  0  0  0  0  0
  185.9670   24.5580   46.4370 C   0  0  0  0  0  0  0  0  0  0  0  0
  185.7480   23.8800   45.1570 C   0  0  0  0  0  0  0  0  0  0  0  0
  186.4760   24.0720   44.1860 O   0  0  0  0  0  0  0  0  0  0  0  0
  184.6060   22.9420   45.0690 C   0  0  0  0  0  0  0  0  0  0  0  0
  184.4160   22.2970   43.8600 O   0  0  0  0  0  0  0  0  0  0  0  0
  182.6940   20.6770   45.4110 C   0  0  0  0  0  0  0  0  0  0  0  0
  181.6190   19.7840   45.4420 C   0  0  0  0  0  0  0  0  0  0  0  0
  180.5020   20.0260   46.2550 C   0  0  0  0  0  0  0  0  0  0  0  0
  179.3740   19.0320   46.2560 C   0  0  0  0  0  0  0  0  0  0  0  0
  178.2631   23.9016   48.6402 H   0  0  0  0  0  0  0  0  0  0  0  0
  179.1690   24.2210   47.1224 H   0  0  0  0  0  0  0  0  0  0  0  0
  177.3732   24.2634   47.1224 H   0  0  0  0  0  0  0  0  0  0  0  0
  177.2430   21.8808   47.4976 H   0  0  0  0  0  0  0  0  0  0  0  0
  178.3998   22.1713   46.1353 H   0  0  0  0  0  0  0  0  0  0  0  0
  179.6797   22.1429   48.7970 H   0  0  0  0  0  0  0  0  0  0  0  0
  178.8818   20.5816   48.3352 H   0  0  0  0  0  0  0  0  0  0  0  0
  181.5524   22.9750   47.6429 H   0  0  0  0  0  0  0  0  0  0  0  0
  184.5886   24.6768   49.5529 H   0  0  0  0  0  0  0  0  0  0  0  0
  186.4559   26.3023   49.8766 H   0  0  0  0  0  0  0  0  0  0  0  0
  188.0132   26.8076   47.9917 H   0  0  0  0  0  0  0  0  0  0  0  0
  187.8590   26.6300   45.2160 H   0  0  0  0  0  0  0  0  0  0  0  0
  185.1550   22.0260   43.3520 H   0  0  0  0  0  0  0  0  0  0  0  0
  183.5600   20.4633   44.7673 H   0  0  0  0  0  0  0  0  0  0  0  0
  181.6496   18.8777   44.8193 H   0  0  0  0  0  0  0  0  0  0  0  0
  179.0994   18.7900   47.2933 H   0  0  0  0  0  0  0  0  0  0  0  0
  178.5048   19.4632   45.7377 H   0  0  0  0  0  0  0  0  0  0  0  0
  179.6924   18.1155   45.7377 H   0  0  0  0  0  0  0  0  0  0  0  0
  1  2  1  0
  2  3  1  0
  3  4  1  0
  4  5  2  0
  5  6  1  0
  6  7  1  0
  7  8  1  0
  8  9  1  0
  9 10  2  0
 10 11  1  0
 11 12  2  0
 12 13  1  0
 13 14  1  0
 13 15  2  0
 15 16  1  0
 16 17  2  0
 16 18  1  0
 18 19  1  0
  6 20  2  0
 20 21  1  0
 21 22  2  0
 22 23  1  0
 22  4  1  0
 18  7  2  0
 15  9  1  0
  1 24  1  0
  1 25  1  0
  1 26  1  0
  2 27  1  0
  2 28  1  0
  3 29  1  0
  3 30  1  0
  5 31  1  0
 10 32  1  0
 11 33  1  0
 12 34  1  0
 14 35  1  0
 19 36  1  0
 20 37  1  0
 21 38  1  0
 23 39  1  0
 23 40  1  0
 23 41  1  0
M  END
>  <meeko>  (7) 
{"is_sidechain": [false], "free_energy": -5.542, "intermolecular_energy": -7.01, "internal_energy": -0.105}

$$$$
cand_022_out
     RDKit          3D

 41 43  0  0  0  0  0  0  0  0999 V2000
  187.5360   21.0790   41.7570 C   0  0  0  0  0  0  0  0  0  0  0  0
  186.9270   21.3250   43.1280 C   0  0  0  0  0  0  0  0  0  0  0  0
  186.1040   22.6150   43.1490 C   0  0  0  0  0  0  0  0  0  0  0  0
  185.3890   22.8010   44.4700 C   0  0  0  0  0  0  0  0  0  0  0  0
  184.1530   22.1480   44.6570 C   0  0  0  0  0  0  0  0  0  0  0  0
  183.4170   22.2850   45.8420 C   0  0  0  0  0  0  0  0  0  0  0  0
  182.1360   21.5800   46.0500 C   0  0  0  0  0  0  0  0  0  0  0  0
  181.2330   22.3140   46.8100 O   0  0  0  0  0  0  0  0  0  0  0  0
  180.0000   21.7750   47.0790 C   0  0  0  0  0  0  0  0  0  0  0  0
  179.1300   22.5400   47.8580 C   0  0  0  0  0  0  0  0  0  0  0  0
  177.8600   22.0510   48.1680 C   0  0  0  0  0  0  0  0  0  0  0  0
  177.4580   20.7980   47.6990 C   0  0  0  0  0  0  0  0  0  0  0  0
  178.3280   20.0370   46.9220 C   0  0  0  0  0  0  0  0  0  0  0  0
  177.8710   18.8210   46.4950 O   0  0  0  0  0  0  0  0  0  0  0  0
  179.6000   20.5270   46.6130 C   0  0  0  0  0  0  0  0  0  0  0  0
  180.5450   19.7590   45.7990 C   0  0  0  0  0  0  0  0  0  0  0  0
  180.2610   18.6530   45.3440 O   0  0  0  0  0  0  0  0  0  0  0  0
  181.8700   20.3650   45.5360 C   0  0  0  0  0  0  0  0  0  0  0  0
  182.7490   19.6370   44.7550 O   0  0  0  0  0  0  0  0  0  0  0  0
  183.9480   23.0830   46.8610 C   0  0  0  0  0  0  0  0  0  0  0  0
  185.1690   23.7420   46.6910 C   0  0  0  0  0  0  0  0  0  0  0  0
  185.8960   23.6180   45.4980 C   0  0  0  0  0  0  0  0  0  0  0  0
  187.2070   24.3430   45.3670 C   0  0  0  0  0  0  0  0  0  0  0  0
  188.5501   20.6694   41.8744 H   0  0  0  0  0  0  0  0  0  0  0  0
  186.9129   20.3621   41.2023 H   0  0  0  0  0  0  0  0  0  0  0  0
  187.5857   22.0276   41.2023 H   0  0  0  0  0  0  0  0  0  0  0  0
  186.2733   20.4789   43.3865 H   0  0  0  0  0  0  0  0  0  0  0  0
  187.7442   21.4233   43.8577 H   0  0  0  0  0  0  0  0  0  0  0  0
  186.7765   23.4697   42.9841 H   0  0  0  0  0  0  0  0  0  0  0  0
  185.3459   22.5512   42.3546 H   0  0  0  0  0  0  0  0  0  0  0  0
  183.7557   21.5138   43.8508 H   0  0  0  0  0  0  0  0  0  0  0  0
  179.4451   23.5272   48.2271 H   0  0  0  0  0  0  0  0  0  0  0  0
  177.1746   22.6532   48.7825 H   0  0  0  0  0  0  0  0  0  0  0  0
  176.4567   20.4133   47.9428 H   0  0  0  0  0  0  0  0  0  0  0  0
  177.3440   18.2930   47.0620 H   0  0  0  0  0  0  0  0  0  0  0  0
  182.4250   18.9740   44.1780 H   0  0  0  0  0  0  0  0  0  0  0  0
  183.3981   23.1932   47.8073 H   0  0  0  0  0  0  0  0  0  0  0  0
  185.5655   24.3670   47.5048 H   0  0  0  0  0  0  0  0  0  0  0  0
  187.6057   24.5635   46.3682 H   0  0  0  0  0  0  0  0  0  0  0  0
  187.9218   23.7119   44.8185 H   0  0  0  0  0  0  0  0  0  0  0  0
  187.0525   25.2839   44.8185 H   0  0  0  0  0  0  0  0  0  0  0  0
  1  2  1  0
  2  3  1  0
  3  4  1  0
  4  5  2  0
  5  6  1  0
  6  7  1  0
  7  8  1  0
  8  9  1  0
  9 10  2  0
 10 11  1  0
 11 12  2  0
 12 13  1  0
 13 14  1  0
 13 15  2  0
 15 16  1  0
 16 17  2  0
 16 18  1  0
 18 19  1  0
  6 20  2  0
 20 21  1  0
 21 22  2  0
 22 23  1  0
 22  4  1  0
 18  7  2  0
 15  9  1  0
  1 24  1  0
  1 25  1  0
  1 26  1  0
  2 27  1  0
  2 28  1  0
  3 29  1  0
  3 30  1  0
  5 31  1  0
 10 32  1  0
 11 33  1  0
 12 34  1  0
 14 35  1  0
 19 36  1  0
 20 37  1  0
 21 38  1  0
 23 39  1  0
 23 40  1  0
 23 41  1  0
M  END
>  <meeko>  (8) 
{"is_sidechain": [false], "free_energy": -5.527, "intermolecular_energy": -6.959, "internal_energy": -0.136}

$$$$
cand_022_out
     RDKit          3D

 41 43  0  0  0  0  0  0  0  0999 V2000
  177.0020   22.4390   47.5200 C   0  0  0  0  0  0  0  0  0  0  0  0
  178.4820   22.7440   47.3520 C   0  0  0  0  0  0  0  0  0  0  0  0
  179.3510   21.6370   47.9520 C   0  0  0  0  0  0  0  0  0  0  0  0
  180.3640   21.1180   46.9540 C   0  0  0  0  0  0  0  0  0  0  0  0
  181.5320   21.8770   46.7350 C   0  0  0  0  0  0  0  0  0  0  0  0
  182.5090   21.4770   45.8120 C   0  0  0  0  0  0  0  0  0  0  0  0
  183.7460   22.2570   45.6000 C   0  0  0  0  0  0  0  0  0  0  0  0
  184.3360   22.0100   44.3660 O   0  0  0  0  0  0  0  0  0  0  0  0
  185.4930   22.6710   44.0400 C   0  0  0  0  0  0  0  0  0  0  0  0
  186.0590   22.3810   42.7970 C   0  0  0  0  0  0  0  0  0  0  0  0
  187.2360   23.0200   42.4030 C   0  0  0  0  0  0  0  0  0  0  0  0
  187.8480   23.9470   43.2490 C   0  0  0  0  0  0  0  0  0  0  0  0
  187.2810   24.2350   44.4880 C   0  0  0  0  0  0  0  0  0  0  0  0
  187.9300   25.1520   45.2670 O   0  0  0  0  0  0  0  0  0  0  0  0
  186.1020   23.5940   44.8830 C   0  0  0  0  0  0  0  0  0  0  0  0
  185.4740   23.8670   46.1770 C   0  0  0  0  0  0  0  0  0  0  0  0
  185.9480   24.6750   46.9730 O   0  0  0  0  0  0  0  0  0  0  0  0
  184.2320   23.1300   46.5030 C   0  0  0  0  0  0  0  0  0  0  0  0
  183.6400   23.4050   47.7220 O   0  0  0  0  0  0  0  0  0  0  0  0
  182.3100   20.2820   45.1130 C   0  0  0  0  0  0  0  0  0  0  0  0
  181.1560   19.5200   45.3150 C   0  0  0  0  0  0  0  0  0  0  0  0
  180.1700   19.9290   46.2250 C   0  0  0  0  0  0  0  0  0  0  0  0
  178.9490   19.0710   46.4090 C   0  0  0  0  0  0  0  0  0  0  0  0
  176.7573   22.3886   48.5913 H   0  0  0  0  0  0  0  0  0  0  0  0
  176.4077   23.2335   47.0451 H   0  0  0  0  0  0  0  0  0  0  0  0
  176.7702   21.4742   47.0451 H   0  0  0  0  0  0  0  0  0  0  0  0
  178.7091   22.8359   46.2796 H   0  0  0  0  0  0  0  0  0  0  0  0
  178.7043   23.6833   47.8796 H   0  0  0  0  0  0  0  0  0  0  0  0
  179.8848   22.0373   48.8265 H   0  0  0  0  0  0  0  0  0  0  0  0
  178.6940   20.8028   48.2393 H   0  0  0  0  0  0  0  0  0  0  0  0
  181.6807   22.8072   47.3030 H   0  0  0  0  0  0  0  0  0  0  0  0
  185.5785   21.6505   42.1296 H   0  0  0  0  0  0  0  0  0  0  0  0
  187.6823   22.7927   41.4237 H   0  0  0  0  0  0  0  0  0  0  0  0
  188.7760   24.4488   42.9375 H   0  0  0  0  0  0  0  0  0  0  0  0
  187.5810   25.3860   46.1040 H   0  0  0  0  0  0  0  0  0  0  0  0
  183.3200   24.2670   47.9040 H   0  0  0  0  0  0  0  0  0  0  0  0
  183.0703   19.9381   44.3963 H   0  0  0  0  0  0  0  0  0  0  0  0
  181.0188   18.5852   44.7517 H   0  0  0  0  0  0  0  0  0  0  0  0
  178.7551   18.9347   47.4832 H   0  0  0  0  0  0  0  0  0  0  0  0
  178.0829   19.5601   45.9392 H   0  0  0  0  0  0  0  0  0  0  0  0
  179.1157   18.0904   45.9392 H   0  0  0  0  0  0  0  0  0  0  0  0
  1  2  1  0
  2  3  1  0
  3  4  1  0
  4  5  2  0
  5  6  1  0
  6  7  1  0
  7  8  1  0
  8  9  1  0
  9 10  2  0
 10 11  1  0
 11 12  2  0
 12 13  1  0
 13 14  1  0
 13 15  2  0
 15 16  1  0
 16 17  2  0
 16 18  1  0
 18 19  1  0
  6 20  2  0
 20 21  1  0
 21 22  2  0
 22 23  1  0
 22  4  1  0
 18  7  2  0
 15  9  1  0
  1 24  1  0
  1 25  1  0
  1 26  1  0
  2 27  1  0
  2 28  1  0
  3 29  1  0
  3 30  1  0
  5 31  1  0
 10 32  1  0
 11 33  1  0
 12 34  1  0
 14 35  1  0
 19 36  1  0
 20 37  1  0
 21 38  1  0
 23 39  1  0
 23 40  1  0
 23 41  1  0
M  END
>  <meeko>  (9) 
{"is_sidechain": [false], "free_energy": -5.425, "intermolecular_energy": -6.863, "internal_energy": -0.106}

$$$$
