cand_053_out
     RDKit          3D

 44 46  0  0  0  0  0  0  0  0999 V2000
  181.2180   15.5100   40.4080 C   0  0  0  0  0  0  0  0  0  0  0  0
  181.1680   14.6300   41.6470 C   0  0  0  0  0  0  0  0  0  0  0  0
  182.1420   15.1210   42.7190 C   0  0  0  0  0  0  0  0  0  0  0  0
  181.5010   16.1430   43.6340 C   0  0  0  0  0  0  0  0  0  0  0  0
  181.8330   17.4970   43.4480 C   0  0  0  0  0  0  0  0  0  0  0  0
  181.2680   18.4940   44.2450 C   0  0  0  0  0  0  0  0  0  0  0  0
  180.3490   18.1720   45.2480 C   0  0  0  0  0  0  0  0  0  0  0  0
  179.7870   19.2380   46.1030 C   0  0  0  0  0  0  0  0  0  0  0  0
  178.3970   19.2710   46.0810 O   0  0  0  0  0  0  0  0  0  0  0  0
  177.7430   20.2150   46.8310 C   0  0  0  0  0  0  0  0  0  0  0  0
  176.3490   20.2210   46.7660 C   0  0  0  0  0  0  0  0  0  0  0  0
  175.6210   21.1550   47.5070 C   0  0  0  0  0  0  0  0  0  0  0  0
  176.2870   22.0820   48.3130 C   0  0  0  0  0  0  0  0  0  0  0  0
  177.6780   22.0730   48.3740 C   0  0  0  0  0  0  0  0  0  0  0  0
  178.2660   23.0080   49.1820 O   0  0  0  0  0  0  0  0  0  0  0  0
  178.4060   21.1390   47.6320 C   0  0  0  0  0  0  0  0  0  0  0  0
  179.8680   21.0950   47.6680 C   0  0  0  0  0  0  0  0  0  0  0  0
  180.5250   21.8730   48.3590 O   0  0  0  0  0  0  0  0  0  0  0  0
  180.5440   20.0720   46.8390 C   0  0  0  0  0  0  0  0  0  0  0  0
  181.9260   20.0320   46.8920 O   0  0  0  0  0  0  0  0  0  0  0  0
  180.0200   16.8230   45.4370 C   0  0  0  0  0  0  0  0  0  0  0  0
  180.5720   15.8010   44.6360 C   0  0  0  0  0  0  0  0  0  0  0  0
  180.1570   14.3760   44.9220 C   0  0  0  0  0  0  0  0  0  0  0  0
  178.8210   14.0320   44.2790 C   0  0  0  0  0  0  0  0  0  0  0  0
  181.2780   16.5659   40.7104 H   0  0  0  0  0  0  0  0  0  0  0  0
  182.1028   15.2494   39.8086 H   0  0  0  0  0  0  0  0  0  0  0  0
  180.3094   15.3513   39.8086 H   0  0  0  0  0  0  0  0  0  0  0  0
  180.1472   14.6459   42.0565 H   0  0  0  0  0  0  0  0  0  0  0  0
  181.4566   13.6085   41.3584 H   0  0  0  0  0  0  0  0  0  0  0  0
  182.4723   14.2615   43.3208 H   0  0  0  0  0  0  0  0  0  0  0  0
  182.9938   15.6001   42.2141 H   0  0  0  0  0  0  0  0  0  0  0  0
  182.5499   17.7749   42.6613 H   0  0  0  0  0  0  0  0  0  0  0  0
  181.5491   19.5449   44.0820 H   0  0  0  0  0  0  0  0  0  0  0  0
  175.8241   19.4912   46.1321 H   0  0  0  0  0  0  0  0  0  0  0  0
  174.5222   21.1607   47.4559 H   0  0  0  0  0  0  0  0  0  0  0  0
  175.7140   22.8168   48.8976 H   0  0  0  0  0  0  0  0  0  0  0  0
  179.0030   22.7730   49.7110 H   0  0  0  0  0  0  0  0  0  0  0  0
  182.3880   19.3130   46.5090 H   0  0  0  0  0  0  0  0  0  0  0  0
  179.3106   16.5529   46.2331 H   0  0  0  0  0  0  0  0  0  0  0  0
  180.9265   13.6959   44.5279 H   0  0  0  0  0  0  0  0  0  0  0  0
  180.0488   14.2654   46.0111 H   0  0  0  0  0  0  0  0  0  0  0  0
  178.0749   13.8399   45.0641 H   0  0  0  0  0  0  0  0  0  0  0  0
  178.4873   14.8735   43.6541 H   0  0  0  0  0  0  0  0  0  0  0  0
  178.9353   13.1340   43.6541 H   0  0  0  0  0  0  0  0  0  0  0  0
  1  2  1  0
  2  3  1  0
  3  4  1  0
  4  5  2  0
  5  6  1  0
  6  7  2  0
  7  8  1  0
  8  9  1  0
  9 10  1  0
 10 11  2  0
 11 12  1  0
 12 13  2  0
 13 14  1  0
 14 15  1  0
 14 16  2  0
 16 17  1  0
 17 18  2  0
 17 19  1  0
 19 20  1  0
  7 21  1  0
 21 22  2  0
 22 23  1  0
 23 24  1  0
 22  4  1  0
 19  8  2  0
 16 10  1  0
  1 25  1  0
  1 26  1  0
  1 27  1  0
  2 28  1  0
  2 29  1  0
  3 30  1  0
  3 31  1  0
  5 32  1  0
  6 33  1  0
 11 34  1  0
 12 35  1  0
 13 36  1  0
 15 37  1  0
 20 38  1  0
 21 39  1  0
 23 40  1  0
 23 41  1  0
 24 42  1  0
 24 43  1  0
 24 44  1  0
M  END
>  <meeko>  (1) 
{"is_sidechain": [false], "free_energy": -8.213, "intermolecular_energy": -10.613, "internal_energy": -0.539}

$$$$
cand_053_out
     RDKit          3D

 44 46  0  0  0  0  0  0  0  0999 V2000
  178.2190   24.0630   47.3470 C   0  0  0  0  0  0  0  0  0  0  0  0
  177.0880   23.8870   48.3490 C   0  0  0  0  0  0  0  0  0  0  0  0
  177.1340   22.5050   49.0040 C   0  0  0  0  0  0  0  0  0  0  0  0
  177.8070   21.4840   48.1120 C   0  0  0  0  0  0  0  0  0  0  0  0
  179.1810   21.2500   48.2940 C   0  0  0  0  0  0  0  0  0  0  0  0
  179.8630   20.3120   47.5150 C   0  0  0  0  0  0  0  0  0  0  0  0
  179.1910   19.5730   46.5380 C   0  0  0  0  0  0  0  0  0  0  0  0
  179.9370   18.6070   45.7030 C   0  0  0  0  0  0  0  0  0  0  0  0
  179.3450   17.3490   45.6750 O   0  0  0  0  0  0  0  0  0  0  0  0
  179.9350   16.3540   44.9370 C   0  0  0  0  0  0  0  0  0  0  0  0
  179.3160   15.1040   44.9500 C   0  0  0  0  0  0  0  0  0  0  0  0
  179.8640   14.0480   44.2170 C   0  0  0  0  0  0  0  0  0  0  0  0
  181.0290   14.2430   43.4720 C   0  0  0  0  0  0  0  0  0  0  0  0
  181.6440   15.4920   43.4620 C   0  0  0  0  0  0  0  0  0  0  0  0
  182.7820   15.6140   42.7120 O   0  0  0  0  0  0  0  0  0  0  0  0
  181.0960   16.5480   44.1950 C   0  0  0  0  0  0  0  0  0  0  0  0
  181.7110   17.8760   44.2110 C   0  0  0  0  0  0  0  0  0  0  0  0
  182.7330   18.1280   43.5750 O   0  0  0  0  0  0  0  0  0  0  0  0
  181.0560   18.9240   45.0270 C   0  0  0  0  0  0  0  0  0  0  0  0
  181.6380   20.1790   45.0240 O   0  0  0  0  0  0  0  0  0  0  0  0
  177.8220   19.8070   46.3530 C   0  0  0  0  0  0  0  0  0  0  0  0
  177.1130   20.7440   47.1340 C   0  0  0  0  0  0  0  0  0  0  0  0
  175.6390   20.9260   46.8550 C   0  0  0  0  0  0  0  0  0  0  0  0
  174.7870   19.9180   47.6110 C   0  0  0  0  0  0  0  0  0  0  0  0
  179.1666   24.2105   47.8858 H   0  0  0  0  0  0  0  0  0  0  0  0
  178.2922   23.1654   46.7153 H   0  0  0  0  0  0  0  0  0  0  0  0
  178.0160   24.9404   46.7153 H   0  0  0  0  0  0  0  0  0  0  0  0
  177.1783   24.6565   49.1298 H   0  0  0  0  0  0  0  0  0  0  0  0
  176.1321   23.9853   47.8136 H   0  0  0  0  0  0  0  0  0  0  0  0
  177.6933   22.5767   49.9485 H   0  0  0  0  0  0  0  0  0  0  0  0
  176.0997   22.1756   49.1819 H   0  0  0  0  0  0  0  0  0  0  0  0
  179.7285   21.8150   49.0628 H   0  0  0  0  0  0  0  0  0  0  0  0
  180.9401   20.1536   47.6724 H   0  0  0  0  0  0  0  0  0  0  0  0
  178.3981   14.9498   45.5362 H   0  0  0  0  0  0  0  0  0  0  0  0
  179.3770   13.0617   44.2268 H   0  0  0  0  0  0  0  0  0  0  0  0
  181.4597   13.4118   42.8945 H   0  0  0  0  0  0  0  0  0  0  0  0
  183.6080   15.7540   43.1320 H   0  0  0  0  0  0  0  0  0  0  0  0
  181.1000   20.9450   45.0500 H   0  0  0  0  0  0  0  0  0  0  0  0
  177.2843   19.2437   45.5761 H   0  0  0  0  0  0  0  0  0  0  0  0
  175.3426   21.9406   47.1594 H   0  0  0  0  0  0  0  0  0  0  0  0
  175.4752   20.7696   45.7786 H   0  0  0  0  0  0  0  0  0  0  0  0
  174.9144   20.0687   48.6932 H   0  0  0  0  0  0  0  0  0  0  0  0
  173.7293   20.0579   47.3433 H   0  0  0  0  0  0  0  0  0  0  0  0
  175.1012   18.8984   47.3433 H   0  0  0  0  0  0  0  0  0  0  0  0
  1  2  1  0
  2  3  1  0
  3  4  1  0
  4  5  2  0
  5  6  1  0
  6  7  2  0
  7  8  1  0
  8  9  1  0
  9 10  1  0
 10 11  2  0
 11 12  1  0
 12 13  2  0
 13 14  1  0
 14 15  1  0
 14 16  2  0
 16 17  1  0
 17 18  2  0
 17 19  1  0
 19 20  1  0
  7 21  1  0
 21 22  2  0
 22 23  1  0
 23 24  1  0
 22  4  1  0
 19  8  2  0
 16 10  1  0
  1 25  1  0
  1 26  1  0
  1 27  1  0
  2 28  1  0
  2 29  1  0
  3 30  1  0
  3 31  1  0
  5 32  1  0
  6 33  1  0
 11 34  1  0
 12 35  1  0
 13 36  1  0
 15 37  1  0
 20 38  1  0
 21 39  1  0
 23 40  1  0
 23 41  1  0
 24 42  1  0
 24 43  1  0
 24 44  1  0
M  END
>  <meeko>  (2) 
{"is_sidechain": [false], "free_energy": -7.185, "intermolecular_energy": -9.58, "internal_energy": -0.244}

$$$$
cand_053_out
     RDKit          3D

 44 46  0  0  0  0  0  0  0  0999 V2000
  181.4770   14.4300   41.6250 C   0  0  0  0  0  0  0  0  0  0  0  0
  181.4920   15.9050   41.9940 C   0  0  0  0  0  0  0  0  0  0  0  0
  181.9770   16.1150   43.4300 C   0  0  0  0  0  0  0  0  0  0  0  0
  181.0120   16.9640   44.2290 C   0  0  0  0  0  0  0  0  0  0  0  0
  181.1120   18.3620   44.1170 C   0  0  0  0  0  0  0  0  0  0  0  0
  180.2450   19.2060   44.8150 C   0  0  0  0  0  0  0  0  0  0  0  0
  179.2460   18.6790   45.6390 C   0  0  0  0  0  0  0  0  0  0  0  0
  178.3580   19.5880   46.3940 C   0  0  0  0  0  0  0  0  0  0  0  0
  178.9970   20.7570   46.7930 O   0  0  0  0  0  0  0  0  0  0  0  0
  178.2870   21.6910   47.5050 C   0  0  0  0  0  0  0  0  0  0  0  0
  178.9730   22.8420   47.8980 C   0  0  0  0  0  0  0  0  0  0  0  0
  178.3090   23.8340   48.6240 C   0  0  0  0  0  0  0  0  0  0  0  0
  176.9610   23.6750   48.9540 C   0  0  0  0  0  0  0  0  0  0  0  0
  176.2810   22.5260   48.5600 C   0  0  0  0  0  0  0  0  0  0  0  0
  174.9630   22.4360   48.9170 O   0  0  0  0  0  0  0  0  0  0  0  0
  176.9460   21.5340   47.8350 C   0  0  0  0  0  0  0  0  0  0  0  0
  176.2680   20.3110   47.4010 C   0  0  0  0  0  0  0  0  0  0  0  0
  175.0810   20.1030   47.6470 O   0  0  0  0  0  0  0  0  0  0  0  0
  177.0640   19.3180   46.6450 C   0  0  0  0  0  0  0  0  0  0  0  0
  176.4100   18.1720   46.2290 O   0  0  0  0  0  0  0  0  0  0  0  0
  179.1470   17.2860   45.7540 C   0  0  0  0  0  0  0  0  0  0  0  0
  180.0080   16.4160   45.0510 C   0  0  0  0  0  0  0  0  0  0  0  0
  179.8230   14.9280   45.2460 C   0  0  0  0  0  0  0  0  0  0  0  0
  178.8910   14.3290   44.2030 C   0  0  0  0  0  0  0  0  0  0  0  0
  181.4708   13.8227   42.5421 H   0  0  0  0  0  0  0  0  0  0  0  0
  180.5766   14.2093   41.0330 H   0  0  0  0  0  0  0  0  0  0  0  0
  182.3728   14.1910   41.0330 H   0  0  0  0  0  0  0  0  0  0  0  0
  182.1648   16.4392   41.3070 H   0  0  0  0  0  0  0  0  0  0  0  0
  180.4657   16.2928   41.9144 H   0  0  0  0  0  0  0  0  0  0  0  0
  182.0783   15.1348   43.9189 H   0  0  0  0  0  0  0  0  0  0  0  0
  182.9436   16.6387   43.3920 H   0  0  0  0  0  0  0  0  0  0  0  0
  181.8861   18.7985   43.4687 H   0  0  0  0  0  0  0  0  0  0  0  0
  180.3493   20.2965   44.7153 H   0  0  0  0  0  0  0  0  0  0  0  0
  180.0341   22.9674   47.6365 H   0  0  0  0  0  0  0  0  0  0  0  0
  178.8480   24.7407   48.9359 H   0  0  0  0  0  0  0  0  0  0  0  0
  176.4376   24.4565   49.5243 H   0  0  0  0  0  0  0  0  0  0  0  0
  174.5810   21.5980   49.0910 H   0  0  0  0  0  0  0  0  0  0  0  0
  175.4830   18.1850   46.0940 H   0  0  0  0  0  0  0  0  0  0  0  0
  178.3758   16.8580   46.4113 H   0  0  0  0  0  0  0  0  0  0  0  0
  180.8036   14.4352   45.1712 H   0  0  0  0  0  0  0  0  0  0  0  0
  179.3725   14.7681   46.2367 H   0  0  0  0  0  0  0  0  0  0  0  0
  178.0684   13.8003   44.7068 H   0  0  0  0  0  0  0  0  0  0  0  0
  178.4798   15.1324   43.5741 H   0  0  0  0  0  0  0  0  0  0  0  0
  179.4510   13.6213   43.5741 H   0  0  0  0  0  0  0  0  0  0  0  0
  1  2  1  0
  2  3  1  0
  3  4  1  0
  4  5  2  0
  5  6  1  0
  6  7  2  0
  7  8  1  0
  8  9  1  0
  9 10  1  0
 10 11  2  0
 11 12  1  0
 12 13  2  0
 13 14  1  0
 14 15  1  0
 14 16  2  0
 16 17  1  0
 17 18  2  0
 17 19  1  0
 19 20  1  0
  7 21  1  0
 21 22  2  0
 22 23  1  0
 23 24  1  0
 22  4  1  0
 19  8  2  0
 16 10  1  0
  1 25  1  0
  1 26  1  0
  1 27  1  0
  2 28  1  0
  2 29  1  0
  3 30  1  0
  3 31  1  0
  5 32  1  0
  6 33  1  0
 11 34  1  0
 12 35  1  0
 13 36  1  0
 15 37  1  0
 20 38  1  0
 21 39  1  0
 23 40  1  0
 23 41  1  0
 24 42  1  0
 24 43  1  0
 24 44  1  0
M  END
>  <meeko>  (3) 
{"is_sidechain": [false], "free_energy": -6.813, "intermolecular_energy": -8.839, "internal_energy": -0.504}

$$$$
cand_053_out
     RDKit          3D

 44 46  0  0  0  0  0  0  0  0999 V2000
  175.9140   20.3620   50.3250 C   0  0  0  0  0  0  0  0  0  0  0  0
  174.9780   21.3320   49.6200 C   0  0  0  0  0  0  0  0  0  0  0  0
  175.7090   22.1150   48.5280 C   0  0  0  0  0  0  0  0  0  0  0  0
  176.7270   21.2570   47.8080 C   0  0  0  0  0  0  0  0  0  0  0  0
  176.2740   20.0890   47.1690 C   0  0  0  0  0  0  0  0  0  0  0  0
  177.1550   19.2580   46.4750 C   0  0  0  0  0  0  0  0  0  0  0  0
  178.5140   19.5710   46.3900 C   0  0  0  0  0  0  0  0  0  0  0  0
  179.4370   18.6620   45.6770 C   0  0  0  0  0  0  0  0  0  0  0  0
  179.0170   17.3370   45.7040 O   0  0  0  0  0  0  0  0  0  0  0  0
  179.7820   16.3850   45.0800 C   0  0  0  0  0  0  0  0  0  0  0  0
  179.3300   15.0670   45.1460 C   0  0  0  0  0  0  0  0  0  0  0  0
  180.0610   14.0480   44.5290 C   0  0  0  0  0  0  0  0  0  0  0  0
  181.2430   14.3490   43.8470 C   0  0  0  0  0  0  0  0  0  0  0  0
  181.6900   15.6660   43.7840 C   0  0  0  0  0  0  0  0  0  0  0  0
  182.8540   15.8900   43.1000 O   0  0  0  0  0  0  0  0  0  0  0  0
  180.9590   16.6840   44.4020 C   0  0  0  0  0  0  0  0  0  0  0  0
  181.3940   18.0810   44.3590 C   0  0  0  0  0  0  0  0  0  0  0  0
  182.4180   18.4250   43.7720 O   0  0  0  0  0  0  0  0  0  0  0  0
  180.5520   19.0820   45.0520 C   0  0  0  0  0  0  0  0  0  0  0  0
  180.9660   20.4010   44.9930 O   0  0  0  0  0  0  0  0  0  0  0  0
  178.9680   20.7330   47.0290 C   0  0  0  0  0  0  0  0  0  0  0  0
  178.0930   21.5910   47.7280 C   0  0  0  0  0  0  0  0  0  0  0  0
  178.6810   22.8180   48.3870 C   0  0  0  0  0  0  0  0  0  0  0  0
  178.5400   24.0550   47.5140 C   0  0  0  0  0  0  0  0  0  0  0  0
  175.8059   20.4741   51.4139 H   0  0  0  0  0  0  0  0  0  0  0  0
  175.6602   19.3316   50.0354 H   0  0  0  0  0  0  0  0  0  0  0  0
  176.9528   20.5789   50.0354 H   0  0  0  0  0  0  0  0  0  0  0  0
  174.1527   20.7659   49.1636 H   0  0  0  0  0  0  0  0  0  0  0  0
  174.5951   22.0471   50.3629 H   0  0  0  0  0  0  0  0  0  0  0  0
  174.9719   22.4812   47.7982 H   0  0  0  0  0  0  0  0  0  0  0  0
  176.2418   22.9510   49.0047 H   0  0  0  0  0  0  0  0  0  0  0  0
  175.2070   19.8258   47.2169 H   0  0  0  0  0  0  0  0  0  0  0  0
  176.7752   18.3468   45.9897 H   0  0  0  0  0  0  0  0  0  0  0  0
  178.3996   14.8300   45.6829 H   0  0  0  0  0  0  0  0  0  0  0  0
  179.7056   13.0082   44.5803 H   0  0  0  0  0  0  0  0  0  0  0  0
  181.8187   13.5474   43.3612 H   0  0  0  0  0  0  0  0  0  0  0  0
  183.0210   15.4350   42.2980 H   0  0  0  0  0  0  0  0  0  0  0  0
  181.1650   20.7930   44.1660 H   0  0  0  0  0  0  0  0  0  0  0  0
  180.0382   20.9833   46.9841 H   0  0  0  0  0  0  0  0  0  0  0  0
  178.1597   22.9940   49.3395 H   0  0  0  0  0  0  0  0  0  0  0  0
  179.7537   22.6362   48.5488 H   0  0  0  0  0  0  0  0  0  0  0  0
  178.4386   24.9449   48.1526 H   0  0  0  0  0  0  0  0  0  0  0  0
  179.4321   24.1592   46.8789 H   0  0  0  0  0  0  0  0  0  0  0  0
  177.6473   23.9558   46.8789 H   0  0  0  0  0  0  0  0  0  0  0  0
  1  2  1  0
  2  3  1  0
  3  4  1  0
  4  5  2  0
  5  6  1  0
  6  7  2  0
  7  8  1  0
  8  9  1  0
  9 10  1  0
 10 11  2  0
 11 12  1  0
 12 13  2  0
 13 14  1  0
 14 15  1  0
 14 16  2  0
 16 17  1  0
 17 18  2  0
 17 19  1  0
 19 20  1  0
  7 21  1  0
 21 22  2  0
 22 23  1  0
 23 24  1  0
 22  4  1  0
 19  8  2  0
 16 10  1  0
  1 25  1  0
  1 26  1  0
  1 27  1  0
  2 28  1  0
  2 29  1  0
  3 30  1  0
  3 31  1  0
  5 32  1  0
  6 33  1  0
 11 34  1  0
 12 35  1  0
 13 36  1  0
 15 37  1  0
 20 38  1  0
 21 39  1  0
 23 40  1  0
 23 41  1  0
 24 42  1  0
 24 43  1  0
 24 44  1  0
M  END
>  <meeko>  (4) 
{"is_sidechain": [false], "free_energy": -6.682, "intermolecular_energy": -9.074, "internal_energy": -0.1}

$$$$
cand_053_out
     RDKit          3D

 44 46  0  0  0  0  0  0  0  0999 V2000
  177.8660   23.6180   47.7300 C   0  0  0  0  0  0  0  0  0  0  0  0
  179.2270   23.0370   47.3770 C   0  0  0  0  0  0  0  0  0  0  0  0
  179.4760   21.7180   48.1100 C   0  0  0  0  0  0  0  0  0  0  0  0
  179.6480   20.5640   47.1460 C   0  0  0  0  0  0  0  0  0  0  0  0
  180.9250   20.3440   46.5990 C   0  0  0  0  0  0  0  0  0  0  0  0
  181.1590   19.2900   45.7140 C   0  0  0  0  0  0  0  0  0  0  0  0
  180.1270   18.4180   45.3540 C   0  0  0  0  0  0  0  0  0  0  0  0
  180.3870   17.3270   44.3920 C   0  0  0  0  0  0  0  0  0  0  0  0
  180.7110   17.7930   43.1220 O   0  0  0  0  0  0  0  0  0  0  0  0
  180.9760   16.8840   42.1290 C   0  0  0  0  0  0  0  0  0  0  0  0
  181.2810   17.3970   40.8670 C   0  0  0  0  0  0  0  0  0  0  0  0
  181.5630   16.5260   39.8120 C   0  0  0  0  0  0  0  0  0  0  0  0
  181.5410   15.1450   40.0190 C   0  0  0  0  0  0  0  0  0  0  0  0
  181.2360   14.6380   41.2790 C   0  0  0  0  0  0  0  0  0  0  0  0
  181.2320   13.2760   41.4120 O   0  0  0  0  0  0  0  0  0  0  0  0
  180.9530   15.5090   42.3340 C   0  0  0  0  0  0  0  0  0  0  0  0
  180.6280   15.0170   43.6740 C   0  0  0  0  0  0  0  0  0  0  0  0
  180.5960   13.8160   43.9360 O   0  0  0  0  0  0  0  0  0  0  0  0
  180.3360   16.0230   44.7210 C   0  0  0  0  0  0  0  0  0  0  0  0
  180.0430   15.5470   45.9860 O   0  0  0  0  0  0  0  0  0  0  0  0
  178.8530   18.6380   45.8960 C   0  0  0  0  0  0  0  0  0  0  0  0
  178.5980   19.6920   46.7980 C   0  0  0  0  0  0  0  0  0  0  0  0
  177.1890   19.8480   47.3230 C   0  0  0  0  0  0  0  0  0  0  0  0
  176.3040   20.6210   46.3570 C   0  0  0  0  0  0  0  0  0  0  0  0
  177.7593   23.6636   48.8239 H   0  0  0  0  0  0  0  0  0  0  0  0
  177.7799   24.6313   47.3107 H   0  0  0  0  0  0  0  0  0  0  0  0
  177.0747   22.9792   47.3107 H   0  0  0  0  0  0  0  0  0  0  0  0
  179.2696   22.8577   46.2925 H   0  0  0  0  0  0  0  0  0  0  0  0
  180.0011   23.7558   47.6837 H   0  0  0  0  0  0  0  0  0  0  0  0
  180.3885   21.8144   48.7167 H   0  0  0  0  0  0  0  0  0  0  0  0
  178.6013   21.5078   48.7430 H   0  0  0  0  0  0  0  0  0  0  0  0
  181.7534   21.0138   46.8732 H   0  0  0  0  0  0  0  0  0  0  0  0
  182.1658   19.1440   45.2955 H   0  0  0  0  0  0  0  0  0  0  0  0
  181.2992   18.4847   40.7038 H   0  0  0  0  0  0  0  0  0  0  0  0
  181.8028   16.9284   38.8167 H   0  0  0  0  0  0  0  0  0  0  0  0
  181.7642   14.4595   39.1882 H   0  0  0  0  0  0  0  0  0  0  0  0
  180.6090   12.8620   41.9760 H   0  0  0  0  0  0  0  0  0  0  0  0
  180.7360   15.3480   46.5830 H   0  0  0  0  0  0  0  0  0  0  0  0
  178.0281   17.9691   45.6095 H   0  0  0  0  0  0  0  0  0  0  0  0
  176.7558   18.8492   47.4801 H   0  0  0  0  0  0  0  0  0  0  0  0
  177.2379   20.4128   48.2657 H   0  0  0  0  0  0  0  0  0  0  0  0
  175.5947   21.2406   46.9253 H   0  0  0  0  0  0  0  0  0  0  0  0
  176.9295   21.2671   45.7236 H   0  0  0  0  0  0  0  0  0  0  0  0
  175.7479   19.9143   45.7236 H   0  0  0  0  0  0  0  0  0  0  0  0
  1  2  1  0
  2  3  1  0
  3  4  1  0
  4  5  2  0
  5  6  1  0
  6  7  2  0
  7  8  1  0
  8  9  1  0
  9 10  1  0
 10 11  2  0
 11 12  1  0
 12 13  2  0
 13 14  1  0
 14 15  1  0
 14 16  2  0
 16 17  1  0
 17 18  2  0
 17 19  1  0
 19 20  1  0
  7 21  1  0
 21 22  2  0
 22 23  1  0
 23 24  1  0
 22  4  1  0
 19  8  2  0
 16 10  1  0
  1 25  1  0
  1 26  1  0
  1 27  1  0
  2 28  1  0
  2 29  1  0
  3 30  1  0
  3 31  1  0
  5 32  1  0
  6 33  1  0
 11 34  1  0
 12 35  1  0
 13 36  1  0
 15 37  1  0
 20 38  1  0
 21 39  1  0
 23 40  1  0
 23 41  1  0
 24 42  1  0
 24 43  1  0
 24 44  1  0
M  END
>  <meeko>  (5) 
{"is_sidechain": [false], "free_energy": -5.893, "intermolecular_energy": -7.285, "internal_energy": -0.869}

$$$$
cand_053_out
     RDKit          3D

 44 46  0  0  0  0  0  0  0  0999 V2000
  181.5670   15.1740   43.5410 C   0  0  0  0  0  0  0  0  0  0  0  0
  181.1750   16.6070   43.2160 C   0  0  0  0  0  0  0  0  0  0  0  0
  182.0870   17.6080   43.9270 C   0  0  0  0  0  0  0  0  0  0  0  0
  181.2990   18.5710   44.7890 C   0  0  0  0  0  0  0  0  0  0  0  0
  180.0410   18.1570   45.2600 C   0  0  0  0  0  0  0  0  0  0  0  0
  179.2650   18.9880   46.0710 C   0  0  0  0  0  0  0  0  0  0  0  0
  179.7260   20.2540   46.4430 C   0  0  0  0  0  0  0  0  0  0  0  0
  178.8770   21.1320   47.2760 C   0  0  0  0  0  0  0  0  0  0  0  0
  177.5250   20.8170   47.1890 O   0  0  0  0  0  0  0  0  0  0  0  0
  176.6230   21.5550   47.9120 C   0  0  0  0  0  0  0  0  0  0  0  0
  175.2760   21.2130   47.7810 C   0  0  0  0  0  0  0  0  0  0  0  0
  174.3050   21.9230   48.4920 C   0  0  0  0  0  0  0  0  0  0  0  0
  174.6820   22.9730   49.3330 C   0  0  0  0  0  0  0  0  0  0  0  0
  176.0270   23.3110   49.4600 C   0  0  0  0  0  0  0  0  0  0  0  0
  176.3250   24.3490   50.3010 O   0  0  0  0  0  0  0  0  0  0  0  0
  176.9970   22.6010   48.7490 C   0  0  0  0  0  0  0  0  0  0  0  0
  178.4210   22.9230   48.8540 C   0  0  0  0  0  0  0  0  0  0  0  0
  178.8310   23.8280   49.5790 O   0  0  0  0  0  0  0  0  0  0  0  0
  179.3680   22.1160   48.0520 C   0  0  0  0  0  0  0  0  0  0  0  0
  180.7120   22.4210   48.1700 O   0  0  0  0  0  0  0  0  0  0  0  0
  180.9780   20.6700   45.9710 C   0  0  0  0  0  0  0  0  0  0  0  0
  181.7810   19.8420   45.1580 C   0  0  0  0  0  0  0  0  0  0  0  0
  183.1150   20.3830   44.6970 C   0  0  0  0  0  0  0  0  0  0  0  0
  183.4100   21.7520   45.2920 C   0  0  0  0  0  0  0  0  0  0  0  0
  181.6030   15.0423   44.6325 H   0  0  0  0  0  0  0  0  0  0  0  0
  180.8244   14.4846   43.1128 H   0  0  0  0  0  0  0  0  0  0  0  0
  182.5571   14.9586   43.1128 H   0  0  0  0  0  0  0  0  0  0  0  0
  181.2514   16.7617   42.1296 H   0  0  0  0  0  0  0  0  0  0  0  0
  180.1436   16.7714   43.5612 H   0  0  0  0  0  0  0  0  0  0  0  0
  182.7937   17.0560   44.5641 H   0  0  0  0  0  0  0  0  0  0  0  0
  182.6188   18.1910   43.1606 H   0  0  0  0  0  0  0  0  0  0  0  0
  179.6614   17.1618   44.9852 H   0  0  0  0  0  0  0  0  0  0  0  0
  178.2809   18.6426   46.4206 H   0  0  0  0  0  0  0  0  0  0  0  0
  174.9794   20.3859   47.1192 H   0  0  0  0  0  0  0  0  0  0  0  0
  173.2431   21.6551   48.3895 H   0  0  0  0  0  0  0  0  0  0  0  0
  173.9180   23.5316   49.8937 H   0  0  0  0  0  0  0  0  0  0  0  0
  176.5330   24.1790   51.1990 H   0  0  0  0  0  0  0  0  0  0  0  0
  181.2120   22.6360   47.4080 H   0  0  0  0  0  0  0  0  0  0  0  0
  181.3455   21.6708   46.2420 H   0  0  0  0  0  0  0  0  0  0  0  0
  183.9071   19.6841   45.0037 H   0  0  0  0  0  0  0  0  0  0  0  0
  183.0797   20.4881   43.6026 H   0  0  0  0  0  0  0  0  0  0  0  0
  183.3957   21.6854   46.3899 H   0  0  0  0  0  0  0  0  0  0  0  0
  184.4018   22.0909   44.9581 H   0  0  0  0  0  0  0  0  0  0  0  0
  182.6458   22.4693   44.9581 H   0  0  0  0  0  0  0  0  0  0  0  0
  1  2  1  0
  2  3  1  0
  3  4  1  0
  4  5  2  0
  5  6  1  0
  6  7  2  0
  7  8  1  0
  8  9  1  0
  9 10  1  0
 10 11  2  0
 11 12  1  0
 12 13  2  0
 13 14  1  0
 14 15  1  0
 14 16  2  0
 16 17  1  0
 17 18  2  0
 17 19  1  0
 19 20  1  0
  7 21  1  0
 21 22  2  0
 22 23  1  0
 23 24  1  0
 22  4  1  0
 19  8  2  0
 16 10  1  0
  1 25  1  0
  1 26  1  0
  1 27  1  0
  2 28  1  0
  2 29  1  0
  3 30  1  0
  3 31  1  0
  5 32  1  0
  6 33  1  0
 11 34  1  0
 12 35  1  0
 13 36  1  0
 15 37  1  0
 20 38  1  0
 21 39  1  0
 23 40  1  0
 23 41  1  0
 24 42  1  0
 24 43  1  0
 24 44  1  0
M  END
>  <meeko>  (6) 
{"is_sidechain": [false], "free_energy": -5.862, "intermolecular_energy": -7.877, "internal_energy": -0.236}

$$$$
cand_053_out
     RDKit          3D

 44 46  0  0  0  0  0  0  0  0999 V2000
  175.5150   18.7540   47.2960 C   0  0  0  0  0  0  0  0  0  0  0  0
  176.5980   19.5640   46.6010 C   0  0  0  0  0  0  0  0  0  0  0  0
  177.7840   18.6840   46.2030 C   0  0  0  0  0  0  0  0  0  0  0  0
  179.0830   19.4610   46.2040 C   0  0  0  0  0  0  0  0  0  0  0  0
  179.0750   20.7620   46.7360 C   0  0  0  0  0  0  0  0  0  0  0  0
  180.2400   21.5310   46.7820 C   0  0  0  0  0  0  0  0  0  0  0  0
  181.4510   21.0190   46.3060 C   0  0  0  0  0  0  0  0  0  0  0  0
  182.6670   21.8600   46.3340 C   0  0  0  0  0  0  0  0  0  0  0  0
  183.3330   21.8870   45.1140 O   0  0  0  0  0  0  0  0  0  0  0  0
  184.4810   22.6290   45.0000 C   0  0  0  0  0  0  0  0  0  0  0  0
  185.1240   22.6140   43.7620 C   0  0  0  0  0  0  0  0  0  0  0  0
  186.2970   23.3510   43.5780 C   0  0  0  0  0  0  0  0  0  0  0  0
  186.8250   24.1020   44.6310 C   0  0  0  0  0  0  0  0  0  0  0  0
  186.1800   24.1140   45.8650 C   0  0  0  0  0  0  0  0  0  0  0  0
  186.7500   24.8700   46.8520 O   0  0  0  0  0  0  0  0  0  0  0  0
  185.0070   23.3760   46.0490 C   0  0  0  0  0  0  0  0  0  0  0  0
  184.2980   23.3620   47.3290 C   0  0  0  0  0  0  0  0  0  0  0  0
  184.6960   24.0030   48.3000 O   0  0  0  0  0  0  0  0  0  0  0  0
  183.0690   22.5410   47.4230 C   0  0  0  0  0  0  0  0  0  0  0  0
  182.4000   22.5460   48.6340 O   0  0  0  0  0  0  0  0  0  0  0  0
  181.4600   19.7240   45.7720 C   0  0  0  0  0  0  0  0  0  0  0  0
  180.2960   18.9280   45.7250 C   0  0  0  0  0  0  0  0  0  0  0  0
  180.4090   17.5450   45.1260 C   0  0  0  0  0  0  0  0  0  0  0  0
  181.2010   17.5500   43.8270 C   0  0  0  0  0  0  0  0  0  0  0  0
  175.6334   18.8426   48.3860 H   0  0  0  0  0  0  0  0  0  0  0  0
  174.5261   19.1360   47.0024 H   0  0  0  0  0  0  0  0  0  0  0  0
  175.6020   17.6975   47.0024 H   0  0  0  0  0  0  0  0  0  0  0  0
  176.1750   20.0252   45.6964 H   0  0  0  0  0  0  0  0  0  0  0  0
  176.9571   20.3337   47.3000 H   0  0  0  0  0  0  0  0  0  0  0  0
  177.8659   17.8517   46.9175 H   0  0  0  0  0  0  0  0  0  0  0  0
  177.6078   18.3120   45.1829 H   0  0  0  0  0  0  0  0  0  0  0  0
  178.1348   21.1818   47.1229 H   0  0  0  0  0  0  0  0  0  0  0  0
  180.2045   22.5492   47.1967 H   0  0  0  0  0  0  0  0  0  0  0  0
  184.7085   22.0232   42.9323 H   0  0  0  0  0  0  0  0  0  0  0  0
  186.8053   23.3398   42.6026 H   0  0  0  0  0  0  0  0  0  0  0  0
  187.7480   24.6824   44.4857 H   0  0  0  0  0  0  0  0  0  0  0  0
  187.0820   25.7240   46.6550 H   0  0  0  0  0  0  0  0  0  0  0  0
  182.8690   22.3830   49.4280 H   0  0  0  0  0  0  0  0  0  0  0  0
  182.4022   19.3157   45.3777 H   0  0  0  0  0  0  0  0  0  0  0  0
  180.9139   16.8856   45.8473 H   0  0  0  0  0  0  0  0  0  0  0  0
  179.3930   17.1869   44.9034 H   0  0  0  0  0  0  0  0  0  0  0  0
  182.2773   17.5568   44.0538 H   0  0  0  0  0  0  0  0  0  0  0  0
  180.9548   16.6503   43.2440 H   0  0  0  0  0  0  0  0  0  0  0  0
  180.9435   18.4465   43.2440 H   0  0  0  0  0  0  0  0  0  0  0  0
  1  2  1  0
  2  3  1  0
  3  4  1  0
  4  5  2  0
  5  6  1  0
  6  7  2  0
  7  8  1  0
  8  9  1  0
  9 10  1  0
 10 11  2  0
 11 12  1  0
 12 13  2  0
 13 14  1  0
 14 15  1  0
 14 16  2  0
 16 17  1  0
 17 18  2  0
 17 19  1  0
 19 20  1  0
  7 21  1  0
 21 22  2  0
 22 23  1  0
 23 24  1  0
 22  4  1  0
 19  8  2  0
 16 10  1  0
  1 25  1  0
  1 26  1  0
  1 27  1  0
  2 28  1  0
  2 29  1  0
  3 30  1  0
  3 31  1  0
  5 32  1  0
  6 33  1  0
 11 34  1  0
 12 35  1  0
 13 36  1  0
 15 37  1  0
 20 38  1  0
 21 39  1  0
 23 40  1  0
 23 41  1  0
 24 42  1  0
 24 43  1  0
 24 44  1  0
M  END
>  <meeko>  (7) 
{"is_sidechain": [false], "free_energy": -5.389, "intermolecular_energy": -7.073, "internal_energy": -0.43}

$$$$
cand_053_out
     RDKit          3D

 44 46  0  0  0  0  0  0  0  0999 V2000
  181.9910   15.0980   43.1760 C   0  0  0  0  0  0  0  0  0  0  0  0
  181.7150   16.5670   42.8960 C   0  0  0  0  0  0  0  0  0  0  0  0
  182.2820   17.4610   44.0010 C   0  0  0  0  0  0  0  0  0  0  0  0
  181.1870   18.1980   44.7430 C   0  0  0  0  0  0  0  0  0  0  0  0
  179.9970   17.5050   45.0230 C   0  0  0  0  0  0  0  0  0  0  0  0
  178.9510   18.1170   45.7150 C   0  0  0  0  0  0  0  0  0  0  0  0
  179.0650   19.4380   46.1580 C   0  0  0  0  0  0  0  0  0  0  0  0
  177.9350   20.0800   46.8620 C   0  0  0  0  0  0  0  0  0  0  0  0
  178.2530   21.3390   47.3600 O   0  0  0  0  0  0  0  0  0  0  0  0
  177.2940   22.0470   48.0380 C   0  0  0  0  0  0  0  0  0  0  0  0
  177.6620   23.2980   48.5330 C   0  0  0  0  0  0  0  0  0  0  0  0
  176.7320   24.0730   49.2310 C   0  0  0  0  0  0  0  0  0  0  0  0
  175.4350   23.5950   49.4330 C   0  0  0  0  0  0  0  0  0  0  0  0
  175.0710   22.3460   48.9370 C   0  0  0  0  0  0  0  0  0  0  0  0
  173.7860   21.9400   49.1700 O   0  0  0  0  0  0  0  0  0  0  0  0
  176.0020   21.5720   48.2400 C   0  0  0  0  0  0  0  0  0  0  0  0
  175.6610   20.2540   47.7020 C   0  0  0  0  0  0  0  0  0  0  0  0
  174.5380   19.7700   47.8320 O   0  0  0  0  0  0  0  0  0  0  0  0
  176.7220   19.5100   46.9860 C   0  0  0  0  0  0  0  0  0  0  0  0
  176.3830   18.2710   46.4710 O   0  0  0  0  0  0  0  0  0  0  0  0
  180.2500   20.1320   45.8760 C   0  0  0  0  0  0  0  0  0  0  0  0
  181.3210   19.5280   45.1850 C   0  0  0  0  0  0  0  0  0  0  0  0
  182.5560   20.3620   44.9270 C   0  0  0  0  0  0  0  0  0  0  0  0
  182.6690   21.5270   45.8990 C   0  0  0  0  0  0  0  0  0  0  0  0
  182.0223   14.9315   44.2629 H   0  0  0  0  0  0  0  0  0  0  0  0
  181.1925   14.4841   42.7338 H   0  0  0  0  0  0  0  0  0  0  0  0
  182.9579   14.8158   42.7338 H   0  0  0  0  0  0  0  0  0  0  0  0
  182.1805   16.8426   41.9382 H   0  0  0  0  0  0  0  0  0  0  0  0
  180.6255   16.7136   42.8563 H   0  0  0  0  0  0  0  0  0  0  0  0
  182.8379   16.8357   44.7152 H   0  0  0  0  0  0  0  0  0  0  0  0
  182.9413   18.2072   43.5335 H   0  0  0  0  0  0  0  0  0  0  0  0
  179.8881   16.4620   44.6909 H   0  0  0  0  0  0  0  0  0  0  0  0
  178.0271   17.5541   45.9140 H   0  0  0  0  0  0  0  0  0  0  0  0
  178.6834   23.6742   48.3741 H   0  0  0  0  0  0  0  0  0  0  0  0
  177.0213   25.0598   49.6215 H   0  0  0  0  0  0  0  0  0  0  0  0
  174.7026   24.2043   49.9829 H   0  0  0  0  0  0  0  0  0  0  0  0
  173.0910   22.5690   49.1790 H   0  0  0  0  0  0  0  0  0  0  0  0
  176.4990   18.0970   45.5580 H   0  0  0  0  0  0  0  0  0  0  0  0
  180.3473   21.1777   46.2031 H   0  0  0  0  0  0  0  0  0  0  0  0
  183.4450   19.7229   45.0334 H   0  0  0  0  0  0  0  0  0  0  0  0
  182.4821   20.7737   43.9096 H   0  0  0  0  0  0  0  0  0  0  0  0
  182.6323   21.1483   46.9311 H   0  0  0  0  0  0  0  0  0  0  0  0
  183.6222   22.0508   45.7343 H   0  0  0  0  0  0  0  0  0  0  0  0
  181.8343   22.2242   45.7343 H   0  0  0  0  0  0  0  0  0  0  0  0
  1  2  1  0
  2  3  1  0
  3  4  1  0
  4  5  2  0
  5  6  1  0
  6  7  2  0
  7  8  1  0
  8  9  1  0
  9 10  1  0
 10 11  2  0
 11 12  1  0
 12 13  2  0
 13 14  1  0
 14 15  1  0
 14 16  2  0
 16 17  1  0
 17 18  2  0
 17 19  1  0
 19 20  1  0
  7 21  1  0
 21 22  2  0
 22 23  1  0
 23 24  1  0
 22  4  1  0
 19  8  2  0
 16 10  1  0
  1 25  1  0
  1 26  1  0
  1 27  1  0
  2 28  1  0
  2 29  1  0
  3 30  1  0
  3 31  1  0
  5 32  1  0
  6 33  1  0
 11 34  1  0
 12 35  1  0
 13 36  1  0
 15 37  1  0
 20 38  1  0
 21 39  1  0
 23 40  1  0
 23 41  1  0
 24 42  1  0
 24 43  1  0
 24 44  1  0
M  END
>  <meeko>  (8) 
{"is_sidechain": [false], "free_energy": -5.316, "intermolecular_energy": -7.391, "internal_energy": -0.017}

$$$$
cand_053_out
     RDKit          3D

 44 46  0  0  0  0  0  0  0  0999 V2000
  176.5510   19.7880   46.9120 C   0  0  0  0  0  0  0  0  0  0  0  0
  177.6530   19.7640   45.8640 C   0  0  0  0  0  0  0  0  0  0  0  0
  178.9070   19.0640   46.3900 C   0  0  0  0  0  0  0  0  0  0  0  0
  180.1380   19.9320   46.2420 C   0  0  0  0  0  0  0  0  0  0  0  0
  181.1240   19.5290   45.3240 C   0  0  0  0  0  0  0  0  0  0  0  0
  182.2790   20.2890   45.1260 C   0  0  0  0  0  0  0  0  0  0  0  0
  182.4800   21.4790   45.8310 C   0  0  0  0  0  0  0  0  0  0  0  0
  183.7230   22.2530   45.6300 C   0  0  0  0  0  0  0  0  0  0  0  0
  184.3150   22.0140   44.3940 O   0  0  0  0  0  0  0  0  0  0  0  0
  185.4780   22.6680   44.0770 C   0  0  0  0  0  0  0  0  0  0  0  0
  186.0440   22.3860   42.8330 C   0  0  0  0  0  0  0  0  0  0  0  0
  187.2280   23.0190   42.4460 C   0  0  0  0  0  0  0  0  0  0  0  0
  187.8430   23.9350   43.3030 C   0  0  0  0  0  0  0  0  0  0  0  0
  187.2750   24.2140   44.5430 C   0  0  0  0  0  0  0  0  0  0  0  0
  187.9300   25.1200   45.3320 O   0  0  0  0  0  0  0  0  0  0  0  0
  186.0920   23.5790   44.9300 C   0  0  0  0  0  0  0  0  0  0  0  0
  185.4620   23.8440   46.2240 C   0  0  0  0  0  0  0  0  0  0  0  0
  185.9390   24.6430   47.0280 O   0  0  0  0  0  0  0  0  0  0  0  0
  184.2140   23.1140   46.5410 C   0  0  0  0  0  0  0  0  0  0  0  0
  183.6200   23.3820   47.7620 O   0  0  0  0  0  0  0  0  0  0  0  0
  181.5000   21.8810   46.7480 C   0  0  0  0  0  0  0  0  0  0  0  0
  180.3230   21.1320   46.9570 C   0  0  0  0  0  0  0  0  0  0  0  0
  179.3270   21.6470   47.9720 C   0  0  0  0  0  0  0  0  0  0  0  0
  178.7240   22.9790   47.5510 C   0  0  0  0  0  0  0  0  0  0  0  0
  176.9998   19.7782   47.9162 H   0  0  0  0  0  0  0  0  0  0  0  0
  175.9477   20.6995   46.7888 H   0  0  0  0  0  0  0  0  0  0  0  0
  175.9086   18.9036   46.7888 H   0  0  0  0  0  0  0  0  0  0  0  0
  177.2899   19.2277   44.9749 H   0  0  0  0  0  0  0  0  0  0  0  0
  177.9152   20.8024   45.6130 H   0  0  0  0  0  0  0  0  0  0  0  0
  178.7633   18.8283   47.4548 H   0  0  0  0  0  0  0  0  0  0  0  0
  179.0608   18.1484   45.8001 H   0  0  0  0  0  0  0  0  0  0  0  0
  180.9833   18.5998   44.7523 H   0  0  0  0  0  0  0  0  0  0  0  0
  183.0386   19.9473   44.4075 H   0  0  0  0  0  0  0  0  0  0  0  0
  185.5585   21.6661   42.1577 H   0  0  0  0  0  0  0  0  0  0  0  0
  187.6759   22.7961   41.4664 H   0  0  0  0  0  0  0  0  0  0  0  0
  188.7744   24.4349   42.9986 H   0  0  0  0  0  0  0  0  0  0  0  0
  187.5440   25.9570   45.5040 H   0  0  0  0  0  0  0  0  0  0  0  0
  182.9660   22.8050   48.1010 H   0  0  0  0  0  0  0  0  0  0  0  0
  181.6527   22.8072   47.3214 H   0  0  0  0  0  0  0  0  0  0  0  0
  178.5182   20.9096   48.0822 H   0  0  0  0  0  0  0  0  0  0  0  0
  179.8579   21.7990   48.9233 H   0  0  0  0  0  0  0  0  0  0  0  0
  178.4603   23.5614   48.4461 H   0  0  0  0  0  0  0  0  0  0  0  0
  179.4561   23.5397   46.9512 H   0  0  0  0  0  0  0  0  0  0  0  0
  177.8196   22.7989   46.9512 H   0  0  0  0  0  0  0  0  0  0  0  0
  1  2  1  0
  2  3  1  0
  3  4  1  0
  4  5  2  0
  5  6  1  0
  6  7  2  0
  7  8  1  0
  8  9  1  0
  9 10  1  0
 10 11  2  0
 11 12  1  0
 12 13  2  0
 13 14  1  0
 14 15  1  0
 14 16  2  0
 16 17  1  0
 17 18  2  0
 17 19  1  0
 19 20  1  0
  7 21  1  0
 21 22  2  0
 22 23  1  0
 23 24  1  0
 22  4  1  0
 19  8  2  0
 16 10  1  0
  1 25  1  0
  1 26  1  0
  1 27  1  0
  2 28  1  0
  2 29  1  0
  3 30  1  0
  3 31  1  0
  5 32  1  0
  6 33  1  0
 11 34  1  0
 12 35  1  0
 13 36  1  0
 15 37  1  0
 20 38  1  0
 21 39  1  0
 23 40  1  0
 23 41  1  0
 24 42  1  0
 24 43  1  0
 24 44  1  0
M  END
>  <meeko>  (9) 
{"is_sidechain": [false], "free_energy": -5.221, "intermolecular_energy": -7.212, "internal_energy": -0.074}

$$$$
