cand_032_out
     RDKit          3D

 43 45  0  0  0  0  0  0  0  0999 V2000
  175.5230   20.0250   49.9500 C   0  0  0  0  0  0  0  0  0  0  0  0
  176.4500   21.2110   50.1790 C   0  0  0  0  0  0  0  0  0  0  0  0
  176.6100   21.9840   48.9330 N   0  0  0  0  0  0  0  0  0  0  0  0
  176.2990   23.4150   49.0470 C   0  0  0  0  0  0  0  0  0  0  0  0
  177.8720   21.7850   48.3260 C   0  0  0  0  0  0  0  0  0  0  0  0
  179.0590   22.2480   48.9270 C   0  0  0  0  0  0  0  0  0  0  0  0
  180.3150   22.0490   48.3350 C   0  0  0  0  0  0  0  0  0  0  0  0
  181.5560   22.5540   48.9580 C   0  0  0  0  0  0  0  0  0  0  0  0
  181.9490   23.7900   48.4560 O   0  0  0  0  0  0  0  0  0  0  0  0
  183.0890   24.3740   48.9480 C   0  0  0  0  0  0  0  0  0  0  0  0
  183.4380   25.6200   48.4280 C   0  0  0  0  0  0  0  0  0  0  0  0
  184.5880   26.2680   48.8830 C   0  0  0  0  0  0  0  0  0  0  0  0
  185.3880   25.6710   49.8600 C   0  0  0  0  0  0  0  0  0  0  0  0
  185.0370   24.4270   50.3780 C   0  0  0  0  0  0  0  0  0  0  0  0
  185.8640   23.8990   51.3310 O   0  0  0  0  0  0  0  0  0  0  0  0
  183.8870   23.7790   49.9210 C   0  0  0  0  0  0  0  0  0  0  0  0
  183.4810   22.4710   50.4390 C   0  0  0  0  0  0  0  0  0  0  0  0
  184.1360   21.8780   51.2950 O   0  0  0  0  0  0  0  0  0  0  0  0
  182.2410   21.8730   49.8950 C   0  0  0  0  0  0  0  0  0  0  0  0
  181.8760   20.6310   50.3820 O   0  0  0  0  0  0  0  0  0  0  0  0
  180.3710   21.3900   47.1030 C   0  0  0  0  0  0  0  0  0  0  0  0
  179.2050   20.9270   46.4910 C   0  0  0  0  0  0  0  0  0  0  0  0
  177.9470   21.1160   47.0920 C   0  0  0  0  0  0  0  0  0  0  0  0
  176.7020   20.5980   46.4120 C   0  0  0  0  0  0  0  0  0  0  0  0
  175.6530   21.4690   46.4520 F   0  0  0  0  0  0  0  0  0  0  0  0
  176.8970   20.3520   45.0780 F   0  0  0  0  0  0  0  0  0  0  0  0
  176.2480   19.4160   46.9190 F   0  0  0  0  0  0  0  0  0  0  0  0
  175.2037   19.6165   50.9202 H   0  0  0  0  0  0  0  0  0  0  0  0
  174.6402   20.3539   49.3822 H   0  0  0  0  0  0  0  0  0  0  0  0
  176.0554   19.2477   49.3822 H   0  0  0  0  0  0  0  0  0  0  0  0
  176.0224   21.8608   50.9568 H   0  0  0  0  0  0  0  0  0  0  0  0
  177.4348   20.8389   50.4981 H   0  0  0  0  0  0  0  0  0  0  0  0
  176.2385   23.6936   50.1094 H   0  0  0  0  0  0  0  0  0  0  0  0
  177.0905   24.0023   48.5585 H   0  0  0  0  0  0  0  0  0  0  0  0
  175.3352   23.6208   48.5585 H   0  0  0  0  0  0  0  0  0  0  0  0
  178.9992   22.7806   49.8876 H   0  0  0  0  0  0  0  0  0  0  0  0
  182.8077   26.0920   47.6599 H   0  0  0  0  0  0  0  0  0  0  0  0
  184.8644   27.2500   48.4715 H   0  0  0  0  0  0  0  0  0  0  0  0
  186.2932   26.1823   50.2194 H   0  0  0  0  0  0  0  0  0  0  0  0
  186.3790   24.4660   51.8720 H   0  0  0  0  0  0  0  0  0  0  0  0
  182.2680   20.3010   51.1660 H   0  0  0  0  0  0  0  0  0  0  0  0
  181.3428   21.2350   46.6116 H   0  0  0  0  0  0  0  0  0  0  0  0
  179.2707   20.4065   45.5242 H   0  0  0  0  0  0  0  0  0  0  0  0
  1  2  1  0
  2  3  1  0
  3  4  1  0
  3  5  1  0
  5  6  2  0
  6  7  1  0
  7  8  1  0
  8  9  1  0
  9 10  1  0
 10 11  2  0
 11 12  1  0
 12 13  2  0
 13 14  1  0
 14 15  1  0
 14 16  2  0
 16 17  1  0
 17 18  2  0
 17 19  1  0
 19 20  1  0
  7 21  2  0
 21 22  1  0
 22 23  2  0
 23 24  1  0
 24 25  1  0
 24 26  1  0
 24 27  1  0
 23  5  1  0
 19  8  2  0
 16 10  1  0
  1 28  1  0
  1 29  1  0
  1 30  1  0
  2 31  1  0
  2 32  1  0
  4 33  1  0
  4 34  1  0
  4 35  1  0
  6 36  1  0
 11 37  1  0
 12 38  1  0
 13 39  1  0
 15 40  1  0
 20 41  1  0
 21 42  1  0
 22 43  1  0
M  END
>  <meeko>  (1) 
{"is_sidechain": [false], "free_energy": -7.178, "intermolecular_energy": -9.276, "internal_energy": -0.769}

$$$$
cand_032_out
     RDKit          3D

 43 45  0  0  0  0  0  0  0  0999 V2000
  175.2860   21.4420   49.9990 C   0  0  0  0  0  0  0  0  0  0  0  0
  176.7730   21.7050   49.8060 C   0  0  0  0  0  0  0  0  0  0  0  0
  177.0580   22.0190   48.3920 N   0  0  0  0  0  0  0  0  0  0  0  0
  177.0490   23.4500   48.0610 C   0  0  0  0  0  0  0  0  0  0  0  0
  178.2370   21.3960   47.9220 C   0  0  0  0  0  0  0  0  0  0  0  0
  179.5120   21.9240   48.2040 C   0  0  0  0  0  0  0  0  0  0  0  0
  180.6870   21.3090   47.7470 C   0  0  0  0  0  0  0  0  0  0  0  0
  182.0220   21.8760   48.0280 C   0  0  0  0  0  0  0  0  0  0  0  0
  182.5910   22.4940   46.9200 O   0  0  0  0  0  0  0  0  0  0  0  0
  183.8330   23.0630   47.0420 C   0  0  0  0  0  0  0  0  0  0  0  0
  184.3590   23.6850   45.9100 C   0  0  0  0  0  0  0  0  0  0  0  0
  185.6210   24.2820   45.9660 C   0  0  0  0  0  0  0  0  0  0  0  0
  186.3550   24.2590   47.1540 C   0  0  0  0  0  0  0  0  0  0  0  0
  185.8260   23.6380   48.2830 C   0  0  0  0  0  0  0  0  0  0  0  0
  186.5970   23.6510   49.4130 O   0  0  0  0  0  0  0  0  0  0  0  0
  184.5650   23.0400   48.2260 C   0  0  0  0  0  0  0  0  0  0  0  0
  183.9720   22.3780   49.3890 C   0  0  0  0  0  0  0  0  0  0  0  0
  184.5580   22.3090   50.4680 O   0  0  0  0  0  0  0  0  0  0  0  0
  182.6260   21.7820   49.2270 C   0  0  0  0  0  0  0  0  0  0  0  0
  182.0830   21.1460   50.3290 O   0  0  0  0  0  0  0  0  0  0  0  0
  180.5700   20.1510   46.9720 C   0  0  0  0  0  0  0  0  0  0  0  0
  179.3150   19.6140   46.6790 C   0  0  0  0  0  0  0  0  0  0  0  0
  178.1390   20.2260   47.1480 C   0  0  0  0  0  0  0  0  0  0  0  0
  176.7940   19.6200   46.8240 C   0  0  0  0  0  0  0  0  0  0  0  0
  175.9180   20.5010   46.2610 F   0  0  0  0  0  0  0  0  0  0  0  0
  176.8860   18.5970   45.9170 F   0  0  0  0  0  0  0  0  0  0  0  0
  176.1610   19.0730   47.9000 F   0  0  0  0  0  0  0  0  0  0  0  0
  175.0573   21.4016   51.0742 H   0  0  0  0  0  0  0  0  0  0  0  0
  174.7067   22.2516   49.5311 H   0  0  0  0  0  0  0  0  0  0  0  0
  175.0195   20.4828   49.5311 H   0  0  0  0  0  0  0  0  0  0  0  0
  177.0758   22.5553   50.4348 H   0  0  0  0  0  0  0  0  0  0  0  0
  177.3360   20.8048   50.0933 H   0  0  0  0  0  0  0  0  0  0  0  0
  177.0453   24.0409   48.9888 H   0  0  0  0  0  0  0  0  0  0  0  0
  177.9456   23.6960   47.4732 H   0  0  0  0  0  0  0  0  0  0  0  0
  176.1494   23.6847   47.4732 H   0  0  0  0  0  0  0  0  0  0  0  0
  179.5885   22.8454   48.7999 H   0  0  0  0  0  0  0  0  0  0  0  0
  183.7811   23.7056   44.9743 H   0  0  0  0  0  0  0  0  0  0  0  0
  186.0372   24.7710   45.0729 H   0  0  0  0  0  0  0  0  0  0  0  0
  187.3481   24.7300   47.1979 H   0  0  0  0  0  0  0  0  0  0  0  0
  187.5100   23.8560   49.3550 H   0  0  0  0  0  0  0  0  0  0  0  0
  181.2020   21.3290   50.5870 H   0  0  0  0  0  0  0  0  0  0  0  0
  181.4759   19.6582   46.5893 H   0  0  0  0  0  0  0  0  0  0  0  0
  179.2451   18.6990   46.0725 H   0  0  0  0  0  0  0  0  0  0  0  0
  1  2  1  0
  2  3  1  0
  3  4  1  0
  3  5  1  0
  5  6  2  0
  6  7  1  0
  7  8  1  0
  8  9  1  0
  9 10  1  0
 10 11  2  0
 11 12  1  0
 12 13  2  0
 13 14  1  0
 14 15  1  0
 14 16  2  0
 16 17  1  0
 17 18  2  0
 17 19  1  0
 19 20  1  0
  7 21  2  0
 21 22  1  0
 22 23  2  0
 23 24  1  0
 24 25  1  0
 24 26  1  0
 24 27  1  0
 23  5  1  0
 19  8  2  0
 16 10  1  0
  1 28  1  0
  1 29  1  0
  1 30  1  0
  2 31  1  0
  2 32  1  0
  4 33  1  0
  4 34  1  0
  4 35  1  0
  6 36  1  0
 11 37  1  0
 12 38  1  0
 13 39  1  0
 15 40  1  0
 20 41  1  0
 21 42  1  0
 22 43  1  0
M  END
>  <meeko>  (2) 
{"is_sidechain": [false], "free_energy": -7.166, "intermolecular_energy": -9.23, "internal_energy": -0.799}

$$$$
cand_032_out
     RDKit          3D

 43 45  0  0  0  0  0  0  0  0999 V2000
  183.1790   22.6630   46.8830 C   0  0  0  0  0  0  0  0  0  0  0  0
  181.8400   22.7790   47.6000 C   0  0  0  0  0  0  0  0  0  0  0  0
  181.4500   21.4740   48.1690 N   0  0  0  0  0  0  0  0  0  0  0  0
  181.9820   21.1990   49.5100 C   0  0  0  0  0  0  0  0  0  0  0  0
  180.0540   21.2540   48.1200 C   0  0  0  0  0  0  0  0  0  0  0  0
  179.1840   21.8370   49.0630 C   0  0  0  0  0  0  0  0  0  0  0  0
  177.7970   21.6290   49.0190 C   0  0  0  0  0  0  0  0  0  0  0  0
  176.8890   22.2250   50.0210 C   0  0  0  0  0  0  0  0  0  0  0  0
  175.7200   22.7280   49.4600 O   0  0  0  0  0  0  0  0  0  0  0  0
  174.7880   23.3120   50.2800 C   0  0  0  0  0  0  0  0  0  0  0  0
  173.6250   23.7890   49.6770 C   0  0  0  0  0  0  0  0  0  0  0  0
  172.6360   24.3970   50.4540 C   0  0  0  0  0  0  0  0  0  0  0  0
  172.8110   24.5260   51.8340 C   0  0  0  0  0  0  0  0  0  0  0  0
  173.9740   24.0480   52.4330 C   0  0  0  0  0  0  0  0  0  0  0  0
  174.0810   24.2070   53.7870 O   0  0  0  0  0  0  0  0  0  0  0  0
  174.9620   23.4400   51.6550 C   0  0  0  0  0  0  0  0  0  0  0  0
  176.1990   22.9240   52.2440 C   0  0  0  0  0  0  0  0  0  0  0  0
  176.4300   23.0060   53.4490 O   0  0  0  0  0  0  0  0  0  0  0  0
  177.1800   22.2910   51.3330 C   0  0  0  0  0  0  0  0  0  0  0  0
  178.3510   21.8200   51.8990 O   0  0  0  0  0  0  0  0  0  0  0  0
  177.2820   20.8000   48.0170 C   0  0  0  0  0  0  0  0  0  0  0  0
  178.1290   20.2120   47.0760 C   0  0  0  0  0  0  0  0  0  0  0  0
  179.5180   20.4310   47.1150 C   0  0  0  0  0  0  0  0  0  0  0  0
  180.4110   19.7890   46.0800 C   0  0  0  0  0  0  0  0  0  0  0  0
  181.5290   19.2090   46.6050 F   0  0  0  0  0  0  0  0  0  0  0  0
  179.7830   18.7770   45.4020 F   0  0  0  0  0  0  0  0  0  0  0  0
  180.8340   20.6460   45.1080 F   0  0  0  0  0  0  0  0  0  0  0  0
  183.9876   22.5929   47.6254 H   0  0  0  0  0  0  0  0  0  0  0  0
  183.1806   21.7614   46.2529 H   0  0  0  0  0  0  0  0  0  0  0  0
  183.3357   23.5509   46.2529 H   0  0  0  0  0  0  0  0  0  0  0  0
  181.9250   23.5177   48.4106 H   0  0  0  0  0  0  0  0  0  0  0  0
  181.0737   23.0986   46.8784 H   0  0  0  0  0  0  0  0  0  0  0  0
  181.2736   21.5652   50.2677 H   0  0  0  0  0  0  0  0  0  0  0  0
  182.1230   20.1151   49.6333 H   0  0  0  0  0  0  0  0  0  0  0  0
  182.9478   21.7108   49.6333 H   0  0  0  0  0  0  0  0  0  0  0  0
  179.6041   22.4731   49.8560 H   0  0  0  0  0  0  0  0  0  0  0  0
  173.4863   23.6867   48.5906 H   0  0  0  0  0  0  0  0  0  0  0  0
  171.7186   24.7745   49.9788 H   0  0  0  0  0  0  0  0  0  0  0  0
  172.0320   25.0040   52.4461 H   0  0  0  0  0  0  0  0  0  0  0  0
  174.8690   24.5510   54.1590 H   0  0  0  0  0  0  0  0  0  0  0  0
  178.8040   22.3360   52.5350 H   0  0  0  0  0  0  0  0  0  0  0  0
  176.1996   20.6097   47.9701 H   0  0  0  0  0  0  0  0  0  0  0  0
  177.7039   19.5678   46.2923 H   0  0  0  0  0  0  0  0  0  0  0  0
  1  2  1  0
  2  3  1  0
  3  4  1  0
  3  5  1  0
  5  6  2  0
  6  7  1  0
  7  8  1  0
  8  9  1  0
  9 10  1  0
 10 11  2  0
 11 12  1  0
 12 13  2  0
 13 14  1  0
 14 15  1  0
 14 16  2  0
 16 17  1  0
 17 18  2  0
 17 19  1  0
 19 20  1  0
  7 21  2  0
 21 22  1  0
 22 23  2  0
 23 24  1  0
 24 25  1  0
 24 26  1  0
 24 27  1  0
 23  5  1  0
 19  8  2  0
 16 10  1  0
  1 28  1  0
  1 29  1  0
  1 30  1  0
  2 31  1  0
  2 32  1  0
  4 33  1  0
  4 34  1  0
  4 35  1  0
  6 36  1  0
 11 37  1  0
 12 38  1  0
 13 39  1  0
 15 40  1  0
 20 41  1  0
 21 42  1  0
 22 43  1  0
M  END
>  <meeko>  (3) 
{"is_sidechain": [false], "free_energy": -7.067, "intermolecular_energy": -9.48, "internal_energy": -0.422}

$$$$
cand_032_out
     RDKit          3D

 43 45  0  0  0  0  0  0  0  0999 V2000
  172.4810   26.8950   52.7370 C   0  0  0  0  0  0  0  0  0  0  0  0
  173.7490   26.1640   52.3200 C   0  0  0  0  0  0  0  0  0  0  0  0
  173.9070   26.2090   50.8530 N   0  0  0  0  0  0  0  0  0  0  0  0
  174.7720   27.2860   50.3550 C   0  0  0  0  0  0  0  0  0  0  0  0
  174.2830   24.9600   50.3070 C   0  0  0  0  0  0  0  0  0  0  0  0
  175.6110   24.4940   50.3830 C   0  0  0  0  0  0  0  0  0  0  0  0
  175.9920   23.2540   49.8490 C   0  0  0  0  0  0  0  0  0  0  0  0
  177.3900   22.7770   49.9120 C   0  0  0  0  0  0  0  0  0  0  0  0
  177.7860   22.1110   48.7580 O   0  0  0  0  0  0  0  0  0  0  0  0
  179.0630   21.6140   48.6840 C   0  0  0  0  0  0  0  0  0  0  0  0
  179.4230   20.9660   47.5020 C   0  0  0  0  0  0  0  0  0  0  0  0
  180.7070   20.4340   47.3620 C   0  0  0  0  0  0  0  0  0  0  0  0
  181.6310   20.5520   48.4030 C   0  0  0  0  0  0  0  0  0  0  0  0
  181.2680   21.2010   49.5810 C   0  0  0  0  0  0  0  0  0  0  0  0
  182.2210   21.2810   50.5600 O   0  0  0  0  0  0  0  0  0  0  0  0
  179.9840   21.7310   49.7210 C   0  0  0  0  0  0  0  0  0  0  0  0
  179.5620   22.4200   50.9420 C   0  0  0  0  0  0  0  0  0  0  0  0
  180.3150   22.5590   51.9040 O   0  0  0  0  0  0  0  0  0  0  0  0
  178.1820   22.9540   50.9860 C   0  0  0  0  0  0  0  0  0  0  0  0
  177.7900   23.5900   52.1500 O   0  0  0  0  0  0  0  0  0  0  0  0
  175.0200   22.4800   49.2080 C   0  0  0  0  0  0  0  0  0  0  0  0
  173.7000   22.9270   49.1210 C   0  0  0  0  0  0  0  0  0  0  0  0
  173.3160   24.1650   49.6670 C   0  0  0  0  0  0  0  0  0  0  0  0
  171.8810   24.6200   49.5660 C   0  0  0  0  0  0  0  0  0  0  0  0
  171.7430   25.9100   49.1430 F   0  0  0  0  0  0  0  0  0  0  0  0
  171.1590   23.8820   48.6640 F   0  0  0  0  0  0  0  0  0  0  0  0
  171.1850   24.5160   50.7330 F   0  0  0  0  0  0  0  0  0  0  0  0
  172.4217   26.9292   53.8349 H   0  0  0  0  0  0  0  0  0  0  0  0
  172.5010   27.9202   52.3388 H   0  0  0  0  0  0  0  0  0  0  0  0
  171.6038   26.3640   52.3388 H   0  0  0  0  0  0  0  0  0  0  0  0
  174.6176   26.6450   52.7935 H   0  0  0  0  0  0  0  0  0  0  0  0
  173.6787   25.1141   52.6404 H   0  0  0  0  0  0  0  0  0  0  0  0
  175.2082   27.8292   51.2063 H   0  0  0  0  0  0  0  0  0  0  0  0
  175.5781   26.8554   49.7428 H   0  0  0  0  0  0  0  0  0  0  0  0
  174.1776   27.9802   49.7428 H   0  0  0  0  0  0  0  0  0  0  0  0
  176.3699   25.1202   50.8748 H   0  0  0  0  0  0  0  0  0  0  0  0
  178.6965   20.8741   46.6812 H   0  0  0  0  0  0  0  0  0  0  0  0
  180.9908   19.9216   46.4310 H   0  0  0  0  0  0  0  0  0  0  0  0
  182.6424   20.1336   48.2929 H   0  0  0  0  0  0  0  0  0  0  0  0
  182.9480   20.6890   50.5570 H   0  0  0  0  0  0  0  0  0  0  0  0
  177.0810   23.2470   52.6550 H   0  0  0  0  0  0  0  0  0  0  0  0
  175.2975   21.5106   48.7684 H   0  0  0  0  0  0  0  0  0  0  0  0
  172.9486   22.3010   48.6175 H   0  0  0  0  0  0  0  0  0  0  0  0
  1  2  1  0
  2  3  1  0
  3  4  1  0
  3  5  1  0
  5  6  2  0
  6  7  1  0
  7  8  1  0
  8  9  1  0
  9 10  1  0
 10 11  2  0
 11 12  1  0
 12 13  2  0
 13 14  1  0
 14 15  1  0
 14 16  2  0
 16 17  1  0
 17 18  2  0
 17 19  1  0
 19 20  1  0
  7 21  2  0
 21 22  1  0
 22 23  2  0
 23 24  1  0
 24 25  1  0
 24 26  1  0
 24 27  1  0
 23  5  1  0
 19  8  2  0
 16 10  1  0
  1 28  1  0
  1 29  1  0
  1 30  1  0
  2 31  1  0
  2 32  1  0
  4 33  1  0
  4 34  1  0
  4 35  1  0
  6 36  1  0
 11 37  1  0
 12 38  1  0
 13 39  1  0
 15 40  1  0
 20 41  1  0
 21 42  1  0
 22 43  1  0
M  END
>  <meeko>  (4) 
{"is_sidechain": [false], "free_energy": -6.911, "intermolecular_energy": -9.254, "internal_energy": -0.447}

$$$$
cand_032_out
     RDKit          3D

 43 45  0  0  0  0  0  0  0  0999 V2000
  175.4970   18.1350   46.9260 C   0  0  0  0  0  0  0  0  0  0  0  0
  175.8910   19.2010   47.9390 C   0  0  0  0  0  0  0  0  0  0  0  0
  176.5070   20.3540   47.2550 N   0  0  0  0  0  0  0  0  0  0  0  0
  175.5680   21.2180   46.5270 C   0  0  0  0  0  0  0  0  0  0  0  0
  177.3400   21.1140   48.1090 C   0  0  0  0  0  0  0  0  0  0  0  0
  176.8080   21.8750   49.1690 C   0  0  0  0  0  0  0  0  0  0  0  0
  177.6270   22.6260   50.0250 C   0  0  0  0  0  0  0  0  0  0  0  0
  177.0640   23.4390   51.1230 C   0  0  0  0  0  0  0  0  0  0  0  0
  177.0490   24.7990   50.8370 O   0  0  0  0  0  0  0  0  0  0  0  0
  176.5530   25.6700   51.7740 C   0  0  0  0  0  0  0  0  0  0  0  0
  176.5430   27.0240   51.4380 C   0  0  0  0  0  0  0  0  0  0  0  0
  176.0530   27.9630   52.3480 C   0  0  0  0  0  0  0  0  0  0  0  0
  175.5720   27.5490   53.5920 C   0  0  0  0  0  0  0  0  0  0  0  0
  175.5820   26.1960   53.9230 C   0  0  0  0  0  0  0  0  0  0  0  0
  175.0970   25.8590   55.1570 O   0  0  0  0  0  0  0  0  0  0  0  0
  176.0730   25.2570   53.0130 C   0  0  0  0  0  0  0  0  0  0  0  0
  176.1020   23.8260   53.3210 C   0  0  0  0  0  0  0  0  0  0  0  0
  175.7020   23.3840   54.3970 O   0  0  0  0  0  0  0  0  0  0  0  0
  176.6340   22.9120   52.2850 C   0  0  0  0  0  0  0  0  0  0  0  0
  176.6690   21.5640   52.5930 O   0  0  0  0  0  0  0  0  0  0  0  0
  179.0060   22.6270   49.7920 C   0  0  0  0  0  0  0  0  0  0  0  0
  179.5510   21.8820   48.7450 C   0  0  0  0  0  0  0  0  0  0  0  0
  178.7290   21.1190   47.8950 C   0  0  0  0  0  0  0  0  0  0  0  0
  179.3450   20.3160   46.7750 C   0  0  0  0  0  0  0  0  0  0  0  0
  179.0110   20.7640   45.5300 F   0  0  0  0  0  0  0  0  0  0  0  0
  180.7150   20.3490   46.7980 F   0  0  0  0  0  0  0  0  0  0  0  0
  179.0310   18.9890   46.8090 F   0  0  0  0  0  0  0  0  0  0  0  0
  175.1629   17.2310   47.4562 H   0  0  0  0  0  0  0  0  0  0  0  0
  174.6793   18.5133   46.2949 H   0  0  0  0  0  0  0  0  0  0  0  0
  176.3642   17.8905   46.2949 H   0  0  0  0  0  0  0  0  0  0  0  0
  174.9940   19.5367   48.4800 H   0  0  0  0  0  0  0  0  0  0  0  0
  176.6183   18.7730   48.6446 H   0  0  0  0  0  0  0  0  0  0  0  0
  174.9554   21.7816   47.2461 H   0  0  0  0  0  0  0  0  0  0  0  0
  176.1309   21.9206   45.8949 H   0  0  0  0  0  0  0  0  0  0  0  0
  174.9146   20.5987   45.8949 H   0  0  0  0  0  0  0  0  0  0  0  0
  175.7198   21.8802   49.3297 H   0  0  0  0  0  0  0  0  0  0  0  0
  176.9204   27.3513   50.4580 H   0  0  0  0  0  0  0  0  0  0  0  0
  176.0458   29.0309   52.0845 H   0  0  0  0  0  0  0  0  0  0  0  0
  175.1863   28.2893   54.3084 H   0  0  0  0  0  0  0  0  0  0  0  0
  174.3700   25.2730   55.2310 H   0  0  0  0  0  0  0  0  0  0  0  0
  176.0810   21.2150   53.2310 H   0  0  0  0  0  0  0  0  0  0  0  0
  179.6675   23.2206   50.4401 H   0  0  0  0  0  0  0  0  0  0  0  0
  180.6388   21.8914   48.5819 H   0  0  0  0  0  0  0  0  0  0  0  0
  1  2  1  0
  2  3  1  0
  3  4  1  0
  3  5  1  0
  5  6  2  0
  6  7  1  0
  7  8  1  0
  8  9  1  0
  9 10  1  0
 10 11  2  0
 11 12  1  0
 12 13  2  0
 13 14  1  0
 14 15  1  0
 14 16  2  0
 16 17  1  0
 17 18  2  0
 17 19  1  0
 19 20  1  0
  7 21  2  0
 21 22  1  0
 22 23  2  0
 23 24  1  0
 24 25  1  0
 24 26  1  0
 24 27  1  0
 23  5  1  0
 19  8  2  0
 16 10  1  0
  1 28  1  0
  1 29  1  0
  1 30  1  0
  2 31  1  0
  2 32  1  0
  4 33  1  0
  4 34  1  0
  4 35  1  0
  6 36  1  0
 11 37  1  0
 12 38  1  0
 13 39  1  0
 15 40  1  0
 20 41  1  0
 21 42  1  0
 22 43  1  0
M  END
>  <meeko>  (5) 
{"is_sidechain": [false], "free_energy": -6.911, "intermolecular_energy": -8.92, "internal_energy": -0.78}

$$$$
cand_032_out
     RDKit          3D

 43 45  0  0  0  0  0  0  0  0999 V2000
  179.9580   24.2780   48.0520 C   0  0  0  0  0  0  0  0  0  0  0  0
  178.7770   23.5590   47.4150 C   0  0  0  0  0  0  0  0  0  0  0  0
  178.7230   22.1570   47.8720 N   0  0  0  0  0  0  0  0  0  0  0  0
  179.6640   21.8190   48.9480 C   0  0  0  0  0  0  0  0  0  0  0  0
  177.4110   21.7390   48.1930 C   0  0  0  0  0  0  0  0  0  0  0  0
  176.6520   22.3930   49.1840 C   0  0  0  0  0  0  0  0  0  0  0  0
  175.3470   21.9880   49.5040 C   0  0  0  0  0  0  0  0  0  0  0  0
  174.5610   22.6630   50.5570 C   0  0  0  0  0  0  0  0  0  0  0  0
  175.3110   22.9490   51.6930 O   0  0  0  0  0  0  0  0  0  0  0  0
  174.7010   23.5750   52.7500 C   0  0  0  0  0  0  0  0  0  0  0  0
  175.4950   23.8570   53.8620 C   0  0  0  0  0  0  0  0  0  0  0  0
  174.9370   24.4910   54.9740 C   0  0  0  0  0  0  0  0  0  0  0  0
  173.5860   24.8450   54.9730 C   0  0  0  0  0  0  0  0  0  0  0  0
  172.7970   24.5640   53.8610 C   0  0  0  0  0  0  0  0  0  0  0  0
  171.4820   24.9370   53.9260 O   0  0  0  0  0  0  0  0  0  0  0  0
  173.3560   23.9290   52.7490 C   0  0  0  0  0  0  0  0  0  0  0  0
  172.5620   23.6150   51.5600 C   0  0  0  0  0  0  0  0  0  0  0  0
  171.3650   23.8890   51.4850 O   0  0  0  0  0  0  0  0  0  0  0  0
  173.2510   22.9480   50.4320 C   0  0  0  0  0  0  0  0  0  0  0  0
  172.4880   22.6440   49.3200 O   0  0  0  0  0  0  0  0  0  0  0  0
  174.8080   20.8890   48.8270 C   0  0  0  0  0  0  0  0  0  0  0  0
  175.5470   20.2270   47.8450 C   0  0  0  0  0  0  0  0  0  0  0  0
  176.8500   20.6410   47.5160 C   0  0  0  0  0  0  0  0  0  0  0  0
  177.6240   19.9130   46.4440 C   0  0  0  0  0  0  0  0  0  0  0  0
  178.7490   19.2920   46.9050 F   0  0  0  0  0  0  0  0  0  0  0  0
  176.8930   18.9120   45.8590 F   0  0  0  0  0  0  0  0  0  0  0  0
  178.0130   20.7080   45.4070 F   0  0  0  0  0  0  0  0  0  0  0  0
  179.8718   24.2255   49.1474 H   0  0  0  0  0  0  0  0  0  0  0  0
  180.8948   23.7969   47.7345 H   0  0  0  0  0  0  0  0  0  0  0  0
  179.9607   25.3312   47.7345 H   0  0  0  0  0  0  0  0  0  0  0  0
  177.8451   24.0695   47.6997 H   0  0  0  0  0  0  0  0  0  0  0  0
  178.8966   23.5743   46.3216 H   0  0  0  0  0  0  0  0  0  0  0  0
  179.1839   21.9914   49.9226 H   0  0  0  0  0  0  0  0  0  0  0  0
  179.9528   20.7609   48.8636 H   0  0  0  0  0  0  0  0  0  0  0  0
  180.5600   22.4515   48.8636 H   0  0  0  0  0  0  0  0  0  0  0  0
  177.0947   23.2445   49.7216 H   0  0  0  0  0  0  0  0  0  0  0  0
  176.5596   23.5802   53.8628 H   0  0  0  0  0  0  0  0  0  0  0  0
  175.5622   24.7119   55.8517 H   0  0  0  0  0  0  0  0  0  0  0  0
  173.1464   25.3447   55.8488 H   0  0  0  0  0  0  0  0  0  0  0  0
  170.8710   24.4190   54.4110 H   0  0  0  0  0  0  0  0  0  0  0  0
  172.9040   22.4710   48.4990 H   0  0  0  0  0  0  0  0  0  0  0  0
  173.7926   20.5433   49.0706 H   0  0  0  0  0  0  0  0  0  0  0  0
  175.1031   19.3681   47.3204 H   0  0  0  0  0  0  0  0  0  0  0  0
  1  2  1  0
  2  3  1  0
  3  4  1  0
  3  5  1  0
  5  6  2  0
  6  7  1  0
  7  8  1  0
  8  9  1  0
  9 10  1  0
 10 11  2  0
 11 12  1  0
 12 13  2  0
 13 14  1  0
 14 15  1  0
 14 16  2  0
 16 17  1  0
 17 18  2  0
 17 19  1  0
 19 20  1  0
  7 21  2  0
 21 22  1  0
 22 23  2  0
 23 24  1  0
 24 25  1  0
 24 26  1  0
 24 27  1  0
 23  5  1  0
 19  8  2  0
 16 10  1  0
  1 28  1  0
  1 29  1  0
  1 30  1  0
  2 31  1  0
  2 32  1  0
  4 33  1  0
  4 34  1  0
  4 35  1  0
  6 36  1  0
 11 37  1  0
 12 38  1  0
 13 39  1  0
 15 40  1  0
 20 41  1  0
 21 42  1  0
 22 43  1  0
M  END
>  <meeko>  (6) 
{"is_sidechain": [false], "free_energy": -6.83, "intermolecular_energy": -9.194, "internal_energy": -0.402}

$$$$
cand_032_out
     RDKit          3D

 43 45  0  0  0  0  0  0  0  0999 V2000
  180.2220   24.2150   48.0730 C   0  0  0  0  0  0  0  0  0  0  0  0
  179.0750   23.5500   47.3250 C   0  0  0  0  0  0  0  0  0  0  0  0
  178.8700   22.1750   47.8200 N   0  0  0  0  0  0  0  0  0  0  0  0
  179.6820   21.8080   48.9870 C   0  0  0  0  0  0  0  0  0  0  0  0
  177.5050   21.8700   48.0340 C   0  0  0  0  0  0  0  0  0  0  0  0
  176.7040   22.6470   48.8940 C   0  0  0  0  0  0  0  0  0  0  0  0
  175.3490   22.3550   49.1080 C   0  0  0  0  0  0  0  0  0  0  0  0
  174.5160   23.1590   50.0260 C   0  0  0  0  0  0  0  0  0  0  0  0
  173.5360   23.8930   49.3650 O   0  0  0  0  0  0  0  0  0  0  0  0
  172.6920   24.6860   50.1010 C   0  0  0  0  0  0  0  0  0  0  0  0
  171.7150   25.3920   49.3980 C   0  0  0  0  0  0  0  0  0  0  0  0
  170.8250   26.2200   50.0860 C   0  0  0  0  0  0  0  0  0  0  0  0
  170.9110   26.3400   51.4750 C   0  0  0  0  0  0  0  0  0  0  0  0
  171.8870   25.6330   52.1730 C   0  0  0  0  0  0  0  0  0  0  0  0
  171.9150   25.7970   53.5300 O   0  0  0  0  0  0  0  0  0  0  0  0
  172.7770   24.8060   51.4840 C   0  0  0  0  0  0  0  0  0  0  0  0
  173.8170   24.0450   52.1790 C   0  0  0  0  0  0  0  0  0  0  0  0
  173.9610   24.1030   53.3990 O   0  0  0  0  0  0  0  0  0  0  0  0
  174.7060   23.1910   51.3580 C   0  0  0  0  0  0  0  0  0  0  0  0
  175.6930   22.4880   52.0240 O   0  0  0  0  0  0  0  0  0  0  0  0
  174.7980   21.2470   48.4570 C   0  0  0  0  0  0  0  0  0  0  0  0
  175.5770   20.4630   47.6040 C   0  0  0  0  0  0  0  0  0  0  0  0
  176.9330   20.7640   47.3810 C   0  0  0  0  0  0  0  0  0  0  0  0
  177.7520   19.9060   46.4470 C   0  0  0  0  0  0  0  0  0  0  0  0
  178.8520   19.3520   47.0330 F   0  0  0  0  0  0  0  0  0  0  0  0
  177.0440   18.8370   45.9620 F   0  0  0  0  0  0  0  0  0  0  0  0
  178.1900   20.5630   45.3360 F   0  0  0  0  0  0  0  0  0  0  0  0
  180.0574   24.1196   49.1564 H   0  0  0  0  0  0  0  0  0  0  0  0
  181.1692   23.7260   47.8015 H   0  0  0  0  0  0  0  0  0  0  0  0
  180.2682   25.2800   47.8015 H   0  0  0  0  0  0  0  0  0  0  0  0
  178.1548   24.1324   47.4797 H   0  0  0  0  0  0  0  0  0  0  0  0
  179.3209   23.5117   46.2535 H   0  0  0  0  0  0  0  0  0  0  0  0
  179.1337   22.0558   49.9078 H   0  0  0  0  0  0  0  0  0  0  0  0
  179.8904   20.7282   48.9637 H   0  0  0  0  0  0  0  0  0  0  0  0
  180.6302   22.3651   48.9637 H   0  0  0  0  0  0  0  0  0  0  0  0
  177.1539   23.5067   49.4121 H   0  0  0  0  0  0  0  0  0  0  0  0
  171.6459   25.2967   48.3043 H   0  0  0  0  0  0  0  0  0  0  0  0
  170.0552   26.7784   49.5331 H   0  0  0  0  0  0  0  0  0  0  0  0
  170.2093   26.9916   52.0164 H   0  0  0  0  0  0  0  0  0  0  0  0
  172.7340   25.9060   53.9730 H   0  0  0  0  0  0  0  0  0  0  0  0
  176.5150   22.3260   51.6060 H   0  0  0  0  0  0  0  0  0  0  0  0
  173.7406   20.9906   48.6185 H   0  0  0  0  0  0  0  0  0  0  0  0
  175.1239   19.5972   47.0989 H   0  0  0  0  0  0  0  0  0  0  0  0
  1  2  1  0
  2  3  1  0
  3  4  1  0
  3  5  1  0
  5  6  2  0
  6  7  1  0
  7  8  1  0
  8  9  1  0
  9 10  1  0
 10 11  2  0
 11 12  1  0
 12 13  2  0
 13 14  1  0
 14 15  1  0
 14 16  2  0
 16 17  1  0
 17 18  2  0
 17 19  1  0
 19 20  1  0
  7 21  2  0
 21 22  1  0
 22 23  2  0
 23 24  1  0
 24 25  1  0
 24 26  1  0
 24 27  1  0
 23  5  1  0
 19  8  2  0
 16 10  1  0
  1 28  1  0
  1 29  1  0
  1 30  1  0
  2 31  1  0
  2 32  1  0
  4 33  1  0
  4 34  1  0
  4 35  1  0
  6 36  1  0
 11 37  1  0
 12 38  1  0
 13 39  1  0
 15 40  1  0
 20 41  1  0
 21 42  1  0
 22 43  1  0
M  END
>  <meeko>  (7) 
{"is_sidechain": [false], "free_energy": -6.788, "intermolecular_energy": -8.902, "internal_energy": -0.639}

$$$$
cand_032_out
     RDKit          3D

 43 45  0  0  0  0  0  0  0  0999 V2000
  176.5180   22.1660   51.5190 C   0  0  0  0  0  0  0  0  0  0  0  0
  176.5160   20.8710   50.7170 C   0  0  0  0  0  0  0  0  0  0  0  0
  176.0900   21.1290   49.3280 N   0  0  0  0  0  0  0  0  0  0  0  0
  175.2490   22.3200   49.1490 C   0  0  0  0  0  0  0  0  0  0  0  0
  177.1720   21.1290   48.4170 C   0  0  0  0  0  0  0  0  0  0  0  0
  178.2340   22.0470   48.5350 C   0  0  0  0  0  0  0  0  0  0  0  0
  179.3140   22.0490   47.6390 C   0  0  0  0  0  0  0  0  0  0  0  0
  180.4170   23.0260   47.7540 C   0  0  0  0  0  0  0  0  0  0  0  0
  181.6330   22.5230   47.3060 O   0  0  0  0  0  0  0  0  0  0  0  0
  182.7440   23.3270   47.3580 C   0  0  0  0  0  0  0  0  0  0  0  0
  183.9390   22.7860   46.8850 C   0  0  0  0  0  0  0  0  0  0  0  0
  185.1080   23.5510   46.9110 C   0  0  0  0  0  0  0  0  0  0  0  0
  185.0800   24.8550   47.4100 C   0  0  0  0  0  0  0  0  0  0  0  0
  183.8840   25.3920   47.8810 C   0  0  0  0  0  0  0  0  0  0  0  0
  183.9280   26.6740   48.3560 O   0  0  0  0  0  0  0  0  0  0  0  0
  182.7160   24.6260   47.8550 C   0  0  0  0  0  0  0  0  0  0  0  0
  181.4390   25.1510   48.3400 C   0  0  0  0  0  0  0  0  0  0  0  0
  181.3340   26.2870   48.8000 O   0  0  0  0  0  0  0  0  0  0  0  0
  180.2570   24.2620   48.2610 C   0  0  0  0  0  0  0  0  0  0  0  0
  179.0590   24.7650   48.7350 O   0  0  0  0  0  0  0  0  0  0  0  0
  179.3090   21.1220   46.5930 C   0  0  0  0  0  0  0  0  0  0  0  0
  178.2640   20.2070   46.4570 C   0  0  0  0  0  0  0  0  0  0  0  0
  177.1880   20.1980   47.3630 C   0  0  0  0  0  0  0  0  0  0  0  0
  176.0730   19.1920   47.1990 C   0  0  0  0  0  0  0  0  0  0  0  0
  175.7880   18.4980   48.3390 F   0  0  0  0  0  0  0  0  0  0  0  0
  174.8860   19.7790   46.8460 F   0  0  0  0  0  0  0  0  0  0  0  0
  176.3050   18.2660   46.2250 F   0  0  0  0  0  0  0  0  0  0  0  0
  176.5176   21.9317   52.5938 H   0  0  0  0  0  0  0  0  0  0  0  0
  177.4171   22.7494   51.2712 H   0  0  0  0  0  0  0  0  0  0  0  0
  175.6208   22.7521   51.2712 H   0  0  0  0  0  0  0  0  0  0  0  0
  177.5304   20.4456   50.7123 H   0  0  0  0  0  0  0  0  0  0  0  0
  175.8128   20.1639   51.1813 H   0  0  0  0  0  0  0  0  0  0  0  0
  174.9662   22.7205   50.1337 H   0  0  0  0  0  0  0  0  0  0  0  0
  175.8092   23.0837   48.5896 H   0  0  0  0  0  0  0  0  0  0  0  0
  174.3418   22.0476   48.5896 H   0  0  0  0  0  0  0  0  0  0  0  0
  178.2162   22.7829   49.3524 H   0  0  0  0  0  0  0  0  0  0  0  0
  183.9614   21.7588   46.4921 H   0  0  0  0  0  0  0  0  0  0  0  0
  186.0514   23.1256   46.5380 H   0  0  0  0  0  0  0  0  0  0  0  0
  186.0005   25.4569   47.4311 H   0  0  0  0  0  0  0  0  0  0  0  0
  183.4670   26.9000   49.1400 H   0  0  0  0  0  0  0  0  0  0  0  0
  178.8940   24.7890   49.6560 H   0  0  0  0  0  0  0  0  0  0  0  0
  180.1374   21.1135   45.8694 H   0  0  0  0  0  0  0  0  0  0  0  0
  178.2820   19.4825   45.6295 H   0  0  0  0  0  0  0  0  0  0  0  0
  1  2  1  0
  2  3  1  0
  3  4  1  0
  3  5  1  0
  5  6  2  0
  6  7  1  0
  7  8  1  0
  8  9  1  0
  9 10  1  0
 10 11  2  0
 11 12  1  0
 12 13  2  0
 13 14  1  0
 14 15  1  0
 14 16  2  0
 16 17  1  0
 17 18  2  0
 17 19  1  0
 19 20  1  0
  7 21  2  0
 21 22  1  0
 22 23  2  0
 23 24  1  0
 24 25  1  0
 24 26  1  0
 24 27  1  0
 23  5  1  0
 19  8  2  0
 16 10  1  0
  1 28  1  0
  1 29  1  0
  1 30  1  0
  2 31  1  0
  2 32  1  0
  4 33  1  0
  4 34  1  0
  4 35  1  0
  6 36  1  0
 11 37  1  0
 12 38  1  0
 13 39  1  0
 15 40  1  0
 20 41  1  0
 21 42  1  0
 22 43  1  0
M  END
>  <meeko>  (8) 
{"is_sidechain": [false], "free_energy": -6.69, "intermolecular_energy": -9.282, "internal_energy": -0.133}

$$$$
cand_032_out
     RDKit          3D

 43 45  0  0  0  0  0  0  0  0999 V2000
  173.3490   26.7640   50.3160 C   0  0  0  0  0  0  0  0  0  0  0  0
  174.4130   25.7510   49.9150 C   0  0  0  0  0  0  0  0  0  0  0  0
  174.0550   24.4080   50.4140 N   0  0  0  0  0  0  0  0  0  0  0  0
  173.1010   23.6700   49.5770 C   0  0  0  0  0  0  0  0  0  0  0  0
  175.1890   23.6170   50.7120 C   0  0  0  0  0  0  0  0  0  0  0  0
  175.9740   23.0430   49.6910 C   0  0  0  0  0  0  0  0  0  0  0  0
  177.1030   22.2620   49.9780 C   0  0  0  0  0  0  0  0  0  0  0  0
  177.9120   21.6440   48.9070 C   0  0  0  0  0  0  0  0  0  0  0  0
  179.2120   22.1350   48.8590 O   0  0  0  0  0  0  0  0  0  0  0  0
  180.0720   21.6460   47.9080 C   0  0  0  0  0  0  0  0  0  0  0  0
  181.3700   22.1570   47.9060 C   0  0  0  0  0  0  0  0  0  0  0  0
  182.2950   21.7040   46.9630 C   0  0  0  0  0  0  0  0  0  0  0  0
  181.9220   20.7400   46.0230 C   0  0  0  0  0  0  0  0  0  0  0  0
  180.6260   20.2320   46.0280 C   0  0  0  0  0  0  0  0  0  0  0  0
  180.3270   19.2920   45.0800 O   0  0  0  0  0  0  0  0  0  0  0  0
  179.7010   20.6860   46.9720 C   0  0  0  0  0  0  0  0  0  0  0  0
  178.3280   20.1790   47.0120 C   0  0  0  0  0  0  0  0  0  0  0  0
  177.9220   19.3350   46.2150 O   0  0  0  0  0  0  0  0  0  0  0  0
  177.4280   20.7190   48.0560 C   0  0  0  0  0  0  0  0  0  0  0  0
  176.1300   20.2430   48.0760 O   0  0  0  0  0  0  0  0  0  0  0  0
  177.4340   22.0400   51.3180 C   0  0  0  0  0  0  0  0  0  0  0  0
  176.6670   22.5980   52.3420 C   0  0  0  0  0  0  0  0  0  0  0  0
  175.5420   23.3910   52.0540 C   0  0  0  0  0  0  0  0  0  0  0  0
  174.7340   23.9900   53.1800 C   0  0  0  0  0  0  0  0  0  0  0  0
  173.4300   23.5880   53.1930 F   0  0  0  0  0  0  0  0  0  0  0  0
  175.2160   23.6400   54.4140 F   0  0  0  0  0  0  0  0  0  0  0  0
  174.7230   25.3530   53.1870 F   0  0  0  0  0  0  0  0  0  0  0  0
  173.2906   26.8196   51.4130 H   0  0  0  0  0  0  0  0  0  0  0  0
  173.6132   27.7525   49.9123 H   0  0  0  0  0  0  0  0  0  0  0  0
  172.3746   26.4516   49.9123 H   0  0  0  0  0  0  0  0  0  0  0  0
  174.4913   25.7217   48.8182 H   0  0  0  0  0  0  0  0  0  0  0  0
  175.3763   26.0509   50.3534 H   0  0  0  0  0  0  0  0  0  0  0  0
  172.3951   23.1239   50.2200 H   0  0  0  0  0  0  0  0  0  0  0  0
  172.5470   24.3770   48.9419 H   0  0  0  0  0  0  0  0  0  0  0  0
  173.6461   22.9562   48.9419 H   0  0  0  0  0  0  0  0  0  0  0  0
  175.6933   23.2123   48.6410 H   0  0  0  0  0  0  0  0  0  0  0  0
  181.6645   22.9156   48.6461 H   0  0  0  0  0  0  0  0  0  0  0  0
  183.3186   22.1067   46.9603 H   0  0  0  0  0  0  0  0  0  0  0  0
  182.6510   20.3832   45.2805 H   0  0  0  0  0  0  0  0  0  0  0  0
  180.5600   18.3950   45.2200 H   0  0  0  0  0  0  0  0  0  0  0  0
  175.7330   19.9990   48.8880 H   0  0  0  0  0  0  0  0  0  0  0  0
  178.3073   21.4196   51.5678 H   0  0  0  0  0  0  0  0  0  0  0  0
  176.9467   22.4147   53.3899 H   0  0  0  0  0  0  0  0  0  0  0  0
  1  2  1  0
  2  3  1  0
  3  4  1  0
  3  5  1  0
  5  6  2  0
  6  7  1  0
  7  8  1  0
  8  9  1  0
  9 10  1  0
 10 11  2  0
 11 12  1  0
 12 13  2  0
 13 14  1  0
 14 15  1  0
 14 16  2  0
 16 17  1  0
 17 18  2  0
 17 19  1  0
 19 20  1  0
  7 21  2  0
 21 22  1  0
 22 23  2  0
 23 24  1  0
 24 25  1  0
 24 26  1  0
 24 27  1  0
 23  5  1  0
 19  8  2  0
 16 10  1  0
  1 28  1  0
  1 29  1  0
  1 30  1  0
  2 31  1  0
  2 32  1  0
  4 33  1  0
  4 34  1  0
  4 35  1  0
  6 36  1  0
 11 37  1  0
 12 38  1  0
 13 39  1  0
 15 40  1  0
 20 41  1  0
 21 42  1  0
 22 43  1  0
M  END
>  <meeko>  (9) 
{"is_sidechain": [false], "free_energy": -6.661, "intermolecular_energy": -8.674, "internal_energy": -0.704}

$$$$
