cand_017_out
     RDKit          3D

 38 40  0  0  0  0  0  0  0  0999 V2000
  178.5950   14.0020   44.0570 C   0  0  0  0  0  0  0  0  0  0  0  0
  179.7200   14.3990   45.0020 C   0  0  0  0  0  0  0  0  0  0  0  0
  180.2420   15.7880   44.7090 C   0  0  0  0  0  0  0  0  0  0  0  0
  179.7720   16.8550   45.5020 C   0  0  0  0  0  0  0  0  0  0  0  0
  180.2090   18.1720   45.3020 C   0  0  0  0  0  0  0  0  0  0  0  0
  179.7340   19.2860   46.1510 C   0  0  0  0  0  0  0  0  0  0  0  0
  178.3480   19.3660   46.2110 O   0  0  0  0  0  0  0  0  0  0  0  0
  177.7740   20.3570   46.9650 C   0  0  0  0  0  0  0  0  0  0  0  0
  176.3790   20.4120   46.9840 C   0  0  0  0  0  0  0  0  0  0  0  0
  175.7310   21.3950   47.7350 C   0  0  0  0  0  0  0  0  0  0  0  0
  176.4760   22.3240   48.4640 C   0  0  0  0  0  0  0  0  0  0  0  0
  177.8660   22.2680   48.4430 C   0  0  0  0  0  0  0  0  0  0  0  0
  178.5340   23.2070   49.1810 O   0  0  0  0  0  0  0  0  0  0  0  0
  178.5150   21.2840   47.6930 C   0  0  0  0  0  0  0  0  0  0  0  0
  179.9750   21.1890   47.6420 C   0  0  0  0  0  0  0  0  0  0  0  0
  180.7000   21.9650   48.2630 O   0  0  0  0  0  0  0  0  0  0  0  0
  180.5640   20.1150   46.8100 C   0  0  0  0  0  0  0  0  0  0  0  0
  181.9440   20.0270   46.7800 O   0  0  0  0  0  0  0  0  0  0  0  0
  181.1500   18.4140   44.2970 C   0  0  0  0  0  0  0  0  0  0  0  0
  181.6300   17.3680   43.5030 C   0  0  0  0  0  0  0  0  0  0  0  0
  181.1900   16.0470   43.6960 C   0  0  0  0  0  0  0  0  0  0  0  0
  181.7260   14.9600   42.7940 C   0  0  0  0  0  0  0  0  0  0  0  0
  183.0390   15.1290   42.4710 F   0  0  0  0  0  0  0  0  0  0  0  0
  181.0700   14.8690   41.6000 F   0  0  0  0  0  0  0  0  0  0  0  0
  177.7167   13.6921   44.6423 H   0  0  0  0  0  0  0  0  0  0  0  0
  178.3287   14.8605   43.4229 H   0  0  0  0  0  0  0  0  0  0  0  0
  178.9265   13.1665   43.4229 H   0  0  0  0  0  0  0  0  0  0  0  0
  179.3425   14.3720   46.0348 H   0  0  0  0  0  0  0  0  0  0  0  0
  180.5479   13.6883   44.8624 H   0  0  0  0  0  0  0  0  0  0  0  0
  179.0427   16.6484   46.2992 H   0  0  0  0  0  0  0  0  0  0  0  0
  175.7912   19.6820   46.4082 H   0  0  0  0  0  0  0  0  0  0  0  0
  174.6320   21.4375   47.7523 H   0  0  0  0  0  0  0  0  0  0  0  0
  175.9648   23.0989   49.0540 H   0  0  0  0  0  0  0  0  0  0  0  0
  178.6970   23.0590   50.0910 H   0  0  0  0  0  0  0  0  0  0  0  0
  182.3870   19.4220   47.3420 H   0  0  0  0  0  0  0  0  0  0  0  0
  181.5165   19.4375   44.1292 H   0  0  0  0  0  0  0  0  0  0  0  0
  182.3650   17.5826   42.7133 H   0  0  0  0  0  0  0  0  0  0  0  0
  181.5759   14.0515   43.3957 H   0  0  0  0  0  0  0  0  0  0  0  0
  1  2  1  0
  2  3  1  0
  3  4  2  0
  4  5  1  0
  5  6  1  0
  6  7  1  0
  7  8  1  0
  8  9  2  0
  9 10  1  0
 10 11  2  0
 11 12  1  0
 12 13  1  0
 12 14  2  0
 14 15  1  0
 15 16  2  0
 15 17  1  0
 17 18  1  0
  5 19  2  0
 19 20  1  0
 20 21  2  0
 21 22  1  0
 22 23  1  0
 22 24  1  0
 21  3  1  0
 17  6  2  0
 14  8  1  0
  1 25  1  0
  1 26  1  0
  1 27  1  0
  2 28  1  0
  2 29  1  0
  4 30  1  0
  9 31  1  0
 10 32  1  0
 11 33  1  0
 13 34  1  0
 18 35  1  0
 19 36  1  0
 20 37  1  0
 22 38  1  0
M  END
>  <meeko>  (1) 
{"is_sidechain": [false], "free_energy": -7.965, "intermolecular_energy": -9.827, "internal_energy": -0.383}

$$$$
cand_017_out
     RDKit          3D

 38 40  0  0  0  0  0  0  0  0999 V2000
  174.7740   19.8890   47.4880 C   0  0  0  0  0  0  0  0  0  0  0  0
  175.5610   21.0370   46.8710 C   0  0  0  0  0  0  0  0  0  0  0  0
  177.0470   20.9040   47.1230 C   0  0  0  0  0  0  0  0  0  0  0  0
  177.7630   19.9410   46.3820 C   0  0  0  0  0  0  0  0  0  0  0  0
  179.1420   19.7570   46.5480 C   0  0  0  0  0  0  0  0  0  0  0  0
  179.8960   18.7640   45.7530 C   0  0  0  0  0  0  0  0  0  0  0  0
  179.3060   17.5060   45.7600 O   0  0  0  0  0  0  0  0  0  0  0  0
  179.9040   16.4900   45.0600 C   0  0  0  0  0  0  0  0  0  0  0  0
  179.2870   15.2390   45.1090 C   0  0  0  0  0  0  0  0  0  0  0  0
  179.8440   14.1600   44.4160 C   0  0  0  0  0  0  0  0  0  0  0  0
  181.0150   14.3330   43.6770 C   0  0  0  0  0  0  0  0  0  0  0  0
  181.6290   15.5820   43.6300 C   0  0  0  0  0  0  0  0  0  0  0  0
  182.7730   15.6810   42.8870 O   0  0  0  0  0  0  0  0  0  0  0  0
  181.0720   16.6610   44.3230 C   0  0  0  0  0  0  0  0  0  0  0  0
  181.6850   17.9890   44.3020 C   0  0  0  0  0  0  0  0  0  0  0  0
  182.7130   18.2230   43.6680 O   0  0  0  0  0  0  0  0  0  0  0  0
  181.0210   19.0630   45.0760 C   0  0  0  0  0  0  0  0  0  0  0  0
  181.6010   20.3180   45.0390 O   0  0  0  0  0  0  0  0  0  0  0  0
  179.8150   20.5710   47.4650 C   0  0  0  0  0  0  0  0  0  0  0  0
  179.1230   21.5330   48.2060 C   0  0  0  0  0  0  0  0  0  0  0  0
  177.7380   21.7170   48.0460 C   0  0  0  0  0  0  0  0  0  0  0  0
  177.0370   22.7570   48.8900 C   0  0  0  0  0  0  0  0  0  0  0  0
  175.9650   22.2620   49.5700 F   0  0  0  0  0  0  0  0  0  0  0  0
  176.5510   23.8070   48.1670 F   0  0  0  0  0  0  0  0  0  0  0  0
  174.8221   19.9592   48.5847 H   0  0  0  0  0  0  0  0  0  0  0  0
  173.7249   19.9470   47.1625 H   0  0  0  0  0  0  0  0  0  0  0  0
  175.2064   18.9314   47.1625 H   0  0  0  0  0  0  0  0  0  0  0  0
  175.3841   21.0460   45.7854 H   0  0  0  0  0  0  0  0  0  0  0  0
  175.2193   21.9730   47.3371 H   0  0  0  0  0  0  0  0  0  0  0  0
  177.2240   19.3172   45.6537 H   0  0  0  0  0  0  0  0  0  0  0  0
  178.3642   15.1022   45.6918 H   0  0  0  0  0  0  0  0  0  0  0  0
  179.3586   13.1736   44.4533 H   0  0  0  0  0  0  0  0  0  0  0  0
  181.4527   13.4836   43.1321 H   0  0  0  0  0  0  0  0  0  0  0  0
  183.5810   15.3510   43.2250 H   0  0  0  0  0  0  0  0  0  0  0  0
  181.2130   21.0270   45.5110 H   0  0  0  0  0  0  0  0  0  0  0  0
  180.8997   20.4528   47.6044 H   0  0  0  0  0  0  0  0  0  0  0  0
  179.6713   22.1571   48.9270 H   0  0  0  0  0  0  0  0  0  0  0  0
  177.8300   23.0858   49.5778 H   0  0  0  0  0  0  0  0  0  0  0  0
  1  2  1  0
  2  3  1  0
  3  4  2  0
  4  5  1  0
  5  6  1  0
  6  7  1  0
  7  8  1  0
  8  9  2  0
  9 10  1  0
 10 11  2  0
 11 12  1  0
 12 13  1  0
 12 14  2  0
 14 15  1  0
 15 16  2  0
 15 17  1  0
 17 18  1  0
  5 19  2  0
 19 20  1  0
 20 21  2  0
 21 22  1  0
 22 23  1  0
 22 24  1  0
 21  3  1  0
 17  6  2  0
 14  8  1  0
  1 25  1  0
  1 26  1  0
  1 27  1  0
  2 28  1  0
  2 29  1  0
  4 30  1  0
  9 31  1  0
 10 32  1  0
 11 33  1  0
 13 34  1  0
 18 35  1  0
 19 36  1  0
 20 37  1  0
 22 38  1  0
M  END
>  <meeko>  (2) 
{"is_sidechain": [false], "free_energy": -7.568, "intermolecular_energy": -9.408, "internal_energy": -0.313}

$$$$
cand_017_out
     RDKit          3D

 38 40  0  0  0  0  0  0  0  0999 V2000
  178.5060   23.8240   47.3800 C   0  0  0  0  0  0  0  0  0  0  0  0
  178.3790   22.7420   48.4440 C   0  0  0  0  0  0  0  0  0  0  0  0
  177.8590   21.4420   47.8700 C   0  0  0  0  0  0  0  0  0  0  0  0
  178.7510   20.6400   47.1280 C   0  0  0  0  0  0  0  0  0  0  0  0
  178.3540   19.4190   46.5670 C   0  0  0  0  0  0  0  0  0  0  0  0
  179.2960   18.5680   45.8100 C   0  0  0  0  0  0  0  0  0  0  0  0
  178.9100   17.2330   45.7740 O   0  0  0  0  0  0  0  0  0  0  0  0
  179.6970   16.3330   45.1030 C   0  0  0  0  0  0  0  0  0  0  0  0
  179.2800   15.0010   45.1060 C   0  0  0  0  0  0  0  0  0  0  0  0
  180.0360   14.0330   44.4390 C   0  0  0  0  0  0  0  0  0  0  0  0
  181.2050   14.3970   43.7710 C   0  0  0  0  0  0  0  0  0  0  0  0
  181.6190   15.7270   43.7690 C   0  0  0  0  0  0  0  0  0  0  0  0
  182.7740   16.0140   43.0940 O   0  0  0  0  0  0  0  0  0  0  0  0
  180.8640   16.6950   44.4360 C   0  0  0  0  0  0  0  0  0  0  0  0
  181.2630   18.1020   44.4600 C   0  0  0  0  0  0  0  0  0  0  0  0
  182.2760   18.5030   43.8890 O   0  0  0  0  0  0  0  0  0  0  0  0
  180.3970   19.0480   45.2020 C   0  0  0  0  0  0  0  0  0  0  0  0
  180.7760   20.3780   45.2070 O   0  0  0  0  0  0  0  0  0  0  0  0
  177.0390   18.9900   46.7750 C   0  0  0  0  0  0  0  0  0  0  0  0
  176.1430   19.7690   47.5110 C   0  0  0  0  0  0  0  0  0  0  0  0
  176.5350   20.9970   48.0700 C   0  0  0  0  0  0  0  0  0  0  0  0
  175.5180   21.8090   48.8380 C   0  0  0  0  0  0  0  0  0  0  0  0
  175.0980   21.1990   49.9820 F   0  0  0  0  0  0  0  0  0  0  0  0
  174.3800   22.0680   48.1300 F   0  0  0  0  0  0  0  0  0  0  0  0
  178.6210   24.8042   47.8658 H   0  0  0  0  0  0  0  0  0  0  0  0
  179.3864   23.6200   46.7528 H   0  0  0  0  0  0  0  0  0  0  0  0
  177.6023   23.8294   46.7528 H   0  0  0  0  0  0  0  0  0  0  0  0
  179.3690   22.5632   48.8888 H   0  0  0  0  0  0  0  0  0  0  0  0
  177.6607   23.0913   49.2003 H   0  0  0  0  0  0  0  0  0  0  0  0
  179.7866   20.9825   46.9859 H   0  0  0  0  0  0  0  0  0  0  0  0
  178.3579   14.7136   45.6324 H   0  0  0  0  0  0  0  0  0  0  0  0
  179.7086   12.9828   44.4409 H   0  0  0  0  0  0  0  0  0  0  0  0
  181.7994   13.6346   43.2463 H   0  0  0  0  0  0  0  0  0  0  0  0
  183.5040   16.3830   43.5500 H   0  0  0  0  0  0  0  0  0  0  0  0
  180.7670   20.8640   46.0080 H   0  0  0  0  0  0  0  0  0  0  0  0
  176.7070   18.0292   46.3546 H   0  0  0  0  0  0  0  0  0  0  0  0
  175.1118   19.4146   47.6556 H   0  0  0  0  0  0  0  0  0  0  0  0
  176.0655   22.7376   49.0569 H   0  0  0  0  0  0  0  0  0  0  0  0
  1  2  1  0
  2  3  1  0
  3  4  2  0
  4  5  1  0
  5  6  1  0
  6  7  1  0
  7  8  1  0
  8  9  2  0
  9 10  1  0
 10 11  2  0
 11 12  1  0
 12 13  1  0
 12 14  2  0
 14 15  1  0
 15 16  2  0
 15 17  1  0
 17 18  1  0
  5 19  2  0
 19 20  1  0
 20 21  2  0
 21 22  1  0
 22 23  1  0
 22 24  1  0
 21  3  1  0
 17  6  2  0
 14  8  1  0
  1 25  1  0
  1 26  1  0
  1 27  1  0
  2 28  1  0
  2 29  1  0
  4 30  1  0
  9 31  1  0
 10 32  1  0
 11 33  1  0
 13 34  1  0
 18 35  1  0
 19 36  1  0
 20 37  1  0
 22 38  1  0
M  END
>  <meeko>  (3) 
{"is_sidechain": [false], "free_energy": -7.064, "intermolecular_energy": -8.974, "internal_energy": -0.125}

$$$$
cand_017_out
     RDKit          3D

 38 40  0  0  0  0  0  0  0  0999 V2000
  181.0710   17.0050   41.0500 C   0  0  0  0  0  0  0  0  0  0  0  0
  181.9110   16.9970   42.3190 C   0  0  0  0  0  0  0  0  0  0  0  0
  181.0580   16.8800   43.5630 C   0  0  0  0  0  0  0  0  0  0  0  0
  180.8060   18.0510   44.3080 C   0  0  0  0  0  0  0  0  0  0  0  0
  180.0210   18.0330   45.4690 C   0  0  0  0  0  0  0  0  0  0  0  0
  179.7370   19.2650   46.2350 C   0  0  0  0  0  0  0  0  0  0  0  0
  178.3840   19.5770   46.2750 O   0  0  0  0  0  0  0  0  0  0  0  0
  177.9820   20.6980   46.9540 C   0  0  0  0  0  0  0  0  0  0  0  0
  176.6150   20.9830   46.9550 C   0  0  0  0  0  0  0  0  0  0  0  0
  176.1390   22.1100   47.6300 C   0  0  0  0  0  0  0  0  0  0  0  0
  177.0270   22.9500   48.3030 C   0  0  0  0  0  0  0  0  0  0  0  0
  178.3900   22.6640   48.3010 C   0  0  0  0  0  0  0  0  0  0  0  0
  179.2040   23.5280   48.9800 O   0  0  0  0  0  0  0  0  0  0  0  0
  178.8660   21.5370   47.6250 C   0  0  0  0  0  0  0  0  0  0  0  0
  180.2900   21.2000   47.5960 C   0  0  0  0  0  0  0  0  0  0  0  0
  181.1340   21.8870   48.1710 O   0  0  0  0  0  0  0  0  0  0  0  0
  180.6930   19.9890   46.8460 C   0  0  0  0  0  0  0  0  0  0  0  0
  182.0400   19.6730   46.8360 O   0  0  0  0  0  0  0  0  0  0  0  0
  179.4640   16.8160   45.8740 C   0  0  0  0  0  0  0  0  0  0  0  0
  179.6990   15.6470   45.1470 C   0  0  0  0  0  0  0  0  0  0  0  0
  180.4910   15.6590   43.9860 C   0  0  0  0  0  0  0  0  0  0  0  0
  180.7310   14.3600   43.2500 C   0  0  0  0  0  0  0  0  0  0  0  0
  180.0860   14.2950   42.0520 F   0  0  0  0  0  0  0  0  0  0  0  0
  180.3170   13.2580   43.9420 F   0  0  0  0  0  0  0  0  0  0  0  0
  180.0039   17.0152   41.3167 H   0  0  0  0  0  0  0  0  0  0  0  0
  181.3095   17.9009   40.4580 H   0  0  0  0  0  0  0  0  0  0  0  0
  181.2924   16.1047   40.4580 H   0  0  0  0  0  0  0  0  0  0  0  0
  182.6030   16.1428   42.2814 H   0  0  0  0  0  0  0  0  0  0  0  0
  182.4576   17.9502   42.3705 H   0  0  0  0  0  0  0  0  0  0  0  0
  181.2373   19.0043   43.9685 H   0  0  0  0  0  0  0  0  0  0  0  0
  175.9140   20.3213   46.4252 H   0  0  0  0  0  0  0  0  0  0  0  0
  175.0624   22.3354   47.6309 H   0  0  0  0  0  0  0  0  0  0  0  0
  176.6510   23.8368   48.8343 H   0  0  0  0  0  0  0  0  0  0  0  0
  179.3960   24.3720   48.6210 H   0  0  0  0  0  0  0  0  0  0  0  0
  182.6790   20.3500   46.7360 H   0  0  0  0  0  0  0  0  0  0  0  0
  178.8340   16.7790   46.7749 H   0  0  0  0  0  0  0  0  0  0  0  0
  179.2563   14.6999   45.4892 H   0  0  0  0  0  0  0  0  0  0  0  0
  181.8229   14.3550   43.1169 H   0  0  0  0  0  0  0  0  0  0  0  0
  1  2  1  0
  2  3  1  0
  3  4  2  0
  4  5  1  0
  5  6  1  0
  6  7  1  0
  7  8  1  0
  8  9  2  0
  9 10  1  0
 10 11  2  0
 11 12  1  0
 12 13  1  0
 12 14  2  0
 14 15  1  0
 15 16  2  0
 15 17  1  0
 17 18  1  0
  5 19  2  0
 19 20  1  0
 20 21  2  0
 21 22  1  0
 22 23  1  0
 22 24  1  0
 21  3  1  0
 17  6  2  0
 14  8  1  0
  1 25  1  0
  1 26  1  0
  1 27  1  0
  2 28  1  0
  2 29  1  0
  4 30  1  0
  9 31  1  0
 10 32  1  0
 11 33  1  0
 13 34  1  0
 18 35  1  0
 19 36  1  0
 20 37  1  0
 22 38  1  0
M  END
>  <meeko>  (4) 
{"is_sidechain": [false], "free_energy": -6.924, "intermolecular_energy": -8.553, "internal_energy": -0.373}

$$$$
cand_017_out
     RDKit          3D

 38 40  0  0  0  0  0  0  0  0999 V2000
  179.1520   14.2280   43.9860 C   0  0  0  0  0  0  0  0  0  0  0  0
  179.8960   14.8530   45.1570 C   0  0  0  0  0  0  0  0  0  0  0  0
  180.0740   16.3460   44.9840 C   0  0  0  0  0  0  0  0  0  0  0  0
  179.1960   17.2040   45.6760 C   0  0  0  0  0  0  0  0  0  0  0  0
  179.2940   18.5990   45.5770 C   0  0  0  0  0  0  0  0  0  0  0  0
  178.3880   19.4980   46.3230 C   0  0  0  0  0  0  0  0  0  0  0  0
  178.9950   20.6930   46.6910 O   0  0  0  0  0  0  0  0  0  0  0  0
  178.2640   21.6190   47.3900 C   0  0  0  0  0  0  0  0  0  0  0  0
  178.9170   22.7970   47.7540 C   0  0  0  0  0  0  0  0  0  0  0  0
  178.2300   23.7840   48.4650 C   0  0  0  0  0  0  0  0  0  0  0  0
  176.8920   23.5910   48.8130 C   0  0  0  0  0  0  0  0  0  0  0  0
  176.2430   22.4150   48.4490 C   0  0  0  0  0  0  0  0  0  0  0  0
  174.9310   22.2920   48.8210 O   0  0  0  0  0  0  0  0  0  0  0  0
  176.9300   21.4280   47.7370 C   0  0  0  0  0  0  0  0  0  0  0  0
  176.2860   20.1770   47.3360 C   0  0  0  0  0  0  0  0  0  0  0  0
  175.1090   19.9370   47.5980 O   0  0  0  0  0  0  0  0  0  0  0  0
  177.1050   19.1930   46.5910 C   0  0  0  0  0  0  0  0  0  0  0  0
  176.4820   18.0190   46.2060 O   0  0  0  0  0  0  0  0  0  0  0  0
  180.3090   19.1370   44.7800 C   0  0  0  0  0  0  0  0  0  0  0  0
  181.1920   18.3020   44.0890 C   0  0  0  0  0  0  0  0  0  0  0  0
  181.0930   16.9030   44.1810 C   0  0  0  0  0  0  0  0  0  0  0  0
  182.0600   16.0480   43.3950 C   0  0  0  0  0  0  0  0  0  0  0  0
  181.6050   15.7280   42.1510 F   0  0  0  0  0  0  0  0  0  0  0  0
  182.3420   14.8540   43.9930 F   0  0  0  0  0  0  0  0  0  0  0  0
  178.3616   13.5640   44.3661 H   0  0  0  0  0  0  0  0  0  0  0  0
  178.7006   15.0218   43.3727 H   0  0  0  0  0  0  0  0  0  0  0  0
  179.8560   13.6464   43.3727 H   0  0  0  0  0  0  0  0  0  0  0  0
  179.3260   14.6679   46.0794 H   0  0  0  0  0  0  0  0  0  0  0  0
  180.8950   14.3954   45.2079 H   0  0  0  0  0  0  0  0  0  0  0  0
  178.4118   16.7669   46.3116 H   0  0  0  0  0  0  0  0  0  0  0  0
  179.9719   22.9485   47.4814 H   0  0  0  0  0  0  0  0  0  0  0  0
  178.7437   24.7138   48.7508 H   0  0  0  0  0  0  0  0  0  0  0  0
  176.3514   24.3674   49.3742 H   0  0  0  0  0  0  0  0  0  0  0  0
  174.4870   23.0160   49.2160 H   0  0  0  0  0  0  0  0  0  0  0  0
  175.6020   18.0400   45.8870 H   0  0  0  0  0  0  0  0  0  0  0  0
  180.4139   20.2287   44.6958 H   0  0  0  0  0  0  0  0  0  0  0  0
  181.9783   18.7478   43.4621 H   0  0  0  0  0  0  0  0  0  0  0  0
  182.9563   16.6835   43.3420 H   0  0  0  0  0  0  0  0  0  0  0  0
  1  2  1  0
  2  3  1  0
  3  4  2  0
  4  5  1  0
  5  6  1  0
  6  7  1  0
  7  8  1  0
  8  9  2  0
  9 10  1  0
 10 11  2  0
 11 12  1  0
 12 13  1  0
 12 14  2  0
 14 15  1  0
 15 16  2  0
 15 17  1  0
 17 18  1  0
  5 19  2  0
 19 20  1  0
 20 21  2  0
 21 22  1  0
 22 23  1  0
 22 24  1  0
 21  3  1  0
 17  6  2  0
 14  8  1  0
  1 25  1  0
  1 26  1  0
  1 27  1  0
  2 28  1  0
  2 29  1  0
  4 30  1  0
  9 31  1  0
 10 32  1  0
 11 33  1  0
 13 34  1  0
 18 35  1  0
 19 36  1  0
 20 37  1  0
 22 38  1  0
M  END
>  <meeko>  (5) 
{"is_sidechain": [false], "free_energy": -6.448, "intermolecular_energy": -8.501, "internal_energy": 0.163}

$$$$
cand_017_out
     RDKit          3D

 38 40  0  0  0  0  0  0  0  0999 V2000
  176.5170   20.7550   46.4290 C   0  0  0  0  0  0  0  0  0  0  0  0
  177.4470   19.9310   47.3080 C   0  0  0  0  0  0  0  0  0  0  0  0
  178.8210   19.7790   46.6930 C   0  0  0  0  0  0  0  0  0  0  0  0
  179.0360   18.7020   45.8080 C   0  0  0  0  0  0  0  0  0  0  0  0
  180.2770   18.4920   45.1900 C   0  0  0  0  0  0  0  0  0  0  0  0
  180.4940   17.3770   44.2440 C   0  0  0  0  0  0  0  0  0  0  0  0
  180.7970   17.8100   42.9580 O   0  0  0  0  0  0  0  0  0  0  0  0
  181.0220   16.8760   41.9800 C   0  0  0  0  0  0  0  0  0  0  0  0
  181.3060   17.3550   40.7000 C   0  0  0  0  0  0  0  0  0  0  0  0
  181.5480   16.4560   39.6580 C   0  0  0  0  0  0  0  0  0  0  0  0
  181.5050   15.0820   39.8950 C   0  0  0  0  0  0  0  0  0  0  0  0
  181.2220   14.6070   41.1730 C   0  0  0  0  0  0  0  0  0  0  0  0
  181.1970   13.2480   41.3350 O   0  0  0  0  0  0  0  0  0  0  0  0
  180.9800   15.5050   42.2150 C   0  0  0  0  0  0  0  0  0  0  0  0
  180.6770   15.0480   43.5720 C   0  0  0  0  0  0  0  0  0  0  0  0
  180.6280   13.8540   43.8620 O   0  0  0  0  0  0  0  0  0  0  0  0
  180.4280   16.0810   44.6040 C   0  0  0  0  0  0  0  0  0  0  0  0
  180.1560   15.6390   45.8850 O   0  0  0  0  0  0  0  0  0  0  0  0
  181.3110   19.3940   45.4540 C   0  0  0  0  0  0  0  0  0  0  0  0
  181.1150   20.4690   46.3240 C   0  0  0  0  0  0  0  0  0  0  0  0
  179.8750   20.6810   46.9510 C   0  0  0  0  0  0  0  0  0  0  0  0
  179.7260   21.8470   47.9010 C   0  0  0  0  0  0  0  0  0  0  0  0
  179.2050   22.9580   47.3090 F   0  0  0  0  0  0  0  0  0  0  0  0
  180.9060   22.2540   48.4540 F   0  0  0  0  0  0  0  0  0  0  0  0
  175.8447   21.3507   47.0639 H   0  0  0  0  0  0  0  0  0  0  0  0
  177.1127   21.4272   45.7939 H   0  0  0  0  0  0  0  0  0  0  0  0
  175.9215   20.0827   45.7939 H   0  0  0  0  0  0  0  0  0  0  0  0
  177.5477   20.4292   48.2835 H   0  0  0  0  0  0  0  0  0  0  0  0
  177.0106   18.9272   47.4171 H   0  0  0  0  0  0  0  0  0  0  0  0
  178.2085   18.0087   45.5971 H   0  0  0  0  0  0  0  0  0  0  0  0
  181.3392   18.4383   40.5119 H   0  0  0  0  0  0  0  0  0  0  0  0
  181.7728   16.8324   38.6491 H   0  0  0  0  0  0  0  0  0  0  0  0
  181.6943   14.3750   39.0738 H   0  0  0  0  0  0  0  0  0  0  0  0
  181.6000   12.6930   40.6980 H   0  0  0  0  0  0  0  0  0  0  0  0
  179.6640   14.8520   46.0140 H   0  0  0  0  0  0  0  0  0  0  0  0
  182.2899   19.2560   44.9715 H   0  0  0  0  0  0  0  0  0  0  0  0
  181.9459   21.1621   46.5220 H   0  0  0  0  0  0  0  0  0  0  0  0
  179.0480   21.4475   48.6696 H   0  0  0  0  0  0  0  0  0  0  0  0
  1  2  1  0
  2  3  1  0
  3  4  2  0
  4  5  1  0
  5  6  1  0
  6  7  1  0
  7  8  1  0
  8  9  2  0
  9 10  1  0
 10 11  2  0
 11 12  1  0
 12 13  1  0
 12 14  2  0
 14 15  1  0
 15 16  2  0
 15 17  1  0
 17 18  1  0
  5 19  2  0
 19 20  1  0
 20 21  2  0
 21 22  1  0
 22 23  1  0
 22 24  1  0
 21  3  1  0
 17  6  2  0
 14  8  1  0
  1 25  1  0
  1 26  1  0
  1 27  1  0
  2 28  1  0
  2 29  1  0
  4 30  1  0
  9 31  1  0
 10 32  1  0
 11 33  1  0
 13 34  1  0
 18 35  1  0
 19 36  1  0
 20 37  1  0
 22 38  1  0
M  END
>  <meeko>  (6) 
{"is_sidechain": [false], "free_energy": -5.638, "intermolecular_energy": -6.731, "internal_energy": -0.608}

$$$$
cand_017_out
     RDKit          3D

 38 40  0  0  0  0  0  0  0  0999 V2000
  178.5570   22.8670   47.3530 C   0  0  0  0  0  0  0  0  0  0  0  0
  179.3120   21.6720   47.9210 C   0  0  0  0  0  0  0  0  0  0  0  0
  180.3330   21.1320   46.9450 C   0  0  0  0  0  0  0  0  0  0  0  0
  181.5040   21.8860   46.7230 C   0  0  0  0  0  0  0  0  0  0  0  0
  182.5040   21.4550   45.8410 C   0  0  0  0  0  0  0  0  0  0  0  0
  183.7420   22.2350   45.6280 C   0  0  0  0  0  0  0  0  0  0  0  0
  184.3260   21.9950   44.3900 O   0  0  0  0  0  0  0  0  0  0  0  0
  185.4820   22.6550   44.0630 C   0  0  0  0  0  0  0  0  0  0  0  0
  186.0430   22.3720   42.8170 C   0  0  0  0  0  0  0  0  0  0  0  0
  187.2210   23.0110   42.4210 C   0  0  0  0  0  0  0  0  0  0  0  0
  187.8360   23.9310   43.2710 C   0  0  0  0  0  0  0  0  0  0  0  0
  187.2750   24.2120   44.5140 C   0  0  0  0  0  0  0  0  0  0  0  0
  187.9300   25.1240   45.2960 O   0  0  0  0  0  0  0  0  0  0  0  0
  186.0980   23.5720   44.9100 C   0  0  0  0  0  0  0  0  0  0  0  0
  185.4750   23.8370   46.2070 C   0  0  0  0  0  0  0  0  0  0  0  0
  185.9520   24.6400   47.0080 O   0  0  0  0  0  0  0  0  0  0  0  0
  184.2320   23.1010   46.5340 C   0  0  0  0  0  0  0  0  0  0  0  0
  183.6450   23.3690   47.7580 O   0  0  0  0  0  0  0  0  0  0  0  0
  182.3280   20.2330   45.1840 C   0  0  0  0  0  0  0  0  0  0  0  0
  181.1760   19.4700   45.3940 C   0  0  0  0  0  0  0  0  0  0  0  0
  180.1680   19.9010   46.2740 C   0  0  0  0  0  0  0  0  0  0  0  0
  178.9340   19.0470   46.4450 C   0  0  0  0  0  0  0  0  0  0  0  0
  179.0320   17.8320   45.8350 F   0  0  0  0  0  0  0  0  0  0  0  0
  177.8020   19.6150   45.9350 F   0  0  0  0  0  0  0  0  0  0  0  0
  178.1687   23.4815   48.1786 H   0  0  0  0  0  0  0  0  0  0  0  0
  179.2379   23.4709   46.7351 H   0  0  0  0  0  0  0  0  0  0  0  0
  177.7193   22.5115   46.7351 H   0  0  0  0  0  0  0  0  0  0  0  0
  179.8294   21.9830   48.8406 H   0  0  0  0  0  0  0  0  0  0  0  0
  178.5823   20.8747   48.1257 H   0  0  0  0  0  0  0  0  0  0  0  0
  181.6360   22.8386   47.2569 H   0  0  0  0  0  0  0  0  0  0  0  0
  185.5583   21.6465   42.1471 H   0  0  0  0  0  0  0  0  0  0  0  0
  187.6636   22.7887   41.4388 H   0  0  0  0  0  0  0  0  0  0  0  0
  188.7633   24.4339   42.9593 H   0  0  0  0  0  0  0  0  0  0  0  0
  187.7980   26.0410   45.1570 H   0  0  0  0  0  0  0  0  0  0  0  0
  183.4360   24.2510   47.9930 H   0  0  0  0  0  0  0  0  0  0  0  0
  183.1042   19.8687   44.4949 H   0  0  0  0  0  0  0  0  0  0  0  0
  181.0559   18.5152   44.8612 H   0  0  0  0  0  0  0  0  0  0  0  0
  178.8641   18.9417   47.5377 H   0  0  0  0  0  0  0  0  0  0  0  0
  1  2  1  0
  2  3  1  0
  3  4  2  0
  4  5  1  0
  5  6  1  0
  6  7  1  0
  7  8  1  0
  8  9  2  0
  9 10  1  0
 10 11  2  0
 11 12  1  0
 12 13  1  0
 12 14  2  0
 14 15  1  0
 15 16  2  0
 15 17  1  0
 17 18  1  0
  5 19  2  0
 19 20  1  0
 20 21  2  0
 21 22  1  0
 22 23  1  0
 22 24  1  0
 21  3  1  0
 17  6  2  0
 14  8  1  0
  1 25  1  0
  1 26  1  0
  1 27  1  0
  2 28  1  0
  2 29  1  0
  4 30  1  0
  9 31  1  0
 10 32  1  0
 11 33  1  0
 13 34  1  0
 18 35  1  0
 19 36  1  0
 20 37  1  0
 22 38  1  0
M  END
>  <meeko>  (7) 
{"is_sidechain": [false], "free_energy": -5.618, "intermolecular_energy": -7.151, "internal_energy": -0.163}

$$$$
cand_017_out
     RDKit          3D

 38 40  0  0  0  0  0  0  0  0999 V2000
  183.2140   21.1770   45.0630 C   0  0  0  0  0  0  0  0  0  0  0  0
  182.7710   19.8090   44.5650 C   0  0  0  0  0  0  0  0  0  0  0  0
  181.4180   19.4160   45.1170 C   0  0  0  0  0  0  0  0  0  0  0  0
  180.7410   20.3430   45.9370 C   0  0  0  0  0  0  0  0  0  0  0  0
  179.4810   20.0630   46.4840 C   0  0  0  0  0  0  0  0  0  0  0  0
  178.7620   21.0450   47.3230 C   0  0  0  0  0  0  0  0  0  0  0  0
  177.3850   20.8600   47.3110 O   0  0  0  0  0  0  0  0  0  0  0  0
  176.5960   21.7050   48.0480 C   0  0  0  0  0  0  0  0  0  0  0  0
  175.2180   21.4940   47.9940 C   0  0  0  0  0  0  0  0  0  0  0  0
  174.3570   22.3180   48.7240 C   0  0  0  0  0  0  0  0  0  0  0  0
  174.8750   23.3510   49.5060 C   0  0  0  0  0  0  0  0  0  0  0  0
  176.2500   23.5600   49.5590 C   0  0  0  0  0  0  0  0  0  0  0  0
  176.6900   24.5890   50.3460 O   0  0  0  0  0  0  0  0  0  0  0  0
  177.1110   22.7360   48.8290 C   0  0  0  0  0  0  0  0  0  0  0  0
  178.5620   22.9210   48.8550 C   0  0  0  0  0  0  0  0  0  0  0  0
  179.0950   23.8040   49.5260 O   0  0  0  0  0  0  0  0  0  0  0  0
  179.3860   21.9980   48.0390 C   0  0  0  0  0  0  0  0  0  0  0  0
  180.7570   22.1740   48.0820 O   0  0  0  0  0  0  0  0  0  0  0  0
  178.8860   18.8340   46.1840 C   0  0  0  0  0  0  0  0  0  0  0  0
  179.5400   17.9050   45.3700 C   0  0  0  0  0  0  0  0  0  0  0  0
  180.8060   18.1790   44.8240 C   0  0  0  0  0  0  0  0  0  0  0  0
  181.4760   17.1290   43.9690 C   0  0  0  0  0  0  0  0  0  0  0  0
  181.2050   17.2640   42.6410 F   0  0  0  0  0  0  0  0  0  0  0  0
  181.1070   15.8530   44.2830 F   0  0  0  0  0  0  0  0  0  0  0  0
  183.2162   21.1837   46.1630 H   0  0  0  0  0  0  0  0  0  0  0  0
  184.2275   21.3914   44.6930 H   0  0  0  0  0  0  0  0  0  0  0  0
  182.5186   21.9448   44.6930 H   0  0  0  0  0  0  0  0  0  0  0  0
  182.7134   19.8323   43.4668 H   0  0  0  0  0  0  0  0  0  0  0  0
  183.5069   19.0673   44.9090 H   0  0  0  0  0  0  0  0  0  0  0  0
  181.2147   21.3120   46.1531 H   0  0  0  0  0  0  0  0  0  0  0  0
  174.8095   20.6798   47.3774 H   0  0  0  0  0  0  0  0  0  0  0  0
  173.2704   22.1521   48.6821 H   0  0  0  0  0  0  0  0  0  0  0  0
  174.1971   23.9997   50.0802 H   0  0  0  0  0  0  0  0  0  0  0  0
  176.3320   25.4480   50.2370 H   0  0  0  0  0  0  0  0  0  0  0  0
  181.1300   22.8030   48.6670 H   0  0  0  0  0  0  0  0  0  0  0  0
  177.8930   18.5957   46.5928 H   0  0  0  0  0  0  0  0  0  0  0  0
  179.0552   16.9418   45.1526 H   0  0  0  0  0  0  0  0  0  0  0  0
  182.5433   17.2936   44.1783 H   0  0  0  0  0  0  0  0  0  0  0  0
  1  2  1  0
  2  3  1  0
  3  4  2  0
  4  5  1  0
  5  6  1  0
  6  7  1  0
  7  8  1  0
  8  9  2  0
  9 10  1  0
 10 11  2  0
 11 12  1  0
 12 13  1  0
 12 14  2  0
 14 15  1  0
 15 16  2  0
 15 17  1  0
 17 18  1  0
  5 19  2  0
 19 20  1  0
 20 21  2  0
 21 22  1  0
 22 23  1  0
 22 24  1  0
 21  3  1  0
 17  6  2  0
 14  8  1  0
  1 25  1  0
  1 26  1  0
  1 27  1  0
  2 28  1  0
  2 29  1  0
  4 30  1  0
  9 31  1  0
 10 32  1  0
 11 33  1  0
 13 34  1  0
 18 35  1  0
 19 36  1  0
 20 37  1  0
 22 38  1  0
M  END
>  <meeko>  (8) 
{"is_sidechain": [false], "free_energy": -5.572, "intermolecular_energy": -7.105, "internal_energy": -0.152}

$$$$
cand_017_out
     RDKit          3D

 38 40  0  0  0  0  0  0  0  0999 V2000
  178.5540   22.9930   47.4420 C   0  0  0  0  0  0  0  0  0  0  0  0
  179.3250   21.8000   47.9900 C   0  0  0  0  0  0  0  0  0  0  0  0
  180.4680   21.3990   47.0820 C   0  0  0  0  0  0  0  0  0  0  0  0
  181.5770   22.2650   46.9900 C   0  0  0  0  0  0  0  0  0  0  0  0
  182.6800   21.9670   46.1780 C   0  0  0  0  0  0  0  0  0  0  0  0
  183.8540   22.8630   46.1010 C   0  0  0  0  0  0  0  0  0  0  0  0
  184.2130   23.3900   47.3360 O   0  0  0  0  0  0  0  0  0  0  0  0
  185.2870   24.2390   47.4070 C   0  0  0  0  0  0  0  0  0  0  0  0
  185.6020   24.7580   48.6630 C   0  0  0  0  0  0  0  0  0  0  0  0
  186.6870   25.6280   48.8060 C   0  0  0  0  0  0  0  0  0  0  0  0
  187.4530   25.9780   47.6930 C   0  0  0  0  0  0  0  0  0  0  0  0
  187.1360   25.4590   46.4410 C   0  0  0  0  0  0  0  0  0  0  0  0
  187.9300   25.8430   45.3940 O   0  0  0  0  0  0  0  0  0  0  0  0
  186.0520   24.5900   46.2980 C   0  0  0  0  0  0  0  0  0  0  0  0
  185.6840   24.0220   45.0010 C   0  0  0  0  0  0  0  0  0  0  0  0
  186.3150   24.2770   43.9750 O   0  0  0  0  0  0  0  0  0  0  0  0
  184.5130   23.1170   44.9550 C   0  0  0  0  0  0  0  0  0  0  0  0
  184.1820   22.5760   43.7260 O   0  0  0  0  0  0  0  0  0  0  0  0
  182.6720   20.7660   45.4610 C   0  0  0  0  0  0  0  0  0  0  0  0
  181.5820   19.8950   45.5430 C   0  0  0  0  0  0  0  0  0  0  0  0
  180.4720   20.1920   46.3520 C   0  0  0  0  0  0  0  0  0  0  0  0
  179.3120   19.2240   46.3850 C   0  0  0  0  0  0  0  0  0  0  0  0
  179.5660   18.0590   45.7250 F   0  0  0  0  0  0  0  0  0  0  0  0
  178.1730   19.7180   45.8170 F   0  0  0  0  0  0  0  0  0  0  0  0
  178.1657   23.5938   48.2776 H   0  0  0  0  0  0  0  0  0  0  0  0
  179.2240   23.6111   46.8262 H   0  0  0  0  0  0  0  0  0  0  0  0
  177.7153   22.6361   46.8262 H   0  0  0  0  0  0  0  0  0  0  0  0
  179.7314   22.0629   48.9778 H   0  0  0  0  0  0  0  0  0  0  0  0
  178.6311   20.9493   48.0593 H   0  0  0  0  0  0  0  0  0  0  0  0
  181.5765   23.1991   47.5708 H   0  0  0  0  0  0  0  0  0  0  0  0
  184.9974   24.4830   49.5398 H   0  0  0  0  0  0  0  0  0  0  0  0
  186.9371   26.0368   49.7961 H   0  0  0  0  0  0  0  0  0  0  0  0
  188.3062   26.6632   47.8051 H   0  0  0  0  0  0  0  0  0  0  0  0
  188.5550   25.2450   45.0360 H   0  0  0  0  0  0  0  0  0  0  0  0
  183.3260   22.2220   43.5860 H   0  0  0  0  0  0  0  0  0  0  0  0
  183.5317   20.5045   44.8266 H   0  0  0  0  0  0  0  0  0  0  0  0
  181.5932   18.9600   44.9637 H   0  0  0  0  0  0  0  0  0  0  0  0
  179.1721   19.0516   47.4624 H   0  0  0  0  0  0  0  0  0  0  0  0
  1  2  1  0
  2  3  1  0
  3  4  2  0
  4  5  1  0
  5  6  1  0
  6  7  1  0
  7  8  1  0
  8  9  2  0
  9 10  1  0
 10 11  2  0
 11 12  1  0
 12 13  1  0
 12 14  2  0
 14 15  1  0
 15 16  2  0
 15 17  1  0
 17 18  1  0
  5 19  2  0
 19 20  1  0
 20 21  2  0
 21 22  1  0
 22 23  1  0
 22 24  1  0
 21  3  1  0
 17  6  2  0
 14  8  1  0
  1 25  1  0
  1 26  1  0
  1 27  1  0
  2 28  1  0
  2 29  1  0
  4 30  1  0
  9 31  1  0
 10 32  1  0
 11 33  1  0
 13 34  1  0
 18 35  1  0
 19 36  1  0
 20 37  1  0
 22 38  1  0
M  END
>  <meeko>  (9) 
{"is_sidechain": [false], "free_energy": -5.557, "intermolecular_energy": -6.931, "internal_energy": -0.308}

$$$$
