cand_047_out
     RDKit          3D

 38 40  0  0  0  0  0  0  0  0999 V2000
  179.9580   14.1680   44.8090 C   0  0  0  0  0  0  0  0  0  0  0  0
  180.3320   15.6140   44.6300 C   0  0  0  0  0  0  0  0  0  0  0  0
  179.7210   16.5780   45.4560 C   0  0  0  0  0  0  0  0  0  0  0  0
  180.0200   17.9430   45.3390 C   0  0  0  0  0  0  0  0  0  0  0  0
  179.3630   18.9590   46.1900 C   0  0  0  0  0  0  0  0  0  0  0  0
  177.9760   18.8720   46.1640 O   0  0  0  0  0  0  0  0  0  0  0  0
  177.2420   19.7550   46.9120 C   0  0  0  0  0  0  0  0  0  0  0  0
  175.8530   19.6220   46.8670 C   0  0  0  0  0  0  0  0  0  0  0  0
  175.0450   20.4910   47.6050 C   0  0  0  0  0  0  0  0  0  0  0  0
  175.6260   21.4940   48.3840 C   0  0  0  0  0  0  0  0  0  0  0  0
  177.0120   21.6250   48.4260 C   0  0  0  0  0  0  0  0  0  0  0  0
  177.5140   22.6280   49.2080 O   0  0  0  0  0  0  0  0  0  0  0  0
  177.8190   20.7540   47.6890 C   0  0  0  0  0  0  0  0  0  0  0  0
  179.2790   20.8580   47.7050 C   0  0  0  0  0  0  0  0  0  0  0  0
  179.8640   21.7180   48.3600 O   0  0  0  0  0  0  0  0  0  0  0  0
  180.0440   19.8810   46.8960 C   0  0  0  0  0  0  0  0  0  0  0  0
  181.4220   19.9960   46.9070 O   0  0  0  0  0  0  0  0  0  0  0  0
  180.9330   18.3430   44.3600 C   0  0  0  0  0  0  0  0  0  0  0  0
  181.5440   17.4010   43.5280 C   0  0  0  0  0  0  0  0  0  0  0  0
  181.2510   16.0330   43.6490 C   0  0  0  0  0  0  0  0  0  0  0  0
  181.9620   15.0610   42.7350 C   0  0  0  0  0  0  0  0  0  0  0  0
  181.4620   15.1510   41.3020 C   0  0  0  0  0  0  0  0  0  0  0  0
  180.1090   15.2990   41.3210 F   0  0  0  0  0  0  0  0  0  0  0  0
  179.8977   13.9350   45.8824 H   0  0  0  0  0  0  0  0  0  0  0  0
  178.9818   13.9807   44.3378 H   0  0  0  0  0  0  0  0  0  0  0  0
  180.7209   13.5309   44.3378 H   0  0  0  0  0  0  0  0  0  0  0  0
  178.9911   16.2517   46.2116 H   0  0  0  0  0  0  0  0  0  0  0  0
  175.3951   18.8339   46.2512 H   0  0  0  0  0  0  0  0  0  0  0  0
  173.9506   20.3850   47.5724 H   0  0  0  0  0  0  0  0  0  0  0  0
  174.9901   22.1794   48.9635 H   0  0  0  0  0  0  0  0  0  0  0  0
  177.3540   23.5240   48.9810 H   0  0  0  0  0  0  0  0  0  0  0  0
  181.8430   20.5050   47.5710 H   0  0  0  0  0  0  0  0  0  0  0  0
  181.1733   19.4100   44.2429 H   0  0  0  0  0  0  0  0  0  0  0  0
  182.2647   17.7359   42.7675 H   0  0  0  0  0  0  0  0  0  0  0  0
  183.0390   15.2841   42.7493 H   0  0  0  0  0  0  0  0  0  0  0  0
  181.7596   14.0434   43.1004 H   0  0  0  0  0  0  0  0  0  0  0  0
  181.9222   16.0165   40.8029 H   0  0  0  0  0  0  0  0  0  0  0  0
  181.7317   14.2370   40.7526 H   0  0  0  0  0  0  0  0  0  0  0  0
  1  2  1  0
  2  3  2  0
  3  4  1  0
  4  5  1  0
  5  6  1  0
  6  7  1  0
  7  8  2  0
  8  9  1  0
  9 10  2  0
 10 11  1  0
 11 12  1  0
 11 13  2  0
 13 14  1  0
 14 15  2  0
 14 16  1  0
 16 17  1  0
  4 18  2  0
 18 19  1  0
 19 20  2  0
 20 21  1  0
 21 22  1  0
 22 23  1  0
 20  2  1  0
 16  5  2  0
 13  7  1  0
  1 24  1  0
  1 25  1  0
  1 26  1  0
  3 27  1  0
  8 28  1  0
  9 29  1  0
 10 30  1  0
 12 31  1  0
 17 32  1  0
 18 33  1  0
 19 34  1  0
 21 35  1  0
 21 36  1  0
 22 37  1  0
 22 38  1  0
M  END
>  <meeko>  (1) 
{"is_sidechain": [false], "free_energy": -7.922, "intermolecular_energy": -9.774, "internal_energy": -0.407}

$$$$
cand_047_out
     RDKit          3D

 38 40  0  0  0  0  0  0  0  0999 V2000
  179.7860   13.9980   44.8230 C   0  0  0  0  0  0  0  0  0  0  0  0
  180.3000   15.3740   44.4950 C   0  0  0  0  0  0  0  0  0  0  0  0
  180.0450   16.4240   45.3980 C   0  0  0  0  0  0  0  0  0  0  0  0
  180.4900   17.7310   45.1520 C   0  0  0  0  0  0  0  0  0  0  0  0
  180.2050   18.8390   46.0880 C   0  0  0  0  0  0  0  0  0  0  0  0
  181.3560   19.3930   46.6360 O   0  0  0  0  0  0  0  0  0  0  0  0
  181.2350   20.4320   47.5220 C   0  0  0  0  0  0  0  0  0  0  0  0
  182.4170   20.9680   48.0360 C   0  0  0  0  0  0  0  0  0  0  0  0
  182.3640   22.0280   48.9440 C   0  0  0  0  0  0  0  0  0  0  0  0
  181.1310   22.5500   49.3390 C   0  0  0  0  0  0  0  0  0  0  0  0
  179.9530   22.0140   48.8260 C   0  0  0  0  0  0  0  0  0  0  0  0
  178.7810   22.5710   49.2560 O   0  0  0  0  0  0  0  0  0  0  0  0
  180.0070   20.9540   47.9160 C   0  0  0  0  0  0  0  0  0  0  0  0
  178.7930   20.3610   47.3530 C   0  0  0  0  0  0  0  0  0  0  0  0
  177.6710   20.7600   47.6580 O   0  0  0  0  0  0  0  0  0  0  0  0
  178.9580   19.2470   46.3900 C   0  0  0  0  0  0  0  0  0  0  0  0
  177.8050   18.6850   45.8740 O   0  0  0  0  0  0  0  0  0  0  0  0
  181.1830   17.9850   43.9650 C   0  0  0  0  0  0  0  0  0  0  0  0
  181.4380   16.9550   43.0540 C   0  0  0  0  0  0  0  0  0  0  0  0
  180.9990   15.6450   43.3040 C   0  0  0  0  0  0  0  0  0  0  0  0
  181.3260   14.5720   42.2910 C   0  0  0  0  0  0  0  0  0  0  0  0
  181.1070   15.0440   40.8630 C   0  0  0  0  0  0  0  0  0  0  0  0
  179.8100   15.4360   40.7280 F   0  0  0  0  0  0  0  0  0  0  0  0
  179.7399   13.8745   45.9151 H   0  0  0  0  0  0  0  0  0  0  0  0
  178.7799   13.8712   44.3968 H   0  0  0  0  0  0  0  0  0  0  0  0
  180.4626   13.2426   44.3968 H   0  0  0  0  0  0  0  0  0  0  0  0
  179.4825   16.2137   46.3196 H   0  0  0  0  0  0  0  0  0  0  0  0
  183.3889   20.5561   47.7264 H   0  0  0  0  0  0  0  0  0  0  0  0
  183.2950   22.4520   49.3484 H   0  0  0  0  0  0  0  0  0  0  0  0
  181.0902   23.3841   50.0550 H   0  0  0  0  0  0  0  0  0  0  0  0
  178.7380   22.9770   50.1000 H   0  0  0  0  0  0  0  0  0  0  0  0
  177.6970   17.7540   45.8770 H   0  0  0  0  0  0  0  0  0  0  0  0
  181.5312   19.0050   43.7453 H   0  0  0  0  0  0  0  0  0  0  0  0
  181.9904   17.1743   42.1284 H   0  0  0  0  0  0  0  0  0  0  0  0
  182.3803   14.2818   42.4103 H   0  0  0  0  0  0  0  0  0  0  0  0
  180.6532   13.7207   42.4720 H   0  0  0  0  0  0  0  0  0  0  0  0
  181.7744   15.8912   40.6465 H   0  0  0  0  0  0  0  0  0  0  0  0
  181.3274   14.2273   40.1598 H   0  0  0  0  0  0  0  0  0  0  0  0
  1  2  1  0
  2  3  2  0
  3  4  1  0
  4  5  1  0
  5  6  1  0
  6  7  1  0
  7  8  2  0
  8  9  1  0
  9 10  2  0
 10 11  1  0
 11 12  1  0
 11 13  2  0
 13 14  1  0
 14 15  2  0
 14 16  1  0
 16 17  1  0
  4 18  2  0
 18 19  1  0
 19 20  2  0
 20 21  1  0
 21 22  1  0
 22 23  1  0
 20  2  1  0
 16  5  2  0
 13  7  1  0
  1 24  1  0
  1 25  1  0
  1 26  1  0
  3 27  1  0
  8 28  1  0
  9 29  1  0
 10 30  1  0
 12 31  1  0
 17 32  1  0
 18 33  1  0
 19 34  1  0
 21 35  1  0
 21 36  1  0
 22 37  1  0
 22 38  1  0
M  END
>  <meeko>  (2) 
{"is_sidechain": [false], "free_energy": -7.432, "intermolecular_energy": -9.172, "internal_energy": -0.406}

$$$$
cand_047_out
     RDKit          3D

 38 40  0  0  0  0  0  0  0  0999 V2000
  175.3220   20.6130   47.2000 C   0  0  0  0  0  0  0  0  0  0  0  0
  176.8220   20.5940   47.3160 C   0  0  0  0  0  0  0  0  0  0  0  0
  177.5490   19.6840   46.5240 C   0  0  0  0  0  0  0  0  0  0  0  0
  178.9480   19.6090   46.5860 C   0  0  0  0  0  0  0  0  0  0  0  0
  179.7120   18.6390   45.7720 C   0  0  0  0  0  0  0  0  0  0  0  0
  179.2030   17.3480   45.8490 O   0  0  0  0  0  0  0  0  0  0  0  0
  179.8180   16.3500   45.1390 C   0  0  0  0  0  0  0  0  0  0  0  0
  179.2650   15.0720   45.2350 C   0  0  0  0  0  0  0  0  0  0  0  0
  179.8430   14.0080   44.5380 C   0  0  0  0  0  0  0  0  0  0  0  0
  180.9750   14.2220   43.7480 C   0  0  0  0  0  0  0  0  0  0  0  0
  181.5260   15.4980   43.6550 C   0  0  0  0  0  0  0  0  0  0  0  0
  182.6340   15.6370   42.8660 O   0  0  0  0  0  0  0  0  0  0  0  0
  180.9450   16.5610   44.3520 C   0  0  0  0  0  0  0  0  0  0  0  0
  181.4920   17.9180   44.2820 C   0  0  0  0  0  0  0  0  0  0  0  0
  182.4900   18.1840   43.6150 O   0  0  0  0  0  0  0  0  0  0  0  0
  180.7980   18.9770   45.0510 C   0  0  0  0  0  0  0  0  0  0  0  0
  181.3310   20.2510   44.9890 O   0  0  0  0  0  0  0  0  0  0  0  0
  179.6210   20.4510   47.4760 C   0  0  0  0  0  0  0  0  0  0  0  0
  178.9140   21.3550   48.2740 C   0  0  0  0  0  0  0  0  0  0  0  0
  177.5140   21.4350   48.2080 C   0  0  0  0  0  0  0  0  0  0  0  0
  176.8090   22.4500   49.0790 C   0  0  0  0  0  0  0  0  0  0  0  0
  176.9950   23.8700   48.5710 C   0  0  0  0  0  0  0  0  0  0  0  0
  177.2880   23.8220   47.2410 F   0  0  0  0  0  0  0  0  0  0  0  0
  174.8765   20.6186   48.2057 H   0  0  0  0  0  0  0  0  0  0  0  0
  175.0078   21.5152   46.6547 H   0  0  0  0  0  0  0  0  0  0  0  0
  174.9851   19.7191   46.6547 H   0  0  0  0  0  0  0  0  0  0  0  0
  177.0059   19.0155   45.8398 H   0  0  0  0  0  0  0  0  0  0  0  0
  178.3750   14.9027   45.8588 H   0  0  0  0  0  0  0  0  0  0  0  0
  179.4064   13.0010   44.6114 H   0  0  0  0  0  0  0  0  0  0  0  0
  181.4307   13.3840   43.2001 H   0  0  0  0  0  0  0  0  0  0  0  0
  183.0480   16.4740   42.7850 H   0  0  0  0  0  0  0  0  0  0  0  0
  181.8080   20.5950   45.7180 H   0  0  0  0  0  0  0  0  0  0  0  0
  180.7175   20.4017   47.5491 H   0  0  0  0  0  0  0  0  0  0  0  0
  179.4626   22.0133   48.9637 H   0  0  0  0  0  0  0  0  0  0  0  0
  175.7340   22.2174   49.0949 H   0  0  0  0  0  0  0  0  0  0  0  0
  177.2461   22.3919   50.0868 H   0  0  0  0  0  0  0  0  0  0  0  0
  176.0689   24.4431   48.7258 H   0  0  0  0  0  0  0  0  0  0  0  0
  177.8136   24.3603   49.1183 H   0  0  0  0  0  0  0  0  0  0  0  0
  1  2  1  0
  2  3  2  0
  3  4  1  0
  4  5  1  0
  5  6  1  0
  6  7  1  0
  7  8  2  0
  8  9  1  0
  9 10  2  0
 10 11  1  0
 11 12  1  0
 11 13  2  0
 13 14  1  0
 14 15  2  0
 14 16  1  0
 16 17  1  0
  4 18  2  0
 18 19  1  0
 19 20  2  0
 20 21  1  0
 21 22  1  0
 22 23  1  0
 20  2  1  0
 16  5  2  0
 13  7  1  0
  1 24  1  0
  1 25  1  0
  1 26  1  0
  3 27  1  0
  8 28  1  0
  9 29  1  0
 10 30  1  0
 12 31  1  0
 17 32  1  0
 18 33  1  0
 19 34  1  0
 21 35  1  0
 21 36  1  0
 22 37  1  0
 22 38  1  0
M  END
>  <meeko>  (3) 
{"is_sidechain": [false], "free_energy": -7.168, "intermolecular_energy": -8.951, "internal_energy": -0.301}

$$$$
cand_047_out
     RDKit          3D

 38 40  0  0  0  0  0  0  0  0999 V2000
  175.5510   18.7590   47.3760 C   0  0  0  0  0  0  0  0  0  0  0  0
  175.8250   20.1900   47.7490 C   0  0  0  0  0  0  0  0  0  0  0  0
  175.1210   20.7530   48.8320 C   0  0  0  0  0  0  0  0  0  0  0  0
  175.3230   22.0830   49.2290 C   0  0  0  0  0  0  0  0  0  0  0  0
  174.5700   22.6820   50.3520 C   0  0  0  0  0  0  0  0  0  0  0  0
  175.3650   22.9270   51.4660 O   0  0  0  0  0  0  0  0  0  0  0  0
  174.7910   23.4850   52.5790 C   0  0  0  0  0  0  0  0  0  0  0  0
  175.6280   23.7280   53.6690 C   0  0  0  0  0  0  0  0  0  0  0  0
  175.1070   24.2930   54.8360 C   0  0  0  0  0  0  0  0  0  0  0  0
  173.7500   24.6110   54.9130 C   0  0  0  0  0  0  0  0  0  0  0  0
  172.9160   24.3660   53.8250 C   0  0  0  0  0  0  0  0  0  0  0  0
  171.5980   24.7000   53.9690 O   0  0  0  0  0  0  0  0  0  0  0  0
  173.4390   23.8030   52.6570 C   0  0  0  0  0  0  0  0  0  0  0  0
  172.5970   23.5290   51.4910 C   0  0  0  0  0  0  0  0  0  0  0  0
  171.3930   23.7740   51.4850 O   0  0  0  0  0  0  0  0  0  0  0  0
  173.2500   22.9380   50.3000 C   0  0  0  0  0  0  0  0  0  0  0  0
  172.4440   22.6710   49.2080 O   0  0  0  0  0  0  0  0  0  0  0  0
  176.2340   22.8610   48.5090 C   0  0  0  0  0  0  0  0  0  0  0  0
  176.9350   22.3200   47.4280 C   0  0  0  0  0  0  0  0  0  0  0  0
  176.7380   20.9870   47.0330 C   0  0  0  0  0  0  0  0  0  0  0  0
  177.5440   20.4550   45.8710 C   0  0  0  0  0  0  0  0  0  0  0  0
  179.0370   20.4610   46.1570 C   0  0  0  0  0  0  0  0  0  0  0  0
  179.2520   19.8670   47.3630 F   0  0  0  0  0  0  0  0  0  0  0  0
  175.4358   18.1575   48.2898 H   0  0  0  0  0  0  0  0  0  0  0  0
  174.6263   18.7053   46.7827 H   0  0  0  0  0  0  0  0  0  0  0  0
  176.3905   18.3675   46.7827 H   0  0  0  0  0  0  0  0  0  0  0  0
  174.3950   20.1341   49.3797 H   0  0  0  0  0  0  0  0  0  0  0  0
  176.6969   23.4750   53.6095 H   0  0  0  0  0  0  0  0  0  0  0  0
  175.7666   24.4873   55.6946 H   0  0  0  0  0  0  0  0  0  0  0  0
  173.3398   25.0547   55.8322 H   0  0  0  0  0  0  0  0  0  0  0  0
  171.1370   25.1010   53.2580 H   0  0  0  0  0  0  0  0  0  0  0  0
  172.8300   22.4260   48.3910 H   0  0  0  0  0  0  0  0  0  0  0  0
  176.4008   23.9097   48.7962 H   0  0  0  0  0  0  0  0  0  0  0  0
  177.6518   22.9477   46.8783 H   0  0  0  0  0  0  0  0  0  0  0  0
  177.2272   19.4222   45.6635 H   0  0  0  0  0  0  0  0  0  0  0  0
  177.3632   21.1106   45.0064 H   0  0  0  0  0  0  0  0  0  0  0  0
  179.5670   19.9042   45.3702 H   0  0  0  0  0  0  0  0  0  0  0  0
  179.4111   21.4952   46.1762 H   0  0  0  0  0  0  0  0  0  0  0  0
  1  2  1  0
  2  3  2  0
  3  4  1  0
  4  5  1  0
  5  6  1  0
  6  7  1  0
  7  8  2  0
  8  9  1  0
  9 10  2  0
 10 11  1  0
 11 12  1  0
 11 13  2  0
 13 14  1  0
 14 15  2  0
 14 16  1  0
 16 17  1  0
  4 18  2  0
 18 19  1  0
 19 20  2  0
 20 21  1  0
 21 22  1  0
 22 23  1  0
 20  2  1  0
 16  5  2  0
 13  7  1  0
  1 24  1  0
  1 25  1  0
  1 26  1  0
  3 27  1  0
  8 28  1  0
  9 29  1  0
 10 30  1  0
 12 31  1  0
 17 32  1  0
 18 33  1  0
 19 34  1  0
 21 35  1  0
 21 36  1  0
 22 37  1  0
 22 38  1  0
M  END
>  <meeko>  (4) 
{"is_sidechain": [false], "free_energy": -7.129, "intermolecular_energy": -8.646, "internal_energy": -0.557}

$$$$
cand_047_out
     RDKit          3D

 38 40  0  0  0  0  0  0  0  0999 V2000
  174.8100   25.7600   49.9860 C   0  0  0  0  0  0  0  0  0  0  0  0
  175.0220   24.3070   49.6600 C   0  0  0  0  0  0  0  0  0  0  0  0
  176.3280   23.8600   49.3790 C   0  0  0  0  0  0  0  0  0  0  0  0
  176.5950   22.5210   49.0610 C   0  0  0  0  0  0  0  0  0  0  0  0
  177.9620   22.0540   48.7450 C   0  0  0  0  0  0  0  0  0  0  0  0
  178.0830   21.5760   47.4450 O   0  0  0  0  0  0  0  0  0  0  0  0
  179.3010   21.1140   47.0190 C   0  0  0  0  0  0  0  0  0  0  0  0
  179.3810   20.6580   45.7030 C   0  0  0  0  0  0  0  0  0  0  0  0
  180.5920   20.1710   45.2060 C   0  0  0  0  0  0  0  0  0  0  0  0
  181.7220   20.1390   46.0260 C   0  0  0  0  0  0  0  0  0  0  0  0
  181.6400   20.5930   47.3400 C   0  0  0  0  0  0  0  0  0  0  0  0
  182.7830   20.5330   48.0880 O   0  0  0  0  0  0  0  0  0  0  0  0
  180.4270   21.0820   47.8350 C   0  0  0  0  0  0  0  0  0  0  0  0
  180.2980   21.5690   49.2100 C   0  0  0  0  0  0  0  0  0  0  0  0
  181.2440   21.5660   49.9940 O   0  0  0  0  0  0  0  0  0  0  0  0
  178.9720   22.0730   49.6350 C   0  0  0  0  0  0  0  0  0  0  0  0
  178.8570   22.5190   50.9390 O   0  0  0  0  0  0  0  0  0  0  0  0
  175.5250   21.6240   49.0070 C   0  0  0  0  0  0  0  0  0  0  0  0
  174.2220   22.0510   49.2770 C   0  0  0  0  0  0  0  0  0  0  0  0
  173.9540   23.3910   49.6010 C   0  0  0  0  0  0  0  0  0  0  0  0
  172.5270   23.7860   49.9050 C   0  0  0  0  0  0  0  0  0  0  0  0
  172.1130   23.4000   51.3160 C   0  0  0  0  0  0  0  0  0  0  0  0
  173.2120   23.4400   52.1190 F   0  0  0  0  0  0  0  0  0  0  0  0
  174.7908   25.8918   51.0779 H   0  0  0  0  0  0  0  0  0  0  0  0
  175.6308   26.3551   49.5593 H   0  0  0  0  0  0  0  0  0  0  0  0
  173.8534   26.0957   49.5593 H   0  0  0  0  0  0  0  0  0  0  0  0
  177.1593   24.5797   49.4099 H   0  0  0  0  0  0  0  0  0  0  0  0
  178.4909   20.6820   45.0572 H   0  0  0  0  0  0  0  0  0  0  0  0
  180.6557   19.8124   44.1680 H   0  0  0  0  0  0  0  0  0  0  0  0
  182.6758   19.7556   45.6344 H   0  0  0  0  0  0  0  0  0  0  0  0
  183.5020   20.0030   47.8020 H   0  0  0  0  0  0  0  0  0  0  0  0
  179.6260   22.6680   51.4520 H   0  0  0  0  0  0  0  0  0  0  0  0
  175.7102   20.5708   48.7493 H   0  0  0  0  0  0  0  0  0  0  0  0
  173.3946   21.3273   49.2352 H   0  0  0  0  0  0  0  0  0  0  0  0
  172.4294   24.8759   49.7927 H   0  0  0  0  0  0  0  0  0  0  0  0
  171.8713   23.2511   49.2022 H   0  0  0  0  0  0  0  0  0  0  0  0
  171.3574   24.1081   51.6870 H   0  0  0  0  0  0  0  0  0  0  0  0
  171.6842   22.3870   51.3173 H   0  0  0  0  0  0  0  0  0  0  0  0
  1  2  1  0
  2  3  2  0
  3  4  1  0
  4  5  1  0
  5  6  1  0
  6  7  1  0
  7  8  2  0
  8  9  1  0
  9 10  2  0
 10 11  1  0
 11 12  1  0
 11 13  2  0
 13 14  1  0
 14 15  2  0
 14 16  1  0
 16 17  1  0
  4 18  2  0
 18 19  1  0
 19 20  2  0
 20 21  1  0
 21 22  1  0
 22 23  1  0
 20  2  1  0
 16  5  2  0
 13  7  1  0
  1 24  1  0
  1 25  1  0
  1 26  1  0
  3 27  1  0
  8 28  1  0
  9 29  1  0
 10 30  1  0
 12 31  1  0
 17 32  1  0
 18 33  1  0
 19 34  1  0
 21 35  1  0
 21 36  1  0
 22 37  1  0
 22 38  1  0
M  END
>  <meeko>  (5) 
{"is_sidechain": [false], "free_energy": -7.099, "intermolecular_energy": -8.641, "internal_energy": -0.526}

$$$$
cand_047_out
     RDKit          3D

 38 40  0  0  0  0  0  0  0  0999 V2000
  177.6000   18.9860   46.2140 C   0  0  0  0  0  0  0  0  0  0  0  0
  178.0820   20.2230   46.9220 C   0  0  0  0  0  0  0  0  0  0  0  0
  177.3170   20.7320   47.9900 C   0  0  0  0  0  0  0  0  0  0  0  0
  177.7040   21.8840   48.6900 C   0  0  0  0  0  0  0  0  0  0  0  0
  176.8920   22.4310   49.7970 C   0  0  0  0  0  0  0  0  0  0  0  0
  175.7920   23.1570   49.3530 O   0  0  0  0  0  0  0  0  0  0  0  0
  174.9520   23.7190   50.2790 C   0  0  0  0  0  0  0  0  0  0  0  0
  173.8520   24.4260   49.7890 C   0  0  0  0  0  0  0  0  0  0  0  0
  172.9570   25.0260   50.6790 C   0  0  0  0  0  0  0  0  0  0  0  0
  173.1630   24.9200   52.0560 C   0  0  0  0  0  0  0  0  0  0  0  0
  174.2610   24.2160   52.5420 C   0  0  0  0  0  0  0  0  0  0  0  0
  174.4030   24.1520   53.9000 O   0  0  0  0  0  0  0  0  0  0  0  0
  175.1550   23.6150   51.6510 C   0  0  0  0  0  0  0  0  0  0  0  0
  176.3220   22.8650   52.1200 C   0  0  0  0  0  0  0  0  0  0  0  0
  176.5750   22.7340   53.3160 O   0  0  0  0  0  0  0  0  0  0  0  0
  177.2040   22.2590   51.0950 C   0  0  0  0  0  0  0  0  0  0  0  0
  178.3110   21.5640   51.5480 O   0  0  0  0  0  0  0  0  0  0  0  0
  178.8700   22.5440   48.2910 C   0  0  0  0  0  0  0  0  0  0  0  0
  179.6370   22.0560   47.2290 C   0  0  0  0  0  0  0  0  0  0  0  0
  179.2530   20.8990   46.5320 C   0  0  0  0  0  0  0  0  0  0  0  0
  180.1380   20.4100   45.4080 C   0  0  0  0  0  0  0  0  0  0  0  0
  181.5490   20.1030   45.8810 C   0  0  0  0  0  0  0  0  0  0  0  0
  181.4760   19.3090   46.9860 F   0  0  0  0  0  0  0  0  0  0  0  0
  177.3054   18.2298   46.9566 H   0  0  0  0  0  0  0  0  0  0  0  0
  176.7343   19.2380   45.5839 H   0  0  0  0  0  0  0  0  0  0  0  0
  178.4080   18.5858   45.5839 H   0  0  0  0  0  0  0  0  0  0  0  0
  176.3925   20.2125   48.2823 H   0  0  0  0  0  0  0  0  0  0  0  0
  173.6902   24.5105   48.7043 H   0  0  0  0  0  0  0  0  0  0  0  0
  172.0895   25.5823   50.2944 H   0  0  0  0  0  0  0  0  0  0  0  0
  172.4582   25.3924   52.7560 H   0  0  0  0  0  0  0  0  0  0  0  0
  175.0640   24.6640   54.3260 H   0  0  0  0  0  0  0  0  0  0  0  0
  178.9410   21.9930   52.0930 H   0  0  0  0  0  0  0  0  0  0  0  0
  179.1870   23.4561   48.8178 H   0  0  0  0  0  0  0  0  0  0  0  0
  180.5549   22.5862   46.9350 H   0  0  0  0  0  0  0  0  0  0  0  0
  179.6993   19.4946   44.9843 H   0  0  0  0  0  0  0  0  0  0  0  0
  180.2005   21.2094   44.6550 H   0  0  0  0  0  0  0  0  0  0  0  0
  182.1007   19.5806   45.0855 H   0  0  0  0  0  0  0  0  0  0  0  0
  182.0743   21.0381   46.1253 H   0  0  0  0  0  0  0  0  0  0  0  0
  1  2  1  0
  2  3  2  0
  3  4  1  0
  4  5  1  0
  5  6  1  0
  6  7  1  0
  7  8  2  0
  8  9  1  0
  9 10  2  0
 10 11  1  0
 11 12  1  0
 11 13  2  0
 13 14  1  0
 14 15  2  0
 14 16  1  0
 16 17  1  0
  4 18  2  0
 18 19  1  0
 19 20  2  0
 20 21  1  0
 21 22  1  0
 22 23  1  0
 20  2  1  0
 16  5  2  0
 13  7  1  0
  1 24  1  0
  1 25  1  0
  1 26  1  0
  3 27  1  0
  8 28  1  0
  9 29  1  0
 10 30  1  0
 12 31  1  0
 17 32  1  0
 18 33  1  0
 19 34  1  0
 21 35  1  0
 21 36  1  0
 22 37  1  0
 22 38  1  0
M  END
>  <meeko>  (6) 
{"is_sidechain": [false], "free_energy": -7.088, "intermolecular_energy": -8.555, "internal_energy": -0.598}

$$$$
cand_047_out
     RDKit          3D

 38 40  0  0  0  0  0  0  0  0999 V2000
  176.7140   22.6150   47.6770 C   0  0  0  0  0  0  0  0  0  0  0  0
  177.9180   21.7370   47.4720 C   0  0  0  0  0  0  0  0  0  0  0  0
  179.1620   22.1680   47.9720 C   0  0  0  0  0  0  0  0  0  0  0  0
  180.3250   21.4020   47.8110 C   0  0  0  0  0  0  0  0  0  0  0  0
  181.6360   21.8630   48.3160 C   0  0  0  0  0  0  0  0  0  0  0  0
  182.4540   22.3710   47.3140 O   0  0  0  0  0  0  0  0  0  0  0  0
  183.7000   22.8360   47.6460 C   0  0  0  0  0  0  0  0  0  0  0  0
  184.4810   23.3520   46.6110 C   0  0  0  0  0  0  0  0  0  0  0  0
  185.7620   23.8400   46.8820 C   0  0  0  0  0  0  0  0  0  0  0  0
  186.2610   23.8110   48.1850 C   0  0  0  0  0  0  0  0  0  0  0  0
  185.4800   23.2960   49.2170 C   0  0  0  0  0  0  0  0  0  0  0  0
  186.0300   23.2960   50.4690 O   0  0  0  0  0  0  0  0  0  0  0  0
  184.1980   22.8090   48.9450 C   0  0  0  0  0  0  0  0  0  0  0  0
  183.3450   22.2580   50.0000 C   0  0  0  0  0  0  0  0  0  0  0  0
  183.7160   22.1910   51.1700 O   0  0  0  0  0  0  0  0  0  0  0  0
  182.0000   21.7750   49.6100 C   0  0  0  0  0  0  0  0  0  0  0  0
  181.2060   21.2450   50.6110 O   0  0  0  0  0  0  0  0  0  0  0  0
  180.2350   20.1930   47.1160 C   0  0  0  0  0  0  0  0  0  0  0  0
  179.0090   19.7530   46.6070 C   0  0  0  0  0  0  0  0  0  0  0  0
  177.8430   20.5170   46.7740 C   0  0  0  0  0  0  0  0  0  0  0  0
  176.5440   19.9760   46.2210 C   0  0  0  0  0  0  0  0  0  0  0  0
  175.9480   18.8960   47.1090 C   0  0  0  0  0  0  0  0  0  0  0  0
  176.1810   19.2250   48.4100 F   0  0  0  0  0  0  0  0  0  0  0  0
  176.5347   22.7457   48.7544 H   0  0  0  0  0  0  0  0  0  0  0  0
  176.8926   23.5964   47.2133 H   0  0  0  0  0  0  0  0  0  0  0  0
  175.8342   22.1450   47.2133 H   0  0  0  0  0  0  0  0  0  0  0  0
  179.2226   23.1299   48.5022 H   0  0  0  0  0  0  0  0  0  0  0  0
  184.0889   23.3745   45.5835 H   0  0  0  0  0  0  0  0  0  0  0  0
  186.3781   24.2477   46.0670 H   0  0  0  0  0  0  0  0  0  0  0  0
  187.2700   24.1944   48.3968 H   0  0  0  0  0  0  0  0  0  0  0  0
  186.9490   23.1470   50.5760 H   0  0  0  0  0  0  0  0  0  0  0  0
  180.4750   21.7330   50.9350 H   0  0  0  0  0  0  0  0  0  0  0  0
  181.1373   19.5815   46.9678 H   0  0  0  0  0  0  0  0  0  0  0  0
  178.9575   18.7952   46.0684 H   0  0  0  0  0  0  0  0  0  0  0  0
  175.8233   20.8027   46.1363 H   0  0  0  0  0  0  0  0  0  0  0  0
  176.7556   19.5274   45.2391 H   0  0  0  0  0  0  0  0  0  0  0  0
  174.8644   18.8275   46.9325 H   0  0  0  0  0  0  0  0  0  0  0  0
  176.4088   17.9240   46.8790 H   0  0  0  0  0  0  0  0  0  0  0  0
  1  2  1  0
  2  3  2  0
  3  4  1  0
  4  5  1  0
  5  6  1  0
  6  7  1  0
  7  8  2  0
  8  9  1  0
  9 10  2  0
 10 11  1  0
 11 12  1  0
 11 13  2  0
 13 14  1  0
 14 15  2  0
 14 16  1  0
 16 17  1  0
  4 18  2  0
 18 19  1  0
 19 20  2  0
 20 21  1  0
 21 22  1  0
 22 23  1  0
 20  2  1  0
 16  5  2  0
 13  7  1  0
  1 24  1  0
  1 25  1  0
  1 26  1  0
  3 27  1  0
  8 28  1  0
  9 29  1  0
 10 30  1  0
 12 31  1  0
 17 32  1  0
 18 33  1  0
 19 34  1  0
 21 35  1  0
 21 36  1  0
 22 37  1  0
 22 38  1  0
M  END
>  <meeko>  (7) 
{"is_sidechain": [false], "free_energy": -7.055, "intermolecular_energy": -8.487, "internal_energy": -0.626}

$$$$
cand_047_out
     RDKit          3D

 38 40  0  0  0  0  0  0  0  0999 V2000
  181.3890   21.7270   47.2140 C   0  0  0  0  0  0  0  0  0  0  0  0
  179.9260   21.3750   47.2020 C   0  0  0  0  0  0  0  0  0  0  0  0
  179.1050   21.8670   48.2350 C   0  0  0  0  0  0  0  0  0  0  0  0
  177.7340   21.5730   48.2880 C   0  0  0  0  0  0  0  0  0  0  0  0
  176.8740   22.0700   49.3840 C   0  0  0  0  0  0  0  0  0  0  0  0
  175.6910   22.6390   48.9270 O   0  0  0  0  0  0  0  0  0  0  0  0
  174.8000   23.1390   49.8400 C   0  0  0  0  0  0  0  0  0  0  0  0
  173.6180   23.6870   49.3380 C   0  0  0  0  0  0  0  0  0  0  0  0
  172.6680   24.2150   50.2150 C   0  0  0  0  0  0  0  0  0  0  0  0
  172.9000   24.1980   51.5920 C   0  0  0  0  0  0  0  0  0  0  0  0
  174.0800   23.6520   52.0900 C   0  0  0  0  0  0  0  0  0  0  0  0
  174.2430   23.6690   53.4470 O   0  0  0  0  0  0  0  0  0  0  0  0
  175.0290   23.1220   51.2120 C   0  0  0  0  0  0  0  0  0  0  0  0
  176.2830   22.5390   51.6940 C   0  0  0  0  0  0  0  0  0  0  0  0
  176.5630   22.4940   52.8900 O   0  0  0  0  0  0  0  0  0  0  0  0
  177.2190   21.9960   50.6830 C   0  0  0  0  0  0  0  0  0  0  0  0
  178.4060   21.4600   51.1480 O   0  0  0  0  0  0  0  0  0  0  0  0
  177.1910   20.7530   47.2950 C   0  0  0  0  0  0  0  0  0  0  0  0
  177.9930   20.2520   46.2670 C   0  0  0  0  0  0  0  0  0  0  0  0
  179.3640   20.5510   46.2090 C   0  0  0  0  0  0  0  0  0  0  0  0
  180.1730   19.9970   45.0590 C   0  0  0  0  0  0  0  0  0  0  0  0
  180.7940   18.6500   45.3900 C   0  0  0  0  0  0  0  0  0  0  0  0
  179.8020   17.7190   45.4610 F   0  0  0  0  0  0  0  0  0  0  0  0
  181.7374   21.8108   48.2540 H   0  0  0  0  0  0  0  0  0  0  0  0
  181.9596   20.9405   46.6984 H   0  0  0  0  0  0  0  0  0  0  0  0
  181.5394   22.6870   46.6984 H   0  0  0  0  0  0  0  0  0  0  0  0
  179.5493   22.4972   49.0195 H   0  0  0  0  0  0  0  0  0  0  0  0
  173.4353   23.7028   48.2534 H   0  0  0  0  0  0  0  0  0  0  0  0
  171.7355   24.6450   49.8205 H   0  0  0  0  0  0  0  0  0  0  0  0
  172.1518   24.6152   52.2820 H   0  0  0  0  0  0  0  0  0  0  0  0
  174.4240   22.8720   53.9070 H   0  0  0  0  0  0  0  0  0  0  0  0
  178.9810   21.9810   51.6720 H   0  0  0  0  0  0  0  0  0  0  0  0
  176.1210   20.4995   47.3233 H   0  0  0  0  0  0  0  0  0  0  0  0
  177.5442   19.6139   45.4915 H   0  0  0  0  0  0  0  0  0  0  0  0
  179.5134   19.8782   44.1868 H   0  0  0  0  0  0  0  0  0  0  0  0
  180.9901   20.7032   44.8500 H   0  0  0  0  0  0  0  0  0  0  0  0
  181.5102   18.3690   44.6038 H   0  0  0  0  0  0  0  0  0  0  0  0
  181.3247   18.7074   46.3518 H   0  0  0  0  0  0  0  0  0  0  0  0
  1  2  1  0
  2  3  2  0
  3  4  1  0
  4  5  1  0
  5  6  1  0
  6  7  1  0
  7  8  2  0
  8  9  1  0
  9 10  2  0
 10 11  1  0
 11 12  1  0
 11 13  2  0
 13 14  1  0
 14 15  2  0
 14 16  1  0
 16 17  1  0
  4 18  2  0
 18 19  1  0
 19 20  2  0
 20 21  1  0
 21 22  1  0
 22 23  1  0
 20  2  1  0
 16  5  2  0
 13  7  1  0
  1 24  1  0
  1 25  1  0
  1 26  1  0
  3 27  1  0
  8 28  1  0
  9 29  1  0
 10 30  1  0
 12 31  1  0
 17 32  1  0
 18 33  1  0
 19 34  1  0
 21 35  1  0
 21 36  1  0
 22 37  1  0
 22 38  1  0
M  END
>  <meeko>  (8) 
{"is_sidechain": [false], "free_energy": -6.962, "intermolecular_energy": -8.806, "internal_energy": -0.191}

$$$$
cand_047_out
     RDKit          3D

 38 40  0  0  0  0  0  0  0  0999 V2000
  182.9020   25.6720   47.8670 C   0  0  0  0  0  0  0  0  0  0  0  0
  182.5150   24.2330   47.6620 C   0  0  0  0  0  0  0  0  0  0  0  0
  181.2570   23.7980   48.1240 C   0  0  0  0  0  0  0  0  0  0  0  0
  180.8360   22.4700   47.9700 C   0  0  0  0  0  0  0  0  0  0  0  0
  179.5250   22.0060   48.4730 C   0  0  0  0  0  0  0  0  0  0  0  0
  178.6030   21.7850   47.4570 O   0  0  0  0  0  0  0  0  0  0  0  0
  177.3450   21.3510   47.7860 C   0  0  0  0  0  0  0  0  0  0  0  0
  176.4560   21.1280   46.7340 C   0  0  0  0  0  0  0  0  0  0  0  0
  175.1580   20.6850   47.0000 C   0  0  0  0  0  0  0  0  0  0  0  0
  174.7490   20.4690   48.3180 C   0  0  0  0  0  0  0  0  0  0  0  0
  175.6370   20.6930   49.3660 C   0  0  0  0  0  0  0  0  0  0  0  0
  175.1720   20.4630   50.6310 O   0  0  0  0  0  0  0  0  0  0  0  0
  176.9370   21.1340   49.0980 C   0  0  0  0  0  0  0  0  0  0  0  0
  177.9020   21.3820   50.1710 C   0  0  0  0  0  0  0  0  0  0  0  0
  177.6150   21.2220   51.3560 O   0  0  0  0  0  0  0  0  0  0  0  0
  179.2560   21.8400   49.7820 C   0  0  0  0  0  0  0  0  0  0  0  0
  180.1560   22.0840   50.8030 O   0  0  0  0  0  0  0  0  0  0  0  0
  181.7070   21.5620   47.3590 C   0  0  0  0  0  0  0  0  0  0  0  0
  182.9600   21.9760   46.9010 C   0  0  0  0  0  0  0  0  0  0  0  0
  183.3810   23.3070   47.0490 C   0  0  0  0  0  0  0  0  0  0  0  0
  184.7380   23.6970   46.5110 C   0  0  0  0  0  0  0  0  0  0  0  0
  184.7140   23.9370   45.0110 C   0  0  0  0  0  0  0  0  0  0  0  0
  184.1030   25.1300   44.7700 F   0  0  0  0  0  0  0  0  0  0  0  0
  182.9596   25.8863   48.9444 H   0  0  0  0  0  0  0  0  0  0  0  0
  183.8820   25.8578   47.4033 H   0  0  0  0  0  0  0  0  0  0  0  0
  182.1474   26.3243   47.4033 H   0  0  0  0  0  0  0  0  0  0  0  0
  180.5886   24.5186   48.6179 H   0  0  0  0  0  0  0  0  0  0  0  0
  176.7768   21.3008   45.6961 H   0  0  0  0  0  0  0  0  0  0  0  0
  174.4576   20.5062   46.1709 H   0  0  0  0  0  0  0  0  0  0  0  0
  173.7263   20.1223   48.5274 H   0  0  0  0  0  0  0  0  0  0  0  0
  174.9080   21.1820   51.1710 H   0  0  0  0  0  0  0  0  0  0  0  0
  180.0410   22.8280   51.3590 H   0  0  0  0  0  0  0  0  0  0  0  0
  181.4024   20.5120   47.2380 H   0  0  0  0  0  0  0  0  0  0  0  0
  183.6272   21.2477   46.4168 H   0  0  0  0  0  0  0  0  0  0  0  0
  185.0658   24.6198   47.0121 H   0  0  0  0  0  0  0  0  0  0  0  0
  185.4310   22.8659   46.7087 H   0  0  0  0  0  0  0  0  0  0  0  0
  185.7432   23.9632   44.6237 H   0  0  0  0  0  0  0  0  0  0  0  0
  184.1645   23.1263   44.5102 H   0  0  0  0  0  0  0  0  0  0  0  0
  1  2  1  0
  2  3  2  0
  3  4  1  0
  4  5  1  0
  5  6  1  0
  6  7  1  0
  7  8  2  0
  8  9  1  0
  9 10  2  0
 10 11  1  0
 11 12  1  0
 11 13  2  0
 13 14  1  0
 14 15  2  0
 14 16  1  0
 16 17  1  0
  4 18  2  0
 18 19  1  0
 19 20  2  0
 20 21  1  0
 21 22  1  0
 22 23  1  0
 20  2  1  0
 16  5  2  0
 13  7  1  0
  1 24  1  0
  1 25  1  0
  1 26  1  0
  3 27  1  0
  8 28  1  0
  9 29  1  0
 10 30  1  0
 12 31  1  0
 17 32  1  0
 18 33  1  0
 19 34  1  0
 21 35  1  0
 21 36  1  0
 22 37  1  0
 22 38  1  0
M  END
>  <meeko>  (9) 
{"is_sidechain": [false], "free_energy": -6.866, "intermolecular_energy": -8.322, "internal_energy": -0.557}

$$$$
