cand_009_out
     RDKit          3D

 41 43  0  0  0  0  0  0  0  0999 V2000
  177.0180   22.8820   48.9010 C   0  0  0  0  0  0  0  0  0  0  0  0
  177.6980   21.8200   48.0810 C   0  0  0  0  0  0  0  0  0  0  0  0
  179.0170   22.0470   47.6560 C   0  0  0  0  0  0  0  0  0  0  0  0
  179.7020   21.1000   46.8910 C   0  0  0  0  0  0  0  0  0  0  0  0
  179.0850   19.9020   46.5230 C   0  0  0  0  0  0  0  0  0  0  0  0
  179.8330   18.9000   45.7340 C   0  0  0  0  0  0  0  0  0  0  0  0
  179.2500   17.6390   45.7700 O   0  0  0  0  0  0  0  0  0  0  0  0
  179.8420   16.6140   45.0780 C   0  0  0  0  0  0  0  0  0  0  0  0
  179.2140   15.3690   45.1290 C   0  0  0  0  0  0  0  0  0  0  0  0
  179.7670   14.2820   44.4480 C   0  0  0  0  0  0  0  0  0  0  0  0
  180.9460   14.4400   43.7160 C   0  0  0  0  0  0  0  0  0  0  0  0
  181.5700   15.6830   43.6670 C   0  0  0  0  0  0  0  0  0  0  0  0
  182.7220   15.7680   42.9340 O   0  0  0  0  0  0  0  0  0  0  0  0
  181.0170   16.7710   44.3480 C   0  0  0  0  0  0  0  0  0  0  0  0
  181.6410   18.0940   44.3220 C   0  0  0  0  0  0  0  0  0  0  0  0
  182.6830   18.3110   43.7080 O   0  0  0  0  0  0  0  0  0  0  0  0
  180.9700   19.1830   45.0710 C   0  0  0  0  0  0  0  0  0  0  0  0
  181.5760   20.4250   45.0500 O   0  0  0  0  0  0  0  0  0  0  0  0
  177.7720   19.6700   46.9570 C   0  0  0  0  0  0  0  0  0  0  0  0
  177.0570   20.6130   47.7290 C   0  0  0  0  0  0  0  0  0  0  0  0
  175.6270   20.2980   48.1550 C   0  0  0  0  0  0  0  0  0  0  0  0
  175.5890   19.5790   49.5070 C   0  0  0  0  0  0  0  0  0  0  0  0
  174.8830   19.4910   47.0860 C   0  0  0  0  0  0  0  0  0  0  0  0
  177.1571   22.6648   49.9703 H   0  0  0  0  0  0  0  0  0  0  0  0
  177.4562   23.8632   48.6662 H   0  0  0  0  0  0  0  0  0  0  0  0
  175.9434   22.8946   48.6662 H   0  0  0  0  0  0  0  0  0  0  0  0
  179.5193   22.9864   47.9301 H   0  0  0  0  0  0  0  0  0  0  0  0
  180.7367   21.2995   46.5755 H   0  0  0  0  0  0  0  0  0  0  0  0
  178.2850   15.2437   45.7045 H   0  0  0  0  0  0  0  0  0  0  0  0
  179.2731   13.2999   44.4883 H   0  0  0  0  0  0  0  0  0  0  0  0
  181.3804   13.5837   43.1793 H   0  0  0  0  0  0  0  0  0  0  0  0
  182.9900   15.0470   42.3980 H   0  0  0  0  0  0  0  0  0  0  0  0
  182.4610   20.5210   45.3420 H   0  0  0  0  0  0  0  0  0  0  0  0
  177.2824   18.7225   46.6875 H   0  0  0  0  0  0  0  0  0  0  0  0
  175.1063   21.2601   48.2700 H   0  0  0  0  0  0  0  0  0  0  0  0
  175.6282   20.3210   50.3181 H   0  0  0  0  0  0  0  0  0  0  0  0
  174.6589   18.9972   49.5869 H   0  0  0  0  0  0  0  0  0  0  0  0
  176.4527   18.9024   49.5869 H   0  0  0  0  0  0  0  0  0  0  0  0
  174.2145   18.7659   47.5731 H   0  0  0  0  0  0  0  0  0  0  0  0
  174.2898   20.1727   46.4587 H   0  0  0  0  0  0  0  0  0  0  0  0
  175.6105   18.9551   46.4587 H   0  0  0  0  0  0  0  0  0  0  0  0
  1  2  1  0
  2  3  2  0
  3  4  1  0
  4  5  2  0
  5  6  1  0
  6  7  1  0
  7  8  1  0
  8  9  2  0
  9 10  1  0
 10 11  2  0
 11 12  1  0
 12 13  1  0
 12 14  2  0
 14 15  1  0
 15 16  2  0
 15 17  1  0
 17 18  1  0
  5 19  1  0
 19 20  2  0
 20 21  1  0
 21 22  1  0
 21 23  1  0
 20  2  1  0
 17  6  2  0
 14  8  1  0
  1 24  1  0
  1 25  1  0
  1 26  1  0
  3 27  1  0
  4 28  1  0
  9 29  1  0
 10 30  1  0
 11 31  1  0
 13 32  1  0
 18 33  1  0
 19 34  1  0
 21 35  1  0
 22 36  1  0
 22 37  1  0
 22 38  1  0
 23 39  1  0
 23 40  1  0
 23 41  1  0
M  END
>  <meeko>  (1) 
{"is_sidechain": [false], "free_energy": -7.827, "intermolecular_energy": -9.2, "internal_energy": 0.034}

$$$$
cand_009_out
     RDKit          3D

 41 43  0  0  0  0  0  0  0  0999 V2000
  182.1890   16.0140   42.8760 C   0  0  0  0  0  0  0  0  0  0  0  0
  181.3720   16.8440   43.8290 C   0  0  0  0  0  0  0  0  0  0  0  0
  181.6340   18.2220   43.9060 C   0  0  0  0  0  0  0  0  0  0  0  0
  180.9120   19.0460   44.7720 C   0  0  0  0  0  0  0  0  0  0  0  0
  179.9110   18.5150   45.5900 C   0  0  0  0  0  0  0  0  0  0  0  0
  179.1400   19.4060   46.4820 C   0  0  0  0  0  0  0  0  0  0  0  0
  177.7740   19.1480   46.4550 O   0  0  0  0  0  0  0  0  0  0  0  0
  176.9400   19.9020   47.2390 C   0  0  0  0  0  0  0  0  0  0  0  0
  175.5780   19.5980   47.1910 C   0  0  0  0  0  0  0  0  0  0  0  0
  174.6740   20.3300   47.9630 C   0  0  0  0  0  0  0  0  0  0  0  0
  175.1300   21.3660   48.7820 C   0  0  0  0  0  0  0  0  0  0  0  0
  176.4890   21.6670   48.8270 C   0  0  0  0  0  0  0  0  0  0  0  0
  176.8670   22.6930   49.6490 O   0  0  0  0  0  0  0  0  0  0  0  0
  177.3940   20.9340   48.0540 C   0  0  0  0  0  0  0  0  0  0  0  0
  178.8290   21.2180   48.0730 C   0  0  0  0  0  0  0  0  0  0  0  0
  179.3060   22.1170   48.7610 O   0  0  0  0  0  0  0  0  0  0  0  0
  179.7050   20.3770   47.2230 C   0  0  0  0  0  0  0  0  0  0  0  0
  181.0570   20.6630   47.2390 O   0  0  0  0  0  0  0  0  0  0  0  0
  179.6420   17.1410   45.5050 C   0  0  0  0  0  0  0  0  0  0  0  0
  180.3610   16.2860   44.6390 C   0  0  0  0  0  0  0  0  0  0  0  0
  180.0220   14.8000   44.6080 C   0  0  0  0  0  0  0  0  0  0  0  0
  181.0310   13.9770   45.4160 C   0  0  0  0  0  0  0  0  0  0  0  0
  179.9130   14.2750   43.1730 C   0  0  0  0  0  0  0  0  0  0  0  0
  182.8488   15.3437   43.4464 H   0  0  0  0  0  0  0  0  0  0  0  0
  181.5176   15.4157   42.2425 H   0  0  0  0  0  0  0  0  0  0  0  0
  182.7978   16.6758   42.2425 H   0  0  0  0  0  0  0  0  0  0  0  0
  182.4208   18.6592   43.2737 H   0  0  0  0  0  0  0  0  0  0  0  0
  181.1332   20.1228   44.8106 H   0  0  0  0  0  0  0  0  0  0  0  0
  175.2179   18.7830   46.5459 H   0  0  0  0  0  0  0  0  0  0  0  0
  173.6010   20.0907   47.9264 H   0  0  0  0  0  0  0  0  0  0  0  0
  174.4173   21.9426   49.3899 H   0  0  0  0  0  0  0  0  0  0  0  0
  176.6040   23.5710   49.4520 H   0  0  0  0  0  0  0  0  0  0  0  0
  181.4230   21.1630   47.9420 H   0  0  0  0  0  0  0  0  0  0  0  0
  178.8455   16.7150   46.1328 H   0  0  0  0  0  0  0  0  0  0  0  0
  179.0361   14.6843   45.0819 H   0  0  0  0  0  0  0  0  0  0  0  0
  180.8487   14.1257   46.4905 H   0  0  0  0  0  0  0  0  0  0  0  0
  180.9166   12.9113   45.1687 H   0  0  0  0  0  0  0  0  0  0  0  0
  182.0520   14.3032   45.1687 H   0  0  0  0  0  0  0  0  0  0  0  0
  179.6894   13.1981   43.1925 H   0  0  0  0  0  0  0  0  0  0  0  0
  179.1063   14.8075   42.6480 H   0  0  0  0  0  0  0  0  0  0  0  0
  180.8650   14.4423   42.6480 H   0  0  0  0  0  0  0  0  0  0  0  0
  1  2  1  0
  2  3  2  0
  3  4  1  0
  4  5  2  0
  5  6  1  0
  6  7  1  0
  7  8  1  0
  8  9  2  0
  9 10  1  0
 10 11  2  0
 11 12  1  0
 12 13  1  0
 12 14  2  0
 14 15  1  0
 15 16  2  0
 15 17  1  0
 17 18  1  0
  5 19  1  0
 19 20  2  0
 20 21  1  0
 21 22  1  0
 21 23  1  0
 20  2  1  0
 17  6  2  0
 14  8  1  0
  1 24  1  0
  1 25  1  0
  1 26  1  0
  3 27  1  0
  4 28  1  0
  9 29  1  0
 10 30  1  0
 11 31  1  0
 13 32  1  0
 18 33  1  0
 19 34  1  0
 21 35  1  0
 22 36  1  0
 22 37  1  0
 22 38  1  0
 23 39  1  0
 23 40  1  0
 23 41  1  0
M  END
>  <meeko>  (2) 
{"is_sidechain": [false], "free_energy": -7.204, "intermolecular_energy": -9.006, "internal_energy": 0.572}

$$$$
cand_009_out
     RDKit          3D

 41 43  0  0  0  0  0  0  0  0999 V2000
  182.0770   15.4640   42.7420 C   0  0  0  0  0  0  0  0  0  0  0  0
  181.4910   16.4920   43.6710 C   0  0  0  0  0  0  0  0  0  0  0  0
  181.9640   17.8120   43.5900 C   0  0  0  0  0  0  0  0  0  0  0  0
  181.4630   18.8110   44.4260 C   0  0  0  0  0  0  0  0  0  0  0  0
  180.4770   18.5190   45.3720 C   0  0  0  0  0  0  0  0  0  0  0  0
  179.9400   19.5950   46.2320 C   0  0  0  0  0  0  0  0  0  0  0  0
  178.5520   19.6680   46.2010 O   0  0  0  0  0  0  0  0  0  0  0  0
  177.9200   20.6230   46.9560 C   0  0  0  0  0  0  0  0  0  0  0  0
  176.5260   20.6510   46.9050 C   0  0  0  0  0  0  0  0  0  0  0  0
  175.8210   21.6000   47.6490 C   0  0  0  0  0  0  0  0  0  0  0  0
  176.5100   22.5210   48.4420 C   0  0  0  0  0  0  0  0  0  0  0  0
  177.9010   22.4910   48.4890 C   0  0  0  0  0  0  0  0  0  0  0  0
  178.5130   23.4220   49.2840 O   0  0  0  0  0  0  0  0  0  0  0  0
  178.6060   21.5410   47.7450 C   0  0  0  0  0  0  0  0  0  0  0  0
  180.0680   21.4750   47.7680 C   0  0  0  0  0  0  0  0  0  0  0  0
  180.7450   22.2550   48.4340 O   0  0  0  0  0  0  0  0  0  0  0  0
  180.7190   20.4250   46.9500 C   0  0  0  0  0  0  0  0  0  0  0  0
  182.1000   20.3800   46.9680 O   0  0  0  0  0  0  0  0  0  0  0  0
  179.9960   17.2040   45.4460 C   0  0  0  0  0  0  0  0  0  0  0  0
  180.4900   16.1740   44.6140 C   0  0  0  0  0  0  0  0  0  0  0  0
  179.9290   14.7640   44.7580 C   0  0  0  0  0  0  0  0  0  0  0  0
  180.9380   13.8230   45.4240 C   0  0  0  0  0  0  0  0  0  0  0  0
  179.4620   14.2010   43.4120 C   0  0  0  0  0  0  0  0  0  0  0  0
  182.5370   14.6571   43.3313 H   0  0  0  0  0  0  0  0  0  0  0  0
  181.2810   15.0468   42.1077 H   0  0  0  0  0  0  0  0  0  0  0  0
  182.8415   15.9364   42.1077 H   0  0  0  0  0  0  0  0  0  0  0  0
  182.7429   18.0628   42.8549 H   0  0  0  0  0  0  0  0  0  0  0  0
  181.8479   19.8378   44.3393 H   0  0  0  0  0  0  0  0  0  0  0  0
  175.9830   19.9269   46.2799 H   0  0  0  0  0  0  0  0  0  0  0  0
  174.7219   21.6222   47.6105 H   0  0  0  0  0  0  0  0  0  0  0  0
  175.9546   23.2682   49.0279 H   0  0  0  0  0  0  0  0  0  0  0  0
  178.3950   24.3350   49.1100 H   0  0  0  0  0  0  0  0  0  0  0  0
  182.5520   19.6520   46.5900 H   0  0  0  0  0  0  0  0  0  0  0  0
  179.2081   16.9662   46.1758 H   0  0  0  0  0  0  0  0  0  0  0  0
  179.0490   14.8332   45.4144 H   0  0  0  0  0  0  0  0  0  0  0  0
  180.8498   13.9053   46.5174 H   0  0  0  0  0  0  0  0  0  0  0  0
  180.7318   12.7872   45.1164 H   0  0  0  0  0  0  0  0  0  0  0  0
  181.9569   14.1009   45.1164 H   0  0  0  0  0  0  0  0  0  0  0  0
  178.7685   13.3649   43.5850 H   0  0  0  0  0  0  0  0  0  0  0  0
  178.9498   14.9903   42.8422 H   0  0  0  0  0  0  0  0  0  0  0  0
  180.3324   13.8435   42.8422 H   0  0  0  0  0  0  0  0  0  0  0  0
  1  2  1  0
  2  3  2  0
  3  4  1  0
  4  5  2  0
  5  6  1  0
  6  7  1  0
  7  8  1  0
  8  9  2  0
  9 10  1  0
 10 11  2  0
 11 12  1  0
 12 13  1  0
 12 14  2  0
 14 15  1  0
 15 16  2  0
 15 17  1  0
 17 18  1  0
  5 19  1  0
 19 20  2  0
 20 21  1  0
 21 22  1  0
 21 23  1  0
 20  2  1  0
 17  6  2  0
 14  8  1  0
  1 24  1  0
  1 25  1  0
  1 26  1  0
  3 27  1  0
  4 28  1  0
  9 29  1  0
 10 30  1  0
 11 31  1  0
 13 32  1  0
 18 33  1  0
 19 34  1  0
 21 35  1  0
 22 36  1  0
 22 37  1  0
 22 38  1  0
 23 39  1  0
 23 40  1  0
 23 41  1  0
M  END
>  <meeko>  (3) 
{"is_sidechain": [false], "free_energy": -7.015, "intermolecular_energy": -8.623, "internal_energy": 0.411}

$$$$
cand_009_out
     RDKit          3D

 41 43  0  0  0  0  0  0  0  0999 V2000
  175.3330   21.8430   48.6030 C   0  0  0  0  0  0  0  0  0  0  0  0
  176.3770   21.0330   47.8860 C   0  0  0  0  0  0  0  0  0  0  0  0
  176.0070   19.7850   47.3570 C   0  0  0  0  0  0  0  0  0  0  0  0
  176.9310   18.9840   46.6830 C   0  0  0  0  0  0  0  0  0  0  0  0
  178.2530   19.4040   46.5220 C   0  0  0  0  0  0  0  0  0  0  0  0
  179.2110   18.5550   45.7830 C   0  0  0  0  0  0  0  0  0  0  0  0
  178.8550   17.2110   45.7860 O   0  0  0  0  0  0  0  0  0  0  0  0
  179.6580   16.3100   45.1340 C   0  0  0  0  0  0  0  0  0  0  0  0
  179.2540   14.9740   45.1500 C   0  0  0  0  0  0  0  0  0  0  0  0
  180.0280   14.0050   44.5060 C   0  0  0  0  0  0  0  0  0  0  0  0
  181.2040   14.3720   43.8480 C   0  0  0  0  0  0  0  0  0  0  0  0
  181.6040   15.7050   43.8340 C   0  0  0  0  0  0  0  0  0  0  0  0
  182.7660   15.9950   43.1730 O   0  0  0  0  0  0  0  0  0  0  0  0
  180.8290   16.6750   44.4780 C   0  0  0  0  0  0  0  0  0  0  0  0
  181.2140   18.0870   44.4870 C   0  0  0  0  0  0  0  0  0  0  0  0
  182.2380   18.4860   43.9370 O   0  0  0  0  0  0  0  0  0  0  0  0
  180.3200   19.0360   45.1900 C   0  0  0  0  0  0  0  0  0  0  0  0
  180.7000   20.3650   45.2030 O   0  0  0  0  0  0  0  0  0  0  0  0
  178.6200   20.6550   47.0390 C   0  0  0  0  0  0  0  0  0  0  0  0
  177.7050   21.4820   47.7280 C   0  0  0  0  0  0  0  0  0  0  0  0
  178.1780   22.8250   48.2750 C   0  0  0  0  0  0  0  0  0  0  0  0
  177.8330   23.9720   47.3210 C   0  0  0  0  0  0  0  0  0  0  0  0
  179.6780   22.8100   48.5910 C   0  0  0  0  0  0  0  0  0  0  0  0
  175.4692   21.7374   49.6894 H   0  0  0  0  0  0  0  0  0  0  0  0
  175.4335   22.9018   48.3221 H   0  0  0  0  0  0  0  0  0  0  0  0
  174.3324   21.4825   48.3221 H   0  0  0  0  0  0  0  0  0  0  0  0
  174.9717   19.4330   47.4759 H   0  0  0  0  0  0  0  0  0  0  0  0
  176.6145   18.0128   46.2749 H   0  0  0  0  0  0  0  0  0  0  0  0
  178.3281   14.6845   45.6686 H   0  0  0  0  0  0  0  0  0  0  0  0
  179.7106   12.9518   44.5173 H   0  0  0  0  0  0  0  0  0  0  0  0
  181.8131   13.6087   43.3416 H   0  0  0  0  0  0  0  0  0  0  0  0
  183.1070   16.8680   43.1880 H   0  0  0  0  0  0  0  0  0  0  0  0
  181.5370   20.6170   44.8660 H   0  0  0  0  0  0  0  0  0  0  0  0
  179.6544   21.0038   46.9036 H   0  0  0  0  0  0  0  0  0  0  0  0
  177.6390   22.9968   49.2184 H   0  0  0  0  0  0  0  0  0  0  0  0
  177.5643   24.8654   47.9038 H   0  0  0  0  0  0  0  0  0  0  0  0
  178.7035   24.1960   46.6869 H   0  0  0  0  0  0  0  0  0  0  0  0
  176.9834   23.6786   46.6869 H   0  0  0  0  0  0  0  0  0  0  0  0
  179.8230   22.8085   49.6814 H   0  0  0  0  0  0  0  0  0  0  0  0
  180.1347   21.9072   48.1592 H   0  0  0  0  0  0  0  0  0  0  0  0
  180.1526   23.7034   48.1592 H   0  0  0  0  0  0  0  0  0  0  0  0
  1  2  1  0
  2  3  2  0
  3  4  1  0
  4  5  2  0
  5  6  1  0
  6  7  1  0
  7  8  1  0
  8  9  2  0
  9 10  1  0
 10 11  2  0
 11 12  1  0
 12 13  1  0
 12 14  2  0
 14 15  1  0
 15 16  2  0
 15 17  1  0
 17 18  1  0
  5 19  1  0
 19 20  2  0
 20 21  1  0
 21 22  1  0
 21 23  1  0
 20  2  1  0
 17  6  2  0
 14  8  1  0
  1 24  1  0
  1 25  1  0
  1 26  1  0
  3 27  1  0
  4 28  1  0
  9 29  1  0
 10 30  1  0
 11 31  1  0
 13 32  1  0
 18 33  1  0
 19 34  1  0
 21 35  1  0
 22 36  1  0
 22 37  1  0
 22 38  1  0
 23 39  1  0
 23 40  1  0
 23 41  1  0
M  END
>  <meeko>  (4) 
{"is_sidechain": [false], "free_energy": -6.656, "intermolecular_energy": -7.788, "internal_energy": -0.002}

$$$$
cand_009_out
     RDKit          3D

 41 43  0  0  0  0  0  0  0  0999 V2000
  180.4910   13.6520   43.5940 C   0  0  0  0  0  0  0  0  0  0  0  0
  180.3100   15.0440   44.1340 C   0  0  0  0  0  0  0  0  0  0  0  0
  179.5140   15.2180   45.2790 C   0  0  0  0  0  0  0  0  0  0  0  0
  179.3070   16.4850   45.8270 C   0  0  0  0  0  0  0  0  0  0  0  0
  179.8830   17.6160   45.2440 C   0  0  0  0  0  0  0  0  0  0  0  0
  179.6730   18.9460   45.8530 C   0  0  0  0  0  0  0  0  0  0  0  0
  178.3310   19.2320   46.0780 O   0  0  0  0  0  0  0  0  0  0  0  0
  177.9940   20.4360   46.6420 C   0  0  0  0  0  0  0  0  0  0  0  0
  176.6360   20.6740   46.8630 C   0  0  0  0  0  0  0  0  0  0  0  0
  176.2250   21.8810   47.4320 C   0  0  0  0  0  0  0  0  0  0  0  0
  177.1700   22.8500   47.7790 C   0  0  0  0  0  0  0  0  0  0  0  0
  178.5230   22.6090   47.5570 C   0  0  0  0  0  0  0  0  0  0  0  0
  179.3940   23.6000   47.9190 O   0  0  0  0  0  0  0  0  0  0  0  0
  178.9350   21.4010   46.9880 C   0  0  0  0  0  0  0  0  0  0  0  0
  180.3470   21.1090   46.7380 C   0  0  0  0  0  0  0  0  0  0  0  0
  181.2360   21.9120   47.0080 O   0  0  0  0  0  0  0  0  0  0  0  0
  180.6790   19.7950   46.1380 C   0  0  0  0  0  0  0  0  0  0  0  0
  182.0140   19.5350   45.8950 O   0  0  0  0  0  0  0  0  0  0  0  0
  180.6870   17.4420   44.1090 C   0  0  0  0  0  0  0  0  0  0  0  0
  180.9100   16.1710   43.5330 C   0  0  0  0  0  0  0  0  0  0  0  0
  181.7860   16.0580   42.2900 C   0  0  0  0  0  0  0  0  0  0  0  0
  180.9670   16.2330   41.0070 C   0  0  0  0  0  0  0  0  0  0  0  0
  182.5640   14.7380   42.2650 C   0  0  0  0  0  0  0  0  0  0  0  0
  180.5831   12.9434   44.4303 H   0  0  0  0  0  0  0  0  0  0  0  0
  179.6205   13.3815   42.9784 H   0  0  0  0  0  0  0  0  0  0  0  0
  181.4018   13.6131   42.9784 H   0  0  0  0  0  0  0  0  0  0  0  0
  179.0464   14.3414   45.7511 H   0  0  0  0  0  0  0  0  0  0  0  0
  178.6840   16.5938   46.7270 H   0  0  0  0  0  0  0  0  0  0  0  0
  175.8914   19.9120   46.5893 H   0  0  0  0  0  0  0  0  0  0  0  0
  175.1555   22.0694   47.6074 H   0  0  0  0  0  0  0  0  0  0  0  0
  176.8456   23.8010   48.2265 H   0  0  0  0  0  0  0  0  0  0  0  0
  180.2740   23.3850   48.1570 H   0  0  0  0  0  0  0  0  0  0  0  0
  182.6730   19.9090   46.4460 H   0  0  0  0  0  0  0  0  0  0  0  0
  181.1598   18.3237   43.6517 H   0  0  0  0  0  0  0  0  0  0  0  0
  182.5182   16.8776   42.3369 H   0  0  0  0  0  0  0  0  0  0  0  0
  179.9217   16.4563   41.2668 H   0  0  0  0  0  0  0  0  0  0  0  0
  181.3833   17.0625   40.4165 H   0  0  0  0  0  0  0  0  0  0  0  0
  181.0080   15.3058   40.4165 H   0  0  0  0  0  0  0  0  0  0  0  0
  182.7587   14.4076   43.2960 H   0  0  0  0  0  0  0  0  0  0  0  0
  181.9721   13.9734   41.7405 H   0  0  0  0  0  0  0  0  0  0  0  0
  183.5196   14.8855   41.7405 H   0  0  0  0  0  0  0  0  0  0  0  0
  1  2  1  0
  2  3  2  0
  3  4  1  0
  4  5  2  0
  5  6  1  0
  6  7  1  0
  7  8  1  0
  8  9  2  0
  9 10  1  0
 10 11  2  0
 11 12  1  0
 12 13  1  0
 12 14  2  0
 14 15  1  0
 15 16  2  0
 15 17  1  0
 17 18  1  0
  5 19  1  0
 19 20  2  0
 20 21  1  0
 21 22  1  0
 21 23  1  0
 20  2  1  0
 17  6  2  0
 14  8  1  0
  1 24  1  0
  1 25  1  0
  1 26  1  0
  3 27  1  0
  4 28  1  0
  9 29  1  0
 10 30  1  0
 11 31  1  0
 13 32  1  0
 18 33  1  0
 19 34  1  0
 21 35  1  0
 22 36  1  0
 22 37  1  0
 22 38  1  0
 23 39  1  0
 23 40  1  0
 23 41  1  0
M  END
>  <meeko>  (5) 
{"is_sidechain": [false], "free_energy": -6.443, "intermolecular_energy": -8.244, "internal_energy": 0.704}

$$$$
cand_009_out
     RDKit          3D

 41 43  0  0  0  0  0  0  0  0999 V2000
  182.6490   17.4800   43.6200 C   0  0  0  0  0  0  0  0  0  0  0  0
  181.4660   18.0140   44.3800 C   0  0  0  0  0  0  0  0  0  0  0  0
  181.3770   19.4010   44.5890 C   0  0  0  0  0  0  0  0  0  0  0  0
  180.3050   19.9580   45.2890 C   0  0  0  0  0  0  0  0  0  0  0  0
  179.2940   19.1450   45.8060 C   0  0  0  0  0  0  0  0  0  0  0  0
  178.1530   19.7550   46.5220 C   0  0  0  0  0  0  0  0  0  0  0  0
  178.4560   21.0020   47.0570 O   0  0  0  0  0  0  0  0  0  0  0  0
  177.4850   21.6810   47.7480 C   0  0  0  0  0  0  0  0  0  0  0  0
  177.8290   22.9360   48.2550 C   0  0  0  0  0  0  0  0  0  0  0  0
  176.8870   23.6790   48.9690 C   0  0  0  0  0  0  0  0  0  0  0  0
  175.6030   23.1690   49.1780 C   0  0  0  0  0  0  0  0  0  0  0  0
  175.2640   21.9170   48.6710 C   0  0  0  0  0  0  0  0  0  0  0  0
  173.9910   21.4770   48.9120 O   0  0  0  0  0  0  0  0  0  0  0  0
  176.2070   21.1730   47.9550 C   0  0  0  0  0  0  0  0  0  0  0  0
  175.8910   19.8550   47.4060 C   0  0  0  0  0  0  0  0  0  0  0  0
  174.7870   19.3350   47.5530 O   0  0  0  0  0  0  0  0  0  0  0  0
  176.9580   19.1510   46.6550 C   0  0  0  0  0  0  0  0  0  0  0  0
  176.6520   17.9000   46.1530 O   0  0  0  0  0  0  0  0  0  0  0  0
  179.3760   17.7620   45.5880 C   0  0  0  0  0  0  0  0  0  0  0  0
  180.4520   17.1740   44.8860 C   0  0  0  0  0  0  0  0  0  0  0  0
  180.4810   15.6610   44.6980 C   0  0  0  0  0  0  0  0  0  0  0  0
  180.5090   15.2800   43.2140 C   0  0  0  0  0  0  0  0  0  0  0  0
  179.3120   14.9790   45.4150 C   0  0  0  0  0  0  0  0  0  0  0  0
  183.4150   17.1342   44.3297 H   0  0  0  0  0  0  0  0  0  0  0  0
  182.3291   16.6390   42.9872 H   0  0  0  0  0  0  0  0  0  0  0  0
  183.0681   18.2762   42.9872 H   0  0  0  0  0  0  0  0  0  0  0  0
  182.1653   20.0589   44.1944 H   0  0  0  0  0  0  0  0  0  0  0  0
  180.2563   21.0472   45.4346 H   0  0  0  0  0  0  0  0  0  0  0  0
  178.8398   23.3382   48.0922 H   0  0  0  0  0  0  0  0  0  0  0  0
  177.1562   24.6681   49.3679 H   0  0  0  0  0  0  0  0  0  0  0  0
  174.8619   23.7549   49.7415 H   0  0  0  0  0  0  0  0  0  0  0  0
  173.8540   20.6750   49.3760 H   0  0  0  0  0  0  0  0  0  0  0  0
  176.5080   17.1820   46.7370 H   0  0  0  0  0  0  0  0  0  0  0  0
  178.5765   17.1139   45.9762 H   0  0  0  0  0  0  0  0  0  0  0  0
  181.4120   15.2975   45.1574 H   0  0  0  0  0  0  0  0  0  0  0  0
  180.5893   14.1872   43.1175 H   0  0  0  0  0  0  0  0  0  0  0  0
  179.5832   15.6238   42.7296 H   0  0  0  0  0  0  0  0  0  0  0  0
  181.3746   15.7555   42.7296 H   0  0  0  0  0  0  0  0  0  0  0  0
  179.4515   15.0604   46.5031 H   0  0  0  0  0  0  0  0  0  0  0  0
  178.3699   15.4692   45.1284 H   0  0  0  0  0  0  0  0  0  0  0  0
  179.2750   13.9176   45.1284 H   0  0  0  0  0  0  0  0  0  0  0  0
  1  2  1  0
  2  3  2  0
  3  4  1  0
  4  5  2  0
  5  6  1  0
  6  7  1  0
  7  8  1  0
  8  9  2  0
  9 10  1  0
 10 11  2  0
 11 12  1  0
 12 13  1  0
 12 14  2  0
 14 15  1  0
 15 16  2  0
 15 17  1  0
 17 18  1  0
  5 19  1  0
 19 20  2  0
 20 21  1  0
 21 22  1  0
 21 23  1  0
 20  2  1  0
 17  6  2  0
 14  8  1  0
  1 24  1  0
  1 25  1  0
  1 26  1  0
  3 27  1  0
  4 28  1  0
  9 29  1  0
 10 30  1  0
 11 31  1  0
 13 32  1  0
 18 33  1  0
 19 34  1  0
 21 35  1  0
 22 36  1  0
 22 37  1  0
 22 38  1  0
 23 39  1  0
 23 40  1  0
 23 41  1  0
M  END
>  <meeko>  (6) 
{"is_sidechain": [false], "free_energy": -6.199, "intermolecular_energy": -7.618, "internal_energy": 0.366}

$$$$
cand_009_out
     RDKit          3D

 41 43  0  0  0  0  0  0  0  0999 V2000
  179.5660   21.6780   48.2170 C   0  0  0  0  0  0  0  0  0  0  0  0
  179.7320   20.5570   47.2280 C   0  0  0  0  0  0  0  0  0  0  0  0
  181.0200   20.2870   46.7360 C   0  0  0  0  0  0  0  0  0  0  0  0
  181.2400   19.2620   45.8140 C   0  0  0  0  0  0  0  0  0  0  0  0
  180.1780   18.4790   45.3540 C   0  0  0  0  0  0  0  0  0  0  0  0
  180.4330   17.3810   44.3970 C   0  0  0  0  0  0  0  0  0  0  0  0
  180.7250   17.8370   43.1170 O   0  0  0  0  0  0  0  0  0  0  0  0
  180.9850   16.9220   42.1290 C   0  0  0  0  0  0  0  0  0  0  0  0
  181.2870   17.4250   40.8620 C   0  0  0  0  0  0  0  0  0  0  0  0
  181.5590   16.5460   39.8120 C   0  0  0  0  0  0  0  0  0  0  0  0
  181.5290   15.1660   40.0270 C   0  0  0  0  0  0  0  0  0  0  0  0
  181.2260   14.6680   41.2910 C   0  0  0  0  0  0  0  0  0  0  0  0
  181.2120   13.3070   41.4320 O   0  0  0  0  0  0  0  0  0  0  0  0
  180.9540   15.5470   42.3430 C   0  0  0  0  0  0  0  0  0  0  0  0
  180.6330   15.0650   43.6860 C   0  0  0  0  0  0  0  0  0  0  0  0
  180.5790   13.8660   43.9530 O   0  0  0  0  0  0  0  0  0  0  0  0
  180.3680   16.0790   44.7340 C   0  0  0  0  0  0  0  0  0  0  0  0
  180.0530   15.6120   45.9950 O   0  0  0  0  0  0  0  0  0  0  0  0
  178.8950   18.7410   45.8540 C   0  0  0  0  0  0  0  0  0  0  0  0
  178.6460   19.7750   46.7840 C   0  0  0  0  0  0  0  0  0  0  0  0
  177.2210   20.0090   47.2750 C   0  0  0  0  0  0  0  0  0  0  0  0
  176.3390   18.7770   47.0490 C   0  0  0  0  0  0  0  0  0  0  0  0
  176.5990   21.2520   46.6310 C   0  0  0  0  0  0  0  0  0  0  0  0
  179.6254   21.2767   49.2395 H   0  0  0  0  0  0  0  0  0  0  0  0
  180.3640   22.4201   48.0674 H   0  0  0  0  0  0  0  0  0  0  0  0
  178.5871   22.1570   48.0674 H   0  0  0  0  0  0  0  0  0  0  0  0
  181.8695   20.8935   47.0831 H   0  0  0  0  0  0  0  0  0  0  0  0
  182.2586   19.0690   45.4463 H   0  0  0  0  0  0  0  0  0  0  0  0
  181.3106   18.5114   40.6915 H   0  0  0  0  0  0  0  0  0  0  0  0
  181.7974   16.9409   38.8134 H   0  0  0  0  0  0  0  0  0  0  0  0
  181.7444   14.4744   39.1992 H   0  0  0  0  0  0  0  0  0  0  0  0
  181.8450   12.7830   40.9810 H   0  0  0  0  0  0  0  0  0  0  0  0
  180.4760   15.9730   46.7490 H   0  0  0  0  0  0  0  0  0  0  0  0
  178.0538   18.1208   45.5108 H   0  0  0  0  0  0  0  0  0  0  0  0
  177.2789   20.1871   48.3589 H   0  0  0  0  0  0  0  0  0  0  0  0
  176.0388   18.3577   48.0207 H   0  0  0  0  0  0  0  0  0  0  0  0
  175.4421   19.0671   46.4820 H   0  0  0  0  0  0  0  0  0  0  0  0
  176.9027   18.0215   46.4820 H   0  0  0  0  0  0  0  0  0  0  0  0
  176.2550   21.9394   47.4179 H   0  0  0  0  0  0  0  0  0  0  0  0
  177.3509   21.7565   46.0064 H   0  0  0  0  0  0  0  0  0  0  0  0
  175.7445   20.9527   46.0064 H   0  0  0  0  0  0  0  0  0  0  0  0
  1  2  1  0
  2  3  2  0
  3  4  1  0
  4  5  2  0
  5  6  1  0
  6  7  1  0
  7  8  1  0
  8  9  2  0
  9 10  1  0
 10 11  2  0
 11 12  1  0
 12 13  1  0
 12 14  2  0
 14 15  1  0
 15 16  2  0
 15 17  1  0
 17 18  1  0
  5 19  1  0
 19 20  2  0
 20 21  1  0
 21 22  1  0
 21 23  1  0
 20  2  1  0
 17  6  2  0
 14  8  1  0
  1 24  1  0
  1 25  1  0
  1 26  1  0
  3 27  1  0
  4 28  1  0
  9 29  1  0
 10 30  1  0
 11 31  1  0
 13 32  1  0
 18 33  1  0
 19 34  1  0
 21 35  1  0
 22 36  1  0
 22 37  1  0
 22 38  1  0
 23 39  1  0
 23 40  1  0
 23 41  1  0
M  END
>  <meeko>  (7) 
{"is_sidechain": [false], "free_energy": -5.94, "intermolecular_energy": -6.543, "internal_energy": -0.405}

$$$$
cand_009_out
     RDKit          3D

 41 43  0  0  0  0  0  0  0  0999 V2000
  175.8310   23.7570   49.6250 C   0  0  0  0  0  0  0  0  0  0  0  0
  176.7910   22.9250   48.8200 C   0  0  0  0  0  0  0  0  0  0  0  0
  177.9750   23.5270   48.3630 C   0  0  0  0  0  0  0  0  0  0  0  0
  178.9050   22.8080   47.6090 C   0  0  0  0  0  0  0  0  0  0  0  0
  178.6760   21.4690   47.2850 C   0  0  0  0  0  0  0  0  0  0  0  0
  179.6840   20.7160   46.5080 C   0  0  0  0  0  0  0  0  0  0  0  0
  179.2500   19.4460   46.1480 O   0  0  0  0  0  0  0  0  0  0  0  0
  180.0870   18.6390   45.4210 C   0  0  0  0  0  0  0  0  0  0  0  0
  179.6050   17.3770   45.0700 C   0  0  0  0  0  0  0  0  0  0  0  0
  180.4080   16.5060   44.3310 C   0  0  0  0  0  0  0  0  0  0  0  0
  181.6930   16.8950   43.9450 C   0  0  0  0  0  0  0  0  0  0  0  0
  182.1710   18.1540   44.2980 C   0  0  0  0  0  0  0  0  0  0  0  0
  183.4380   18.4710   43.8890 O   0  0  0  0  0  0  0  0  0  0  0  0
  181.3670   19.0260   45.0370 C   0  0  0  0  0  0  0  0  0  0  0  0
  181.8320   20.3580   45.4270 C   0  0  0  0  0  0  0  0  0  0  0  0
  182.9510   20.7700   45.1330 O   0  0  0  0  0  0  0  0  0  0  0  0
  180.8990   21.2090   46.2030 C   0  0  0  0  0  0  0  0  0  0  0  0
  181.3530   22.4590   46.5780 O   0  0  0  0  0  0  0  0  0  0  0  0
  177.5000   20.8640   47.7510 C   0  0  0  0  0  0  0  0  0  0  0  0
  176.5420   21.5710   48.5120 C   0  0  0  0  0  0  0  0  0  0  0  0
  175.2790   20.8520   48.9750 C   0  0  0  0  0  0  0  0  0  0  0  0
  175.5960   19.7720   50.0150 C   0  0  0  0  0  0  0  0  0  0  0  0
  174.5000   20.2620   47.7950 C   0  0  0  0  0  0  0  0  0  0  0  0
  176.0164   23.5963   50.6973 H   0  0  0  0  0  0  0  0  0  0  0  0
  175.9754   24.8203   49.3833 H   0  0  0  0  0  0  0  0  0  0  0  0
  174.7990   23.4629   49.3833 H   0  0  0  0  0  0  0  0  0  0  0  0
  178.1729   24.5821   48.6030 H   0  0  0  0  0  0  0  0  0  0  0  0
  179.8269   23.3012   47.2670 H   0  0  0  0  0  0  0  0  0  0  0  0
  178.5940   17.0691   45.3751 H   0  0  0  0  0  0  0  0  0  0  0  0
  180.0282   15.5120   44.0523 H   0  0  0  0  0  0  0  0  0  0  0  0
  182.3256   16.2082   43.3635 H   0  0  0  0  0  0  0  0  0  0  0  0
  183.7230   18.2400   43.0260 H   0  0  0  0  0  0  0  0  0  0  0  0
  181.4580   22.6680   47.4850 H   0  0  0  0  0  0  0  0  0  0  0  0
  177.3173   19.8049   47.5166 H   0  0  0  0  0  0  0  0  0  0  0  0
  174.6378   21.6052   49.4562 H   0  0  0  0  0  0  0  0  0  0  0  0
  175.4736   20.1889   51.0255 H   0  0  0  0  0  0  0  0  0  0  0  0
  174.9092   18.9230   49.8830 H   0  0  0  0  0  0  0  0  0  0  0  0
  176.6327   19.4289   49.8830 H   0  0  0  0  0  0  0  0  0  0  0  0
  173.6768   19.6386   48.1741 H   0  0  0  0  0  0  0  0  0  0  0  0
  174.0897   21.0779   47.1819 H   0  0  0  0  0  0  0  0  0  0  0  0
  175.1742   19.6459   47.1819 H   0  0  0  0  0  0  0  0  0  0  0  0
  1  2  1  0
  2  3  2  0
  3  4  1  0
  4  5  2  0
  5  6  1  0
  6  7  1  0
  7  8  1  0
  8  9  2  0
  9 10  1  0
 10 11  2  0
 11 12  1  0
 12 13  1  0
 12 14  2  0
 14 15  1  0
 15 16  2  0
 15 17  1  0
 17 18  1  0
  5 19  1  0
 19 20  2  0
 20 21  1  0
 21 22  1  0
 21 23  1  0
 20  2  1  0
 17  6  2  0
 14  8  1  0
  1 24  1  0
  1 25  1  0
  1 26  1  0
  3 27  1  0
  4 28  1  0
  9 29  1  0
 10 30  1  0
 11 31  1  0
 13 32  1  0
 18 33  1  0
 19 34  1  0
 21 35  1  0
 22 36  1  0
 22 37  1  0
 22 38  1  0
 23 39  1  0
 23 40  1  0
 23 41  1  0
M  END
>  <meeko>  (8) 
{"is_sidechain": [false], "free_energy": -5.699, "intermolecular_energy": -6.714, "internal_energy": 0.049}

$$$$
cand_009_out
     RDKit          3D

 41 43  0  0  0  0  0  0  0  0999 V2000
  187.2870   24.4810   45.5180 C   0  0  0  0  0  0  0  0  0  0  0  0
  186.0020   23.7040   45.5970 C   0  0  0  0  0  0  0  0  0  0  0  0
  185.1910   23.8680   46.7330 C   0  0  0  0  0  0  0  0  0  0  0  0
  183.9870   23.1740   46.8670 C   0  0  0  0  0  0  0  0  0  0  0  0
  183.5610   22.2900   45.8730 C   0  0  0  0  0  0  0  0  0  0  0  0
  182.2720   21.5820   46.0200 C   0  0  0  0  0  0  0  0  0  0  0  0
  181.3540   22.2870   46.7900 O   0  0  0  0  0  0  0  0  0  0  0  0
  180.1130   21.7450   47.0060 C   0  0  0  0  0  0  0  0  0  0  0  0
  179.2180   22.4930   47.7730 C   0  0  0  0  0  0  0  0  0  0  0  0
  177.9390   21.9970   48.0320 C   0  0  0  0  0  0  0  0  0  0  0  0
  177.5540   20.7530   47.5250 C   0  0  0  0  0  0  0  0  0  0  0  0
  178.4490   20.0090   46.7610 C   0  0  0  0  0  0  0  0  0  0  0  0
  178.0080   18.7990   46.2970 O   0  0  0  0  0  0  0  0  0  0  0  0
  179.7290   20.5060   46.5020 C   0  0  0  0  0  0  0  0  0  0  0  0
  180.6990   19.7560   45.7030 C   0  0  0  0  0  0  0  0  0  0  0  0
  180.4390   18.6520   45.2300 O   0  0  0  0  0  0  0  0  0  0  0  0
  182.0270   20.3740   45.4790 C   0  0  0  0  0  0  0  0  0  0  0  0
  182.9390   19.6510   44.7350 O   0  0  0  0  0  0  0  0  0  0  0  0
  184.3640   22.1340   44.7340 C   0  0  0  0  0  0  0  0  0  0  0  0
  185.5880   22.8230   44.5760 C   0  0  0  0  0  0  0  0  0  0  0  0
  186.4160   22.5940   43.3160 C   0  0  0  0  0  0  0  0  0  0  0  0
  185.6590   23.0390   42.0590 C   0  0  0  0  0  0  0  0  0  0  0  0
  186.8690   21.1360   43.1930 C   0  0  0  0  0  0  0  0  0  0  0  0
  187.6470   24.6987   46.5344 H   0  0  0  0  0  0  0  0  0  0  0  0
  188.0418   23.8878   44.9809 H   0  0  0  0  0  0  0  0  0  0  0  0
  187.1123   25.4249   44.9809 H   0  0  0  0  0  0  0  0  0  0  0  0
  185.5104   24.5551   47.5304 H   0  0  0  0  0  0  0  0  0  0  0  0
  183.3681   23.3248   47.7638 H   0  0  0  0  0  0  0  0  0  0  0  0
  179.5202   23.4722   48.1729 H   0  0  0  0  0  0  0  0  0  0  0  0
  177.2333   22.5862   48.6360 H   0  0  0  0  0  0  0  0  0  0  0  0
  176.5461   20.3625   47.7291 H   0  0  0  0  0  0  0  0  0  0  0  0
  177.1010   18.5750   46.3650 H   0  0  0  0  0  0  0  0  0  0  0  0
  183.8570   19.8100   44.8340 H   0  0  0  0  0  0  0  0  0  0  0  0
  184.0303   21.4530   43.9372 H   0  0  0  0  0  0  0  0  0  0  0  0
  187.3182   23.2169   43.4059 H   0  0  0  0  0  0  0  0  0  0  0  0
  184.7450   23.5763   42.3523 H   0  0  0  0  0  0  0  0  0  0  0  0
  186.2996   23.7043   41.4615 H   0  0  0  0  0  0  0  0  0  0  0  0
  185.3893   22.1557   41.4615 H   0  0  0  0  0  0  0  0  0  0  0  0
  187.0022   20.7074   44.1973 H   0  0  0  0  0  0  0  0  0  0  0  0
  186.1074   20.5603   42.6467 H   0  0  0  0  0  0  0  0  0  0  0  0
  187.8228   21.0932   42.6467 H   0  0  0  0  0  0  0  0  0  0  0  0
  1  2  1  0
  2  3  2  0
  3  4  1  0
  4  5  2  0
  5  6  1  0
  6  7  1  0
  7  8  1  0
  8  9  2  0
  9 10  1  0
 10 11  2  0
 11 12  1  0
 12 13  1  0
 12 14  2  0
 14 15  1  0
 15 16  2  0
 15 17  1  0
 17 18  1  0
  5 19  1  0
 19 20  2  0
 20 21  1  0
 21 22  1  0
 21 23  1  0
 20  2  1  0
 17  6  2  0
 14  8  1  0
  1 24  1  0
  1 25  1  0
  1 26  1  0
  3 27  1  0
  4 28  1  0
  9 29  1  0
 10 30  1  0
 11 31  1  0
 13 32  1  0
 18 33  1  0
 19 34  1  0
 21 35  1  0
 22 36  1  0
 22 37  1  0
 22 38  1  0
 23 39  1  0
 23 40  1  0
 23 41  1  0
M  END
>  <meeko>  (9) 
{"is_sidechain": [false], "free_energy": -5.642, "intermolecular_energy": -6.411, "internal_energy": -0.188}

$$$$
