cand_023_out
     RDKit          3D

 47 50  0  0  0  0  0  0  0  0999 V2000
  179.2680   16.0300   45.4140 C   0  0  0  0  0  0  0  0  0  0  0  0
  179.7430   17.4520   45.2760 C   0  0  0  0  0  0  0  0  0  0  0  0
  179.1970   18.4470   46.1060 C   0  0  0  0  0  0  0  0  0  0  0  0
  179.6130   19.7850   46.0160 C   0  0  0  0  0  0  0  0  0  0  0  0
  178.9970   20.8080   46.8870 C   0  0  0  0  0  0  0  0  0  0  0  0
  177.6120   20.7000   46.9520 O   0  0  0  0  0  0  0  0  0  0  0  0
  176.9120   21.5870   47.7270 C   0  0  0  0  0  0  0  0  0  0  0  0
  175.5240   21.4490   47.7520 C   0  0  0  0  0  0  0  0  0  0  0  0
  174.7510   22.3200   48.5230 C   0  0  0  0  0  0  0  0  0  0  0  0
  175.3660   23.3270   49.2700 C   0  0  0  0  0  0  0  0  0  0  0  0
  176.7520   23.4630   49.2430 C   0  0  0  0  0  0  0  0  0  0  0  0
  177.2890   24.4700   49.9970 O   0  0  0  0  0  0  0  0  0  0  0  0
  177.5250   22.5910   48.4710 C   0  0  0  0  0  0  0  0  0  0  0  0
  178.9830   22.6980   48.4150 C   0  0  0  0  0  0  0  0  0  0  0  0
  179.5980   23.5540   49.0490 O   0  0  0  0  0  0  0  0  0  0  0  0
  179.7090   21.7310   47.5610 C   0  0  0  0  0  0  0  0  0  0  0  0
  181.0880   21.8330   47.5260 O   0  0  0  0  0  0  0  0  0  0  0  0
  180.5820   20.1150   45.0620 C   0  0  0  0  0  0  0  0  0  0  0  0
  181.1320   19.1320   44.2330 C   0  0  0  0  0  0  0  0  0  0  0  0
  180.7220   17.7930   44.3230 C   0  0  0  0  0  0  0  0  0  0  0  0
  181.2730   16.7800   43.5080 N   0  0  0  0  0  0  0  0  0  0  0  0
  181.1490   15.4320   44.0840 C   0  0  0  0  0  0  0  0  0  0  0  0
  181.9770   14.4560   43.2480 C   0  0  0  0  0  0  0  0  0  0  0  0
  181.5600   14.4990   41.7790 C   0  0  0  0  0  0  0  0  0  0  0  0
  181.6010   15.9280   41.2410 C   0  0  0  0  0  0  0  0  0  0  0  0
  180.7880   16.8770   42.1220 C   0  0  0  0  0  0  0  0  0  0  0  0
  179.1824   15.7739   46.4803 H   0  0  0  0  0  0  0  0  0  0  0  0
  178.2854   15.9232   44.9312 H   0  0  0  0  0  0  0  0  0  0  0  0
  179.9891   15.3541   44.9312 H   0  0  0  0  0  0  0  0  0  0  0  0
  178.4273   18.1712   46.8418 H   0  0  0  0  0  0  0  0  0  0  0  0
  175.0389   20.6551   47.1651 H   0  0  0  0  0  0  0  0  0  0  0  0
  173.6564   22.2127   48.5419 H   0  0  0  0  0  0  0  0  0  0  0  0
  174.7570   24.0116   49.8786 H   0  0  0  0  0  0  0  0  0  0  0  0
  178.0620   24.9110   49.7070 H   0  0  0  0  0  0  0  0  0  0  0  0
  181.4910   22.6520   47.3160 H   0  0  0  0  0  0  0  0  0  0  0  0
  180.9147   21.1588   44.9630 H   0  0  0  0  0  0  0  0  0  0  0  0
  181.8997   19.4135   43.4973 H   0  0  0  0  0  0  0  0  0  0  0  0
  181.5202   15.4377   45.1195 H   0  0  0  0  0  0  0  0  0  0  0  0
  180.0936   15.1219   44.0808 H   0  0  0  0  0  0  0  0  0  0  0  0
  183.0401   14.7269   43.3277 H   0  0  0  0  0  0  0  0  0  0  0  0
  181.8077   13.4383   43.6296 H   0  0  0  0  0  0  0  0  0  0  0  0
  182.2477   13.8733   41.1912 H   0  0  0  0  0  0  0  0  0  0  0  0
  180.5300   14.1220   41.6955 H   0  0  0  0  0  0  0  0  0  0  0  0
  182.6459   16.2709   41.2141 H   0  0  0  0  0  0  0  0  0  0  0  0
  181.1640   15.9315   40.2315 H   0  0  0  0  0  0  0  0  0  0  0  0
  180.9082   17.9090   41.7609 H   0  0  0  0  0  0  0  0  0  0  0  0
  179.7239   16.6012   42.0811 H   0  0  0  0  0  0  0  0  0  0  0  0
  1  2  1  0
  2  3  2  0
  3  4  1  0
  4  5  1  0
  5  6  1  0
  6  7  1  0
  7  8  2  0
  8  9  1  0
  9 10  2  0
 10 11  1  0
 11 12  1  0
 11 13  2  0
 13 14  1  0
 14 15  2  0
 14 16  1  0
 16 17  1  0
  4 18  2  0
 18 19  1  0
 19 20  2  0
 20 21  1  0
 21 22  1  0
 22 23  1  0
 23 24  1  0
 24 25  1  0
 25 26  1  0
 20  2  1  0
 26 21  1  0
 16  5  2  0
 13  7  1  0
  1 27  1  0
  1 28  1  0
  1 29  1  0
  3 30  1  0
  8 31  1  0
  9 32  1  0
 10 33  1  0
 12 34  1  0
 17 35  1  0
 18 36  1  0
 19 37  1  0
 22 38  1  0
 22 39  1  0
 23 40  1  0
 23 41  1  0
 24 42  1  0
 24 43  1  0
 25 44  1  0
 25 45  1  0
 26 46  1  0
 26 47  1  0
M  END
>  <meeko>  (1) 
{"is_sidechain": [false], "free_energy": -8.069, "intermolecular_energy": -9.484, "internal_energy": 1.196}

$$$$
cand_023_out
     RDKit          3D

 47 50  0  0  0  0  0  0  0  0999 V2000
  182.4490   18.9690   44.3700 C   0  0  0  0  0  0  0  0  0  0  0  0
  181.0980   18.7940   45.0130 C   0  0  0  0  0  0  0  0  0  0  0  0
  180.5430   19.8510   45.7550 C   0  0  0  0  0  0  0  0  0  0  0  0
  179.2850   19.7340   46.3670 C   0  0  0  0  0  0  0  0  0  0  0  0
  178.7460   20.8570   47.1620 C   0  0  0  0  0  0  0  0  0  0  0  0
  177.3610   20.8190   47.2820 O   0  0  0  0  0  0  0  0  0  0  0  0
  176.7290   21.8020   47.9970 C   0  0  0  0  0  0  0  0  0  0  0  0
  175.3370   21.7320   48.0790 C   0  0  0  0  0  0  0  0  0  0  0  0
  174.6320   22.7010   48.7950 C   0  0  0  0  0  0  0  0  0  0  0  0
  175.3160   23.7410   49.4280 C   0  0  0  0  0  0  0  0  0  0  0  0
  176.7040   23.8100   49.3440 C   0  0  0  0  0  0  0  0  0  0  0  0
  177.3120   24.8530   49.9880 O   0  0  0  0  0  0  0  0  0  0  0  0
  177.4110   22.8390   48.6280 C   0  0  0  0  0  0  0  0  0  0  0  0
  178.8690   22.8730   48.5150 C   0  0  0  0  0  0  0  0  0  0  0  0
  179.5430   23.7520   49.0500 O   0  0  0  0  0  0  0  0  0  0  0  0
  179.5210   21.8020   47.7280 C   0  0  0  0  0  0  0  0  0  0  0  0
  180.9010   21.8370   47.6400 O   0  0  0  0  0  0  0  0  0  0  0  0
  178.5930   18.5260   46.2340 C   0  0  0  0  0  0  0  0  0  0  0  0
  179.1350   17.4690   45.4960 C   0  0  0  0  0  0  0  0  0  0  0  0
  180.3910   17.5840   44.8790 C   0  0  0  0  0  0  0  0  0  0  0  0
  180.9540   16.5370   44.1170 N   0  0  0  0  0  0  0  0  0  0  0  0
  180.4560   15.2050   44.4930 C   0  0  0  0  0  0  0  0  0  0  0  0
  181.2950   14.1410   43.7820 C   0  0  0  0  0  0  0  0  0  0  0  0
  181.2870   14.3570   42.2700 C   0  0  0  0  0  0  0  0  0  0  0  0
  181.7100   15.7820   41.9180 C   0  0  0  0  0  0  0  0  0  0  0  0
  180.8700   16.8130   42.6730 C   0  0  0  0  0  0  0  0  0  0  0  0
  183.2168   19.0685   45.1514 H   0  0  0  0  0  0  0  0  0  0  0  0
  182.6737   18.0925   43.7446 H   0  0  0  0  0  0  0  0  0  0  0  0
  182.4430   19.8739   43.7446 H   0  0  0  0  0  0  0  0  0  0  0  0
  181.1065   20.7900   45.8583 H   0  0  0  0  0  0  0  0  0  0  0  0
  174.7965   20.9142   47.5800 H   0  0  0  0  0  0  0  0  0  0  0  0
  173.5354   22.6452   48.8607 H   0  0  0  0  0  0  0  0  0  0  0  0
  174.7593   24.5041   49.9918 H   0  0  0  0  0  0  0  0  0  0  0  0
  177.0230   25.7300   49.8320 H   0  0  0  0  0  0  0  0  0  0  0  0
  181.4070   21.0990   47.9200 H   0  0  0  0  0  0  0  0  0  0  0  0
  177.6112   18.4059   46.7154 H   0  0  0  0  0  0  0  0  0  0  0  0
  178.5678   16.5317   45.3972 H   0  0  0  0  0  0  0  0  0  0  0  0
  180.5396   15.0738   45.5819 H   0  0  0  0  0  0  0  0  0  0  0  0
  179.4011   15.1054   44.1975 H   0  0  0  0  0  0  0  0  0  0  0  0
  182.3310   14.1963   44.1477 H   0  0  0  0  0  0  0  0  0  0  0  0
  180.8624   13.1527   43.9969 H   0  0  0  0  0  0  0  0  0  0  0  0
  181.9859   13.6483   41.8018 H   0  0  0  0  0  0  0  0  0  0  0  0
  180.2648   14.1930   41.8981 H   0  0  0  0  0  0  0  0  0  0  0  0
  182.7686   15.9178   42.1844 H   0  0  0  0  0  0  0  0  0  0  0  0
  181.5580   15.9330   40.8391 H   0  0  0  0  0  0  0  0  0  0  0  0
  181.2543   17.8230   42.4679 H   0  0  0  0  0  0  0  0  0  0  0  0
  179.8223   16.7509   42.3437 H   0  0  0  0  0  0  0  0  0  0  0  0
  1  2  1  0
  2  3  2  0
  3  4  1  0
  4  5  1  0
  5  6  1  0
  6  7  1  0
  7  8  2  0
  8  9  1  0
  9 10  2  0
 10 11  1  0
 11 12  1  0
 11 13  2  0
 13 14  1  0
 14 15  2  0
 14 16  1  0
 16 17  1  0
  4 18  2  0
 18 19  1  0
 19 20  2  0
 20 21  1  0
 21 22  1  0
 22 23  1  0
 23 24  1  0
 24 25  1  0
 25 26  1  0
 20  2  1  0
 26 21  1  0
 16  5  2  0
 13  7  1  0
  1 27  1  0
  1 28  1  0
  1 29  1  0
  3 30  1  0
  8 31  1  0
  9 32  1  0
 10 33  1  0
 12 34  1  0
 17 35  1  0
 18 36  1  0
 19 37  1  0
 22 38  1  0
 22 39  1  0
 23 40  1  0
 23 41  1  0
 24 42  1  0
 24 43  1  0
 25 44  1  0
 25 45  1  0
 26 46  1  0
 26 47  1  0
M  END
>  <meeko>  (2) 
{"is_sidechain": [false], "free_energy": -8.019, "intermolecular_energy": -8.453, "internal_energy": 0.224}

$$$$
cand_023_out
     RDKit          3D

 47 50  0  0  0  0  0  0  0  0999 V2000
  175.8010   20.8350   46.5260 C   0  0  0  0  0  0  0  0  0  0  0  0
  177.2520   20.5940   46.8490 C   0  0  0  0  0  0  0  0  0  0  0  0
  177.9920   19.6840   46.0720 C   0  0  0  0  0  0  0  0  0  0  0  0
  179.3480   19.4330   46.3340 C   0  0  0  0  0  0  0  0  0  0  0  0
  180.0860   18.4490   45.5140 C   0  0  0  0  0  0  0  0  0  0  0  0
  179.4590   17.2100   45.4620 O   0  0  0  0  0  0  0  0  0  0  0  0
  180.0360   16.2030   44.7330 C   0  0  0  0  0  0  0  0  0  0  0  0
  179.3780   14.9720   44.7190 C   0  0  0  0  0  0  0  0  0  0  0  0
  179.9120   13.9050   43.9950 C   0  0  0  0  0  0  0  0  0  0  0  0
  181.1030   14.0680   43.2830 C   0  0  0  0  0  0  0  0  0  0  0  0
  181.7570   15.2970   43.2980 C   0  0  0  0  0  0  0  0  0  0  0  0
  182.9180   15.3880   42.5800 O   0  0  0  0  0  0  0  0  0  0  0  0
  181.2230   16.3650   44.0240 C   0  0  0  0  0  0  0  0  0  0  0  0
  181.8770   17.6730   44.0660 C   0  0  0  0  0  0  0  0  0  0  0  0
  182.9240   17.8960   43.4600 O   0  0  0  0  0  0  0  0  0  0  0  0
  181.2330   18.7360   44.8700 C   0  0  0  0  0  0  0  0  0  0  0  0
  181.8540   19.9720   44.8910 O   0  0  0  0  0  0  0  0  0  0  0  0
  179.9520   20.1020   47.4030 C   0  0  0  0  0  0  0  0  0  0  0  0
  179.2250   21.0110   48.1800 C   0  0  0  0  0  0  0  0  0  0  0  0
  177.8710   21.2680   47.9190 C   0  0  0  0  0  0  0  0  0  0  0  0
  177.1200   22.1910   48.6780 N   0  0  0  0  0  0  0  0  0  0  0  0
  177.1500   23.5590   48.1360 C   0  0  0  0  0  0  0  0  0  0  0  0
  176.5140   24.5100   49.1500 C   0  0  0  0  0  0  0  0  0  0  0  0
  175.0990   24.0620   49.5120 C   0  0  0  0  0  0  0  0  0  0  0  0
  175.0880   22.6050   49.9740 C   0  0  0  0  0  0  0  0  0  0  0  0
  175.7610   21.6930   48.9480 C   0  0  0  0  0  0  0  0  0  0  0  0
  175.2283   20.9301   47.4603 H   0  0  0  0  0  0  0  0  0  0  0  0
  175.7046   21.7615   45.9409 H   0  0  0  0  0  0  0  0  0  0  0  0
  175.4103   19.9894   45.9409 H   0  0  0  0  0  0  0  0  0  0  0  0
  177.4976   19.1582   45.2418 H   0  0  0  0  0  0  0  0  0  0  0  0
  178.4395   14.8430   45.2781 H   0  0  0  0  0  0  0  0  0  0  0  0
  179.3945   12.9344   43.9849 H   0  0  0  0  0  0  0  0  0  0  0  0
  181.5231   13.2271   42.7118 H   0  0  0  0  0  0  0  0  0  0  0  0
  183.3490   16.2140   42.4880 H   0  0  0  0  0  0  0  0  0  0  0  0
  182.7680   20.0330   45.0880 H   0  0  0  0  0  0  0  0  0  0  0  0
  181.0101   19.9117   47.6358 H   0  0  0  0  0  0  0  0  0  0  0  0
  179.7240   21.5330   49.0098 H   0  0  0  0  0  0  0  0  0  0  0  0
  178.1918   23.8598   47.9513 H   0  0  0  0  0  0  0  0  0  0  0  0
  176.5904   23.5962   47.1897 H   0  0  0  0  0  0  0  0  0  0  0  0
  177.1296   24.5273   50.0615 H   0  0  0  0  0  0  0  0  0  0  0  0
  176.4589   25.5129   48.7015 H   0  0  0  0  0  0  0  0  0  0  0  0
  174.7160   24.6994   50.3225 H   0  0  0  0  0  0  0  0  0  0  0  0
  174.4633   24.1516   48.6187 H   0  0  0  0  0  0  0  0  0  0  0  0
  175.6266   22.5279   50.9300 H   0  0  0  0  0  0  0  0  0  0  0  0
  174.0420   22.2850   50.0904 H   0  0  0  0  0  0  0  0  0  0  0  0
  175.8164   20.6690   49.3459 H   0  0  0  0  0  0  0  0  0  0  0  0
  175.1762   21.6888   48.0163 H   0  0  0  0  0  0  0  0  0  0  0  0
  1  2  1  0
  2  3  2  0
  3  4  1  0
  4  5  1  0
  5  6  1  0
  6  7  1  0
  7  8  2  0
  8  9  1  0
  9 10  2  0
 10 11  1  0
 11 12  1  0
 11 13  2  0
 13 14  1  0
 14 15  2  0
 14 16  1  0
 16 17  1  0
  4 18  2  0
 18 19  1  0
 19 20  2  0
 20 21  1  0
 21 22  1  0
 22 23  1  0
 23 24  1  0
 24 25  1  0
 25 26  1  0
 20  2  1  0
 26 21  1  0
 16  5  2  0
 13  7  1  0
  1 27  1  0
  1 28  1  0
  1 29  1  0
  3 30  1  0
  8 31  1  0
  9 32  1  0
 10 33  1  0
 12 34  1  0
 17 35  1  0
 18 36  1  0
 19 37  1  0
 22 38  1  0
 22 39  1  0
 23 40  1  0
 23 41  1  0
 24 42  1  0
 24 43  1  0
 25 44  1  0
 25 45  1  0
 26 46  1  0
 26 47  1  0
M  END
>  <meeko>  (3) 
{"is_sidechain": [false], "free_energy": -6.554, "intermolecular_energy": -7.302, "internal_energy": 0.794}

$$$$
cand_023_out
     RDKit          3D

 47 50  0  0  0  0  0  0  0  0999 V2000
  187.6900   27.1400   50.2360 C   0  0  0  0  0  0  0  0  0  0  0  0
  186.7090   26.0740   49.8260 C   0  0  0  0  0  0  0  0  0  0  0  0
  186.6680   25.6490   48.4850 C   0  0  0  0  0  0  0  0  0  0  0  0
  185.7740   24.6550   48.0590 C   0  0  0  0  0  0  0  0  0  0  0  0
  185.7410   24.2550   46.6370 C   0  0  0  0  0  0  0  0  0  0  0  0
  186.7140   23.3150   46.3170 O   0  0  0  0  0  0  0  0  0  0  0  0
  186.7940   22.8540   45.0290 C   0  0  0  0  0  0  0  0  0  0  0  0
  187.7940   21.9210   44.7500 C   0  0  0  0  0  0  0  0  0  0  0  0
  187.9290   21.4100   43.4570 C   0  0  0  0  0  0  0  0  0  0  0  0
  187.0660   21.8310   42.4440 C   0  0  0  0  0  0  0  0  0  0  0  0
  186.0690   22.7620   42.7240 C   0  0  0  0  0  0  0  0  0  0  0  0
  185.2570   23.1300   41.6860 O   0  0  0  0  0  0  0  0  0  0  0  0
  185.9340   23.2730   44.0180 C   0  0  0  0  0  0  0  0  0  0  0  0
  184.8990   24.2520   44.3560 C   0  0  0  0  0  0  0  0  0  0  0  0
  184.0970   24.6660   43.5210 O   0  0  0  0  0  0  0  0  0  0  0  0
  184.8450   24.7370   45.7540 C   0  0  0  0  0  0  0  0  0  0  0  0
  183.8550   25.6520   46.0650 O   0  0  0  0  0  0  0  0  0  0  0  0
  184.9050   24.0970   49.0020 C   0  0  0  0  0  0  0  0  0  0  0  0
  184.9390   24.5100   50.3380 C   0  0  0  0  0  0  0  0  0  0  0  0
  185.8340   25.5010   50.7690 C   0  0  0  0  0  0  0  0  0  0  0  0
  185.8990   25.9240   52.1140 N   0  0  0  0  0  0  0  0  0  0  0  0
  184.8130   26.8420   52.4920 C   0  0  0  0  0  0  0  0  0  0  0  0
  185.1090   27.4200   53.8770 C   0  0  0  0  0  0  0  0  0  0  0  0
  185.3120   26.3070   54.9050 C   0  0  0  0  0  0  0  0  0  0  0  0
  186.3730   25.3140   54.4330 C   0  0  0  0  0  0  0  0  0  0  0  0
  186.0570   24.7860   53.0340 C   0  0  0  0  0  0  0  0  0  0  0  0
  187.7377   27.1918   51.3337 H   0  0  0  0  0  0  0  0  0  0  0  0
  188.6854   26.8953   49.8369 H   0  0  0  0  0  0  0  0  0  0  0  0
  187.3636   28.1117   49.8369 H   0  0  0  0  0  0  0  0  0  0  0  0
  187.3519   26.1062   47.7547 H   0  0  0  0  0  0  0  0  0  0  0  0
  188.4749   21.5885   45.5474 H   0  0  0  0  0  0  0  0  0  0  0  0
  188.7168   20.6746   43.2367 H   0  0  0  0  0  0  0  0  0  0  0  0
  187.1732   21.4280   41.4261 H   0  0  0  0  0  0  0  0  0  0  0  0
  185.3280   22.6960   40.8600 H   0  0  0  0  0  0  0  0  0  0  0  0
  183.5470   25.7260   46.9470 H   0  0  0  0  0  0  0  0  0  0  0  0
  184.1867   23.3247   48.6896 H   0  0  0  0  0  0  0  0  0  0  0  0
  184.2520   24.0498   51.0635 H   0  0  0  0  0  0  0  0  0  0  0  0
  184.7480   27.6585   51.7578 H   0  0  0  0  0  0  0  0  0  0  0  0
  183.8570   26.2982   52.5128 H   0  0  0  0  0  0  0  0  0  0  0  0
  186.0221   28.0310   53.8238 H   0  0  0  0  0  0  0  0  0  0  0  0
  184.2515   28.0335   54.1905 H   0  0  0  0  0  0  0  0  0  0  0  0
  185.6340   26.7518   55.8582 H   0  0  0  0  0  0  0  0  0  0  0  0
  184.3607   25.7697   55.0329 H   0  0  0  0  0  0  0  0  0  0  0  0
  187.3510   25.8171   54.4136 H   0  0  0  0  0  0  0  0  0  0  0  0
  186.3865   24.4632   55.1301 H   0  0  0  0  0  0  0  0  0  0  0  0
  186.8805   24.1441   52.6879 H   0  0  0  0  0  0  0  0  0  0  0  0
  185.1270   24.1992   53.0607 H   0  0  0  0  0  0  0  0  0  0  0  0
  1  2  1  0
  2  3  2  0
  3  4  1  0
  4  5  1  0
  5  6  1  0
  6  7  1  0
  7  8  2  0
  8  9  1  0
  9 10  2  0
 10 11  1  0
 11 12  1  0
 11 13  2  0
 13 14  1  0
 14 15  2  0
 14 16  1  0
 16 17  1  0
  4 18  2  0
 18 19  1  0
 19 20  2  0
 20 21  1  0
 21 22  1  0
 22 23  1  0
 23 24  1  0
 24 25  1  0
 25 26  1  0
 20  2  1  0
 26 21  1  0
 16  5  2  0
 13  7  1  0
  1 27  1  0
  1 28  1  0
  1 29  1  0
  3 30  1  0
  8 31  1  0
  9 32  1  0
 10 33  1  0
 12 34  1  0
 17 35  1  0
 18 36  1  0
 19 37  1  0
 22 38  1  0
 22 39  1  0
 23 40  1  0
 23 41  1  0
 24 42  1  0
 24 43  1  0
 25 44  1  0
 25 45  1  0
 26 46  1  0
 26 47  1  0
M  END
>  <meeko>  (4) 
{"is_sidechain": [false], "free_energy": -6.521, "intermolecular_energy": -5.776, "internal_energy": -0.693}

$$$$
cand_023_out
     RDKit          3D

 47 50  0  0  0  0  0  0  0  0999 V2000
  180.0770   18.5100   45.8170 C   0  0  0  0  0  0  0  0  0  0  0  0
  180.3860   19.8890   46.3350 C   0  0  0  0  0  0  0  0  0  0  0  0
  181.6340   20.4720   46.0490 C   0  0  0  0  0  0  0  0  0  0  0  0
  181.9640   21.7570   46.5060 C   0  0  0  0  0  0  0  0  0  0  0  0
  183.2950   22.3260   46.2100 C   0  0  0  0  0  0  0  0  0  0  0  0
  183.6620   23.3340   47.0940 O   0  0  0  0  0  0  0  0  0  0  0  0
  184.8770   23.9480   46.9350 C   0  0  0  0  0  0  0  0  0  0  0  0
  185.1970   24.9630   47.8370 C   0  0  0  0  0  0  0  0  0  0  0  0
  186.4200   25.6280   47.7320 C   0  0  0  0  0  0  0  0  0  0  0  0
  187.3230   25.2790   46.7250 C   0  0  0  0  0  0  0  0  0  0  0  0
  187.0010   24.2660   45.8250 C   0  0  0  0  0  0  0  0  0  0  0  0
  187.9300   23.9740   44.8650 O   0  0  0  0  0  0  0  0  0  0  0  0
  185.7760   23.6000   45.9310 C   0  0  0  0  0  0  0  0  0  0  0  0
  185.3980   22.5300   45.0080 C   0  0  0  0  0  0  0  0  0  0  0  0
  186.1420   22.1610   44.1000 O   0  0  0  0  0  0  0  0  0  0  0  0
  184.0760   21.8930   45.2010 C   0  0  0  0  0  0  0  0  0  0  0  0
  183.7350   20.8730   44.3310 O   0  0  0  0  0  0  0  0  0  0  0  0
  181.0210   22.4500   47.2730 C   0  0  0  0  0  0  0  0  0  0  0  0
  179.7760   21.8800   47.5610 C   0  0  0  0  0  0  0  0  0  0  0  0
  179.4410   20.5970   47.1020 C   0  0  0  0  0  0  0  0  0  0  0  0
  178.1870   20.0060   47.3660 N   0  0  0  0  0  0  0  0  0  0  0  0
  177.4670   20.6340   48.4850 C   0  0  0  0  0  0  0  0  0  0  0  0
  176.2490   19.7790   48.8360 C   0  0  0  0  0  0  0  0  0  0  0  0
  175.3540   19.5700   47.6160 C   0  0  0  0  0  0  0  0  0  0  0  0
  176.1550   19.0130   46.4390 C   0  0  0  0  0  0  0  0  0  0  0  0
  177.3800   19.8780   46.1420 C   0  0  0  0  0  0  0  0  0  0  0  0
  179.9237   17.8258   46.6646 H   0  0  0  0  0  0  0  0  0  0  0  0
  179.1643   18.5446   45.2039 H   0  0  0  0  0  0  0  0  0  0  0  0
  180.9172   18.1518   45.2039 H   0  0  0  0  0  0  0  0  0  0  0  0
  182.3674   19.9080   45.4539 H   0  0  0  0  0  0  0  0  0  0  0  0
  184.4865   25.2390   48.6301 H   0  0  0  0  0  0  0  0  0  0  0  0
  186.6729   26.4280   48.4433 H   0  0  0  0  0  0  0  0  0  0  0  0
  188.2866   25.8032   46.6430 H   0  0  0  0  0  0  0  0  0  0  0  0
  187.9310   24.4450   44.0550 H   0  0  0  0  0  0  0  0  0  0  0  0
  183.2340   20.1440   44.6380 H   0  0  0  0  0  0  0  0  0  0  0  0
  181.2610   23.4537   47.6537 H   0  0  0  0  0  0  0  0  0  0  0  0
  179.0470   22.4477   48.1578 H   0  0  0  0  0  0  0  0  0  0  0  0
  178.1321   20.7044   49.3583 H   0  0  0  0  0  0  0  0  0  0  0  0
  177.1411   21.6443   48.1968 H   0  0  0  0  0  0  0  0  0  0  0  0
  176.5909   18.7999   49.2027 H   0  0  0  0  0  0  0  0  0  0  0  0
  175.6676   20.3004   49.6107 H   0  0  0  0  0  0  0  0  0  0  0  0
  174.5535   18.8611   47.8741 H   0  0  0  0  0  0  0  0  0  0  0  0
  174.9285   20.5410   47.3226 H   0  0  0  0  0  0  0  0  0  0  0  0
  176.4871   17.9929   46.6823 H   0  0  0  0  0  0  0  0  0  0  0  0
  175.5082   19.0098   45.5493 H   0  0  0  0  0  0  0  0  0  0  0  0
  177.9818   19.4055   45.3517 H   0  0  0  0  0  0  0  0  0  0  0  0
  177.0575   20.8741   45.8048 H   0  0  0  0  0  0  0  0  0  0  0  0
  1  2  1  0
  2  3  2  0
  3  4  1  0
  4  5  1  0
  5  6  1  0
  6  7  1  0
  7  8  2  0
  8  9  1  0
  9 10  2  0
 10 11  1  0
 11 12  1  0
 11 13  2  0
 13 14  1  0
 14 15  2  0
 14 16  1  0
 16 17  1  0
  4 18  2  0
 18 19  1  0
 19 20  2  0
 20 21  1  0
 21 22  1  0
 22 23  1  0
 23 24  1  0
 24 25  1  0
 25 26  1  0
 20  2  1  0
 26 21  1  0
 16  5  2  0
 13  7  1  0
  1 27  1  0
  1 28  1  0
  1 29  1  0
  3 30  1  0
  8 31  1  0
  9 32  1  0
 10 33  1  0
 12 34  1  0
 17 35  1  0
 18 36  1  0
 19 37  1  0
 22 38  1  0
 22 39  1  0
 23 40  1  0
 23 41  1  0
 24 42  1  0
 24 43  1  0
 25 44  1  0
 25 45  1  0
 26 46  1  0
 26 47  1  0
M  END
>  <meeko>  (5) 
{"is_sidechain": [false], "free_energy": -6.445, "intermolecular_energy": -6.762, "internal_energy": 0.384}

$$$$
cand_023_out
     RDKit          3D

 47 50  0  0  0  0  0  0  0  0999 V2000
  180.3170   18.5170   45.8320 C   0  0  0  0  0  0  0  0  0  0  0  0
  180.5500   19.9300   46.2970 C   0  0  0  0  0  0  0  0  0  0  0  0
  181.7910   20.5440   46.0510 C   0  0  0  0  0  0  0  0  0  0  0  0
  182.0510   21.8600   46.4620 C   0  0  0  0  0  0  0  0  0  0  0  0
  183.3770   22.4620   46.2100 C   0  0  0  0  0  0  0  0  0  0  0  0
  183.8260   22.2570   44.9110 O   0  0  0  0  0  0  0  0  0  0  0  0
  185.0430   22.7650   44.5400 C   0  0  0  0  0  0  0  0  0  0  0  0
  185.4600   22.5230   43.2300 C   0  0  0  0  0  0  0  0  0  0  0  0
  186.6900   23.0150   42.7880 C   0  0  0  0  0  0  0  0  0  0  0  0
  187.5030   23.7490   43.6540 C   0  0  0  0  0  0  0  0  0  0  0  0
  187.0860   23.9880   44.9610 C   0  0  0  0  0  0  0  0  0  0  0  0
  187.9300   24.7140   45.7570 O   0  0  0  0  0  0  0  0  0  0  0  0
  185.8540   23.4960   45.4040 C   0  0  0  0  0  0  0  0  0  0  0  0
  185.3770   23.7260   46.7680 C   0  0  0  0  0  0  0  0  0  0  0  0
  186.0330   24.3680   47.5870 O   0  0  0  0  0  0  0  0  0  0  0  0
  184.0620   23.1560   47.1390 C   0  0  0  0  0  0  0  0  0  0  0  0
  183.6160   23.3910   48.4270 O   0  0  0  0  0  0  0  0  0  0  0  0
  181.0430   22.5530   47.1410 C   0  0  0  0  0  0  0  0  0  0  0  0
  179.8050   21.9530   47.3890 C   0  0  0  0  0  0  0  0  0  0  0  0
  179.5400   20.6380   46.9760 C   0  0  0  0  0  0  0  0  0  0  0  0
  178.2940   20.0150   47.2010 N   0  0  0  0  0  0  0  0  0  0  0  0
  177.5350   20.6050   48.3150 C   0  0  0  0  0  0  0  0  0  0  0  0
  176.3290   19.7170   48.6220 C   0  0  0  0  0  0  0  0  0  0  0  0
  175.4660   19.5110   47.3780 C   0  0  0  0  0  0  0  0  0  0  0  0
  176.3050   18.9940   46.2100 C   0  0  0  0  0  0  0  0  0  0  0  0
  177.5170   19.8920   45.9570 C   0  0  0  0  0  0  0  0  0  0  0  0
  180.2082   17.8569   46.7052 H   0  0  0  0  0  0  0  0  0  0  0  0
  179.4001   18.4770   45.2256 H   0  0  0  0  0  0  0  0  0  0  0  0
  181.1725   18.1848   45.2256 H   0  0  0  0  0  0  0  0  0  0  0  0
  182.5752   19.9800   45.5247 H   0  0  0  0  0  0  0  0  0  0  0  0
  184.8204   21.9453   42.5465 H   0  0  0  0  0  0  0  0  0  0  0  0
  187.0189   22.8240   41.7559 H   0  0  0  0  0  0  0  0  0  0  0  0
  188.4709   24.1377   43.3045 H   0  0  0  0  0  0  0  0  0  0  0  0
  188.5650   24.2750   46.2870 H   0  0  0  0  0  0  0  0  0  0  0  0
  183.9470   22.8780   49.1380 H   0  0  0  0  0  0  0  0  0  0  0  0
  181.2268   23.5820   47.4837 H   0  0  0  0  0  0  0  0  0  0  0  0
  179.0250   22.5213   47.9169 H   0  0  0  0  0  0  0  0  0  0  0  0
  178.1786   20.6731   49.2044 H   0  0  0  0  0  0  0  0  0  0  0  0
  177.1930   21.6132   48.0385 H   0  0  0  0  0  0  0  0  0  0  0  0
  176.6846   18.7390   48.9784 H   0  0  0  0  0  0  0  0  0  0  0  0
  175.7187   20.2110   49.3924 H   0  0  0  0  0  0  0  0  0  0  0  0
  174.6761   18.7799   47.6050 H   0  0  0  0  0  0  0  0  0  0  0  0
  175.0254   20.4777   47.0927 H   0  0  0  0  0  0  0  0  0  0  0  0
  176.6545   17.9772   46.4421 H   0  0  0  0  0  0  0  0  0  0  0  0
  175.6785   18.9929   45.3058 H   0  0  0  0  0  0  0  0  0  0  0  0
  178.1467   19.4481   45.1719 H   0  0  0  0  0  0  0  0  0  0  0  0
  177.1792   20.8869   45.6314 H   0  0  0  0  0  0  0  0  0  0  0  0
  1  2  1  0
  2  3  2  0
  3  4  1  0
  4  5  1  0
  5  6  1  0
  6  7  1  0
  7  8  2  0
  8  9  1  0
  9 10  2  0
 10 11  1  0
 11 12  1  0
 11 13  2  0
 13 14  1  0
 14 15  2  0
 14 16  1  0
 16 17  1  0
  4 18  2  0
 18 19  1  0
 19 20  2  0
 20 21  1  0
 21 22  1  0
 22 23  1  0
 23 24  1  0
 24 25  1  0
 25 26  1  0
 20  2  1  0
 26 21  1  0
 16  5  2  0
 13  7  1  0
  1 27  1  0
  1 28  1  0
  1 29  1  0
  3 30  1  0
  8 31  1  0
  9 32  1  0
 10 33  1  0
 12 34  1  0
 17 35  1  0
 18 36  1  0
 19 37  1  0
 22 38  1  0
 22 39  1  0
 23 40  1  0
 23 41  1  0
 24 42  1  0
 24 43  1  0
 25 44  1  0
 25 45  1  0
 26 46  1  0
 26 47  1  0
M  END
>  <meeko>  (6) 
{"is_sidechain": [false], "free_energy": -6.202, "intermolecular_energy": -6.087, "internal_energy": -0.006}

$$$$
cand_023_out
     RDKit          3D

 47 50  0  0  0  0  0  0  0  0999 V2000
  185.2110   22.0470   43.9820 C   0  0  0  0  0  0  0  0  0  0  0  0
  184.2890   22.2680   45.1520 C   0  0  0  0  0  0  0  0  0  0  0  0
  183.0750   21.5610   45.2190 C   0  0  0  0  0  0  0  0  0  0  0  0
  182.1870   21.7310   46.2930 C   0  0  0  0  0  0  0  0  0  0  0  0
  180.9080   20.9920   46.3140 C   0  0  0  0  0  0  0  0  0  0  0  0
  179.8410   21.7710   46.7470 O   0  0  0  0  0  0  0  0  0  0  0  0
  178.5920   21.2100   46.8140 C   0  0  0  0  0  0  0  0  0  0  0  0
  177.5530   22.0250   47.2660 C   0  0  0  0  0  0  0  0  0  0  0  0
  176.2570   21.5160   47.3560 C   0  0  0  0  0  0  0  0  0  0  0  0
  175.9970   20.1920   46.9940 C   0  0  0  0  0  0  0  0  0  0  0  0
  177.0360   19.3800   46.5440 C   0  0  0  0  0  0  0  0  0  0  0  0
  176.7130   18.0940   46.2060 O   0  0  0  0  0  0  0  0  0  0  0  0
  178.3340   19.8910   46.4540 C   0  0  0  0  0  0  0  0  0  0  0  0
  179.4530   19.0730   45.9850 C   0  0  0  0  0  0  0  0  0  0  0  0
  179.3040   17.9010   45.6420 O   0  0  0  0  0  0  0  0  0  0  0  0
  180.7900   19.7060   45.9330 C   0  0  0  0  0  0  0  0  0  0  0  0
  181.8380   18.9270   45.4760 O   0  0  0  0  0  0  0  0  0  0  0  0
  182.5320   22.6380   47.3000 C   0  0  0  0  0  0  0  0  0  0  0  0
  183.7380   23.3440   47.2440 C   0  0  0  0  0  0  0  0  0  0  0  0
  184.6300   23.1740   46.1740 C   0  0  0  0  0  0  0  0  0  0  0  0
  185.8600   23.8630   46.1020 N   0  0  0  0  0  0  0  0  0  0  0  0
  185.7870   25.1130   45.3290 C   0  0  0  0  0  0  0  0  0  0  0  0
  187.2030   25.6480   45.1140 C   0  0  0  0  0  0  0  0  0  0  0  0
  187.9300   25.8320   46.4460 C   0  0  0  0  0  0  0  0  0  0  0  0
  187.8970   24.5450   47.2680 C   0  0  0  0  0  0  0  0  0  0  0  0
  186.4680   24.0260   47.4320 C   0  0  0  0  0  0  0  0  0  0  0  0
  186.2190   21.8054   44.3501 H   0  0  0  0  0  0  0  0  0  0  0  0
  184.8344   21.2137   43.3707 H   0  0  0  0  0  0  0  0  0  0  0  0
  185.2531   22.9605   43.3707 H   0  0  0  0  0  0  0  0  0  0  0  0
  182.8157   20.8596   44.4123 H   0  0  0  0  0  0  0  0  0  0  0  0
  177.7557   23.0679   47.5511 H   0  0  0  0  0  0  0  0  0  0  0  0
  175.4384   22.1585   47.7127 H   0  0  0  0  0  0  0  0  0  0  0  0
  174.9748   19.7916   47.0640 H   0  0  0  0  0  0  0  0  0  0  0  0
  176.9770   17.7480   45.3770 H   0  0  0  0  0  0  0  0  0  0  0  0
  181.8750   18.0170   45.6960 H   0  0  0  0  0  0  0  0  0  0  0  0
  181.8470   22.7980   48.1457 H   0  0  0  0  0  0  0  0  0  0  0  0
  183.9919   24.0449   48.0529 H   0  0  0  0  0  0  0  0  0  0  0  0
  185.3147   24.9174   44.3550 H   0  0  0  0  0  0  0  0  0  0  0  0
  185.1884   25.8551   45.8776 H   0  0  0  0  0  0  0  0  0  0  0  0
  187.7658   24.9355   44.4930 H   0  0  0  0  0  0  0  0  0  0  0  0
  187.1349   26.6260   44.6151 H   0  0  0  0  0  0  0  0  0  0  0  0
  188.9768   26.1072   46.2498 H   0  0  0  0  0  0  0  0  0  0  0  0
  187.4241   26.6255   47.0155 H   0  0  0  0  0  0  0  0  0  0  0  0
  188.5000   23.7790   46.7585 H   0  0  0  0  0  0  0  0  0  0  0  0
  188.3044   24.7608   48.2667 H   0  0  0  0  0  0  0  0  0  0  0  0
  186.4855   23.0560   47.9505 H   0  0  0  0  0  0  0  0  0  0  0  0
  185.8790   24.7421   48.0238 H   0  0  0  0  0  0  0  0  0  0  0  0
  1  2  1  0
  2  3  2  0
  3  4  1  0
  4  5  1  0
  5  6  1  0
  6  7  1  0
  7  8  2  0
  8  9  1  0
  9 10  2  0
 10 11  1  0
 11 12  1  0
 11 13  2  0
 13 14  1  0
 14 15  2  0
 14 16  1  0
 16 17  1  0
  4 18  2  0
 18 19  1  0
 19 20  2  0
 20 21  1  0
 21 22  1  0
 22 23  1  0
 23 24  1  0
 24 25  1  0
 25 26  1  0
 20  2  1  0
 26 21  1  0
 16  5  2  0
 13  7  1  0
  1 27  1  0
  1 28  1  0
  1 29  1  0
  3 30  1  0
  8 31  1  0
  9 32  1  0
 10 33  1  0
 12 34  1  0
 17 35  1  0
 18 36  1  0
 19 37  1  0
 22 38  1  0
 22 39  1  0
 23 40  1  0
 23 41  1  0
 24 42  1  0
 24 43  1  0
 25 44  1  0
 25 45  1  0
 26 46  1  0
 26 47  1  0
M  END
>  <meeko>  (7) 
{"is_sidechain": [false], "free_energy": -5.969, "intermolecular_energy": -5.646, "internal_energy": -0.174}

$$$$
cand_023_out
     RDKit          3D

 47 50  0  0  0  0  0  0  0  0999 V2000
  175.6920   19.8380   49.1750 C   0  0  0  0  0  0  0  0  0  0  0  0
  175.8990   21.3250   49.0670 C   0  0  0  0  0  0  0  0  0  0  0  0
  174.9690   22.1980   49.6600 C   0  0  0  0  0  0  0  0  0  0  0  0
  175.1240   23.5910   49.5890 C   0  0  0  0  0  0  0  0  0  0  0  0
  174.1120   24.4770   50.2000 C   0  0  0  0  0  0  0  0  0  0  0  0
  174.4120   24.8150   51.5140 O   0  0  0  0  0  0  0  0  0  0  0  0
  173.5560   25.6350   52.2020 C   0  0  0  0  0  0  0  0  0  0  0  0
  173.8900   25.9360   53.5230 C   0  0  0  0  0  0  0  0  0  0  0  0
  173.0610   26.7680   54.2790 C   0  0  0  0  0  0  0  0  0  0  0  0
  171.8990   27.2980   53.7150 C   0  0  0  0  0  0  0  0  0  0  0  0
  171.5670   26.9950   52.3960 C   0  0  0  0  0  0  0  0  0  0  0  0
  170.4150   27.5480   51.9060 O   0  0  0  0  0  0  0  0  0  0  0  0
  172.3970   26.1630   51.6400 C   0  0  0  0  0  0  0  0  0  0  0  0
  172.0860   25.8200   50.2520 C   0  0  0  0  0  0  0  0  0  0  0  0
  171.0850   26.2530   49.6830 O   0  0  0  0  0  0  0  0  0  0  0  0
  173.0270   24.9250   49.5400 C   0  0  0  0  0  0  0  0  0  0  0  0
  172.7290   24.6190   48.2240 O   0  0  0  0  0  0  0  0  0  0  0  0
  176.2280   24.1000   48.8960 C   0  0  0  0  0  0  0  0  0  0  0  0
  177.1600   23.2410   48.3060 C   0  0  0  0  0  0  0  0  0  0  0  0
  177.0100   21.8470   48.3780 C   0  0  0  0  0  0  0  0  0  0  0  0
  177.9440   20.9590   47.8030 N   0  0  0  0  0  0  0  0  0  0  0  0
  177.5750   20.5150   46.4500 C   0  0  0  0  0  0  0  0  0  0  0  0
  178.5150   19.3880   46.0220 C   0  0  0  0  0  0  0  0  0  0  0  0
  179.9760   19.8270   46.1090 C   0  0  0  0  0  0  0  0  0  0  0  0
  180.2990   20.3780   47.4970 C   0  0  0  0  0  0  0  0  0  0  0  0
  179.3180   21.4790   47.9000 C   0  0  0  0  0  0  0  0  0  0  0  0
  175.6518   19.5495   50.2357 H   0  0  0  0  0  0  0  0  0  0  0  0
  174.7469   19.5628   48.6841 H   0  0  0  0  0  0  0  0  0  0  0  0
  176.5260   19.3151   48.6841 H   0  0  0  0  0  0  0  0  0  0  0  0
  174.1012   21.7797   50.1910 H   0  0  0  0  0  0  0  0  0  0  0  0
  174.8051   25.5186   53.9684 H   0  0  0  0  0  0  0  0  0  0  0  0
  173.3240   27.0060   55.3202 H   0  0  0  0  0  0  0  0  0  0  0  0
  171.2468   27.9535   54.3107 H   0  0  0  0  0  0  0  0  0  0  0  0
  169.6800   27.0020   51.7110 H   0  0  0  0  0  0  0  0  0  0  0  0
  173.3650   24.7720   47.5530 H   0  0  0  0  0  0  0  0  0  0  0  0
  176.3641   25.1885   48.8145 H   0  0  0  0  0  0  0  0  0  0  0  0
  178.0259   23.6647   47.7762 H   0  0  0  0  0  0  0  0  0  0  0  0
  176.5376   20.1491   46.4521 H   0  0  0  0  0  0  0  0  0  0  0  0
  177.6597   21.3566   45.7468 H   0  0  0  0  0  0  0  0  0  0  0  0
  178.3604   18.5214   46.6816 H   0  0  0  0  0  0  0  0  0  0  0  0
  178.2912   19.1241   44.9778 H   0  0  0  0  0  0  0  0  0  0  0  0
  180.6245   18.9622   45.9052 H   0  0  0  0  0  0  0  0  0  0  0  0
  180.1488   20.6207   45.3673 H   0  0  0  0  0  0  0  0  0  0  0  0
  180.2401   19.5598   48.2299 H   0  0  0  0  0  0  0  0  0  0  0  0
  181.3116   20.8071   47.4731 H   0  0  0  0  0  0  0  0  0  0  0  0
  179.5210   21.7926   48.9346 H   0  0  0  0  0  0  0  0  0  0  0  0
  179.4353   22.3434   47.2299 H   0  0  0  0  0  0  0  0  0  0  0  0
  1  2  1  0
  2  3  2  0
  3  4  1  0
  4  5  1  0
  5  6  1  0
  6  7  1  0
  7  8  2  0
  8  9  1  0
  9 10  2  0
 10 11  1  0
 11 12  1  0
 11 13  2  0
 13 14  1  0
 14 15  2  0
 14 16  1  0
 16 17  1  0
  4 18  2  0
 18 19  1  0
 19 20  2  0
 20 21  1  0
 21 22  1  0
 22 23  1  0
 23 24  1  0
 24 25  1  0
 25 26  1  0
 20  2  1  0
 26 21  1  0
 16  5  2  0
 13  7  1  0
  1 27  1  0
  1 28  1  0
  1 29  1  0
  3 30  1  0
  8 31  1  0
  9 32  1  0
 10 33  1  0
 12 34  1  0
 17 35  1  0
 18 36  1  0
 19 37  1  0
 22 38  1  0
 22 39  1  0
 23 40  1  0
 23 41  1  0
 24 42  1  0
 24 43  1  0
 25 44  1  0
 25 45  1  0
 26 46  1  0
 26 47  1  0
M  END
>  <meeko>  (8) 
{"is_sidechain": [false], "free_energy": -5.851, "intermolecular_energy": -5.114, "internal_energy": -0.567}

$$$$
cand_023_out
     RDKit          3D

 47 50  0  0  0  0  0  0  0  0999 V2000
  171.5590   26.5480   49.5740 C   0  0  0  0  0  0  0  0  0  0  0  0
  172.6530   25.7680   50.2540 C   0  0  0  0  0  0  0  0  0  0  0  0
  173.5090   24.9600   49.4830 C   0  0  0  0  0  0  0  0  0  0  0  0
  174.5450   24.2200   50.0730 C   0  0  0  0  0  0  0  0  0  0  0  0
  175.4060   23.3610   49.2350 C   0  0  0  0  0  0  0  0  0  0  0  0
  174.7690   22.1970   48.8200 O   0  0  0  0  0  0  0  0  0  0  0  0
  175.4540   21.3080   48.0330 C   0  0  0  0  0  0  0  0  0  0  0  0
  174.7790   20.1470   47.6520 C   0  0  0  0  0  0  0  0  0  0  0  0
  175.4200   19.2020   46.8490 C   0  0  0  0  0  0  0  0  0  0  0  0
  176.7330   19.4160   46.4260 C   0  0  0  0  0  0  0  0  0  0  0  0
  177.4040   20.5750   46.8080 C   0  0  0  0  0  0  0  0  0  0  0  0
  178.6880   20.7220   46.3590 O   0  0  0  0  0  0  0  0  0  0  0  0
  176.7630   21.5210   47.6130 C   0  0  0  0  0  0  0  0  0  0  0  0
  177.4310   22.7530   48.0360 C   0  0  0  0  0  0  0  0  0  0  0  0
  178.5850   23.0160   47.6990 O   0  0  0  0  0  0  0  0  0  0  0  0
  176.6670   23.6870   48.8930 C   0  0  0  0  0  0  0  0  0  0  0  0
  177.3040   24.8540   49.2750 O   0  0  0  0  0  0  0  0  0  0  0  0
  174.7030   24.2920   51.4610 C   0  0  0  0  0  0  0  0  0  0  0  0
  173.8590   25.0940   52.2360 C   0  0  0  0  0  0  0  0  0  0  0  0
  172.8240   25.8390   51.6500 C   0  0  0  0  0  0  0  0  0  0  0  0
  171.9690   26.6670   52.4080 N   0  0  0  0  0  0  0  0  0  0  0  0
  170.9370   25.9240   53.1470 C   0  0  0  0  0  0  0  0  0  0  0  0
  169.9320   26.9160   53.7330 C   0  0  0  0  0  0  0  0  0  0  0  0
  170.6320   27.9570   54.6050 C   0  0  0  0  0  0  0  0  0  0  0  0
  171.7660   28.6380   53.8400 C   0  0  0  0  0  0  0  0  0  0  0  0
  172.7290   27.6110   53.2430 C   0  0  0  0  0  0  0  0  0  0  0  0
  170.9113   27.0098   50.3338 H   0  0  0  0  0  0  0  0  0  0  0  0
  172.0047   27.3333   48.9458 H   0  0  0  0  0  0  0  0  0  0  0  0
  170.9619   25.8707   48.9458 H   0  0  0  0  0  0  0  0  0  0  0  0
  173.3628   24.9073   48.3940 H   0  0  0  0  0  0  0  0  0  0  0  0
  173.7441   19.9771   47.9839 H   0  0  0  0  0  0  0  0  0  0  0  0
  174.8892   18.2865   46.5488 H   0  0  0  0  0  0  0  0  0  0  0  0
  177.2364   18.6709   45.7924 H   0  0  0  0  0  0  0  0  0  0  0  0
  179.4010   20.7060   46.9660 H   0  0  0  0  0  0  0  0  0  0  0  0
  178.1180   24.8120   49.7370 H   0  0  0  0  0  0  0  0  0  0  0  0
  175.5000   23.7113   51.9484 H   0  0  0  0  0  0  0  0  0  0  0  0
  174.0091   25.1417   53.3247 H   0  0  0  0  0  0  0  0  0  0  0  0
  170.4191   25.2345   52.4642 H   0  0  0  0  0  0  0  0  0  0  0  0
  171.4045   25.3462   53.9580 H   0  0  0  0  0  0  0  0  0  0  0  0
  169.4110   27.4279   52.9105 H   0  0  0  0  0  0  0  0  0  0  0  0
  169.2165   26.3610   54.3575 H   0  0  0  0  0  0  0  0  0  0  0  0
  169.9001   28.7172   54.9155 H   0  0  0  0  0  0  0  0  0  0  0  0
  171.0568   27.4499   55.4838 H   0  0  0  0  0  0  0  0  0  0  0  0
  171.3374   29.2422   53.0269 H   0  0  0  0  0  0  0  0  0  0  0  0
  172.3267   29.2723   54.5424 H   0  0  0  0  0  0  0  0  0  0  0  0
  173.4806   28.1257   52.6264 H   0  0  0  0  0  0  0  0  0  0  0  0
  173.2366   27.0649   54.0518 H   0  0  0  0  0  0  0  0  0  0  0  0
  1  2  1  0
  2  3  2  0
  3  4  1  0
  4  5  1  0
  5  6  1  0
  6  7  1  0
  7  8  2  0
  8  9  1  0
  9 10  2  0
 10 11  1  0
 11 12  1  0
 11 13  2  0
 13 14  1  0
 14 15  2  0
 14 16  1  0
 16 17  1  0
  4 18  2  0
 18 19  1  0
 19 20  2  0
 20 21  1  0
 21 22  1  0
 22 23  1  0
 23 24  1  0
 24 25  1  0
 25 26  1  0
 20  2  1  0
 26 21  1  0
 16  5  2  0
 13  7  1  0
  1 27  1  0
  1 28  1  0
  1 29  1  0
  3 30  1  0
  8 31  1  0
  9 32  1  0
 10 33  1  0
 12 34  1  0
 17 35  1  0
 18 36  1  0
 19 37  1  0
 22 38  1  0
 22 39  1  0
 23 40  1  0
 23 41  1  0
 24 42  1  0
 24 43  1  0
 25 44  1  0
 25 45  1  0
 26 46  1  0
 26 47  1  0
M  END
>  <meeko>  (9) 
{"is_sidechain": [false], "free_energy": -5.663, "intermolecular_energy": -4.777, "internal_energy": -0.683}

$$$$
