cand_015_out
     RDKit          3D

 36 38  0  0  0  0  0  0  0  0999 V2000
  181.2140   14.4920   41.6670 C   0  0  0  0  0  0  0  0  0  0  0  0
  181.8510   15.1880   42.6140 C   0  0  0  0  0  0  0  0  0  0  0  0
  183.1770   14.9740   42.7730 F   0  0  0  0  0  0  0  0  0  0  0  0
  181.2040   16.1510   43.5220 C   0  0  0  0  0  0  0  0  0  0  0  0
  181.4580   17.5250   43.3740 C   0  0  0  0  0  0  0  0  0  0  0  0
  180.8830   18.4670   44.2340 C   0  0  0  0  0  0  0  0  0  0  0  0
  180.0370   18.0630   45.2700 C   0  0  0  0  0  0  0  0  0  0  0  0
  179.4400   19.0330   46.2120 C   0  0  0  0  0  0  0  0  0  0  0  0
  178.0510   19.0040   46.2110 O   0  0  0  0  0  0  0  0  0  0  0  0
  177.3690   19.8570   47.0410 C   0  0  0  0  0  0  0  0  0  0  0  0
  175.9750   19.7830   47.0190 C   0  0  0  0  0  0  0  0  0  0  0  0
  175.2200   20.6250   47.8380 C   0  0  0  0  0  0  0  0  0  0  0  0
  175.8580   21.5400   48.6790 C   0  0  0  0  0  0  0  0  0  0  0  0
  177.2480   21.6110   48.7000 C   0  0  0  0  0  0  0  0  0  0  0  0
  177.8080   22.5280   49.5470 O   0  0  0  0  0  0  0  0  0  0  0  0
  178.0030   20.7670   47.8800 C   0  0  0  0  0  0  0  0  0  0  0  0
  179.4670   20.8090   47.8720 C   0  0  0  0  0  0  0  0  0  0  0  0
  180.1000   21.5910   48.5770 O   0  0  0  0  0  0  0  0  0  0  0  0
  180.1720   19.8690   46.9710 C   0  0  0  0  0  0  0  0  0  0  0  0
  181.5550   19.9260   46.9610 O   0  0  0  0  0  0  0  0  0  0  0  0
  179.7940   16.6900   45.4320 C   0  0  0  0  0  0  0  0  0  0  0  0
  180.3580   15.7290   44.5690 C   0  0  0  0  0  0  0  0  0  0  0  0
  180.0490   14.2750   44.8110 C   0  0  0  0  0  0  0  0  0  0  0  0
  180.1355   14.6389   41.5081 H   0  0  0  0  0  0  0  0  0  0  0  0
  181.7683   13.7724   41.0466 H   0  0  0  0  0  0  0  0  0  0  0  0
  182.1219   17.8667   42.5662 H   0  0  0  0  0  0  0  0  0  0  0  0
  181.0991   19.5363   44.0931 H   0  0  0  0  0  0  0  0  0  0  0  0
  175.4721   19.0623   46.3574 H   0  0  0  0  0  0  0  0  0  0  0  0
  174.1216   20.5678   47.8210 H   0  0  0  0  0  0  0  0  0  0  0  0
  175.2628   22.2034   49.3237 H   0  0  0  0  0  0  0  0  0  0  0  0
  178.7130   22.4600   49.7790 H   0  0  0  0  0  0  0  0  0  0  0  0
  182.0530   19.1740   46.7050 H   0  0  0  0  0  0  0  0  0  0  0  0
  179.1457   16.3549   46.2550 H   0  0  0  0  0  0  0  0  0  0  0  0
  180.0084   14.0840   45.8935 H   0  0  0  0  0  0  0  0  0  0  0  0
  179.0779   14.0262   44.3581 H   0  0  0  0  0  0  0  0  0  0  0  0
  180.8350   13.6528   44.3581 H   0  0  0  0  0  0  0  0  0  0  0  0
  1  2  2  0
  2  3  1  0
  2  4  1  0
  4  5  2  0
  5  6  1  0
  6  7  2  0
  7  8  1  0
  8  9  1  0
  9 10  1  0
 10 11  2  0
 11 12  1  0
 12 13  2  0
 13 14  1  0
 14 15  1  0
 14 16  2  0
 16 17  1  0
 17 18  2  0
 17 19  1  0
 19 20  1  0
  7 21  1  0
 21 22  2  0
 22 23  1  0
 22  4  1  0
 19  8  2  0
 16 10  1  0
  1 24  1  0
  1 25  1  0
  5 26  1  0
  6 27  1  0
 11 28  1  0
 12 29  1  0
 13 30  1  0
 15 31  1  0
 20 32  1  0
 21 33  1  0
 23 34  1  0
 23 35  1  0
 23 36  1  0
M  END
>  <meeko>  (1) 
{"is_sidechain": [false], "free_energy": -7.982, "intermolecular_energy": -9.382, "internal_energy": -0.221}

$$$$
cand_015_out
     RDKit          3D

 36 38  0  0  0  0  0  0  0  0999 V2000
  179.0560   20.5850   46.7200 C   0  0  0  0  0  0  0  0  0  0  0  0
  177.7330   20.7260   46.5850 C   0  0  0  0  0  0  0  0  0  0  0  0
  177.1770   20.3720   45.4040 F   0  0  0  0  0  0  0  0  0  0  0  0
  176.8400   21.2730   47.6210 C   0  0  0  0  0  0  0  0  0  0  0  0
  176.8890   22.6450   47.9260 C   0  0  0  0  0  0  0  0  0  0  0  0
  176.0750   23.1960   48.9220 C   0  0  0  0  0  0  0  0  0  0  0  0
  175.1880   22.3930   49.6430 C   0  0  0  0  0  0  0  0  0  0  0  0
  174.3400   22.9440   50.7220 C   0  0  0  0  0  0  0  0  0  0  0  0
  175.0630   23.2750   51.8620 O   0  0  0  0  0  0  0  0  0  0  0  0
  174.3960   23.7970   52.9400 C   0  0  0  0  0  0  0  0  0  0  0  0
  175.1630   24.1290   54.0590 C   0  0  0  0  0  0  0  0  0  0  0  0
  174.5470   24.6640   55.1930 C   0  0  0  0  0  0  0  0  0  0  0  0
  173.1650   24.8660   55.2080 C   0  0  0  0  0  0  0  0  0  0  0  0
  172.4030   24.5350   54.0910 C   0  0  0  0  0  0  0  0  0  0  0  0
  171.0560   24.7590   54.1740 O   0  0  0  0  0  0  0  0  0  0  0  0
  173.0210   24.0000   52.9570 C   0  0  0  0  0  0  0  0  0  0  0  0
  172.2560   23.6390   51.7620 C   0  0  0  0  0  0  0  0  0  0  0  0
  171.0370   23.7800   51.7010 O   0  0  0  0  0  0  0  0  0  0  0  0
  173.0070   23.0860   50.6110 C   0  0  0  0  0  0  0  0  0  0  0  0
  172.2730   22.7350   49.4910 O   0  0  0  0  0  0  0  0  0  0  0  0
  175.1490   21.0210   49.3540 C   0  0  0  0  0  0  0  0  0  0  0  0
  175.9540   20.4510   48.3480 C   0  0  0  0  0  0  0  0  0  0  0  0
  175.8530   18.9690   48.0990 C   0  0  0  0  0  0  0  0  0  0  0  0
  179.5450   20.8621   47.6656 H   0  0  0  0  0  0  0  0  0  0  0  0
  179.6552   20.1919   45.8855 H   0  0  0  0  0  0  0  0  0  0  0  0
  177.5799   23.2970   47.3714 H   0  0  0  0  0  0  0  0  0  0  0  0
  176.1342   24.2727   49.1394 H   0  0  0  0  0  0  0  0  0  0  0  0
  176.2513   23.9693   54.0474 H   0  0  0  0  0  0  0  0  0  0  0  0
  175.1506   24.9263   56.0744 H   0  0  0  0  0  0  0  0  0  0  0  0
  172.6794   25.2860   56.1012 H   0  0  0  0  0  0  0  0  0  0  0  0
  170.7330   25.5060   54.6380 H   0  0  0  0  0  0  0  0  0  0  0  0
  171.3690   22.5050   49.5770 H   0  0  0  0  0  0  0  0  0  0  0  0
  174.4714   20.3723   49.9285 H   0  0  0  0  0  0  0  0  0  0  0  0
  175.8168   18.4372   49.0612 H   0  0  0  0  0  0  0  0  0  0  0  0
  174.9382   18.7548   47.5270 H   0  0  0  0  0  0  0  0  0  0  0  0
  176.7303   18.6327   47.5270 H   0  0  0  0  0  0  0  0  0  0  0  0
  1  2  2  0
  2  3  1  0
  2  4  1  0
  4  5  2  0
  5  6  1  0
  6  7  2  0
  7  8  1  0
  8  9  1  0
  9 10  1  0
 10 11  2  0
 11 12  1  0
 12 13  2  0
 13 14  1  0
 14 15  1  0
 14 16  2  0
 16 17  1  0
 17 18  2  0
 17 19  1  0
 19 20  1  0
  7 21  1  0
 21 22  2  0
 22 23  1  0
 22  4  1  0
 19  8  2  0
 16 10  1  0
  1 24  1  0
  1 25  1  0
  5 26  1  0
  6 27  1  0
 11 28  1  0
 12 29  1  0
 13 30  1  0
 15 31  1  0
 20 32  1  0
 21 33  1  0
 23 34  1  0
 23 35  1  0
 23 36  1  0
M  END
>  <meeko>  (2) 
{"is_sidechain": [false], "free_energy": -7.708, "intermolecular_energy": -8.755, "internal_energy": -0.526}

$$$$
cand_015_out
     RDKit          3D

 36 38  0  0  0  0  0  0  0  0999 V2000
  171.6980   24.3180   48.9000 C   0  0  0  0  0  0  0  0  0  0  0  0
  172.5820   23.8720   49.7980 C   0  0  0  0  0  0  0  0  0  0  0  0
  172.2070   23.8490   51.0970 F   0  0  0  0  0  0  0  0  0  0  0  0
  173.9530   23.4360   49.4770 C   0  0  0  0  0  0  0  0  0  0  0  0
  174.1790   22.1170   49.0480 C   0  0  0  0  0  0  0  0  0  0  0  0
  175.4700   21.6600   48.7600 C   0  0  0  0  0  0  0  0  0  0  0  0
  176.5730   22.5070   48.8930 C   0  0  0  0  0  0  0  0  0  0  0  0
  177.9500   22.0400   48.6250 C   0  0  0  0  0  0  0  0  0  0  0  0
  178.1130   21.5490   47.3350 O   0  0  0  0  0  0  0  0  0  0  0  0
  179.3450   21.0830   46.9540 C   0  0  0  0  0  0  0  0  0  0  0  0
  179.4680   20.6130   45.6450 C   0  0  0  0  0  0  0  0  0  0  0  0
  180.6950   20.1210   45.1940 C   0  0  0  0  0  0  0  0  0  0  0  0
  181.7980   20.1000   46.0500 C   0  0  0  0  0  0  0  0  0  0  0  0
  181.6730   20.5690   47.3540 C   0  0  0  0  0  0  0  0  0  0  0  0
  182.7920   20.5190   48.1390 O   0  0  0  0  0  0  0  0  0  0  0  0
  180.4450   21.0610   47.8060 C   0  0  0  0  0  0  0  0  0  0  0  0
  180.2710   21.5640   49.1690 C   0  0  0  0  0  0  0  0  0  0  0  0
  181.1910   21.5710   49.9840 O   0  0  0  0  0  0  0  0  0  0  0  0
  178.9310   22.0700   49.5460 C   0  0  0  0  0  0  0  0  0  0  0  0
  178.7730   22.5310   50.8410 O   0  0  0  0  0  0  0  0  0  0  0  0
  176.3530   23.8190   49.3390 C   0  0  0  0  0  0  0  0  0  0  0  0
  175.0590   24.2990   49.6240 C   0  0  0  0  0  0  0  0  0  0  0  0
  174.9070   25.7200   50.0970 C   0  0  0  0  0  0  0  0  0  0  0  0
  171.9664   24.3517   47.8338 H   0  0  0  0  0  0  0  0  0  0  0  0
  170.7021   24.6513   49.2272 H   0  0  0  0  0  0  0  0  0  0  0  0
  173.3259   21.4315   48.9366 H   0  0  0  0  0  0  0  0  0  0  0  0
  175.6179   20.6226   48.4253 H   0  0  0  0  0  0  0  0  0  0  0  0
  178.5998   20.6302   44.9698 H   0  0  0  0  0  0  0  0  0  0  0  0
  180.7925   19.7496   44.1632 H   0  0  0  0  0  0  0  0  0  0  0  0
  182.7643   19.7133   45.6940 H   0  0  0  0  0  0  0  0  0  0  0  0
  183.1180   19.6930   48.4390 H   0  0  0  0  0  0  0  0  0  0  0  0
  179.5070   22.5500   51.4230 H   0  0  0  0  0  0  0  0  0  0  0  0
  177.2139   24.4911   49.4697 H   0  0  0  0  0  0  0  0  0  0  0  0
  174.9046   25.7421   51.1968 H   0  0  0  0  0  0  0  0  0  0  0  0
  175.7457   26.3237   49.7199 H   0  0  0  0  0  0  0  0  0  0  0  0
  173.9596   26.1326   49.7199 H   0  0  0  0  0  0  0  0  0  0  0  0
  1  2  2  0
  2  3  1  0
  2  4  1  0
  4  5  2  0
  5  6  1  0
  6  7  2  0
  7  8  1  0
  8  9  1  0
  9 10  1  0
 10 11  2  0
 11 12  1  0
 12 13  2  0
 13 14  1  0
 14 15  1  0
 14 16  2  0
 16 17  1  0
 17 18  2  0
 17 19  1  0
 19 20  1  0
  7 21  1  0
 21 22  2  0
 22 23  1  0
 22  4  1  0
 19  8  2  0
 16 10  1  0
  1 24  1  0
  1 25  1  0
  5 26  1  0
  6 27  1  0
 11 28  1  0
 12 29  1  0
 13 30  1  0
 15 31  1  0
 20 32  1  0
 21 33  1  0
 23 34  1  0
 23 35  1  0
 23 36  1  0
M  END
>  <meeko>  (3) 
{"is_sidechain": [false], "free_energy": -7.658, "intermolecular_energy": -8.85, "internal_energy": -0.373}

$$$$
cand_015_out
     RDKit          3D

 36 38  0  0  0  0  0  0  0  0999 V2000
  181.1940   19.4510   45.8410 C   0  0  0  0  0  0  0  0  0  0  0  0
  180.1320   20.2300   45.6090 C   0  0  0  0  0  0  0  0  0  0  0  0
  179.8450   20.5390   44.3250 F   0  0  0  0  0  0  0  0  0  0  0  0
  179.2710   20.8050   46.6570 C   0  0  0  0  0  0  0  0  0  0  0  0
  179.7390   21.8860   47.4240 C   0  0  0  0  0  0  0  0  0  0  0  0
  178.9610   22.4410   48.4460 C   0  0  0  0  0  0  0  0  0  0  0  0
  177.6910   21.9320   48.7320 C   0  0  0  0  0  0  0  0  0  0  0  0
  176.8610   22.4790   49.8260 C   0  0  0  0  0  0  0  0  0  0  0  0
  175.7630   23.1950   49.3650 O   0  0  0  0  0  0  0  0  0  0  0  0
  174.9080   23.7580   50.2770 C   0  0  0  0  0  0  0  0  0  0  0  0
  173.8100   24.4560   49.7700 C   0  0  0  0  0  0  0  0  0  0  0  0
  172.9010   25.0560   50.6450 C   0  0  0  0  0  0  0  0  0  0  0  0
  173.0900   24.9590   52.0250 C   0  0  0  0  0  0  0  0  0  0  0  0
  174.1860   24.2620   52.5280 C   0  0  0  0  0  0  0  0  0  0  0  0
  174.3100   24.2050   53.8890 O   0  0  0  0  0  0  0  0  0  0  0  0
  175.0940   23.6610   51.6520 C   0  0  0  0  0  0  0  0  0  0  0  0
  176.2580   22.9190   52.1390 C   0  0  0  0  0  0  0  0  0  0  0  0
  176.4970   22.7950   53.3380 O   0  0  0  0  0  0  0  0  0  0  0  0
  177.1570   22.3150   51.1280 C   0  0  0  0  0  0  0  0  0  0  0  0
  178.2610   21.6280   51.5990 O   0  0  0  0  0  0  0  0  0  0  0  0
  177.2280   20.8420   47.9800 C   0  0  0  0  0  0  0  0  0  0  0  0
  177.9950   20.2770   46.9410 C   0  0  0  0  0  0  0  0  0  0  0  0
  177.4260   19.1080   46.1810 C   0  0  0  0  0  0  0  0  0  0  0  0
  181.4604   19.1771   46.8725 H   0  0  0  0  0  0  0  0  0  0  0  0
  181.8011   19.0841   45.0003 H   0  0  0  0  0  0  0  0  0  0  0  0
  180.7354   22.3034   47.2169 H   0  0  0  0  0  0  0  0  0  0  0  0
  179.3528   23.2866   49.0304 H   0  0  0  0  0  0  0  0  0  0  0  0
  173.6609   24.5334   48.6829 H   0  0  0  0  0  0  0  0  0  0  0  0
  172.0355   25.6054   50.2463 H   0  0  0  0  0  0  0  0  0  0  0  0
  172.3746   25.4322   52.7137 H   0  0  0  0  0  0  0  0  0  0  0  0
  174.0560   23.4300   54.3510 H   0  0  0  0  0  0  0  0  0  0  0  0
  178.9760   22.0960   51.9820 H   0  0  0  0  0  0  0  0  0  0  0  0
  176.2394   20.4166   48.2073 H   0  0  0  0  0  0  0  0  0  0  0  0
  177.0584   18.3528   46.8913 H   0  0  0  0  0  0  0  0  0  0  0  0
  176.5944   19.4517   45.5483 H   0  0  0  0  0  0  0  0  0  0  0  0
  178.2095   18.6656   45.5483 H   0  0  0  0  0  0  0  0  0  0  0  0
  1  2  2  0
  2  3  1  0
  2  4  1  0
  4  5  2  0
  5  6  1  0
  6  7  2  0
  7  8  1  0
  8  9  1  0
  9 10  1  0
 10 11  2  0
 11 12  1  0
 12 13  2  0
 13 14  1  0
 14 15  1  0
 14 16  2  0
 16 17  1  0
 17 18  2  0
 17 19  1  0
 19 20  1  0
  7 21  1  0
 21 22  2  0
 22 23  1  0
 22  4  1  0
 19  8  2  0
 16 10  1  0
  1 24  1  0
  1 25  1  0
  5 26  1  0
  6 27  1  0
 11 28  1  0
 12 29  1  0
 13 30  1  0
 15 31  1  0
 20 32  1  0
 21 33  1  0
 23 34  1  0
 23 35  1  0
 23 36  1  0
M  END
>  <meeko>  (4) 
{"is_sidechain": [false], "free_energy": -7.555, "intermolecular_energy": -8.58, "internal_energy": -0.521}

$$$$
cand_015_out
     RDKit          3D

 36 38  0  0  0  0  0  0  0  0999 V2000
  176.5750   23.7380   48.6590 C   0  0  0  0  0  0  0  0  0  0  0  0
  176.5830   22.4230   48.9000 C   0  0  0  0  0  0  0  0  0  0  0  0
  175.8680   21.9700   49.9540 F   0  0  0  0  0  0  0  0  0  0  0  0
  177.3460   21.4340   48.1190 C   0  0  0  0  0  0  0  0  0  0  0  0
  178.7460   21.3810   48.2440 C   0  0  0  0  0  0  0  0  0  0  0  0
  179.5060   20.4730   47.4980 C   0  0  0  0  0  0  0  0  0  0  0  0
  178.8910   19.5920   46.6050 C   0  0  0  0  0  0  0  0  0  0  0  0
  179.6740   18.6450   45.7820 C   0  0  0  0  0  0  0  0  0  0  0  0
  179.1860   17.3450   45.8430 O   0  0  0  0  0  0  0  0  0  0  0  0
  179.8210   16.3640   45.1260 C   0  0  0  0  0  0  0  0  0  0  0  0
  179.2880   15.0760   45.2050 C   0  0  0  0  0  0  0  0  0  0  0  0
  179.8880   14.0300   44.5000 C   0  0  0  0  0  0  0  0  0  0  0  0
  181.0190   14.2710   43.7170 C   0  0  0  0  0  0  0  0  0  0  0  0
  181.5480   15.5570   43.6400 C   0  0  0  0  0  0  0  0  0  0  0  0
  182.6560   15.7230   42.8550 O   0  0  0  0  0  0  0  0  0  0  0  0
  180.9460   16.6030   44.3450 C   0  0  0  0  0  0  0  0  0  0  0  0
  181.4700   17.9690   44.2910 C   0  0  0  0  0  0  0  0  0  0  0  0
  182.4660   18.2600   43.6310 O   0  0  0  0  0  0  0  0  0  0  0  0
  180.7560   19.0070   45.0700 C   0  0  0  0  0  0  0  0  0  0  0  0
  181.2670   20.2920   45.0230 O   0  0  0  0  0  0  0  0  0  0  0  0
  177.4970   19.6540   46.4640 C   0  0  0  0  0  0  0  0  0  0  0  0
  176.7150   20.5550   47.2140 C   0  0  0  0  0  0  0  0  0  0  0  0
  175.2230   20.5600   47.0050 C   0  0  0  0  0  0  0  0  0  0  0  0
  177.1445   24.1451   47.8106 H   0  0  0  0  0  0  0  0  0  0  0  0
  175.9989   24.4128   49.3092 H   0  0  0  0  0  0  0  0  0  0  0  0
  179.2525   22.0654   48.9405 H   0  0  0  0  0  0  0  0  0  0  0  0
  180.5995   20.4528   47.6160 H   0  0  0  0  0  0  0  0  0  0  0  0
  178.3971   14.8853   45.8214 H   0  0  0  0  0  0  0  0  0  0  0  0
  179.4690   13.0148   44.5617 H   0  0  0  0  0  0  0  0  0  0  0  0
  181.4911   13.4468   43.1622 H   0  0  0  0  0  0  0  0  0  0  0  0
  182.6540   16.3640   42.1720 H   0  0  0  0  0  0  0  0  0  0  0  0
  181.0210   20.9180   45.6750 H   0  0  0  0  0  0  0  0  0  0  0  0
  177.0008   18.9814   45.7489 H   0  0  0  0  0  0  0  0  0  0  0  0
  174.7160   20.5617   47.9812 H   0  0  0  0  0  0  0  0  0  0  0  0
  174.9348   21.4591   46.4406 H   0  0  0  0  0  0  0  0  0  0  0  0
  174.9288   19.6628   46.4406 H   0  0  0  0  0  0  0  0  0  0  0  0
  1  2  2  0
  2  3  1  0
  2  4  1  0
  4  5  2  0
  5  6  1  0
  6  7  2  0
  7  8  1  0
  8  9  1  0
  9 10  1  0
 10 11  2  0
 11 12  1  0
 12 13  2  0
 13 14  1  0
 14 15  1  0
 14 16  2  0
 16 17  1  0
 17 18  2  0
 17 19  1  0
 19 20  1  0
  7 21  1  0
 21 22  2  0
 22 23  1  0
 22  4  1  0
 19  8  2  0
 16 10  1  0
  1 24  1  0
  1 25  1  0
  5 26  1  0
  6 27  1  0
 11 28  1  0
 12 29  1  0
 13 30  1  0
 15 31  1  0
 20 32  1  0
 21 33  1  0
 23 34  1  0
 23 35  1  0
 23 36  1  0
M  END
>  <meeko>  (5) 
{"is_sidechain": [false], "free_energy": -7.549, "intermolecular_energy": -8.78, "internal_energy": -0.314}

$$$$
cand_015_out
     RDKit          3D

 36 38  0  0  0  0  0  0  0  0999 V2000
  185.9520   23.8390   48.7400 C   0  0  0  0  0  0  0  0  0  0  0  0
  185.0260   23.4730   47.8460 C   0  0  0  0  0  0  0  0  0  0  0  0
  185.3750   23.4740   46.5400 F   0  0  0  0  0  0  0  0  0  0  0  0
  183.6400   23.1030   48.1800 C   0  0  0  0  0  0  0  0  0  0  0  0
  183.3750   21.8420   48.7430 C   0  0  0  0  0  0  0  0  0  0  0  0
  182.0680   21.4450   49.0490 C   0  0  0  0  0  0  0  0  0  0  0  0
  180.9880   22.2960   48.8020 C   0  0  0  0  0  0  0  0  0  0  0  0
  179.5960   21.8890   49.0870 C   0  0  0  0  0  0  0  0  0  0  0  0
  178.8870   21.5470   47.9410 O   0  0  0  0  0  0  0  0  0  0  0  0
  177.5800   21.1500   48.0630 C   0  0  0  0  0  0  0  0  0  0  0  0
  176.9110   20.8020   46.8880 C   0  0  0  0  0  0  0  0  0  0  0  0
  175.5770   20.3910   46.9420 C   0  0  0  0  0  0  0  0  0  0  0  0
  174.9130   20.3290   48.1690 C   0  0  0  0  0  0  0  0  0  0  0  0
  175.5830   20.6770   49.3390 C   0  0  0  0  0  0  0  0  0  0  0  0
  174.8730   20.5930   50.5050 O   0  0  0  0  0  0  0  0  0  0  0  0
  176.9180   21.0870   49.2840 C   0  0  0  0  0  0  0  0  0  0  0  0
  177.6580   21.4610   50.4910 C   0  0  0  0  0  0  0  0  0  0  0  0
  177.1410   21.4390   51.6060 O   0  0  0  0  0  0  0  0  0  0  0  0
  179.0700   21.8750   50.3250 C   0  0  0  0  0  0  0  0  0  0  0  0
  179.7570   22.2390   51.4700 O   0  0  0  0  0  0  0  0  0  0  0  0
  181.2470   23.5480   48.2240 C   0  0  0  0  0  0  0  0  0  0  0  0
  182.5570   23.9680   47.9190 C   0  0  0  0  0  0  0  0  0  0  0  0
  182.7510   25.3270   47.3000 C   0  0  0  0  0  0  0  0  0  0  0  0
  185.7068   23.8512   49.8123 H   0  0  0  0  0  0  0  0  0  0  0  0
  186.9584   24.1277   48.4026 H   0  0  0  0  0  0  0  0  0  0  0  0
  184.2098   21.1552   48.9466 H   0  0  0  0  0  0  0  0  0  0  0  0
  181.8895   20.4526   49.4885 H   0  0  0  0  0  0  0  0  0  0  0  0
  177.4335   20.8514   45.9213 H   0  0  0  0  0  0  0  0  0  0  0  0
  175.0490   20.1159   46.0171 H   0  0  0  0  0  0  0  0  0  0  0  0
  173.8624   20.0058   48.2111 H   0  0  0  0  0  0  0  0  0  0  0  0
  175.1110   19.9600   51.1540 H   0  0  0  0  0  0  0  0  0  0  0  0
  180.4200   21.6750   51.8180 H   0  0  0  0  0  0  0  0  0  0  0  0
  180.4046   24.2199   48.0030 H   0  0  0  0  0  0  0  0  0  0  0  0
  182.8585   26.0799   48.0947 H   0  0  0  0  0  0  0  0  0  0  0  0
  183.6573   25.3200   46.6766 H   0  0  0  0  0  0  0  0  0  0  0  0
  181.8790   25.5738   46.6766 H   0  0  0  0  0  0  0  0  0  0  0  0
  1  2  2  0
  2  3  1  0
  2  4  1  0
  4  5  2  0
  5  6  1  0
  6  7  2  0
  7  8  1  0
  8  9  1  0
  9 10  1  0
 10 11  2  0
 11 12  1  0
 12 13  2  0
 13 14  1  0
 14 15  1  0
 14 16  2  0
 16 17  1  0
 17 18  2  0
 17 19  1  0
 19 20  1  0
  7 21  1  0
 21 22  2  0
 22 23  1  0
 22  4  1  0
 19  8  2  0
 16 10  1  0
  1 24  1  0
  1 25  1  0
  5 26  1  0
  6 27  1  0
 11 28  1  0
 12 29  1  0
 13 30  1  0
 15 31  1  0
 20 32  1  0
 21 33  1  0
 23 34  1  0
 23 35  1  0
 23 36  1  0
M  END
>  <meeko>  (6) 
{"is_sidechain": [false], "free_energy": -7.4, "intermolecular_energy": -8.362, "internal_energy": -0.557}

$$$$
cand_015_out
     RDKit          3D

 36 38  0  0  0  0  0  0  0  0999 V2000
  175.3260   19.8730   47.5360 C   0  0  0  0  0  0  0  0  0  0  0  0
  176.0510   20.8060   46.9090 C   0  0  0  0  0  0  0  0  0  0  0  0
  175.4900   21.4380   45.8540 F   0  0  0  0  0  0  0  0  0  0  0  0
  177.4330   21.1700   47.2650 C   0  0  0  0  0  0  0  0  0  0  0  0
  178.4820   20.2810   46.9730 C   0  0  0  0  0  0  0  0  0  0  0  0
  179.8050   20.5800   47.3200 C   0  0  0  0  0  0  0  0  0  0  0  0
  180.1180   21.7760   47.9700 C   0  0  0  0  0  0  0  0  0  0  0  0
  181.5020   22.1030   48.3750 C   0  0  0  0  0  0  0  0  0  0  0  0
  182.2770   22.5730   47.3220 O   0  0  0  0  0  0  0  0  0  0  0  0
  183.5830   22.9140   47.5610 C   0  0  0  0  0  0  0  0  0  0  0  0
  184.3210   23.3950   46.4770 C   0  0  0  0  0  0  0  0  0  0  0  0
  185.6590   23.7580   46.6520 C   0  0  0  0  0  0  0  0  0  0  0  0
  186.2580   23.6400   47.9070 C   0  0  0  0  0  0  0  0  0  0  0  0
  185.5200   23.1590   48.9860 C   0  0  0  0  0  0  0  0  0  0  0  0
  186.1690   23.0680   50.1870 O   0  0  0  0  0  0  0  0  0  0  0  0
  184.1810   22.7970   48.8110 C   0  0  0  0  0  0  0  0  0  0  0  0
  183.3710   22.2880   49.9180 C   0  0  0  0  0  0  0  0  0  0  0  0
  183.8280   22.1470   51.0500 O   0  0  0  0  0  0  0  0  0  0  0  0
  181.9610   21.9380   49.6290 C   0  0  0  0  0  0  0  0  0  0  0  0
  181.2070   21.4460   50.6790 O   0  0  0  0  0  0  0  0  0  0  0  0
  179.0710   22.6580   48.2790 C   0  0  0  0  0  0  0  0  0  0  0  0
  177.7360   22.3770   47.9280 C   0  0  0  0  0  0  0  0  0  0  0  0
  176.6700   23.3750   48.2970 C   0  0  0  0  0  0  0  0  0  0  0  0
  175.7477   19.3366   48.3988 H   0  0  0  0  0  0  0  0  0  0  0  0
  174.3081   19.6421   47.1888 H   0  0  0  0  0  0  0  0  0  0  0  0
  178.2592   19.3326   46.4623 H   0  0  0  0  0  0  0  0  0  0  0  0
  180.6060   19.8659   47.0783 H   0  0  0  0  0  0  0  0  0  0  0  0
  183.8498   23.4879   45.4874 H   0  0  0  0  0  0  0  0  0  0  0  0
  186.2411   24.1374   45.7992 H   0  0  0  0  0  0  0  0  0  0  0  0
  187.3112   23.9264   48.0439 H   0  0  0  0  0  0  0  0  0  0  0  0
  185.7620   23.3960   50.9650 H   0  0  0  0  0  0  0  0  0  0  0  0
  181.1050   21.9520   51.4610 H   0  0  0  0  0  0  0  0  0  0  0  0
  179.2990   23.5942   48.8097 H   0  0  0  0  0  0  0  0  0  0  0  0
  176.5960   23.4443   49.3923 H   0  0  0  0  0  0  0  0  0  0  0  0
  176.9316   24.3604   47.8841 H   0  0  0  0  0  0  0  0  0  0  0  0
  175.7039   23.0491   47.8841 H   0  0  0  0  0  0  0  0  0  0  0  0
  1  2  2  0
  2  3  1  0
  2  4  1  0
  4  5  2  0
  5  6  1  0
  6  7  2  0
  7  8  1  0
  8  9  1  0
  9 10  1  0
 10 11  2  0
 11 12  1  0
 12 13  2  0
 13 14  1  0
 14 15  1  0
 14 16  2  0
 16 17  1  0
 17 18  2  0
 17 19  1  0
 19 20  1  0
  7 21  1  0
 21 22  2  0
 22 23  1  0
 22  4  1  0
 19  8  2  0
 16 10  1  0
  1 24  1  0
  1 25  1  0
  5 26  1  0
  6 27  1  0
 11 28  1  0
 12 29  1  0
 13 30  1  0
 15 31  1  0
 20 32  1  0
 21 33  1  0
 23 34  1  0
 23 35  1  0
 23 36  1  0
M  END
>  <meeko>  (7) 
{"is_sidechain": [false], "free_energy": -7.362, "intermolecular_energy": -8.309, "internal_energy": -0.565}

$$$$
cand_015_out
     RDKit          3D

 36 38  0  0  0  0  0  0  0  0999 V2000
  175.6080   18.9090   47.2780 C   0  0  0  0  0  0  0  0  0  0  0  0
  175.9880   20.1900   47.2380 C   0  0  0  0  0  0  0  0  0  0  0  0
  175.2510   21.0440   46.4920 F   0  0  0  0  0  0  0  0  0  0  0  0
  177.1740   20.7330   47.9220 C   0  0  0  0  0  0  0  0  0  0  0  0
  177.0690   21.1680   49.2540 C   0  0  0  0  0  0  0  0  0  0  0  0
  178.1670   21.7150   49.9280 C   0  0  0  0  0  0  0  0  0  0  0  0
  179.4030   21.8430   49.2900 C   0  0  0  0  0  0  0  0  0  0  0  0
  180.5710   22.4440   49.9680 C   0  0  0  0  0  0  0  0  0  0  0  0
  180.4030   23.7990   50.2330 O   0  0  0  0  0  0  0  0  0  0  0  0
  181.4140   24.4810   50.8610 C   0  0  0  0  0  0  0  0  0  0  0  0
  181.1970   25.8360   51.1200 C   0  0  0  0  0  0  0  0  0  0  0  0
  182.1870   26.5900   51.7550 C   0  0  0  0  0  0  0  0  0  0  0  0
  183.3910   25.9920   52.1290 C   0  0  0  0  0  0  0  0  0  0  0  0
  183.6050   24.6410   51.8680 C   0  0  0  0  0  0  0  0  0  0  0  0
  184.8060   24.1180   52.2610 O   0  0  0  0  0  0  0  0  0  0  0  0
  182.6140   23.8860   51.2340 C   0  0  0  0  0  0  0  0  0  0  0  0
  182.7980   22.4630   50.9430 C   0  0  0  0  0  0  0  0  0  0  0  0
  183.8320   21.8670   51.2330 O   0  0  0  0  0  0  0  0  0  0  0  0
  181.6840   21.7530   50.2730 C   0  0  0  0  0  0  0  0  0  0  0  0
  181.8730   20.4120   49.9900 O   0  0  0  0  0  0  0  0  0  0  0  0
  179.5080   21.4260   47.9540 C   0  0  0  0  0  0  0  0  0  0  0  0
  178.4150   20.8640   47.2640 C   0  0  0  0  0  0  0  0  0  0  0  0
  178.6090   20.4420   45.8320 C   0  0  0  0  0  0  0  0  0  0  0  0
  176.1815   18.1835   47.8736 H   0  0  0  0  0  0  0  0  0  0  0  0
  174.7218   18.5804   46.7153 H   0  0  0  0  0  0  0  0  0  0  0  0
  176.1056   21.0769   49.7770 H   0  0  0  0  0  0  0  0  0  0  0  0
  178.0555   22.0474   50.9706 H   0  0  0  0  0  0  0  0  0  0  0  0
  180.2486   26.3086   50.8247 H   0  0  0  0  0  0  0  0  0  0  0  0
  182.0170   27.6572   51.9606 H   0  0  0  0  0  0  0  0  0  0  0  0
  184.1696   26.5867   52.6291 H   0  0  0  0  0  0  0  0  0  0  0  0
  185.4970   24.6870   52.5390 H   0  0  0  0  0  0  0  0  0  0  0  0
  181.1750   19.8010   50.1260 H   0  0  0  0  0  0  0  0  0  0  0  0
  180.4691   21.5409   47.4314 H   0  0  0  0  0  0  0  0  0  0  0  0
  179.0683   19.4429   45.8032 H   0  0  0  0  0  0  0  0  0  0  0  0
  177.6342   20.4122   45.3232 H   0  0  0  0  0  0  0  0  0  0  0  0
  179.2663   21.1625   45.3232 H   0  0  0  0  0  0  0  0  0  0  0  0
  1  2  2  0
  2  3  1  0
  2  4  1  0
  4  5  2  0
  5  6  1  0
  6  7  2  0
  7  8  1  0
  8  9  1  0
  9 10  1  0
 10 11  2  0
 11 12  1  0
 12 13  2  0
 13 14  1  0
 14 15  1  0
 14 16  2  0
 16 17  1  0
 17 18  2  0
 17 19  1  0
 19 20  1  0
  7 21  1  0
 21 22  2  0
 22 23  1  0
 22  4  1  0
 19  8  2  0
 16 10  1  0
  1 24  1  0
  1 25  1  0
  5 26  1  0
  6 27  1  0
 11 28  1  0
 12 29  1  0
 13 30  1  0
 15 31  1  0
 20 32  1  0
 21 33  1  0
 23 34  1  0
 23 35  1  0
 23 36  1  0
M  END
>  <meeko>  (8) 
{"is_sidechain": [false], "free_energy": -7.211, "intermolecular_energy": -8.221, "internal_energy": -0.476}

$$$$
cand_015_out
     RDKit          3D

 36 38  0  0  0  0  0  0  0  0999 V2000
  172.7330   26.4280   51.8840 C   0  0  0  0  0  0  0  0  0  0  0  0
  172.4960   25.1290   51.6710 C   0  0  0  0  0  0  0  0  0  0  0  0
  171.3910   24.5880   52.2300 F   0  0  0  0  0  0  0  0  0  0  0  0
  173.3750   24.2360   50.8960 C   0  0  0  0  0  0  0  0  0  0  0  0
  174.5780   23.7820   51.4650 C   0  0  0  0  0  0  0  0  0  0  0  0
  175.4510   22.9530   50.7500 C   0  0  0  0  0  0  0  0  0  0  0  0
  175.1480   22.5540   49.4460 C   0  0  0  0  0  0  0  0  0  0  0  0
  176.0660   21.7060   48.6580 C   0  0  0  0  0  0  0  0  0  0  0  0
  177.3430   22.2450   48.5510 O   0  0  0  0  0  0  0  0  0  0  0  0
  178.2960   21.5580   47.8440 C   0  0  0  0  0  0  0  0  0  0  0  0
  179.5680   22.1300   47.7740 C   0  0  0  0  0  0  0  0  0  0  0  0
  180.5850   21.4830   47.0680 C   0  0  0  0  0  0  0  0  0  0  0  0
  180.3300   20.2660   46.4320 C   0  0  0  0  0  0  0  0  0  0  0  0
  179.0610   19.6980   46.5040 C   0  0  0  0  0  0  0  0  0  0  0  0
  178.8800   18.5050   45.8580 O   0  0  0  0  0  0  0  0  0  0  0  0
  178.0440   20.3460   47.2110 C   0  0  0  0  0  0  0  0  0  0  0  0
  176.6960   19.7830   47.3110 C   0  0  0  0  0  0  0  0  0  0  0  0
  176.3920   18.7200   46.7730 O   0  0  0  0  0  0  0  0  0  0  0  0
  175.6930   20.5450   48.0890 C   0  0  0  0  0  0  0  0  0  0  0  0
  174.4190   20.0110   48.1670 O   0  0  0  0  0  0  0  0  0  0  0  0
  173.9560   23.0200   48.8690 C   0  0  0  0  0  0  0  0  0  0  0  0
  173.0620   23.8460   49.5780 C   0  0  0  0  0  0  0  0  0  0  0  0
  171.8040   24.3030   48.8870 C   0  0  0  0  0  0  0  0  0  0  0  0
  173.6225   26.9039   51.4454 H   0  0  0  0  0  0  0  0  0  0  0  0
  172.0385   27.0204   52.4977 H   0  0  0  0  0  0  0  0  0  0  0  0
  174.8380   24.0836   52.4904 H   0  0  0  0  0  0  0  0  0  0  0  0
  176.3853   22.6123   51.2201 H   0  0  0  0  0  0  0  0  0  0  0  0
  179.7689   23.0889   48.2742 H   0  0  0  0  0  0  0  0  0  0  0  0
  181.5875   21.9324   47.0129 H   0  0  0  0  0  0  0  0  0  0  0  0
  181.1305   19.7571   45.8751 H   0  0  0  0  0  0  0  0  0  0  0  0
  179.3830   18.3050   45.0940 H   0  0  0  0  0  0  0  0  0  0  0  0
  173.9590   20.0120   48.9830 H   0  0  0  0  0  0  0  0  0  0  0  0
  173.7136   22.7323   47.8353 H   0  0  0  0  0  0  0  0  0  0  0  0
  171.0506   24.5767   49.6403 H   0  0  0  0  0  0  0  0  0  0  0  0
  172.0280   25.1772   48.2580 H   0  0  0  0  0  0  0  0  0  0  0  0
  171.4147   23.4889   48.2580 H   0  0  0  0  0  0  0  0  0  0  0  0
  1  2  2  0
  2  3  1  0
  2  4  1  0
  4  5  2  0
  5  6  1  0
  6  7  2  0
  7  8  1  0
  8  9  1  0
  9 10  1  0
 10 11  2  0
 11 12  1  0
 12 13  2  0
 13 14  1  0
 14 15  1  0
 14 16  2  0
 16 17  1  0
 17 18  2  0
 17 19  1  0
 19 20  1  0
  7 21  1  0
 21 22  2  0
 22 23  1  0
 22  4  1  0
 19  8  2  0
 16 10  1  0
  1 24  1  0
  1 25  1  0
  5 26  1  0
  6 27  1  0
 11 28  1  0
 12 29  1  0
 13 30  1  0
 15 31  1  0
 20 32  1  0
 21 33  1  0
 23 34  1  0
 23 35  1  0
 23 36  1  0
M  END
>  <meeko>  (9) 
{"is_sidechain": [false], "free_energy": -7.098, "intermolecular_energy": -8.18, "internal_energy": -0.383}

$$$$
