cand_010_out
     RDKit          3D

 35 37  0  0  0  0  0  0  0  0999 V2000
  180.7750   22.2340   48.3730 O   0  0  0  0  0  0  0  0  0  0  0  0
  180.0940   21.4470   47.7170 C   0  0  0  0  0  0  0  0  0  0  0  0
  180.7410   20.4040   46.8890 C   0  0  0  0  0  0  0  0  0  0  0  0
  182.1230   20.3540   46.9040 O   0  0  0  0  0  0  0  0  0  0  0  0
  179.9590   19.5610   46.1910 C   0  0  0  0  0  0  0  0  0  0  0  0
  180.4950   18.4760   45.3410 C   0  0  0  0  0  0  0  0  0  0  0  0
  181.4510   18.7210   44.3510 C   0  0  0  0  0  0  0  0  0  0  0  0
  181.9250   17.6850   43.5410 C   0  0  0  0  0  0  0  0  0  0  0  0
  181.4480   16.3750   43.6930 C   0  0  0  0  0  0  0  0  0  0  0  0
  181.9910   15.2810   42.8030 C   0  0  0  0  0  0  0  0  0  0  0  0
  181.3200   15.1650   41.6200 F   0  0  0  0  0  0  0  0  0  0  0  0
  180.4800   16.1090   44.6870 C   0  0  0  0  0  0  0  0  0  0  0  0
  179.9290   14.7160   44.8930 C   0  0  0  0  0  0  0  0  0  0  0  0
  179.5600   14.0920   43.7400 F   0  0  0  0  0  0  0  0  0  0  0  0
  180.8280   13.8880   45.4930 F   0  0  0  0  0  0  0  0  0  0  0  0
  178.8260   14.7060   45.6910 F   0  0  0  0  0  0  0  0  0  0  0  0
  180.0120   17.1680   45.4920 C   0  0  0  0  0  0  0  0  0  0  0  0
  178.5690   19.5990   46.2060 O   0  0  0  0  0  0  0  0  0  0  0  0
  177.9420   20.5600   46.9560 C   0  0  0  0  0  0  0  0  0  0  0  0
  176.5470   20.5710   46.9310 C   0  0  0  0  0  0  0  0  0  0  0  0
  175.8450   21.5230   47.6750 C   0  0  0  0  0  0  0  0  0  0  0  0
  176.5370   22.4620   48.4420 C   0  0  0  0  0  0  0  0  0  0  0  0
  177.9290   22.4490   48.4650 C   0  0  0  0  0  0  0  0  0  0  0  0
  178.5440   23.3960   49.2380 O   0  0  0  0  0  0  0  0  0  0  0  0
  178.6320   21.4970   47.7210 C   0  0  0  0  0  0  0  0  0  0  0  0
  182.5660   19.5580   46.6810 H   0  0  0  0  0  0  0  0  0  0  0  0
  181.8351   19.7417   44.2076 H   0  0  0  0  0  0  0  0  0  0  0  0
  182.6829   17.9004   42.7734 H   0  0  0  0  0  0  0  0  0  0  0  0
  183.0469   15.4996   42.5856 H   0  0  0  0  0  0  0  0  0  0  0  0
  181.8673   14.3304   43.3425 H   0  0  0  0  0  0  0  0  0  0  0  0
  179.2491   16.9631   46.2575 H   0  0  0  0  0  0  0  0  0  0  0  0
  176.0008   19.8317   46.3268 H   0  0  0  0  0  0  0  0  0  0  0  0
  174.7452   21.5325   47.6563 H   0  0  0  0  0  0  0  0  0  0  0  0
  175.9833   23.2110   49.0273 H   0  0  0  0  0  0  0  0  0  0  0  0
  178.2000   24.2660   49.2730 H   0  0  0  0  0  0  0  0  0  0  0  0
  1  2  2  0
  2  3  1  0
  3  4  1  0
  3  5  2  0
  5  6  1  0
  6  7  2  0
  7  8  1  0
  8  9  2  0
  9 10  1  0
 10 11  1  0
  9 12  1  0
 12 13  1  0
 13 14  1  0
 13 15  1  0
 13 16  1  0
 12 17  2  0
  5 18  1  0
 18 19  1  0
 19 20  2  0
 20 21  1  0
 21 22  2  0
 22 23  1  0
 23 24  1  0
 23 25  2  0
 25  2  1  0
 17  6  1  0
 25 19  1  0
  4 26  1  0
  7 27  1  0
  8 28  1  0
 10 29  1  0
 10 30  1  0
 17 31  1  0
 20 32  1  0
 21 33  1  0
 22 34  1  0
 24 35  1  0
M  END
>  <meeko>  (1) 
{"is_sidechain": [false], "free_energy": -8.824, "intermolecular_energy": -10.887, "internal_energy": -0.263}

$$$$
cand_010_out
     RDKit          3D

 35 37  0  0  0  0  0  0  0  0999 V2000
  182.5290   18.2990   43.6630 O   0  0  0  0  0  0  0  0  0  0  0  0
  181.5260   18.0050   44.3120 C   0  0  0  0  0  0  0  0  0  0  0  0
  180.8260   19.0310   45.1180 C   0  0  0  0  0  0  0  0  0  0  0  0
  181.3410   20.3140   45.0920 O   0  0  0  0  0  0  0  0  0  0  0  0
  179.7300   18.6670   45.8100 C   0  0  0  0  0  0  0  0  0  0  0  0
  178.9470   19.6090   46.6380 C   0  0  0  0  0  0  0  0  0  0  0  0
  179.5600   20.6300   47.3700 C   0  0  0  0  0  0  0  0  0  0  0  0
  178.8030   21.4930   48.1670 C   0  0  0  0  0  0  0  0  0  0  0  0
  177.4110   21.3520   48.2620 C   0  0  0  0  0  0  0  0  0  0  0  0
  176.6270   22.3100   49.1290 C   0  0  0  0  0  0  0  0  0  0  0  0
  176.2780   23.4600   48.4840 F   0  0  0  0  0  0  0  0  0  0  0  0
  176.7740   20.3240   47.5320 C   0  0  0  0  0  0  0  0  0  0  0  0
  175.2770   20.1240   47.5990 C   0  0  0  0  0  0  0  0  0  0  0  0
  174.7990   19.9520   48.8630 F   0  0  0  0  0  0  0  0  0  0  0  0
  174.5910   21.1800   47.0820 F   0  0  0  0  0  0  0  0  0  0  0  0
  174.8660   19.0330   46.8940 F   0  0  0  0  0  0  0  0  0  0  0  0
  177.5560   19.4610   46.7350 C   0  0  0  0  0  0  0  0  0  0  0  0
  179.2020   17.3810   45.8060 O   0  0  0  0  0  0  0  0  0  0  0  0
  179.8340   16.4080   45.0760 C   0  0  0  0  0  0  0  0  0  0  0  0
  179.2780   15.1280   45.1130 C   0  0  0  0  0  0  0  0  0  0  0  0
  179.8710   14.0910   44.3900 C   0  0  0  0  0  0  0  0  0  0  0  0
  181.0190   14.3320   43.6320 C   0  0  0  0  0  0  0  0  0  0  0  0
  181.5720   15.6100   43.5980 C   0  0  0  0  0  0  0  0  0  0  0  0
  182.6950   15.7770   42.8350 O   0  0  0  0  0  0  0  0  0  0  0  0
  180.9780   16.6480   44.3210 C   0  0  0  0  0  0  0  0  0  0  0  0
  180.7730   21.0500   45.2150 H   0  0  0  0  0  0  0  0  0  0  0  0
  180.6516   20.7557   47.3181 H   0  0  0  0  0  0  0  0  0  0  0  0
  179.3062   22.2944   48.7278 H   0  0  0  0  0  0  0  0  0  0  0  0
  175.7089   21.8056   49.4645 H   0  0  0  0  0  0  0  0  0  0  0  0
  177.2761   22.5930   49.9708 H   0  0  0  0  0  0  0  0  0  0  0  0
  177.0622   18.6524   46.1761 H   0  0  0  0  0  0  0  0  0  0  0  0
  178.3745   14.9367   45.7106 H   0  0  0  0  0  0  0  0  0  0  0  0
  179.4331   13.0823   44.4175 H   0  0  0  0  0  0  0  0  0  0  0  0
  181.4855   13.5143   43.0630 H   0  0  0  0  0  0  0  0  0  0  0  0
  182.6180   15.8840   41.9070 H   0  0  0  0  0  0  0  0  0  0  0  0
  1  2  2  0
  2  3  1  0
  3  4  1  0
  3  5  2  0
  5  6  1  0
  6  7  2  0
  7  8  1  0
  8  9  2  0
  9 10  1  0
 10 11  1  0
  9 12  1  0
 12 13  1  0
 13 14  1  0
 13 15  1  0
 13 16  1  0
 12 17  2  0
  5 18  1  0
 18 19  1  0
 19 20  2  0
 20 21  1  0
 21 22  2  0
 22 23  1  0
 23 24  1  0
 23 25  2  0
 25  2  1  0
 17  6  1  0
 25 19  1  0
  4 26  1  0
  7 27  1  0
  8 28  1  0
 10 29  1  0
 10 30  1  0
 17 31  1  0
 20 32  1  0
 21 33  1  0
 22 34  1  0
 24 35  1  0
M  END
>  <meeko>  (2) 
{"is_sidechain": [false], "free_energy": -7.948, "intermolecular_energy": -9.937, "internal_energy": -0.132}

$$$$
cand_010_out
     RDKit          3D

 35 37  0  0  0  0  0  0  0  0999 V2000
  175.5130   19.7890   47.5780 O   0  0  0  0  0  0  0  0  0  0  0  0
  176.6680   20.0520   47.2450 C   0  0  0  0  0  0  0  0  0  0  0  0
  177.4870   19.0520   46.5210 C   0  0  0  0  0  0  0  0  0  0  0  0
  176.8910   17.8380   46.2320 O   0  0  0  0  0  0  0  0  0  0  0  0
  178.7440   19.3820   46.1730 C   0  0  0  0  0  0  0  0  0  0  0  0
  179.6460   18.4690   45.4400 C   0  0  0  0  0  0  0  0  0  0  0  0
  180.6860   18.9490   44.6370 C   0  0  0  0  0  0  0  0  0  0  0  0
  181.5110   18.0680   43.9320 C   0  0  0  0  0  0  0  0  0  0  0  0
  181.3110   16.6810   44.0010 C   0  0  0  0  0  0  0  0  0  0  0  0
  182.2290   15.7620   43.2290 C   0  0  0  0  0  0  0  0  0  0  0  0
  181.7490   15.4320   41.9950 F   0  0  0  0  0  0  0  0  0  0  0  0
  180.2640   16.1780   44.8050 C   0  0  0  0  0  0  0  0  0  0  0  0
  180.0020   14.6930   44.9150 C   0  0  0  0  0  0  0  0  0  0  0  0
  181.0430   13.9860   45.4360 F   0  0  0  0  0  0  0  0  0  0  0  0
  178.9300   14.4150   45.7060 F   0  0  0  0  0  0  0  0  0  0  0  0
  179.7320   14.1220   43.7090 F   0  0  0  0  0  0  0  0  0  0  0  0
  179.4410   17.0830   45.5070 C   0  0  0  0  0  0  0  0  0  0  0  0
  179.3250   20.6160   46.4410 O   0  0  0  0  0  0  0  0  0  0  0  0
  178.5940   21.5590   47.1180 C   0  0  0  0  0  0  0  0  0  0  0  0
  179.2210   22.7780   47.3780 C   0  0  0  0  0  0  0  0  0  0  0  0
  178.5320   23.7830   48.0620 C   0  0  0  0  0  0  0  0  0  0  0  0
  177.2190   23.5680   48.4860 C   0  0  0  0  0  0  0  0  0  0  0  0
  176.5960   22.3500   48.2250 C   0  0  0  0  0  0  0  0  0  0  0  0
  175.3090   22.2070   48.6660 O   0  0  0  0  0  0  0  0  0  0  0  0
  177.2850   21.3450   47.5400 C   0  0  0  0  0  0  0  0  0  0  0  0
  176.2080   17.5080   46.7840 H   0  0  0  0  0  0  0  0  0  0  0  0
  180.8566   20.0329   44.5594 H   0  0  0  0  0  0  0  0  0  0  0  0
  182.3287   18.4678   43.3143 H   0  0  0  0  0  0  0  0  0  0  0  0
  183.2000   16.2634   43.1034 H   0  0  0  0  0  0  0  0  0  0  0  0
  182.3159   14.8290   43.8051 H   0  0  0  0  0  0  0  0  0  0  0  0
  178.6175   16.6920   46.1226 H   0  0  0  0  0  0  0  0  0  0  0  0
  180.2556   22.9476   47.0452 H   0  0  0  0  0  0  0  0  0  0  0  0
  179.0247   24.7450   48.2668 H   0  0  0  0  0  0  0  0  0  0  0  0
  176.6776   24.3593   49.0252 H   0  0  0  0  0  0  0  0  0  0  0  0
  174.5940   22.3810   48.0860 H   0  0  0  0  0  0  0  0  0  0  0  0
  1  2  2  0
  2  3  1  0
  3  4  1  0
  3  5  2  0
  5  6  1  0
  6  7  2  0
  7  8  1  0
  8  9  2  0
  9 10  1  0
 10 11  1  0
  9 12  1  0
 12 13  1  0
 13 14  1  0
 13 15  1  0
 13 16  1  0
 12 17  2  0
  5 18  1  0
 18 19  1  0
 19 20  2  0
 20 21  1  0
 21 22  2  0
 22 23  1  0
 23 24  1  0
 23 25  2  0
 25  2  1  0
 17  6  1  0
 25 19  1  0
  4 26  1  0
  7 27  1  0
  8 28  1  0
 10 29  1  0
 10 30  1  0
 17 31  1  0
 20 32  1  0
 21 33  1  0
 22 34  1  0
 24 35  1  0
M  END
>  <meeko>  (3) 
{"is_sidechain": [false], "free_energy": -7.23, "intermolecular_energy": -9.247, "internal_energy": 0.063}

$$$$
cand_010_out
     RDKit          3D

 35 37  0  0  0  0  0  0  0  0999 V2000
  182.3080   18.4890   43.8550 O   0  0  0  0  0  0  0  0  0  0  0  0
  181.2850   18.1290   44.4350 C   0  0  0  0  0  0  0  0  0  0  0  0
  180.4330   19.1160   45.1380 C   0  0  0  0  0  0  0  0  0  0  0  0
  180.8340   20.4390   45.0960 O   0  0  0  0  0  0  0  0  0  0  0  0
  179.3210   18.6790   45.7570 C   0  0  0  0  0  0  0  0  0  0  0  0
  178.3920   19.5760   46.4790 C   0  0  0  0  0  0  0  0  0  0  0  0
  177.1310   19.1440   46.9010 C   0  0  0  0  0  0  0  0  0  0  0  0
  176.2590   20.0150   47.5590 C   0  0  0  0  0  0  0  0  0  0  0  0
  176.6210   21.3480   47.8050 C   0  0  0  0  0  0  0  0  0  0  0  0
  175.6520   22.2580   48.5250 C   0  0  0  0  0  0  0  0  0  0  0  0
  174.3450   21.9790   48.2510 F   0  0  0  0  0  0  0  0  0  0  0  0
  177.8900   21.8030   47.3830 C   0  0  0  0  0  0  0  0  0  0  0  0
  178.3310   23.2300   47.6190 C   0  0  0  0  0  0  0  0  0  0  0  0
  177.4360   24.1630   47.1900 F   0  0  0  0  0  0  0  0  0  0  0  0
  178.5410   23.4940   48.9380 F   0  0  0  0  0  0  0  0  0  0  0  0
  179.5030   23.5230   46.9910 F   0  0  0  0  0  0  0  0  0  0  0  0
  178.7550   20.9100   46.7180 C   0  0  0  0  0  0  0  0  0  0  0  0
  178.9100   17.3520   45.7700 O   0  0  0  0  0  0  0  0  0  0  0  0
  179.6830   16.4130   45.1350 C   0  0  0  0  0  0  0  0  0  0  0  0
  179.2410   15.0910   45.1840 C   0  0  0  0  0  0  0  0  0  0  0  0
  179.9800   14.0860   44.5560 C   0  0  0  0  0  0  0  0  0  0  0  0
  181.1600   14.4030   43.8810 C   0  0  0  0  0  0  0  0  0  0  0  0
  181.5990   15.7230   43.8340 C   0  0  0  0  0  0  0  0  0  0  0  0
  182.7620   15.9640   43.1540 O   0  0  0  0  0  0  0  0  0  0  0  0
  180.8590   16.7290   44.4610 C   0  0  0  0  0  0  0  0  0  0  0  0
  181.7330   20.6510   44.9360 H   0  0  0  0  0  0  0  0  0  0  0  0
  176.8216   18.1054   46.7126 H   0  0  0  0  0  0  0  0  0  0  0  0
  175.2749   19.6506   47.8888 H   0  0  0  0  0  0  0  0  0  0  0  0
  175.8121   22.1517   49.6081 H   0  0  0  0  0  0  0  0  0  0  0  0
  175.8466   23.2829   48.1760 H   0  0  0  0  0  0  0  0  0  0  0  0
  179.7382   21.2678   46.3784 H   0  0  0  0  0  0  0  0  0  0  0  0
  178.3117   14.8403   45.7165 H   0  0  0  0  0  0  0  0  0  0  0  0
  179.6317   13.0433   44.5933 H   0  0  0  0  0  0  0  0  0  0  0  0
  181.7420   13.6109   43.3871 H   0  0  0  0  0  0  0  0  0  0  0  0
  182.7340   16.3520   42.3010 H   0  0  0  0  0  0  0  0  0  0  0  0
  1  2  2  0
  2  3  1  0
  3  4  1  0
  3  5  2  0
  5  6  1  0
  6  7  2  0
  7  8  1  0
  8  9  2  0
  9 10  1  0
 10 11  1  0
  9 12  1  0
 12 13  1  0
 13 14  1  0
 13 15  1  0
 13 16  1  0
 12 17  2  0
  5 18  1  0
 18 19  1  0
 19 20  2  0
 20 21  1  0
 21 22  2  0
 22 23  1  0
 23 24  1  0
 23 25  2  0
 25  2  1  0
 17  6  1  0
 25 19  1  0
  4 26  1  0
  7 27  1  0
  8 28  1  0
 10 29  1  0
 10 30  1  0
 17 31  1  0
 20 32  1  0
 21 33  1  0
 22 34  1  0
 24 35  1  0
M  END
>  <meeko>  (4) 
{"is_sidechain": [false], "free_energy": -7.029, "intermolecular_energy": -9.226, "internal_energy": 0.29}

$$$$
cand_010_out
     RDKit          3D

 35 37  0  0  0  0  0  0  0  0999 V2000
  181.5990   21.5620   46.7020 O   0  0  0  0  0  0  0  0  0  0  0  0
  180.7670   20.6770   46.5130 C   0  0  0  0  0  0  0  0  0  0  0  0
  181.0920   19.5110   45.6600 C   0  0  0  0  0  0  0  0  0  0  0  0
  182.3600   19.4650   45.1100 O   0  0  0  0  0  0  0  0  0  0  0  0
  180.1530   18.5630   45.4830 C   0  0  0  0  0  0  0  0  0  0  0  0
  180.3710   17.3520   44.6620 C   0  0  0  0  0  0  0  0  0  0  0  0
  180.4020   16.0750   45.2290 C   0  0  0  0  0  0  0  0  0  0  0  0
  180.6360   14.9460   44.4380 C   0  0  0  0  0  0  0  0  0  0  0  0
  180.8550   15.0660   43.0570 C   0  0  0  0  0  0  0  0  0  0  0  0
  181.0970   13.8210   42.2360 C   0  0  0  0  0  0  0  0  0  0  0  0
  182.3640   13.7420   41.7350 F   0  0  0  0  0  0  0  0  0  0  0  0
  180.8290   16.3490   42.4680 C   0  0  0  0  0  0  0  0  0  0  0  0
  181.0620   16.5370   40.9860 C   0  0  0  0  0  0  0  0  0  0  0  0
  181.0950   17.8410   40.5930 F   0  0  0  0  0  0  0  0  0  0  0  0
  182.2410   15.9940   40.5750 F   0  0  0  0  0  0  0  0  0  0  0  0
  180.0970   15.9450   40.2290 F   0  0  0  0  0  0  0  0  0  0  0  0
  180.5950   17.4760   43.2830 C   0  0  0  0  0  0  0  0  0  0  0  0
  178.8910   18.6020   46.0640 O   0  0  0  0  0  0  0  0  0  0  0  0
  178.5580   19.6740   46.8520 C   0  0  0  0  0  0  0  0  0  0  0  0
  177.2770   19.6800   47.4040 C   0  0  0  0  0  0  0  0  0  0  0  0
  176.8740   20.7420   48.2180 C   0  0  0  0  0  0  0  0  0  0  0  0
  177.7520   21.7950   48.4790 C   0  0  0  0  0  0  0  0  0  0  0  0
  179.0300   21.7870   47.9270 C   0  0  0  0  0  0  0  0  0  0  0  0
  179.8390   22.8500   48.2250 O   0  0  0  0  0  0  0  0  0  0  0  0
  179.4330   20.7250   47.1130 C   0  0  0  0  0  0  0  0  0  0  0  0
  182.4670   19.2930   44.1940 H   0  0  0  0  0  0  0  0  0  0  0  0
  180.2403   15.9567   46.3106 H   0  0  0  0  0  0  0  0  0  0  0  0
  180.6486   13.9500   44.9046 H   0  0  0  0  0  0  0  0  0  0  0  0
  180.9183   12.9424   42.8733 H   0  0  0  0  0  0  0  0  0  0  0  0
  180.4094   13.8579   41.3782 H   0  0  0  0  0  0  0  0  0  0  0  0
  180.5880   18.4766   42.8260 H   0  0  0  0  0  0  0  0  0  0  0  0
  176.5850   18.8499   47.1988 H   0  0  0  0  0  0  0  0  0  0  0  0
  175.8639   20.7480   48.6534 H   0  0  0  0  0  0  0  0  0  0  0  0
  177.4345   22.6305   49.1203 H   0  0  0  0  0  0  0  0  0  0  0  0
  179.6350   23.4040   48.9530 H   0  0  0  0  0  0  0  0  0  0  0  0
  1  2  2  0
  2  3  1  0
  3  4  1  0
  3  5  2  0
  5  6  1  0
  6  7  2  0
  7  8  1  0
  8  9  2  0
  9 10  1  0
 10 11  1  0
  9 12  1  0
 12 13  1  0
 13 14  1  0
 13 15  1  0
 13 16  1  0
 12 17  2  0
  5 18  1  0
 18 19  1  0
 19 20  2  0
 20 21  1  0
 21 22  2  0
 22 23  1  0
 23 24  1  0
 23 25  2  0
 25  2  1  0
 17  6  1  0
 25 19  1  0
  4 26  1  0
  7 27  1  0
  8 28  1  0
 10 29  1  0
 10 30  1  0
 17 31  1  0
 20 32  1  0
 21 33  1  0
 22 34  1  0
 24 35  1  0
M  END
>  <meeko>  (5) 
{"is_sidechain": [false], "free_energy": -6.078, "intermolecular_energy": -7.612, "internal_energy": -0.15}

$$$$
cand_010_out
     RDKit          3D

 35 37  0  0  0  0  0  0  0  0999 V2000
  181.0110   21.9930   48.3520 O   0  0  0  0  0  0  0  0  0  0  0  0
  180.1260   21.3400   47.8000 C   0  0  0  0  0  0  0  0  0  0  0  0
  180.4520   20.0780   47.0970 C   0  0  0  0  0  0  0  0  0  0  0  0
  181.7740   19.6730   47.1060 O   0  0  0  0  0  0  0  0  0  0  0  0
  179.4520   19.3940   46.5090 C   0  0  0  0  0  0  0  0  0  0  0  0
  179.6590   18.1190   45.7900 C   0  0  0  0  0  0  0  0  0  0  0  0
  178.8990   16.9810   46.0770 C   0  0  0  0  0  0  0  0  0  0  0  0
  179.1290   15.7780   45.4040 C   0  0  0  0  0  0  0  0  0  0  0  0
  180.1340   15.6770   44.4300 C   0  0  0  0  0  0  0  0  0  0  0  0
  180.3470   14.3610   43.7190 C   0  0  0  0  0  0  0  0  0  0  0  0
  180.0490   14.4120   42.3880 F   0  0  0  0  0  0  0  0  0  0  0  0
  180.9140   16.8160   44.1280 C   0  0  0  0  0  0  0  0  0  0  0  0
  182.0110   16.7640   43.0900 C   0  0  0  0  0  0  0  0  0  0  0  0
  181.5640   16.8690   41.8080 F   0  0  0  0  0  0  0  0  0  0  0  0
  182.9210   17.7650   43.2500 F   0  0  0  0  0  0  0  0  0  0  0  0
  182.7230   15.6050   43.1430 F   0  0  0  0  0  0  0  0  0  0  0  0
  180.6690   18.0200   44.8210 C   0  0  0  0  0  0  0  0  0  0  0  0
  178.1210   19.7940   46.5300 O   0  0  0  0  0  0  0  0  0  0  0  0
  177.7910   20.9630   47.1660 C   0  0  0  0  0  0  0  0  0  0  0  0
  176.4460   21.3340   47.1500 C   0  0  0  0  0  0  0  0  0  0  0  0
  176.0410   22.5120   47.7810 C   0  0  0  0  0  0  0  0  0  0  0  0
  176.9800   23.3190   48.4260 C   0  0  0  0  0  0  0  0  0  0  0  0
  178.3220   22.9480   48.4390 C   0  0  0  0  0  0  0  0  0  0  0  0
  179.1880   23.7830   49.0900 O   0  0  0  0  0  0  0  0  0  0  0  0
  178.7270   21.7680   47.8090 C   0  0  0  0  0  0  0  0  0  0  0  0
  182.4100   20.1630   47.5900 H   0  0  0  0  0  0  0  0  0  0  0  0
  178.1103   17.0333   46.8420 H   0  0  0  0  0  0  0  0  0  0  0  0
  178.5134   14.8978   45.6412 H   0  0  0  0  0  0  0  0  0  0  0  0
  181.4024   14.0712   43.8296 H   0  0  0  0  0  0  0  0  0  0  0  0
  179.6659   13.6290   44.1775 H   0  0  0  0  0  0  0  0  0  0  0  0
  181.2850   18.9032   44.5962 H   0  0  0  0  0  0  0  0  0  0  0  0
  175.7057   20.6993   46.6410 H   0  0  0  0  0  0  0  0  0  0  0  0
  174.9807   22.8045   47.7698 H   0  0  0  0  0  0  0  0  0  0  0  0
  176.6601   24.2466   48.9232 H   0  0  0  0  0  0  0  0  0  0  0  0
  178.8710   24.5730   49.4820 H   0  0  0  0  0  0  0  0  0  0  0  0
  1  2  2  0
  2  3  1  0
  3  4  1  0
  3  5  2  0
  5  6  1  0
  6  7  2  0
  7  8  1  0
  8  9  2  0
  9 10  1  0
 10 11  1  0
  9 12  1  0
 12 13  1  0
 13 14  1  0
 13 15  1  0
 13 16  1  0
 12 17  2  0
  5 18  1  0
 18 19  1  0
 19 20  2  0
 20 21  1  0
 21 22  2  0
 22 23  1  0
 23 24  1  0
 23 25  2  0
 25  2  1  0
 17  6  1  0
 25 19  1  0
  4 26  1  0
  7 27  1  0
  8 28  1  0
 10 29  1  0
 10 30  1  0
 17 31  1  0
 20 32  1  0
 21 33  1  0
 22 34  1  0
 24 35  1  0
M  END
>  <meeko>  (6) 
{"is_sidechain": [false], "free_energy": -6.015, "intermolecular_energy": -7.615, "internal_energy": -0.07}

$$$$
cand_010_out
     RDKit          3D

 35 37  0  0  0  0  0  0  0  0999 V2000
  180.5670   13.8790   44.0130 O   0  0  0  0  0  0  0  0  0  0  0  0
  180.6210   15.0740   43.7290 C   0  0  0  0  0  0  0  0  0  0  0  0
  180.3520   16.1040   44.7600 C   0  0  0  0  0  0  0  0  0  0  0  0
  180.0580   15.6580   46.0350 O   0  0  0  0  0  0  0  0  0  0  0  0
  180.4250   17.4000   44.4070 C   0  0  0  0  0  0  0  0  0  0  0  0
  180.1880   18.5110   45.3540 C   0  0  0  0  0  0  0  0  0  0  0  0
  181.2400   19.2620   45.8860 C   0  0  0  0  0  0  0  0  0  0  0  0
  180.9950   20.2900   46.8000 C   0  0  0  0  0  0  0  0  0  0  0  0
  179.6890   20.5890   47.2170 C   0  0  0  0  0  0  0  0  0  0  0  0
  179.4650   21.7130   48.2020 C   0  0  0  0  0  0  0  0  0  0  0  0
  179.1550   22.9000   47.6040 F   0  0  0  0  0  0  0  0  0  0  0  0
  178.6140   19.8380   46.6920 C   0  0  0  0  0  0  0  0  0  0  0  0
  177.1870   20.1150   47.1080 C   0  0  0  0  0  0  0  0  0  0  0  0
  176.9870   20.0790   48.4550 F   0  0  0  0  0  0  0  0  0  0  0  0
  176.7590   21.3410   46.7000 F   0  0  0  0  0  0  0  0  0  0  0  0
  176.3080   19.2200   46.5780 F   0  0  0  0  0  0  0  0  0  0  0  0
  178.8810   18.8030   45.7730 C   0  0  0  0  0  0  0  0  0  0  0  0
  180.7510   17.8400   43.1290 O   0  0  0  0  0  0  0  0  0  0  0  0
  180.9960   16.9100   42.1520 C   0  0  0  0  0  0  0  0  0  0  0  0
  181.3060   17.3950   40.8800 C   0  0  0  0  0  0  0  0  0  0  0  0
  181.5680   16.5020   39.8390 C   0  0  0  0  0  0  0  0  0  0  0  0
  181.5210   15.1260   40.0690 C   0  0  0  0  0  0  0  0  0  0  0  0
  181.2120   14.6440   41.3390 C   0  0  0  0  0  0  0  0  0  0  0  0
  181.1840   13.2850   41.4950 O   0  0  0  0  0  0  0  0  0  0  0  0
  180.9490   15.5380   42.3800 C   0  0  0  0  0  0  0  0  0  0  0  0
  179.7470   14.7830   46.1650 H   0  0  0  0  0  0  0  0  0  0  0  0
  182.2736   19.0410   45.5813 H   0  0  0  0  0  0  0  0  0  0  0  0
  181.8381   20.8734   47.1984 H   0  0  0  0  0  0  0  0  0  0  0  0
  178.6378   21.4321   48.8704 H   0  0  0  0  0  0  0  0  0  0  0  0
  180.4078   21.8599   48.7493 H   0  0  0  0  0  0  0  0  0  0  0  0
  178.0446   18.2099   45.3747 H   0  0  0  0  0  0  0  0  0  0  0  0
  181.3438   18.4792   40.6981 H   0  0  0  0  0  0  0  0  0  0  0  0
  181.8117   16.8833   38.8364 H   0  0  0  0  0  0  0  0  0  0  0  0
  181.7277   14.4231   39.2485 H   0  0  0  0  0  0  0  0  0  0  0  0
  181.3300   12.9080   42.3400 H   0  0  0  0  0  0  0  0  0  0  0  0
  1  2  2  0
  2  3  1  0
  3  4  1  0
  3  5  2  0
  5  6  1  0
  6  7  2  0
  7  8  1  0
  8  9  2  0
  9 10  1  0
 10 11  1  0
  9 12  1  0
 12 13  1  0
 13 14  1  0
 13 15  1  0
 13 16  1  0
 12 17  2  0
  5 18  1  0
 18 19  1  0
 19 20  2  0
 20 21  1  0
 21 22  2  0
 22 23  1  0
 23 24  1  0
 23 25  2  0
 25  2  1  0
 17  6  1  0
 25 19  1  0
  4 26  1  0
  7 27  1  0
  8 28  1  0
 10 29  1  0
 10 30  1  0
 17 31  1  0
 20 32  1  0
 21 33  1  0
 22 34  1  0
 24 35  1  0
M  END
>  <meeko>  (7) 
{"is_sidechain": [false], "free_energy": -5.901, "intermolecular_energy": -7.047, "internal_energy": -0.498}

$$$$
cand_010_out
     RDKit          3D

 35 37  0  0  0  0  0  0  0  0999 V2000
  182.8690   20.7700   45.1700 O   0  0  0  0  0  0  0  0  0  0  0  0
  181.7690   20.3130   45.4750 C   0  0  0  0  0  0  0  0  0  0  0  0
  180.8220   21.1150   46.2830 C   0  0  0  0  0  0  0  0  0  0  0  0
  181.2260   22.3840   46.6550 O   0  0  0  0  0  0  0  0  0  0  0  0
  179.6270   20.5780   46.5920 C   0  0  0  0  0  0  0  0  0  0  0  0
  178.6000   21.2900   47.3830 C   0  0  0  0  0  0  0  0  0  0  0  0
  178.7520   22.6320   47.7470 C   0  0  0  0  0  0  0  0  0  0  0  0
  177.7810   23.2790   48.5170 C   0  0  0  0  0  0  0  0  0  0  0  0
  176.6350   22.5970   48.9530 C   0  0  0  0  0  0  0  0  0  0  0  0
  175.6050   23.3340   49.7780 C   0  0  0  0  0  0  0  0  0  0  0  0
  174.6830   23.9980   49.0230 F   0  0  0  0  0  0  0  0  0  0  0  0
  176.4660   21.2410   48.5970 C   0  0  0  0  0  0  0  0  0  0  0  0
  175.2520   20.4570   49.0420 C   0  0  0  0  0  0  0  0  0  0  0  0
  175.0880   20.4140   50.3940 F   0  0  0  0  0  0  0  0  0  0  0  0
  174.0950   20.9710   48.5420 F   0  0  0  0  0  0  0  0  0  0  0  0
  175.2910   19.1600   48.6310 F   0  0  0  0  0  0  0  0  0  0  0  0
  177.4580   20.6040   47.8220 C   0  0  0  0  0  0  0  0  0  0  0  0
  179.2170   19.3130   46.1890 O   0  0  0  0  0  0  0  0  0  0  0  0
  180.0770   18.5430   45.4470 C   0  0  0  0  0  0  0  0  0  0  0  0
  179.6300   17.2740   45.0760 C   0  0  0  0  0  0  0  0  0  0  0  0
  180.4560   16.4400   44.3180 C   0  0  0  0  0  0  0  0  0  0  0  0
  181.7260   16.8740   43.9330 C   0  0  0  0  0  0  0  0  0  0  0  0
  182.1690   18.1410   44.3060 C   0  0  0  0  0  0  0  0  0  0  0  0
  183.4220   18.5030   43.8940 O   0  0  0  0  0  0  0  0  0  0  0  0
  181.3430   18.9750   45.0640 C   0  0  0  0  0  0  0  0  0  0  0  0
  181.2450   23.0740   46.0210 H   0  0  0  0  0  0  0  0  0  0  0  0
  179.6463   23.1849   47.4235 H   0  0  0  0  0  0  0  0  0  0  0  0
  177.9173   24.3372   48.7847 H   0  0  0  0  0  0  0  0  0  0  0  0
  175.0780   22.6049   50.4110 H   0  0  0  0  0  0  0  0  0  0  0  0
  176.1425   24.0874   50.3726 H   0  0  0  0  0  0  0  0  0  0  0  0
  177.3329   19.5441   47.5557 H   0  0  0  0  0  0  0  0  0  0  0  0
  178.6298   16.9312   45.3796 H   0  0  0  0  0  0  0  0  0  0  0  0
  180.1051   15.4398   44.0241 H   0  0  0  0  0  0  0  0  0  0  0  0
  182.3755   16.2167   43.3363 H   0  0  0  0  0  0  0  0  0  0  0  0
  184.1750   18.0850   44.2640 H   0  0  0  0  0  0  0  0  0  0  0  0
  1  2  2  0
  2  3  1  0
  3  4  1  0
  3  5  2  0
  5  6  1  0
  6  7  2  0
  7  8  1  0
  8  9  2  0
  9 10  1  0
 10 11  1  0
  9 12  1  0
 12 13  1  0
 13 14  1  0
 13 15  1  0
 13 16  1  0
 12 17  2  0
  5 18  1  0
 18 19  1  0
 19 20  2  0
 20 21  1  0
 21 22  2  0
 22 23  1  0
 23 24  1  0
 23 25  2  0
 25  2  1  0
 17  6  1  0
 25 19  1  0
  4 26  1  0
  7 27  1  0
  8 28  1  0
 10 29  1  0
 10 30  1  0
 17 31  1  0
 20 32  1  0
 21 33  1  0
 22 34  1  0
 24 35  1  0
M  END
>  <meeko>  (8) 
{"is_sidechain": [false], "free_energy": -5.879, "intermolecular_energy": -7.63, "internal_energy": 0.113}

$$$$
