cand_035_out
     RDKit          3D

 36 38  0  0  0  0  0  0  0  0999 V2000
  179.0900   13.6540   45.1210 C   0  0  0  0  0  0  0  0  0  0  0  0
  180.3110   14.0230   44.7150 C   0  0  0  0  0  0  0  0  0  0  0  0
  180.6420   15.4220   44.4290 C   0  0  0  0  0  0  0  0  0  0  0  0
  180.0580   16.4130   45.2360 C   0  0  0  0  0  0  0  0  0  0  0  0
  180.3230   17.7740   45.0270 C   0  0  0  0  0  0  0  0  0  0  0  0
  179.6690   18.7900   45.8790 C   0  0  0  0  0  0  0  0  0  0  0  0
  178.2830   18.6810   45.8820 O   0  0  0  0  0  0  0  0  0  0  0  0
  177.5500   19.5640   46.6320 C   0  0  0  0  0  0  0  0  0  0  0  0
  176.1620   19.4280   46.5960 C   0  0  0  0  0  0  0  0  0  0  0  0
  175.3570   20.2940   47.3390 C   0  0  0  0  0  0  0  0  0  0  0  0
  175.9400   21.2950   48.1190 C   0  0  0  0  0  0  0  0  0  0  0  0
  177.3250   21.4290   48.1530 C   0  0  0  0  0  0  0  0  0  0  0  0
  177.8290   22.4300   48.9380 O   0  0  0  0  0  0  0  0  0  0  0  0
  178.1310   20.5620   47.4090 C   0  0  0  0  0  0  0  0  0  0  0  0
  179.5900   20.6690   47.4190 C   0  0  0  0  0  0  0  0  0  0  0  0
  180.1770   21.5180   48.0850 O   0  0  0  0  0  0  0  0  0  0  0  0
  180.3520   19.7060   46.5890 C   0  0  0  0  0  0  0  0  0  0  0  0
  181.7300   19.8050   46.6160 O   0  0  0  0  0  0  0  0  0  0  0  0
  181.1760   18.1320   43.9780 C   0  0  0  0  0  0  0  0  0  0  0  0
  181.7620   17.1540   43.1690 C   0  0  0  0  0  0  0  0  0  0  0  0
  181.5060   15.7920   43.3840 C   0  0  0  0  0  0  0  0  0  0  0  0
  182.1530   14.7630   42.4920 C   0  0  0  0  0  0  0  0  0  0  0  0
  181.3010   14.2340   41.5650 F   0  0  0  0  0  0  0  0  0  0  0  0
  178.8756   12.5949   45.3270 H   0  0  0  0  0  0  0  0  0  0  0  0
  178.3011   14.4098   45.2487 H   0  0  0  0  0  0  0  0  0  0  0  0
  181.0883   13.2543   44.5925 H   0  0  0  0  0  0  0  0  0  0  0  0
  179.3789   16.1150   46.0485 H   0  0  0  0  0  0  0  0  0  0  0  0
  175.7020   18.6391   45.9827 H   0  0  0  0  0  0  0  0  0  0  0  0
  174.2625   20.1876   47.3099 H   0  0  0  0  0  0  0  0  0  0  0  0
  175.3059   21.9762   48.7054 H   0  0  0  0  0  0  0  0  0  0  0  0
  178.0150   23.2700   48.5660 H   0  0  0  0  0  0  0  0  0  0  0  0
  182.2500   19.2520   46.0670 H   0  0  0  0  0  0  0  0  0  0  0  0
  181.3880   19.1944   43.7875 H   0  0  0  0  0  0  0  0  0  0  0  0
  182.4335   17.4571   42.3521 H   0  0  0  0  0  0  0  0  0  0  0  0
  182.9918   15.2388   41.9628 H   0  0  0  0  0  0  0  0  0  0  0  0
  182.4831   13.9360   43.1378 H   0  0  0  0  0  0  0  0  0  0  0  0
  1  2  2  0
  2  3  1  0
  3  4  2  0
  4  5  1  0
  5  6  1  0
  6  7  1  0
  7  8  1  0
  8  9  2  0
  9 10  1  0
 10 11  2  0
 11 12  1  0
 12 13  1  0
 12 14  2  0
 14 15  1  0
 15 16  2  0
 15 17  1  0
 17 18  1  0
  5 19  2  0
 19 20  1  0
 20 21  2  0
 21 22  1  0
 22 23  1  0
 21  3  1  0
 17  6  2  0
 14  8  1  0
  1 24  1  0
  1 25  1  0
  2 26  1  0
  4 27  1  0
  9 28  1  0
 10 29  1  0
 11 30  1  0
 13 31  1  0
 18 32  1  0
 19 33  1  0
 20 34  1  0
 22 35  1  0
 22 36  1  0
M  END
>  <meeko>  (1) 
{"is_sidechain": [false], "free_energy": -7.713, "intermolecular_energy": -9.516, "internal_energy": -0.439}

$$$$
cand_035_out
     RDKit          3D

 36 38  0  0  0  0  0  0  0  0999 V2000
  179.0560   13.5580   45.0900 C   0  0  0  0  0  0  0  0  0  0  0  0
  180.3060   13.9380   44.8030 C   0  0  0  0  0  0  0  0  0  0  0  0
  180.6020   15.2560   44.2330 C   0  0  0  0  0  0  0  0  0  0  0  0
  180.4420   16.3800   45.0600 C   0  0  0  0  0  0  0  0  0  0  0  0
  180.7040   17.6760   44.5900 C   0  0  0  0  0  0  0  0  0  0  0  0
  180.4990   18.8370   45.4810 C   0  0  0  0  0  0  0  0  0  0  0  0
  181.6150   19.6640   45.5550 O   0  0  0  0  0  0  0  0  0  0  0  0
  181.5610   20.7810   46.3490 C   0  0  0  0  0  0  0  0  0  0  0  0
  182.7080   21.5750   46.4050 C   0  0  0  0  0  0  0  0  0  0  0  0
  182.7190   22.7280   47.1930 C   0  0  0  0  0  0  0  0  0  0  0  0
  181.5840   23.0870   47.9230 C   0  0  0  0  0  0  0  0  0  0  0  0
  180.4410   22.2930   47.8650 C   0  0  0  0  0  0  0  0  0  0  0  0
  179.3660   22.7040   48.6050 O   0  0  0  0  0  0  0  0  0  0  0  0
  180.4310   21.1390   47.0770 C   0  0  0  0  0  0  0  0  0  0  0  0
  179.2500   20.2780   46.9890 C   0  0  0  0  0  0  0  0  0  0  0  0
  178.2120   20.5310   47.5950 O   0  0  0  0  0  0  0  0  0  0  0  0
  179.3450   19.0740   46.1300 C   0  0  0  0  0  0  0  0  0  0  0  0
  178.2210   18.2750   46.0410 O   0  0  0  0  0  0  0  0  0  0  0  0
  181.1160   17.8300   43.2620 C   0  0  0  0  0  0  0  0  0  0  0  0
  181.2780   16.7190   42.4300 C   0  0  0  0  0  0  0  0  0  0  0  0
  181.0260   15.4220   42.9030 C   0  0  0  0  0  0  0  0  0  0  0  0
  181.2090   14.2440   41.9790 C   0  0  0  0  0  0  0  0  0  0  0  0
  181.1230   14.5730   40.6560 F   0  0  0  0  0  0  0  0  0  0  0  0
  178.8683   12.5618   45.5170 H   0  0  0  0  0  0  0  0  0  0  0  0
  178.2157   14.2417   44.8990 H   0  0  0  0  0  0  0  0  0  0  0  0
  181.1349   13.2423   45.0001 H   0  0  0  0  0  0  0  0  0  0  0  0
  180.1043   16.2415   46.0977 H   0  0  0  0  0  0  0  0  0  0  0  0
  183.6018   21.2928   45.8293 H   0  0  0  0  0  0  0  0  0  0  0  0
  183.6225   23.3538   47.2387 H   0  0  0  0  0  0  0  0  0  0  0  0
  181.5926   23.9956   48.5430 H   0  0  0  0  0  0  0  0  0  0  0  0
  178.5010   22.6460   48.2480 H   0  0  0  0  0  0  0  0  0  0  0  0
  177.4030   18.5760   46.3850 H   0  0  0  0  0  0  0  0  0  0  0  0
  181.3148   18.8376   42.8680 H   0  0  0  0  0  0  0  0  0  0  0  0
  181.6075   16.8630   41.3904 H   0  0  0  0  0  0  0  0  0  0  0  0
  182.2005   13.8055   42.1654 H   0  0  0  0  0  0  0  0  0  0  0  0
  180.3943   13.5359   42.1908 H   0  0  0  0  0  0  0  0  0  0  0  0
  1  2  2  0
  2  3  1  0
  3  4  2  0
  4  5  1  0
  5  6  1  0
  6  7  1  0
  7  8  1  0
  8  9  2  0
  9 10  1  0
 10 11  2  0
 11 12  1  0
 12 13  1  0
 12 14  2  0
 14 15  1  0
 15 16  2  0
 15 17  1  0
 17 18  1  0
  5 19  2  0
 19 20  1  0
 20 21  2  0
 21 22  1  0
 22 23  1  0
 21  3  1  0
 17  6  2  0
 14  8  1  0
  1 24  1  0
  1 25  1  0
  2 26  1  0
  4 27  1  0
  9 28  1  0
 10 29  1  0
 11 30  1  0
 13 31  1  0
 18 32  1  0
 19 33  1  0
 20 34  1  0
 22 35  1  0
 22 36  1  0
M  END
>  <meeko>  (2) 
{"is_sidechain": [false], "free_energy": -7.228, "intermolecular_energy": -9.057, "internal_energy": -0.299}

$$$$
cand_035_out
     RDKit          3D

 36 38  0  0  0  0  0  0  0  0999 V2000
  175.5480   18.5120   46.9200 C   0  0  0  0  0  0  0  0  0  0  0  0
  176.6990   19.0230   46.4680 C   0  0  0  0  0  0  0  0  0  0  0  0
  177.4510   20.0260   47.2280 C   0  0  0  0  0  0  0  0  0  0  0  0
  176.7780   20.7150   48.2510 C   0  0  0  0  0  0  0  0  0  0  0  0
  177.4270   21.6900   49.0230 C   0  0  0  0  0  0  0  0  0  0  0  0
  176.6800   22.4140   50.0730 C   0  0  0  0  0  0  0  0  0  0  0  0
  175.6320   23.1730   49.5640 O   0  0  0  0  0  0  0  0  0  0  0  0
  174.8550   23.8960   50.4320 C   0  0  0  0  0  0  0  0  0  0  0  0
  173.8230   24.6550   49.8780 C   0  0  0  0  0  0  0  0  0  0  0  0
  172.9930   25.4140   50.7060 C   0  0  0  0  0  0  0  0  0  0  0  0
  173.1950   25.4140   52.0880 C   0  0  0  0  0  0  0  0  0  0  0  0
  174.2260   24.6560   52.6390 C   0  0  0  0  0  0  0  0  0  0  0  0
  174.3660   24.7010   53.9990 O   0  0  0  0  0  0  0  0  0  0  0  0
  175.0560   23.8970   51.8090 C   0  0  0  0  0  0  0  0  0  0  0  0
  176.1500   23.0870   52.3480 C   0  0  0  0  0  0  0  0  0  0  0  0
  176.3860   23.0290   53.5520 O   0  0  0  0  0  0  0  0  0  0  0  0
  176.9760   22.3250   51.3830 C   0  0  0  0  0  0  0  0  0  0  0  0
  177.9970   21.5510   51.9010 O   0  0  0  0  0  0  0  0  0  0  0  0
  178.7670   21.9780   48.7410 C   0  0  0  0  0  0  0  0  0  0  0  0
  179.4460   21.2990   47.7250 C   0  0  0  0  0  0  0  0  0  0  0  0
  178.8000   20.3170   46.9600 C   0  0  0  0  0  0  0  0  0  0  0  0
  179.5610   19.6030   45.8710 C   0  0  0  0  0  0  0  0  0  0  0  0
  179.7460   20.3630   44.7510 F   0  0  0  0  0  0  0  0  0  0  0  0
  175.0084   17.7607   46.3247 H   0  0  0  0  0  0  0  0  0  0  0  0
  175.1413   18.8432   47.8869 H   0  0  0  0  0  0  0  0  0  0  0  0
  177.0919   18.6810   45.4992 H   0  0  0  0  0  0  0  0  0  0  0  0
  175.7209   20.4852   48.4505 H   0  0  0  0  0  0  0  0  0  0  0  0
  173.6634   24.6554   48.7896 H   0  0  0  0  0  0  0  0  0  0  0  0
  172.1796   26.0122   50.2694 H   0  0  0  0  0  0  0  0  0  0  0  0
  172.5412   26.0115   52.7403 H   0  0  0  0  0  0  0  0  0  0  0  0
  173.6080   24.7560   54.5470 H   0  0  0  0  0  0  0  0  0  0  0  0
  178.3200   20.8160   51.4180 H   0  0  0  0  0  0  0  0  0  0  0  0
  179.2922   22.7477   49.3256 H   0  0  0  0  0  0  0  0  0  0  0  0
  180.5005   21.5380   47.5230 H   0  0  0  0  0  0  0  0  0  0  0  0
  180.5473   19.3166   46.2650 H   0  0  0  0  0  0  0  0  0  0  0  0
  178.9619   18.7291   45.5753 H   0  0  0  0  0  0  0  0  0  0  0  0
  1  2  2  0
  2  3  1  0
  3  4  2  0
  4  5  1  0
  5  6  1  0
  6  7  1  0
  7  8  1  0
  8  9  2  0
  9 10  1  0
 10 11  2  0
 11 12  1  0
 12 13  1  0
 12 14  2  0
 14 15  1  0
 15 16  2  0
 15 17  1  0
 17 18  1  0
  5 19  2  0
 19 20  1  0
 20 21  2  0
 21 22  1  0
 22 23  1  0
 21  3  1  0
 17  6  2  0
 14  8  1  0
  1 24  1  0
  1 25  1  0
  2 26  1  0
  4 27  1  0
  9 28  1  0
 10 29  1  0
 11 30  1  0
 13 31  1  0
 18 32  1  0
 19 33  1  0
 20 34  1  0
 22 35  1  0
 22 36  1  0
M  END
>  <meeko>  (3) 
{"is_sidechain": [false], "free_energy": -7.182, "intermolecular_energy": -8.828, "internal_energy": -0.472}

$$$$
cand_035_out
     RDKit          3D

 36 38  0  0  0  0  0  0  0  0999 V2000
  179.7420   20.5480   46.9990 C   0  0  0  0  0  0  0  0  0  0  0  0
  178.5050   20.7850   46.5470 C   0  0  0  0  0  0  0  0  0  0  0  0
  177.3310   20.6840   47.4180 C   0  0  0  0  0  0  0  0  0  0  0  0
  177.1810   21.6460   48.4320 C   0  0  0  0  0  0  0  0  0  0  0  0
  176.0850   21.6190   49.3080 C   0  0  0  0  0  0  0  0  0  0  0  0
  175.9750   22.6310   50.3790 C   0  0  0  0  0  0  0  0  0  0  0  0
  175.4610   23.8410   49.9270 O   0  0  0  0  0  0  0  0  0  0  0  0
  175.3050   24.8700   50.8200 C   0  0  0  0  0  0  0  0  0  0  0  0
  174.7990   26.0710   50.3220 C   0  0  0  0  0  0  0  0  0  0  0  0
  174.6140   27.1580   51.1790 C   0  0  0  0  0  0  0  0  0  0  0  0
  174.9350   27.0440   52.5340 C   0  0  0  0  0  0  0  0  0  0  0  0
  175.4400   25.8440   53.0280 C   0  0  0  0  0  0  0  0  0  0  0  0
  175.7310   25.8010   54.3640 O   0  0  0  0  0  0  0  0  0  0  0  0
  175.6250   24.7560   52.1700 C   0  0  0  0  0  0  0  0  0  0  0  0
  176.1520   23.4790   52.6500 C   0  0  0  0  0  0  0  0  0  0  0  0
  176.4500   23.2980   53.8280 O   0  0  0  0  0  0  0  0  0  0  0  0
  176.3170   22.3910   51.6580 C   0  0  0  0  0  0  0  0  0  0  0  0
  176.8020   21.1830   52.1220 O   0  0  0  0  0  0  0  0  0  0  0  0
  175.1420   20.5950   49.1610 C   0  0  0  0  0  0  0  0  0  0  0  0
  175.2820   19.6340   48.1560 C   0  0  0  0  0  0  0  0  0  0  0  0
  176.3720   19.6660   47.2740 C   0  0  0  0  0  0  0  0  0  0  0  0
  176.4930   18.6130   46.2010 C   0  0  0  0  0  0  0  0  0  0  0  0
  175.7150   17.5140   46.4290 F   0  0  0  0  0  0  0  0  0  0  0  0
  180.6019   20.6327   46.3183 H   0  0  0  0  0  0  0  0  0  0  0  0
  179.8989   20.2685   48.0513 H   0  0  0  0  0  0  0  0  0  0  0  0
  178.3656   21.0635   45.4920 H   0  0  0  0  0  0  0  0  0  0  0  0
  177.9384   22.4362   48.5410 H   0  0  0  0  0  0  0  0  0  0  0  0
  174.5460   26.1616   49.2553 H   0  0  0  0  0  0  0  0  0  0  0  0
  174.2151   28.1051   50.7868 H   0  0  0  0  0  0  0  0  0  0  0  0
  174.7891   27.9002   53.2090 H   0  0  0  0  0  0  0  0  0  0  0  0
  176.5740   25.5090   54.6520 H   0  0  0  0  0  0  0  0  0  0  0  0
  176.2090   20.5330   52.4470 H   0  0  0  0  0  0  0  0  0  0  0  0
  174.2812   20.5462   49.8441 H   0  0  0  0  0  0  0  0  0  0  0  0
  174.5263   18.8410   48.0553 H   0  0  0  0  0  0  0  0  0  0  0  0
  176.1945   19.0582   45.2404 H   0  0  0  0  0  0  0  0  0  0  0  0
  177.5395   18.2743   46.1952 H   0  0  0  0  0  0  0  0  0  0  0  0
  1  2  2  0
  2  3  1  0
  3  4  2  0
  4  5  1  0
  5  6  1  0
  6  7  1  0
  7  8  1  0
  8  9  2  0
  9 10  1  0
 10 11  2  0
 11 12  1  0
 12 13  1  0
 12 14  2  0
 14 15  1  0
 15 16  2  0
 15 17  1  0
 17 18  1  0
  5 19  2  0
 19 20  1  0
 20 21  2  0
 21 22  1  0
 22 23  1  0
 21  3  1  0
 17  6  2  0
 14  8  1  0
  1 24  1  0
  1 25  1  0
  2 26  1  0
  4 27  1  0
  9 28  1  0
 10 29  1  0
 11 30  1  0
 13 31  1  0
 18 32  1  0
 19 33  1  0
 20 34  1  0
 22 35  1  0
 22 36  1  0
M  END
>  <meeko>  (4) 
{"is_sidechain": [false], "free_energy": -7.161, "intermolecular_energy": -8.749, "internal_energy": -0.525}

$$$$
cand_035_out
     RDKit          3D

 36 38  0  0  0  0  0  0  0  0999 V2000
  175.3560   26.0640   51.1040 C   0  0  0  0  0  0  0  0  0  0  0  0
  174.7750   25.5830   49.9990 C   0  0  0  0  0  0  0  0  0  0  0  0
  174.9470   24.1890   49.5790 C   0  0  0  0  0  0  0  0  0  0  0  0
  176.2550   23.7270   49.3580 C   0  0  0  0  0  0  0  0  0  0  0  0
  176.5040   22.4070   48.9540 C   0  0  0  0  0  0  0  0  0  0  0  0
  177.8920   21.9630   48.7040 C   0  0  0  0  0  0  0  0  0  0  0  0
  178.0900   21.5160   47.4030 O   0  0  0  0  0  0  0  0  0  0  0  0
  179.3350   21.0740   47.0360 C   0  0  0  0  0  0  0  0  0  0  0  0
  179.4860   20.6220   45.7240 C   0  0  0  0  0  0  0  0  0  0  0  0
  180.7290   20.1600   45.2850 C   0  0  0  0  0  0  0  0  0  0  0  0
  181.8200   20.1510   46.1580 C   0  0  0  0  0  0  0  0  0  0  0  0
  181.6660   20.6020   47.4660 C   0  0  0  0  0  0  0  0  0  0  0  0
  182.7760   20.5670   48.2650 O   0  0  0  0  0  0  0  0  0  0  0  0
  180.4220   21.0640   47.9050 C   0  0  0  0  0  0  0  0  0  0  0  0
  180.2190   21.5480   49.2710 C   0  0  0  0  0  0  0  0  0  0  0  0
  181.1300   21.5780   50.0940 O   0  0  0  0  0  0  0  0  0  0  0  0
  178.8600   22.0090   49.6380 C   0  0  0  0  0  0  0  0  0  0  0  0
  178.6800   22.4780   50.9260 O   0  0  0  0  0  0  0  0  0  0  0  0
  175.4120   21.5550   48.7570 C   0  0  0  0  0  0  0  0  0  0  0  0
  174.1060   22.0050   48.9730 C   0  0  0  0  0  0  0  0  0  0  0  0
  173.8570   23.3220   49.3880 C   0  0  0  0  0  0  0  0  0  0  0  0
  172.4370   23.7760   49.6110 C   0  0  0  0  0  0  0  0  0  0  0  0
  171.7860   24.1090   48.4580 F   0  0  0  0  0  0  0  0  0  0  0  0
  175.2064   27.1153   51.3909 H   0  0  0  0  0  0  0  0  0  0  0  0
  175.9833   25.4081   51.7256 H   0  0  0  0  0  0  0  0  0  0  0  0
  174.1508   26.2522   49.3886 H   0  0  0  0  0  0  0  0  0  0  0  0
  177.1012   24.4143   49.5047 H   0  0  0  0  0  0  0  0  0  0  0  0
  178.6272   20.6296   45.0367 H   0  0  0  0  0  0  0  0  0  0  0  0
  180.8491   19.8031   44.2515 H   0  0  0  0  0  0  0  0  0  0  0  0
  182.7991   19.7881   45.8122 H   0  0  0  0  0  0  0  0  0  0  0  0
  182.8000   19.9980   49.0100 H   0  0  0  0  0  0  0  0  0  0  0  0
  178.4910   21.8780   51.6210 H   0  0  0  0  0  0  0  0  0  0  0  0
  175.5828   20.5192   48.4284 H   0  0  0  0  0  0  0  0  0  0  0  0
  173.2622   21.3172   48.8154 H   0  0  0  0  0  0  0  0  0  0  0  0
  171.8835   22.9614   50.1009 H   0  0  0  0  0  0  0  0  0  0  0  0
  172.4801   24.6825   50.2326 H   0  0  0  0  0  0  0  0  0  0  0  0
  1  2  2  0
  2  3  1  0
  3  4  2  0
  4  5  1  0
  5  6  1  0
  6  7  1  0
  7  8  1  0
  8  9  2  0
  9 10  1  0
 10 11  2  0
 11 12  1  0
 12 13  1  0
 12 14  2  0
 14 15  1  0
 15 16  2  0
 15 17  1  0
 17 18  1  0
  5 19  2  0
 19 20  1  0
 20 21  2  0
 21 22  1  0
 22 23  1  0
 21  3  1  0
 17  6  2  0
 14  8  1  0
  1 24  1  0
  1 25  1  0
  2 26  1  0
  4 27  1  0
  9 28  1  0
 10 29  1  0
 11 30  1  0
 13 31  1  0
 18 32  1  0
 19 33  1  0
 20 34  1  0
 22 35  1  0
 22 36  1  0
M  END
>  <meeko>  (5) 
{"is_sidechain": [false], "free_energy": -7.134, "intermolecular_energy": -8.857, "internal_energy": -0.383}

$$$$
cand_035_out
     RDKit          3D

 36 38  0  0  0  0  0  0  0  0999 V2000
  175.1970   18.6280   46.9550 C   0  0  0  0  0  0  0  0  0  0  0  0
  176.0250   19.0920   47.8980 C   0  0  0  0  0  0  0  0  0  0  0  0
  176.1360   20.5240   48.1940 C   0  0  0  0  0  0  0  0  0  0  0  0
  175.3410   21.0420   49.2310 C   0  0  0  0  0  0  0  0  0  0  0  0
  175.3870   22.4010   49.5760 C   0  0  0  0  0  0  0  0  0  0  0  0
  174.5170   22.9170   50.6530 C   0  0  0  0  0  0  0  0  0  0  0  0
  175.2260   23.2770   51.7940 O   0  0  0  0  0  0  0  0  0  0  0  0
  174.5400   23.7720   52.8730 C   0  0  0  0  0  0  0  0  0  0  0  0
  175.2890   24.1080   54.0020 C   0  0  0  0  0  0  0  0  0  0  0  0
  174.6510   24.6200   55.1340 C   0  0  0  0  0  0  0  0  0  0  0  0
  173.2660   24.7950   55.1370 C   0  0  0  0  0  0  0  0  0  0  0  0
  172.5210   24.4590   54.0100 C   0  0  0  0  0  0  0  0  0  0  0  0
  171.1690   24.6580   54.0820 O   0  0  0  0  0  0  0  0  0  0  0  0
  173.1590   23.9470   52.8770 C   0  0  0  0  0  0  0  0  0  0  0  0
  172.4130   23.5820   51.6720 C   0  0  0  0  0  0  0  0  0  0  0  0
  171.1940   23.7150   51.5950 O   0  0  0  0  0  0  0  0  0  0  0  0
  173.1830   23.0410   50.5280 C   0  0  0  0  0  0  0  0  0  0  0  0
  172.4730   22.7130   49.3890 O   0  0  0  0  0  0  0  0  0  0  0  0
  176.2380   23.2420   48.8500 C   0  0  0  0  0  0  0  0  0  0  0  0
  177.0330   22.7370   47.8180 C   0  0  0  0  0  0  0  0  0  0  0  0
  176.9940   21.3760   47.4790 C   0  0  0  0  0  0  0  0  0  0  0  0
  177.8630   20.8630   46.3590 C   0  0  0  0  0  0  0  0  0  0  0  0
  179.0180   21.5750   46.1980 F   0  0  0  0  0  0  0  0  0  0  0  0
  175.1380   17.5474   46.7582 H   0  0  0  0  0  0  0  0  0  0  0  0
  174.5752   19.3272   46.3766 H   0  0  0  0  0  0  0  0  0  0  0  0
  176.6398   18.3793   48.4673 H   0  0  0  0  0  0  0  0  0  0  0  0
  174.6693   20.3682   49.7831 H   0  0  0  0  0  0  0  0  0  0  0  0
  176.3803   23.9697   54.0001 H   0  0  0  0  0  0  0  0  0  0  0  0
  175.2404   24.8856   56.0240 H   0  0  0  0  0  0  0  0  0  0  0  0
  172.7639   25.1980   56.0289 H   0  0  0  0  0  0  0  0  0  0  0  0
  170.6750   24.8090   53.3000 H   0  0  0  0  0  0  0  0  0  0  0  0
  172.3650   23.3450   48.7050 H   0  0  0  0  0  0  0  0  0  0  0  0
  176.2815   24.3135   49.0948 H   0  0  0  0  0  0  0  0  0  0  0  0
  177.6984   23.4154   47.2639 H   0  0  0  0  0  0  0  0  0  0  0  0
  178.1256   19.8164   46.5729 H   0  0  0  0  0  0  0  0  0  0  0  0
  177.2863   20.9653   45.4279 H   0  0  0  0  0  0  0  0  0  0  0  0
  1  2  2  0
  2  3  1  0
  3  4  2  0
  4  5  1  0
  5  6  1  0
  6  7  1  0
  7  8  1  0
  8  9  2  0
  9 10  1  0
 10 11  2  0
 11 12  1  0
 12 13  1  0
 12 14  2  0
 14 15  1  0
 15 16  2  0
 15 17  1  0
 17 18  1  0
  5 19  2  0
 19 20  1  0
 20 21  2  0
 21 22  1  0
 22 23  1  0
 21  3  1  0
 17  6  2  0
 14  8  1  0
  1 24  1  0
  1 25  1  0
  2 26  1  0
  4 27  1  0
  9 28  1  0
 10 29  1  0
 11 30  1  0
 13 31  1  0
 18 32  1  0
 19 33  1  0
 20 34  1  0
 22 35  1  0
 22 36  1  0
M  END
>  <meeko>  (6) 
{"is_sidechain": [false], "free_energy": -7.113, "intermolecular_energy": -8.817, "internal_energy": -0.398}

$$$$
cand_035_out
     RDKit          3D

 36 38  0  0  0  0  0  0  0  0999 V2000
  179.0440   24.1680   47.9530 C   0  0  0  0  0  0  0  0  0  0  0  0
  177.8880   23.8180   47.3780 C   0  0  0  0  0  0  0  0  0  0  0  0
  176.9790   22.8480   47.9950 C   0  0  0  0  0  0  0  0  0  0  0  0
  176.1190   23.3070   49.0080 C   0  0  0  0  0  0  0  0  0  0  0  0
  175.2200   22.4410   49.6490 C   0  0  0  0  0  0  0  0  0  0  0  0
  174.3500   22.9530   50.7280 C   0  0  0  0  0  0  0  0  0  0  0  0
  175.0610   23.3300   51.8620 O   0  0  0  0  0  0  0  0  0  0  0  0
  174.3750   23.8230   52.9420 C   0  0  0  0  0  0  0  0  0  0  0  0
  175.1270   24.1770   54.0630 C   0  0  0  0  0  0  0  0  0  0  0  0
  174.4890   24.6870   55.1960 C   0  0  0  0  0  0  0  0  0  0  0  0
  173.1020   24.8450   55.2070 C   0  0  0  0  0  0  0  0  0  0  0  0
  172.3540   24.4910   54.0870 C   0  0  0  0  0  0  0  0  0  0  0  0
  171.0000   24.6730   54.1660 O   0  0  0  0  0  0  0  0  0  0  0  0
  172.9920   23.9800   52.9530 C   0  0  0  0  0  0  0  0  0  0  0  0
  172.2430   23.5970   51.7560 C   0  0  0  0  0  0  0  0  0  0  0  0
  171.0220   23.7130   51.6860 O   0  0  0  0  0  0  0  0  0  0  0  0
  173.0140   23.0590   50.6110 C   0  0  0  0  0  0  0  0  0  0  0  0
  172.3000   22.7140   49.4780 O   0  0  0  0  0  0  0  0  0  0  0  0
  175.2070   21.0950   49.2670 C   0  0  0  0  0  0  0  0  0  0  0  0
  176.0580   20.6280   48.2620 C   0  0  0  0  0  0  0  0  0  0  0  0
  176.9500   21.4950   47.6130 C   0  0  0  0  0  0  0  0  0  0  0  0
  177.8550   20.9600   46.5330 C   0  0  0  0  0  0  0  0  0  0  0  0
  177.1800   20.4540   45.4590 F   0  0  0  0  0  0  0  0  0  0  0  0
  179.7031   24.8994   47.4624 H   0  0  0  0  0  0  0  0  0  0  0  0
  179.3355   23.7244   48.9164 H   0  0  0  0  0  0  0  0  0  0  0  0
  177.6118   24.2712   46.4145 H   0  0  0  0  0  0  0  0  0  0  0  0
  176.1515   24.3659   49.3040 H   0  0  0  0  0  0  0  0  0  0  0  0
  176.2201   24.0546   54.0543 H   0  0  0  0  0  0  0  0  0  0  0  0
  175.0804   24.9646   56.0810 H   0  0  0  0  0  0  0  0  0  0  0  0
  172.6007   25.2485   56.0991 H   0  0  0  0  0  0  0  0  0  0  0  0
  170.5360   25.0590   53.4490 H   0  0  0  0  0  0  0  0  0  0  0  0
  171.4080   22.4360   49.5530 H   0  0  0  0  0  0  0  0  0  0  0  0
  174.5184   20.3959   49.7640 H   0  0  0  0  0  0  0  0  0  0  0  0
  176.0282   19.5663   47.9758 H   0  0  0  0  0  0  0  0  0  0  0  0
  178.5021   21.7781   46.1838 H   0  0  0  0  0  0  0  0  0  0  0  0
  178.4306   20.1324   46.9732 H   0  0  0  0  0  0  0  0  0  0  0  0
  1  2  2  0
  2  3  1  0
  3  4  2  0
  4  5  1  0
  5  6  1  0
  6  7  1  0
  7  8  1  0
  8  9  2  0
  9 10  1  0
 10 11  2  0
 11 12  1  0
 12 13  1  0
 12 14  2  0
 14 15  1  0
 15 16  2  0
 15 17  1  0
 17 18  1  0
  5 19  2  0
 19 20  1  0
 20 21  2  0
 21 22  1  0
 22 23  1  0
 21  3  1  0
 17  6  2  0
 14  8  1  0
  1 24  1  0
  1 25  1  0
  2 26  1  0
  4 27  1  0
  9 28  1  0
 10 29  1  0
 11 30  1  0
 13 31  1  0
 18 32  1  0
 19 33  1  0
 20 34  1  0
 22 35  1  0
 22 36  1  0
M  END
>  <meeko>  (7) 
{"is_sidechain": [false], "free_energy": -7.048, "intermolecular_energy": -8.642, "internal_energy": -0.492}

$$$$
cand_035_out
     RDKit          3D

 36 38  0  0  0  0  0  0  0  0999 V2000
  182.3030   21.1350   47.9280 C   0  0  0  0  0  0  0  0  0  0  0  0
  181.3500   21.5380   47.0800 C   0  0  0  0  0  0  0  0  0  0  0  0
  179.9720   21.0470   47.1760 C   0  0  0  0  0  0  0  0  0  0  0  0
  179.1390   21.6170   48.1530 C   0  0  0  0  0  0  0  0  0  0  0  0
  177.8070   21.2030   48.3100 C   0  0  0  0  0  0  0  0  0  0  0  0
  176.9680   21.8060   49.3660 C   0  0  0  0  0  0  0  0  0  0  0  0
  175.7300   22.2290   48.8960 O   0  0  0  0  0  0  0  0  0  0  0  0
  174.8500   22.8080   49.7750 C   0  0  0  0  0  0  0  0  0  0  0  0
  173.6250   23.2310   49.2580 C   0  0  0  0  0  0  0  0  0  0  0  0
  172.6830   23.8280   50.1000 C   0  0  0  0  0  0  0  0  0  0  0  0
  172.9660   24.0000   51.4560 C   0  0  0  0  0  0  0  0  0  0  0  0
  174.1900   23.5770   51.9690 C   0  0  0  0  0  0  0  0  0  0  0  0
  174.4000   23.7750   53.3060 O   0  0  0  0  0  0  0  0  0  0  0  0
  175.1320   22.9810   51.1270 C   0  0  0  0  0  0  0  0  0  0  0  0
  176.4300   22.5220   51.6260 C   0  0  0  0  0  0  0  0  0  0  0  0
  176.7490   22.6320   52.8070 O   0  0  0  0  0  0  0  0  0  0  0  0
  177.3600   21.9100   50.6490 C   0  0  0  0  0  0  0  0  0  0  0  0
  178.5770   21.4660   51.1320 O   0  0  0  0  0  0  0  0  0  0  0  0
  177.3250   20.1890   47.4740 C   0  0  0  0  0  0  0  0  0  0  0  0
  178.1450   19.6160   46.4990 C   0  0  0  0  0  0  0  0  0  0  0  0
  179.4730   20.0370   46.3360 C   0  0  0  0  0  0  0  0  0  0  0  0
  180.3320   19.3970   45.2740 C   0  0  0  0  0  0  0  0  0  0  0  0
  180.4490   18.0430   45.4140 F   0  0  0  0  0  0  0  0  0  0  0  0
  183.3275   21.5228   47.8286 H   0  0  0  0  0  0  0  0  0  0  0  0
  182.0620   20.4158   48.7247 H   0  0  0  0  0  0  0  0  0  0  0  0
  181.6075   22.2576   46.2889 H   0  0  0  0  0  0  0  0  0  0  0  0
  179.5390   22.4044   48.8088 H   0  0  0  0  0  0  0  0  0  0  0  0
  173.4012   23.0948   48.1897 H   0  0  0  0  0  0  0  0  0  0  0  0
  171.7172   24.1628   49.6937 H   0  0  0  0  0  0  0  0  0  0  0  0
  172.2235   24.4689   52.1185 H   0  0  0  0  0  0  0  0  0  0  0  0
  174.5600   24.6390   53.6330 H   0  0  0  0  0  0  0  0  0  0  0  0
  179.0480   21.9790   51.7590 H   0  0  0  0  0  0  0  0  0  0  0  0
  176.2881   19.8392   47.5861 H   0  0  0  0  0  0  0  0  0  0  0  0
  177.7437   18.8236   45.8501 H   0  0  0  0  0  0  0  0  0  0  0  0
  179.8865   19.6087   44.2908 H   0  0  0  0  0  0  0  0  0  0  0  0
  181.3416   19.8222   45.3732 H   0  0  0  0  0  0  0  0  0  0  0  0
  1  2  2  0
  2  3  1  0
  3  4  2  0
  4  5  1  0
  5  6  1  0
  6  7  1  0
  7  8  1  0
  8  9  2  0
  9 10  1  0
 10 11  2  0
 11 12  1  0
 12 13  1  0
 12 14  2  0
 14 15  1  0
 15 16  2  0
 15 17  1  0
 17 18  1  0
  5 19  2  0
 19 20  1  0
 20 21  2  0
 21 22  1  0
 22 23  1  0
 21  3  1  0
 17  6  2  0
 14  8  1  0
  1 24  1  0
  1 25  1  0
  2 26  1  0
  4 27  1  0
  9 28  1  0
 10 29  1  0
 11 30  1  0
 13 31  1  0
 18 32  1  0
 19 33  1  0
 20 34  1  0
 22 35  1  0
 22 36  1  0
M  END
>  <meeko>  (8) 
{"is_sidechain": [false], "free_energy": -6.953, "intermolecular_energy": -8.737, "internal_energy": -0.281}

$$$$
cand_035_out
     RDKit          3D

 36 38  0  0  0  0  0  0  0  0999 V2000
  177.4550   23.8350   47.7170 C   0  0  0  0  0  0  0  0  0  0  0  0
  177.3370   22.5150   47.5380 C   0  0  0  0  0  0  0  0  0  0  0  0
  178.5040   21.6570   47.3110 C   0  0  0  0  0  0  0  0  0  0  0  0
  179.7510   22.1090   47.7770 C   0  0  0  0  0  0  0  0  0  0  0  0
  180.9160   21.3480   47.5980 C   0  0  0  0  0  0  0  0  0  0  0  0
  182.2140   21.8670   48.0770 C   0  0  0  0  0  0  0  0  0  0  0  0
  182.9230   22.5420   47.0890 O   0  0  0  0  0  0  0  0  0  0  0  0
  184.1480   23.0760   47.3990 C   0  0  0  0  0  0  0  0  0  0  0  0
  184.8310   23.7320   46.3750 C   0  0  0  0  0  0  0  0  0  0  0  0
  186.0820   24.3000   46.6250 C   0  0  0  0  0  0  0  0  0  0  0  0
  186.6490   24.2120   47.8980 C   0  0  0  0  0  0  0  0  0  0  0  0
  185.9660   23.5550   48.9180 C   0  0  0  0  0  0  0  0  0  0  0  0
  186.5790   23.5070   50.1400 O   0  0  0  0  0  0  0  0  0  0  0  0
  184.7130   22.9870   48.6680 C   0  0  0  0  0  0  0  0  0  0  0  0
  183.9620   22.2900   49.7120 C   0  0  0  0  0  0  0  0  0  0  0  0
  184.3910   22.1770   50.8580 O   0  0  0  0  0  0  0  0  0  0  0  0
  182.6470   21.7170   49.3420 C   0  0  0  0  0  0  0  0  0  0  0  0
  181.9380   21.0730   50.3380 O   0  0  0  0  0  0  0  0  0  0  0  0
  180.8140   20.1250   46.9260 C   0  0  0  0  0  0  0  0  0  0  0  0
  179.5800   19.6660   46.4590 C   0  0  0  0  0  0  0  0  0  0  0  0
  178.4130   20.4220   46.6460 C   0  0  0  0  0  0  0  0  0  0  0  0
  177.0960   19.9000   46.1290 C   0  0  0  0  0  0  0  0  0  0  0  0
  176.9840   18.5410   46.2030 F   0  0  0  0  0  0  0  0  0  0  0  0
  176.5583   24.4496   47.8850 H   0  0  0  0  0  0  0  0  0  0  0  0
  178.4488   24.3062   47.6962 H   0  0  0  0  0  0  0  0  0  0  0  0
  176.3358   22.0600   47.5617 H   0  0  0  0  0  0  0  0  0  0  0  0
  179.8146   23.0788   48.2923 H   0  0  0  0  0  0  0  0  0  0  0  0
  184.3849   23.8018   45.3720 H   0  0  0  0  0  0  0  0  0  0  0  0
  186.6215   24.8174   45.8180 H   0  0  0  0  0  0  0  0  0  0  0  0
  187.6337   24.6610   48.0947 H   0  0  0  0  0  0  0  0  0  0  0  0
  187.4940   23.3170   50.1980 H   0  0  0  0  0  0  0  0  0  0  0  0
  182.2620   20.2710   50.7010 H   0  0  0  0  0  0  0  0  0  0  0  0
  181.7165   19.5175   46.7634 H   0  0  0  0  0  0  0  0  0  0  0  0
  179.5225   18.6990   45.9378 H   0  0  0  0  0  0  0  0  0  0  0  0
  176.2859   20.3493   46.7222 H   0  0  0  0  0  0  0  0  0  0  0  0
  177.0337   20.1733   45.0653 H   0  0  0  0  0  0  0  0  0  0  0  0
  1  2  2  0
  2  3  1  0
  3  4  2  0
  4  5  1  0
  5  6  1  0
  6  7  1  0
  7  8  1  0
  8  9  2  0
  9 10  1  0
 10 11  2  0
 11 12  1  0
 12 13  1  0
 12 14  2  0
 14 15  1  0
 15 16  2  0
 15 17  1  0
 17 18  1  0
  5 19  2  0
 19 20  1  0
 20 21  2  0
 21 22  1  0
 22 23  1  0
 21  3  1  0
 17  6  2  0
 14  8  1  0
  1 24  1  0
  1 25  1  0
  2 26  1  0
  4 27  1  0
  9 28  1  0
 10 29  1  0
 11 30  1  0
 13 31  1  0
 18 32  1  0
 19 33  1  0
 20 34  1  0
 22 35  1  0
 22 36  1  0
M  END
>  <meeko>  (9) 
{"is_sidechain": [false], "free_energy": -6.941, "intermolecular_energy": -8.459, "internal_energy": -0.544}

$$$$
