cand_026_out
     RDKit          3D

 41 43  0  0  0  0  0  0  0  0999 V2000
  179.2900   15.0050   45.3370 C   0  0  0  0  0  0  0  0  0  0  0  0
  179.9750   16.2980   44.9860 C   0  0  0  0  0  0  0  0  0  0  0  0
  179.7040   17.4330   45.7760 C   0  0  0  0  0  0  0  0  0  0  0  0
  180.2950   18.6780   45.5120 C   0  0  0  0  0  0  0  0  0  0  0  0
  180.0010   19.8330   46.3860 C   0  0  0  0  0  0  0  0  0  0  0  0
  178.6590   20.1980   46.3660 O   0  0  0  0  0  0  0  0  0  0  0  0
  178.2480   21.2560   47.1340 C   0  0  0  0  0  0  0  0  0  0  0  0
  176.8900   21.5780   47.0950 C   0  0  0  0  0  0  0  0  0  0  0  0
  176.4050   22.6470   47.8520 C   0  0  0  0  0  0  0  0  0  0  0  0
  177.2770   23.3930   48.6480 C   0  0  0  0  0  0  0  0  0  0  0  0
  178.6310   23.0700   48.6860 C   0  0  0  0  0  0  0  0  0  0  0  0
  179.4290   23.8410   49.4850 O   0  0  0  0  0  0  0  0  0  0  0  0
  179.1160   21.9990   47.9280 C   0  0  0  0  0  0  0  0  0  0  0  0
  180.5310   21.6270   47.9390 C   0  0  0  0  0  0  0  0  0  0  0  0
  181.3600   22.2390   48.6080 O   0  0  0  0  0  0  0  0  0  0  0  0
  180.9420   20.4720   47.1070 C   0  0  0  0  0  0  0  0  0  0  0  0
  182.2820   20.1370   47.1150 O   0  0  0  0  0  0  0  0  0  0  0  0
  181.1870   18.7710   44.4420 C   0  0  0  0  0  0  0  0  0  0  0  0
  181.4650   17.6550   43.6470 C   0  0  0  0  0  0  0  0  0  0  0  0
  180.8690   16.4060   43.9000 C   0  0  0  0  0  0  0  0  0  0  0  0
  181.2060   15.2200   43.0030 C   0  0  0  0  0  0  0  0  0  0  0  0
  182.7140   15.1120   42.7560 C   0  0  0  0  0  0  0  0  0  0  0  0
  180.4390   15.2790   41.6770 C   0  0  0  0  0  0  0  0  0  0  0  0
  179.2363   14.9037   46.4310 H   0  0  0  0  0  0  0  0  0  0  0  0
  178.2728   15.0035   44.9183 H   0  0  0  0  0  0  0  0  0  0  0  0
  179.8601   14.1626   44.9183 H   0  0  0  0  0  0  0  0  0  0  0  0
  179.0093   17.3404   46.6238 H   0  0  0  0  0  0  0  0  0  0  0  0
  176.2027   20.9904   46.4687 H   0  0  0  0  0  0  0  0  0  0  0  0
  175.3353   22.9015   47.8212 H   0  0  0  0  0  0  0  0  0  0  0  0
  176.8947   24.2347   49.2442 H   0  0  0  0  0  0  0  0  0  0  0  0
  179.8520   24.6000   49.1320 H   0  0  0  0  0  0  0  0  0  0  0  0
  182.6310   19.6130   47.8100 H   0  0  0  0  0  0  0  0  0  0  0  0
  181.6758   19.7316   44.2223 H   0  0  0  0  0  0  0  0  0  0  0  0
  182.1654   17.7558   42.8048 H   0  0  0  0  0  0  0  0  0  0  0  0
  180.8859   14.3125   43.5358 H   0  0  0  0  0  0  0  0  0  0  0  0
  183.2417   15.0742   43.7204 H   0  0  0  0  0  0  0  0  0  0  0  0
  182.9274   14.1963   42.1851 H   0  0  0  0  0  0  0  0  0  0  0  0
  183.0557   15.9880   42.1851 H   0  0  0  0  0  0  0  0  0  0  0  0
  179.3611   15.3619   41.8803 H   0  0  0  0  0  0  0  0  0  0  0  0
  180.7716   16.1542   41.0996 H   0  0  0  0  0  0  0  0  0  0  0  0
  180.6339   14.3632   41.0996 H   0  0  0  0  0  0  0  0  0  0  0  0
  1  2  1  0
  2  3  2  0
  3  4  1  0
  4  5  1  0
  5  6  1  0
  6  7  1  0
  7  8  2  0
  8  9  1  0
  9 10  2  0
 10 11  1  0
 11 12  1  0
 11 13  2  0
 13 14  1  0
 14 15  2  0
 14 16  1  0
 16 17  1  0
  4 18  2  0
 18 19  1  0
 19 20  2  0
 20 21  1  0
 21 22  1  0
 21 23  1  0
 20  2  1  0
 16  5  2  0
 13  7  1  0
  1 24  1  0
  1 25  1  0
  1 26  1  0
  3 27  1  0
  8 28  1  0
  9 29  1  0
 10 30  1  0
 12 31  1  0
 17 32  1  0
 18 33  1  0
 19 34  1  0
 21 35  1  0
 22 36  1  0
 22 37  1  0
 22 38  1  0
 23 39  1  0
 23 40  1  0
 23 41  1  0
M  END
>  <meeko>  (1) 
{"is_sidechain": [false], "free_energy": -8.236, "intermolecular_energy": -9.681, "internal_energy": -0.47}

$$$$
cand_026_out
     RDKit          3D

 41 43  0  0  0  0  0  0  0  0999 V2000
  174.9020   20.0890   46.9770 C   0  0  0  0  0  0  0  0  0  0  0  0
  176.3820   20.3290   47.1080 C   0  0  0  0  0  0  0  0  0  0  0  0
  177.2610   19.4700   46.4190 C   0  0  0  0  0  0  0  0  0  0  0  0
  178.6540   19.6220   46.4930 C   0  0  0  0  0  0  0  0  0  0  0  0
  179.5350   18.7130   45.7300 C   0  0  0  0  0  0  0  0  0  0  0  0
  179.0980   17.3930   45.7510 O   0  0  0  0  0  0  0  0  0  0  0  0
  179.8240   16.4430   45.0800 C   0  0  0  0  0  0  0  0  0  0  0  0
  179.3410   15.1340   45.1150 C   0  0  0  0  0  0  0  0  0  0  0  0
  180.0340   14.1170   44.4550 C   0  0  0  0  0  0  0  0  0  0  0  0
  181.2100   14.4100   43.7600 C   0  0  0  0  0  0  0  0  0  0  0  0
  181.6900   15.7160   43.7260 C   0  0  0  0  0  0  0  0  0  0  0  0
  182.8460   15.9320   43.0280 O   0  0  0  0  0  0  0  0  0  0  0  0
  180.9950   16.7330   44.3860 C   0  0  0  0  0  0  0  0  0  0  0  0
  181.4650   18.1190   44.3760 C   0  0  0  0  0  0  0  0  0  0  0  0
  182.4940   18.4530   43.7930 O   0  0  0  0  0  0  0  0  0  0  0  0
  180.6530   19.1230   45.1010 C   0  0  0  0  0  0  0  0  0  0  0  0
  181.1120   20.4270   45.0950 O   0  0  0  0  0  0  0  0  0  0  0  0
  179.1640   20.6670   47.2640 C   0  0  0  0  0  0  0  0  0  0  0  0
  178.3050   21.5280   47.9560 C   0  0  0  0  0  0  0  0  0  0  0  0
  176.9080   21.3770   47.8940 C   0  0  0  0  0  0  0  0  0  0  0  0
  176.0150   22.3400   48.6670 C   0  0  0  0  0  0  0  0  0  0  0  0
  176.7180   23.6780   48.9190 C   0  0  0  0  0  0  0  0  0  0  0  0
  175.5270   21.7250   49.9830 C   0  0  0  0  0  0  0  0  0  0  0  0
  174.4523   20.0161   47.9782 H   0  0  0  0  0  0  0  0  0  0  0  0
  174.4422   20.9243   46.4285 H   0  0  0  0  0  0  0  0  0  0  0  0
  174.7297   19.1512   46.4285 H   0  0  0  0  0  0  0  0  0  0  0  0
  176.8436   18.6576   45.8060 H   0  0  0  0  0  0  0  0  0  0  0  0
  178.4150   14.9036   45.6622 H   0  0  0  0  0  0  0  0  0  0  0  0
  179.6539   13.0851   44.4823 H   0  0  0  0  0  0  0  0  0  0  0  0
  181.7562   13.6091   43.2401 H   0  0  0  0  0  0  0  0  0  0  0  0
  183.6750   15.7620   43.4310 H   0  0  0  0  0  0  0  0  0  0  0  0
  180.7000   21.0720   45.6350 H   0  0  0  0  0  0  0  0  0  0  0  0
  180.2520   20.8155   47.3285 H   0  0  0  0  0  0  0  0  0  0  0  0
  178.7317   22.3409   48.5619 H   0  0  0  0  0  0  0  0  0  0  0  0
  175.1324   22.5345   48.0400 H   0  0  0  0  0  0  0  0  0  0  0  0
  176.8069   23.8472   50.0023 H   0  0  0  0  0  0  0  0  0  0  0  0
  177.7210   23.6559   48.4678 H   0  0  0  0  0  0  0  0  0  0  0  0
  176.1308   24.4914   48.4678 H   0  0  0  0  0  0  0  0  0  0  0  0
  175.9638   22.2755   50.8292 H   0  0  0  0  0  0  0  0  0  0  0  0
  174.4299   21.7873   50.0322 H   0  0  0  0  0  0  0  0  0  0  0  0
  175.8370   20.6707   50.0322 H   0  0  0  0  0  0  0  0  0  0  0  0
  1  2  1  0
  2  3  2  0
  3  4  1  0
  4  5  1  0
  5  6  1  0
  6  7  1  0
  7  8  2  0
  8  9  1  0
  9 10  2  0
 10 11  1  0
 11 12  1  0
 11 13  2  0
 13 14  1  0
 14 15  2  0
 14 16  1  0
 16 17  1  0
  4 18  2  0
 18 19  1  0
 19 20  2  0
 20 21  1  0
 21 22  1  0
 21 23  1  0
 20  2  1  0
 16  5  2  0
 13  7  1  0
  1 24  1  0
  1 25  1  0
  1 26  1  0
  3 27  1  0
  8 28  1  0
  9 29  1  0
 10 30  1  0
 12 31  1  0
 17 32  1  0
 18 33  1  0
 19 34  1  0
 21 35  1  0
 22 36  1  0
 22 37  1  0
 22 38  1  0
 23 39  1  0
 23 40  1  0
 23 41  1  0
M  END
>  <meeko>  (2) 
{"is_sidechain": [false], "free_energy": -7.086, "intermolecular_energy": -8.682, "internal_energy": -0.117}

$$$$
cand_026_out
     RDKit          3D

 41 43  0  0  0  0  0  0  0  0999 V2000
  182.4900   17.4850   42.9300 C   0  0  0  0  0  0  0  0  0  0  0  0
  181.3840   17.3810   43.9460 C   0  0  0  0  0  0  0  0  0  0  0  0
  181.1080   18.5060   44.7500 C   0  0  0  0  0  0  0  0  0  0  0  0
  180.0990   18.4900   45.7240 C   0  0  0  0  0  0  0  0  0  0  0  0
  179.8290   19.7030   46.5240 C   0  0  0  0  0  0  0  0  0  0  0  0
  178.4890   20.0740   46.5080 O   0  0  0  0  0  0  0  0  0  0  0  0
  178.0990   21.1840   47.2120 C   0  0  0  0  0  0  0  0  0  0  0  0
  176.7420   21.5090   47.1800 C   0  0  0  0  0  0  0  0  0  0  0  0
  176.2780   22.6300   47.8740 C   0  0  0  0  0  0  0  0  0  0  0  0
  177.1710   23.4230   48.5980 C   0  0  0  0  0  0  0  0  0  0  0  0
  178.5240   23.0960   48.6290 C   0  0  0  0  0  0  0  0  0  0  0  0
  179.3420   23.9150   49.3570 O   0  0  0  0  0  0  0  0  0  0  0  0
  178.9870   21.9740   47.9350 C   0  0  0  0  0  0  0  0  0  0  0  0
  180.4010   21.5950   47.9400 C   0  0  0  0  0  0  0  0  0  0  0  0
  181.2470   22.2460   48.5480 O   0  0  0  0  0  0  0  0  0  0  0  0
  180.7880   20.3840   47.1790 C   0  0  0  0  0  0  0  0  0  0  0  0
  182.1270   20.0430   47.1810 O   0  0  0  0  0  0  0  0  0  0  0  0
  179.3470   17.3240   45.8770 C   0  0  0  0  0  0  0  0  0  0  0  0
  179.6090   16.1990   45.0890 C   0  0  0  0  0  0  0  0  0  0  0  0
  180.6250   16.2040   44.1150 C   0  0  0  0  0  0  0  0  0  0  0  0
  180.8720   14.9510   43.2830 C   0  0  0  0  0  0  0  0  0  0  0  0
  180.5370   15.1820   41.8060 C   0  0  0  0  0  0  0  0  0  0  0  0
  180.1010   13.7460   43.8340 C   0  0  0  0  0  0  0  0  0  0  0  0
  183.4562   17.5759   43.4478 H   0  0  0  0  0  0  0  0  0  0  0  0
  182.4950   16.5834   42.2999 H   0  0  0  0  0  0  0  0  0  0  0  0
  182.3269   18.3718   42.2999 H   0  0  0  0  0  0  0  0  0  0  0  0
  181.7007   19.4219   44.6093 H   0  0  0  0  0  0  0  0  0  0  0  0
  176.0390   20.8841   46.6097 H   0  0  0  0  0  0  0  0  0  0  0  0
  175.2089   22.8878   47.8499 H   0  0  0  0  0  0  0  0  0  0  0  0
  176.8056   24.3055   49.1435 H   0  0  0  0  0  0  0  0  0  0  0  0
  179.7500   24.6530   48.9470 H   0  0  0  0  0  0  0  0  0  0  0  0
  182.7820   20.7100   47.1080 H   0  0  0  0  0  0  0  0  0  0  0  0
  178.5407   17.2898   46.6245 H   0  0  0  0  0  0  0  0  0  0  0  0
  179.0074   15.2895   45.2336 H   0  0  0  0  0  0  0  0  0  0  0  0
  181.9459   14.7240   43.3545 H   0  0  0  0  0  0  0  0  0  0  0  0
  179.6337   15.8049   41.7280 H   0  0  0  0  0  0  0  0  0  0  0  0
  181.3782   15.6929   41.3148 H   0  0  0  0  0  0  0  0  0  0  0  0
  180.3585   14.2141   41.3148 H   0  0  0  0  0  0  0  0  0  0  0  0
  180.1175   13.7718   44.9336 H   0  0  0  0  0  0  0  0  0  0  0  0
  179.0596   13.7848   43.4819 H   0  0  0  0  0  0  0  0  0  0  0  0
  180.5727   12.8167   43.4819 H   0  0  0  0  0  0  0  0  0  0  0  0
  1  2  1  0
  2  3  2  0
  3  4  1  0
  4  5  1  0
  5  6  1  0
  6  7  1  0
  7  8  2  0
  8  9  1  0
  9 10  2  0
 10 11  1  0
 11 12  1  0
 11 13  2  0
 13 14  1  0
 14 15  2  0
 14 16  1  0
 16 17  1  0
  4 18  2  0
 18 19  1  0
 19 20  2  0
 20 21  1  0
 21 22  1  0
 21 23  1  0
 20  2  1  0
 16  5  2  0
 13  7  1  0
  1 24  1  0
  1 25  1  0
  1 26  1  0
  3 27  1  0
  8 28  1  0
  9 29  1  0
 10 30  1  0
 12 31  1  0
 17 32  1  0
 18 33  1  0
 19 34  1  0
 21 35  1  0
 22 36  1  0
 22 37  1  0
 22 38  1  0
 23 39  1  0
 23 40  1  0
 23 41  1  0
M  END
>  <meeko>  (3) 
{"is_sidechain": [false], "free_energy": -6.51, "intermolecular_energy": -8.091, "internal_energy": -0.031}

$$$$
cand_026_out
     RDKit          3D

 41 43  0  0  0  0  0  0  0  0999 V2000
  179.4210   15.1360   45.2580 C   0  0  0  0  0  0  0  0  0  0  0  0
  179.7360   16.6030   45.1420 C   0  0  0  0  0  0  0  0  0  0  0  0
  178.9190   17.5180   45.8340 C   0  0  0  0  0  0  0  0  0  0  0  0
  179.1400   18.9020   45.7740 C   0  0  0  0  0  0  0  0  0  0  0  0
  178.2720   19.8210   46.5400 C   0  0  0  0  0  0  0  0  0  0  0  0
  178.9250   20.9870   46.9250 O   0  0  0  0  0  0  0  0  0  0  0  0
  178.2340   21.9290   47.6420 C   0  0  0  0  0  0  0  0  0  0  0  0
  178.9250   23.0890   47.9950 C   0  0  0  0  0  0  0  0  0  0  0  0
  178.2800   24.0880   48.7280 C   0  0  0  0  0  0  0  0  0  0  0  0
  176.9460   23.9260   49.1080 C   0  0  0  0  0  0  0  0  0  0  0  0
  176.2590   22.7680   48.7550 C   0  0  0  0  0  0  0  0  0  0  0  0
  174.9560   22.6740   49.1600 O   0  0  0  0  0  0  0  0  0  0  0  0
  176.9040   21.7690   48.0210 C   0  0  0  0  0  0  0  0  0  0  0  0
  176.2190   20.5360   47.6290 C   0  0  0  0  0  0  0  0  0  0  0  0
  175.0480   20.3180   47.9330 O   0  0  0  0  0  0  0  0  0  0  0  0
  176.9900   19.5430   46.8460 C   0  0  0  0  0  0  0  0  0  0  0  0
  176.3370   18.3770   46.4920 O   0  0  0  0  0  0  0  0  0  0  0  0
  180.2140   19.3660   45.0130 C   0  0  0  0  0  0  0  0  0  0  0  0
  181.0350   18.4720   44.3190 C   0  0  0  0  0  0  0  0  0  0  0  0
  180.8140   17.0830   44.3670 C   0  0  0  0  0  0  0  0  0  0  0  0
  181.7360   16.1500   43.5910 C   0  0  0  0  0  0  0  0  0  0  0  0
  181.3100   16.0320   42.1240 C   0  0  0  0  0  0  0  0  0  0  0  0
  181.8230   14.7670   44.2460 C   0  0  0  0  0  0  0  0  0  0  0  0
  179.3610   14.8567   46.3203 H   0  0  0  0  0  0  0  0  0  0  0  0
  178.4577   14.9280   44.7693 H   0  0  0  0  0  0  0  0  0  0  0  0
  180.2140   14.5509   44.7693 H   0  0  0  0  0  0  0  0  0  0  0  0
  178.0834   17.1363   46.4391 H   0  0  0  0  0  0  0  0  0  0  0  0
  179.9760   23.2164   47.6965 H   0  0  0  0  0  0  0  0  0  0  0  0
  178.8233   25.0031   49.0061 H   0  0  0  0  0  0  0  0  0  0  0  0
  176.4387   24.7127   49.6857 H   0  0  0  0  0  0  0  0  0  0  0  0
  174.3760   22.0730   48.7350 H   0  0  0  0  0  0  0  0  0  0  0  0
  175.4680   18.4140   46.1420 H   0  0  0  0  0  0  0  0  0  0  0  0
  180.4166   20.4458   44.9587 H   0  0  0  0  0  0  0  0  0  0  0  0
  181.8722   18.8630   43.7222 H   0  0  0  0  0  0  0  0  0  0  0  0
  182.7409   16.5966   43.6165 H   0  0  0  0  0  0  0  0  0  0  0  0
  180.2511   15.7387   42.0721 H   0  0  0  0  0  0  0  0  0  0  0  0
  181.4468   17.0019   41.6233 H   0  0  0  0  0  0  0  0  0  0  0  0
  181.9263   15.2707   41.6233 H   0  0  0  0  0  0  0  0  0  0  0  0
  181.8160   14.8785   45.3403 H   0  0  0  0  0  0  0  0  0  0  0  0
  180.9614   14.1586   43.9339 H   0  0  0  0  0  0  0  0  0  0  0  0
  182.7541   14.2714   43.9339 H   0  0  0  0  0  0  0  0  0  0  0  0
  1  2  1  0
  2  3  2  0
  3  4  1  0
  4  5  1  0
  5  6  1  0
  6  7  1  0
  7  8  2  0
  8  9  1  0
  9 10  2  0
 10 11  1  0
 11 12  1  0
 11 13  2  0
 13 14  1  0
 14 15  2  0
 14 16  1  0
 16 17  1  0
  4 18  2  0
 18 19  1  0
 19 20  2  0
 20 21  1  0
 21 22  1  0
 21 23  1  0
 20  2  1  0
 16  5  2  0
 13  7  1  0
  1 24  1  0
  1 25  1  0
  1 26  1  0
  3 27  1  0
  8 28  1  0
  9 29  1  0
 10 30  1  0
 12 31  1  0
 17 32  1  0
 18 33  1  0
 19 34  1  0
 21 35  1  0
 22 36  1  0
 22 37  1  0
 22 38  1  0
 23 39  1  0
 23 40  1  0
 23 41  1  0
M  END
>  <meeko>  (4) 
{"is_sidechain": [false], "free_energy": -5.503, "intermolecular_energy": -8.031, "internal_energy": 1.093}

$$$$
