cand_056_out
     RDKit          3D

 50 53  0  0  0  0  0  0  0  0999 V2000
  175.7290   23.5600   49.4510 C   0  0  0  0  0  0  0  0  0  0  0  0
  177.1040   23.2470   49.0640 N   0  0  0  0  0  0  0  0  0  0  0  0
  177.3220   21.7810   49.0630 C   0  0  0  0  0  0  0  0  0  0  0  0
  178.7490   21.3970   48.6040 C   0  0  0  0  0  0  0  0  0  0  0  0
  179.0120   21.9570   47.2580 N   0  0  0  0  0  0  0  0  0  0  0  0
  180.2400   21.5460   46.7080 C   0  0  0  0  0  0  0  0  0  0  0  0
  181.3810   22.3710   46.7350 C   0  0  0  0  0  0  0  0  0  0  0  0
  182.6080   21.9570   46.1950 C   0  0  0  0  0  0  0  0  0  0  0  0
  183.7960   22.8350   46.2090 C   0  0  0  0  0  0  0  0  0  0  0  0
  184.0500   23.3830   47.4610 O   0  0  0  0  0  0  0  0  0  0  0  0
  185.1280   24.2160   47.6130 C   0  0  0  0  0  0  0  0  0  0  0  0
  185.3540   24.7320   48.8910 C   0  0  0  0  0  0  0  0  0  0  0  0
  186.4330   25.5900   49.1140 C   0  0  0  0  0  0  0  0  0  0  0  0
  187.2850   25.9320   48.0610 C   0  0  0  0  0  0  0  0  0  0  0  0
  187.0580   25.4160   46.7890 C   0  0  0  0  0  0  0  0  0  0  0  0
  187.9300   25.7920   45.8040 O   0  0  0  0  0  0  0  0  0  0  0  0
  185.9780   24.5570   46.5650 C   0  0  0  0  0  0  0  0  0  0  0  0
  185.7020   23.9940   45.2430 C   0  0  0  0  0  0  0  0  0  0  0  0
  186.4020   24.2520   44.2660 O   0  0  0  0  0  0  0  0  0  0  0  0
  184.5370   23.0880   45.1140 C   0  0  0  0  0  0  0  0  0  0  0  0
  184.2770   22.5710   43.8590 O   0  0  0  0  0  0  0  0  0  0  0  0
  182.6800   20.6950   45.5980 C   0  0  0  0  0  0  0  0  0  0  0  0
  181.5590   19.8650   45.5580 C   0  0  0  0  0  0  0  0  0  0  0  0
  180.3330   20.2770   46.1100 C   0  0  0  0  0  0  0  0  0  0  0  0
  179.1360   19.3590   46.0560 C   0  0  0  0  0  0  0  0  0  0  0  0
  179.4130   18.1680   45.4380 F   0  0  0  0  0  0  0  0  0  0  0  0
  178.0800   19.8730   45.3610 F   0  0  0  0  0  0  0  0  0  0  0  0
  178.6550   19.0080   47.2850 F   0  0  0  0  0  0  0  0  0  0  0  0
  178.8260   23.4270   47.2360 C   0  0  0  0  0  0  0  0  0  0  0  0
  177.3990   23.7850   47.7150 C   0  0  0  0  0  0  0  0  0  0  0  0
  175.6519   23.5776   50.5482 H   0  0  0  0  0  0  0  0  0  0  0  0
  175.4498   24.5447   49.0480 H   0  0  0  0  0  0  0  0  0  0  0  0
  175.0511   22.7932   49.0480 H   0  0  0  0  0  0  0  0  0  0  0  0
  177.7280   23.6810   49.7450 H   0  0  0  0  0  0  0  0  0  0  0  0
  177.1644   21.3998   50.0827 H   0  0  0  0  0  0  0  0  0  0  0  0
  176.6101   21.3366   48.3519 H   0  0  0  0  0  0  0  0  0  0  0  0
  179.4828   21.8008   49.3171 H   0  0  0  0  0  0  0  0  0  0  0  0
  178.8346   20.3011   48.5640 H   0  0  0  0  0  0  0  0  0  0  0  0
  181.3082   23.3686   47.1926 H   0  0  0  0  0  0  0  0  0  0  0  0
  184.6833   24.4631   49.7204 H   0  0  0  0  0  0  0  0  0  0  0  0
  186.6123   25.9971   50.1200 H   0  0  0  0  0  0  0  0  0  0  0  0
  188.1343   26.6084   48.2373 H   0  0  0  0  0  0  0  0  0  0  0  0
  188.1040   26.7010   45.6550 H   0  0  0  0  0  0  0  0  0  0  0  0
  183.7030   23.0260   43.2740 H   0  0  0  0  0  0  0  0  0  0  0  0
  183.6278   20.3536   45.1563 H   0  0  0  0  0  0  0  0  0  0  0  0
  181.6355   18.8736   45.0876 H   0  0  0  0  0  0  0  0  0  0  0  0
  179.5633   23.8979   47.9028 H   0  0  0  0  0  0  0  0  0  0  0  0
  178.9657   23.7942   46.2085 H   0  0  0  0  0  0  0  0  0  0  0  0
  177.2999   24.8802   47.7421 H   0  0  0  0  0  0  0  0  0  0  0  0
  176.6855   23.3329   47.0103 H   0  0  0  0  0  0  0  0  0  0  0  0
  1  2  1  0
  2  3  1  0
  3  4  1  0
  4  5  1  0
  5  6  1  0
  6  7  2  0
  7  8  1  0
  8  9  1  0
  9 10  1  0
 10 11  1  0
 11 12  2  0
 12 13  1  0
 13 14  2  0
 14 15  1  0
 15 16  1  0
 15 17  2  0
 17 18  1  0
 18 19  2  0
 18 20  1  0
 20 21  1  0
  8 22  2  0
 22 23  1  0
 23 24  2  0
 24 25  1  0
 25 26  1  0
 25 27  1  0
 25 28  1  0
  5 29  1  0
 29 30  1  0
 30  2  1  0
 24  6  1  0
 20  9  2  0
 17 11  1  0
  1 31  1  0
  1 32  1  0
  1 33  1  0
  2 34  1  0
  3 35  1  0
  3 36  1  0
  4 37  1  0
  4 38  1  0
  7 39  1  0
 12 40  1  0
 13 41  1  0
 14 42  1  0
 16 43  1  0
 21 44  1  0
 22 45  1  0
 23 46  1  0
 29 47  1  0
 29 48  1  0
 30 49  1  0
 30 50  1  0
M  CHG  1   2   1
M  END
>  <meeko>  (1) 
{"is_sidechain": [false], "free_energy": -6.17, "intermolecular_energy": -7.613, "internal_energy": 0.135}

$$$$
cand_056_out
     RDKit          3D

 50 53  0  0  0  0  0  0  0  0999 V2000
  175.7790   23.8230   49.5170 C   0  0  0  0  0  0  0  0  0  0  0  0
  177.0990   23.3810   49.0680 N   0  0  0  0  0  0  0  0  0  0  0  0
  177.2080   21.9060   49.1490 C   0  0  0  0  0  0  0  0  0  0  0  0
  178.5710   21.3860   48.6300 C   0  0  0  0  0  0  0  0  0  0  0  0
  178.7850   21.8410   47.2370 N   0  0  0  0  0  0  0  0  0  0  0  0
  179.9400   21.3040   46.6410 C   0  0  0  0  0  0  0  0  0  0  0  0
  181.1430   22.0310   46.5620 C   0  0  0  0  0  0  0  0  0  0  0  0
  182.2990   21.4920   45.9770 C   0  0  0  0  0  0  0  0  0  0  0  0
  183.5530   22.2670   45.8800 C   0  0  0  0  0  0  0  0  0  0  0  0
  184.1910   22.1150   44.6550 O   0  0  0  0  0  0  0  0  0  0  0  0
  185.3670   22.7830   44.4320 C   0  0  0  0  0  0  0  0  0  0  0  0
  185.9650   22.6120   43.1820 C   0  0  0  0  0  0  0  0  0  0  0  0
  187.1670   23.2620   42.8920 C   0  0  0  0  0  0  0  0  0  0  0  0
  187.7700   24.0810   43.8490 C   0  0  0  0  0  0  0  0  0  0  0  0
  187.1710   24.2490   45.0950 C   0  0  0  0  0  0  0  0  0  0  0  0
  187.8150   25.0630   45.9860 O   0  0  0  0  0  0  0  0  0  0  0  0
  185.9690   23.5990   45.3860 C   0  0  0  0  0  0  0  0  0  0  0  0
  185.3070   23.7470   46.6830 C   0  0  0  0  0  0  0  0  0  0  0  0
  185.7790   24.4440   47.5790 O   0  0  0  0  0  0  0  0  0  0  0  0
  184.0320   23.0220   46.8880 C   0  0  0  0  0  0  0  0  0  0  0  0
  183.4210   23.1580   48.1200 O   0  0  0  0  0  0  0  0  0  0  0  0
  182.2340   20.2020   45.4420 C   0  0  0  0  0  0  0  0  0  0  0  0
  181.0490   19.4670   45.5070 C   0  0  0  0  0  0  0  0  0  0  0  0
  179.8950   20.0060   46.1050 C   0  0  0  0  0  0  0  0  0  0  0  0
  178.6270   19.1890   46.1650 C   0  0  0  0  0  0  0  0  0  0  0  0
  178.1030   19.1220   47.4280 F   0  0  0  0  0  0  0  0  0  0  0  0
  178.7950   17.8870   45.7890 F   0  0  0  0  0  0  0  0  0  0  0  0
  177.6150   19.6850   45.3950 F   0  0  0  0  0  0  0  0  0  0  0  0
  178.7060   23.3180   47.1310 C   0  0  0  0  0  0  0  0  0  0  0  0
  177.3430   23.8120   47.6710 C   0  0  0  0  0  0  0  0  0  0  0  0
  175.7500   23.8327   50.6166 H   0  0  0  0  0  0  0  0  0  0  0  0
  175.5823   24.8360   49.1360 H   0  0  0  0  0  0  0  0  0  0  0  0
  175.0120   23.1327   49.1360 H   0  0  0  0  0  0  0  0  0  0  0  0
  177.7960   23.8070   49.6790 H   0  0  0  0  0  0  0  0  0  0  0  0
  177.0896   21.6001   50.1989 H   0  0  0  0  0  0  0  0  0  0  0  0
  176.4204   21.4758   48.5129 H   0  0  0  0  0  0  0  0  0  0  0  0
  179.3774   21.7750   49.2690 H   0  0  0  0  0  0  0  0  0  0  0  0
  178.5739   20.2863   48.6570 H   0  0  0  0  0  0  0  0  0  0  0  0
  181.1778   23.0516   46.9709 H   0  0  0  0  0  0  0  0  0  0  0  0
  185.4908   21.9671   42.4275 H   0  0  0  0  0  0  0  0  0  0  0  0
  187.6396   23.1284   41.9077 H   0  0  0  0  0  0  0  0  0  0  0  0
  188.7163   24.5925   43.6191 H   0  0  0  0  0  0  0  0  0  0  0  0
  188.5510   25.5730   45.7070 H   0  0  0  0  0  0  0  0  0  0  0  0
  183.9220   23.0540   48.9050 H   0  0  0  0  0  0  0  0  0  0  0  0
  183.1233   19.7629   44.9663 H   0  0  0  0  0  0  0  0  0  0  0  0
  181.0169   18.4518   45.0846 H   0  0  0  0  0  0  0  0  0  0  0  0
  179.5174   23.7700   47.7204 H   0  0  0  0  0  0  0  0  0  0  0  0
  178.8054   23.6114   46.0755 H   0  0  0  0  0  0  0  0  0  0  0  0
  177.3250   24.9112   47.6322 H   0  0  0  0  0  0  0  0  0  0  0  0
  176.5542   23.3735   47.0421 H   0  0  0  0  0  0  0  0  0  0  0  0
  1  2  1  0
  2  3  1  0
  3  4  1  0
  4  5  1  0
  5  6  1  0
  6  7  2  0
  7  8  1  0
  8  9  1  0
  9 10  1  0
 10 11  1  0
 11 12  2  0
 12 13  1  0
 13 14  2  0
 14 15  1  0
 15 16  1  0
 15 17  2  0
 17 18  1  0
 18 19  2  0
 18 20  1  0
 20 21  1  0
  8 22  2  0
 22 23  1  0
 23 24  2  0
 24 25  1  0
 25 26  1  0
 25 27  1  0
 25 28  1  0
  5 29  1  0
 29 30  1  0
 30  2  1  0
 24  6  1  0
 20  9  2  0
 17 11  1  0
  1 31  1  0
  1 32  1  0
  1 33  1  0
  2 34  1  0
  3 35  1  0
  3 36  1  0
  4 37  1  0
  4 38  1  0
  7 39  1  0
 12 40  1  0
 13 41  1  0
 14 42  1  0
 16 43  1  0
 21 44  1  0
 22 45  1  0
 23 46  1  0
 29 47  1  0
 29 48  1  0
 30 49  1  0
 30 50  1  0
M  CHG  1   2   1
M  END
>  <meeko>  (2) 
{"is_sidechain": [false], "free_energy": -5.895, "intermolecular_energy": -7.51, "internal_energy": 0.371}

$$$$
cand_056_out
     RDKit          3D

 50 53  0  0  0  0  0  0  0  0999 V2000
  187.9300   21.8740   40.1440 C   0  0  0  0  0  0  0  0  0  0  0  0
  186.9230   21.8410   41.2040 N   0  0  0  0  0  0  0  0  0  0  0  0
  187.5130   21.3370   42.4660 C   0  0  0  0  0  0  0  0  0  0  0  0
  186.4980   21.3380   43.6340 C   0  0  0  0  0  0  0  0  0  0  0  0
  185.9570   22.7040   43.8290 N   0  0  0  0  0  0  0  0  0  0  0  0
  185.1240   22.8230   44.9560 C   0  0  0  0  0  0  0  0  0  0  0  0
  183.8970   22.1410   45.0500 C   0  0  0  0  0  0  0  0  0  0  0  0
  183.0710   22.2520   46.1780 C   0  0  0  0  0  0  0  0  0  0  0  0
  181.7740   21.5480   46.2620 C   0  0  0  0  0  0  0  0  0  0  0  0
  180.8060   22.2750   46.9440 O   0  0  0  0  0  0  0  0  0  0  0  0
  179.5550   21.7360   47.0940 C   0  0  0  0  0  0  0  0  0  0  0  0
  178.6100   22.5070   47.7730 C   0  0  0  0  0  0  0  0  0  0  0  0
  177.3160   22.0160   47.9620 C   0  0  0  0  0  0  0  0  0  0  0  0
  176.9680   20.7540   47.4730 C   0  0  0  0  0  0  0  0  0  0  0  0
  177.9120   19.9870   46.7970 C   0  0  0  0  0  0  0  0  0  0  0  0
  177.5050   18.7610   46.3460 O   0  0  0  0  0  0  0  0  0  0  0  0
  179.2070   20.4790   46.6070 C   0  0  0  0  0  0  0  0  0  0  0  0
  180.2300   19.7050   45.9030 C   0  0  0  0  0  0  0  0  0  0  0  0
  180.0030   18.5850   45.4500 O   0  0  0  0  0  0  0  0  0  0  0  0
  181.5680   20.3200   45.7490 C   0  0  0  0  0  0  0  0  0  0  0  0
  182.5320   19.5760   45.0940 O   0  0  0  0  0  0  0  0  0  0  0  0
  183.4800   23.0840   47.2240 C   0  0  0  0  0  0  0  0  0  0  0  0
  184.6920   23.7730   47.1480 C   0  0  0  0  0  0  0  0  0  0  0  0
  185.5250   23.6500   46.0200 C   0  0  0  0  0  0  0  0  0  0  0  0
  186.8320   24.4030   45.9640 C   0  0  0  0  0  0  0  0  0  0  0  0
  187.0430   25.1750   47.0750 F   0  0  0  0  0  0  0  0  0  0  0  0
  186.9190   25.2740   44.9160 F   0  0  0  0  0  0  0  0  0  0  0  0
  187.9300   23.5960   45.8880 F   0  0  0  0  0  0  0  0  0  0  0  0
  185.3370   23.2240   42.5870 C   0  0  0  0  0  0  0  0  0  0  0  0
  186.3680   23.1960   41.4330 C   0  0  0  0  0  0  0  0  0  0  0  0
  188.9338   21.9069   40.5927 H   0  0  0  0  0  0  0  0  0  0  0  0
  187.8362   20.9723   39.5210 H   0  0  0  0  0  0  0  0  0  0  0  0
  187.7774   22.7676   39.5210 H   0  0  0  0  0  0  0  0  0  0  0  0
  186.1740   21.2150   40.9060 H   0  0  0  0  0  0  0  0  0  0  0  0
  187.8649   20.3074   42.3048 H   0  0  0  0  0  0  0  0  0  0  0  0
  188.3405   22.0078   42.7405 H   0  0  0  0  0  0  0  0  0  0  0  0
  185.6731   20.6485   43.4013 H   0  0  0  0  0  0  0  0  0  0  0  0
  187.0044   21.0134   44.5550 H   0  0  0  0  0  0  0  0  0  0  0  0
  183.5761   21.5019   44.2142 H   0  0  0  0  0  0  0  0  0  0  0  0
  178.8840   23.5000   48.1588 H   0  0  0  0  0  0  0  0  0  0  0  0
  176.5704   22.6232   48.4962 H   0  0  0  0  0  0  0  0  0  0  0  0
  175.9491   20.3674   47.6223 H   0  0  0  0  0  0  0  0  0  0  0  0
  176.6780   18.4140   46.6170 H   0  0  0  0  0  0  0  0  0  0  0  0
  182.5220   18.6410   45.1520 H   0  0  0  0  0  0  0  0  0  0  0  0
  182.8425   23.1968   48.1133 H   0  0  0  0  0  0  0  0  0  0  0  0
  185.0003   24.4212   47.9815 H   0  0  0  0  0  0  0  0  0  0  0  0
  184.4734   22.5971   42.3201 H   0  0  0  0  0  0  0  0  0  0  0  0
  185.0067   24.2600   42.7530 H   0  0  0  0  0  0  0  0  0  0  0  0
  185.8749   23.5363   40.5105 H   0  0  0  0  0  0  0  0  0  0  0  0
  187.2017   23.8572   41.7120 H   0  0  0  0  0  0  0  0  0  0  0  0
  1  2  1  0
  2  3  1  0
  3  4  1  0
  4  5  1  0
  5  6  1  0
  6  7  2  0
  7  8  1  0
  8  9  1  0
  9 10  1  0
 10 11  1  0
 11 12  2  0
 12 13  1  0
 13 14  2  0
 14 15  1  0
 15 16  1  0
 15 17  2  0
 17 18  1  0
 18 19  2  0
 18 20  1  0
 20 21  1  0
  8 22  2  0
 22 23  1  0
 23 24  2  0
 24 25  1  0
 25 26  1  0
 25 27  1  0
 25 28  1  0
  5 29  1  0
 29 30  1  0
 30  2  1  0
 24  6  1  0
 20  9  2  0
 17 11  1  0
  1 31  1  0
  1 32  1  0
  1 33  1  0
  2 34  1  0
  3 35  1  0
  3 36  1  0
  4 37  1  0
  4 38  1  0
  7 39  1  0
 12 40  1  0
 13 41  1  0
 14 42  1  0
 16 43  1  0
 21 44  1  0
 22 45  1  0
 23 46  1  0
 29 47  1  0
 29 48  1  0
 30 49  1  0
 30 50  1  0
M  CHG  1   2   1
M  END
>  <meeko>  (3) 
{"is_sidechain": [false], "free_energy": -5.895, "intermolecular_energy": -6.741, "internal_energy": -0.397}

$$$$
cand_056_out
     RDKit          3D

 50 53  0  0  0  0  0  0  0  0999 V2000
  187.0450   26.8120   50.7110 C   0  0  0  0  0  0  0  0  0  0  0  0
  186.2090   25.9000   49.9320 N   0  0  0  0  0  0  0  0  0  0  0  0
  185.7130   26.5700   48.7060 C   0  0  0  0  0  0  0  0  0  0  0  0
  184.8680   25.6250   47.8180 C   0  0  0  0  0  0  0  0  0  0  0  0
  185.6610   24.4250   47.4630 N   0  0  0  0  0  0  0  0  0  0  0  0
  185.0150   23.5740   46.5490 C   0  0  0  0  0  0  0  0  0  0  0  0
  183.7530   23.0120   46.8200 C   0  0  0  0  0  0  0  0  0  0  0  0
  183.1040   22.1710   45.9050 C   0  0  0  0  0  0  0  0  0  0  0  0
  181.7870   21.5690   46.2020 C   0  0  0  0  0  0  0  0  0  0  0  0
  180.9750   22.3960   46.9690 O   0  0  0  0  0  0  0  0  0  0  0  0
  179.7230   21.9570   47.3160 C   0  0  0  0  0  0  0  0  0  0  0  0
  178.9350   22.8260   48.0730 C   0  0  0  0  0  0  0  0  0  0  0  0
  177.6500   22.4410   48.4620 C   0  0  0  0  0  0  0  0  0  0  0  0
  177.1540   21.1880   48.0950 C   0  0  0  0  0  0  0  0  0  0  0  0
  177.9410   20.3240   47.3390 C   0  0  0  0  0  0  0  0  0  0  0  0
  177.3940   19.1120   47.0150 O   0  0  0  0  0  0  0  0  0  0  0  0
  179.2270   20.7100   46.9500 C   0  0  0  0  0  0  0  0  0  0  0  0
  180.0880   19.8310   46.1570 C   0  0  0  0  0  0  0  0  0  0  0  0
  179.7250   18.7120   45.8010 O   0  0  0  0  0  0  0  0  0  0  0  0
  181.4300   20.3380   45.7890 C   0  0  0  0  0  0  0  0  0  0  0  0
  182.2410   19.4970   45.0510 O   0  0  0  0  0  0  0  0  0  0  0  0
  183.7490   21.8730   44.7000 C   0  0  0  0  0  0  0  0  0  0  0  0
  185.0030   22.4170   44.4150 C   0  0  0  0  0  0  0  0  0  0  0  0
  185.6470   23.2700   45.3310 C   0  0  0  0  0  0  0  0  0  0  0  0
  187.0010   23.8480   44.9970 C   0  0  0  0  0  0  0  0  0  0  0  0
  187.5600   23.2700   43.8880 F   0  0  0  0  0  0  0  0  0  0  0  0
  187.9280   23.6770   45.9830 F   0  0  0  0  0  0  0  0  0  0  0  0
  186.9750   25.1840   44.7170 F   0  0  0  0  0  0  0  0  0  0  0  0
  186.1490   23.7210   48.6730 C   0  0  0  0  0  0  0  0  0  0  0  0
  186.9760   24.6910   49.5500 C   0  0  0  0  0  0  0  0  0  0  0  0
  186.8813   26.6334   51.7840 H   0  0  0  0  0  0  0  0  0  0  0  0
  188.1034   26.6375   50.4676 H   0  0  0  0  0  0  0  0  0  0  0  0
  186.7793   27.8513   50.4676 H   0  0  0  0  0  0  0  0  0  0  0  0
  185.4160   25.6280   50.5130 H   0  0  0  0  0  0  0  0  0  0  0  0
  185.0913   27.4287   48.9996 H   0  0  0  0  0  0  0  0  0  0  0  0
  186.5880   26.8876   48.1200 H   0  0  0  0  0  0  0  0  0  0  0  0
  183.9664   25.3170   48.3677 H   0  0  0  0  0  0  0  0  0  0  0  0
  184.5794   26.1541   46.8978 H   0  0  0  0  0  0  0  0  0  0  0  0
  183.2618   23.2393   47.7776 H   0  0  0  0  0  0  0  0  0  0  0  0
  179.3257   23.8126   48.3627 H   0  0  0  0  0  0  0  0  0  0  0  0
  177.0281   23.1252   49.0579 H   0  0  0  0  0  0  0  0  0  0  0  0
  176.1426   20.8843   48.4030 H   0  0  0  0  0  0  0  0  0  0  0  0
  177.7560   18.3250   47.3720 H   0  0  0  0  0  0  0  0  0  0  0  0
  181.9900   19.2450   44.1840 H   0  0  0  0  0  0  0  0  0  0  0  0
  183.2649   21.2055   43.9719 H   0  0  0  0  0  0  0  0  0  0  0  0
  185.4946   22.1755   43.4611 H   0  0  0  0  0  0  0  0  0  0  0  0
  185.2894   23.3501   49.2506 H   0  0  0  0  0  0  0  0  0  0  0  0
  186.7851   22.8768   48.3686 H   0  0  0  0  0  0  0  0  0  0  0  0
  187.2843   24.1643   50.4652 H   0  0  0  0  0  0  0  0  0  0  0  0
  187.8456   25.0176   48.9608 H   0  0  0  0  0  0  0  0  0  0  0  0
  1  2  1  0
  2  3  1  0
  3  4  1  0
  4  5  1  0
  5  6  1  0
  6  7  2  0
  7  8  1  0
  8  9  1  0
  9 10  1  0
 10 11  1  0
 11 12  2  0
 12 13  1  0
 13 14  2  0
 14 15  1  0
 15 16  1  0
 15 17  2  0
 17 18  1  0
 18 19  2  0
 18 20  1  0
 20 21  1  0
  8 22  2  0
 22 23  1  0
 23 24  2  0
 24 25  1  0
 25 26  1  0
 25 27  1  0
 25 28  1  0
  5 29  1  0
 29 30  1  0
 30  2  1  0
 24  6  1  0
 20  9  2  0
 17 11  1  0
  1 31  1  0
  1 32  1  0
  1 33  1  0
  2 34  1  0
  3 35  1  0
  3 36  1  0
  4 37  1  0
  4 38  1  0
  7 39  1  0
 12 40  1  0
 13 41  1  0
 14 42  1  0
 16 43  1  0
 21 44  1  0
 22 45  1  0
 23 46  1  0
 29 47  1  0
 29 48  1  0
 30 49  1  0
 30 50  1  0
M  CHG  1   2   1
M  END
>  <meeko>  (4) 
{"is_sidechain": [false], "free_energy": -5.857, "intermolecular_energy": -6.854, "internal_energy": -0.238}

$$$$
cand_056_out
     RDKit          3D

 50 53  0  0  0  0  0  0  0  0999 V2000
  174.0850   21.0510   48.2590 C   0  0  0  0  0  0  0  0  0  0  0  0
  175.2300   20.6880   47.4250 N   0  0  0  0  0  0  0  0  0  0  0  0
  176.2260   21.7850   47.4040 C   0  0  0  0  0  0  0  0  0  0  0  0
  177.4840   21.4240   46.5780 C   0  0  0  0  0  0  0  0  0  0  0  0
  178.0960   20.1840   47.1090 N   0  0  0  0  0  0  0  0  0  0  0  0
  179.3200   19.8550   46.5000 C   0  0  0  0  0  0  0  0  0  0  0  0
  179.4290   18.8020   45.5710 C   0  0  0  0  0  0  0  0  0  0  0  0
  180.6480   18.4800   44.9560 C   0  0  0  0  0  0  0  0  0  0  0  0
  180.7600   17.3610   43.9970 C   0  0  0  0  0  0  0  0  0  0  0  0
  181.0210   17.7850   42.6990 O   0  0  0  0  0  0  0  0  0  0  0  0
  181.1510   16.8460   41.7090 C   0  0  0  0  0  0  0  0  0  0  0  0
  181.4270   17.3150   40.4230 C   0  0  0  0  0  0  0  0  0  0  0  0
  181.5690   16.4110   39.3680 C   0  0  0  0  0  0  0  0  0  0  0  0
  181.4350   15.0400   39.5970 C   0  0  0  0  0  0  0  0  0  0  0  0
  181.1590   14.5750   40.8800 C   0  0  0  0  0  0  0  0  0  0  0  0
  181.0390   13.2210   41.0340 O   0  0  0  0  0  0  0  0  0  0  0  0
  181.0170   15.4790   41.9360 C   0  0  0  0  0  0  0  0  0  0  0  0
  180.7260   15.0320   43.2990 C   0  0  0  0  0  0  0  0  0  0  0  0
  180.5870   13.8440   43.5800 O   0  0  0  0  0  0  0  0  0  0  0  0
  180.6030   16.0710   44.3480 C   0  0  0  0  0  0  0  0  0  0  0  0
  180.3160   15.6410   45.6300 O   0  0  0  0  0  0  0  0  0  0  0  0
  181.7830   19.2200   45.2980 C   0  0  0  0  0  0  0  0  0  0  0  0
  181.6960   20.2650   46.2190 C   0  0  0  0  0  0  0  0  0  0  0  0
  180.4700   20.5940   46.8270 C   0  0  0  0  0  0  0  0  0  0  0  0
  180.4020   21.7310   47.8180 C   0  0  0  0  0  0  0  0  0  0  0  0
  181.6180   22.0120   48.3810 F   0  0  0  0  0  0  0  0  0  0  0  0
  179.5760   21.4870   48.8770 F   0  0  0  0  0  0  0  0  0  0  0  0
  179.9910   22.9130   47.2720 F   0  0  0  0  0  0  0  0  0  0  0  0
  177.1280   19.0620   47.1180 C   0  0  0  0  0  0  0  0  0  0  0  0
  175.8740   19.4550   47.9350 C   0  0  0  0  0  0  0  0  0  0  0  0
  174.3617   20.9633   49.3200 H   0  0  0  0  0  0  0  0  0  0  0  0
  173.7874   22.0875   48.0422 H   0  0  0  0  0  0  0  0  0  0  0  0
  173.2446   20.3753   48.0422 H   0  0  0  0  0  0  0  0  0  0  0  0
  174.8880   20.5230   46.4770 H   0  0  0  0  0  0  0  0  0  0  0  0
  175.7586   22.6781   46.9637 H   0  0  0  0  0  0  0  0  0  0  0  0
  176.5462   21.9671   48.4405 H   0  0  0  0  0  0  0  0  0  0  0  0
  177.1984   21.2689   45.5271 H   0  0  0  0  0  0  0  0  0  0  0  0
  178.2116   22.2460   46.6477 H   0  0  0  0  0  0  0  0  0  0  0  0
  178.5328   18.2154   45.3206 H   0  0  0  0  0  0  0  0  0  0  0  0
  181.5324   18.3947   40.2412 H   0  0  0  0  0  0  0  0  0  0  0  0
  181.7868   16.7796   38.3547 H   0  0  0  0  0  0  0  0  0  0  0  0
  181.5473   14.3288   38.7654 H   0  0  0  0  0  0  0  0  0  0  0  0
  181.0100   12.8480   41.8940 H   0  0  0  0  0  0  0  0  0  0  0  0
  180.9510   15.1490   46.1130 H   0  0  0  0  0  0  0  0  0  0  0  0
  182.7522   18.9771   44.8379 H   0  0  0  0  0  0  0  0  0  0  0  0
  182.5987   20.8398   46.4734 H   0  0  0  0  0  0  0  0  0  0  0  0
  176.8316   18.8277   46.0849 H   0  0  0  0  0  0  0  0  0  0  0  0
  177.5989   18.1810   47.5786 H   0  0  0  0  0  0  0  0  0  0  0  0
  175.1474   18.6306   47.8851 H   0  0  0  0  0  0  0  0  0  0  0  0
  176.1950   19.6480   48.9693 H   0  0  0  0  0  0  0  0  0  0  0  0
  1  2  1  0
  2  3  1  0
  3  4  1  0
  4  5  1  0
  5  6  1  0
  6  7  2  0
  7  8  1  0
  8  9  1  0
  9 10  1  0
 10 11  1  0
 11 12  2  0
 12 13  1  0
 13 14  2  0
 14 15  1  0
 15 16  1  0
 15 17  2  0
 17 18  1  0
 18 19  2  0
 18 20  1  0
 20 21  1  0
  8 22  2  0
 22 23  1  0
 23 24  2  0
 24 25  1  0
 25 26  1  0
 25 27  1  0
 25 28  1  0
  5 29  1  0
 29 30  1  0
 30  2  1  0
 24  6  1  0
 20  9  2  0
 17 11  1  0
  1 31  1  0
  1 32  1  0
  1 33  1  0
  2 34  1  0
  3 35  1  0
  3 36  1  0
  4 37  1  0
  4 38  1  0
  7 39  1  0
 12 40  1  0
 13 41  1  0
 14 42  1  0
 16 43  1  0
 21 44  1  0
 22 45  1  0
 23 46  1  0
 29 47  1  0
 29 48  1  0
 30 49  1  0
 30 50  1  0
M  CHG  1   2   1
M  END
>  <meeko>  (5) 
{"is_sidechain": [false], "free_energy": -5.225, "intermolecular_energy": -6.312, "internal_energy": -0.001}

$$$$
cand_056_out
     RDKit          3D

 50 53  0  0  0  0  0  0  0  0999 V2000
  186.7040   27.0350   48.2990 C   0  0  0  0  0  0  0  0  0  0  0  0
  185.6140   26.1670   47.8540 N   0  0  0  0  0  0  0  0  0  0  0  0
  185.7130   25.9140   46.3970 C   0  0  0  0  0  0  0  0  0  0  0  0
  184.6120   24.9530   45.8880 C   0  0  0  0  0  0  0  0  0  0  0  0
  184.6740   23.6760   46.6370 N   0  0  0  0  0  0  0  0  0  0  0  0
  183.7920   22.6950   46.1500 C   0  0  0  0  0  0  0  0  0  0  0  0
  182.5370   22.4620   46.7440 C   0  0  0  0  0  0  0  0  0  0  0  0
  181.6530   21.4900   46.2520 C   0  0  0  0  0  0  0  0  0  0  0  0
  180.3450   21.2360   46.8910 C   0  0  0  0  0  0  0  0  0  0  0  0
  179.5760   20.3080   46.2010 O   0  0  0  0  0  0  0  0  0  0  0  0
  178.3370   19.9800   46.6880 C   0  0  0  0  0  0  0  0  0  0  0  0
  177.6050   19.0320   45.9710 C   0  0  0  0  0  0  0  0  0  0  0  0
  176.3340   18.6540   46.4120 C   0  0  0  0  0  0  0  0  0  0  0  0
  175.7970   19.2240   47.5680 C   0  0  0  0  0  0  0  0  0  0  0  0
  176.5290   20.1690   48.2810 C   0  0  0  0  0  0  0  0  0  0  0  0
  175.9420   20.6870   49.4030 O   0  0  0  0  0  0  0  0  0  0  0  0
  177.8000   20.5460   47.8400 C   0  0  0  0  0  0  0  0  0  0  0  0
  178.6020   21.5370   48.5590 C   0  0  0  0  0  0  0  0  0  0  0  0
  178.1960   22.0880   49.5800 O   0  0  0  0  0  0  0  0  0  0  0  0
  179.9410   21.8610   48.0130 C   0  0  0  0  0  0  0  0  0  0  0  0
  180.6860   22.8070   48.6920 O   0  0  0  0  0  0  0  0  0  0  0  0
  182.0500   20.7240   45.1520 C   0  0  0  0  0  0  0  0  0  0  0  0
  183.2930   20.9380   44.5520 C   0  0  0  0  0  0  0  0  0  0  0  0
  184.1730   21.9210   45.0400 C   0  0  0  0  0  0  0  0  0  0  0  0
  185.5090   22.1340   44.3710 C   0  0  0  0  0  0  0  0  0  0  0  0
  185.8860   21.0690   43.5970 F   0  0  0  0  0  0  0  0  0  0  0  0
  186.5400   22.3080   45.2480 F   0  0  0  0  0  0  0  0  0  0  0  0
  185.5360   23.2060   43.5250 F   0  0  0  0  0  0  0  0  0  0  0  0
  184.5510   23.8970   48.0980 C   0  0  0  0  0  0  0  0  0  0  0  0
  185.6530   24.8740   48.5760 C   0  0  0  0  0  0  0  0  0  0  0  0
  186.7304   27.0560   49.3985 H   0  0  0  0  0  0  0  0  0  0  0  0
  187.6601   26.6483   47.9166 H   0  0  0  0  0  0  0  0  0  0  0  0
  186.5411   28.0534   47.9166 H   0  0  0  0  0  0  0  0  0  0  0  0
  184.7330   26.6410   48.0560 H   0  0  0  0  0  0  0  0  0  0  0  0
  185.6188   26.8722   45.8650 H   0  0  0  0  0  0  0  0  0  0  0  0
  186.6867   25.4397   46.2048 H   0  0  0  0  0  0  0  0  0  0  0  0
  183.6255   25.4163   46.0373 H   0  0  0  0  0  0  0  0  0  0  0  0
  184.7703   24.7541   44.8178 H   0  0  0  0  0  0  0  0  0  0  0  0
  182.2410   23.0592   47.6190 H   0  0  0  0  0  0  0  0  0  0  0  0
  178.0280   18.5832   45.0602 H   0  0  0  0  0  0  0  0  0  0  0  0
  175.7562   17.9069   45.8481 H   0  0  0  0  0  0  0  0  0  0  0  0
  174.7964   18.9265   47.9149 H   0  0  0  0  0  0  0  0  0  0  0  0
  175.9130   20.1820   50.1920 H   0  0  0  0  0  0  0  0  0  0  0  0
  181.6150   22.8450   48.5740 H   0  0  0  0  0  0  0  0  0  0  0  0
  181.3789   19.9475   44.7563 H   0  0  0  0  0  0  0  0  0  0  0  0
  183.5882   20.3288   43.6850 H   0  0  0  0  0  0  0  0  0  0  0  0
  183.5623   24.3248   48.3205 H   0  0  0  0  0  0  0  0  0  0  0  0
  184.6659   22.9363   48.6213 H   0  0  0  0  0  0  0  0  0  0  0  0
  185.5138   25.0651   49.6503 H   0  0  0  0  0  0  0  0  0  0  0  0
  186.6273   24.4057   48.3725 H   0  0  0  0  0  0  0  0  0  0  0  0
  1  2  1  0
  2  3  1  0
  3  4  1  0
  4  5  1  0
  5  6  1  0
  6  7  2  0
  7  8  1  0
  8  9  1  0
  9 10  1  0
 10 11  1  0
 11 12  2  0
 12 13  1  0
 13 14  2  0
 14 15  1  0
 15 16  1  0
 15 17  2  0
 17 18  1  0
 18 19  2  0
 18 20  1  0
 20 21  1  0
  8 22  2  0
 22 23  1  0
 23 24  2  0
 24 25  1  0
 25 26  1  0
 25 27  1  0
 25 28  1  0
  5 29  1  0
 29 30  1  0
 30  2  1  0
 24  6  1  0
 20  9  2  0
 17 11  1  0
  1 31  1  0
  1 32  1  0
  1 33  1  0
  2 34  1  0
  3 35  1  0
  3 36  1  0
  4 37  1  0
  4 38  1  0
  7 39  1  0
 12 40  1  0
 13 41  1  0
 14 42  1  0
 16 43  1  0
 21 44  1  0
 22 45  1  0
 23 46  1  0
 29 47  1  0
 29 48  1  0
 30 49  1  0
 30 50  1  0
M  CHG  1   2   1
M  END
>  <meeko>  (6) 
{"is_sidechain": [false], "free_energy": -4.533, "intermolecular_energy": -5.705, "internal_energy": 0.246}

$$$$
cand_056_out
     RDKit          3D

 50 53  0  0  0  0  0  0  0  0999 V2000
  187.1240   25.5320   51.8810 C   0  0  0  0  0  0  0  0  0  0  0  0
  186.4750   24.7450   50.8330 N   0  0  0  0  0  0  0  0  0  0  0  0
  185.3320   25.4900   50.2560 C   0  0  0  0  0  0  0  0  0  0  0  0
  184.6460   24.7200   49.1020 C   0  0  0  0  0  0  0  0  0  0  0  0
  185.6390   24.4040   48.0490 N   0  0  0  0  0  0  0  0  0  0  0  0
  185.0750   23.8180   46.9020 C   0  0  0  0  0  0  0  0  0  0  0  0
  184.0120   22.8990   46.9820 C   0  0  0  0  0  0  0  0  0  0  0  0
  183.4420   22.3220   45.8370 C   0  0  0  0  0  0  0  0  0  0  0  0
  182.3390   21.3430   45.9290 C   0  0  0  0  0  0  0  0  0  0  0  0
  182.5320   20.2310   45.1170 O   0  0  0  0  0  0  0  0  0  0  0  0
  181.5820   19.2440   45.1090 C   0  0  0  0  0  0  0  0  0  0  0  0
  181.8240   18.1390   44.2900 C   0  0  0  0  0  0  0  0  0  0  0  0
  180.8940   17.0980   44.2340 C   0  0  0  0  0  0  0  0  0  0  0  0
  179.7240   17.1620   44.9930 C   0  0  0  0  0  0  0  0  0  0  0  0
  179.4850   18.2650   45.8080 C   0  0  0  0  0  0  0  0  0  0  0  0
  178.3190   18.2640   46.5240 O   0  0  0  0  0  0  0  0  0  0  0  0
  180.4150   19.3070   45.8660 C   0  0  0  0  0  0  0  0  0  0  0  0
  180.2020   20.4840   46.7080 C   0  0  0  0  0  0  0  0  0  0  0  0
  179.1950   20.6170   47.4000 O   0  0  0  0  0  0  0  0  0  0  0  0
  181.2530   21.5280   46.7040 C   0  0  0  0  0  0  0  0  0  0  0  0
  181.0380   22.6420   47.4920 O   0  0  0  0  0  0  0  0  0  0  0  0
  183.9690   22.6630   44.5870 C   0  0  0  0  0  0  0  0  0  0  0  0
  185.0260   23.5690   44.4870 C   0  0  0  0  0  0  0  0  0  0  0  0
  185.5880   24.1560   45.6370 C   0  0  0  0  0  0  0  0  0  0  0  0
  186.7280   25.1350   45.5010 C   0  0  0  0  0  0  0  0  0  0  0  0
  187.9290   24.6010   45.8830 F   0  0  0  0  0  0  0  0  0  0  0  0
  186.5850   26.2540   46.2700 F   0  0  0  0  0  0  0  0  0  0  0  0
  186.9320   25.5690   44.2230 F   0  0  0  0  0  0  0  0  0  0  0  0
  186.7830   23.6350   48.5940 C   0  0  0  0  0  0  0  0  0  0  0  0
  187.4390   24.4200   49.7560 C   0  0  0  0  0  0  0  0  0  0  0  0
  186.8139   25.1559   52.8671 H   0  0  0  0  0  0  0  0  0  0  0  0
  188.2160   25.4446   51.7821 H   0  0  0  0  0  0  0  0  0  0  0  0
  186.8302   26.5874   51.7821 H   0  0  0  0  0  0  0  0  0  0  0  0
  186.1360   23.8800   51.2560 H   0  0  0  0  0  0  0  0  0  0  0  0
  184.5916   25.6702   51.0493 H   0  0  0  0  0  0  0  0  0  0  0  0
  185.7207   26.4332   49.8445 H   0  0  0  0  0  0  0  0  0  0  0  0
  184.2167   23.7851   49.4914 H   0  0  0  0  0  0  0  0  0  0  0  0
  183.8481   25.3440   48.6731 H   0  0  0  0  0  0  0  0  0  0  0  0
  183.6164   22.6250   47.9712 H   0  0  0  0  0  0  0  0  0  0  0  0
  182.7448   18.0884   43.6904 H   0  0  0  0  0  0  0  0  0  0  0  0
  181.0840   16.2262   43.5906 H   0  0  0  0  0  0  0  0  0  0  0  0
  178.9921   16.3421   44.9471 H   0  0  0  0  0  0  0  0  0  0  0  0
  177.6560   17.6280   46.3390 H   0  0  0  0  0  0  0  0  0  0  0  0
  181.0880   22.5730   48.4260 H   0  0  0  0  0  0  0  0  0  0  0  0
  183.5472   22.2137   43.6758 H   0  0  0  0  0  0  0  0  0  0  0  0
  185.4258   23.8282   43.4956 H   0  0  0  0  0  0  0  0  0  0  0  0
  186.4255   22.6635   48.9660 H   0  0  0  0  0  0  0  0  0  0  0  0
  187.5259   23.4775   47.7982 H   0  0  0  0  0  0  0  0  0  0  0  0
  188.2505   23.8105   50.1803 H   0  0  0  0  0  0  0  0  0  0  0  0
  187.8184   25.3685   49.3480 H   0  0  0  0  0  0  0  0  0  0  0  0
  1  2  1  0
  2  3  1  0
  3  4  1  0
  4  5  1  0
  5  6  1  0
  6  7  2  0
  7  8  1  0
  8  9  1  0
  9 10  1  0
 10 11  1  0
 11 12  2  0
 12 13  1  0
 13 14  2  0
 14 15  1  0
 15 16  1  0
 15 17  2  0
 17 18  1  0
 18 19  2  0
 18 20  1  0
 20 21  1  0
  8 22  2  0
 22 23  1  0
 23 24  2  0
 24 25  1  0
 25 26  1  0
 25 27  1  0
 25 28  1  0
  5 29  1  0
 29 30  1  0
 30  2  1  0
 24  6  1  0
 20  9  2  0
 17 11  1  0
  1 31  1  0
  1 32  1  0
  1 33  1  0
  2 34  1  0
  3 35  1  0
  3 36  1  0
  4 37  1  0
  4 38  1  0
  7 39  1  0
 12 40  1  0
 13 41  1  0
 14 42  1  0
 16 43  1  0
 21 44  1  0
 22 45  1  0
 23 46  1  0
 29 47  1  0
 29 48  1  0
 30 49  1  0
 30 50  1  0
M  CHG  1   2   1
M  END
>  <meeko>  (7) 
{"is_sidechain": [false], "free_energy": -4.141, "intermolecular_energy": -4.742, "internal_energy": -0.233}

$$$$
cand_056_out
     RDKit          3D

 50 53  0  0  0  0  0  0  0  0999 V2000
  180.4460   14.4030   43.1950 C   0  0  0  0  0  0  0  0  0  0  0  0
  180.9050   15.6070   43.8870 N   0  0  0  0  0  0  0  0  0  0  0  0
  180.9660   16.7530   42.9500 C   0  0  0  0  0  0  0  0  0  0  0  0
  181.3940   18.0660   43.6500 C   0  0  0  0  0  0  0  0  0  0  0  0
  180.4680   18.3640   44.7680 N   0  0  0  0  0  0  0  0  0  0  0  0
  180.7050   19.6080   45.3780 C   0  0  0  0  0  0  0  0  0  0  0  0
  181.9440   20.2680   45.2670 C   0  0  0  0  0  0  0  0  0  0  0  0
  182.1780   21.5140   45.8660 C   0  0  0  0  0  0  0  0  0  0  0  0
  183.4860   22.1930   45.7620 C   0  0  0  0  0  0  0  0  0  0  0  0
  184.1520   21.9050   44.5760 O   0  0  0  0  0  0  0  0  0  0  0  0
  185.3800   22.4720   44.3510 C   0  0  0  0  0  0  0  0  0  0  0  0
  186.0060   22.1670   43.1410 C   0  0  0  0  0  0  0  0  0  0  0  0
  187.2590   22.7100   42.8490 C   0  0  0  0  0  0  0  0  0  0  0  0
  187.8860   23.5570   43.7670 C   0  0  0  0  0  0  0  0  0  0  0  0
  187.2590   23.8590   44.9730 C   0  0  0  0  0  0  0  0  0  0  0  0
  187.9290   24.6930   45.8260 O   0  0  0  0  0  0  0  0  0  0  0  0
  186.0050   23.3160   45.2640 C   0  0  0  0  0  0  0  0  0  0  0  0
  185.3130   23.6070   46.5200 C   0  0  0  0  0  0  0  0  0  0  0  0
  185.8020   24.3360   47.3800 O   0  0  0  0  0  0  0  0  0  0  0  0
  183.9830   22.9870   46.7280 C   0  0  0  0  0  0  0  0  0  0  0  0
  183.3420   23.2570   47.9230 O   0  0  0  0  0  0  0  0  0  0  0  0
  181.1480   22.0980   46.6110 C   0  0  0  0  0  0  0  0  0  0  0  0
  179.9140   21.4580   46.7370 C   0  0  0  0  0  0  0  0  0  0  0  0
  179.6790   20.2130   46.1250 C   0  0  0  0  0  0  0  0  0  0  0  0
  178.3340   19.5430   46.2740 C   0  0  0  0  0  0  0  0  0  0  0  0
  177.8370   19.6390   47.5460 F   0  0  0  0  0  0  0  0  0  0  0  0
  178.3560   18.2040   46.0100 F   0  0  0  0  0  0  0  0  0  0  0  0
  177.3620   20.0780   45.4790 F   0  0  0  0  0  0  0  0  0  0  0  0
  180.4070   17.2420   45.7360 C   0  0  0  0  0  0  0  0  0  0  0  0
  179.9940   15.9400   45.0070 C   0  0  0  0  0  0  0  0  0  0  0  0
  180.1561   13.6427   43.9352 H   0  0  0  0  0  0  0  0  0  0  0  0
  179.5791   14.6503   42.5647 H   0  0  0  0  0  0  0  0  0  0  0  0
  181.2576   14.0105   42.5647 H   0  0  0  0  0  0  0  0  0  0  0  0
  181.8390   15.4200   44.2550 H   0  0  0  0  0  0  0  0  0  0  0  0
  181.6926   16.5225   42.1569 H   0  0  0  0  0  0  0  0  0  0  0  0
  179.9566   16.9052   42.5403 H   0  0  0  0  0  0  0  0  0  0  0  0
  182.4157   17.9545   44.0420 H   0  0  0  0  0  0  0  0  0  0  0  0
  181.3636   18.8914   42.9235 H   0  0  0  0  0  0  0  0  0  0  0  0
  182.7526   19.7917   44.6931 H   0  0  0  0  0  0  0  0  0  0  0  0
  185.5129   21.4999   42.4186 H   0  0  0  0  0  0  0  0  0  0  0  0
  187.7529   22.4709   41.8957 H   0  0  0  0  0  0  0  0  0  0  0  0
  188.8732   23.9844   43.5372 H   0  0  0  0  0  0  0  0  0  0  0  0
  187.9600   25.6140   45.6520 H   0  0  0  0  0  0  0  0  0  0  0  0
  182.4640   23.5860   47.9200 H   0  0  0  0  0  0  0  0  0  0  0  0
  181.3118   23.0690   47.1012 H   0  0  0  0  0  0  0  0  0  0  0  0
  179.1139   21.9337   47.3231 H   0  0  0  0  0  0  0  0  0  0  0  0
  181.3960   17.1039   46.1973 H   0  0  0  0  0  0  0  0  0  0  0  0
  179.6637   17.4737   46.5131 H   0  0  0  0  0  0  0  0  0  0  0  0
  180.0055   15.1112   45.7302 H   0  0  0  0  0  0  0  0  0  0  0  0
  178.9890   16.0946   44.5875 H   0  0  0  0  0  0  0  0  0  0  0  0
  1  2  1  0
  2  3  1  0
  3  4  1  0
  4  5  1  0
  5  6  1  0
  6  7  2  0
  7  8  1  0
  8  9  1  0
  9 10  1  0
 10 11  1  0
 11 12  2  0
 12 13  1  0
 13 14  2  0
 14 15  1  0
 15 16  1  0
 15 17  2  0
 17 18  1  0
 18 19  2  0
 18 20  1  0
 20 21  1  0
  8 22  2  0
 22 23  1  0
 23 24  2  0
 24 25  1  0
 25 26  1  0
 25 27  1  0
 25 28  1  0
  5 29  1  0
 29 30  1  0
 30  2  1  0
 24  6  1  0
 20  9  2  0
 17 11  1  0
  1 31  1  0
  1 32  1  0
  1 33  1  0
  2 34  1  0
  3 35  1  0
  3 36  1  0
  4 37  1  0
  4 38  1  0
  7 39  1  0
 12 40  1  0
 13 41  1  0
 14 42  1  0
 16 43  1  0
 21 44  1  0
 22 45  1  0
 23 46  1  0
 29 47  1  0
 29 48  1  0
 30 49  1  0
 30 50  1  0
M  CHG  1   2   1
M  END
>  <meeko>  (8) 
{"is_sidechain": [false], "free_energy": -4.139, "intermolecular_energy": -6.754, "internal_energy": 1.781}

$$$$
cand_056_out
     RDKit          3D

 50 53  0  0  0  0  0  0  0  0999 V2000
  180.5720   14.6910   43.1040 C   0  0  0  0  0  0  0  0  0  0  0  0
  180.9730   15.8630   43.8820 N   0  0  0  0  0  0  0  0  0  0  0  0
  181.0420   17.0630   43.0150 C   0  0  0  0  0  0  0  0  0  0  0  0
  181.4090   18.3420   43.8060 C   0  0  0  0  0  0  0  0  0  0  0  0
  180.4330   18.5530   44.9010 N   0  0  0  0  0  0  0  0  0  0  0  0
  180.6150   19.7650   45.5900 C   0  0  0  0  0  0  0  0  0  0  0  0
  181.8560   20.4310   45.6100 C   0  0  0  0  0  0  0  0  0  0  0  0
  182.0350   21.6460   46.2890 C   0  0  0  0  0  0  0  0  0  0  0  0
  183.3440   22.3300   46.3210 C   0  0  0  0  0  0  0  0  0  0  0  0
  183.5450   23.0580   47.4880 O   0  0  0  0  0  0  0  0  0  0  0  0
  184.7230   23.7420   47.6470 C   0  0  0  0  0  0  0  0  0  0  0  0
  184.8890   24.4480   48.8410 C   0  0  0  0  0  0  0  0  0  0  0  0
  186.0640   25.1680   49.0660 C   0  0  0  0  0  0  0  0  0  0  0  0
  187.0720   25.1820   48.0990 C   0  0  0  0  0  0  0  0  0  0  0  0
  186.9040   24.4780   46.9110 C   0  0  0  0  0  0  0  0  0  0  0  0
  187.9300   24.5360   46.0070 O   0  0  0  0  0  0  0  0  0  0  0  0
  185.7280   23.7570   46.6850 C   0  0  0  0  0  0  0  0  0  0  0  0
  185.5110   23.0040   45.4490 C   0  0  0  0  0  0  0  0  0  0  0  0
  186.3470   22.9740   44.5490 O   0  0  0  0  0  0  0  0  0  0  0  0
  184.2330   22.2670   45.3120 C   0  0  0  0  0  0  0  0  0  0  0  0
  184.0310   21.5690   44.1360 O   0  0  0  0  0  0  0  0  0  0  0  0
  180.9470   22.1890   46.9790 C   0  0  0  0  0  0  0  0  0  0  0  0
  179.7100   21.5420   46.9750 C   0  0  0  0  0  0  0  0  0  0  0  0
  179.5300   20.3300   46.2830 C   0  0  0  0  0  0  0  0  0  0  0  0
  178.1820   19.6510   46.2920 C   0  0  0  0  0  0  0  0  0  0  0  0
  177.4800   19.8900   47.4430 F   0  0  0  0  0  0  0  0  0  0  0  0
  178.2510   18.2910   46.2030 F   0  0  0  0  0  0  0  0  0  0  0  0
  177.3520   20.0630   45.2890 F   0  0  0  0  0  0  0  0  0  0  0  0
  180.3630   17.3760   45.7990 C   0  0  0  0  0  0  0  0  0  0  0  0
  180.0110   16.1100   44.9810 C   0  0  0  0  0  0  0  0  0  0  0  0
  180.2929   13.8753   43.7872 H   0  0  0  0  0  0  0  0  0  0  0  0
  179.7110   14.9489   42.4699 H   0  0  0  0  0  0  0  0  0  0  0  0
  181.4106   14.3674   42.4699 H   0  0  0  0  0  0  0  0  0  0  0  0
  181.8960   15.6760   44.2760 H   0  0  0  0  0  0  0  0  0  0  0  0
  181.8048   16.8957   42.2403 H   0  0  0  0  0  0  0  0  0  0  0  0
  180.0461   17.2157   42.5737 H   0  0  0  0  0  0  0  0  0  0  0  0
  182.4172   18.2312   44.2318 H   0  0  0  0  0  0  0  0  0  0  0  0
  181.3860   19.2075   43.1275 H   0  0  0  0  0  0  0  0  0  0  0  0
  182.7096   19.9858   45.0779 H   0  0  0  0  0  0  0  0  0  0  0  0
  184.0954   24.4367   49.6026 H   0  0  0  0  0  0  0  0  0  0  0  0
  186.1960   25.7247   50.0055 H   0  0  0  0  0  0  0  0  0  0  0  0
  187.9976   25.7491   48.2767 H   0  0  0  0  0  0  0  0  0  0  0  0
  188.0080   25.2740   45.4340 H   0  0  0  0  0  0  0  0  0  0  0  0
  183.1770   21.5350   43.7530 H   0  0  0  0  0  0  0  0  0  0  0  0
  181.0667   23.1338   47.5295 H   0  0  0  0  0  0  0  0  0  0  0  0
  178.8641   21.9858   47.5204 H   0  0  0  0  0  0  0  0  0  0  0  0
  181.3368   17.2337   46.2905 H   0  0  0  0  0  0  0  0  0  0  0  0
  179.5848   17.5450   46.5579 H   0  0  0  0  0  0  0  0  0  0  0  0
  180.0144   15.2411   45.6556 H   0  0  0  0  0  0  0  0  0  0  0  0
  179.0197   16.2663   44.5306 H   0  0  0  0  0  0  0  0  0  0  0  0
  1  2  1  0
  2  3  1  0
  3  4  1  0
  4  5  1  0
  5  6  1  0
  6  7  2  0
  7  8  1  0
  8  9  1  0
  9 10  1  0
 10 11  1  0
 11 12  2  0
 12 13  1  0
 13 14  2  0
 14 15  1  0
 15 16  1  0
 15 17  2  0
 17 18  1  0
 18 19  2  0
 18 20  1  0
 20 21  1  0
  8 22  2  0
 22 23  1  0
 23 24  2  0
 24 25  1  0
 25 26  1  0
 25 27  1  0
 25 28  1  0
  5 29  1  0
 29 30  1  0
 30  2  1  0
 24  6  1  0
 20  9  2  0
 17 11  1  0
  1 31  1  0
  1 32  1  0
  1 33  1  0
  2 34  1  0
  3 35  1  0
  3 36  1  0
  4 37  1  0
  4 38  1  0
  7 39  1  0
 12 40  1  0
 13 41  1  0
 14 42  1  0
 16 43  1  0
 21 44  1  0
 22 45  1  0
 23 46  1  0
 29 47  1  0
 29 48  1  0
 30 49  1  0
 30 50  1  0
M  CHG  1   2   1
M  END
>  <meeko>  (9) 
{"is_sidechain": [false], "free_energy": -3.744, "intermolecular_energy": -5.847, "internal_energy": 1.363}

$$$$
