cand_009_out
     RDKit          3D

 41 43  0  0  0  0  0  0  0  0999 V2000
   52.9610  152.4600   26.8800 C   0  0  0  0  0  0  0  0  0  0  0  0
   52.5940  153.7830   27.4930 C   0  0  0  0  0  0  0  0  0  0  0  0
   51.8870  153.7830   28.7070 C   0  0  0  0  0  0  0  0  0  0  0  0
   51.5150  154.9780   29.3260 C   0  0  0  0  0  0  0  0  0  0  0  0
   51.8340  156.2080   28.7470 C   0  0  0  0  0  0  0  0  0  0  0  0
   51.4540  157.4640   29.4280 C   0  0  0  0  0  0  0  0  0  0  0  0
   50.1230  157.4800   29.8280 O   0  0  0  0  0  0  0  0  0  0  0  0
   49.6380  158.5870   30.4760 C   0  0  0  0  0  0  0  0  0  0  0  0
   48.3000  158.5540   30.8720 C   0  0  0  0  0  0  0  0  0  0  0  0
   47.7430  159.6500   31.5350 C   0  0  0  0  0  0  0  0  0  0  0  0
   48.5220  160.7790   31.8000 C   0  0  0  0  0  0  0  0  0  0  0  0
   49.8560  160.8080   31.4030 C   0  0  0  0  0  0  0  0  0  0  0  0
   50.5620  161.9450   31.6930 O   0  0  0  0  0  0  0  0  0  0  0  0
   50.4140  159.7110   30.7410 C   0  0  0  0  0  0  0  0  0  0  0  0
   51.8110  159.7020   30.3070 C   0  0  0  0  0  0  0  0  0  0  0  0
   52.5580  160.6600   30.4970 O   0  0  0  0  0  0  0  0  0  0  0  0
   52.3080  158.4870   29.6200 C   0  0  0  0  0  0  0  0  0  0  0  0
   53.6260  158.4950   29.2030 O   0  0  0  0  0  0  0  0  0  0  0  0
   52.5500  156.2090   27.5410 C   0  0  0  0  0  0  0  0  0  0  0  0
   52.9350  155.0140   26.8930 C   0  0  0  0  0  0  0  0  0  0  0  0
   53.7010  155.0910   25.5780 C   0  0  0  0  0  0  0  0  0  0  0  0
   54.0600  156.5380   25.2210 C   0  0  0  0  0  0  0  0  0  0  0  0
   52.9320  154.4220   24.4350 C   0  0  0  0  0  0  0  0  0  0  0  0
   53.1635  151.7300   27.6775 H   0  0  0  0  0  0  0  0  0  0  0  0
   52.1285  152.1010   26.2570 H   0  0  0  0  0  0  0  0  0  0  0  0
   53.8594  152.5812   26.2570 H   0  0  0  0  0  0  0  0  0  0  0  0
   51.6219  152.8250   29.1781 H   0  0  0  0  0  0  0  0  0  0  0  0
   50.9656  154.9502   30.2786 H   0  0  0  0  0  0  0  0  0  0  0  0
   47.6852  157.6663   30.6623 H   0  0  0  0  0  0  0  0  0  0  0  0
   46.6891  159.6241   31.8490 H   0  0  0  0  0  0  0  0  0  0  0  0
   48.0826  161.6425   32.3208 H   0  0  0  0  0  0  0  0  0  0  0  0
   50.1070  162.7380   31.8990 H   0  0  0  0  0  0  0  0  0  0  0  0
   53.8830  157.9980   28.4520 H   0  0  0  0  0  0  0  0  0  0  0  0
   52.8209  157.1724   27.0844 H   0  0  0  0  0  0  0  0  0  0  0  0
   54.6395  154.5350   25.7196 H   0  0  0  0  0  0  0  0  0  0  0  0
   54.2040  157.1185   26.1442 H   0  0  0  0  0  0  0  0  0  0  0  0
   54.9885  156.5506   24.6313 H   0  0  0  0  0  0  0  0  0  0  0  0
   53.2451  156.9832   24.6313 H   0  0  0  0  0  0  0  0  0  0  0  0
   52.1639  153.7538   24.8516 H   0  0  0  0  0  0  0  0  0  0  0  0
   52.4504  155.1934   23.8162 H   0  0  0  0  0  0  0  0  0  0  0  0
   53.6294  153.8382   23.8162 H   0  0  0  0  0  0  0  0  0  0  0  0
  1  2  1  0
  2  3  2  0
  3  4  1  0
  4  5  2  0
  5  6  1  0
  6  7  1  0
  7  8  1  0
  8  9  2  0
  9 10  1  0
 10 11  2  0
 11 12  1  0
 12 13  1  0
 12 14  2  0
 14 15  1  0
 15 16  2  0
 15 17  1  0
 17 18  1  0
  5 19  1  0
 19 20  2  0
 20 21  1  0
 21 22  1  0
 21 23  1  0
 20  2  1  0
 17  6  2  0
 14  8  1  0
  1 24  1  0
  1 25  1  0
  1 26  1  0
  3 27  1  0
  4 28  1  0
  9 29  1  0
 10 30  1  0
 11 31  1  0
 13 32  1  0
 18 33  1  0
 19 34  1  0
 21 35  1  0
 22 36  1  0
 22 37  1  0
 22 38  1  0
 23 39  1  0
 23 40  1  0
 23 41  1  0
M  END
>  <meeko>  (1) 
{"is_sidechain": [false], "free_energy": -10.441, "intermolecular_energy": -12.272, "internal_energy": 0.069}

$$$$
cand_009_out
     RDKit          3D

 41 43  0  0  0  0  0  0  0  0999 V2000
   50.6090  161.1030   31.4690 C   0  0  0  0  0  0  0  0  0  0  0  0
   50.8860  159.8170   30.7400 C   0  0  0  0  0  0  0  0  0  0  0  0
   52.1360  159.6590   30.1180 C   0  0  0  0  0  0  0  0  0  0  0  0
   52.4540  158.4900   29.4230 C   0  0  0  0  0  0  0  0  0  0  0  0
   51.5300  157.4470   29.3250 C   0  0  0  0  0  0  0  0  0  0  0  0
   51.8920  156.2070   28.6080 C   0  0  0  0  0  0  0  0  0  0  0  0
   52.3600  156.4450   27.3200 O   0  0  0  0  0  0  0  0  0  0  0  0
   52.7350  155.3790   26.5430 C   0  0  0  0  0  0  0  0  0  0  0  0
   53.2130  155.6660   25.2630 C   0  0  0  0  0  0  0  0  0  0  0  0
   53.6090  154.6250   24.4190 C   0  0  0  0  0  0  0  0  0  0  0  0
   53.5270  153.3010   24.8540 C   0  0  0  0  0  0  0  0  0  0  0  0
   53.0490  153.0190   26.1310 C   0  0  0  0  0  0  0  0  0  0  0  0
   52.9940  151.7000   26.4920 O   0  0  0  0  0  0  0  0  0  0  0  0
   52.6530  154.0590   26.9750 C   0  0  0  0  0  0  0  0  0  0  0  0
   52.1470  153.8060   28.3250 C   0  0  0  0  0  0  0  0  0  0  0  0
   52.0370  152.6680   28.7760 O   0  0  0  0  0  0  0  0  0  0  0  0
   51.7610  154.9790   29.1440 C   0  0  0  0  0  0  0  0  0  0  0  0
   51.2710  154.7270   30.4110 O   0  0  0  0  0  0  0  0  0  0  0  0
   50.2860  157.6000   29.9560 C   0  0  0  0  0  0  0  0  0  0  0  0
   49.9400  158.7740   30.6610 C   0  0  0  0  0  0  0  0  0  0  0  0
   48.5640  158.8750   31.3120 C   0  0  0  0  0  0  0  0  0  0  0  0
   47.5930  159.6880   30.4490 C   0  0  0  0  0  0  0  0  0  0  0  0
   48.6500  159.4520   32.7290 C   0  0  0  0  0  0  0  0  0  0  0  0
   50.6473  160.9251   32.5538 H   0  0  0  0  0  0  0  0  0  0  0  0
   51.3666  161.8514   31.1932 H   0  0  0  0  0  0  0  0  0  0  0  0
   49.6105  161.4731   31.1932 H   0  0  0  0  0  0  0  0  0  0  0  0
   52.8768  160.4698   30.1795 H   0  0  0  0  0  0  0  0  0  0  0  0
   53.4413  158.3897   28.9484 H   0  0  0  0  0  0  0  0  0  0  0  0
   53.2777  156.7091   24.9197 H   0  0  0  0  0  0  0  0  0  0  0  0
   53.9860  154.8492   23.4102 H   0  0  0  0  0  0  0  0  0  0  0  0
   53.8394  152.4822   24.1892 H   0  0  0  0  0  0  0  0  0  0  0  0
   53.7820  151.1980   26.5530 H   0  0  0  0  0  0  0  0  0  0  0  0
   50.3520  154.7940   30.5810 H   0  0  0  0  0  0  0  0  0  0  0  0
   49.5564  156.7787   29.8997 H   0  0  0  0  0  0  0  0  0  0  0  0
   48.1690  157.8514   31.3913 H   0  0  0  0  0  0  0  0  0  0  0  0
   46.9129  160.2574   31.0995 H   0  0  0  0  0  0  0  0  0  0  0  0
   48.1612  160.3837   29.8140 H   0  0  0  0  0  0  0  0  0  0  0  0
   47.0080  159.0064   29.8140 H   0  0  0  0  0  0  0  0  0  0  0  0
   48.5292  158.6415   33.4629 H   0  0  0  0  0  0  0  0  0  0  0  0
   49.6296  159.9319   32.8707 H   0  0  0  0  0  0  0  0  0  0  0  0
   47.8529  160.1967   32.8707 H   0  0  0  0  0  0  0  0  0  0  0  0
  1  2  1  0
  2  3  2  0
  3  4  1  0
  4  5  2  0
  5  6  1  0
  6  7  1  0
  7  8  1  0
  8  9  2  0
  9 10  1  0
 10 11  2  0
 11 12  1  0
 12 13  1  0
 12 14  2  0
 14 15  1  0
 15 16  2  0
 15 17  1  0
 17 18  1  0
  5 19  1  0
 19 20  2  0
 20 21  1  0
 21 22  1  0
 21 23  1  0
 20  2  1  0
 17  6  2  0
 14  8  1  0
  1 24  1  0
  1 25  1  0
  1 26  1  0
  3 27  1  0
  4 28  1  0
  9 29  1  0
 10 30  1  0
 11 31  1  0
 13 32  1  0
 18 33  1  0
 19 34  1  0
 21 35  1  0
 22 36  1  0
 22 37  1  0
 22 38  1  0
 23 39  1  0
 23 40  1  0
 23 41  1  0
M  END
>  <meeko>  (2) 
{"is_sidechain": [false], "free_energy": -10.214, "intermolecular_energy": -12.426, "internal_energy": 0.489}

$$$$
cand_009_out
     RDKit          3D

 41 43  0  0  0  0  0  0  0  0999 V2000
   48.6170  160.0980   31.5800 C   0  0  0  0  0  0  0  0  0  0  0  0
   49.4860  159.1320   30.8230 C   0  0  0  0  0  0  0  0  0  0  0  0
   48.9570  157.8710   30.5000 C   0  0  0  0  0  0  0  0  0  0  0  0
   49.7140  156.9290   29.8000 C   0  0  0  0  0  0  0  0  0  0  0  0
   51.0240  157.2170   29.4090 C   0  0  0  0  0  0  0  0  0  0  0  0
   51.8010  156.2170   28.6470 C   0  0  0  0  0  0  0  0  0  0  0  0
   52.2750  156.7090   27.4360 O   0  0  0  0  0  0  0  0  0  0  0  0
   53.0150  155.8850   26.6280 C   0  0  0  0  0  0  0  0  0  0  0  0
   53.4830  156.4250   25.4290 C   0  0  0  0  0  0  0  0  0  0  0  0
   54.2410  155.6380   24.5600 C   0  0  0  0  0  0  0  0  0  0  0  0
   54.5310  154.3120   24.8880 C   0  0  0  0  0  0  0  0  0  0  0  0
   54.0630  153.7760   26.0850 C   0  0  0  0  0  0  0  0  0  0  0  0
   54.3820  152.4700   26.3440 O   0  0  0  0  0  0  0  0  0  0  0  0
   53.3040  154.5630   26.9550 C   0  0  0  0  0  0  0  0  0  0  0  0
   52.7940  154.0390   28.2220 C   0  0  0  0  0  0  0  0  0  0  0  0
   53.0000  152.8810   28.5780 O   0  0  0  0  0  0  0  0  0  0  0  0
   52.0070  154.9580   29.0770 C   0  0  0  0  0  0  0  0  0  0  0  0
   51.5190  154.4480   30.2650 O   0  0  0  0  0  0  0  0  0  0  0  0
   51.5480  158.4800   29.7210 C   0  0  0  0  0  0  0  0  0  0  0  0
   50.8040  159.4490   30.4300 C   0  0  0  0  0  0  0  0  0  0  0  0
   51.4430  160.7970   30.7460 C   0  0  0  0  0  0  0  0  0  0  0  0
   52.9530  160.7770   30.4840 C   0  0  0  0  0  0  0  0  0  0  0  0
   51.1420  161.2430   32.1800 C   0  0  0  0  0  0  0  0  0  0  0  0
   48.7543  159.9454   32.6607 H   0  0  0  0  0  0  0  0  0  0  0  0
   48.8983  161.1283   31.3165 H   0  0  0  0  0  0  0  0  0  0  0  0
   47.5628  159.9269   31.3165 H   0  0  0  0  0  0  0  0  0  0  0  0
   47.9295  157.6216   30.8035 H   0  0  0  0  0  0  0  0  0  0  0  0
   49.2746  155.9510   29.5542 H   0  0  0  0  0  0  0  0  0  0  0  0
   53.2549  157.4692   25.1691 H   0  0  0  0  0  0  0  0  0  0  0  0
   54.6105  156.0632   23.6152 H   0  0  0  0  0  0  0  0  0  0  0  0
   55.1277  153.6923   24.2025 H   0  0  0  0  0  0  0  0  0  0  0  0
   55.2600  152.1700   26.2170 H   0  0  0  0  0  0  0  0  0  0  0  0
   51.7910  154.8180   31.0820 H   0  0  0  0  0  0  0  0  0  0  0  0
   52.5724  158.7240   29.4030 H   0  0  0  0  0  0  0  0  0  0  0  0
   50.9927  161.5351   30.0660 H   0  0  0  0  0  0  0  0  0  0  0  0
   53.4915  160.7699   31.4431 H   0  0  0  0  0  0  0  0  0  0  0  0
   53.2137  159.8753   29.9104 H   0  0  0  0  0  0  0  0  0  0  0  0
   53.2375  161.6714   29.9104 H   0  0  0  0  0  0  0  0  0  0  0  0
   51.6131  160.5449   32.8876 H   0  0  0  0  0  0  0  0  0  0  0  0
   51.5428  162.2546   32.3411 H   0  0  0  0  0  0  0  0  0  0  0  0
   50.0539  161.2498   32.3411 H   0  0  0  0  0  0  0  0  0  0  0  0
  1  2  1  0
  2  3  2  0
  3  4  1  0
  4  5  2  0
  5  6  1  0
  6  7  1  0
  7  8  1  0
  8  9  2  0
  9 10  1  0
 10 11  2  0
 11 12  1  0
 12 13  1  0
 12 14  2  0
 14 15  1  0
 15 16  2  0
 15 17  1  0
 17 18  1  0
  5 19  1  0
 19 20  2  0
 20 21  1  0
 21 22  1  0
 21 23  1  0
 20  2  1  0
 17  6  2  0
 14  8  1  0
  1 24  1  0
  1 25  1  0
  1 26  1  0
  3 27  1  0
  4 28  1  0
  9 29  1  0
 10 30  1  0
 11 31  1  0
 13 32  1  0
 18 33  1  0
 19 34  1  0
 21 35  1  0
 22 36  1  0
 22 37  1  0
 22 38  1  0
 23 39  1  0
 23 40  1  0
 23 41  1  0
M  END
>  <meeko>  (3) 
{"is_sidechain": [false], "free_energy": -9.502, "intermolecular_energy": -11.499, "internal_energy": 0.4}

$$$$
cand_009_out
     RDKit          3D

 41 43  0  0  0  0  0  0  0  0999 V2000
   53.5500  152.5500   26.8760 C   0  0  0  0  0  0  0  0  0  0  0  0
   52.9280  153.7740   27.4900 C   0  0  0  0  0  0  0  0  0  0  0  0
   52.2330  153.6330   28.7030 C   0  0  0  0  0  0  0  0  0  0  0  0
   51.6320  154.7300   29.3230 C   0  0  0  0  0  0  0  0  0  0  0  0
   51.7030  156.0000   28.7450 C   0  0  0  0  0  0  0  0  0  0  0  0
   51.0830  157.1550   29.4280 C   0  0  0  0  0  0  0  0  0  0  0  0
   51.9880  158.1750   29.6950 O   0  0  0  0  0  0  0  0  0  0  0  0
   51.5440  159.3100   30.3250 C   0  0  0  0  0  0  0  0  0  0  0  0
   52.4850  160.3140   30.5590 C   0  0  0  0  0  0  0  0  0  0  0  0
   52.0980  161.4940   31.1990 C   0  0  0  0  0  0  0  0  0  0  0  0
   50.7730  161.6690   31.6050 C   0  0  0  0  0  0  0  0  0  0  0  0
   49.8380  160.6650   31.3700 C   0  0  0  0  0  0  0  0  0  0  0  0
   48.5590  160.9010   31.7940 O   0  0  0  0  0  0  0  0  0  0  0  0
   50.2250  159.4850   30.7290 C   0  0  0  0  0  0  0  0  0  0  0  0
   49.2730  158.4060   30.4630 C   0  0  0  0  0  0  0  0  0  0  0  0
   48.0920  158.4810   30.7970 O   0  0  0  0  0  0  0  0  0  0  0  0
   49.7810  157.1980   29.7710 C   0  0  0  0  0  0  0  0  0  0  0  0
   48.8760  156.1800   29.5370 O   0  0  0  0  0  0  0  0  0  0  0  0
   52.4060  156.1440   27.5400 C   0  0  0  0  0  0  0  0  0  0  0  0
   53.0200  155.0490   26.8920 C   0  0  0  0  0  0  0  0  0  0  0  0
   53.7570  155.2770   25.5770 C   0  0  0  0  0  0  0  0  0  0  0  0
   53.9530  156.7710   25.2960 C   0  0  0  0  0  0  0  0  0  0  0  0
   53.0510  154.5880   24.4050 C   0  0  0  0  0  0  0  0  0  0  0  0
   53.8934  151.8742   27.6730 H   0  0  0  0  0  0  0  0  0  0  0  0
   52.8050  152.0334   26.2529 H   0  0  0  0  0  0  0  0  0  0  0  0
   54.4064  152.8472   26.2529 H   0  0  0  0  0  0  0  0  0  0  0  0
   52.1612  152.6408   29.1724 H   0  0  0  0  0  0  0  0  0  0  0  0
   51.0979  154.5933   30.2749 H   0  0  0  0  0  0  0  0  0  0  0  0
   53.5288  160.1765   30.2403 H   0  0  0  0  0  0  0  0  0  0  0  0
   52.8380  162.2867   31.3835 H   0  0  0  0  0  0  0  0  0  0  0  0
   50.4691  162.5982   32.1093 H   0  0  0  0  0  0  0  0  0  0  0  0
   48.2270  161.7770   31.8160 H   0  0  0  0  0  0  0  0  0  0  0  0
   47.9630  156.3730   29.4600 H   0  0  0  0  0  0  0  0  0  0  0  0
   52.4818  157.1424   27.0844 H   0  0  0  0  0  0  0  0  0  0  0  0
   54.7519  154.8195   25.6816 H   0  0  0  0  0  0  0  0  0  0  0  0
   54.0246  157.3169   26.2483 H   0  0  0  0  0  0  0  0  0  0  0  0
   54.8780  156.9173   24.7190 H   0  0  0  0  0  0  0  0  0  0  0  0
   53.0970  157.1510   24.7190 H   0  0  0  0  0  0  0  0  0  0  0  0
   52.3142  153.8689   24.7923 H   0  0  0  0  0  0  0  0  0  0  0  0
   52.5386  155.3429   23.7906 H   0  0  0  0  0  0  0  0  0  0  0  0
   53.7932  154.0574   23.7906 H   0  0  0  0  0  0  0  0  0  0  0  0
  1  2  1  0
  2  3  2  0
  3  4  1  0
  4  5  2  0
  5  6  1  0
  6  7  1  0
  7  8  1  0
  8  9  2  0
  9 10  1  0
 10 11  2  0
 11 12  1  0
 12 13  1  0
 12 14  2  0
 14 15  1  0
 15 16  2  0
 15 17  1  0
 17 18  1  0
  5 19  1  0
 19 20  2  0
 20 21  1  0
 21 22  1  0
 21 23  1  0
 20  2  1  0
 17  6  2  0
 14  8  1  0
  1 24  1  0
  1 25  1  0
  1 26  1  0
  3 27  1  0
  4 28  1  0
  9 29  1  0
 10 30  1  0
 11 31  1  0
 13 32  1  0
 18 33  1  0
 19 34  1  0
 21 35  1  0
 22 36  1  0
 22 37  1  0
 22 38  1  0
 23 39  1  0
 23 40  1  0
 23 41  1  0
M  END
>  <meeko>  (4) 
{"is_sidechain": [false], "free_energy": -9.164, "intermolecular_energy": -10.565, "internal_energy": -0.137}

$$$$
cand_009_out
     RDKit          3D

 41 43  0  0  0  0  0  0  0  0999 V2000
   53.3880  152.0800   25.8440 C   0  0  0  0  0  0  0  0  0  0  0  0
   53.0170  153.3430   26.5720 C   0  0  0  0  0  0  0  0  0  0  0  0
   52.4520  153.2330   27.8540 C   0  0  0  0  0  0  0  0  0  0  0  0
   52.0850  154.3680   28.5800 C   0  0  0  0  0  0  0  0  0  0  0  0
   52.2660  155.6450   28.0440 C   0  0  0  0  0  0  0  0  0  0  0  0
   51.8950  156.8360   28.8380 C   0  0  0  0  0  0  0  0  0  0  0  0
   50.5990  156.7700   29.3360 O   0  0  0  0  0  0  0  0  0  0  0  0
   50.1250  157.8110   30.0930 C   0  0  0  0  0  0  0  0  0  0  0  0
   48.8240  157.6960   30.5850 C   0  0  0  0  0  0  0  0  0  0  0  0
   48.2800  158.7220   31.3610 C   0  0  0  0  0  0  0  0  0  0  0  0
   49.0360  159.8620   31.6450 C   0  0  0  0  0  0  0  0  0  0  0  0
   50.3340  159.9730   31.1530 C   0  0  0  0  0  0  0  0  0  0  0  0
   51.0180  161.1160   31.4670 O   0  0  0  0  0  0  0  0  0  0  0  0
   50.8780  158.9460   30.3760 C   0  0  0  0  0  0  0  0  0  0  0  0
   52.2370  159.0240   29.8400 C   0  0  0  0  0  0  0  0  0  0  0  0
   52.9610  159.9970   30.0390 O   0  0  0  0  0  0  0  0  0  0  0  0
   52.7230  157.8790   29.0350 C   0  0  0  0  0  0  0  0  0  0  0  0
   54.0040  157.9690   28.5230 O   0  0  0  0  0  0  0  0  0  0  0  0
   52.8410  155.7560   26.7700 C   0  0  0  0  0  0  0  0  0  0  0  0
   53.2180  154.6230   26.0140 C   0  0  0  0  0  0  0  0  0  0  0  0
   53.8260  154.8190   24.6290 C   0  0  0  0  0  0  0  0  0  0  0  0
   53.5370  153.6240   23.7150 C   0  0  0  0  0  0  0  0  0  0  0  0
   55.3310  155.0960   24.7070 C   0  0  0  0  0  0  0  0  0  0  0  0
   53.6199  151.2906   26.5741 H   0  0  0  0  0  0  0  0  0  0  0  0
   52.5460  151.7598   25.2128 H   0  0  0  0  0  0  0  0  0  0  0  0
   54.2694  152.2661   25.2128 H   0  0  0  0  0  0  0  0  0  0  0  0
   52.2963  152.2364   28.2928 H   0  0  0  0  0  0  0  0  0  0  0  0
   51.6492  154.2553   29.5837 H   0  0  0  0  0  0  0  0  0  0  0  0
   48.2280  156.7988   30.3620 H   0  0  0  0  0  0  0  0  0  0  0  0
   47.2547  158.6323   31.7492 H   0  0  0  0  0  0  0  0  0  0  0  0
   48.6070  160.6700   32.2558 H   0  0  0  0  0  0  0  0  0  0  0  0
   50.9860  161.4550   32.3400 H   0  0  0  0  0  0  0  0  0  0  0  0
   54.4780  157.1910   28.3060 H   0  0  0  0  0  0  0  0  0  0  0  0
   53.0040  156.7575   26.3451 H   0  0  0  0  0  0  0  0  0  0  0  0
   53.3454  155.7047   24.1880 H   0  0  0  0  0  0  0  0  0  0  0  0
   53.3224  152.7366   24.3285 H   0  0  0  0  0  0  0  0  0  0  0  0
   52.6676  153.8498   23.0801 H   0  0  0  0  0  0  0  0  0  0  0  0
   54.4135  153.4276   23.0801 H   0  0  0  0  0  0  0  0  0  0  0  0
   55.6392  155.1527   25.7614 H   0  0  0  0  0  0  0  0  0  0  0  0
   55.8797  154.2837   24.2078 H   0  0  0  0  0  0  0  0  0  0  0  0
   55.5545  156.0504   24.2078 H   0  0  0  0  0  0  0  0  0  0  0  0
  1  2  1  0
  2  3  2  0
  3  4  1  0
  4  5  2  0
  5  6  1  0
  6  7  1  0
  7  8  1  0
  8  9  2  0
  9 10  1  0
 10 11  2  0
 11 12  1  0
 12 13  1  0
 12 14  2  0
 14 15  1  0
 15 16  2  0
 15 17  1  0
 17 18  1  0
  5 19  1  0
 19 20  2  0
 20 21  1  0
 21 22  1  0
 21 23  1  0
 20  2  1  0
 17  6  2  0
 14  8  1  0
  1 24  1  0
  1 25  1  0
  1 26  1  0
  3 27  1  0
  4 28  1  0
  9 29  1  0
 10 30  1  0
 11 31  1  0
 13 32  1  0
 18 33  1  0
 19 34  1  0
 21 35  1  0
 22 36  1  0
 22 37  1  0
 22 38  1  0
 23 39  1  0
 23 40  1  0
 23 41  1  0
M  END
>  <meeko>  (5) 
{"is_sidechain": [false], "free_energy": -8.5, "intermolecular_energy": -10.713, "internal_energy": 0.79}

$$$$
cand_009_out
     RDKit          3D

 41 43  0  0  0  0  0  0  0  0999 V2000
   54.0960  154.2660   25.3260 C   0  0  0  0  0  0  0  0  0  0  0  0
   53.3800  155.0910   26.3600 C   0  0  0  0  0  0  0  0  0  0  0  0
   53.4070  156.4900   26.2330 C   0  0  0  0  0  0  0  0  0  0  0  0
   52.7630  157.3110   27.1610 C   0  0  0  0  0  0  0  0  0  0  0  0
   52.0790  156.7580   28.2460 C   0  0  0  0  0  0  0  0  0  0  0  0
   51.3820  157.6420   29.2040 C   0  0  0  0  0  0  0  0  0  0  0  0
   52.1080  158.7870   29.5100 O   0  0  0  0  0  0  0  0  0  0  0  0
   51.5760  159.6970   30.3880 C   0  0  0  0  0  0  0  0  0  0  0  0
   52.3330  160.8380   30.6540 C   0  0  0  0  0  0  0  0  0  0  0  0
   51.8500  161.8030   31.5410 C   0  0  0  0  0  0  0  0  0  0  0  0
   50.6110  161.6260   32.1610 C   0  0  0  0  0  0  0  0  0  0  0  0
   49.8580  160.4860   31.8930 C   0  0  0  0  0  0  0  0  0  0  0  0
   48.6550  160.3750   32.5350 O   0  0  0  0  0  0  0  0  0  0  0  0
   50.3420  159.5210   31.0060 C   0  0  0  0  0  0  0  0  0  0  0  0
   49.5820  158.3090   30.6970 C   0  0  0  0  0  0  0  0  0  0  0  0
   48.4890  158.0770   31.2080 O   0  0  0  0  0  0  0  0  0  0  0  0
   50.1800  157.3510   29.7360 C   0  0  0  0  0  0  0  0  0  0  0  0
   49.4590  156.2040   29.4620 O   0  0  0  0  0  0  0  0  0  0  0  0
   52.0420  155.3620   28.3670 C   0  0  0  0  0  0  0  0  0  0  0  0
   52.6880  154.5100   27.4430 C   0  0  0  0  0  0  0  0  0  0  0  0
   52.6160  153.0000   27.6440 C   0  0  0  0  0  0  0  0  0  0  0  0
   52.0090  152.2990   26.4240 C   0  0  0  0  0  0  0  0  0  0  0  0
   51.8500  152.6350   28.9200 C   0  0  0  0  0  0  0  0  0  0  0  0
   54.7378  153.5265   25.8271 H   0  0  0  0  0  0  0  0  0  0  0  0
   53.3586  153.7454   24.6973 H   0  0  0  0  0  0  0  0  0  0  0  0
   54.7152  154.9228   24.6973 H   0  0  0  0  0  0  0  0  0  0  0  0
   53.9444  156.9462   25.3885 H   0  0  0  0  0  0  0  0  0  0  0  0
   52.7947  158.4035   27.0364 H   0  0  0  0  0  0  0  0  0  0  0  0
   53.3089  160.9777   30.1660 H   0  0  0  0  0  0  0  0  0  0  0  0
   52.4461  162.7032   31.7514 H   0  0  0  0  0  0  0  0  0  0  0  0
   50.2309  162.3858   32.8597 H   0  0  0  0  0  0  0  0  0  0  0  0
   48.4440  159.5900   33.0010 H   0  0  0  0  0  0  0  0  0  0  0  0
   49.6280  155.7200   28.6780 H   0  0  0  0  0  0  0  0  0  0  0  0
   51.4923  154.9152   29.2085 H   0  0  0  0  0  0  0  0  0  0  0  0
   53.6494  152.6414   27.7600 H   0  0  0  0  0  0  0  0  0  0  0  0
   51.3233  151.5071   26.7597 H   0  0  0  0  0  0  0  0  0  0  0  0
   51.4550  153.0313   25.8183 H   0  0  0  0  0  0  0  0  0  0  0  0
   52.8130  151.8554   25.8183 H   0  0  0  0  0  0  0  0  0  0  0  0
   52.4463  152.9191   29.7996 H   0  0  0  0  0  0  0  0  0  0  0  0
   50.8906  153.1727   28.9382 H   0  0  0  0  0  0  0  0  0  0  0  0
   51.6633  151.5511   28.9382 H   0  0  0  0  0  0  0  0  0  0  0  0
  1  2  1  0
  2  3  2  0
  3  4  1  0
  4  5  2  0
  5  6  1  0
  6  7  1  0
  7  8  1  0
  8  9  2  0
  9 10  1  0
 10 11  2  0
 11 12  1  0
 12 13  1  0
 12 14  2  0
 14 15  1  0
 15 16  2  0
 15 17  1  0
 17 18  1  0
  5 19  1  0
 19 20  2  0
 20 21  1  0
 21 22  1  0
 21 23  1  0
 20  2  1  0
 17  6  2  0
 14  8  1  0
  1 24  1  0
  1 25  1  0
  1 26  1  0
  3 27  1  0
  4 28  1  0
  9 29  1  0
 10 30  1  0
 11 31  1  0
 13 32  1  0
 18 33  1  0
 19 34  1  0
 21 35  1  0
 22 36  1  0
 22 37  1  0
 22 38  1  0
 23 39  1  0
 23 40  1  0
 23 41  1  0
M  END
>  <meeko>  (6) 
{"is_sidechain": [false], "free_energy": -7.543, "intermolecular_energy": -9.039, "internal_energy": 0.243}

$$$$
cand_009_out
     RDKit          3D

 41 43  0  0  0  0  0  0  0  0999 V2000
   49.2240  158.3330   31.2810 C   0  0  0  0  0  0  0  0  0  0  0  0
   50.0740  157.6400   30.2510 C   0  0  0  0  0  0  0  0  0  0  0  0
   49.8950  156.2600   30.0570 C   0  0  0  0  0  0  0  0  0  0  0  0
   50.6550  155.5590   29.1180 C   0  0  0  0  0  0  0  0  0  0  0  0
   51.6190  156.2150   28.3500 C   0  0  0  0  0  0  0  0  0  0  0  0
   52.3960  155.4620   27.3430 C   0  0  0  0  0  0  0  0  0  0  0  0
   52.1350  154.0970   27.3690 O   0  0  0  0  0  0  0  0  0  0  0  0
   52.7880  153.2790   26.4840 C   0  0  0  0  0  0  0  0  0  0  0  0
   52.4840  151.9170   26.5360 C   0  0  0  0  0  0  0  0  0  0  0  0
   53.1160  151.0290   25.6630 C   0  0  0  0  0  0  0  0  0  0  0  0
   54.0510  151.5010   24.7400 C   0  0  0  0  0  0  0  0  0  0  0  0
   54.3520  152.8590   24.6900 C   0  0  0  0  0  0  0  0  0  0  0  0
   55.2780  153.2540   23.7630 O   0  0  0  0  0  0  0  0  0  0  0  0
   53.7200  153.7480   25.5640 C   0  0  0  0  0  0  0  0  0  0  0  0
   54.0070  155.1830   25.5440 C   0  0  0  0  0  0  0  0  0  0  0  0
   54.8230  155.6730   24.7670 O   0  0  0  0  0  0  0  0  0  0  0  0
   53.2770  156.0420   26.5060 C   0  0  0  0  0  0  0  0  0  0  0  0
   53.5660  157.3930   26.4880 O   0  0  0  0  0  0  0  0  0  0  0  0
   51.7900  157.5950   28.5350 C   0  0  0  0  0  0  0  0  0  0  0  0
   51.0360  158.3260   29.4810 C   0  0  0  0  0  0  0  0  0  0  0  0
   51.2840  159.8220   29.6370 C   0  0  0  0  0  0  0  0  0  0  0  0
   52.0710  160.1310   30.9150 C   0  0  0  0  0  0  0  0  0  0  0  0
   49.9770  160.6200   29.5940 C   0  0  0  0  0  0  0  0  0  0  0  0
   49.5671  158.0532   32.2880 H   0  0  0  0  0  0  0  0  0  0  0  0
   49.3092  159.4223   31.1540 H   0  0  0  0  0  0  0  0  0  0  0  0
   48.1742  158.0301   31.1540 H   0  0  0  0  0  0  0  0  0  0  0  0
   49.1438  155.7227   30.6546 H   0  0  0  0  0  0  0  0  0  0  0  0
   50.4925  154.4796   28.9822 H   0  0  0  0  0  0  0  0  0  0  0  0
   51.7479  151.5443   27.2635 H   0  0  0  0  0  0  0  0  0  0  0  0
   52.8768  149.9561   25.7027 H   0  0  0  0  0  0  0  0  0  0  0  0
   54.5491  150.8007   24.0533 H   0  0  0  0  0  0  0  0  0  0  0  0
   55.3180  154.1500   23.4940 H   0  0  0  0  0  0  0  0  0  0  0  0
   52.8950  158.0190   26.6720 H   0  0  0  0  0  0  0  0  0  0  0  0
   52.5351  158.1255   27.9240 H   0  0  0  0  0  0  0  0  0  0  0  0
   51.8962  160.1375   28.7793 H   0  0  0  0  0  0  0  0  0  0  0  0
   51.4542  159.8888   31.7930 H   0  0  0  0  0  0  0  0  0  0  0  0
   52.9901  159.5270   30.9347 H   0  0  0  0  0  0  0  0  0  0  0  0
   52.3336  161.1990   30.9347 H   0  0  0  0  0  0  0  0  0  0  0  0
   49.6393  160.8262   30.6204 H   0  0  0  0  0  0  0  0  0  0  0  0
   50.1446  161.5700   29.0654 H   0  0  0  0  0  0  0  0  0  0  0  0
   49.2086  160.0368   29.0654 H   0  0  0  0  0  0  0  0  0  0  0  0
  1  2  1  0
  2  3  2  0
  3  4  1  0
  4  5  2  0
  5  6  1  0
  6  7  1  0
  7  8  1  0
  8  9  2  0
  9 10  1  0
 10 11  2  0
 11 12  1  0
 12 13  1  0
 12 14  2  0
 14 15  1  0
 15 16  2  0
 15 17  1  0
 17 18  1  0
  5 19  1  0
 19 20  2  0
 20 21  1  0
 21 22  1  0
 21 23  1  0
 20  2  1  0
 17  6  2  0
 14  8  1  0
  1 24  1  0
  1 25  1  0
  1 26  1  0
  3 27  1  0
  4 28  1  0
  9 29  1  0
 10 30  1  0
 11 31  1  0
 13 32  1  0
 18 33  1  0
 19 34  1  0
 21 35  1  0
 22 36  1  0
 22 37  1  0
 22 38  1  0
 23 39  1  0
 23 40  1  0
 23 41  1  0
M  END
>  <meeko>  (7) 
{"is_sidechain": [false], "free_energy": -7.516, "intermolecular_energy": -9.589, "internal_energy": 0.823}

$$$$
cand_009_out
     RDKit          3D

 41 43  0  0  0  0  0  0  0  0999 V2000
   53.5630  154.3060   25.9090 C   0  0  0  0  0  0  0  0  0  0  0  0
   53.0160  155.2940   26.9020 C   0  0  0  0  0  0  0  0  0  0  0  0
   53.1240  156.6640   26.6090 C   0  0  0  0  0  0  0  0  0  0  0  0
   52.6380  157.6310   27.4910 C   0  0  0  0  0  0  0  0  0  0  0  0
   52.0340  157.2570   28.6940 C   0  0  0  0  0  0  0  0  0  0  0  0
   51.5020  158.2930   29.6040 C   0  0  0  0  0  0  0  0  0  0  0  0
   50.1540  158.1190   29.8920 O   0  0  0  0  0  0  0  0  0  0  0  0
   49.5320  159.0110   30.7280 C   0  0  0  0  0  0  0  0  0  0  0  0
   48.1820  158.7890   31.0010 C   0  0  0  0  0  0  0  0  0  0  0  0
   47.4890  159.6620   31.8430 C   0  0  0  0  0  0  0  0  0  0  0  0
   48.1450  160.7560   32.4110 C   0  0  0  0  0  0  0  0  0  0  0  0
   49.4920  160.9750   32.1360 C   0  0  0  0  0  0  0  0  0  0  0  0
   50.0740  162.0660   32.7230 O   0  0  0  0  0  0  0  0  0  0  0  0
   50.1860  160.1010   31.2940 C   0  0  0  0  0  0  0  0  0  0  0  0
   51.6020  160.2950   30.9800 C   0  0  0  0  0  0  0  0  0  0  0  0
   52.2460  161.2380   31.4340 O   0  0  0  0  0  0  0  0  0  0  0  0
   52.2470  159.3080   30.0830 C   0  0  0  0  0  0  0  0  0  0  0  0
   53.5810  159.5090   29.7830 O   0  0  0  0  0  0  0  0  0  0  0  0
   51.9150  155.8900   28.9810 C   0  0  0  0  0  0  0  0  0  0  0  0
   52.4020  154.8920   28.1070 C   0  0  0  0  0  0  0  0  0  0  0  0
   52.2490  153.4240   28.4900 C   0  0  0  0  0  0  0  0  0  0  0  0
   51.5850  152.6170   27.3700 C   0  0  0  0  0  0  0  0  0  0  0  0
   51.4850  153.2610   29.8080 C   0  0  0  0  0  0  0  0  0  0  0  0
   54.0281  153.4660   26.4457 H   0  0  0  0  0  0  0  0  0  0  0  0
   52.7448  153.9296   25.2775 H   0  0  0  0  0  0  0  0  0  0  0  0
   54.3163  154.7997   25.2775 H   0  0  0  0  0  0  0  0  0  0  0  0
   53.5995  156.9800   25.6688 H   0  0  0  0  0  0  0  0  0  0  0  0
   52.7315  158.6970   27.2364 H   0  0  0  0  0  0  0  0  0  0  0  0
   47.6640  157.9278   30.5539 H   0  0  0  0  0  0  0  0  0  0  0  0
   46.4246  159.4873   32.0590 H   0  0  0  0  0  0  0  0  0  0  0  0
   47.5988  161.4430   33.0741 H   0  0  0  0  0  0  0  0  0  0  0  0
   50.7830  161.9500   33.3250 H   0  0  0  0  0  0  0  0  0  0  0  0
   53.8440  160.2690   29.3010 H   0  0  0  0  0  0  0  0  0  0  0  0
   51.4263  155.5840   29.9177 H   0  0  0  0  0  0  0  0  0  0  0  0
   53.2623  153.0226   28.6387 H   0  0  0  0  0  0  0  0  0  0  0  0
   50.9443  151.8383   27.8094 H   0  0  0  0  0  0  0  0  0  0  0  0
   50.9734  153.2873   26.7481 H   0  0  0  0  0  0  0  0  0  0  0  0
   52.3605  152.1459   26.7481 H   0  0  0  0  0  0  0  0  0  0  0  0
   52.1747  153.4081   30.6522 H   0  0  0  0  0  0  0  0  0  0  0  0
   50.6785  154.0073   29.8590 H   0  0  0  0  0  0  0  0  0  0  0  0
   51.0533  152.2505   29.8590 H   0  0  0  0  0  0  0  0  0  0  0  0
  1  2  1  0
  2  3  2  0
  3  4  1  0
  4  5  2  0
  5  6  1  0
  6  7  1  0
  7  8  1  0
  8  9  2  0
  9 10  1  0
 10 11  2  0
 11 12  1  0
 12 13  1  0
 12 14  2  0
 14 15  1  0
 15 16  2  0
 15 17  1  0
 17 18  1  0
  5 19  1  0
 19 20  2  0
 20 21  1  0
 21 22  1  0
 21 23  1  0
 20  2  1  0
 17  6  2  0
 14  8  1  0
  1 24  1  0
  1 25  1  0
  1 26  1  0
  3 27  1  0
  4 28  1  0
  9 29  1  0
 10 30  1  0
 11 31  1  0
 13 32  1  0
 18 33  1  0
 19 34  1  0
 21 35  1  0
 22 36  1  0
 22 37  1  0
 22 38  1  0
 23 39  1  0
 23 40  1  0
 23 41  1  0
M  END
>  <meeko>  (8) 
{"is_sidechain": [false], "free_energy": -7.45, "intermolecular_energy": -8.864, "internal_energy": 0.177}

$$$$
