cand_009_out
     RDKit          3D

 41 43  0  0  0  0  0  0  0  0999 V2000
   52.7000  152.6640   27.2640 C   0  0  0  0  0  0  0  0  0  0  0  0
   52.3280  153.9980   27.8500 C   0  0  0  0  0  0  0  0  0  0  0  0
   51.6130  154.0200   29.0590 C   0  0  0  0  0  0  0  0  0  0  0  0
   51.2360  155.2270   29.6530 C   0  0  0  0  0  0  0  0  0  0  0  0
   51.5580  156.4460   29.0520 C   0  0  0  0  0  0  0  0  0  0  0  0
   51.1730  157.7140   29.7080 C   0  0  0  0  0  0  0  0  0  0  0  0
   49.8520  157.7180   30.1420 O   0  0  0  0  0  0  0  0  0  0  0  0
   49.3630  158.8350   30.7710 C   0  0  0  0  0  0  0  0  0  0  0  0
   48.0370  158.7890   31.2030 C   0  0  0  0  0  0  0  0  0  0  0  0
   47.4770  159.8940   31.8480 C   0  0  0  0  0  0  0  0  0  0  0  0
   48.2420  161.0430   32.0610 C   0  0  0  0  0  0  0  0  0  0  0  0
   49.5640  161.0850   31.6280 C   0  0  0  0  0  0  0  0  0  0  0  0
   50.2560  162.2420   31.8660 O   0  0  0  0  0  0  0  0  0  0  0  0
   50.1250  159.9800   30.9820 C   0  0  0  0  0  0  0  0  0  0  0  0
   51.5110  159.9830   30.5120 C   0  0  0  0  0  0  0  0  0  0  0  0
   52.2450  160.9590   30.6540 O   0  0  0  0  0  0  0  0  0  0  0  0
   52.0120  158.7570   29.8470 C   0  0  0  0  0  0  0  0  0  0  0  0
   53.3180  158.7770   29.3950 O   0  0  0  0  0  0  0  0  0  0  0  0
   52.2810  156.4250   27.8510 C   0  0  0  0  0  0  0  0  0  0  0  0
   52.6710  155.2180   27.2290 C   0  0  0  0  0  0  0  0  0  0  0  0
   53.4470  155.2710   25.9170 C   0  0  0  0  0  0  0  0  0  0  0  0
   53.8090  156.7100   25.5370 C   0  0  0  0  0  0  0  0  0  0  0  0
   52.6840  154.5810   24.7810 C   0  0  0  0  0  0  0  0  0  0  0  0
   52.8993  151.9494   28.0762 H   0  0  0  0  0  0  0  0  0  0  0  0
   51.8713  152.2921   26.6436 H   0  0  0  0  0  0  0  0  0  0  0  0
   53.6016  152.7746   26.6436 H   0  0  0  0  0  0  0  0  0  0  0  0
   51.3454  153.0708   29.5463 H   0  0  0  0  0  0  0  0  0  0  0  0
   50.6806  155.2172   30.6025 H   0  0  0  0  0  0  0  0  0  0  0  0
   47.4340  157.8843   31.0359 H   0  0  0  0  0  0  0  0  0  0  0  0
   46.4317  159.8593   32.1888 H   0  0  0  0  0  0  0  0  0  0  0  0
   47.8006  161.9127   32.5698 H   0  0  0  0  0  0  0  0  0  0  0  0
   50.1390  162.9810   31.3030 H   0  0  0  0  0  0  0  0  0  0  0  0
   53.6330  158.0910   28.8410 H   0  0  0  0  0  0  0  0  0  0  0  0
   52.5536  157.3797   27.3774 H   0  0  0  0  0  0  0  0  0  0  0  0
   54.3847  154.7177   26.0742 H   0  0  0  0  0  0  0  0  0  0  0  0
   53.9584  157.3040   26.4507 H   0  0  0  0  0  0  0  0  0  0  0  0
   54.7353  156.7106   24.9437 H   0  0  0  0  0  0  0  0  0  0  0  0
   52.9933  157.1488   24.9437 H   0  0  0  0  0  0  0  0  0  0  0  0
   51.9313  153.9003   25.2054 H   0  0  0  0  0  0  0  0  0  0  0  0
   52.1841  155.3399   24.1611 H   0  0  0  0  0  0  0  0  0  0  0  0
   53.3890  154.0076   24.1611 H   0  0  0  0  0  0  0  0  0  0  0  0
  1  2  1  0
  2  3  2  0
  3  4  1  0
  4  5  2  0
  5  6  1  0
  6  7  1  0
  7  8  1  0
  8  9  2  0
  9 10  1  0
 10 11  2  0
 11 12  1  0
 12 13  1  0
 12 14  2  0
 14 15  1  0
 15 16  2  0
 15 17  1  0
 17 18  1  0
  5 19  1  0
 19 20  2  0
 20 21  1  0
 21 22  1  0
 21 23  1  0
 20  2  1  0
 17  6  2  0
 14  8  1  0
  1 24  1  0
  1 25  1  0
  1 26  1  0
  3 27  1  0
  4 28  1  0
  9 29  1  0
 10 30  1  0
 11 31  1  0
 13 32  1  0
 18 33  1  0
 19 34  1  0
 21 35  1  0
 22 36  1  0
 22 37  1  0
 22 38  1  0
 23 39  1  0
 23 40  1  0
 23 41  1  0
M  END
>  <meeko>  (1) 
{"is_sidechain": [false], "free_energy": -10.99, "intermolecular_energy": -12.918, "internal_energy": 0.094}

$$$$
cand_009_out
     RDKit          3D

 41 43  0  0  0  0  0  0  0  0999 V2000
   50.4660  161.0720   31.4570 C   0  0  0  0  0  0  0  0  0  0  0  0
   50.8030  159.8020   30.7260 C   0  0  0  0  0  0  0  0  0  0  0  0
   52.0680  159.6940   30.1230 C   0  0  0  0  0  0  0  0  0  0  0  0
   52.4400  158.5420   29.4280 C   0  0  0  0  0  0  0  0  0  0  0  0
   51.5570  157.4660   29.3090 C   0  0  0  0  0  0  0  0  0  0  0  0
   51.9770  156.2440   28.5910 C   0  0  0  0  0  0  0  0  0  0  0  0
   52.4450  156.5060   27.3080 O   0  0  0  0  0  0  0  0  0  0  0  0
   52.8700  155.4590   26.5300 C   0  0  0  0  0  0  0  0  0  0  0  0
   53.3450  155.7700   25.2550 C   0  0  0  0  0  0  0  0  0  0  0  0
   53.7910  154.7500   24.4110 C   0  0  0  0  0  0  0  0  0  0  0  0
   53.7620  153.4210   24.8420 C   0  0  0  0  0  0  0  0  0  0  0  0
   53.2870  153.1150   26.1140 C   0  0  0  0  0  0  0  0  0  0  0  0
   53.2840  151.7950   26.4720 O   0  0  0  0  0  0  0  0  0  0  0  0
   52.8410  154.1360   26.9590 C   0  0  0  0  0  0  0  0  0  0  0  0
   52.3350  153.8570   28.3030 C   0  0  0  0  0  0  0  0  0  0  0  0
   52.2700  152.7140   28.7510 O   0  0  0  0  0  0  0  0  0  0  0  0
   51.8930  155.0100   29.1220 C   0  0  0  0  0  0  0  0  0  0  0  0
   51.4050  154.7330   30.3850 O   0  0  0  0  0  0  0  0  0  0  0  0
   50.2990  157.5690   29.9200 C   0  0  0  0  0  0  0  0  0  0  0  0
   49.8970  158.7250   30.6260 C   0  0  0  0  0  0  0  0  0  0  0  0
   48.5090  158.7710   31.2550 C   0  0  0  0  0  0  0  0  0  0  0  0
   47.5590  159.6690   30.4550 C   0  0  0  0  0  0  0  0  0  0  0  0
   48.5670  159.2070   32.7230 C   0  0  0  0  0  0  0  0  0  0  0  0
   50.5131  160.8944   32.5415 H   0  0  0  0  0  0  0  0  0  0  0  0
   51.1873  161.8557   31.1821 H   0  0  0  0  0  0  0  0  0  0  0  0
   49.4511  161.3950   31.1821 H   0  0  0  0  0  0  0  0  0  0  0  0
   52.7769  160.5315   30.2001 H   0  0  0  0  0  0  0  0  0  0  0  0
   53.4381  158.4809   28.9696 H   0  0  0  0  0  0  0  0  0  0  0  0
   53.3681  156.8160   24.9154 H   0  0  0  0  0  0  0  0  0  0  0  0
   54.1655  154.9933   23.4058 H   0  0  0  0  0  0  0  0  0  0  0  0
   54.1139  152.6183   24.1773 H   0  0  0  0  0  0  0  0  0  0  0  0
   53.7760  151.1740   25.9720 H   0  0  0  0  0  0  0  0  0  0  0  0
   51.3770  155.4070   31.0360 H   0  0  0  0  0  0  0  0  0  0  0  0
   49.6017  156.7213   29.8472 H   0  0  0  0  0  0  0  0  0  0  0  0
   48.1087  157.7468   31.2265 H   0  0  0  0  0  0  0  0  0  0  0  0
   46.9383  160.2557   31.1482 H   0  0  0  0  0  0  0  0  0  0  0  0
   48.1454  160.3506   29.8213 H   0  0  0  0  0  0  0  0  0  0  0  0
   46.9114  159.0452   29.8213 H   0  0  0  0  0  0  0  0  0  0  0  0
   48.4499  158.3265   33.3719 H   0  0  0  0  0  0  0  0  0  0  0  0
   49.5367  159.6853   32.9254 H   0  0  0  0  0  0  0  0  0  0  0  0
   47.7561  159.9222   32.9254 H   0  0  0  0  0  0  0  0  0  0  0  0
  1  2  1  0
  2  3  2  0
  3  4  1  0
  4  5  2  0
  5  6  1  0
  6  7  1  0
  7  8  1  0
  8  9  2  0
  9 10  1  0
 10 11  2  0
 11 12  1  0
 12 13  1  0
 12 14  2  0
 14 15  1  0
 15 16  2  0
 15 17  1  0
 17 18  1  0
  5 19  1  0
 19 20  2  0
 20 21  1  0
 21 22  1  0
 21 23  1  0
 20  2  1  0
 17  6  2  0
 14  8  1  0
  1 24  1  0
  1 25  1  0
  1 26  1  0
  3 27  1  0
  4 28  1  0
  9 29  1  0
 10 30  1  0
 11 31  1  0
 13 32  1  0
 18 33  1  0
 19 34  1  0
 21 35  1  0
 22 36  1  0
 22 37  1  0
 22 38  1  0
 23 39  1  0
 23 40  1  0
 23 41  1  0
M  END
>  <meeko>  (2) 
{"is_sidechain": [false], "free_energy": -10.983, "intermolecular_energy": -13.228, "internal_energy": 0.412}

$$$$
cand_009_out
     RDKit          3D

 41 43  0  0  0  0  0  0  0  0999 V2000
   48.7070  158.9420   31.5350 C   0  0  0  0  0  0  0  0  0  0  0  0
   49.6230  158.1660   30.6280 C   0  0  0  0  0  0  0  0  0  0  0  0
   49.3690  156.7980   30.4350 C   0  0  0  0  0  0  0  0  0  0  0  0
   50.1840  156.0230   29.6070 C   0  0  0  0  0  0  0  0  0  0  0  0
   51.2800  156.5920   28.9530 C   0  0  0  0  0  0  0  0  0  0  0  0
   52.1170  155.7620   28.0610 C   0  0  0  0  0  0  0  0  0  0  0  0
   52.6400  156.4780   26.9910 O   0  0  0  0  0  0  0  0  0  0  0  0
   53.4380  155.8290   26.0840 C   0  0  0  0  0  0  0  0  0  0  0  0
   53.9530  156.5910   25.0340 C   0  0  0  0  0  0  0  0  0  0  0  0
   54.7720  155.9900   24.0740 C   0  0  0  0  0  0  0  0  0  0  0  0
   55.0740  154.6290   24.1650 C   0  0  0  0  0  0  0  0  0  0  0  0
   54.5580  153.8720   25.2130 C   0  0  0  0  0  0  0  0  0  0  0  0
   54.8920  152.5460   25.2410 O   0  0  0  0  0  0  0  0  0  0  0  0
   53.7390  154.4740   26.1730 C   0  0  0  0  0  0  0  0  0  0  0  0
   53.1770  153.7140   27.2910 C   0  0  0  0  0  0  0  0  0  0  0  0
   53.3900  152.5120   27.4340 O   0  0  0  0  0  0  0  0  0  0  0  0
   52.3280  154.4470   28.2590 C   0  0  0  0  0  0  0  0  0  0  0  0
   51.7920  153.7170   29.3030 O   0  0  0  0  0  0  0  0  0  0  0  0
   51.5270  157.9600   29.1370 C   0  0  0  0  0  0  0  0  0  0  0  0
   50.7190  158.7650   29.9720 C   0  0  0  0  0  0  0  0  0  0  0  0
   51.0540  160.2430   30.1340 C   0  0  0  0  0  0  0  0  0  0  0  0
   51.5150  160.5620   31.5600 C   0  0  0  0  0  0  0  0  0  0  0  0
   49.8780  161.1380   29.7270 C   0  0  0  0  0  0  0  0  0  0  0  0
   48.9608  158.7270   32.5835 H   0  0  0  0  0  0  0  0  0  0  0  0
   48.8258  160.0185   31.3423 H   0  0  0  0  0  0  0  0  0  0  0  0
   47.6647  158.6479   31.3423 H   0  0  0  0  0  0  0  0  0  0  0  0
   48.5141  156.3294   30.9444 H   0  0  0  0  0  0  0  0  0  0  0  0
   49.9611  154.9548   29.4684 H   0  0  0  0  0  0  0  0  0  0  0  0
   53.7147  157.6625   24.9622 H   0  0  0  0  0  0  0  0  0  0  0  0
   55.1791  156.5891   23.2461 H   0  0  0  0  0  0  0  0  0  0  0  0
   55.7187  154.1562   23.4095 H   0  0  0  0  0  0  0  0  0  0  0  0
   54.3830  151.9250   24.7560 H   0  0  0  0  0  0  0  0  0  0  0  0
   51.2250  154.1320   29.9230 H   0  0  0  0  0  0  0  0  0  0  0  0
   52.3776  158.4219   28.6143 H   0  0  0  0  0  0  0  0  0  0  0  0
   51.8902  160.4595   29.4529 H   0  0  0  0  0  0  0  0  0  0  0  0
   50.8316  160.0891   32.2807 H   0  0  0  0  0  0  0  0  0  0  0  0
   52.5332  160.1744   31.7115 H   0  0  0  0  0  0  0  0  0  0  0  0
   51.5111  161.6515   31.7115 H   0  0  0  0  0  0  0  0  0  0  0  0
   49.3776  161.5189   30.6295 H   0  0  0  0  0  0  0  0  0  0  0  0
   50.2502  161.9834   29.1297 H   0  0  0  0  0  0  0  0  0  0  0  0
   49.1623  160.5540   29.1297 H   0  0  0  0  0  0  0  0  0  0  0  0
  1  2  1  0
  2  3  2  0
  3  4  1  0
  4  5  2  0
  5  6  1  0
  6  7  1  0
  7  8  1  0
  8  9  2  0
  9 10  1  0
 10 11  2  0
 11 12  1  0
 12 13  1  0
 12 14  2  0
 14 15  1  0
 15 16  2  0
 15 17  1  0
 17 18  1  0
  5 19  1  0
 19 20  2  0
 20 21  1  0
 21 22  1  0
 21 23  1  0
 20  2  1  0
 17  6  2  0
 14  8  1  0
  1 24  1  0
  1 25  1  0
  1 26  1  0
  3 27  1  0
  4 28  1  0
  9 29  1  0
 10 30  1  0
 11 31  1  0
 13 32  1  0
 18 33  1  0
 19 34  1  0
 21 35  1  0
 22 36  1  0
 22 37  1  0
 22 38  1  0
 23 39  1  0
 23 40  1  0
 23 41  1  0
M  END
>  <meeko>  (3) 
{"is_sidechain": [false], "free_energy": -9.527, "intermolecular_energy": -11.727, "internal_energy": 0.623}

$$$$
cand_009_out
     RDKit          3D

 41 43  0  0  0  0  0  0  0  0999 V2000
   53.5580  152.4490   26.7250 C   0  0  0  0  0  0  0  0  0  0  0  0
   52.9070  153.6520   27.3520 C   0  0  0  0  0  0  0  0  0  0  0  0
   52.1820  153.4730   28.5430 C   0  0  0  0  0  0  0  0  0  0  0  0
   51.5530  154.5500   29.1720 C   0  0  0  0  0  0  0  0  0  0  0  0
   51.6250  155.8340   28.6270 C   0  0  0  0  0  0  0  0  0  0  0  0
   50.9750  156.9650   29.3210 C   0  0  0  0  0  0  0  0  0  0  0  0
   51.8550  158.0020   29.6070 O   0  0  0  0  0  0  0  0  0  0  0  0
   51.3820  159.1170   30.2490 C   0  0  0  0  0  0  0  0  0  0  0  0
   52.2980  160.1390   30.5040 C   0  0  0  0  0  0  0  0  0  0  0  0
   51.8810  161.3010   31.1560 C   0  0  0  0  0  0  0  0  0  0  0  0
   50.5500  161.4420   31.5550 C   0  0  0  0  0  0  0  0  0  0  0  0
   49.6390  160.4210   31.3000 C   0  0  0  0  0  0  0  0  0  0  0  0
   48.3520  160.6220   31.7180 O   0  0  0  0  0  0  0  0  0  0  0  0
   50.0560  159.2580   30.6470 C   0  0  0  0  0  0  0  0  0  0  0  0
   49.1300  158.1610   30.3590 C   0  0  0  0  0  0  0  0  0  0  0  0
   47.9460  158.2060   30.6850 O   0  0  0  0  0  0  0  0  0  0  0  0
   49.6700  156.9750   29.6550 C   0  0  0  0  0  0  0  0  0  0  0  0
   48.7900  155.9400   29.4010 O   0  0  0  0  0  0  0  0  0  0  0  0
   52.3580  156.0140   27.4450 C   0  0  0  0  0  0  0  0  0  0  0  0
   53.0000  154.9410   26.7870 C   0  0  0  0  0  0  0  0  0  0  0  0
   53.7700  155.2090   25.4980 C   0  0  0  0  0  0  0  0  0  0  0  0
   54.0210  156.7070   25.2950 C   0  0  0  0  0  0  0  0  0  0  0  0
   53.0620  154.6040   24.2810 C   0  0  0  0  0  0  0  0  0  0  0  0
   53.9223  151.7758   27.5150 H   0  0  0  0  0  0  0  0  0  0  0  0
   52.8239  151.9184   26.1008 H   0  0  0  0  0  0  0  0  0  0  0  0
   54.4037  152.7733   26.1008 H   0  0  0  0  0  0  0  0  0  0  0  0
   52.1089  152.4691   28.9866 H   0  0  0  0  0  0  0  0  0  0  0  0
   50.9954  154.3853   30.1058 H   0  0  0  0  0  0  0  0  0  0  0  0
   53.3470  160.0290   30.1917 H   0  0  0  0  0  0  0  0  0  0  0  0
   52.6022  162.1071   31.3559 H   0  0  0  0  0  0  0  0  0  0  0  0
   50.2225  162.3575   32.0694 H   0  0  0  0  0  0  0  0  0  0  0  0
   47.6760  160.0280   31.4550 H   0  0  0  0  0  0  0  0  0  0  0  0
   47.9450  156.1210   29.0390 H   0  0  0  0  0  0  0  0  0  0  0  0
   52.4357  157.0239   27.0160 H   0  0  0  0  0  0  0  0  0  0  0  0
   54.7472  154.7137   25.5972 H   0  0  0  0  0  0  0  0  0  0  0  0
   54.1038  157.2009   26.2744 H   0  0  0  0  0  0  0  0  0  0  0  0
   54.9555  156.8493   24.7325 H   0  0  0  0  0  0  0  0  0  0  0  0
   53.1839  157.1461   24.7325 H   0  0  0  0  0  0  0  0  0  0  0  0
   52.2665  153.9242   24.6201 H   0  0  0  0  0  0  0  0  0  0  0  0
   52.6222  155.4096   23.6747 H   0  0  0  0  0  0  0  0  0  0  0  0
   53.7891  154.0440   23.6747 H   0  0  0  0  0  0  0  0  0  0  0  0
  1  2  1  0
  2  3  2  0
  3  4  1  0
  4  5  2  0
  5  6  1  0
  6  7  1  0
  7  8  1  0
  8  9  2  0
  9 10  1  0
 10 11  2  0
 11 12  1  0
 12 13  1  0
 12 14  2  0
 14 15  1  0
 15 16  2  0
 15 17  1  0
 17 18  1  0
  5 19  1  0
 19 20  2  0
 20 21  1  0
 21 22  1  0
 21 23  1  0
 20  2  1  0
 17  6  2  0
 14  8  1  0
  1 24  1  0
  1 25  1  0
  1 26  1  0
  3 27  1  0
  4 28  1  0
  9 29  1  0
 10 30  1  0
 11 31  1  0
 13 32  1  0
 18 33  1  0
 19 34  1  0
 21 35  1  0
 22 36  1  0
 22 37  1  0
 22 38  1  0
 23 39  1  0
 23 40  1  0
 23 41  1  0
M  END
>  <meeko>  (4) 
{"is_sidechain": [false], "free_energy": -8.98, "intermolecular_energy": -10.292, "internal_energy": -0.17}

$$$$
cand_009_out
     RDKit          3D

 41 43  0  0  0  0  0  0  0  0999 V2000
   50.6240  162.1200   32.1680 C   0  0  0  0  0  0  0  0  0  0  0  0
   50.8480  160.8780   31.3490 C   0  0  0  0  0  0  0  0  0  0  0  0
   52.1650  160.5490   30.9840 C   0  0  0  0  0  0  0  0  0  0  0  0
   52.4380  159.4110   30.2220 C   0  0  0  0  0  0  0  0  0  0  0  0
   51.4040  158.5720   29.7990 C   0  0  0  0  0  0  0  0  0  0  0  0
   51.7150  157.3580   29.0150 C   0  0  0  0  0  0  0  0  0  0  0  0
   52.4840  157.6250   27.8880 O   0  0  0  0  0  0  0  0  0  0  0  0
   52.8470  156.5860   27.0700 C   0  0  0  0  0  0  0  0  0  0  0  0
   53.6310  156.8980   25.9580 C   0  0  0  0  0  0  0  0  0  0  0  0
   54.0330  155.8860   25.0840 C   0  0  0  0  0  0  0  0  0  0  0  0
   53.6510  154.5630   25.3200 C   0  0  0  0  0  0  0  0  0  0  0  0
   52.8690  154.2550   26.4300 C   0  0  0  0  0  0  0  0  0  0  0  0
   52.5290  152.9410   26.6010 O   0  0  0  0  0  0  0  0  0  0  0  0
   52.4660  155.2680   27.3050 C   0  0  0  0  0  0  0  0  0  0  0  0
   51.6440  154.9870   28.4830 C   0  0  0  0  0  0  0  0  0  0  0  0
   51.2610  153.8510   28.7540 O   0  0  0  0  0  0  0  0  0  0  0  0
   51.2790  156.1300   29.3520 C   0  0  0  0  0  0  0  0  0  0  0  0
   50.4910  155.8550   30.4540 O   0  0  0  0  0  0  0  0  0  0  0  0
   50.0920  158.8950   30.1730 C   0  0  0  0  0  0  0  0  0  0  0  0
   49.7890  160.0420   30.9400 C   0  0  0  0  0  0  0  0  0  0  0  0
   48.3360  160.3370   31.3000 C   0  0  0  0  0  0  0  0  0  0  0  0
   48.1940  160.7450   32.7700 C   0  0  0  0  0  0  0  0  0  0  0  0
   47.4210  159.1530   30.9700 C   0  0  0  0  0  0  0  0  0  0  0  0
   50.6696  161.8671   33.2376 H   0  0  0  0  0  0  0  0  0  0  0  0
   51.4032  162.8599   31.9326 H   0  0  0  0  0  0  0  0  0  0  0  0
   49.6354  162.5411   31.9326 H   0  0  0  0  0  0  0  0  0  0  0  0
   52.9936  161.1981   31.3036 H   0  0  0  0  0  0  0  0  0  0  0  0
   53.4774  159.1728   29.9521 H   0  0  0  0  0  0  0  0  0  0  0  0
   53.9316  157.9394   25.7706 H   0  0  0  0  0  0  0  0  0  0  0  0
   54.6516  156.1308   24.2080 H   0  0  0  0  0  0  0  0  0  0  0  0
   53.9673  153.7665   24.6304 H   0  0  0  0  0  0  0  0  0  0  0  0
   53.1990  152.2930   26.6970 H   0  0  0  0  0  0  0  0  0  0  0  0
   50.8500  155.9230   31.3160 H   0  0  0  0  0  0  0  0  0  0  0  0
   49.2713  158.2334   29.8588 H   0  0  0  0  0  0  0  0  0  0  0  0
   48.0165  161.1887   30.6815 H   0  0  0  0  0  0  0  0  0  0  0  0
   48.4871  159.9029   33.4142 H   0  0  0  0  0  0  0  0  0  0  0  0
   48.8447  161.6077   32.9756 H   0  0  0  0  0  0  0  0  0  0  0  0
   47.1482  161.0173   32.9756 H   0  0  0  0  0  0  0  0  0  0  0  0
   47.0655  158.6930   31.9038 H   0  0  0  0  0  0  0  0  0  0  0  0
   46.5597  159.5072   30.3847 H   0  0  0  0  0  0  0  0  0  0  0  0
   47.9810  158.4088   30.3847 H   0  0  0  0  0  0  0  0  0  0  0  0
  1  2  1  0
  2  3  2  0
  3  4  1  0
  4  5  2  0
  5  6  1  0
  6  7  1  0
  7  8  1  0
  8  9  2  0
  9 10  1  0
 10 11  2  0
 11 12  1  0
 12 13  1  0
 12 14  2  0
 14 15  1  0
 15 16  2  0
 15 17  1  0
 17 18  1  0
  5 19  1  0
 19 20  2  0
 20 21  1  0
 21 22  1  0
 21 23  1  0
 20  2  1  0
 17  6  2  0
 14  8  1  0
  1 24  1  0
  1 25  1  0
  1 26  1  0
  3 27  1  0
  4 28  1  0
  9 29  1  0
 10 30  1  0
 11 31  1  0
 13 32  1  0
 18 33  1  0
 19 34  1  0
 21 35  1  0
 22 36  1  0
 22 37  1  0
 22 38  1  0
 23 39  1  0
 23 40  1  0
 23 41  1  0
M  END
>  <meeko>  (5) 
{"is_sidechain": [false], "free_energy": -8.852, "intermolecular_energy": -10.705, "internal_energy": 0.394}

$$$$
cand_009_out
     RDKit          3D

 41 43  0  0  0  0  0  0  0  0999 V2000
   53.6040  154.3820   26.1070 C   0  0  0  0  0  0  0  0  0  0  0  0
   53.0180  155.3780   27.0690 C   0  0  0  0  0  0  0  0  0  0  0  0
   53.1400  156.7460   26.7690 C   0  0  0  0  0  0  0  0  0  0  0  0
   52.6200  157.7200   27.6240 C   0  0  0  0  0  0  0  0  0  0  0  0
   51.9680  157.3570   28.8050 C   0  0  0  0  0  0  0  0  0  0  0  0
   51.4020  158.4010   29.6840 C   0  0  0  0  0  0  0  0  0  0  0  0
   50.0540  158.2030   29.9600 O   0  0  0  0  0  0  0  0  0  0  0  0
   49.4020  159.0990   30.7680 C   0  0  0  0  0  0  0  0  0  0  0  0
   48.0530  158.8520   31.0300 C   0  0  0  0  0  0  0  0  0  0  0  0
   47.3310  159.7280   31.8430 C   0  0  0  0  0  0  0  0  0  0  0  0
   47.9550  160.8490   32.3930 C   0  0  0  0  0  0  0  0  0  0  0  0
   49.3000  161.0930   32.1290 C   0  0  0  0  0  0  0  0  0  0  0  0
   49.8490  162.2100   32.6980 O   0  0  0  0  0  0  0  0  0  0  0  0
   50.0240  160.2170   31.3160 C   0  0  0  0  0  0  0  0  0  0  0  0
   51.4390  160.4360   31.0150 C   0  0  0  0  0  0  0  0  0  0  0  0
   52.0560  161.4040   31.4540 O   0  0  0  0  0  0  0  0  0  0  0  0
   52.1170  159.4430   30.1480 C   0  0  0  0  0  0  0  0  0  0  0  0
   53.4500  159.6680   29.8590 O   0  0  0  0  0  0  0  0  0  0  0  0
   51.8370  155.9920   29.0980 C   0  0  0  0  0  0  0  0  0  0  0  0
   52.3570  154.9870   28.2520 C   0  0  0  0  0  0  0  0  0  0  0  0
   52.1870  153.5230   28.6410 C   0  0  0  0  0  0  0  0  0  0  0  0
   51.5290  152.7160   27.5180 C   0  0  0  0  0  0  0  0  0  0  0  0
   51.4070  153.3730   29.9510 C   0  0  0  0  0  0  0  0  0  0  0  0
   54.0834  153.5672   26.6695 H   0  0  0  0  0  0  0  0  0  0  0  0
   52.8046  153.9696   25.4739 H   0  0  0  0  0  0  0  0  0  0  0  0
   54.3528  154.8805   25.4739 H   0  0  0  0  0  0  0  0  0  0  0  0
   53.6532  157.0541   25.8461 H   0  0  0  0  0  0  0  0  0  0  0  0
   52.7248  158.7839   27.3649 H   0  0  0  0  0  0  0  0  0  0  0  0
   47.5601  157.9692   30.5969 H   0  0  0  0  0  0  0  0  0  0  0  0
   46.2683  159.5343   32.0505 H   0  0  0  0  0  0  0  0  0  0  0  0
   47.3852  161.5381   33.0337 H   0  0  0  0  0  0  0  0  0  0  0  0
   49.8350  162.3160   33.6290 H   0  0  0  0  0  0  0  0  0  0  0  0
   54.1060  159.4850   30.5020 H   0  0  0  0  0  0  0  0  0  0  0  0
   51.3118  155.6937   30.0173 H   0  0  0  0  0  0  0  0  0  0  0  0
   53.1951  153.1140   28.8036 H   0  0  0  0  0  0  0  0  0  0  0  0
   50.8909  151.9334   27.9543 H   0  0  0  0  0  0  0  0  0  0  0  0
   50.9157  153.3851   26.8966 H   0  0  0  0  0  0  0  0  0  0  0  0
   52.3078  152.2499   26.8966 H   0  0  0  0  0  0  0  0  0  0  0  0
   52.0912  153.5046   30.8022 H   0  0  0  0  0  0  0  0  0  0  0  0
   50.6153  154.1354   29.9957 H   0  0  0  0  0  0  0  0  0  0  0  0
   50.9545  152.3714   29.9957 H   0  0  0  0  0  0  0  0  0  0  0  0
  1  2  1  0
  2  3  2  0
  3  4  1  0
  4  5  2  0
  5  6  1  0
  6  7  1  0
  7  8  1  0
  8  9  2  0
  9 10  1  0
 10 11  2  0
 11 12  1  0
 12 13  1  0
 12 14  2  0
 14 15  1  0
 15 16  2  0
 15 17  1  0
 17 18  1  0
  5 19  1  0
 19 20  2  0
 20 21  1  0
 21 22  1  0
 21 23  1  0
 20  2  1  0
 17  6  2  0
 14  8  1  0
  1 24  1  0
  1 25  1  0
  1 26  1  0
  3 27  1  0
  4 28  1  0
  9 29  1  0
 10 30  1  0
 11 31  1  0
 13 32  1  0
 18 33  1  0
 19 34  1  0
 21 35  1  0
 22 36  1  0
 22 37  1  0
 22 38  1  0
 23 39  1  0
 23 40  1  0
 23 41  1  0
M  END
>  <meeko>  (6) 
{"is_sidechain": [false], "free_energy": -8.281, "intermolecular_energy": -9.799, "internal_energy": 0.159}

$$$$
