cand_027_out
     RDKit          3D

 44 46  0  0  0  0  0  0  0  0999 V2000
   52.8750  152.4100   26.7210 C   0  0  0  0  0  0  0  0  0  0  0  0
   52.5690  153.7570   27.3220 C   0  0  0  0  0  0  0  0  0  0  0  0
   51.9040  153.7240   28.5670 C   0  0  0  0  0  0  0  0  0  0  0  0
   51.5590  154.8880   29.2480 C   0  0  0  0  0  0  0  0  0  0  0  0
   51.8740  156.1280   28.7080 C   0  0  0  0  0  0  0  0  0  0  0  0
   51.5110  157.3890   29.3900 C   0  0  0  0  0  0  0  0  0  0  0  0
   50.1870  157.4110   29.8170 O   0  0  0  0  0  0  0  0  0  0  0  0
   49.7180  158.5240   30.4640 C   0  0  0  0  0  0  0  0  0  0  0  0
   48.3880  158.4980   30.8850 C   0  0  0  0  0  0  0  0  0  0  0  0
   47.8450  159.6000   31.5500 C   0  0  0  0  0  0  0  0  0  0  0  0
   48.6320  160.7290   31.7910 C   0  0  0  0  0  0  0  0  0  0  0  0
   49.9590  160.7520   31.3700 C   0  0  0  0  0  0  0  0  0  0  0  0
   50.6720  161.8880   31.6390 O   0  0  0  0  0  0  0  0  0  0  0  0
   50.5010  159.6490   30.7060 C   0  0  0  0  0  0  0  0  0  0  0  0
   51.8900  159.6320   30.2470 C   0  0  0  0  0  0  0  0  0  0  0  0
   52.6430  160.5880   30.4170 O   0  0  0  0  0  0  0  0  0  0  0  0
   52.3700  158.4110   29.5580 C   0  0  0  0  0  0  0  0  0  0  0  0
   53.6800  158.4120   29.1150 O   0  0  0  0  0  0  0  0  0  0  0  0
   52.5150  156.1660   27.4560 C   0  0  0  0  0  0  0  0  0  0  0  0
   52.8670  155.0060   26.7170 C   0  0  0  0  0  0  0  0  0  0  0  0
   53.5740  155.1760   25.3430 C   0  0  0  0  0  0  0  0  0  0  0  0
   54.1000  156.6100   25.1080 C   0  0  0  0  0  0  0  0  0  0  0  0
   52.5930  154.7840   24.2180 C   0  0  0  0  0  0  0  0  0  0  0  0
   54.8230  154.2630   25.1750 C   0  0  0  0  0  0  0  0  0  0  0  0
   53.0411  151.6787   27.5257 H   0  0  0  0  0  0  0  0  0  0  0  0
   52.0278  152.0849   26.0992 H   0  0  0  0  0  0  0  0  0  0  0  0
   53.7795  152.4828   26.0992 H   0  0  0  0  0  0  0  0  0  0  0  0
   51.6512  152.7502   29.0118 H   0  0  0  0  0  0  0  0  0  0  0  0
   51.0367  154.8256   30.2141 H   0  0  0  0  0  0  0  0  0  0  0  0
   47.7674  157.6102   30.6934 H   0  0  0  0  0  0  0  0  0  0  0  0
   46.7972  159.5789   31.8841 H   0  0  0  0  0  0  0  0  0  0  0  0
   48.2041  161.5980   32.3123 H   0  0  0  0  0  0  0  0  0  0  0  0
   51.5800  161.9360   31.4130 H   0  0  0  0  0  0  0  0  0  0  0  0
   54.2420  159.1340   29.3170 H   0  0  0  0  0  0  0  0  0  0  0  0
   52.7568  157.1491   27.0259 H   0  0  0  0  0  0  0  0  0  0  0  0
   54.2791  157.0983   26.0773 H   0  0  0  0  0  0  0  0  0  0  0  0
   55.0409  156.5669   24.5397 H   0  0  0  0  0  0  0  0  0  0  0  0
   53.3544  157.1855   24.5397 H   0  0  0  0  0  0  0  0  0  0  0  0
   51.6579  154.4103   24.6606 H   0  0  0  0  0  0  0  0  0  0  0  0
   52.3777  155.6651   23.5957 H   0  0  0  0  0  0  0  0  0  0  0  0
   53.0442  153.9971   23.5957 H   0  0  0  0  0  0  0  0  0  0  0  0
   55.2077  153.9818   26.1664 H   0  0  0  0  0  0  0  0  0  0  0  0
   54.5421  153.3558   24.6199 H   0  0  0  0  0  0  0  0  0  0  0  0
   55.6021  154.8060   24.6199 H   0  0  0  0  0  0  0  0  0  0  0  0
  1  2  1  0
  2  3  2  0
  3  4  1  0
  4  5  2  0
  5  6  1  0
  6  7  1  0
  7  8  1  0
  8  9  2  0
  9 10  1  0
 10 11  2  0
 11 12  1  0
 12 13  1  0
 12 14  2  0
 14 15  1  0
 15 16  2  0
 15 17  1  0
 17 18  1  0
  5 19  1  0
 19 20  2  0
 20 21  1  0
 21 22  1  0
 21 23  1  0
 21 24  1  0
 20  2  1  0
 17  6  2  0
 14  8  1  0
  1 25  1  0
  1 26  1  0
  1 27  1  0
  3 28  1  0
  4 29  1  0
  9 30  1  0
 10 31  1  0
 11 32  1  0
 13 33  1  0
 18 34  1  0
 19 35  1  0
 22 36  1  0
 22 37  1  0
 22 38  1  0
 23 39  1  0
 23 40  1  0
 23 41  1  0
 24 42  1  0
 24 43  1  0
 24 44  1  0
M  END
>  <meeko>  (1) 
{"is_sidechain": [false], "free_energy": -10.276, "intermolecular_energy": -12.078, "internal_energy": 0.091}

$$$$
cand_027_out
     RDKit          3D

 44 46  0  0  0  0  0  0  0  0999 V2000
   51.3780  161.3280   31.2440 C   0  0  0  0  0  0  0  0  0  0  0  0
   51.4670  159.9900   30.5600 C   0  0  0  0  0  0  0  0  0  0  0  0
   52.7520  159.6360   30.0920 C   0  0  0  0  0  0  0  0  0  0  0  0
   52.9920  158.4290   29.4430 C   0  0  0  0  0  0  0  0  0  0  0  0
   51.9540  157.5280   29.2450 C   0  0  0  0  0  0  0  0  0  0  0  0
   52.1630  156.2420   28.5460 C   0  0  0  0  0  0  0  0  0  0  0  0
   52.6500  156.4020   27.2530 O   0  0  0  0  0  0  0  0  0  0  0  0
   52.8870  155.2870   26.4910 C   0  0  0  0  0  0  0  0  0  0  0  0
   53.3870  155.4940   25.2050 C   0  0  0  0  0  0  0  0  0  0  0  0
   53.6490  154.4020   24.3750 C   0  0  0  0  0  0  0  0  0  0  0  0
   53.4100  153.1030   24.8310 C   0  0  0  0  0  0  0  0  0  0  0  0
   52.9110  152.9000   26.1140 C   0  0  0  0  0  0  0  0  0  0  0  0
   52.6990  151.6030   26.4960 O   0  0  0  0  0  0  0  0  0  0  0  0
   52.6490  153.9930   26.9450 C   0  0  0  0  0  0  0  0  0  0  0  0
   52.1250  153.8230   28.3000 C   0  0  0  0  0  0  0  0  0  0  0  0
   51.8830  152.7140   28.7700 O   0  0  0  0  0  0  0  0  0  0  0  0
   51.8870  155.0470   29.1010 C   0  0  0  0  0  0  0  0  0  0  0  0
   51.3780  154.8760   30.3750 O   0  0  0  0  0  0  0  0  0  0  0  0
   50.6670  157.8860   29.6880 C   0  0  0  0  0  0  0  0  0  0  0  0
   50.3720  159.1150   30.3350 C   0  0  0  0  0  0  0  0  0  0  0  0
   48.9100  159.3970   30.7800 C   0  0  0  0  0  0  0  0  0  0  0  0
   48.7070  159.2680   32.3070 C   0  0  0  0  0  0  0  0  0  0  0  0
   47.9610  158.4320   30.0390 C   0  0  0  0  0  0  0  0  0  0  0  0
   48.4280  160.8360   30.4370 C   0  0  0  0  0  0  0  0  0  0  0  0
   51.3876  161.1837   32.3345 H   0  0  0  0  0  0  0  0  0  0  0  0
   52.2368  161.9486   30.9487 H   0  0  0  0  0  0  0  0  0  0  0  0
   50.4445  161.8294   30.9487 H   0  0  0  0  0  0  0  0  0  0  0  0
   53.5873  160.3351   30.2452 H   0  0  0  0  0  0  0  0  0  0  0  0
   54.0044  158.1883   29.0866 H   0  0  0  0  0  0  0  0  0  0  0  0
   53.5746  156.5164   24.8453 H   0  0  0  0  0  0  0  0  0  0  0  0
   54.0439  154.5646   23.3613 H   0  0  0  0  0  0  0  0  0  0  0  0
   53.6159  152.2427   24.1772 H   0  0  0  0  0  0  0  0  0  0  0  0
   52.9430  151.3230   27.3560 H   0  0  0  0  0  0  0  0  0  0  0  0
   51.9600  154.8140   31.1070 H   0  0  0  0  0  0  0  0  0  0  0  0
   49.8443  157.1745   29.5240 H   0  0  0  0  0  0  0  0  0  0  0  0
   49.5235  159.7869   32.8306 H   0  0  0  0  0  0  0  0  0  0  0  0
   47.7448  159.7207   32.5885 H   0  0  0  0  0  0  0  0  0  0  0  0
   48.7082  158.2046   32.5885 H   0  0  0  0  0  0  0  0  0  0  0  0
   47.3863  157.8476   30.7726 H   0  0  0  0  0  0  0  0  0  0  0  0
   47.2697  159.0100   29.4081 H   0  0  0  0  0  0  0  0  0  0  0  0
   48.5505  157.7505   29.4081 H   0  0  0  0  0  0  0  0  0  0  0  0
   48.2418  161.3919   31.3677 H   0  0  0  0  0  0  0  0  0  0  0  0
   49.2024  161.3520   29.8504 H   0  0  0  0  0  0  0  0  0  0  0  0
   47.4991  160.7815   29.8504 H   0  0  0  0  0  0  0  0  0  0  0  0
  1  2  1  0
  2  3  2  0
  3  4  1  0
  4  5  2  0
  5  6  1  0
  6  7  1  0
  7  8  1  0
  8  9  2  0
  9 10  1  0
 10 11  2  0
 11 12  1  0
 12 13  1  0
 12 14  2  0
 14 15  1  0
 15 16  2  0
 15 17  1  0
 17 18  1  0
  5 19  1  0
 19 20  2  0
 20 21  1  0
 21 22  1  0
 21 23  1  0
 21 24  1  0
 20  2  1  0
 17  6  2  0
 14  8  1  0
  1 25  1  0
  1 26  1  0
  1 27  1  0
  3 28  1  0
  4 29  1  0
  9 30  1  0
 10 31  1  0
 11 32  1  0
 13 33  1  0
 18 34  1  0
 19 35  1  0
 22 36  1  0
 22 37  1  0
 22 38  1  0
 23 39  1  0
 23 40  1  0
 23 41  1  0
 24 42  1  0
 24 43  1  0
 24 44  1  0
M  END
>  <meeko>  (2) 
{"is_sidechain": [false], "free_energy": -10.256, "intermolecular_energy": -11.891, "internal_energy": -0.073}

$$$$
cand_027_out
     RDKit          3D

 44 46  0  0  0  0  0  0  0  0999 V2000
   53.6060  152.4810   26.7330 C   0  0  0  0  0  0  0  0  0  0  0  0
   53.0060  153.7280   27.3270 C   0  0  0  0  0  0  0  0  0  0  0  0
   52.3820  153.5580   28.5820 C   0  0  0  0  0  0  0  0  0  0  0  0
   51.7860  154.6190   29.2580 C   0  0  0  0  0  0  0  0  0  0  0  0
   51.8010  155.8920   28.7020 C   0  0  0  0  0  0  0  0  0  0  0  0
   51.1660  157.0430   29.3790 C   0  0  0  0  0  0  0  0  0  0  0  0
   52.0590  158.0790   29.6350 O   0  0  0  0  0  0  0  0  0  0  0  0
   51.6020  159.2090   30.2620 C   0  0  0  0  0  0  0  0  0  0  0  0
   52.5290  160.2270   30.4880 C   0  0  0  0  0  0  0  0  0  0  0  0
   52.1300  161.4050   31.1230 C   0  0  0  0  0  0  0  0  0  0  0  0
   50.8040  161.5640   31.5340 C   0  0  0  0  0  0  0  0  0  0  0  0
   49.8820  160.5460   31.3070 C   0  0  0  0  0  0  0  0  0  0  0  0
   48.6010  160.7680   31.7360 O   0  0  0  0  0  0  0  0  0  0  0  0
   50.2810  159.3690   30.6710 C   0  0  0  0  0  0  0  0  0  0  0  0
   49.3440  158.2750   30.4140 C   0  0  0  0  0  0  0  0  0  0  0  0
   48.1630  158.3380   30.7510 O   0  0  0  0  0  0  0  0  0  0  0  0
   49.8660  157.0710   29.7280 C   0  0  0  0  0  0  0  0  0  0  0  0
   48.9760  156.0380   29.5020 O   0  0  0  0  0  0  0  0  0  0  0  0
   52.4000  156.0620   27.4400 C   0  0  0  0  0  0  0  0  0  0  0  0
   53.0000  155.0050   26.7060 C   0  0  0  0  0  0  0  0  0  0  0  0
   53.6320  155.3170   25.3210 C   0  0  0  0  0  0  0  0  0  0  0  0
   54.0960  156.7850   25.1850 C   0  0  0  0  0  0  0  0  0  0  0  0
   52.6100  154.9820   24.2140 C   0  0  0  0  0  0  0  0  0  0  0  0
   54.9020  154.4700   25.0180 C   0  0  0  0  0  0  0  0  0  0  0  0
   53.9294  151.8088   27.5414 H   0  0  0  0  0  0  0  0  0  0  0  0
   52.8541  151.9723   26.1119 H   0  0  0  0  0  0  0  0  0  0  0  0
   54.4727  152.7511   26.1119 H   0  0  0  0  0  0  0  0  0  0  0  0
   52.3663  152.5576   29.0391 H   0  0  0  0  0  0  0  0  0  0  0  0
   51.3034  154.4495   30.2319 H   0  0  0  0  0  0  0  0  0  0  0  0
   53.5734  160.1018   30.1662 H   0  0  0  0  0  0  0  0  0  0  0  0
   52.8602  162.2085   31.2998 H   0  0  0  0  0  0  0  0  0  0  0  0
   50.4895  162.4911   32.0356 H   0  0  0  0  0  0  0  0  0  0  0  0
   47.8810  160.3880   31.2740 H   0  0  0  0  0  0  0  0  0  0  0  0
   48.5130  155.6540   30.2210 H   0  0  0  0  0  0  0  0  0  0  0  0
   52.4036  157.0692   26.9978 H   0  0  0  0  0  0  0  0  0  0  0  0
   54.2336  157.2203   26.1858 H   0  0  0  0  0  0  0  0  0  0  0  0
   55.0487  156.8191   24.6362 H   0  0  0  0  0  0  0  0  0  0  0  0
   53.3359  157.3604   24.6362 H   0  0  0  0  0  0  0  0  0  0  0  0
   51.6604  154.6707   24.6737 H   0  0  0  0  0  0  0  0  0  0  0  0
   52.4409  155.8717   23.5897 H   0  0  0  0  0  0  0  0  0  0  0  0
   53.0004  154.1648   23.5897 H   0  0  0  0  0  0  0  0  0  0  0  0
   55.3692  154.1584   25.9639 H   0  0  0  0  0  0  0  0  0  0  0  0
   54.6189  153.5793   24.4380 H   0  0  0  0  0  0  0  0  0  0  0  0
   55.6156  155.0737   24.4380 H   0  0  0  0  0  0  0  0  0  0  0  0
  1  2  1  0
  2  3  2  0
  3  4  1  0
  4  5  2  0
  5  6  1  0
  6  7  1  0
  7  8  1  0
  8  9  2  0
  9 10  1  0
 10 11  2  0
 11 12  1  0
 12 13  1  0
 12 14  2  0
 14 15  1  0
 15 16  2  0
 15 17  1  0
 17 18  1  0
  5 19  1  0
 19 20  2  0
 20 21  1  0
 21 22  1  0
 21 23  1  0
 21 24  1  0
 20  2  1  0
 17  6  2  0
 14  8  1  0
  1 25  1  0
  1 26  1  0
  1 27  1  0
  3 28  1  0
  4 29  1  0
  9 30  1  0
 10 31  1  0
 11 32  1  0
 13 33  1  0
 18 34  1  0
 19 35  1  0
 22 36  1  0
 22 37  1  0
 22 38  1  0
 23 39  1  0
 23 40  1  0
 23 41  1  0
 24 42  1  0
 24 43  1  0
 24 44  1  0
M  END
>  <meeko>  (3) 
{"is_sidechain": [false], "free_energy": -8.826, "intermolecular_energy": -10.375, "internal_energy": 0.092}

$$$$
cand_027_out
     RDKit          3D

 44 46  0  0  0  0  0  0  0  0999 V2000
   48.0720  159.2790   31.5860 C   0  0  0  0  0  0  0  0  0  0  0  0
   49.0880  158.5050   30.7880 C   0  0  0  0  0  0  0  0  0  0  0  0
   48.6990  157.1960   30.4260 C   0  0  0  0  0  0  0  0  0  0  0  0
   49.5290  156.3610   29.6840 C   0  0  0  0  0  0  0  0  0  0  0  0
   50.7780  156.8090   29.2730 C   0  0  0  0  0  0  0  0  0  0  0  0
   51.6970  155.9490   28.4980 C   0  0  0  0  0  0  0  0  0  0  0  0
   52.1460  156.5530   27.3290 O   0  0  0  0  0  0  0  0  0  0  0  0
   53.0050  155.8630   26.5120 C   0  0  0  0  0  0  0  0  0  0  0  0
   53.4400  156.5130   25.3570 C   0  0  0  0  0  0  0  0  0  0  0  0
   54.3140  155.8660   24.4800 C   0  0  0  0  0  0  0  0  0  0  0  0
   54.7520  154.5690   24.7600 C   0  0  0  0  0  0  0  0  0  0  0  0
   54.3160  153.9240   25.9130 C   0  0  0  0  0  0  0  0  0  0  0  0
   54.7840  152.6550   26.1250 O   0  0  0  0  0  0  0  0  0  0  0  0
   53.4420  154.5710   26.7900 C   0  0  0  0  0  0  0  0  0  0  0  0
   52.9600  153.9290   28.0130 C   0  0  0  0  0  0  0  0  0  0  0  0
   53.2950  152.7880   28.3240 O   0  0  0  0  0  0  0  0  0  0  0  0
   52.0410  154.7040   28.8780 C   0  0  0  0  0  0  0  0  0  0  0  0
   51.5800  154.0820   30.0230 O   0  0  0  0  0  0  0  0  0  0  0  0
   51.1800  158.1040   29.6520 C   0  0  0  0  0  0  0  0  0  0  0  0
   50.3750  158.9820   30.4260 C   0  0  0  0  0  0  0  0  0  0  0  0
   50.9290  160.3890   30.7820 C   0  0  0  0  0  0  0  0  0  0  0  0
   50.7500  160.7490   32.2750 C   0  0  0  0  0  0  0  0  0  0  0  0
   50.2300  161.4450   29.8990 C   0  0  0  0  0  0  0  0  0  0  0  0
   52.4550  160.5370   30.5180 C   0  0  0  0  0  0  0  0  0  0  0  0
   48.2618  159.1344   32.6598 H   0  0  0  0  0  0  0  0  0  0  0  0
   48.1503  160.3484   31.3405 H   0  0  0  0  0  0  0  0  0  0  0  0
   47.0618  158.9195   31.3405 H   0  0  0  0  0  0  0  0  0  0  0  0
   47.7117  156.8262   30.7397 H   0  0  0  0  0  0  0  0  0  0  0  0
   49.1958  155.3457   29.4228 H   0  0  0  0  0  0  0  0  0  0  0  0
   53.0952  157.5341   25.1369 H   0  0  0  0  0  0  0  0  0  0  0  0
   54.6574  156.3777   23.5688 H   0  0  0  0  0  0  0  0  0  0  0  0
   55.4403  154.0589   24.0700 H   0  0  0  0  0  0  0  0  0  0  0  0
   55.2310  152.4480   26.9210 H   0  0  0  0  0  0  0  0  0  0  0  0
   50.6610  153.9490   30.1460 H   0  0  0  0  0  0  0  0  0  0  0  0
   52.1718  158.4552   29.3312 H   0  0  0  0  0  0  0  0  0  0  0  0
   51.1534  159.9377   32.8987 H   0  0  0  0  0  0  0  0  0  0  0  0
   51.2888  161.6826   32.4942 H   0  0  0  0  0  0  0  0  0  0  0  0
   49.6804  160.8828   32.4942 H   0  0  0  0  0  0  0  0  0  0  0  0
   49.7366  162.1904   30.5400 H   0  0  0  0  0  0  0  0  0  0  0  0
   50.9766  161.9442   29.2639 H   0  0  0  0  0  0  0  0  0  0  0  0
   49.4788  160.9528   29.2639 H   0  0  0  0  0  0  0  0  0  0  0  0
   52.9898  160.5889   31.4778 H   0  0  0  0  0  0  0  0  0  0  0  0
   52.8138  159.6694   29.9448 H   0  0  0  0  0  0  0  0  0  0  0  0
   52.6404  161.4573   29.9448 H   0  0  0  0  0  0  0  0  0  0  0  0
  1  2  1  0
  2  3  2  0
  3  4  1  0
  4  5  2  0
  5  6  1  0
  6  7  1  0
  7  8  1  0
  8  9  2  0
  9 10  1  0
 10 11  2  0
 11 12  1  0
 12 13  1  0
 12 14  2  0
 14 15  1  0
 15 16  2  0
 15 17  1  0
 17 18  1  0
  5 19  1  0
 19 20  2  0
 20 21  1  0
 21 22  1  0
 21 23  1  0
 21 24  1  0
 20  2  1  0
 17  6  2  0
 14  8  1  0
  1 25  1  0
  1 26  1  0
  1 27  1  0
  3 28  1  0
  4 29  1  0
  9 30  1  0
 10 31  1  0
 11 32  1  0
 13 33  1  0
 18 34  1  0
 19 35  1  0
 22 36  1  0
 22 37  1  0
 22 38  1  0
 23 39  1  0
 23 40  1  0
 23 41  1  0
 24 42  1  0
 24 43  1  0
 24 44  1  0
M  END
>  <meeko>  (4) 
{"is_sidechain": [false], "free_energy": -8.576, "intermolecular_energy": -9.959, "internal_energy": -0.03}

$$$$
