cand_003_out
     RDKit          3D

 35 37  0  0  0  0  0  0  0  0999 V2000
   52.0130  161.0070   30.7000 C   0  0  0  0  0  0  0  0  0  0  0  0
   51.2050  159.7540   30.4900 C   0  0  0  0  0  0  0  0  0  0  0  0
   51.7830  158.6760   29.7930 C   0  0  0  0  0  0  0  0  0  0  0  0
   51.0820  157.4790   29.5780 C   0  0  0  0  0  0  0  0  0  0  0  0
   51.7170  156.3810   28.8190 C   0  0  0  0  0  0  0  0  0  0  0  0
   52.2840  156.8080   27.6240 O   0  0  0  0  0  0  0  0  0  0  0  0
   52.9080  155.8870   26.8210 C   0  0  0  0  0  0  0  0  0  0  0  0
   53.4520  156.3550   25.6240 C   0  0  0  0  0  0  0  0  0  0  0  0
   54.1020  155.4710   24.7610 C   0  0  0  0  0  0  0  0  0  0  0  0
   54.2100  154.1200   25.0940 C   0  0  0  0  0  0  0  0  0  0  0  0
   53.6680  153.6550   26.2900 C   0  0  0  0  0  0  0  0  0  0  0  0
   53.8100  152.3200   26.5550 O   0  0  0  0  0  0  0  0  0  0  0  0
   53.0150  154.5400   27.1520 C   0  0  0  0  0  0  0  0  0  0  0  0
   52.4320  154.0930   28.4170 C   0  0  0  0  0  0  0  0  0  0  0  0
   52.4910  152.9210   28.7850 O   0  0  0  0  0  0  0  0  0  0  0  0
   51.7550  155.1090   29.2570 C   0  0  0  0  0  0  0  0  0  0  0  0
   51.2190  154.6790   30.4570 O   0  0  0  0  0  0  0  0  0  0  0  0
   49.7730  157.3780   30.0610 C   0  0  0  0  0  0  0  0  0  0  0  0
   49.1860  158.4390   30.7570 C   0  0  0  0  0  0  0  0  0  0  0  0
   49.8880  159.6340   30.9840 C   0  0  0  0  0  0  0  0  0  0  0  0
   49.2190  160.7600   31.7430 C   0  0  0  0  0  0  0  0  0  0  0  0
   48.9560  161.8430   30.9600 F   0  0  0  0  0  0  0  0  0  0  0  0
   49.9630  161.2330   32.7840 F   0  0  0  0  0  0  0  0  0  0  0  0
   48.0250  160.3910   32.2870 F   0  0  0  0  0  0  0  0  0  0  0  0
   52.1314  161.1906   31.7781 H   0  0  0  0  0  0  0  0  0  0  0  0
   53.0038  160.8862   30.2377 H   0  0  0  0  0  0  0  0  0  0  0  0
   51.4942  161.8597   30.2377 H   0  0  0  0  0  0  0  0  0  0  0  0
   52.8086  158.7741   29.4076 H   0  0  0  0  0  0  0  0  0  0  0  0
   53.3686  157.4198   25.3607 H   0  0  0  0  0  0  0  0  0  0  0  0
   54.5297  155.8398   23.8171 H   0  0  0  0  0  0  0  0  0  0  0  0
   54.7220  153.4238   24.4134 H   0  0  0  0  0  0  0  0  0  0  0  0
   53.0680  151.7500   26.4980 H   0  0  0  0  0  0  0  0  0  0  0  0
   51.7450  154.1880   31.0560 H   0  0  0  0  0  0  0  0  0  0  0  0
   49.1998  156.4546   29.8915 H   0  0  0  0  0  0  0  0  0  0  0  0
   48.1574  158.3361   31.1330 H   0  0  0  0  0  0  0  0  0  0  0  0
  1  2  1  0
  2  3  2  0
  3  4  1  0
  4  5  1  0
  5  6  1  0
  6  7  1  0
  7  8  2  0
  8  9  1  0
  9 10  2  0
 10 11  1  0
 11 12  1  0
 11 13  2  0
 13 14  1  0
 14 15  2  0
 14 16  1  0
 16 17  1  0
  4 18  2  0
 18 19  1  0
 19 20  2  0
 20 21  1  0
 21 22  1  0
 21 23  1  0
 21 24  1  0
 20  2  1  0
 16  5  2  0
 13  7  1  0
  1 25  1  0
  1 26  1  0
  1 27  1  0
  3 28  1  0
  8 29  1  0
  9 30  1  0
 10 31  1  0
 12 32  1  0
 17 33  1  0
 18 34  1  0
 19 35  1  0
M  END
>  <meeko>  (1) 
{"is_sidechain": [false], "free_energy": -11.395, "intermolecular_energy": -13.393, "internal_energy": -0.168}

$$$$
cand_003_out
     RDKit          3D

 35 37  0  0  0  0  0  0  0  0999 V2000
   48.1620  158.8130   31.2490 C   0  0  0  0  0  0  0  0  0  0  0  0
   49.5810  158.8530   30.7470 C   0  0  0  0  0  0  0  0  0  0  0  0
   50.0800  157.7570   30.0180 C   0  0  0  0  0  0  0  0  0  0  0  0
   51.3900  157.7440   29.5150 C   0  0  0  0  0  0  0  0  0  0  0  0
   51.8820  156.5610   28.7780 C   0  0  0  0  0  0  0  0  0  0  0  0
   52.4860  156.8890   27.5690 O   0  0  0  0  0  0  0  0  0  0  0  0
   52.9890  155.8840   26.7840 C   0  0  0  0  0  0  0  0  0  0  0  0
   53.5740  156.2560   25.5740 C   0  0  0  0  0  0  0  0  0  0  0  0
   54.1070  155.2820   24.7280 C   0  0  0  0  0  0  0  0  0  0  0  0
   54.0560  153.9350   25.0920 C   0  0  0  0  0  0  0  0  0  0  0  0
   53.4730  153.5650   26.3020 C   0  0  0  0  0  0  0  0  0  0  0  0
   53.4570  152.2290   26.5970 O   0  0  0  0  0  0  0  0  0  0  0  0
   52.9380  154.5410   27.1470 C   0  0  0  0  0  0  0  0  0  0  0  0
   52.3160  154.1950   28.4260 C   0  0  0  0  0  0  0  0  0  0  0  0
   52.2400  153.0330   28.8200 O   0  0  0  0  0  0  0  0  0  0  0  0
   51.7730  155.3030   29.2460 C   0  0  0  0  0  0  0  0  0  0  0  0
   51.2000  154.9680   30.4580 O   0  0  0  0  0  0  0  0  0  0  0  0
   52.2100  158.8480   29.7660 C   0  0  0  0  0  0  0  0  0  0  0  0
   51.7290  159.9450   30.4850 C   0  0  0  0  0  0  0  0  0  0  0  0
   50.4140  159.9670   30.9810 C   0  0  0  0  0  0  0  0  0  0  0  0
   49.9290  161.1750   31.7550 C   0  0  0  0  0  0  0  0  0  0  0  0
   50.9150  162.0860   31.9880 F   0  0  0  0  0  0  0  0  0  0  0  0
   49.4180  160.8660   32.9820 F   0  0  0  0  0  0  0  0  0  0  0  0
   48.9380  161.8510   31.1070 F   0  0  0  0  0  0  0  0  0  0  0  0
   48.1621  158.8130   32.3490 H   0  0  0  0  0  0  0  0  0  0  0  0
   47.6183  159.6962   30.8824 H   0  0  0  0  0  0  0  0  0  0  0  0
   47.6689  157.9006   30.8824 H   0  0  0  0  0  0  0  0  0  0  0  0
   49.4274  156.8899   29.8383 H   0  0  0  0  0  0  0  0  0  0  0  0
   53.6154  157.3169   25.2863 H   0  0  0  0  0  0  0  0  0  0  0  0
   54.5678  155.5760   23.7734 H   0  0  0  0  0  0  0  0  0  0  0  0
   54.4753  153.1675   24.4248 H   0  0  0  0  0  0  0  0  0  0  0  0
   53.6570  151.6000   25.9320 H   0  0  0  0  0  0  0  0  0  0  0  0
   51.1760  154.0730   30.7330 H   0  0  0  0  0  0  0  0  0  0  0  0
   53.2450  158.8530   29.3934 H   0  0  0  0  0  0  0  0  0  0  0  0
   52.3900  160.8054   30.6659 H   0  0  0  0  0  0  0  0  0  0  0  0
  1  2  1  0
  2  3  2  0
  3  4  1  0
  4  5  1  0
  5  6  1  0
  6  7  1  0
  7  8  2  0
  8  9  1  0
  9 10  2  0
 10 11  1  0
 11 12  1  0
 11 13  2  0
 13 14  1  0
 14 15  2  0
 14 16  1  0
 16 17  1  0
  4 18  2  0
 18 19  1  0
 19 20  2  0
 20 21  1  0
 21 22  1  0
 21 23  1  0
 21 24  1  0
 20  2  1  0
 16  5  2  0
 13  7  1  0
  1 25  1  0
  1 26  1  0
  1 27  1  0
  3 28  1  0
  8 29  1  0
  9 30  1  0
 10 31  1  0
 12 32  1  0
 17 33  1  0
 18 34  1  0
 19 35  1  0
M  END
>  <meeko>  (2) 
{"is_sidechain": [false], "free_energy": -11.278, "intermolecular_energy": -13.301, "internal_energy": -0.123}

$$$$
cand_003_out
     RDKit          3D

 35 37  0  0  0  0  0  0  0  0999 V2000
   48.5040  158.4960   31.0090 C   0  0  0  0  0  0  0  0  0  0  0  0
   49.9000  158.4690   30.4470 C   0  0  0  0  0  0  0  0  0  0  0  0
   50.3230  157.3420   29.7180 C   0  0  0  0  0  0  0  0  0  0  0  0
   51.6090  157.2660   29.1610 C   0  0  0  0  0  0  0  0  0  0  0  0
   52.0220  156.0530   28.4250 C   0  0  0  0  0  0  0  0  0  0  0  0
   52.5640  156.3350   27.1770 O   0  0  0  0  0  0  0  0  0  0  0  0
   52.9890  155.2970   26.3880 C   0  0  0  0  0  0  0  0  0  0  0  0
   53.5130  155.6240   25.1370 C   0  0  0  0  0  0  0  0  0  0  0  0
   53.9660  154.6150   24.2850 C   0  0  0  0  0  0  0  0  0  0  0  0
   53.8950  153.2780   24.6840 C   0  0  0  0  0  0  0  0  0  0  0  0
   53.3730  152.9540   25.9340 C   0  0  0  0  0  0  0  0  0  0  0  0
   53.3340  151.6270   26.2610 O   0  0  0  0  0  0  0  0  0  0  0  0
   52.9180  153.9650   26.7850 C   0  0  0  0  0  0  0  0  0  0  0  0
   52.3620  153.6670   28.1050 C   0  0  0  0  0  0  0  0  0  0  0  0
   52.2740  152.5170   28.5310 O   0  0  0  0  0  0  0  0  0  0  0  0
   51.9020  154.8100   28.9290 C   0  0  0  0  0  0  0  0  0  0  0  0
   51.3910  154.5190   30.1800 O   0  0  0  0  0  0  0  0  0  0  0  0
   52.4840  158.3390   29.3590 C   0  0  0  0  0  0  0  0  0  0  0  0
   52.0790  159.4670   30.0790 C   0  0  0  0  0  0  0  0  0  0  0  0
   50.7880  159.5520   30.6280 C   0  0  0  0  0  0  0  0  0  0  0  0
   50.3850  160.7900   31.3990 C   0  0  0  0  0  0  0  0  0  0  0  0
   49.3560  161.4660   30.8160 F   0  0  0  0  0  0  0  0  0  0  0  0
   51.3920  161.7010   31.5330 F   0  0  0  0  0  0  0  0  0  0  0  0
   49.9780  160.5080   32.6700 F   0  0  0  0  0  0  0  0  0  0  0  0
   48.5511  158.4951   32.1080 H   0  0  0  0  0  0  0  0  0  0  0  0
   47.9877  159.4043   30.6649 H   0  0  0  0  0  0  0  0  0  0  0  0
   47.9530  157.6083   30.6649 H   0  0  0  0  0  0  0  0  0  0  0  0
   49.6286  156.4999   29.5814 H   0  0  0  0  0  0  0  0  0  0  0  0
   53.5692  156.6764   24.8221 H   0  0  0  0  0  0  0  0  0  0  0  0
   54.3792  154.8730   23.2987 H   0  0  0  0  0  0  0  0  0  0  0  0
   54.2506  152.4828   24.0123 H   0  0  0  0  0  0  0  0  0  0  0  0
   53.6950  150.9890   25.6760 H   0  0  0  0  0  0  0  0  0  0  0  0
   50.5780  154.8960   30.4520 H   0  0  0  0  0  0  0  0  0  0  0  0
   53.5017  158.2950   28.9438 H   0  0  0  0  0  0  0  0  0  0  0  0
   52.7821  160.3014   30.2180 H   0  0  0  0  0  0  0  0  0  0  0  0
  1  2  1  0
  2  3  2  0
  3  4  1  0
  4  5  1  0
  5  6  1  0
  6  7  1  0
  7  8  2  0
  8  9  1  0
  9 10  2  0
 10 11  1  0
 11 12  1  0
 11 13  2  0
 13 14  1  0
 14 15  2  0
 14 16  1  0
 16 17  1  0
  4 18  2  0
 18 19  1  0
 19 20  2  0
 20 21  1  0
 21 22  1  0
 21 23  1  0
 21 24  1  0
 20  2  1  0
 16  5  2  0
 13  7  1  0
  1 25  1  0
  1 26  1  0
  1 27  1  0
  3 28  1  0
  8 29  1  0
  9 30  1  0
 10 31  1  0
 12 32  1  0
 17 33  1  0
 18 34  1  0
 19 35  1  0
M  END
>  <meeko>  (3) 
{"is_sidechain": [false], "free_energy": -11.08, "intermolecular_energy": -13.054, "internal_energy": -0.137}

$$$$
cand_003_out
     RDKit          3D

 35 37  0  0  0  0  0  0  0  0999 V2000
   53.8160  155.4770   25.3790 C   0  0  0  0  0  0  0  0  0  0  0  0
   53.0250  155.2790   26.6450 C   0  0  0  0  0  0  0  0  0  0  0  0
   52.6190  156.4080   27.3820 C   0  0  0  0  0  0  0  0  0  0  0  0
   51.8700  156.2850   28.5620 C   0  0  0  0  0  0  0  0  0  0  0  0
   51.4870  157.4950   29.3200 C   0  0  0  0  0  0  0  0  0  0  0  0
   50.1620  157.4750   29.7370 O   0  0  0  0  0  0  0  0  0  0  0  0
   49.6760  158.5390   30.4520 C   0  0  0  0  0  0  0  0  0  0  0  0
   48.3360  158.4850   30.8390 C   0  0  0  0  0  0  0  0  0  0  0  0
   47.7780  159.5350   31.5720 C   0  0  0  0  0  0  0  0  0  0  0  0
   48.5600  160.6390   31.9180 C   0  0  0  0  0  0  0  0  0  0  0  0
   49.8970  160.6910   31.5320 C   0  0  0  0  0  0  0  0  0  0  0  0
   50.6050  161.8000   31.9050 O   0  0  0  0  0  0  0  0  0  0  0  0
   50.4540  159.6400   30.7970 C   0  0  0  0  0  0  0  0  0  0  0  0
   51.8540  159.6550   30.3720 C   0  0  0  0  0  0  0  0  0  0  0  0
   52.6080  160.5870   30.6440 O   0  0  0  0  0  0  0  0  0  0  0  0
   52.3460  158.4960   29.5920 C   0  0  0  0  0  0  0  0  0  0  0  0
   53.6730  158.5130   29.2060 O   0  0  0  0  0  0  0  0  0  0  0  0
   51.5410  155.0010   29.0110 C   0  0  0  0  0  0  0  0  0  0  0  0
   51.9340  153.8710   28.2890 C   0  0  0  0  0  0  0  0  0  0  0  0
   52.6740  153.9900   27.1010 C   0  0  0  0  0  0  0  0  0  0  0  0
   53.0800  152.7420   26.3460 C   0  0  0  0  0  0  0  0  0  0  0  0
   54.3720  152.3790   26.5810 F   0  0  0  0  0  0  0  0  0  0  0  0
   52.9760  152.8660   24.9910 F   0  0  0  0  0  0  0  0  0  0  0  0
   52.3200  151.6590   26.6720 F   0  0  0  0  0  0  0  0  0  0  0  0
   54.8544  155.7369   25.6323 H   0  0  0  0  0  0  0  0  0  0  0  0
   53.8038  154.5481   24.7900 H   0  0  0  0  0  0  0  0  0  0  0  0
   53.3676  156.2906   24.7900 H   0  0  0  0  0  0  0  0  0  0  0  0
   52.8957  157.4106   27.0240 H   0  0  0  0  0  0  0  0  0  0  0  0
   47.7195  157.6157   30.5668 H   0  0  0  0  0  0  0  0  0  0  0  0
   46.7220  159.4922   31.8769 H   0  0  0  0  0  0  0  0  0  0  0  0
   48.1206  161.4663   32.4946 H   0  0  0  0  0  0  0  0  0  0  0  0
   50.9940  162.3490   31.2530 H   0  0  0  0  0  0  0  0  0  0  0  0
   54.2160  157.7650   29.3620 H   0  0  0  0  0  0  0  0  0  0  0  0
   50.9672  154.8801   29.9417 H   0  0  0  0  0  0  0  0  0  0  0  0
   51.6593  152.8715   28.6571 H   0  0  0  0  0  0  0  0  0  0  0  0
  1  2  1  0
  2  3  2  0
  3  4  1  0
  4  5  1  0
  5  6  1  0
  6  7  1  0
  7  8  2  0
  8  9  1  0
  9 10  2  0
 10 11  1  0
 11 12  1  0
 11 13  2  0
 13 14  1  0
 14 15  2  0
 14 16  1  0
 16 17  1  0
  4 18  2  0
 18 19  1  0
 19 20  2  0
 20 21  1  0
 21 22  1  0
 21 23  1  0
 21 24  1  0
 20  2  1  0
 16  5  2  0
 13  7  1  0
  1 25  1  0
  1 26  1  0
  1 27  1  0
  3 28  1  0
  8 29  1  0
  9 30  1  0
 10 31  1  0
 12 32  1  0
 17 33  1  0
 18 34  1  0
 19 35  1  0
M  END
>  <meeko>  (4) 
{"is_sidechain": [false], "free_energy": -10.602, "intermolecular_energy": -12.687, "internal_energy": 0.057}

$$$$
cand_003_out
     RDKit          3D

 35 37  0  0  0  0  0  0  0  0999 V2000
   53.7440  155.8990   25.4710 C   0  0  0  0  0  0  0  0  0  0  0  0
   52.9520  155.5140   26.6910 C   0  0  0  0  0  0  0  0  0  0  0  0
   52.3710  156.5260   27.4780 C   0  0  0  0  0  0  0  0  0  0  0  0
   51.6110  156.2260   28.6190 C   0  0  0  0  0  0  0  0  0  0  0  0
   51.0410  157.3210   29.4320 C   0  0  0  0  0  0  0  0  0  0  0  0
   51.9480  158.3470   29.6710 O   0  0  0  0  0  0  0  0  0  0  0  0
   51.5460  159.4270   30.4140 C   0  0  0  0  0  0  0  0  0  0  0  0
   52.4920  160.4270   30.6410 C   0  0  0  0  0  0  0  0  0  0  0  0
   52.1480  161.5560   31.3890 C   0  0  0  0  0  0  0  0  0  0  0  0
   50.8580  161.6850   31.9080 C   0  0  0  0  0  0  0  0  0  0  0  0
   49.9150  160.6860   31.6780 C   0  0  0  0  0  0  0  0  0  0  0  0
   48.6710  160.8760   32.2140 O   0  0  0  0  0  0  0  0  0  0  0  0
   50.2610  159.5560   30.9320 C   0  0  0  0  0  0  0  0  0  0  0  0
   49.3000  158.4840   30.6680 C   0  0  0  0  0  0  0  0  0  0  0  0
   48.1440  158.5270   31.0840 O   0  0  0  0  0  0  0  0  0  0  0  0
   49.7680  157.3260   29.8710 C   0  0  0  0  0  0  0  0  0  0  0  0
   48.8500  156.3240   29.6160 O   0  0  0  0  0  0  0  0  0  0  0  0
   51.4520  154.8840   28.9780 C   0  0  0  0  0  0  0  0  0  0  0  0
   52.0200  153.8670   28.2060 C   0  0  0  0  0  0  0  0  0  0  0  0
   52.7710  154.1620   27.0560 C   0  0  0  0  0  0  0  0  0  0  0  0
   53.3700  153.0330   26.2450 C   0  0  0  0  0  0  0  0  0  0  0  0
   54.7140  152.9050   26.4280 F   0  0  0  0  0  0  0  0  0  0  0  0
   53.1960  153.1770   24.8990 F   0  0  0  0  0  0  0  0  0  0  0  0
   52.8300  151.8200   26.5540 F   0  0  0  0  0  0  0  0  0  0  0  0
   54.6933  156.3605   25.7807 H   0  0  0  0  0  0  0  0  0  0  0  0
   53.9515  155.0012   24.8702 H   0  0  0  0  0  0  0  0  0  0  0  0
   53.1662  156.6168   24.8702 H   0  0  0  0  0  0  0  0  0  0  0  0
   52.5162  157.5781   27.1916 H   0  0  0  0  0  0  0  0  0  0  0  0
   53.5080  160.3267   30.2314 H   0  0  0  0  0  0  0  0  0  0  0  0
   52.8941  162.3440   31.5692 H   0  0  0  0  0  0  0  0  0  0  0  0
   50.5872  162.5736   32.4972 H   0  0  0  0  0  0  0  0  0  0  0  0
   48.0380  161.3950   31.7570 H   0  0  0  0  0  0  0  0  0  0  0  0
   49.0710  155.4310   29.7890 H   0  0  0  0  0  0  0  0  0  0  0  0
   50.8738  154.6261   29.8775 H   0  0  0  0  0  0  0  0  0  0  0  0
   51.8766  152.8178   28.5038 H   0  0  0  0  0  0  0  0  0  0  0  0
  1  2  1  0
  2  3  2  0
  3  4  1  0
  4  5  1  0
  5  6  1  0
  6  7  1  0
  7  8  2  0
  8  9  1  0
  9 10  2  0
 10 11  1  0
 11 12  1  0
 11 13  2  0
 13 14  1  0
 14 15  2  0
 14 16  1  0
 16 17  1  0
  4 18  2  0
 18 19  1  0
 19 20  2  0
 20 21  1  0
 21 22  1  0
 21 23  1  0
 21 24  1  0
 20  2  1  0
 16  5  2  0
 13  7  1  0
  1 25  1  0
  1 26  1  0
  1 27  1  0
  3 28  1  0
  8 29  1  0
  9 30  1  0
 10 31  1  0
 12 32  1  0
 17 33  1  0
 18 34  1  0
 19 35  1  0
M  END
>  <meeko>  (5) 
{"is_sidechain": [false], "free_energy": -9.374, "intermolecular_energy": -11.111, "internal_energy": -0.074}

$$$$
cand_003_out
     RDKit          3D

 35 37  0  0  0  0  0  0  0  0999 V2000
   51.9330  159.8440   30.1680 C   0  0  0  0  0  0  0  0  0  0  0  0
   51.2760  158.5250   29.8600 C   0  0  0  0  0  0  0  0  0  0  0  0
   51.9310  157.6180   29.0060 C   0  0  0  0  0  0  0  0  0  0  0  0
   51.3720  156.3690   28.6930 C   0  0  0  0  0  0  0  0  0  0  0  0
   52.0800  155.4570   27.7700 C   0  0  0  0  0  0  0  0  0  0  0  0
   51.6750  154.1330   27.9010 O   0  0  0  0  0  0  0  0  0  0  0  0
   52.2540  153.1810   27.1010 C   0  0  0  0  0  0  0  0  0  0  0  0
   51.8280  151.8640   27.2750 C   0  0  0  0  0  0  0  0  0  0  0  0
   52.3750  150.8450   26.4920 C   0  0  0  0  0  0  0  0  0  0  0  0
   53.3480  151.1440   25.5350 C   0  0  0  0  0  0  0  0  0  0  0  0
   53.7700  152.4600   25.3620 C   0  0  0  0  0  0  0  0  0  0  0  0
   54.7240  152.6820   24.4070 O   0  0  0  0  0  0  0  0  0  0  0  0
   53.2230  153.4780   26.1480 C   0  0  0  0  0  0  0  0  0  0  0  0
   53.6390  154.8730   25.9990 C   0  0  0  0  0  0  0  0  0  0  0  0
   54.4840  155.2170   25.1740 O   0  0  0  0  0  0  0  0  0  0  0  0
   53.0030  155.8760   26.8850 C   0  0  0  0  0  0  0  0  0  0  0  0
   53.3930  157.1930   26.7270 O   0  0  0  0  0  0  0  0  0  0  0  0
   50.1270  156.0410   29.2400 C   0  0  0  0  0  0  0  0  0  0  0  0
   49.4660  156.9290   30.0920 C   0  0  0  0  0  0  0  0  0  0  0  0
   50.0270  158.1760   30.4170 C   0  0  0  0  0  0  0  0  0  0  0  0
   49.2810  159.1110   31.3450 C   0  0  0  0  0  0  0  0  0  0  0  0
   48.2410  158.5050   31.9830 F   0  0  0  0  0  0  0  0  0  0  0  0
   48.7410  160.1920   30.7110 F   0  0  0  0  0  0  0  0  0  0  0  0
   50.0770  159.6240   32.3260 F   0  0  0  0  0  0  0  0  0  0  0  0
   51.9984  159.9753   31.2582 H   0  0  0  0  0  0  0  0  0  0  0  0
   52.9443  159.8598   29.7354 H   0  0  0  0  0  0  0  0  0  0  0  0
   51.3364  160.6607   29.7354 H   0  0  0  0  0  0  0  0  0  0  0  0
   52.9040  157.8944   28.5736 H   0  0  0  0  0  0  0  0  0  0  0  0
   51.0619  151.6283   28.0283 H   0  0  0  0  0  0  0  0  0  0  0  0
   52.0395  149.8064   26.6289 H   0  0  0  0  0  0  0  0  0  0  0  0
   53.7800  150.3414   24.9192 H   0  0  0  0  0  0  0  0  0  0  0  0
   54.6370  153.4050   23.8180 H   0  0  0  0  0  0  0  0  0  0  0  0
   53.0970  157.6840   25.9860 H   0  0  0  0  0  0  0  0  0  0  0  0
   49.6636  155.0735   28.9966 H   0  0  0  0  0  0  0  0  0  0  0  0
   48.4905  156.6477   30.5154 H   0  0  0  0  0  0  0  0  0  0  0  0
  1  2  1  0
  2  3  2  0
  3  4  1  0
  4  5  1  0
  5  6  1  0
  6  7  1  0
  7  8  2  0
  8  9  1  0
  9 10  2  0
 10 11  1  0
 11 12  1  0
 11 13  2  0
 13 14  1  0
 14 15  2  0
 14 16  1  0
 16 17  1  0
  4 18  2  0
 18 19  1  0
 19 20  2  0
 20 21  1  0
 21 22  1  0
 21 23  1  0
 21 24  1  0
 20  2  1  0
 16  5  2  0
 13  7  1  0
  1 25  1  0
  1 26  1  0
  1 27  1  0
  3 28  1  0
  8 29  1  0
  9 30  1  0
 10 31  1  0
 12 32  1  0
 17 33  1  0
 18 34  1  0
 19 35  1  0
M  END
>  <meeko>  (6) 
{"is_sidechain": [false], "free_energy": -8.811, "intermolecular_energy": -10.792, "internal_energy": 0.268}

$$$$
