cand_007_out
     RDKit          3D

 35 37  0  0  0  0  0  0  0  0999 V2000
   52.1810  153.0050   28.7820 O   0  0  0  0  0  0  0  0  0  0  0  0
   52.2800  154.1740   28.4140 C   0  0  0  0  0  0  0  0  0  0  0  0
   51.7690  155.2740   29.2650 C   0  0  0  0  0  0  0  0  0  0  0  0
   51.1730  154.9200   30.4620 O   0  0  0  0  0  0  0  0  0  0  0  0
   51.8950  156.5390   28.8230 C   0  0  0  0  0  0  0  0  0  0  0  0
   51.4100  157.7130   29.5790 C   0  0  0  0  0  0  0  0  0  0  0  0
   52.1990  158.8560   29.7520 C   0  0  0  0  0  0  0  0  0  0  0  0
   51.7120  159.9610   30.4530 C   0  0  0  0  0  0  0  0  0  0  0  0
   50.4170  159.9580   30.9980 C   0  0  0  0  0  0  0  0  0  0  0  0
   49.9190  161.1710   31.7520 C   0  0  0  0  0  0  0  0  0  0  0  0
   49.4250  160.8480   32.9800 F   0  0  0  0  0  0  0  0  0  0  0  0
   50.9040  162.0840   31.9770 F   0  0  0  0  0  0  0  0  0  0  0  0
   48.9230  161.8470   31.1150 F   0  0  0  0  0  0  0  0  0  0  0  0
   49.6020  158.8180   30.8200 C   0  0  0  0  0  0  0  0  0  0  0  0
   48.2020  158.7510   31.3830 C   0  0  0  0  0  0  0  0  0  0  0  0
   47.2790  159.3980   30.6140 F   0  0  0  0  0  0  0  0  0  0  0  0
   50.1130  157.7120   30.1130 C   0  0  0  0  0  0  0  0  0  0  0  0
   52.4710  156.8810   27.6050 O   0  0  0  0  0  0  0  0  0  0  0  0
   52.9580  155.8840   26.7990 C   0  0  0  0  0  0  0  0  0  0  0  0
   53.5360  156.2730   25.5900 C   0  0  0  0  0  0  0  0  0  0  0  0
   54.0520  155.3080   24.7220 C   0  0  0  0  0  0  0  0  0  0  0  0
   53.9890  153.9560   25.0620 C   0  0  0  0  0  0  0  0  0  0  0  0
   53.4110  153.5700   26.2690 C   0  0  0  0  0  0  0  0  0  0  0  0
   53.3820  152.2290   26.5390 O   0  0  0  0  0  0  0  0  0  0  0  0
   52.8960  154.5360   27.1380 C   0  0  0  0  0  0  0  0  0  0  0  0
   50.8180  155.5820   31.0220 H   0  0  0  0  0  0  0  0  0  0  0  0
   53.2148  158.8841   29.3307 H   0  0  0  0  0  0  0  0  0  0  0  0
   52.3516  160.8468   30.5804 H   0  0  0  0  0  0  0  0  0  0  0  0
   47.9089  157.6939   31.4648 H   0  0  0  0  0  0  0  0  0  0  0  0
   48.2202  159.2533   32.3615 H   0  0  0  0  0  0  0  0  0  0  0  0
   49.4782  156.8242   29.9761 H   0  0  0  0  0  0  0  0  0  0  0  0
   53.5852  157.3384   25.3208 H   0  0  0  0  0  0  0  0  0  0  0  0
   54.5086  155.6141   23.7692 H   0  0  0  0  0  0  0  0  0  0  0  0
   54.3952  153.1964   24.3779 H   0  0  0  0  0  0  0  0  0  0  0  0
   52.5620  151.7910   26.6460 H   0  0  0  0  0  0  0  0  0  0  0  0
  1  2  2  0
  2  3  1  0
  3  4  1  0
  3  5  2  0
  5  6  1  0
  6  7  2  0
  7  8  1  0
  8  9  2  0
  9 10  1  0
 10 11  1  0
 10 12  1  0
 10 13  1  0
  9 14  1  0
 14 15  1  0
 15 16  1  0
 14 17  2  0
  5 18  1  0
 18 19  1  0
 19 20  2  0
 20 21  1  0
 21 22  2  0
 22 23  1  0
 23 24  1  0
 23 25  2  0
 25  2  1  0
 17  6  1  0
 25 19  1  0
  4 26  1  0
  7 27  1  0
  8 28  1  0
 15 29  1  0
 15 30  1  0
 17 31  1  0
 20 32  1  0
 21 33  1  0
 22 34  1  0
 24 35  1  0
M  END
>  <meeko>  (1) 
{"is_sidechain": [false], "free_energy": -11.086, "intermolecular_energy": -13.678, "internal_energy": -0.197}

$$$$
cand_007_out
     RDKit          3D

 35 37  0  0  0  0  0  0  0  0999 V2000
   52.4440  152.8920   28.8090 O   0  0  0  0  0  0  0  0  0  0  0  0
   52.4040  154.0620   28.4350 C   0  0  0  0  0  0  0  0  0  0  0  0
   51.7350  155.0920   29.2630 C   0  0  0  0  0  0  0  0  0  0  0  0
   51.1570  154.6710   30.4470 O   0  0  0  0  0  0  0  0  0  0  0  0
   51.7130  156.3620   28.8160 C   0  0  0  0  0  0  0  0  0  0  0  0
   51.0630  157.4680   29.5510 C   0  0  0  0  0  0  0  0  0  0  0  0
   49.7790  157.3420   30.0890 C   0  0  0  0  0  0  0  0  0  0  0  0
   49.1930  158.3940   30.7970 C   0  0  0  0  0  0  0  0  0  0  0  0
   49.8810  159.6040   30.9930 C   0  0  0  0  0  0  0  0  0  0  0  0
   49.2190  160.7240   31.7640 C   0  0  0  0  0  0  0  0  0  0  0  0
   47.9460  160.4130   32.1350 F   0  0  0  0  0  0  0  0  0  0  0  0
   49.8790  161.0220   32.9180 F   0  0  0  0  0  0  0  0  0  0  0  0
   49.1310  161.8940   31.0740 F   0  0  0  0  0  0  0  0  0  0  0  0
   51.1850  159.7420   30.4690 C   0  0  0  0  0  0  0  0  0  0  0  0
   51.9760  161.0180   30.6430 C   0  0  0  0  0  0  0  0  0  0  0  0
   52.5530  161.1310   31.8740 F   0  0  0  0  0  0  0  0  0  0  0  0
   51.7570  158.6710   29.7540 C   0  0  0  0  0  0  0  0  0  0  0  0
   52.2750  156.7690   27.6110 O   0  0  0  0  0  0  0  0  0  0  0  0
   52.9060  155.8380   26.8260 C   0  0  0  0  0  0  0  0  0  0  0  0
   53.4620  156.2930   25.6290 C   0  0  0  0  0  0  0  0  0  0  0  0
   54.1190  155.3970   24.7830 C   0  0  0  0  0  0  0  0  0  0  0  0
   54.2180  154.0490   25.1310 C   0  0  0  0  0  0  0  0  0  0  0  0
   53.6610  153.5980   26.3250 C   0  0  0  0  0  0  0  0  0  0  0  0
   53.7940  152.2650   26.6040 O   0  0  0  0  0  0  0  0  0  0  0  0
   53.0050  154.4950   27.1720 C   0  0  0  0  0  0  0  0  0  0  0  0
   50.2770  154.9200   30.6540 H   0  0  0  0  0  0  0  0  0  0  0  0
   49.2230  156.4026   29.9531 H   0  0  0  0  0  0  0  0  0  0  0  0
   48.1793  158.2739   31.2068 H   0  0  0  0  0  0  0  0  0  0  0  0
   52.7695  161.0436   29.8817 H   0  0  0  0  0  0  0  0  0  0  0  0
   51.2713  161.8557   30.5351 H   0  0  0  0  0  0  0  0  0  0  0  0
   52.7722  158.7804   29.3449 H   0  0  0  0  0  0  0  0  0  0  0  0
   53.3828  157.3548   25.3529 H   0  0  0  0  0  0  0  0  0  0  0  0
   54.5594  155.7543   23.8405 H   0  0  0  0  0  0  0  0  0  0  0  0
   54.7351  153.3441   24.4633 H   0  0  0  0  0  0  0  0  0  0  0  0
   53.0600  151.7770   26.9190 H   0  0  0  0  0  0  0  0  0  0  0  0
  1  2  2  0
  2  3  1  0
  3  4  1  0
  3  5  2  0
  5  6  1  0
  6  7  2  0
  7  8  1  0
  8  9  2  0
  9 10  1  0
 10 11  1  0
 10 12  1  0
 10 13  1  0
  9 14  1  0
 14 15  1  0
 15 16  1  0
 14 17  2  0
  5 18  1  0
 18 19  1  0
 19 20  2  0
 20 21  1  0
 21 22  2  0
 22 23  1  0
 23 24  1  0
 23 25  2  0
 25  2  1  0
 17  6  1  0
 25 19  1  0
  4 26  1  0
  7 27  1  0
  8 28  1  0
 15 29  1  0
 15 30  1  0
 17 31  1  0
 20 32  1  0
 21 33  1  0
 22 34  1  0
 24 35  1  0
M  END
>  <meeko>  (2) 
{"is_sidechain": [false], "free_energy": -11.02, "intermolecular_energy": -13.557, "internal_energy": -0.237}

$$$$
cand_007_out
     RDKit          3D

 35 37  0  0  0  0  0  0  0  0999 V2000
   52.5370  160.6480   30.6780 O   0  0  0  0  0  0  0  0  0  0  0  0
   51.7970  159.7010   30.4220 C   0  0  0  0  0  0  0  0  0  0  0  0
   52.3110  158.5280   29.6770 C   0  0  0  0  0  0  0  0  0  0  0  0
   53.6360  158.5640   29.2810 O   0  0  0  0  0  0  0  0  0  0  0  0
   51.4670  157.5120   29.4150 C   0  0  0  0  0  0  0  0  0  0  0  0
   51.8660  156.3000   28.6690 C   0  0  0  0  0  0  0  0  0  0  0  0
   51.5090  155.0180   29.1010 C   0  0  0  0  0  0  0  0  0  0  0  0
   51.8800  153.8880   28.3690 C   0  0  0  0  0  0  0  0  0  0  0  0
   52.6140  154.0080   27.1770 C   0  0  0  0  0  0  0  0  0  0  0  0
   52.9990  152.7640   26.4070 C   0  0  0  0  0  0  0  0  0  0  0  0
   54.2990  152.4120   26.6130 F   0  0  0  0  0  0  0  0  0  0  0  0
   52.2600  151.6790   26.7670 F   0  0  0  0  0  0  0  0  0  0  0  0
   52.8540  152.8820   25.0580 F   0  0  0  0  0  0  0  0  0  0  0  0
   52.9680  155.2960   26.7190 C   0  0  0  0  0  0  0  0  0  0  0  0
   53.7590  155.4920   25.4460 C   0  0  0  0  0  0  0  0  0  0  0  0
   53.5060  156.6840   24.8320 F   0  0  0  0  0  0  0  0  0  0  0  0
   52.5890  156.4230   27.4730 C   0  0  0  0  0  0  0  0  0  0  0  0
   50.1300  157.4990   29.7950 O   0  0  0  0  0  0  0  0  0  0  0  0
   49.6270  158.5690   30.4900 C   0  0  0  0  0  0  0  0  0  0  0  0
   48.2820  158.5090   30.8580 C   0  0  0  0  0  0  0  0  0  0  0  0
   47.7070  159.5640   31.5680 C   0  0  0  0  0  0  0  0  0  0  0  0
   48.4750  160.6790   31.9090 C   0  0  0  0  0  0  0  0  0  0  0  0
   49.8170  160.7370   31.5400 C   0  0  0  0  0  0  0  0  0  0  0  0
   50.5100  161.8590   31.9050 O   0  0  0  0  0  0  0  0  0  0  0  0
   50.3920  159.6800   30.8300 C   0  0  0  0  0  0  0  0  0  0  0  0
   53.9170  159.1880   28.6410 H   0  0  0  0  0  0  0  0  0  0  0  0
   50.9292  154.8987   30.0282 H   0  0  0  0  0  0  0  0  0  0  0  0
   51.5934  152.8896   28.7309 H   0  0  0  0  0  0  0  0  0  0  0  0
   54.8306  155.4454   25.6900 H   0  0  0  0  0  0  0  0  0  0  0  0
   53.4578  154.6959   24.7492 H   0  0  0  0  0  0  0  0  0  0  0  0
   52.8668  157.4254   27.1153 H   0  0  0  0  0  0  0  0  0  0  0  0
   47.6760  157.6314   30.5888 H   0  0  0  0  0  0  0  0  0  0  0  0
   46.6473  159.5170   31.8593 H   0  0  0  0  0  0  0  0  0  0  0  0
   48.0210  161.5104   32.4682 H   0  0  0  0  0  0  0  0  0  0  0  0
   50.8500  161.9370   32.7740 H   0  0  0  0  0  0  0  0  0  0  0  0
  1  2  2  0
  2  3  1  0
  3  4  1  0
  3  5  2  0
  5  6  1  0
  6  7  2  0
  7  8  1  0
  8  9  2  0
  9 10  1  0
 10 11  1  0
 10 12  1  0
 10 13  1  0
  9 14  1  0
 14 15  1  0
 15 16  1  0
 14 17  2  0
  5 18  1  0
 18 19  1  0
 19 20  2  0
 20 21  1  0
 21 22  2  0
 22 23  1  0
 23 24  1  0
 23 25  2  0
 25  2  1  0
 17  6  1  0
 25 19  1  0
  4 26  1  0
  7 27  1  0
  8 28  1  0
 15 29  1  0
 15 30  1  0
 17 31  1  0
 20 32  1  0
 21 33  1  0
 22 34  1  0
 24 35  1  0
M  END
>  <meeko>  (3) 
{"is_sidechain": [false], "free_energy": -10.533, "intermolecular_energy": -13.2, "internal_energy": 0.007}

$$$$
cand_007_out
     RDKit          3D

 35 37  0  0  0  0  0  0  0  0999 V2000
   52.2690  161.2640   31.2890 O   0  0  0  0  0  0  0  0  0  0  0  0
   51.5940  160.3060   30.9180 C   0  0  0  0  0  0  0  0  0  0  0  0
   52.1880  159.2590   30.0540 C   0  0  0  0  0  0  0  0  0  0  0  0
   53.5100  159.4250   29.6840 O   0  0  0  0  0  0  0  0  0  0  0  0
   51.4130  158.2280   29.6690 C   0  0  0  0  0  0  0  0  0  0  0  0
   51.8940  157.1350   28.7970 C   0  0  0  0  0  0  0  0  0  0  0  0
   52.5570  157.3910   27.5920 C   0  0  0  0  0  0  0  0  0  0  0  0
   53.0200  156.3410   26.7950 C   0  0  0  0  0  0  0  0  0  0  0  0
   52.8400  155.0040   27.1840 C   0  0  0  0  0  0  0  0  0  0  0  0
   53.3550  153.8900   26.2990 C   0  0  0  0  0  0  0  0  0  0  0  0
   52.3550  153.2860   25.5970 F   0  0  0  0  0  0  0  0  0  0  0  0
   54.2450  154.3340   25.3690 F   0  0  0  0  0  0  0  0  0  0  0  0
   53.9900  152.8950   26.9760 F   0  0  0  0  0  0  0  0  0  0  0  0
   52.1870  154.7290   28.4060 C   0  0  0  0  0  0  0  0  0  0  0  0
   51.9610  153.3120   28.8810 C   0  0  0  0  0  0  0  0  0  0  0  0
   51.2480  152.5550   27.9990 F   0  0  0  0  0  0  0  0  0  0  0  0
   51.7240  155.8000   29.1950 C   0  0  0  0  0  0  0  0  0  0  0  0
   50.0770  158.0870   30.0260 O   0  0  0  0  0  0  0  0  0  0  0  0
   49.5020  159.0370   30.8300 C   0  0  0  0  0  0  0  0  0  0  0  0
   48.1610  158.8500   31.1700 C   0  0  0  0  0  0  0  0  0  0  0  0
   47.5140  159.7800   31.9860 C   0  0  0  0  0  0  0  0  0  0  0  0
   48.2050  160.8970   32.4600 C   0  0  0  0  0  0  0  0  0  0  0  0
   49.5430  161.0810   32.1180 C   0  0  0  0  0  0  0  0  0  0  0  0
   50.1590  162.1960   32.6170 O   0  0  0  0  0  0  0  0  0  0  0  0
   50.1900  160.1490   31.3030 C   0  0  0  0  0  0  0  0  0  0  0  0
   54.1360  159.7400   30.3060 H   0  0  0  0  0  0  0  0  0  0  0  0
   52.7155  158.4303   27.2685 H   0  0  0  0  0  0  0  0  0  0  0  0
   53.5334  156.5652   25.8483 H   0  0  0  0  0  0  0  0  0  0  0  0
   52.9402  152.8359   29.0379 H   0  0  0  0  0  0  0  0  0  0  0  0
   51.3745  153.3692   29.8098 H   0  0  0  0  0  0  0  0  0  0  0  0
   51.2165  155.5847   30.1469 H   0  0  0  0  0  0  0  0  0  0  0  0
   47.6150  157.9715   30.7957 H   0  0  0  0  0  0  0  0  0  0  0  0
   46.4579  159.6325   32.2560 H   0  0  0  0  0  0  0  0  0  0  0  0
   47.6942  161.6299   33.1018 H   0  0  0  0  0  0  0  0  0  0  0  0
   50.9940  162.4580   32.2830 H   0  0  0  0  0  0  0  0  0  0  0  0
  1  2  2  0
  2  3  1  0
  3  4  1  0
  3  5  2  0
  5  6  1  0
  6  7  2  0
  7  8  1  0
  8  9  2  0
  9 10  1  0
 10 11  1  0
 10 12  1  0
 10 13  1  0
  9 14  1  0
 14 15  1  0
 15 16  1  0
 14 17  2  0
  5 18  1  0
 18 19  1  0
 19 20  2  0
 20 21  1  0
 21 22  2  0
 22 23  1  0
 23 24  1  0
 23 25  2  0
 25  2  1  0
 17  6  1  0
 25 19  1  0
  4 26  1  0
  7 27  1  0
  8 28  1  0
 15 29  1  0
 15 30  1  0
 17 31  1  0
 20 32  1  0
 21 33  1  0
 22 34  1  0
 24 35  1  0
M  END
>  <meeko>  (4) 
{"is_sidechain": [false], "free_energy": -9.486, "intermolecular_energy": -11.875, "internal_energy": -0.027}

$$$$
cand_007_out
     RDKit          3D

 35 37  0  0  0  0  0  0  0  0999 V2000
   48.1430  158.5230   31.0430 O   0  0  0  0  0  0  0  0  0  0  0  0
   49.2990  158.4680   30.6260 C   0  0  0  0  0  0  0  0  0  0  0  0
   49.7650  157.2860   29.8650 C   0  0  0  0  0  0  0  0  0  0  0  0
   48.8540  156.2640   29.6670 O   0  0  0  0  0  0  0  0  0  0  0  0
   51.0380  157.2640   29.4280 C   0  0  0  0  0  0  0  0  0  0  0  0
   51.6150  156.1330   28.6720 C   0  0  0  0  0  0  0  0  0  0  0  0
   51.3750  154.8030   29.0350 C   0  0  0  0  0  0  0  0  0  0  0  0
   51.9150  153.7510   28.2930 C   0  0  0  0  0  0  0  0  0  0  0  0
   52.7080  153.9980   27.1590 C   0  0  0  0  0  0  0  0  0  0  0  0
   53.2780  152.8350   26.3760 C   0  0  0  0  0  0  0  0  0  0  0  0
   52.6090  151.6730   26.6190 F   0  0  0  0  0  0  0  0  0  0  0  0
   53.2060  153.0300   25.0300 F   0  0  0  0  0  0  0  0  0  0  0  0
   54.5870  152.5760   26.6460 F   0  0  0  0  0  0  0  0  0  0  0  0
   52.9470  155.3340   26.7700 C   0  0  0  0  0  0  0  0  0  0  0  0
   53.7920  155.6660   25.5620 C   0  0  0  0  0  0  0  0  0  0  0  0
   53.2900  156.6930   24.8180 F   0  0  0  0  0  0  0  0  0  0  0  0
   52.3970  156.3820   27.5330 C   0  0  0  0  0  0  0  0  0  0  0  0
   51.9530  158.2850   29.6560 O   0  0  0  0  0  0  0  0  0  0  0  0
   51.5480  159.3950   30.3530 C   0  0  0  0  0  0  0  0  0  0  0  0
   52.4970  160.3990   30.5520 C   0  0  0  0  0  0  0  0  0  0  0  0
   52.1510  161.5550   31.2530 C   0  0  0  0  0  0  0  0  0  0  0  0
   50.8580  161.7070   31.7570 C   0  0  0  0  0  0  0  0  0  0  0  0
   49.9130  160.7040   31.5590 C   0  0  0  0  0  0  0  0  0  0  0  0
   48.6660  160.9180   32.0800 O   0  0  0  0  0  0  0  0  0  0  0  0
   50.2600  159.5470   30.8560 C   0  0  0  0  0  0  0  0  0  0  0  0
   48.1880  156.0990   30.3070 H   0  0  0  0  0  0  0  0  0  0  0  0
   50.7533  154.5838   29.9156 H   0  0  0  0  0  0  0  0  0  0  0  0
   51.7170  152.7135   28.6003 H   0  0  0  0  0  0  0  0  0  0  0  0
   54.7991  155.9440   25.9062 H   0  0  0  0  0  0  0  0  0  0  0  0
   53.8053  154.7739   24.9186 H   0  0  0  0  0  0  0  0  0  0  0  0
   52.5849  157.4223   27.2288 H   0  0  0  0  0  0  0  0  0  0  0  0
   53.5165  160.2792   30.1567 H   0  0  0  0  0  0  0  0  0  0  0  0
   52.8979  162.3474   31.4086 H   0  0  0  0  0  0  0  0  0  0  0  0
   50.5862  162.6182   32.3099 H   0  0  0  0  0  0  0  0  0  0  0  0
   48.3240  160.3370   32.7290 H   0  0  0  0  0  0  0  0  0  0  0  0
  1  2  2  0
  2  3  1  0
  3  4  1  0
  3  5  2  0
  5  6  1  0
  6  7  2  0
  7  8  1  0
  8  9  2  0
  9 10  1  0
 10 11  1  0
 10 12  1  0
 10 13  1  0
  9 14  1  0
 14 15  1  0
 15 16  1  0
 14 17  2  0
  5 18  1  0
 18 19  1  0
 19 20  2  0
 20 21  1  0
 21 22  2  0
 22 23  1  0
 23 24  1  0
 23 25  2  0
 25  2  1  0
 17  6  1  0
 25 19  1  0
  4 26  1  0
  7 27  1  0
  8 28  1  0
 15 29  1  0
 15 30  1  0
 17 31  1  0
 20 32  1  0
 21 33  1  0
 22 34  1  0
 24 35  1  0
M  END
>  <meeko>  (5) 
{"is_sidechain": [false], "free_energy": -9.357, "intermolecular_energy": -11.773, "internal_energy": 0.031}

$$$$
cand_007_out
     RDKit          3D

 35 37  0  0  0  0  0  0  0  0999 V2000
   48.2610  158.4450   31.2760 O   0  0  0  0  0  0  0  0  0  0  0  0
   49.3880  158.5370   30.7940 C   0  0  0  0  0  0  0  0  0  0  0  0
   49.9130  157.4720   29.9070 C   0  0  0  0  0  0  0  0  0  0  0  0
   49.0890  156.3870   29.6700 O   0  0  0  0  0  0  0  0  0  0  0  0
   51.1530  157.6100   29.4020 C   0  0  0  0  0  0  0  0  0  0  0  0
   51.7840  156.6080   28.5180 C   0  0  0  0  0  0  0  0  0  0  0  0
   52.5760  156.9810   27.4270 C   0  0  0  0  0  0  0  0  0  0  0  0
   53.1790  156.0150   26.6180 C   0  0  0  0  0  0  0  0  0  0  0  0
   53.0120  154.6450   26.8810 C   0  0  0  0  0  0  0  0  0  0  0  0
   53.6790  153.6240   25.9860 C   0  0  0  0  0  0  0  0  0  0  0  0
   52.7980  153.0380   25.1280 F   0  0  0  0  0  0  0  0  0  0  0  0
   54.6500  154.1720   25.2050 F   0  0  0  0  0  0  0  0  0  0  0  0
   54.2760  152.6030   26.6620 F   0  0  0  0  0  0  0  0  0  0  0  0
   52.2280  154.2520   27.9880 C   0  0  0  0  0  0  0  0  0  0  0  0
   52.0080  152.7950   28.3240 C   0  0  0  0  0  0  0  0  0  0  0  0
   51.4360  152.0870   27.3070 F   0  0  0  0  0  0  0  0  0  0  0  0
   51.6250  155.2400   28.7910 C   0  0  0  0  0  0  0  0  0  0  0  0
   51.9830  158.6940   29.6690 O   0  0  0  0  0  0  0  0  0  0  0  0
   51.5210  159.6970   30.4830 C   0  0  0  0  0  0  0  0  0  0  0  0
   52.3840  160.7690   30.7170 C   0  0  0  0  0  0  0  0  0  0  0  0
   51.9770  161.8240   31.5360 C   0  0  0  0  0  0  0  0  0  0  0  0
   50.7100  161.8070   32.1210 C   0  0  0  0  0  0  0  0  0  0  0  0
   49.8510  160.7370   31.8860 C   0  0  0  0  0  0  0  0  0  0  0  0
   48.6250  160.7850   32.4910 O   0  0  0  0  0  0  0  0  0  0  0  0
   50.2580  159.6810   31.0660 C   0  0  0  0  0  0  0  0  0  0  0  0
   48.5270  156.0680   30.3490 H   0  0  0  0  0  0  0  0  0  0  0  0
   52.7257  158.0476   27.2035 H   0  0  0  0  0  0  0  0  0  0  0  0
   53.7936  156.3316   25.7624 H   0  0  0  0  0  0  0  0  0  0  0  0
   52.9812  152.3406   28.5615 H   0  0  0  0  0  0  0  0  0  0  0  0
   51.3143  152.7584   29.1769 H   0  0  0  0  0  0  0  0  0  0  0  0
   51.0147  154.9322   29.6529 H   0  0  0  0  0  0  0  0  0  0  0  0
   53.3831  160.7825   30.2569 H   0  0  0  0  0  0  0  0  0  0  0  0
   52.6558  162.6697   31.7204 H   0  0  0  0  0  0  0  0  0  0  0  0
   50.3905  162.6381   32.7670 H   0  0  0  0  0  0  0  0  0  0  0  0
   47.8660  161.0150   31.9930 H   0  0  0  0  0  0  0  0  0  0  0  0
  1  2  2  0
  2  3  1  0
  3  4  1  0
  3  5  2  0
  5  6  1  0
  6  7  2  0
  7  8  1  0
  8  9  2  0
  9 10  1  0
 10 11  1  0
 10 12  1  0
 10 13  1  0
  9 14  1  0
 14 15  1  0
 15 16  1  0
 14 17  2  0
  5 18  1  0
 18 19  1  0
 19 20  2  0
 20 21  1  0
 21 22  2  0
 22 23  1  0
 23 24  1  0
 23 25  2  0
 25  2  1  0
 17  6  1  0
 25 19  1  0
  4 26  1  0
  7 27  1  0
  8 28  1  0
 15 29  1  0
 15 30  1  0
 17 31  1  0
 20 32  1  0
 21 33  1  0
 22 34  1  0
 24 35  1  0
M  END
>  <meeko>  (6) 
{"is_sidechain": [false], "free_energy": -8.736, "intermolecular_energy": -11.099, "internal_energy": 0.123}

$$$$
cand_007_out
     RDKit          3D

 35 37  0  0  0  0  0  0  0  0999 V2000
   54.5160  155.3700   25.2170 O   0  0  0  0  0  0  0  0  0  0  0  0
   53.6510  155.0170   26.0160 C   0  0  0  0  0  0  0  0  0  0  0  0
   52.9810  156.0130   26.8830 C   0  0  0  0  0  0  0  0  0  0  0  0
   53.3830  157.3300   26.7580 O   0  0  0  0  0  0  0  0  0  0  0  0
   52.0410  155.5840   27.7470 C   0  0  0  0  0  0  0  0  0  0  0  0
   51.3160  156.4850   28.6680 C   0  0  0  0  0  0  0  0  0  0  0  0
   50.0870  156.1280   29.2330 C   0  0  0  0  0  0  0  0  0  0  0  0
   49.4310  156.9870   30.1180 C   0  0  0  0  0  0  0  0  0  0  0  0
   49.9890  158.2270   30.4690 C   0  0  0  0  0  0  0  0  0  0  0  0
   49.2530  159.1340   31.4300 C   0  0  0  0  0  0  0  0  0  0  0  0
   48.6700  160.1910   30.7980 F   0  0  0  0  0  0  0  0  0  0  0  0
   48.2470  158.4920   32.0840 F   0  0  0  0  0  0  0  0  0  0  0  0
   50.0450  159.6700   32.4000 F   0  0  0  0  0  0  0  0  0  0  0  0
   51.2370  158.5960   29.9200 C   0  0  0  0  0  0  0  0  0  0  0  0
   51.8900  159.9170   30.2560 C   0  0  0  0  0  0  0  0  0  0  0  0
   51.1910  160.9960   29.7990 F   0  0  0  0  0  0  0  0  0  0  0  0
   51.8820  157.7180   29.0260 C   0  0  0  0  0  0  0  0  0  0  0  0
   51.6640  154.2530   27.8830 O   0  0  0  0  0  0  0  0  0  0  0  0
   52.2640  153.3090   27.0890 C   0  0  0  0  0  0  0  0  0  0  0  0
   51.8480  151.9870   27.2540 C   0  0  0  0  0  0  0  0  0  0  0  0
   52.4190  150.9760   26.4770 C   0  0  0  0  0  0  0  0  0  0  0  0
   53.4040  151.2870   25.5390 C   0  0  0  0  0  0  0  0  0  0  0  0
   53.8170  152.6070   25.3760 C   0  0  0  0  0  0  0  0  0  0  0  0
   54.7860  152.8400   24.4390 O   0  0  0  0  0  0  0  0  0  0  0  0
   53.2450  153.6180   26.1530 C   0  0  0  0  0  0  0  0  0  0  0  0
   52.9940  157.9930   27.2940 H   0  0  0  0  0  0  0  0  0  0  0  0
   49.6319  155.1597   28.9774 H   0  0  0  0  0  0  0  0  0  0  0  0
   48.4630  156.6877   30.5463 H   0  0  0  0  0  0  0  0  0  0  0  0
   51.9772  159.9952   31.3497 H   0  0  0  0  0  0  0  0  0  0  0  0
   52.8717  159.9308   29.7600 H   0  0  0  0  0  0  0  0  0  0  0  0
   52.8534  158.0065   28.5982 H   0  0  0  0  0  0  0  0  0  0  0  0
   51.0722  151.7416   27.9942 H   0  0  0  0  0  0  0  0  0  0  0  0
   52.0917  149.9336   26.6049 H   0  0  0  0  0  0  0  0  0  0  0  0
   53.8540  150.4901   24.9287 H   0  0  0  0  0  0  0  0  0  0  0  0
   55.3320  153.5970   24.5080 H   0  0  0  0  0  0  0  0  0  0  0  0
  1  2  2  0
  2  3  1  0
  3  4  1  0
  3  5  2  0
  5  6  1  0
  6  7  2  0
  7  8  1  0
  8  9  2  0
  9 10  1  0
 10 11  1  0
 10 12  1  0
 10 13  1  0
  9 14  1  0
 14 15  1  0
 15 16  1  0
 14 17  2  0
  5 18  1  0
 18 19  1  0
 19 20  2  0
 20 21  1  0
 21 22  2  0
 22 23  1  0
 23 24  1  0
 23 25  2  0
 25  2  1  0
 17  6  1  0
 25 19  1  0
  4 26  1  0
  7 27  1  0
  8 28  1  0
 15 29  1  0
 15 30  1  0
 17 31  1  0
 20 32  1  0
 21 33  1  0
 22 34  1  0
 24 35  1  0
M  END
>  <meeko>  (7) 
{"is_sidechain": [false], "free_energy": -8.271, "intermolecular_energy": -10.616, "internal_energy": 0.214}

$$$$
cand_007_out
     RDKit          3D

 35 37  0  0  0  0  0  0  0  0999 V2000
   54.0790  154.6020   24.9160 O   0  0  0  0  0  0  0  0  0  0  0  0
   53.3840  154.5270   25.9280 C   0  0  0  0  0  0  0  0  0  0  0  0
   53.0580  155.7440   26.7050 C   0  0  0  0  0  0  0  0  0  0  0  0
   53.5800  156.9410   26.2500 O   0  0  0  0  0  0  0  0  0  0  0  0
   52.2960  155.6180   27.8080 C   0  0  0  0  0  0  0  0  0  0  0  0
   51.9190  156.7600   28.6680 C   0  0  0  0  0  0  0  0  0  0  0  0
   52.7980  157.8210   28.9110 C   0  0  0  0  0  0  0  0  0  0  0  0
   52.4120  158.8990   29.7110 C   0  0  0  0  0  0  0  0  0  0  0  0
   51.1310  158.9510   30.2860 C   0  0  0  0  0  0  0  0  0  0  0  0
   50.7440  160.1330   31.1460 C   0  0  0  0  0  0  0  0  0  0  0  0
   51.8310  160.7980   31.6280 F   0  0  0  0  0  0  0  0  0  0  0  0
   50.0170  161.0590   30.4620 F   0  0  0  0  0  0  0  0  0  0  0  0
   49.9950  159.8030   32.2350 F   0  0  0  0  0  0  0  0  0  0  0  0
   50.2260  157.8950   30.0370 C   0  0  0  0  0  0  0  0  0  0  0  0
   48.8350  157.8900   30.6270 C   0  0  0  0  0  0  0  0  0  0  0  0
   47.9650  158.7050   29.9630 F   0  0  0  0  0  0  0  0  0  0  0  0
   50.6350  156.8140   29.2310 C   0  0  0  0  0  0  0  0  0  0  0  0
   51.7990  154.4050   28.2710 O   0  0  0  0  0  0  0  0  0  0  0  0
   52.0800  153.2610   27.5680 C   0  0  0  0  0  0  0  0  0  0  0  0
   51.5540  152.0680   28.0660 C   0  0  0  0  0  0  0  0  0  0  0  0
   51.8020  150.8670   27.3980 C   0  0  0  0  0  0  0  0  0  0  0  0
   52.5760  150.8580   26.2370 C   0  0  0  0  0  0  0  0  0  0  0  0
   53.1000  152.0500   25.7430 C   0  0  0  0  0  0  0  0  0  0  0  0
   53.8490  151.9700   24.6010 O   0  0  0  0  0  0  0  0  0  0  0  0
   52.8510  153.2520   26.4110 C   0  0  0  0  0  0  0  0  0  0  0  0
   53.9890  157.5330   26.8500 H   0  0  0  0  0  0  0  0  0  0  0  0
   53.8043  157.8061   28.4671 H   0  0  0  0  0  0  0  0  0  0  0  0
   53.1215  159.7195   29.8936 H   0  0  0  0  0  0  0  0  0  0  0  0
   48.4452  156.8619   30.5938 H   0  0  0  0  0  0  0  0  0  0  0  0
   48.9160  158.2690   31.6565 H   0  0  0  0  0  0  0  0  0  0  0  0
   49.9300  155.9919   29.0384 H   0  0  0  0  0  0  0  0  0  0  0  0
   50.9456  152.0737   28.9824 H   0  0  0  0  0  0  0  0  0  0  0  0
   51.3863  149.9261   27.7879 H   0  0  0  0  0  0  0  0  0  0  0  0
   52.7719  149.9110   25.7128 H   0  0  0  0  0  0  0  0  0  0  0  0
   53.5400  151.4710   23.8720 H   0  0  0  0  0  0  0  0  0  0  0  0
  1  2  2  0
  2  3  1  0
  3  4  1  0
  3  5  2  0
  5  6  1  0
  6  7  2  0
  7  8  1  0
  8  9  2  0
  9 10  1  0
 10 11  1  0
 10 12  1  0
 10 13  1  0
  9 14  1  0
 14 15  1  0
 15 16  1  0
 14 17  2  0
  5 18  1  0
 18 19  1  0
 19 20  2  0
 20 21  1  0
 21 22  2  0
 22 23  1  0
 23 24  1  0
 23 25  2  0
 25  2  1  0
 17  6  1  0
 25 19  1  0
  4 26  1  0
  7 27  1  0
  8 28  1  0
 15 29  1  0
 15 30  1  0
 17 31  1  0
 20 32  1  0
 21 33  1  0
 22 34  1  0
 24 35  1  0
M  END
>  <meeko>  (8) 
{"is_sidechain": [false], "free_energy": -8.164, "intermolecular_energy": -10.265, "internal_energy": -0.006}

$$$$
