cand_050_out
     RDKit          3D

 38 40  0  0  0  0  0  0  0  0999 V2000
   50.0820  161.1890   33.0330 C   0  0  0  0  0  0  0  0  0  0  0  0
   50.1770  161.3830   31.5270 C   0  0  0  0  0  0  0  0  0  0  0  0
   50.5730  160.1080   30.8150 C   0  0  0  0  0  0  0  0  0  0  0  0
   51.9180  159.9480   30.4400 C   0  0  0  0  0  0  0  0  0  0  0  0
   52.3470  158.7980   29.7720 C   0  0  0  0  0  0  0  0  0  0  0  0
   51.4480  157.7740   29.4620 C   0  0  0  0  0  0  0  0  0  0  0  0
   51.9190  156.5740   28.7390 C   0  0  0  0  0  0  0  0  0  0  0  0
   52.4990  156.8740   27.5110 O   0  0  0  0  0  0  0  0  0  0  0  0
   52.9780  155.8490   26.7370 C   0  0  0  0  0  0  0  0  0  0  0  0
   53.5390  156.1930   25.5070 C   0  0  0  0  0  0  0  0  0  0  0  0
   54.0480  155.1980   24.6700 C   0  0  0  0  0  0  0  0  0  0  0  0
   53.9980  153.8600   25.0640 C   0  0  0  0  0  0  0  0  0  0  0  0
   53.4390  153.5180   26.2920 C   0  0  0  0  0  0  0  0  0  0  0  0
   53.4220  152.1880   26.6160 O   0  0  0  0  0  0  0  0  0  0  0  0
   52.9280  154.5150   27.1290 C   0  0  0  0  0  0  0  0  0  0  0  0
   52.3320  154.1990   28.4280 C   0  0  0  0  0  0  0  0  0  0  0  0
   52.2570  153.0460   28.8480 O   0  0  0  0  0  0  0  0  0  0  0  0
   51.8130  155.3270   29.2350 C   0  0  0  0  0  0  0  0  0  0  0  0
   51.2630  155.0220   30.4660 O   0  0  0  0  0  0  0  0  0  0  0  0
   50.1020  157.9390   29.8210 C   0  0  0  0  0  0  0  0  0  0  0  0
   49.6450  159.0920   30.4950 C   0  0  0  0  0  0  0  0  0  0  0  0
   48.1810  159.1900   30.8650 C   0  0  0  0  0  0  0  0  0  0  0  0
   47.6770  160.4550   30.7770 F   0  0  0  0  0  0  0  0  0  0  0  0
   47.9290  158.7910   32.1440 F   0  0  0  0  0  0  0  0  0  0  0  0
   47.3870  158.4220   30.0680 F   0  0  0  0  0  0  0  0  0  0  0  0
   50.5106  162.0642   33.5432 H   0  0  0  0  0  0  0  0  0  0  0  0
   49.0267  161.0762   33.3223 H   0  0  0  0  0  0  0  0  0  0  0  0
   50.6400  160.2863   33.3223 H   0  0  0  0  0  0  0  0  0  0  0  0
   49.1977  161.7115   31.1488 H   0  0  0  0  0  0  0  0  0  0  0  0
   50.9531  162.1372   31.3299 H   0  0  0  0  0  0  0  0  0  0  0  0
   52.6440  160.7400   30.6759 H   0  0  0  0  0  0  0  0  0  0  0  0
   53.4047  158.6976   29.4869 H   0  0  0  0  0  0  0  0  0  0  0  0
   53.5804  157.2475   25.1967 H   0  0  0  0  0  0  0  0  0  0  0  0
   54.4888  155.4689   23.6993 H   0  0  0  0  0  0  0  0  0  0  0  0
   54.4000  153.0765   24.4047 H   0  0  0  0  0  0  0  0  0  0  0  0
   54.0560  151.8430   27.2110 H   0  0  0  0  0  0  0  0  0  0  0  0
   51.7090  155.2690   31.2520 H   0  0  0  0  0  0  0  0  0  0  0  0
   49.3815  157.1466   29.5699 H   0  0  0  0  0  0  0  0  0  0  0  0
  1  2  1  0
  2  3  1  0
  3  4  2  0
  4  5  1  0
  5  6  2  0
  6  7  1  0
  7  8  1  0
  8  9  1  0
  9 10  2  0
 10 11  1  0
 11 12  2  0
 12 13  1  0
 13 14  1  0
 13 15  2  0
 15 16  1  0
 16 17  2  0
 16 18  1  0
 18 19  1  0
  6 20  1  0
 20 21  2  0
 21 22  1  0
 22 23  1  0
 22 24  1  0
 22 25  1  0
 21  3  1  0
 18  7  2  0
 15  9  1  0
  1 26  1  0
  1 27  1  0
  1 28  1  0
  2 29  1  0
  2 30  1  0
  4 31  1  0
  5 32  1  0
 10 33  1  0
 11 34  1  0
 12 35  1  0
 14 36  1  0
 19 37  1  0
 20 38  1  0
M  END
>  <meeko>  (1) 
{"is_sidechain": [false], "free_energy": -11.506, "intermolecular_energy": -14.197, "internal_energy": -0.353}

$$$$
cand_050_out
     RDKit          3D

 38 40  0  0  0  0  0  0  0  0999 V2000
   47.2040  159.7110   31.4740 C   0  0  0  0  0  0  0  0  0  0  0  0
   48.6960  159.9550   31.6470 C   0  0  0  0  0  0  0  0  0  0  0  0
   49.5270  158.9820   30.8390 C   0  0  0  0  0  0  0  0  0  0  0  0
   48.9530  157.7470   30.4920 C   0  0  0  0  0  0  0  0  0  0  0  0
   49.6690  156.8020   29.7550 C   0  0  0  0  0  0  0  0  0  0  0  0
   50.9780  157.0620   29.3380 C   0  0  0  0  0  0  0  0  0  0  0  0
   51.7250  156.0410   28.5750 C   0  0  0  0  0  0  0  0  0  0  0  0
   52.2850  156.5410   27.4040 O   0  0  0  0  0  0  0  0  0  0  0  0
   53.0050  155.6950   26.6010 C   0  0  0  0  0  0  0  0  0  0  0  0
   53.5360  156.2340   25.4280 C   0  0  0  0  0  0  0  0  0  0  0  0
   54.2830  155.4280   24.5660 C   0  0  0  0  0  0  0  0  0  0  0  0
   54.4990  154.0840   24.8770 C   0  0  0  0  0  0  0  0  0  0  0  0
   53.9680  153.5480   26.0470 C   0  0  0  0  0  0  0  0  0  0  0  0
   54.2170  152.2240   26.2890 O   0  0  0  0  0  0  0  0  0  0  0  0
   53.2200  154.3550   26.9090 C   0  0  0  0  0  0  0  0  0  0  0  0
   52.6450  153.8310   28.1480 C   0  0  0  0  0  0  0  0  0  0  0  0
   52.7960  152.6620   28.4950 O   0  0  0  0  0  0  0  0  0  0  0  0
   51.8620  154.7670   28.9880 C   0  0  0  0  0  0  0  0  0  0  0  0
   51.3330  154.2690   30.1640 O   0  0  0  0  0  0  0  0  0  0  0  0
   51.5590  158.2880   29.6970 C   0  0  0  0  0  0  0  0  0  0  0  0
   50.8540  159.2570   30.4430 C   0  0  0  0  0  0  0  0  0  0  0  0
   51.5420  160.5630   30.7760 C   0  0  0  0  0  0  0  0  0  0  0  0
   51.5650  160.8450   32.1110 F   0  0  0  0  0  0  0  0  0  0  0  0
   50.9470  161.6410   30.1910 F   0  0  0  0  0  0  0  0  0  0  0  0
   52.8430  160.5880   30.3740 F   0  0  0  0  0  0  0  0  0  0  0  0
   46.7281  159.6332   32.4627 H   0  0  0  0  0  0  0  0  0  0  0  0
   46.7577  160.5481   30.9171 H   0  0  0  0  0  0  0  0  0  0  0  0
   47.0476  158.7753   30.9171 H   0  0  0  0  0  0  0  0  0  0  0  0
   48.9288  160.9788   31.3188 H   0  0  0  0  0  0  0  0  0  0  0  0
   48.9427  159.8120   32.7094 H   0  0  0  0  0  0  0  0  0  0  0  0
   47.9232  157.5214   30.8061 H   0  0  0  0  0  0  0  0  0  0  0  0
   49.1978  155.8415   29.4993 H   0  0  0  0  0  0  0  0  0  0  0  0
   53.3662  157.2928   25.1827 H   0  0  0  0  0  0  0  0  0  0  0  0
   54.7015  155.8523   23.6414 H   0  0  0  0  0  0  0  0  0  0  0  0
   55.0880  153.4495   24.1984 H   0  0  0  0  0  0  0  0  0  0  0  0
   55.0970  151.9050   26.2850 H   0  0  0  0  0  0  0  0  0  0  0  0
   51.9030  153.9640   30.8420 H   0  0  0  0  0  0  0  0  0  0  0  0
   52.5933  158.4999   29.3882 H   0  0  0  0  0  0  0  0  0  0  0  0
  1  2  1  0
  2  3  1  0
  3  4  2  0
  4  5  1  0
  5  6  2  0
  6  7  1  0
  7  8  1  0
  8  9  1  0
  9 10  2  0
 10 11  1  0
 11 12  2  0
 12 13  1  0
 13 14  1  0
 13 15  2  0
 15 16  1  0
 16 17  2  0
 16 18  1  0
 18 19  1  0
  6 20  1  0
 20 21  2  0
 21 22  1  0
 22 23  1  0
 22 24  1  0
 22 25  1  0
 21  3  1  0
 18  7  2  0
 15  9  1  0
  1 26  1  0
  1 27  1  0
  1 28  1  0
  2 29  1  0
  2 30  1  0
  4 31  1  0
  5 32  1  0
 10 33  1  0
 11 34  1  0
 12 35  1  0
 14 36  1  0
 19 37  1  0
 20 38  1  0
M  END
>  <meeko>  (2) 
{"is_sidechain": [false], "free_energy": -10.989, "intermolecular_energy": -13.521, "internal_energy": -0.392}

$$$$
cand_050_out
     RDKit          3D

 38 40  0  0  0  0  0  0  0  0999 V2000
   51.9010  152.6660   26.2970 C   0  0  0  0  0  0  0  0  0  0  0  0
   53.0050  153.2920   27.1380 C   0  0  0  0  0  0  0  0  0  0  0  0
   52.5550  154.5780   27.7970 C   0  0  0  0  0  0  0  0  0  0  0  0
   51.8740  154.4910   29.0240 C   0  0  0  0  0  0  0  0  0  0  0  0
   51.4240  155.6390   29.6800 C   0  0  0  0  0  0  0  0  0  0  0  0
   51.6430  156.9070   29.1340 C   0  0  0  0  0  0  0  0  0  0  0  0
   51.1420  158.1080   29.8350 C   0  0  0  0  0  0  0  0  0  0  0  0
   49.8150  157.9890   30.2320 O   0  0  0  0  0  0  0  0  0  0  0  0
   49.2260  159.0360   30.8940 C   0  0  0  0  0  0  0  0  0  0  0  0
   47.8890  158.8810   31.2610 C   0  0  0  0  0  0  0  0  0  0  0  0
   47.2290  159.9080   31.9410 C   0  0  0  0  0  0  0  0  0  0  0  0
   47.9070  161.0870   32.2540 C   0  0  0  0  0  0  0  0  0  0  0  0
   49.2420  161.2400   31.8870 C   0  0  0  0  0  0  0  0  0  0  0  0
   49.8450  162.4210   32.2250 O   0  0  0  0  0  0  0  0  0  0  0  0
   49.9010  160.2120   31.2060 C   0  0  0  0  0  0  0  0  0  0  0  0
   51.3030  160.3320   30.8030 C   0  0  0  0  0  0  0  0  0  0  0  0
   51.9690  161.3350   31.0480 O   0  0  0  0  0  0  0  0  0  0  0  0
   51.9060  159.1890   30.0790 C   0  0  0  0  0  0  0  0  0  0  0  0
   53.2340  159.3040   29.7130 O   0  0  0  0  0  0  0  0  0  0  0  0
   52.3070  156.9940   27.9020 C   0  0  0  0  0  0  0  0  0  0  0  0
   52.7690  155.8480   27.2200 C   0  0  0  0  0  0  0  0  0  0  0  0
   53.4940  156.0240   25.9030 C   0  0  0  0  0  0  0  0  0  0  0  0
   54.3730  155.0190   25.6230 F   0  0  0  0  0  0  0  0  0  0  0  0
   54.2290  157.1700   25.8510 F   0  0  0  0  0  0  0  0  0  0  0  0
   52.6440  156.0740   24.8400 F   0  0  0  0  0  0  0  0  0  0  0  0
   51.1368  152.2327   26.9590 H   0  0  0  0  0  0  0  0  0  0  0  0
   51.4413  153.4378   25.6622 H   0  0  0  0  0  0  0  0  0  0  0  0
   52.3273  151.8752   25.6622 H   0  0  0  0  0  0  0  0  0  0  0  0
   53.3043  152.5782   27.9196 H   0  0  0  0  0  0  0  0  0  0  0  0
   53.8476  153.5283   26.4715 H   0  0  0  0  0  0  0  0  0  0  0  0
   51.6929  153.5038   29.4741 H   0  0  0  0  0  0  0  0  0  0  0  0
   50.8910  155.5442   30.6376 H   0  0  0  0  0  0  0  0  0  0  0  0
   47.3549  157.9513   31.0153 H   0  0  0  0  0  0  0  0  0  0  0  0
   46.1745  159.7871   32.2297 H   0  0  0  0  0  0  0  0  0  0  0  0
   47.3875  161.8949   32.7902 H   0  0  0  0  0  0  0  0  0  0  0  0
   49.5320  162.9130   32.9570 H   0  0  0  0  0  0  0  0  0  0  0  0
   53.8730  159.5700   30.3450 H   0  0  0  0  0  0  0  0  0  0  0  0
   52.4727  157.9848   27.4538 H   0  0  0  0  0  0  0  0  0  0  0  0
  1  2  1  0
  2  3  1  0
  3  4  2  0
  4  5  1  0
  5  6  2  0
  6  7  1  0
  7  8  1  0
  8  9  1  0
  9 10  2  0
 10 11  1  0
 11 12  2  0
 12 13  1  0
 13 14  1  0
 13 15  2  0
 15 16  1  0
 16 17  2  0
 16 18  1  0
 18 19  1  0
  6 20  1  0
 20 21  2  0
 21 22  1  0
 22 23  1  0
 22 24  1  0
 22 25  1  0
 21  3  1  0
 18  7  2  0
 15  9  1  0
  1 26  1  0
  1 27  1  0
  1 28  1  0
  2 29  1  0
  2 30  1  0
  4 31  1  0
  5 32  1  0
 10 33  1  0
 11 34  1  0
 12 35  1  0
 14 36  1  0
 19 37  1  0
 20 38  1  0
M  END
>  <meeko>  (3) 
{"is_sidechain": [false], "free_energy": -10.884, "intermolecular_energy": -13.582, "internal_energy": -0.2}

$$$$
cand_050_out
     RDKit          3D

 38 40  0  0  0  0  0  0  0  0999 V2000
   53.0110  154.5800   24.8640 C   0  0  0  0  0  0  0  0  0  0  0  0
   53.4730  154.3970   26.3030 C   0  0  0  0  0  0  0  0  0  0  0  0
   52.8440  155.4120   27.2340 C   0  0  0  0  0  0  0  0  0  0  0  0
   53.0150  156.7760   26.9420 C   0  0  0  0  0  0  0  0  0  0  0  0
   52.4680  157.7620   27.7650 C   0  0  0  0  0  0  0  0  0  0  0  0
   51.7310  157.4170   28.9020 C   0  0  0  0  0  0  0  0  0  0  0  0
   51.1760  158.4770   29.7700 C   0  0  0  0  0  0  0  0  0  0  0  0
   49.8310  158.2850   30.0670 O   0  0  0  0  0  0  0  0  0  0  0  0
   49.1930  159.1990   30.8660 C   0  0  0  0  0  0  0  0  0  0  0  0
   47.8400  158.9770   31.1260 C   0  0  0  0  0  0  0  0  0  0  0  0
   47.1300  159.8680   31.9340 C   0  0  0  0  0  0  0  0  0  0  0  0
   47.7730  160.9800   32.4810 C   0  0  0  0  0  0  0  0  0  0  0  0
   49.1230  161.2000   32.2200 C   0  0  0  0  0  0  0  0  0  0  0  0
   49.6900  162.3090   32.7870 O   0  0  0  0  0  0  0  0  0  0  0  0
   49.8330  160.3080   31.4100 C   0  0  0  0  0  0  0  0  0  0  0  0
   51.2520  160.5030   31.1110 C   0  0  0  0  0  0  0  0  0  0  0  0
   51.8890  161.4530   31.5600 O   0  0  0  0  0  0  0  0  0  0  0  0
   51.9090  159.5050   30.2360 C   0  0  0  0  0  0  0  0  0  0  0  0
   53.2530  159.6880   29.9680 O   0  0  0  0  0  0  0  0  0  0  0  0
   51.5720  156.0560   29.2040 C   0  0  0  0  0  0  0  0  0  0  0  0
   52.1180  155.0430   28.3870 C   0  0  0  0  0  0  0  0  0  0  0  0
   51.8890  153.5960   28.7680 C   0  0  0  0  0  0  0  0  0  0  0  0
   53.0400  152.8750   28.8970 F   0  0  0  0  0  0  0  0  0  0  0  0
   51.1400  152.9180   27.8540 F   0  0  0  0  0  0  0  0  0  0  0  0
   51.2390  153.4640   29.9580 F   0  0  0  0  0  0  0  0  0  0  0  0
   51.9883  154.9851   24.8559 H   0  0  0  0  0  0  0  0  0  0  0  0
   53.6862  155.2786   24.3482 H   0  0  0  0  0  0  0  0  0  0  0  0
   53.0247  153.6086   24.3482 H   0  0  0  0  0  0  0  0  0  0  0  0
   53.1958  153.3870   26.6393 H   0  0  0  0  0  0  0  0  0  0  0  0
   54.5633  154.5403   26.3307 H   0  0  0  0  0  0  0  0  0  0  0  0
   53.5888  157.0713   26.0511 H   0  0  0  0  0  0  0  0  0  0  0  0
   52.6186  158.8228   27.5161 H   0  0  0  0  0  0  0  0  0  0  0  0
   47.3331  158.1011   30.6950 H   0  0  0  0  0  0  0  0  0  0  0  0
   46.0636  159.6935   32.1395 H   0  0  0  0  0  0  0  0  0  0  0  0
   47.2138  161.6816   33.1175 H   0  0  0  0  0  0  0  0  0  0  0  0
   50.5510  162.2610   33.1500 H   0  0  0  0  0  0  0  0  0  0  0  0
   53.6410  159.2780   29.2210 H   0  0  0  0  0  0  0  0  0  0  0  0
   51.0058  155.7705   30.1029 H   0  0  0  0  0  0  0  0  0  0  0  0
  1  2  1  0
  2  3  1  0
  3  4  2  0
  4  5  1  0
  5  6  2  0
  6  7  1  0
  7  8  1  0
  8  9  1  0
  9 10  2  0
 10 11  1  0
 11 12  2  0
 12 13  1  0
 13 14  1  0
 13 15  2  0
 15 16  1  0
 16 17  2  0
 16 18  1  0
 18 19  1  0
  6 20  1  0
 20 21  2  0
 21 22  1  0
 22 23  1  0
 22 24  1  0
 22 25  1  0
 21  3  1  0
 18  7  2  0
 15  9  1  0
  1 26  1  0
  1 27  1  0
  1 28  1  0
  2 29  1  0
  2 30  1  0
  4 31  1  0
  5 32  1  0
 10 33  1  0
 11 34  1  0
 12 35  1  0
 14 36  1  0
 19 37  1  0
 20 38  1  0
M  END
>  <meeko>  (4) 
{"is_sidechain": [false], "free_energy": -9.383, "intermolecular_energy": -11.524, "internal_energy": -0.405}

$$$$
cand_050_out
     RDKit          3D

 38 40  0  0  0  0  0  0  0  0999 V2000
   52.7530  152.1640   25.6890 C   0  0  0  0  0  0  0  0  0  0  0  0
   53.6730  152.8530   26.6860 C   0  0  0  0  0  0  0  0  0  0  0  0
   52.9980  154.0250   27.3650 C   0  0  0  0  0  0  0  0  0  0  0  0
   52.3940  153.8090   28.6160 C   0  0  0  0  0  0  0  0  0  0  0  0
   51.7460  154.8460   29.2910 C   0  0  0  0  0  0  0  0  0  0  0  0
   51.6860  156.1300   28.7400 C   0  0  0  0  0  0  0  0  0  0  0  0
   50.9800  157.2090   29.4620 C   0  0  0  0  0  0  0  0  0  0  0  0
   51.8040  158.2880   29.7640 O   0  0  0  0  0  0  0  0  0  0  0  0
   51.2720  159.3590   30.4360 C   0  0  0  0  0  0  0  0  0  0  0  0
   52.1370  160.4130   30.7320 C   0  0  0  0  0  0  0  0  0  0  0  0
   51.6590  161.5360   31.4120 C   0  0  0  0  0  0  0  0  0  0  0  0
   50.3180  161.6050   31.7940 C   0  0  0  0  0  0  0  0  0  0  0  0
   49.4570  160.5510   31.4970 C   0  0  0  0  0  0  0  0  0  0  0  0
   48.1570  160.6840   31.9020 O   0  0  0  0  0  0  0  0  0  0  0  0
   49.9350  159.4270   30.8180 C   0  0  0  0  0  0  0  0  0  0  0  0
   49.0640  158.2990   30.4870 C   0  0  0  0  0  0  0  0  0  0  0  0
   47.8720  158.2870   30.7830 O   0  0  0  0  0  0  0  0  0  0  0  0
   49.6710  157.1530   29.7720 C   0  0  0  0  0  0  0  0  0  0  0  0
   48.8390  156.0960   29.4520 O   0  0  0  0  0  0  0  0  0  0  0  0
   52.2740  156.3430   27.4850 C   0  0  0  0  0  0  0  0  0  0  0  0
   52.9320  155.3100   26.7840 C   0  0  0  0  0  0  0  0  0  0  0  0
   53.5590  155.6220   25.4420 C   0  0  0  0  0  0  0  0  0  0  0  0
   54.7870  155.0540   25.2660 F   0  0  0  0  0  0  0  0  0  0  0  0
   53.7470  156.9570   25.2410 F   0  0  0  0  0  0  0  0  0  0  0  0
   52.8020  155.1880   24.3960 F   0  0  0  0  0  0  0  0  0  0  0  0
   51.9874  151.5906   26.2322 H   0  0  0  0  0  0  0  0  0  0  0  0
   52.2649  152.9205   25.0570 H   0  0  0  0  0  0  0  0  0  0  0  0
   53.3416  151.4827   25.0570 H   0  0  0  0  0  0  0  0  0  0  0  0
   53.9750  152.1243   27.4527 H   0  0  0  0  0  0  0  0  0  0  0  0
   54.5448  153.2358   26.1351 H   0  0  0  0  0  0  0  0  0  0  0  0
   52.4323  152.8079   29.0702 H   0  0  0  0  0  0  0  0  0  0  0  0
   51.2776  154.6506   30.2669 H   0  0  0  0  0  0  0  0  0  0  0  0
   53.1935  160.3599   30.4305 H   0  0  0  0  0  0  0  0  0  0  0  0
   52.3403  162.3671   31.6467 H   0  0  0  0  0  0  0  0  0  0  0  0
   49.9420  162.4899   32.3284 H   0  0  0  0  0  0  0  0  0  0  0  0
   47.7450  159.9970   32.3870 H   0  0  0  0  0  0  0  0  0  0  0  0
   49.1670  155.3810   28.9430 H   0  0  0  0  0  0  0  0  0  0  0  0
   52.2208  157.3447   27.0336 H   0  0  0  0  0  0  0  0  0  0  0  0
  1  2  1  0
  2  3  1  0
  3  4  2  0
  4  5  1  0
  5  6  2  0
  6  7  1  0
  7  8  1  0
  8  9  1  0
  9 10  2  0
 10 11  1  0
 11 12  2  0
 12 13  1  0
 13 14  1  0
 13 15  2  0
 15 16  1  0
 16 17  2  0
 16 18  1  0
 18 19  1  0
  6 20  1  0
 20 21  2  0
 21 22  1  0
 22 23  1  0
 22 24  1  0
 22 25  1  0
 21  3  1  0
 18  7  2  0
 15  9  1  0
  1 26  1  0
  1 27  1  0
  1 28  1  0
  2 29  1  0
  2 30  1  0
  4 31  1  0
  5 32  1  0
 10 33  1  0
 11 34  1  0
 12 35  1  0
 14 36  1  0
 19 37  1  0
 20 38  1  0
M  END
>  <meeko>  (5) 
{"is_sidechain": [false], "free_energy": -9.259, "intermolecular_energy": -11.349, "internal_energy": -0.428}

$$$$
