cand_039_out
     RDKit          3D

 41 43  0  0  0  0  0  0  0  0999 V2000
   50.0290  161.0750   33.2510 C   0  0  0  0  0  0  0  0  0  0  0  0
   50.0150  161.2810   31.7430 C   0  0  0  0  0  0  0  0  0  0  0  0
   50.4280  160.0330   30.9980 C   0  0  0  0  0  0  0  0  0  0  0  0
   51.7020  160.0090   30.4050 C   0  0  0  0  0  0  0  0  0  0  0  0
   52.1520  158.8850   29.7080 C   0  0  0  0  0  0  0  0  0  0  0  0
   51.3430  157.7540   29.5780 C   0  0  0  0  0  0  0  0  0  0  0  0
   51.8450  156.5660   28.8550 C   0  0  0  0  0  0  0  0  0  0  0  0
   52.3850  156.8790   27.6120 O   0  0  0  0  0  0  0  0  0  0  0  0
   52.8890  155.8680   26.8340 C   0  0  0  0  0  0  0  0  0  0  0  0
   53.4340  156.2290   25.6020 C   0  0  0  0  0  0  0  0  0  0  0  0
   53.9630  155.2480   24.7590 C   0  0  0  0  0  0  0  0  0  0  0  0
   53.9450  153.9070   25.1490 C   0  0  0  0  0  0  0  0  0  0  0  0
   53.3990  153.5500   26.3790 C   0  0  0  0  0  0  0  0  0  0  0  0
   53.4140  152.2200   26.6990 O   0  0  0  0  0  0  0  0  0  0  0  0
   52.8720  154.5320   27.2230 C   0  0  0  0  0  0  0  0  0  0  0  0
   52.2890  154.1990   28.5230 C   0  0  0  0  0  0  0  0  0  0  0  0
   52.2310  153.0420   28.9330 O   0  0  0  0  0  0  0  0  0  0  0  0
   51.7640  155.3150   29.3440 C   0  0  0  0  0  0  0  0  0  0  0  0
   51.2040  154.9870   30.5650 O   0  0  0  0  0  0  0  0  0  0  0  0
   50.0790  157.7690   30.1840 C   0  0  0  0  0  0  0  0  0  0  0  0
   49.6080  158.8910   30.8970 C   0  0  0  0  0  0  0  0  0  0  0  0
   48.2200  158.8180   31.4940 C   0  0  0  0  0  0  0  0  0  0  0  0
   47.2860  159.8540   30.8850 C   0  0  0  0  0  0  0  0  0  0  0  0
   49.9627  162.0505   33.7550 H   0  0  0  0  0  0  0  0  0  0  0  0
   49.1711  160.4519   33.5439 H   0  0  0  0  0  0  0  0  0  0  0  0
   50.9633  160.5737   33.5439 H   0  0  0  0  0  0  0  0  0  0  0  0
   48.9974  161.5600   31.4320 H   0  0  0  0  0  0  0  0  0  0  0  0
   50.7364  162.0755   31.5016 H   0  0  0  0  0  0  0  0  0  0  0  0
   52.3555  160.8897   30.4911 H   0  0  0  0  0  0  0  0  0  0  0  0
   53.1550  158.8908   29.2564 H   0  0  0  0  0  0  0  0  0  0  0  0
   53.4474  157.2850   25.2942 H   0  0  0  0  0  0  0  0  0  0  0  0
   54.3939  155.5322   23.7876 H   0  0  0  0  0  0  0  0  0  0  0  0
   54.3613  153.1345   24.4857 H   0  0  0  0  0  0  0  0  0  0  0  0
   52.9870  151.9200   27.4770 H   0  0  0  0  0  0  0  0  0  0  0  0
   51.0540  154.0890   30.7850 H   0  0  0  0  0  0  0  0  0  0  0  0
   49.4361  156.8803   30.1010 H   0  0  0  0  0  0  0  0  0  0  0  0
   47.8065  157.8152   31.3114 H   0  0  0  0  0  0  0  0  0  0  0  0
   48.3008  159.0230   32.5717 H   0  0  0  0  0  0  0  0  0  0  0  0
   46.7831  160.4118   31.6887 H   0  0  0  0  0  0  0  0  0  0  0  0
   47.8670  160.5509   30.2631 H   0  0  0  0  0  0  0  0  0  0  0  0
   46.5328  159.3481   30.2631 H   0  0  0  0  0  0  0  0  0  0  0  0
  1  2  1  0
  2  3  1  0
  3  4  2  0
  4  5  1  0
  5  6  2  0
  6  7  1  0
  7  8  1  0
  8  9  1  0
  9 10  2  0
 10 11  1  0
 11 12  2  0
 12 13  1  0
 13 14  1  0
 13 15  2  0
 15 16  1  0
 16 17  2  0
 16 18  1  0
 18 19  1  0
  6 20  1  0
 20 21  2  0
 21 22  1  0
 22 23  1  0
 21  3  1  0
 18  7  2  0
 15  9  1  0
  1 24  1  0
  1 25  1  0
  1 26  1  0
  2 27  1  0
  2 28  1  0
  4 29  1  0
  5 30  1  0
 10 31  1  0
 11 32  1  0
 12 33  1  0
 14 34  1  0
 19 35  1  0
 20 36  1  0
 22 37  1  0
 22 38  1  0
 23 39  1  0
 23 40  1  0
 23 41  1  0
M  END
>  <meeko>  (1) 
{"is_sidechain": [false], "free_energy": -11.336, "intermolecular_energy": -13.986, "internal_energy": 0.072}

$$$$
cand_039_out
     RDKit          3D

 41 43  0  0  0  0  0  0  0  0999 V2000
   47.1910  159.9140   31.6850 C   0  0  0  0  0  0  0  0  0  0  0  0
   48.6340  160.3730   31.5360 C   0  0  0  0  0  0  0  0  0  0  0  0
   49.4820  159.3480   30.8180 C   0  0  0  0  0  0  0  0  0  0  0  0
   48.9210  158.0830   30.5730 C   0  0  0  0  0  0  0  0  0  0  0  0
   49.6430  157.0900   29.9070 C   0  0  0  0  0  0  0  0  0  0  0  0
   50.9490  157.3290   29.4710 C   0  0  0  0  0  0  0  0  0  0  0  0
   51.6910  156.2720   28.7490 C   0  0  0  0  0  0  0  0  0  0  0  0
   52.1960  156.7050   27.5290 O   0  0  0  0  0  0  0  0  0  0  0  0
   52.9070  155.8240   26.7540 C   0  0  0  0  0  0  0  0  0  0  0  0
   53.4090  156.3060   25.5450 C   0  0  0  0  0  0  0  0  0  0  0  0
   54.1400  155.4590   24.7080 C   0  0  0  0  0  0  0  0  0  0  0  0
   54.3680  154.1330   25.0800 C   0  0  0  0  0  0  0  0  0  0  0  0
   53.8650  153.6550   26.2870 C   0  0  0  0  0  0  0  0  0  0  0  0
   54.1250  152.3470   26.5900 O   0  0  0  0  0  0  0  0  0  0  0  0
   53.1350  154.5020   27.1250 C   0  0  0  0  0  0  0  0  0  0  0  0
   52.5890  154.0410   28.4020 C   0  0  0  0  0  0  0  0  0  0  0  0
   52.7410  152.8860   28.7950 O   0  0  0  0  0  0  0  0  0  0  0  0
   51.8360  155.0200   29.2200 C   0  0  0  0  0  0  0  0  0  0  0  0
   51.3140  154.5690   30.4170 O   0  0  0  0  0  0  0  0  0  0  0  0
   51.5030  158.5960   29.6990 C   0  0  0  0  0  0  0  0  0  0  0  0
   50.7880  159.6140   30.3630 C   0  0  0  0  0  0  0  0  0  0  0  0
   51.4840  160.9390   30.5820 C   0  0  0  0  0  0  0  0  0  0  0  0
   51.4220  161.3770   32.0390 C   0  0  0  0  0  0  0  0  0  0  0  0
   46.9400  159.8342   32.7530 H   0  0  0  0  0  0  0  0  0  0  0  0
   46.5226  160.6439   31.2049 H   0  0  0  0  0  0  0  0  0  0  0  0
   47.0671  158.9321   31.2049 H   0  0  0  0  0  0  0  0  0  0  0  0
   48.6508  161.3121   30.9634 H   0  0  0  0  0  0  0  0  0  0  0  0
   49.0518  160.5145   32.5437 H   0  0  0  0  0  0  0  0  0  0  0  0
   47.8960  157.8713   30.9114 H   0  0  0  0  0  0  0  0  0  0  0  0
   49.1788  156.1097   29.7238 H   0  0  0  0  0  0  0  0  0  0  0  0
   53.2297  157.3508   25.2512 H   0  0  0  0  0  0  0  0  0  0  0  0
   54.5365  155.8377   23.7544 H   0  0  0  0  0  0  0  0  0  0  0  0
   54.9440  153.4670   24.4207 H   0  0  0  0  0  0  0  0  0  0  0  0
   53.7750  151.9690   27.3730 H   0  0  0  0  0  0  0  0  0  0  0  0
   50.4940  154.9010   30.7260 H   0  0  0  0  0  0  0  0  0  0  0  0
   52.5255  158.8023   29.3498 H   0  0  0  0  0  0  0  0  0  0  0  0
   52.5384  160.8406   30.2845 H   0  0  0  0  0  0  0  0  0  0  0  0
   50.9707  161.6990   29.9746 H   0  0  0  0  0  0  0  0  0  0  0  0
   51.5462  160.4999   32.6911 H   0  0  0  0  0  0  0  0  0  0  0  0
   52.2268  162.0996   32.2392 H   0  0  0  0  0  0  0  0  0  0  0  0
   50.4482  161.8479   32.2392 H   0  0  0  0  0  0  0  0  0  0  0  0
  1  2  1  0
  2  3  1  0
  3  4  2  0
  4  5  1  0
  5  6  2  0
  6  7  1  0
  7  8  1  0
  8  9  1  0
  9 10  2  0
 10 11  1  0
 11 12  2  0
 12 13  1  0
 13 14  1  0
 13 15  2  0
 15 16  1  0
 16 17  2  0
 16 18  1  0
 18 19  1  0
  6 20  1  0
 20 21  2  0
 21 22  1  0
 22 23  1  0
 21  3  1  0
 18  7  2  0
 15  9  1  0
  1 24  1  0
  1 25  1  0
  1 26  1  0
  2 27  1  0
  2 28  1  0
  4 29  1  0
  5 30  1  0
 10 31  1  0
 11 32  1  0
 12 33  1  0
 14 34  1  0
 19 35  1  0
 20 36  1  0
 22 37  1  0
 22 38  1  0
 23 39  1  0
 23 40  1  0
 23 41  1  0
M  END
>  <meeko>  (2) 
{"is_sidechain": [false], "free_energy": -10.772, "intermolecular_energy": -13.375, "internal_energy": 0.157}

$$$$
cand_039_out
     RDKit          3D

 41 43  0  0  0  0  0  0  0  0999 V2000
   54.0950  152.4040   26.1240 C   0  0  0  0  0  0  0  0  0  0  0  0
   52.6430  152.4780   26.5750 C   0  0  0  0  0  0  0  0  0  0  0  0
   52.3250  153.7980   27.2390 C   0  0  0  0  0  0  0  0  0  0  0  0
   51.8760  153.7750   28.5710 C   0  0  0  0  0  0  0  0  0  0  0  0
   51.5700  154.9570   29.2500 C   0  0  0  0  0  0  0  0  0  0  0  0
   51.7000  156.1970   28.6180 C   0  0  0  0  0  0  0  0  0  0  0  0
   51.3920  157.4390   29.3600 C   0  0  0  0  0  0  0  0  0  0  0  0
   50.0790  157.4850   29.8130 O   0  0  0  0  0  0  0  0  0  0  0  0
   49.6590  158.5840   30.5190 C   0  0  0  0  0  0  0  0  0  0  0  0
   48.3380  158.5820   30.9680 C   0  0  0  0  0  0  0  0  0  0  0  0
   47.8460  159.6720   31.6900 C   0  0  0  0  0  0  0  0  0  0  0  0
   48.6740  160.7630   31.9620 C   0  0  0  0  0  0  0  0  0  0  0  0
   49.9920  160.7620   31.5120 C   0  0  0  0  0  0  0  0  0  0  0  0
   50.7480  161.8620   31.8130 O   0  0  0  0  0  0  0  0  0  0  0  0
   50.4840  159.6710   30.7900 C   0  0  0  0  0  0  0  0  0  0  0  0
   51.8620  159.6310   30.2990 C   0  0  0  0  0  0  0  0  0  0  0  0
   52.6490  160.5550   30.4920 O   0  0  0  0  0  0  0  0  0  0  0  0
   52.2880  158.4250   29.5520 C   0  0  0  0  0  0  0  0  0  0  0  0
   53.5880  158.4030   29.0810 O   0  0  0  0  0  0  0  0  0  0  0  0
   52.1650  156.2220   27.2960 C   0  0  0  0  0  0  0  0  0  0  0  0
   52.4840  155.0410   26.5950 C   0  0  0  0  0  0  0  0  0  0  0  0
   52.9540  155.1730   25.1640 C   0  0  0  0  0  0  0  0  0  0  0  0
   54.0880  156.1800   25.0300 C   0  0  0  0  0  0  0  0  0  0  0  0
   54.7516  152.3705   27.0059 H   0  0  0  0  0  0  0  0  0  0  0  0
   54.2456  151.4970   25.5201 H   0  0  0  0  0  0  0  0  0  0  0  0
   54.3370  153.2910   25.5201 H   0  0  0  0  0  0  0  0  0  0  0  0
   51.9914  152.3555   25.6973 H   0  0  0  0  0  0  0  0  0  0  0  0
   52.4734  151.6774   27.3100 H   0  0  0  0  0  0  0  0  0  0  0  0
   51.7637  152.8102   29.0873 H   0  0  0  0  0  0  0  0  0  0  0  0
   51.2231  154.9114   30.2929 H   0  0  0  0  0  0  0  0  0  0  0  0
   47.6848  157.7233   30.7538 H   0  0  0  0  0  0  0  0  0  0  0  0
   46.8048  159.6709   32.0448 H   0  0  0  0  0  0  0  0  0  0  0  0
   48.2862  161.6212   32.5304 H   0  0  0  0  0  0  0  0  0  0  0  0
   50.9580  162.0560   32.7060 H   0  0  0  0  0  0  0  0  0  0  0  0
   54.1800  157.7380   29.3710 H   0  0  0  0  0  0  0  0  0  0  0  0
   52.2846  157.1916   26.7905 H   0  0  0  0  0  0  0  0  0  0  0  0
   53.3064  154.1917   24.8134 H   0  0  0  0  0  0  0  0  0  0  0  0
   52.1077  155.5297   24.5585 H   0  0  0  0  0  0  0  0  0  0  0  0
   54.4294  156.4831   26.0308 H   0  0  0  0  0  0  0  0  0  0  0  0
   54.9233  155.7206   24.4812 H   0  0  0  0  0  0  0  0  0  0  0  0
   53.7306  157.0638   24.4812 H   0  0  0  0  0  0  0  0  0  0  0  0
  1  2  1  0
  2  3  1  0
  3  4  2  0
  4  5  1  0
  5  6  2  0
  6  7  1  0
  7  8  1  0
  8  9  1  0
  9 10  2  0
 10 11  1  0
 11 12  2  0
 12 13  1  0
 13 14  1  0
 13 15  2  0
 15 16  1  0
 16 17  2  0
 16 18  1  0
 18 19  1  0
  6 20  1  0
 20 21  2  0
 21 22  1  0
 22 23  1  0
 21  3  1  0
 18  7  2  0
 15  9  1  0
  1 24  1  0
  1 25  1  0
  1 26  1  0
  2 27  1  0
  2 28  1  0
  4 29  1  0
  5 30  1  0
 10 31  1  0
 11 32  1  0
 12 33  1  0
 14 34  1  0
 19 35  1  0
 20 36  1  0
 22 37  1  0
 22 38  1  0
 23 39  1  0
 23 40  1  0
 23 41  1  0
M  END
>  <meeko>  (3) 
{"is_sidechain": [false], "free_energy": -10.54, "intermolecular_energy": -12.794, "internal_energy": -0.137}

$$$$
cand_039_out
     RDKit          3D

 41 43  0  0  0  0  0  0  0  0999 V2000
   52.9790  154.5210   24.9400 C   0  0  0  0  0  0  0  0  0  0  0  0
   53.3930  154.2590   26.3810 C   0  0  0  0  0  0  0  0  0  0  0  0
   52.8270  155.2910   27.3280 C   0  0  0  0  0  0  0  0  0  0  0  0
   52.9610  156.6470   26.9830 C   0  0  0  0  0  0  0  0  0  0  0  0
   52.4560  157.6550   27.8070 C   0  0  0  0  0  0  0  0  0  0  0  0
   51.8050  157.3400   29.0030 C   0  0  0  0  0  0  0  0  0  0  0  0
   51.2580  158.4200   29.8520 C   0  0  0  0  0  0  0  0  0  0  0  0
   49.9180  158.2300   30.1690 O   0  0  0  0  0  0  0  0  0  0  0  0
   49.2830  159.1600   30.9530 C   0  0  0  0  0  0  0  0  0  0  0  0
   47.9430  158.9220   31.2600 C   0  0  0  0  0  0  0  0  0  0  0  0
   47.2380  159.8310   32.0520 C   0  0  0  0  0  0  0  0  0  0  0  0
   47.8720  160.9760   32.5370 C   0  0  0  0  0  0  0  0  0  0  0  0
   49.2090  161.2120   32.2290 C   0  0  0  0  0  0  0  0  0  0  0  0
   49.7680  162.3520   32.7360 O   0  0  0  0  0  0  0  0  0  0  0  0
   49.9160  160.3010   31.4370 C   0  0  0  0  0  0  0  0  0  0  0  0
   51.3210  160.5110   31.0910 C   0  0  0  0  0  0  0  0  0  0  0  0
   51.9460  161.4980   31.4730 O   0  0  0  0  0  0  0  0  0  0  0  0
   51.9810  159.4830   30.2520 C   0  0  0  0  0  0  0  0  0  0  0  0
   53.3050  159.6970   29.9200 O   0  0  0  0  0  0  0  0  0  0  0  0
   51.6550  155.9880   29.3400 C   0  0  0  0  0  0  0  0  0  0  0  0
   52.1520  154.9550   28.5180 C   0  0  0  0  0  0  0  0  0  0  0  0
   51.9610  153.5280   28.9820 C   0  0  0  0  0  0  0  0  0  0  0  0
   51.5580  152.6090   27.8380 C   0  0  0  0  0  0  0  0  0  0  0  0
   52.0496  155.1092   24.9267 H   0  0  0  0  0  0  0  0  0  0  0  0
   53.7744  155.0805   24.4259 H   0  0  0  0  0  0  0  0  0  0  0  0
   52.8138  153.5626   24.4259 H   0  0  0  0  0  0  0  0  0  0  0  0
   53.0292  153.2649   26.6801 H   0  0  0  0  0  0  0  0  0  0  0  0
   54.4903  154.3134   26.4349 H   0  0  0  0  0  0  0  0  0  0  0  0
   53.4725  156.9188   26.0478 H   0  0  0  0  0  0  0  0  0  0  0  0
   52.5718  158.7082   27.5116 H   0  0  0  0  0  0  0  0  0  0  0  0
   47.4425  158.0197   30.8788 H   0  0  0  0  0  0  0  0  0  0  0  0
   46.1813  159.6443   32.2940 H   0  0  0  0  0  0  0  0  0  0  0  0
   47.3161  161.6908   33.1616 H   0  0  0  0  0  0  0  0  0  0  0  0
   49.2290  163.0940   32.9260 H   0  0  0  0  0  0  0  0  0  0  0  0
   53.9610  159.7040   30.5890 H   0  0  0  0  0  0  0  0  0  0  0  0
   51.1346  155.7247   30.2726 H   0  0  0  0  0  0  0  0  0  0  0  0
   52.9052  153.1651   29.4141 H   0  0  0  0  0  0  0  0  0  0  0  0
   51.1534  153.5173   29.7288 H   0  0  0  0  0  0  0  0  0  0  0  0
   51.1478  151.6735   28.2462 H   0  0  0  0  0  0  0  0  0  0  0  0
   50.7949  153.1053   27.2204 H   0  0  0  0  0  0  0  0  0  0  0  0
   52.4400  152.3839   27.2204 H   0  0  0  0  0  0  0  0  0  0  0  0
  1  2  1  0
  2  3  1  0
  3  4  2  0
  4  5  1  0
  5  6  2  0
  6  7  1  0
  7  8  1  0
  8  9  1  0
  9 10  2  0
 10 11  1  0
 11 12  2  0
 12 13  1  0
 13 14  1  0
 13 15  2  0
 15 16  1  0
 16 17  2  0
 16 18  1  0
 18 19  1  0
  6 20  1  0
 20 21  2  0
 21 22  1  0
 22 23  1  0
 21  3  1  0
 18  7  2  0
 15  9  1  0
  1 24  1  0
  1 25  1  0
  1 26  1  0
  2 27  1  0
  2 28  1  0
  4 29  1  0
  5 30  1  0
 10 31  1  0
 11 32  1  0
 12 33  1  0
 14 34  1  0
 19 35  1  0
 20 36  1  0
 22 37  1  0
 22 38  1  0
 23 39  1  0
 23 40  1  0
 23 41  1  0
M  END
>  <meeko>  (4) 
{"is_sidechain": [false], "free_energy": -9.765, "intermolecular_energy": -12.306, "internal_energy": 0.331}

$$$$
cand_039_out
     RDKit          3D

 41 43  0  0  0  0  0  0  0  0999 V2000
   52.5640  152.6610   26.0410 C   0  0  0  0  0  0  0  0  0  0  0  0
   53.4350  153.3370   27.0900 C   0  0  0  0  0  0  0  0  0  0  0  0
   52.7300  154.5030   27.7440 C   0  0  0  0  0  0  0  0  0  0  0  0
   51.9320  154.2440   28.8720 C   0  0  0  0  0  0  0  0  0  0  0  0
   51.2580  155.2740   29.5320 C   0  0  0  0  0  0  0  0  0  0  0  0
   51.3560  156.5930   29.0830 C   0  0  0  0  0  0  0  0  0  0  0  0
   50.6520  157.6740   29.8070 C   0  0  0  0  0  0  0  0  0  0  0  0
   51.5030  158.6980   30.2070 O   0  0  0  0  0  0  0  0  0  0  0  0
   50.9790  159.7660   30.8900 C   0  0  0  0  0  0  0  0  0  0  0  0
   51.8660  160.7790   31.2570 C   0  0  0  0  0  0  0  0  0  0  0  0
   51.3980  161.8940   31.9580 C   0  0  0  0  0  0  0  0  0  0  0  0
   50.0450  161.9950   32.2890 C   0  0  0  0  0  0  0  0  0  0  0  0
   49.1630  160.9830   31.9210 C   0  0  0  0  0  0  0  0  0  0  0  0
   47.8530  161.1450   32.2770 O   0  0  0  0  0  0  0  0  0  0  0  0
   49.6310  159.8680   31.2200 C   0  0  0  0  0  0  0  0  0  0  0  0
   48.7380  158.7820   30.8140 C   0  0  0  0  0  0  0  0  0  0  0  0
   47.5370  158.7950   31.0760 O   0  0  0  0  0  0  0  0  0  0  0  0
   49.3320  157.6490   30.0680 C   0  0  0  0  0  0  0  0  0  0  0  0
   48.4820  156.6220   29.7010 O   0  0  0  0  0  0  0  0  0  0  0  0
   52.1660  156.8560   27.9690 C   0  0  0  0  0  0  0  0  0  0  0  0
   52.8590  155.8310   27.2930 C   0  0  0  0  0  0  0  0  0  0  0  0
   53.6870  156.2140   26.0860 C   0  0  0  0  0  0  0  0  0  0  0  0
   52.8690  156.1790   24.8030 C   0  0  0  0  0  0  0  0  0  0  0  0
   51.7894  152.0598   26.5396 H   0  0  0  0  0  0  0  0  0  0  0  0
   52.0858  153.4268   25.4126 H   0  0  0  0  0  0  0  0  0  0  0  0
   53.1872  152.0078   25.4126 H   0  0  0  0  0  0  0  0  0  0  0  0
   53.6958  152.6000   27.8639 H   0  0  0  0  0  0  0  0  0  0  0  0
   54.3351  153.7217   26.5882 H   0  0  0  0  0  0  0  0  0  0  0  0
   51.8368  153.2122   29.2412 H   0  0  0  0  0  0  0  0  0  0  0  0
   50.6434  155.0440   30.4148 H   0  0  0  0  0  0  0  0  0  0  0  0
   52.9314  160.7001   30.9951 H   0  0  0  0  0  0  0  0  0  0  0  0
   52.0960  162.6927   32.2492 H   0  0  0  0  0  0  0  0  0  0  0  0
   49.6768  162.8731   32.8398 H   0  0  0  0  0  0  0  0  0  0  0  0
   47.4390  160.5210   32.8410 H   0  0  0  0  0  0  0  0  0  0  0  0
   48.0250  156.6620   28.8840 H   0  0  0  0  0  0  0  0  0  0  0  0
   52.2636  157.8919   27.6122 H   0  0  0  0  0  0  0  0  0  0  0  0
   54.0777  157.2320   26.2311 H   0  0  0  0  0  0  0  0  0  0  0  0
   54.5055  155.4856   25.9887 H   0  0  0  0  0  0  0  0  0  0  0  0
   51.7985  156.1332   25.0518 H   0  0  0  0  0  0  0  0  0  0  0  0
   53.0703  157.0866   24.2150 H   0  0  0  0  0  0  0  0  0  0  0  0
   53.1471  155.2919   24.2150 H   0  0  0  0  0  0  0  0  0  0  0  0
  1  2  1  0
  2  3  1  0
  3  4  2  0
  4  5  1  0
  5  6  2  0
  6  7  1  0
  7  8  1  0
  8  9  1  0
  9 10  2  0
 10 11  1  0
 11 12  2  0
 12 13  1  0
 13 14  1  0
 13 15  2  0
 15 16  1  0
 16 17  2  0
 16 18  1  0
 18 19  1  0
  6 20  1  0
 20 21  2  0
 21 22  1  0
 22 23  1  0
 21  3  1  0
 18  7  2  0
 15  9  1  0
  1 24  1  0
  1 25  1  0
  1 26  1  0
  2 27  1  0
  2 28  1  0
  4 29  1  0
  5 30  1  0
 10 31  1  0
 11 32  1  0
 12 33  1  0
 14 34  1  0
 19 35  1  0
 20 36  1  0
 22 37  1  0
 22 38  1  0
 23 39  1  0
 23 40  1  0
 23 41  1  0
M  END
>  <meeko>  (5) 
{"is_sidechain": [false], "free_energy": -8.725, "intermolecular_energy": -10.225, "internal_energy": -0.467}

$$$$
