cand_006_out
     RDKit          3D

 47 50  0  0  0  0  0  0  0  0999 V2000
   52.3160  152.4480   27.2350 C   0  0  0  0  0  0  0  0  0  0  0  0
   52.0630  153.8000   27.8470 C   0  0  0  0  0  0  0  0  0  0  0  0
   51.3870  153.8920   29.0710 C   0  0  0  0  0  0  0  0  0  0  0  0
   51.1440  155.1350   29.6580 C   0  0  0  0  0  0  0  0  0  0  0  0
   51.5790  156.3140   29.0400 C   0  0  0  0  0  0  0  0  0  0  0  0
   51.2900  157.6220   29.6660 C   0  0  0  0  0  0  0  0  0  0  0  0
   49.9960  157.7080   30.1670 O   0  0  0  0  0  0  0  0  0  0  0  0
   49.5950  158.8690   30.7760 C   0  0  0  0  0  0  0  0  0  0  0  0
   48.2840  158.9160   31.2500 C   0  0  0  0  0  0  0  0  0  0  0  0
   47.8120  160.0690   31.8810 C   0  0  0  0  0  0  0  0  0  0  0  0
   48.6520  161.1730   32.0390 C   0  0  0  0  0  0  0  0  0  0  0  0
   49.9600  161.1240   31.5660 C   0  0  0  0  0  0  0  0  0  0  0  0
   50.7270  162.2410   31.7540 O   0  0  0  0  0  0  0  0  0  0  0  0
   50.4310  159.9700   30.9320 C   0  0  0  0  0  0  0  0  0  0  0  0
   51.7990  159.8770   30.4200 C   0  0  0  0  0  0  0  0  0  0  0  0
   52.5990  160.8040   30.5270 O   0  0  0  0  0  0  0  0  0  0  0  0
   52.1970  158.6120   29.7580 C   0  0  0  0  0  0  0  0  0  0  0  0
   53.4960  158.5310   29.2900 O   0  0  0  0  0  0  0  0  0  0  0  0
   52.2460  156.2170   27.8100 C   0  0  0  0  0  0  0  0  0  0  0  0
   52.5010  154.9730   27.2030 C   0  0  0  0  0  0  0  0  0  0  0  0
   53.1850  154.8660   25.9700 N   0  0  0  0  0  0  0  0  0  0  0  0
   54.0560  153.6790   25.9200 C   0  0  0  0  0  0  0  0  0  0  0  0
   54.5750  153.5030   24.4920 C   0  0  0  0  0  0  0  0  0  0  0  0
   55.2820  154.7660   24.0010 C   0  0  0  0  0  0  0  0  0  0  0  0
   54.3830  155.9920   24.1620 C   0  0  0  0  0  0  0  0  0  0  0  0
   53.8680  156.1140   25.5960 C   0  0  0  0  0  0  0  0  0  0  0  0
   52.4552  151.7043   28.0335 H   0  0  0  0  0  0  0  0  0  0  0  0
   51.4560  152.1607   26.6122 H   0  0  0  0  0  0  0  0  0  0  0  0
   53.2217  152.4911   26.6122 H   0  0  0  0  0  0  0  0  0  0  0  0
   51.0445  152.9758   29.5742 H   0  0  0  0  0  0  0  0  0  0  0  0
   50.6054  155.1889   30.6156 H   0  0  0  0  0  0  0  0  0  0  0  0
   47.6225  158.0458   31.1269 H   0  0  0  0  0  0  0  0  0  0  0  0
   46.7778  160.1074   32.2538 H   0  0  0  0  0  0  0  0  0  0  0  0
   48.2803  162.0807   32.5369 H   0  0  0  0  0  0  0  0  0  0  0  0
   50.5470  162.8180   32.4680 H   0  0  0  0  0  0  0  0  0  0  0  0
   54.0020  159.3110   29.1770 H   0  0  0  0  0  0  0  0  0  0  0  0
   52.5784  157.1369   27.3067 H   0  0  0  0  0  0  0  0  0  0  0  0
   54.9044  153.8148   26.6068 H   0  0  0  0  0  0  0  0  0  0  0  0
   53.4871  152.7872   26.2216 H   0  0  0  0  0  0  0  0  0  0  0  0
   55.2846  152.6628   24.4692 H   0  0  0  0  0  0  0  0  0  0  0  0
   53.7177  153.3049   23.8319 H   0  0  0  0  0  0  0  0  0  0  0  0
   56.2017  154.9145   24.5860 H   0  0  0  0  0  0  0  0  0  0  0  0
   55.5208  154.6430   22.9343 H   0  0  0  0  0  0  0  0  0  0  0  0
   54.9584  156.8948   23.9092 H   0  0  0  0  0  0  0  0  0  0  0  0
   53.5195  155.8821   23.4895 H   0  0  0  0  0  0  0  0  0  0  0  0
   54.7135  156.2896   26.2773 H   0  0  0  0  0  0  0  0  0  0  0  0
   53.1647  156.9569   25.6667 H   0  0  0  0  0  0  0  0  0  0  0  0
  1  2  1  0
  2  3  2  0
  3  4  1  0
  4  5  2  0
  5  6  1  0
  6  7  1  0
  7  8  1  0
  8  9  2  0
  9 10  1  0
 10 11  2  0
 11 12  1  0
 12 13  1  0
 12 14  2  0
 14 15  1  0
 15 16  2  0
 15 17  1  0
 17 18  1  0
  5 19  1  0
 19 20  2  0
 20 21  1  0
 21 22  1  0
 22 23  1  0
 23 24  1  0
 24 25  1  0
 25 26  1  0
 20  2  1  0
 26 21  1  0
 17  6  2  0
 14  8  1  0
  1 27  1  0
  1 28  1  0
  1 29  1  0
  3 30  1  0
  4 31  1  0
  9 32  1  0
 10 33  1  0
 11 34  1  0
 13 35  1  0
 18 36  1  0
 19 37  1  0
 22 38  1  0
 22 39  1  0
 23 40  1  0
 23 41  1  0
 24 42  1  0
 24 43  1  0
 25 44  1  0
 25 45  1  0
 26 46  1  0
 26 47  1  0
M  END
>  <meeko>  (1) 
{"is_sidechain": [false], "free_energy": -10.614, "intermolecular_energy": -12.476, "internal_energy": 0.924}

$$$$
cand_006_out
     RDKit          3D

 47 50  0  0  0  0  0  0  0  0999 V2000
   51.7560  161.4310   31.1820 C   0  0  0  0  0  0  0  0  0  0  0  0
   51.8650  160.0940   30.5000 C   0  0  0  0  0  0  0  0  0  0  0  0
   53.1100  159.6500   30.0360 C   0  0  0  0  0  0  0  0  0  0  0  0
   53.2340  158.4120   29.4040 C   0  0  0  0  0  0  0  0  0  0  0  0
   52.1180  157.5860   29.2260 C   0  0  0  0  0  0  0  0  0  0  0  0
   52.2650  156.2890   28.5320 C   0  0  0  0  0  0  0  0  0  0  0  0
   52.8100  156.4170   27.2590 O   0  0  0  0  0  0  0  0  0  0  0  0
   53.0030  155.2890   26.5030 C   0  0  0  0  0  0  0  0  0  0  0  0
   53.5390  155.4660   25.2260 C   0  0  0  0  0  0  0  0  0  0  0  0
   53.7610  154.3590   24.4050 C   0  0  0  0  0  0  0  0  0  0  0  0
   53.4490  153.0760   24.8600 C   0  0  0  0  0  0  0  0  0  0  0  0
   52.9160  152.9020   26.1340 C   0  0  0  0  0  0  0  0  0  0  0  0
   52.6340  151.6190   26.5160 O   0  0  0  0  0  0  0  0  0  0  0  0
   52.6910  154.0110   26.9550 C   0  0  0  0  0  0  0  0  0  0  0  0
   52.1320  153.8720   28.3010 C   0  0  0  0  0  0  0  0  0  0  0  0
   51.8390  152.7770   28.7750 O   0  0  0  0  0  0  0  0  0  0  0  0
   51.9270  155.1110   29.0870 C   0  0  0  0  0  0  0  0  0  0  0  0
   51.4100  154.9660   30.3620 O   0  0  0  0  0  0  0  0  0  0  0  0
   50.8710  158.0390   29.6820 C   0  0  0  0  0  0  0  0  0  0  0  0
   50.7260  159.2830   30.3240 C   0  0  0  0  0  0  0  0  0  0  0  0
   49.4760  159.7430   30.7990 N   0  0  0  0  0  0  0  0  0  0  0  0
   49.4620  159.9010   32.2630 C   0  0  0  0  0  0  0  0  0  0  0  0
   48.1730  160.6130   32.6740 C   0  0  0  0  0  0  0  0  0  0  0  0
   46.9410  159.8710   32.1560 C   0  0  0  0  0  0  0  0  0  0  0  0
   47.0390  159.6380   30.6480 C   0  0  0  0  0  0  0  0  0  0  0  0
   48.3520  158.9460   30.2810 C   0  0  0  0  0  0  0  0  0  0  0  0
   51.7676  161.2883   32.2726 H   0  0  0  0  0  0  0  0  0  0  0  0
   52.6055  162.0640   30.8859 H   0  0  0  0  0  0  0  0  0  0  0  0
   50.8152  161.9180   30.8859 H   0  0  0  0  0  0  0  0  0  0  0  0
   53.9989  160.2837   30.1712 H   0  0  0  0  0  0  0  0  0  0  0  0
   54.2189  158.0819   29.0420 H   0  0  0  0  0  0  0  0  0  0  0  0
   53.7860  156.4762   24.8674 H   0  0  0  0  0  0  0  0  0  0  0  0
   54.1822  154.4974   23.3983 H   0  0  0  0  0  0  0  0  0  0  0  0
   53.6242  152.2042   24.2125 H   0  0  0  0  0  0  0  0  0  0  0  0
   53.2420  150.9320   26.3320 H   0  0  0  0  0  0  0  0  0  0  0  0
   50.4980  154.7890   30.4800 H   0  0  0  0  0  0  0  0  0  0  0  0
   49.9839  157.4057   29.5340 H   0  0  0  0  0  0  0  0  0  0  0  0
   49.5054  158.9114   32.7413 H   0  0  0  0  0  0  0  0  0  0  0  0
   50.3321  160.4940   32.5813 H   0  0  0  0  0  0  0  0  0  0  0  0
   48.1258  160.6638   33.7718 H   0  0  0  0  0  0  0  0  0  0  0  0
   48.1794  161.6230   32.2384 H   0  0  0  0  0  0  0  0  0  0  0  0
   46.8645  158.8996   32.6664 H   0  0  0  0  0  0  0  0  0  0  0  0
   46.0502  160.4832   32.3601 H   0  0  0  0  0  0  0  0  0  0  0  0
   46.1980  159.0058   30.3270 H   0  0  0  0  0  0  0  0  0  0  0  0
   47.0054  160.6138   30.1413 H   0  0  0  0  0  0  0  0  0  0  0  0
   48.3763  157.9409   30.7273 H   0  0  0  0  0  0  0  0  0  0  0  0
   48.4322  158.8580   29.1875 H   0  0  0  0  0  0  0  0  0  0  0  0
  1  2  1  0
  2  3  2  0
  3  4  1  0
  4  5  2  0
  5  6  1  0
  6  7  1  0
  7  8  1  0
  8  9  2  0
  9 10  1  0
 10 11  2  0
 11 12  1  0
 12 13  1  0
 12 14  2  0
 14 15  1  0
 15 16  2  0
 15 17  1  0
 17 18  1  0
  5 19  1  0
 19 20  2  0
 20 21  1  0
 21 22  1  0
 22 23  1  0
 23 24  1  0
 24 25  1  0
 25 26  1  0
 20  2  1  0
 26 21  1  0
 17  6  2  0
 14  8  1  0
  1 27  1  0
  1 28  1  0
  1 29  1  0
  3 30  1  0
  4 31  1  0
  9 32  1  0
 10 33  1  0
 11 34  1  0
 13 35  1  0
 18 36  1  0
 19 37  1  0
 22 38  1  0
 22 39  1  0
 23 40  1  0
 23 41  1  0
 24 42  1  0
 24 43  1  0
 25 44  1  0
 25 45  1  0
 26 46  1  0
 26 47  1  0
M  END
>  <meeko>  (2) 
{"is_sidechain": [false], "free_energy": -10.302, "intermolecular_energy": -11.155, "internal_energy": -0.03}

$$$$
cand_006_out
     RDKit          3D

 47 50  0  0  0  0  0  0  0  0999 V2000
   53.2590  152.6080   27.3230 C   0  0  0  0  0  0  0  0  0  0  0  0
   52.6530  153.8490   27.9220 C   0  0  0  0  0  0  0  0  0  0  0  0
   51.8170  153.7430   29.0420 C   0  0  0  0  0  0  0  0  0  0  0  0
   51.2470  154.8800   29.6150 C   0  0  0  0  0  0  0  0  0  0  0  0
   51.5040  156.1510   29.0870 C   0  0  0  0  0  0  0  0  0  0  0  0
   50.8710  157.3420   29.6940 C   0  0  0  0  0  0  0  0  0  0  0  0
   51.7810  158.3560   29.9710 O   0  0  0  0  0  0  0  0  0  0  0  0
   51.3260  159.5200   30.5350 C   0  0  0  0  0  0  0  0  0  0  0  0
   52.2770  160.5040   30.8100 C   0  0  0  0  0  0  0  0  0  0  0  0
   51.8810  161.7140   31.3850 C   0  0  0  0  0  0  0  0  0  0  0  0
   50.5360  161.9390   31.6820 C   0  0  0  0  0  0  0  0  0  0  0  0
   49.5890  160.9570   31.4070 C   0  0  0  0  0  0  0  0  0  0  0  0
   48.2900  161.2440   31.7230 O   0  0  0  0  0  0  0  0  0  0  0  0
   49.9870  159.7450   30.8340 C   0  0  0  0  0  0  0  0  0  0  0  0
   49.0240  158.6860   30.5280 C   0  0  0  0  0  0  0  0  0  0  0  0
   47.8220  158.8120   30.7540 O   0  0  0  0  0  0  0  0  0  0  0  0
   49.5490  157.4360   29.9280 C   0  0  0  0  0  0  0  0  0  0  0  0
   48.6280  156.4480   29.6320 O   0  0  0  0  0  0  0  0  0  0  0  0
   52.3320  156.2520   27.9600 C   0  0  0  0  0  0  0  0  0  0  0  0
   52.9180  155.1170   27.3690 C   0  0  0  0  0  0  0  0  0  0  0  0
   53.7640  155.2100   26.2400 N   0  0  0  0  0  0  0  0  0  0  0  0
   53.8110  156.5760   25.6920 C   0  0  0  0  0  0  0  0  0  0  0  0
   54.9120  156.6510   24.6330 C   0  0  0  0  0  0  0  0  0  0  0  0
   54.7060  155.5940   23.5480 C   0  0  0  0  0  0  0  0  0  0  0  0
   54.5630  154.2010   24.1620 C   0  0  0  0  0  0  0  0  0  0  0  0
   53.4700  154.1800   25.2310 C   0  0  0  0  0  0  0  0  0  0  0  0
   53.5877  151.9349   28.1286 H   0  0  0  0  0  0  0  0  0  0  0  0
   52.5090  152.0970   26.7014 H   0  0  0  0  0  0  0  0  0  0  0  0
   54.1231  152.8852   26.7014 H   0  0  0  0  0  0  0  0  0  0  0  0
   51.6082  152.7530   29.4736 H   0  0  0  0  0  0  0  0  0  0  0  0
   50.5890  154.7770   30.4905 H   0  0  0  0  0  0  0  0  0  0  0  0
   53.3368  160.3269   30.5743 H   0  0  0  0  0  0  0  0  0  0  0  0
   52.6296  162.4898   31.6038 H   0  0  0  0  0  0  0  0  0  0  0  0
   50.2245  162.8925   32.1334 H   0  0  0  0  0  0  0  0  0  0  0  0
   48.0350  161.3320   32.6190 H   0  0  0  0  0  0  0  0  0  0  0  0
   47.7750  156.4710   30.0190 H   0  0  0  0  0  0  0  0  0  0  0  0
   52.5286  157.2437   27.5266 H   0  0  0  0  0  0  0  0  0  0  0  0
   52.8418  156.8231   25.2343 H   0  0  0  0  0  0  0  0  0  0  0  0
   54.0227  157.2928   26.4991 H   0  0  0  0  0  0  0  0  0  0  0  0
   54.8974  157.6486   24.1698 H   0  0  0  0  0  0  0  0  0  0  0  0
   55.8798  156.4654   25.1219 H   0  0  0  0  0  0  0  0  0  0  0  0
   53.7940  155.8329   22.9812 H   0  0  0  0  0  0  0  0  0  0  0  0
   55.5832  155.5967   22.8843 H   0  0  0  0  0  0  0  0  0  0  0  0
   54.3039  153.4838   23.3692 H   0  0  0  0  0  0  0  0  0  0  0  0
   55.5183  153.9275   24.6338 H   0  0  0  0  0  0  0  0  0  0  0  0
   52.4953  154.3879   24.7655 H   0  0  0  0  0  0  0  0  0  0  0  0
   53.4387  153.1902   25.7098 H   0  0  0  0  0  0  0  0  0  0  0  0
  1  2  1  0
  2  3  2  0
  3  4  1  0
  4  5  2  0
  5  6  1  0
  6  7  1  0
  7  8  1  0
  8  9  2  0
  9 10  1  0
 10 11  2  0
 11 12  1  0
 12 13  1  0
 12 14  2  0
 14 15  1  0
 15 16  2  0
 15 17  1  0
 17 18  1  0
  5 19  1  0
 19 20  2  0
 20 21  1  0
 21 22  1  0
 22 23  1  0
 23 24  1  0
 24 25  1  0
 25 26  1  0
 20  2  1  0
 26 21  1  0
 17  6  2  0
 14  8  1  0
  1 27  1  0
  1 28  1  0
  1 29  1  0
  3 30  1  0
  4 31  1  0
  9 32  1  0
 10 33  1  0
 11 34  1  0
 13 35  1  0
 18 36  1  0
 19 37  1  0
 22 38  1  0
 22 39  1  0
 23 40  1  0
 23 41  1  0
 24 42  1  0
 24 43  1  0
 25 44  1  0
 25 45  1  0
 26 46  1  0
 26 47  1  0
M  END
>  <meeko>  (3) 
{"is_sidechain": [false], "free_energy": -8.978, "intermolecular_energy": -10.269, "internal_energy": 0.64}

$$$$
cand_006_out
     RDKit          3D

 47 50  0  0  0  0  0  0  0  0999 V2000
   48.6700  160.0640   31.5550 C   0  0  0  0  0  0  0  0  0  0  0  0
   49.4870  159.0670   30.7790 C   0  0  0  0  0  0  0  0  0  0  0  0
   48.9410  157.8150   30.4640 C   0  0  0  0  0  0  0  0  0  0  0  0
   49.6800  156.8770   29.7430 C   0  0  0  0  0  0  0  0  0  0  0  0
   50.9800  157.1700   29.3130 C   0  0  0  0  0  0  0  0  0  0  0  0
   51.7560  156.1530   28.5710 C   0  0  0  0  0  0  0  0  0  0  0  0
   52.2660  156.6330   27.3700 O   0  0  0  0  0  0  0  0  0  0  0  0
   53.0090  155.7920   26.5810 C   0  0  0  0  0  0  0  0  0  0  0  0
   53.4870  156.3120   25.3770 C   0  0  0  0  0  0  0  0  0  0  0  0
   54.2510  155.5090   24.5270 C   0  0  0  0  0  0  0  0  0  0  0  0
   54.5360  154.1890   24.8810 C   0  0  0  0  0  0  0  0  0  0  0  0
   54.0580  153.6730   26.0820 C   0  0  0  0  0  0  0  0  0  0  0  0
   54.3760  152.3730   26.3660 O   0  0  0  0  0  0  0  0  0  0  0  0
   53.2920  154.4770   26.9320 C   0  0  0  0  0  0  0  0  0  0  0  0
   52.7710  153.9740   28.2040 C   0  0  0  0  0  0  0  0  0  0  0  0
   52.9850  152.8260   28.5880 O   0  0  0  0  0  0  0  0  0  0  0  0
   51.9640  154.9040   29.0280 C   0  0  0  0  0  0  0  0  0  0  0  0
   51.4870  154.4210   30.2330 O   0  0  0  0  0  0  0  0  0  0  0  0
   51.5270  158.4190   29.6400 C   0  0  0  0  0  0  0  0  0  0  0  0
   50.7970  159.3790   30.3650 C   0  0  0  0  0  0  0  0  0  0  0  0
   51.3350  160.6460   30.6880 N   0  0  0  0  0  0  0  0  0  0  0  0
   52.7570  160.7560   30.3210 C   0  0  0  0  0  0  0  0  0  0  0  0
   53.2030  162.2090   30.4820 C   0  0  0  0  0  0  0  0  0  0  0  0
   52.9250  162.7190   31.8960 C   0  0  0  0  0  0  0  0  0  0  0  0
   51.4610  162.4980   32.2770 C   0  0  0  0  0  0  0  0  0  0  0  0
   51.0530  161.0380   32.0780 C   0  0  0  0  0  0  0  0  0  0  0  0
   48.8099  159.8932   32.6326 H   0  0  0  0  0  0  0  0  0  0  0  0
   48.9961  161.0831   31.2999 H   0  0  0  0  0  0  0  0  0  0  0  0
   47.6067  159.9446   31.2999 H   0  0  0  0  0  0  0  0  0  0  0  0
   47.9191  157.5696   30.7888 H   0  0  0  0  0  0  0  0  0  0  0  0
   49.2371  155.8974   29.5099 H   0  0  0  0  0  0  0  0  0  0  0  0
   53.2625  157.3521   25.0982 H   0  0  0  0  0  0  0  0  0  0  0  0
   54.6285  155.9171   23.5778 H   0  0  0  0  0  0  0  0  0  0  0  0
   55.1379  153.5572   24.2112 H   0  0  0  0  0  0  0  0  0  0  0  0
   54.2040  151.7010   25.7380 H   0  0  0  0  0  0  0  0  0  0  0  0
   50.5640  154.3340   30.3710 H   0  0  0  0  0  0  0  0  0  0  0  0
   52.5532  158.6545   29.3216 H   0  0  0  0  0  0  0  0  0  0  0  0
   53.3583  160.1109   30.9785 H   0  0  0  0  0  0  0  0  0  0  0  0
   52.8964  160.4386   29.2770 H   0  0  0  0  0  0  0  0  0  0  0  0
   54.2824  162.2773   30.2817 H   0  0  0  0  0  0  0  0  0  0  0  0
   52.6366  162.8281   29.7707 H   0  0  0  0  0  0  0  0  0  0  0  0
   53.5677  162.1788   32.6067 H   0  0  0  0  0  0  0  0  0  0  0  0
   53.1381  163.7977   31.9291 H   0  0  0  0  0  0  0  0  0  0  0  0
   51.3202  162.7692   33.3337 H   0  0  0  0  0  0  0  0  0  0  0  0
   50.8332  163.1269   31.6286 H   0  0  0  0  0  0  0  0  0  0  0  0
   51.6263  160.3981   32.7650 H   0  0  0  0  0  0  0  0  0  0  0  0
   49.9792  160.9209   32.2862 H   0  0  0  0  0  0  0  0  0  0  0  0
  1  2  1  0
  2  3  2  0
  3  4  1  0
  4  5  2  0
  5  6  1  0
  6  7  1  0
  7  8  1  0
  8  9  2  0
  9 10  1  0
 10 11  2  0
 11 12  1  0
 12 13  1  0
 12 14  2  0
 14 15  1  0
 15 16  2  0
 15 17  1  0
 17 18  1  0
  5 19  1  0
 19 20  2  0
 20 21  1  0
 21 22  1  0
 22 23  1  0
 23 24  1  0
 24 25  1  0
 25 26  1  0
 20  2  1  0
 26 21  1  0
 17  6  2  0
 14  8  1  0
  1 27  1  0
  1 28  1  0
  1 29  1  0
  3 30  1  0
  4 31  1  0
  9 32  1  0
 10 33  1  0
 11 34  1  0
 13 35  1  0
 18 36  1  0
 19 37  1  0
 22 38  1  0
 22 39  1  0
 23 40  1  0
 23 41  1  0
 24 42  1  0
 24 43  1  0
 25 44  1  0
 25 45  1  0
 26 46  1  0
 26 47  1  0
M  END
>  <meeko>  (4) 
{"is_sidechain": [false], "free_energy": -8.855, "intermolecular_energy": -10.089, "internal_energy": 0.605}

$$$$
cand_006_out
     RDKit          3D

 47 50  0  0  0  0  0  0  0  0999 V2000
   55.1050  153.9620   24.1110 C   0  0  0  0  0  0  0  0  0  0  0  0
   54.2500  154.6070   25.1670 C   0  0  0  0  0  0  0  0  0  0  0  0
   54.1770  156.0040   25.2440 C   0  0  0  0  0  0  0  0  0  0  0  0
   53.3880  156.6240   26.2140 C   0  0  0  0  0  0  0  0  0  0  0  0
   52.6480  155.8620   27.1260 C   0  0  0  0  0  0  0  0  0  0  0  0
   51.8370  156.5370   28.1620 C   0  0  0  0  0  0  0  0  0  0  0  0
   52.3560  157.7730   28.5340 O   0  0  0  0  0  0  0  0  0  0  0  0
   51.7000  158.5090   29.4870 C   0  0  0  0  0  0  0  0  0  0  0  0
   52.2650  159.7350   29.8400 C   0  0  0  0  0  0  0  0  0  0  0  0
   51.6480  160.5350   30.8040 C   0  0  0  0  0  0  0  0  0  0  0  0
   50.4660  160.1080   31.4140 C   0  0  0  0  0  0  0  0  0  0  0  0
   49.9040  158.8840   31.0610 C   0  0  0  0  0  0  0  0  0  0  0  0
   48.7470  158.5280   31.6970 O   0  0  0  0  0  0  0  0  0  0  0  0
   50.5240  158.0840   30.0960 C   0  0  0  0  0  0  0  0  0  0  0  0
   49.9670  156.7910   29.6950 C   0  0  0  0  0  0  0  0  0  0  0  0
   48.9280  156.3500   30.1810 O   0  0  0  0  0  0  0  0  0  0  0  0
   50.7050  156.0160   28.6700 C   0  0  0  0  0  0  0  0  0  0  0  0
   50.1620  154.8020   28.2900 O   0  0  0  0  0  0  0  0  0  0  0  0
   52.7320  154.4640   27.0530 C   0  0  0  0  0  0  0  0  0  0  0  0
   53.5210  153.8210   26.0810 C   0  0  0  0  0  0  0  0  0  0  0  0
   53.6010  152.4120   25.9910 N   0  0  0  0  0  0  0  0  0  0  0  0
   54.2350  151.9700   24.7370 C   0  0  0  0  0  0  0  0  0  0  0  0
   54.4970  150.4660   24.8140 C   0  0  0  0  0  0  0  0  0  0  0  0
   53.2110  149.6970   25.1200 C   0  0  0  0  0  0  0  0  0  0  0  0
   52.5300  150.2490   26.3720 C   0  0  0  0  0  0  0  0  0  0  0  0
   52.3110  151.7580   26.2610 C   0  0  0  0  0  0  0  0  0  0  0  0
   55.8947  153.3663   24.5921 H   0  0  0  0  0  0  0  0  0  0  0  0
   54.4819  153.3070   23.4843 H   0  0  0  0  0  0  0  0  0  0  0  0
   55.5637  154.7410   23.4843 H   0  0  0  0  0  0  0  0  0  0  0  0
   54.7476  156.6187   24.5323 H   0  0  0  0  0  0  0  0  0  0  0  0
   53.3472  157.7222   26.2624 H   0  0  0  0  0  0  0  0  0  0  0  0
   53.1956  160.0710   29.3593 H   0  0  0  0  0  0  0  0  0  0  0  0
   52.0928  161.5016   31.0831 H   0  0  0  0  0  0  0  0  0  0  0  0
   49.9795  160.7385   32.1728 H   0  0  0  0  0  0  0  0  0  0  0  0
   48.0310  158.1780   31.2050 H   0  0  0  0  0  0  0  0  0  0  0  0
   49.3590  154.7790   27.8090 H   0  0  0  0  0  0  0  0  0  0  0  0
   52.1669  153.8546   27.7737 H   0  0  0  0  0  0  0  0  0  0  0  0
   53.5665  152.1849   23.8903 H   0  0  0  0  0  0  0  0  0  0  0  0
   55.1850  152.5054   24.5924 H   0  0  0  0  0  0  0  0  0  0  0  0
   54.9004  150.1220   23.8502 H   0  0  0  0  0  0  0  0  0  0  0  0
   55.2170  150.2783   25.6242 H   0  0  0  0  0  0  0  0  0  0  0  0
   52.5241  149.7897   24.2659 H   0  0  0  0  0  0  0  0  0  0  0  0
   53.4661  148.6414   25.2952 H   0  0  0  0  0  0  0  0  0  0  0  0
   51.5563  149.7533   26.4992 H   0  0  0  0  0  0  0  0  0  0  0  0
   53.1800  150.0536   27.2376 H   0  0  0  0  0  0  0  0  0  0  0  0
   51.6114  151.9694   25.4389 H   0  0  0  0  0  0  0  0  0  0  0  0
   51.8900  152.1420   27.2019 H   0  0  0  0  0  0  0  0  0  0  0  0
  1  2  1  0
  2  3  2  0
  3  4  1  0
  4  5  2  0
  5  6  1  0
  6  7  1  0
  7  8  1  0
  8  9  2  0
  9 10  1  0
 10 11  2  0
 11 12  1  0
 12 13  1  0
 12 14  2  0
 14 15  1  0
 15 16  2  0
 15 17  1  0
 17 18  1  0
  5 19  1  0
 19 20  2  0
 20 21  1  0
 21 22  1  0
 22 23  1  0
 23 24  1  0
 24 25  1  0
 25 26  1  0
 20  2  1  0
 26 21  1  0
 17  6  2  0
 14  8  1  0
  1 27  1  0
  1 28  1  0
  1 29  1  0
  3 30  1  0
  4 31  1  0
  9 32  1  0
 10 33  1  0
 11 34  1  0
 13 35  1  0
 18 36  1  0
 19 37  1  0
 22 38  1  0
 22 39  1  0
 23 40  1  0
 23 41  1  0
 24 42  1  0
 24 43  1  0
 25 44  1  0
 25 45  1  0
 26 46  1  0
 26 47  1  0
M  END
>  <meeko>  (5) 
{"is_sidechain": [false], "free_energy": -7.733, "intermolecular_energy": -9.831, "internal_energy": 1.665}

$$$$
