cand_038_out
     RDKit          3D

 47 49  0  0  0  0  0  0  0  0999 V2000
   51.9140  161.0920   31.7950 C   0  0  0  0  0  0  0  0  0  0  0  0
   51.4780  160.8080   30.3610 C   0  0  0  0  0  0  0  0  0  0  0  0
   50.7830  159.4690   30.2240 C   0  0  0  0  0  0  0  0  0  0  0  0
   51.5280  158.4990   29.5000 C   0  0  0  0  0  0  0  0  0  0  0  0
   51.0680  157.1980   29.2780 C   0  0  0  0  0  0  0  0  0  0  0  0
   51.8460  156.2080   28.5050 C   0  0  0  0  0  0  0  0  0  0  0  0
   52.3480  156.7250   27.3150 O   0  0  0  0  0  0  0  0  0  0  0  0
   53.0900  155.9120   26.5000 C   0  0  0  0  0  0  0  0  0  0  0  0
   53.5860  156.4760   25.3230 C   0  0  0  0  0  0  0  0  0  0  0  0
   54.3480  155.7020   24.4460 C   0  0  0  0  0  0  0  0  0  0  0  0
   54.6140  154.3630   24.7440 C   0  0  0  0  0  0  0  0  0  0  0  0
   54.1180  153.8020   25.9180 C   0  0  0  0  0  0  0  0  0  0  0  0
   54.4140  152.4870   26.1470 O   0  0  0  0  0  0  0  0  0  0  0  0
   53.3550  154.5780   26.7950 C   0  0  0  0  0  0  0  0  0  0  0  0
   52.8150  154.0280   28.0400 C   0  0  0  0  0  0  0  0  0  0  0  0
   52.9990  152.8580   28.3680 O   0  0  0  0  0  0  0  0  0  0  0  0
   52.0270  154.9350   28.9050 C   0  0  0  0  0  0  0  0  0  0  0  0
   51.5100  154.4010   30.0710 O   0  0  0  0  0  0  0  0  0  0  0  0
   49.8140  156.8690   29.7790 C   0  0  0  0  0  0  0  0  0  0  0  0
   49.0590  157.8080   30.4920 C   0  0  0  0  0  0  0  0  0  0  0  0
   49.5070  159.1270   30.7480 C   0  0  0  0  0  0  0  0  0  0  0  0
   48.5780  160.0900   31.5390 C   0  0  0  0  0  0  0  0  0  0  0  0
   47.1060  159.5910   31.6440 C   0  0  0  0  0  0  0  0  0  0  0  0
   49.0320  160.2690   33.0050 C   0  0  0  0  0  0  0  0  0  0  0  0
   48.5000  161.4530   30.8170 C   0  0  0  0  0  0  0  0  0  0  0  0
   51.2019  160.6282   32.4934 H   0  0  0  0  0  0  0  0  0  0  0  0
   52.9174  160.6737   31.9628 H   0  0  0  0  0  0  0  0  0  0  0  0
   51.9370  162.1789   31.9628 H   0  0  0  0  0  0  0  0  0  0  0  0
   50.7860  161.6000   30.0386 H   0  0  0  0  0  0  0  0  0  0  0  0
   52.3815  160.7830   29.7341 H   0  0  0  0  0  0  0  0  0  0  0  0
   52.5105  158.7850   29.0964 H   0  0  0  0  0  0  0  0  0  0  0  0
   53.3764  157.5297   25.0869 H   0  0  0  0  0  0  0  0  0  0  0  0
   54.7395  156.1468   23.5192 H   0  0  0  0  0  0  0  0  0  0  0  0
   55.2141  153.7533   24.0525 H   0  0  0  0  0  0  0  0  0  0  0  0
   54.2010  151.8390   25.5050 H   0  0  0  0  0  0  0  0  0  0  0  0
   50.6070  154.1520   30.1120 H   0  0  0  0  0  0  0  0  0  0  0  0
   49.4101  155.8593   29.6134 H   0  0  0  0  0  0  0  0  0  0  0  0
   48.0712  157.5072   30.8713 H   0  0  0  0  0  0  0  0  0  0  0  0
   46.8257  159.4960   32.7034 H   0  0  0  0  0  0  0  0  0  0  0  0
   46.4381  160.3129   31.1513 H   0  0  0  0  0  0  0  0  0  0  0  0
   47.0148  158.6117   31.1513 H   0  0  0  0  0  0  0  0  0  0  0  0
   48.2243  159.9506   33.6805 H   0  0  0  0  0  0  0  0  0  0  0  0
   49.9269  159.6564   33.1891 H   0  0  0  0  0  0  0  0  0  0  0  0
   49.2680  161.3275   33.1891 H   0  0  0  0  0  0  0  0  0  0  0  0
   48.4538  162.2606   31.5624 H   0  0  0  0  0  0  0  0  0  0  0  0
   49.3920  161.5859   30.1872 H   0  0  0  0  0  0  0  0  0  0  0  0
   47.5987  161.4833   30.1872 H   0  0  0  0  0  0  0  0  0  0  0  0
  1  2  1  0
  2  3  1  0
  3  4  2  0
  4  5  1  0
  5  6  1  0
  6  7  1  0
  7  8  1  0
  8  9  2  0
  9 10  1  0
 10 11  2  0
 11 12  1  0
 12 13  1  0
 12 14  2  0
 14 15  1  0
 15 16  2  0
 15 17  1  0
 17 18  1  0
  5 19  2  0
 19 20  1  0
 20 21  2  0
 21 22  1  0
 22 23  1  0
 22 24  1  0
 22 25  1  0
 21  3  1  0
 17  6  2  0
 14  8  1  0
  1 26  1  0
  1 27  1  0
  1 28  1  0
  2 29  1  0
  2 30  1  0
  4 31  1  0
  9 32  1  0
 10 33  1  0
 11 34  1  0
 13 35  1  0
 18 36  1  0
 19 37  1  0
 20 38  1  0
 23 39  1  0
 23 40  1  0
 23 41  1  0
 24 42  1  0
 24 43  1  0
 24 44  1  0
 25 45  1  0
 25 46  1  0
 25 47  1  0
M  END
>  <meeko>  (1) 
{"is_sidechain": [false], "free_energy": -11.311, "intermolecular_energy": -13.956, "internal_energy": 0.202}

$$$$
cand_038_out
     RDKit          3D

 47 49  0  0  0  0  0  0  0  0999 V2000
   47.2890  159.3970   30.6500 C   0  0  0  0  0  0  0  0  0  0  0  0
   48.3050  158.5190   31.3730 C   0  0  0  0  0  0  0  0  0  0  0  0
   49.7100  158.7000   30.8360 C   0  0  0  0  0  0  0  0  0  0  0  0
   50.1910  157.5970   30.0800 C   0  0  0  0  0  0  0  0  0  0  0  0
   51.4560  157.5750   29.4870 C   0  0  0  0  0  0  0  0  0  0  0  0
   51.9490  156.4110   28.7220 C   0  0  0  0  0  0  0  0  0  0  0  0
   52.4770  156.7620   27.4840 O   0  0  0  0  0  0  0  0  0  0  0  0
   52.9720  155.7760   26.6710 C   0  0  0  0  0  0  0  0  0  0  0  0
   53.5060  156.1740   25.4440 C   0  0  0  0  0  0  0  0  0  0  0  0
   54.0250  155.2200   24.5670 C   0  0  0  0  0  0  0  0  0  0  0  0
   54.0110  153.8670   24.9160 C   0  0  0  0  0  0  0  0  0  0  0  0
   53.4770  153.4720   26.1400 C   0  0  0  0  0  0  0  0  0  0  0  0
   53.4940  152.1330   26.4170 O   0  0  0  0  0  0  0  0  0  0  0  0
   52.9580  154.4280   27.0170 C   0  0  0  0  0  0  0  0  0  0  0  0
   52.3890  154.0560   28.3130 C   0  0  0  0  0  0  0  0  0  0  0  0
   52.3330  152.8860   28.6880 O   0  0  0  0  0  0  0  0  0  0  0  0
   51.8720  155.1450   29.1730 C   0  0  0  0  0  0  0  0  0  0  0  0
   51.3240  154.7800   30.3900 O   0  0  0  0  0  0  0  0  0  0  0  0
   52.2700  158.6860   29.6760 C   0  0  0  0  0  0  0  0  0  0  0  0
   51.8200  159.7850   30.4200 C   0  0  0  0  0  0  0  0  0  0  0  0
   50.5370  159.8410   31.0170 C   0  0  0  0  0  0  0  0  0  0  0  0
   50.1500  161.1060   31.8330 C   0  0  0  0  0  0  0  0  0  0  0  0
   48.9550  161.8990   31.2270 C   0  0  0  0  0  0  0  0  0  0  0  0
   49.6960  160.7590   33.2690 C   0  0  0  0  0  0  0  0  0  0  0  0
   51.3330  162.0980   31.8550 C   0  0  0  0  0  0  0  0  0  0  0  0
   46.6727  159.9296   31.3893 H   0  0  0  0  0  0  0  0  0  0  0  0
   47.8180  160.1269   30.0196 H   0  0  0  0  0  0  0  0  0  0  0  0
   46.6435  158.7678   30.0196 H   0  0  0  0  0  0  0  0  0  0  0  0
   48.2991  158.7787   32.4419 H   0  0  0  0  0  0  0  0  0  0  0  0
   48.0167  157.4698   31.2117 H   0  0  0  0  0  0  0  0  0  0  0  0
   49.5378  156.7207   29.9560 H   0  0  0  0  0  0  0  0  0  0  0  0
   53.5178  157.2389   25.1684 H   0  0  0  0  0  0  0  0  0  0  0  0
   54.4455  155.5337   23.6001 H   0  0  0  0  0  0  0  0  0  0  0  0
   54.4210  153.1154   24.2253 H   0  0  0  0  0  0  0  0  0  0  0  0
   54.1230  151.5760   26.0030 H   0  0  0  0  0  0  0  0  0  0  0  0
   50.4350  154.4880   30.4340 H   0  0  0  0  0  0  0  0  0  0  0  0
   53.2784  158.7026   29.2367 H   0  0  0  0  0  0  0  0  0  0  0  0
   52.4949  160.6444   30.5462 H   0  0  0  0  0  0  0  0  0  0  0  0
   48.3372  162.3089   32.0396 H   0  0  0  0  0  0  0  0  0  0  0  0
   49.3384  162.7225   30.6066 H   0  0  0  0  0  0  0  0  0  0  0  0
   48.3451  161.2258   30.6066 H   0  0  0  0  0  0  0  0  0  0  0  0
   50.3539  161.2618   33.9931 H   0  0  0  0  0  0  0  0  0  0  0  0
   48.6601  161.0977   33.4180 H   0  0  0  0  0  0  0  0  0  0  0  0
   49.7509  159.6705   33.4180 H   0  0  0  0  0  0  0  0  0  0  0  0
   51.6026  162.3241   32.8972 H   0  0  0  0  0  0  0  0  0  0  0  0
   52.1967  161.6501   31.3417 H   0  0  0  0  0  0  0  0  0  0  0  0
   51.0425  163.0265   31.3417 H   0  0  0  0  0  0  0  0  0  0  0  0
  1  2  1  0
  2  3  1  0
  3  4  2  0
  4  5  1  0
  5  6  1  0
  6  7  1  0
  7  8  1  0
  8  9  2  0
  9 10  1  0
 10 11  2  0
 11 12  1  0
 12 13  1  0
 12 14  2  0
 14 15  1  0
 15 16  2  0
 15 17  1  0
 17 18  1  0
  5 19  2  0
 19 20  1  0
 20 21  2  0
 21 22  1  0
 22 23  1  0
 22 24  1  0
 22 25  1  0
 21  3  1  0
 17  6  2  0
 14  8  1  0
  1 26  1  0
  1 27  1  0
  1 28  1  0
  2 29  1  0
  2 30  1  0
  4 31  1  0
  9 32  1  0
 10 33  1  0
 11 34  1  0
 13 35  1  0
 18 36  1  0
 19 37  1  0
 20 38  1  0
 23 39  1  0
 23 40  1  0
 23 41  1  0
 24 42  1  0
 24 43  1  0
 24 44  1  0
 25 45  1  0
 25 46  1  0
 25 47  1  0
M  END
>  <meeko>  (2) 
{"is_sidechain": [false], "free_energy": -11.206, "intermolecular_energy": -13.811, "internal_energy": 0.186}

$$$$
cand_038_out
     RDKit          3D

 47 49  0  0  0  0  0  0  0  0999 V2000
   52.9190  156.3590   24.9430 C   0  0  0  0  0  0  0  0  0  0  0  0
   53.6400  156.2070   26.2780 C   0  0  0  0  0  0  0  0  0  0  0  0
   52.6850  155.9370   27.4220 C   0  0  0  0  0  0  0  0  0  0  0  0
   52.3020  157.0990   28.1470 C   0  0  0  0  0  0  0  0  0  0  0  0
   51.4170  157.0640   29.2260 C   0  0  0  0  0  0  0  0  0  0  0  0
   51.0460  158.2780   29.9830 C   0  0  0  0  0  0  0  0  0  0  0  0
   49.7310  158.2520   30.4360 O   0  0  0  0  0  0  0  0  0  0  0  0
   49.2570  159.3190   31.1540 C   0  0  0  0  0  0  0  0  0  0  0  0
   47.9370  159.2440   31.6020 C   0  0  0  0  0  0  0  0  0  0  0  0
   47.3890  160.2970   32.3370 C   0  0  0  0  0  0  0  0  0  0  0  0
   48.1610  161.4250   32.6250 C   0  0  0  0  0  0  0  0  0  0  0  0
   49.4780  161.4980   32.1770 C   0  0  0  0  0  0  0  0  0  0  0  0
   50.1760  162.6310   32.4930 O   0  0  0  0  0  0  0  0  0  0  0  0
   50.0240  160.4430   31.4410 C   0  0  0  0  0  0  0  0  0  0  0  0
   51.4040  160.4780   30.9520 C   0  0  0  0  0  0  0  0  0  0  0  0
   52.1430  161.4390   31.1580 O   0  0  0  0  0  0  0  0  0  0  0  0
   51.8900  159.3070   30.1890 C   0  0  0  0  0  0  0  0  0  0  0  0
   53.1910  159.3570   29.7190 O   0  0  0  0  0  0  0  0  0  0  0  0
   50.9170  155.8230   29.6040 C   0  0  0  0  0  0  0  0  0  0  0  0
   51.2820  154.6630   28.9090 C   0  0  0  0  0  0  0  0  0  0  0  0
   52.1630  154.6710   27.7990 C   0  0  0  0  0  0  0  0  0  0  0  0
   52.5090  153.3210   27.1130 C   0  0  0  0  0  0  0  0  0  0  0  0
   51.9190  153.1800   25.6780 C   0  0  0  0  0  0  0  0  0  0  0  0
   54.0310  153.1330   26.9250 C   0  0  0  0  0  0  0  0  0  0  0  0
   51.9070  152.1510   27.9220 C   0  0  0  0  0  0  0  0  0  0  0  0
   51.8572  156.5828   25.1231 H   0  0  0  0  0  0  0  0  0  0  0  0
   53.3751  157.1807   24.3714 H   0  0  0  0  0  0  0  0  0  0  0  0
   53.0046  155.4231   24.3714 H   0  0  0  0  0  0  0  0  0  0  0  0
   54.3483  155.3686   26.2036 H   0  0  0  0  0  0  0  0  0  0  0  0
   54.1577  157.1542   26.4895 H   0  0  0  0  0  0  0  0  0  0  0  0
   52.7222  158.0693   27.8438 H   0  0  0  0  0  0  0  0  0  0  0  0
   47.3289  158.3557   31.3760 H   0  0  0  0  0  0  0  0  0  0  0  0
   46.3487  160.2383   32.6895 H   0  0  0  0  0  0  0  0  0  0  0  0
   47.7296  162.2544   33.2047 H   0  0  0  0  0  0  0  0  0  0  0  0
   49.7250  163.3820   32.8250 H   0  0  0  0  0  0  0  0  0  0  0  0
   53.6540  160.1710   29.7130 H   0  0  0  0  0  0  0  0  0  0  0  0
   50.2274  155.7514   30.4580 H   0  0  0  0  0  0  0  0  0  0  0  0
   50.8652  153.7005   29.2404 H   0  0  0  0  0  0  0  0  0  0  0  0
   50.8511  152.9248   25.7441 H   0  0  0  0  0  0  0  0  0  0  0  0
   52.0359  154.1314   25.1384 H   0  0  0  0  0  0  0  0  0  0  0  0
   52.4535  152.3843   25.1384 H   0  0  0  0  0  0  0  0  0  0  0  0
   54.5174  153.0729   27.9098 H   0  0  0  0  0  0  0  0  0  0  0  0
   54.2195  152.2047   26.3657 H   0  0  0  0  0  0  0  0  0  0  0  0
   54.4397  153.9875   26.3657 H   0  0  0  0  0  0  0  0  0  0  0  0
   52.0126  152.3563   28.9975 H   0  0  0  0  0  0  0  0  0  0  0  0
   50.8412  152.0427   27.6723 H   0  0  0  0  0  0  0  0  0  0  0  0
   52.4385  151.2208   27.6723 H   0  0  0  0  0  0  0  0  0  0  0  0
  1  2  1  0
  2  3  1  0
  3  4  2  0
  4  5  1  0
  5  6  1  0
  6  7  1  0
  7  8  1  0
  8  9  2  0
  9 10  1  0
 10 11  2  0
 11 12  1  0
 12 13  1  0
 12 14  2  0
 14 15  1  0
 15 16  2  0
 15 17  1  0
 17 18  1  0
  5 19  2  0
 19 20  1  0
 20 21  2  0
 21 22  1  0
 22 23  1  0
 22 24  1  0
 22 25  1  0
 21  3  1  0
 17  6  2  0
 14  8  1  0
  1 26  1  0
  1 27  1  0
  1 28  1  0
  2 29  1  0
  2 30  1  0
  4 31  1  0
  9 32  1  0
 10 33  1  0
 11 34  1  0
 13 35  1  0
 18 36  1  0
 19 37  1  0
 20 38  1  0
 23 39  1  0
 23 40  1  0
 23 41  1  0
 24 42  1  0
 24 43  1  0
 24 44  1  0
 25 45  1  0
 25 46  1  0
 25 47  1  0
M  END
>  <meeko>  (3) 
{"is_sidechain": [false], "free_energy": -9.867, "intermolecular_energy": -11.953, "internal_energy": -0.019}

$$$$
cand_038_out
     RDKit          3D

 47 49  0  0  0  0  0  0  0  0999 V2000
   54.8580  156.6050   24.9110 C   0  0  0  0  0  0  0  0  0  0  0  0
   53.3790  156.2310   24.9200 C   0  0  0  0  0  0  0  0  0  0  0  0
   52.9090  155.7720   26.2860 C   0  0  0  0  0  0  0  0  0  0  0  0
   52.4490  156.8230   27.1260 C   0  0  0  0  0  0  0  0  0  0  0  0
   51.9600  156.6050   28.4160 C   0  0  0  0  0  0  0  0  0  0  0  0
   51.5060  157.7110   29.2850 C   0  0  0  0  0  0  0  0  0  0  0  0
   50.1620  157.6110   29.6280 O   0  0  0  0  0  0  0  0  0  0  0  0
   49.6100  158.5740   30.4320 C   0  0  0  0  0  0  0  0  0  0  0  0
   48.2620  158.4270   30.7640 C   0  0  0  0  0  0  0  0  0  0  0  0
   47.6370  159.3730   31.5780 C   0  0  0  0  0  0  0  0  0  0  0  0
   48.3600  160.4670   32.0620 C   0  0  0  0  0  0  0  0  0  0  0  0
   49.7040  160.6120   31.7290 C   0  0  0  0  0  0  0  0  0  0  0  0
   50.3510  161.7060   32.2360 O   0  0  0  0  0  0  0  0  0  0  0  0
   50.3280  159.6640   30.9140 C   0  0  0  0  0  0  0  0  0  0  0  0
   51.7400  159.7780   30.5420 C   0  0  0  0  0  0  0  0  0  0  0  0
   52.4390  160.7150   30.9210 O   0  0  0  0  0  0  0  0  0  0  0  0
   52.3090  158.7160   29.6800 C   0  0  0  0  0  0  0  0  0  0  0  0
   53.6390  158.8420   29.3230 O   0  0  0  0  0  0  0  0  0  0  0  0
   51.9520  155.2960   28.8850 C   0  0  0  0  0  0  0  0  0  0  0  0
   52.4030  154.2440   28.0770 C   0  0  0  0  0  0  0  0  0  0  0  0
   52.8870  154.4330   26.7600 C   0  0  0  0  0  0  0  0  0  0  0  0
   53.3770  153.1930   25.9610 C   0  0  0  0  0  0  0  0  0  0  0  0
   52.5270  151.9120   26.2130 C   0  0  0  0  0  0  0  0  0  0  0  0
   53.3000  153.4140   24.4330 C   0  0  0  0  0  0  0  0  0  0  0  0
   54.8130  152.8250   26.3910 C   0  0  0  0  0  0  0  0  0  0  0  0
   55.2194  156.6964   25.9459 H   0  0  0  0  0  0  0  0  0  0  0  0
   55.4307  155.8234   24.3903 H   0  0  0  0  0  0  0  0  0  0  0  0
   54.9903  157.5649   24.3903 H   0  0  0  0  0  0  0  0  0  0  0  0
   52.7901  157.1105   24.6206 H   0  0  0  0  0  0  0  0  0  0  0  0
   53.2393  155.3955   24.2183 H   0  0  0  0  0  0  0  0  0  0  0  0
   52.4796  157.8536   26.7428 H   0  0  0  0  0  0  0  0  0  0  0  0
   47.6926  157.5659   30.3842 H   0  0  0  0  0  0  0  0  0  0  0  0
   46.5746  159.2575   31.8388 H   0  0  0  0  0  0  0  0  0  0  0  0
   47.8680  161.2119   32.7047 H   0  0  0  0  0  0  0  0  0  0  0  0
   51.2860  161.7540   32.2020 H   0  0  0  0  0  0  0  0  0  0  0  0
   53.8750  159.3390   28.5650 H   0  0  0  0  0  0  0  0  0  0  0  0
   51.5877  155.0842   29.9011 H   0  0  0  0  0  0  0  0  0  0  0  0
   52.3800  153.2228   28.4852 H   0  0  0  0  0  0  0  0  0  0  0  0
   52.4197  151.7503   27.2957 H   0  0  0  0  0  0  0  0  0  0  0  0
   51.5322  152.0372   25.7606 H   0  0  0  0  0  0  0  0  0  0  0  0
   53.0289  151.0440   25.7606 H   0  0  0  0  0  0  0  0  0  0  0  0
   52.9445  154.4345   24.2276 H   0  0  0  0  0  0  0  0  0  0  0  0
   54.2985  153.2779   23.9921 H   0  0  0  0  0  0  0  0  0  0  0  0
   52.6022  152.6869   23.9921 H   0  0  0  0  0  0  0  0  0  0  0  0
   54.8742  152.8093   27.4892 H   0  0  0  0  0  0  0  0  0  0  0  0
   55.0711  151.8317   25.9951 H   0  0  0  0  0  0  0  0  0  0  0  0
   55.5170  153.5717   25.9951 H   0  0  0  0  0  0  0  0  0  0  0  0
  1  2  1  0
  2  3  1  0
  3  4  2  0
  4  5  1  0
  5  6  1  0
  6  7  1  0
  7  8  1  0
  8  9  2  0
  9 10  1  0
 10 11  2  0
 11 12  1  0
 12 13  1  0
 12 14  2  0
 14 15  1  0
 15 16  2  0
 15 17  1  0
 17 18  1  0
  5 19  2  0
 19 20  1  0
 20 21  2  0
 21 22  1  0
 22 23  1  0
 22 24  1  0
 22 25  1  0
 21  3  1  0
 17  6  2  0
 14  8  1  0
  1 26  1  0
  1 27  1  0
  1 28  1  0
  2 29  1  0
  2 30  1  0
  4 31  1  0
  9 32  1  0
 10 33  1  0
 11 34  1  0
 13 35  1  0
 18 36  1  0
 19 37  1  0
 20 38  1  0
 23 39  1  0
 23 40  1  0
 23 41  1  0
 24 42  1  0
 24 43  1  0
 24 44  1  0
 25 45  1  0
 25 46  1  0
 25 47  1  0
M  END
>  <meeko>  (4) 
{"is_sidechain": [false], "free_energy": -8.896, "intermolecular_energy": -10.708, "internal_energy": -0.066}

$$$$
cand_038_out
     RDKit          3D

 47 49  0  0  0  0  0  0  0  0999 V2000
   51.9510  153.0940   29.3490 C   0  0  0  0  0  0  0  0  0  0  0  0
   51.5170  153.6730   28.0060 C   0  0  0  0  0  0  0  0  0  0  0  0
   52.0580  155.0700   27.7790 C   0  0  0  0  0  0  0  0  0  0  0  0
   51.5610  156.0420   28.6900 C   0  0  0  0  0  0  0  0  0  0  0  0
   51.9500  157.3830   28.6570 C   0  0  0  0  0  0  0  0  0  0  0  0
   51.4060  158.3850   29.5980 C   0  0  0  0  0  0  0  0  0  0  0  0
   50.0590  158.1880   29.8780 O   0  0  0  0  0  0  0  0  0  0  0  0
   49.4280  159.0470   30.7390 C   0  0  0  0  0  0  0  0  0  0  0  0
   48.0790  158.8040   31.0040 C   0  0  0  0  0  0  0  0  0  0  0  0
   47.3760  159.6430   31.8700 C   0  0  0  0  0  0  0  0  0  0  0  0
   48.0200  160.7260   32.4720 C   0  0  0  0  0  0  0  0  0  0  0  0
   49.3660  160.9680   32.2060 C   0  0  0  0  0  0  0  0  0  0  0  0
   49.9340  162.0460   32.8280 O   0  0  0  0  0  0  0  0  0  0  0  0
   50.0690  160.1270   31.3390 C   0  0  0  0  0  0  0  0  0  0  0  0
   51.4840  160.3450   31.0330 C   0  0  0  0  0  0  0  0  0  0  0  0
   52.1180  161.2800   31.5170 O   0  0  0  0  0  0  0  0  0  0  0  0
   52.1390  159.3920   30.1080 C   0  0  0  0  0  0  0  0  0  0  0  0
   53.4730  159.6160   29.8150 O   0  0  0  0  0  0  0  0  0  0  0  0
   52.8470  157.7650   27.6670 C   0  0  0  0  0  0  0  0  0  0  0  0
   53.3490  156.8270   26.7550 C   0  0  0  0  0  0  0  0  0  0  0  0
   52.9870  155.4580   26.7760 C   0  0  0  0  0  0  0  0  0  0  0  0
   53.5950  154.5100   25.7050 C   0  0  0  0  0  0  0  0  0  0  0  0
   54.7910  155.1330   24.9260 C   0  0  0  0  0  0  0  0  0  0  0  0
   54.1690  153.2170   26.3270 C   0  0  0  0  0  0  0  0  0  0  0  0
   52.5330  154.1800   24.6330 C   0  0  0  0  0  0  0  0  0  0  0  0
   51.5077  153.6854   30.1637 H   0  0  0  0  0  0  0  0  0  0  0  0
   51.6104  152.0509   29.4258 H   0  0  0  0  0  0  0  0  0  0  0  0
   53.0478  153.1282   29.4258 H   0  0  0  0  0  0  0  0  0  0  0  0
   51.8840  153.0169   27.2030 H   0  0  0  0  0  0  0  0  0  0  0  0
   50.4187  153.7338   28.0054 H   0  0  0  0  0  0  0  0  0  0  0  0
   50.8377  155.7235   29.4551 H   0  0  0  0  0  0  0  0  0  0  0  0
   47.5702  157.9515   30.5304 H   0  0  0  0  0  0  0  0  0  0  0  0
   46.3132  159.4509   32.0786 H   0  0  0  0  0  0  0  0  0  0  0  0
   47.4657  161.3867   33.1548 H   0  0  0  0  0  0  0  0  0  0  0  0
   49.4110  162.6060   33.3650 H   0  0  0  0  0  0  0  0  0  0  0  0
   54.1150  158.9720   30.0400 H   0  0  0  0  0  0  0  0  0  0  0  0
   53.1666  158.8153   27.5984 H   0  0  0  0  0  0  0  0  0  0  0  0
   54.0575  157.1701   25.9867 H   0  0  0  0  0  0  0  0  0  0  0  0
   55.5327  155.5193   25.6406 H   0  0  0  0  0  0  0  0  0  0  0  0
   55.2575  154.3633   24.2936 H   0  0  0  0  0  0  0  0  0  0  0  0
   54.4276  155.9564   24.2936 H   0  0  0  0  0  0  0  0  0  0  0  0
   54.1358  153.2917   27.4240 H   0  0  0  0  0  0  0  0  0  0  0  0
   53.5690  152.3550   25.9999 H   0  0  0  0  0  0  0  0  0  0  0  0
   55.2108  153.0839   25.9999 H   0  0  0  0  0  0  0  0  0  0  0  0
   51.5936  153.8881   25.1252 H   0  0  0  0  0  0  0  0  0  0  0  0
   52.3581  155.0661   24.0052 H   0  0  0  0  0  0  0  0  0  0  0  0
   52.8911  153.3508   24.0052 H   0  0  0  0  0  0  0  0  0  0  0  0
  1  2  1  0
  2  3  1  0
  3  4  2  0
  4  5  1  0
  5  6  1  0
  6  7  1  0
  7  8  1  0
  8  9  2  0
  9 10  1  0
 10 11  2  0
 11 12  1  0
 12 13  1  0
 12 14  2  0
 14 15  1  0
 15 16  2  0
 15 17  1  0
 17 18  1  0
  5 19  2  0
 19 20  1  0
 20 21  2  0
 21 22  1  0
 22 23  1  0
 22 24  1  0
 22 25  1  0
 21  3  1  0
 17  6  2  0
 14  8  1  0
  1 26  1  0
  1 27  1  0
  1 28  1  0
  2 29  1  0
  2 30  1  0
  4 31  1  0
  9 32  1  0
 10 33  1  0
 11 34  1  0
 13 35  1  0
 18 36  1  0
 19 37  1  0
 20 38  1  0
 23 39  1  0
 23 40  1  0
 23 41  1  0
 24 42  1  0
 24 43  1  0
 24 44  1  0
 25 45  1  0
 25 46  1  0
 25 47  1  0
M  END
>  <meeko>  (5) 
{"is_sidechain": [false], "free_energy": -8.819, "intermolecular_energy": -10.538, "internal_energy": -0.142}

$$$$
cand_038_out
     RDKit          3D

 47 49  0  0  0  0  0  0  0  0999 V2000
   55.2560  156.9850   24.6520 C   0  0  0  0  0  0  0  0  0  0  0  0
   53.9500  156.2300   24.4310 C   0  0  0  0  0  0  0  0  0  0  0  0
   53.4710  155.5260   25.6840 C   0  0  0  0  0  0  0  0  0  0  0  0
   52.7480  156.3610   26.5800 C   0  0  0  0  0  0  0  0  0  0  0  0
   52.2090  155.8980   27.7820 C   0  0  0  0  0  0  0  0  0  0  0  0
   51.4790  156.7840   28.7130 C   0  0  0  0  0  0  0  0  0  0  0  0
   52.1800  157.9460   29.0140 O   0  0  0  0  0  0  0  0  0  0  0  0
   51.6160  158.8590   29.8670 C   0  0  0  0  0  0  0  0  0  0  0  0
   52.3490  160.0180   30.1310 C   0  0  0  0  0  0  0  0  0  0  0  0
   51.8330  160.9870   30.9930 C   0  0  0  0  0  0  0  0  0  0  0  0
   50.5850  160.7990   31.5920 C   0  0  0  0  0  0  0  0  0  0  0  0
   49.8570  159.6410   31.3290 C   0  0  0  0  0  0  0  0  0  0  0  0
   48.6440  159.5200   31.9500 O   0  0  0  0  0  0  0  0  0  0  0  0
   50.3740  158.6720   30.4650 C   0  0  0  0  0  0  0  0  0  0  0  0
   49.6410  157.4420   30.1610 C   0  0  0  0  0  0  0  0  0  0  0  0
   48.5410  157.2000   30.6550 O   0  0  0  0  0  0  0  0  0  0  0  0
   50.2720  156.4810   29.2270 C   0  0  0  0  0  0  0  0  0  0  0  0
   49.5770  155.3160   28.9570 O   0  0  0  0  0  0  0  0  0  0  0  0
   52.4210  154.5630   28.1070 C   0  0  0  0  0  0  0  0  0  0  0  0
   53.1330  153.7210   27.2420 C   0  0  0  0  0  0  0  0  0  0  0  0
   53.6740  154.1580   26.0090 C   0  0  0  0  0  0  0  0  0  0  0  0
   54.4600  153.1400   25.1370 C   0  0  0  0  0  0  0  0  0  0  0  0
   54.1140  153.2190   23.6200 C   0  0  0  0  0  0  0  0  0  0  0  0
   55.9870  153.3720   25.1980 C   0  0  0  0  0  0  0  0  0  0  0  0
   54.1050  151.6990   25.5650 C   0  0  0  0  0  0  0  0  0  0  0  0
   55.4399  157.0913   25.7313 H   0  0  0  0  0  0  0  0  0  0  0  0
   56.0847  156.4266   24.1921 H   0  0  0  0  0  0  0  0  0  0  0  0
   55.1856  157.9818   24.1921 H   0  0  0  0  0  0  0  0  0  0  0  0
   53.1782  156.9454   24.1107 H   0  0  0  0  0  0  0  0  0  0  0  0
   54.1317  155.4629   23.6638 H   0  0  0  0  0  0  0  0  0  0  0  0
   52.6071  157.4190   26.3141 H   0  0  0  0  0  0  0  0  0  0  0  0
   53.3319  160.1671   29.6602 H   0  0  0  0  0  0  0  0  0  0  0  0
   52.4100  161.9002   31.2010 H   0  0  0  0  0  0  0  0  0  0  0  0
   50.1781  161.5638   32.2699 H   0  0  0  0  0  0  0  0  0  0  0  0
   47.9970  160.1900   31.8480 H   0  0  0  0  0  0  0  0  0  0  0  0
   49.0700  155.2450   28.1720 H   0  0  0  0  0  0  0  0  0  0  0  0
   52.0259  154.1635   29.0527 H   0  0  0  0  0  0  0  0  0  0  0  0
   53.2783  152.6708   27.5351 H   0  0  0  0  0  0  0  0  0  0  0  0
   53.0481  153.4624   23.4992 H   0  0  0  0  0  0  0  0  0  0  0  0
   54.7247  154.0008   23.1448 H   0  0  0  0  0  0  0  0  0  0  0  0
   54.3249  152.2496   23.1448 H   0  0  0  0  0  0  0  0  0  0  0  0
   56.3088  153.4209   26.2488 H   0  0  0  0  0  0  0  0  0  0  0  0
   56.5044  152.5421   24.6943 H   0  0  0  0  0  0  0  0  0  0  0  0
   56.2346  154.3181   24.6943 H   0  0  0  0  0  0  0  0  0  0  0  0
   54.0895  151.6360   26.6631 H   0  0  0  0  0  0  0  0  0  0  0  0
   53.1143  151.4322   25.1684 H   0  0  0  0  0  0  0  0  0  0  0  0
   54.8584  151.0026   25.1684 H   0  0  0  0  0  0  0  0  0  0  0  0
  1  2  1  0
  2  3  1  0
  3  4  2  0
  4  5  1  0
  5  6  1  0
  6  7  1  0
  7  8  1  0
  8  9  2  0
  9 10  1  0
 10 11  2  0
 11 12  1  0
 12 13  1  0
 12 14  2  0
 14 15  1  0
 15 16  2  0
 15 17  1  0
 17 18  1  0
  5 19  2  0
 19 20  1  0
 20 21  2  0
 21 22  1  0
 22 23  1  0
 22 24  1  0
 22 25  1  0
 21  3  1  0
 17  6  2  0
 14  8  1  0
  1 26  1  0
  1 27  1  0
  1 28  1  0
  2 29  1  0
  2 30  1  0
  4 31  1  0
  9 32  1  0
 10 33  1  0
 11 34  1  0
 13 35  1  0
 18 36  1  0
 19 37  1  0
 20 38  1  0
 23 39  1  0
 23 40  1  0
 23 41  1  0
 24 42  1  0
 24 43  1  0
 24 44  1  0
 25 45  1  0
 25 46  1  0
 25 47  1  0
M  END
>  <meeko>  (6) 
{"is_sidechain": [false], "free_energy": -8.606, "intermolecular_energy": -10.098, "internal_energy": -0.319}

$$$$
