cand_053_out
     RDKit          3D

 44 46  0  0  0  0  0  0  0  0999 V2000
   48.6700  161.5200   33.8010 C   0  0  0  0  0  0  0  0  0  0  0  0
   50.0000  161.1720   33.1520 C   0  0  0  0  0  0  0  0  0  0  0  0
   49.9360  161.3260   31.6320 C   0  0  0  0  0  0  0  0  0  0  0  0
   50.3670  160.0610   30.9210 C   0  0  0  0  0  0  0  0  0  0  0  0
   51.6560  160.0240   30.3610 C   0  0  0  0  0  0  0  0  0  0  0  0
   52.1250  158.8850   29.7030 C   0  0  0  0  0  0  0  0  0  0  0  0
   51.3250  157.7440   29.5930 C   0  0  0  0  0  0  0  0  0  0  0  0
   51.8280  156.5590   28.8660 C   0  0  0  0  0  0  0  0  0  0  0  0
   52.4260  156.8840   27.6540 O   0  0  0  0  0  0  0  0  0  0  0  0
   52.9360  155.8760   26.8750 C   0  0  0  0  0  0  0  0  0  0  0  0
   53.5130  156.2470   25.6590 C   0  0  0  0  0  0  0  0  0  0  0  0
   54.0540  155.2700   24.8190 C   0  0  0  0  0  0  0  0  0  0  0  0
   54.0170  153.9250   25.1950 C   0  0  0  0  0  0  0  0  0  0  0  0
   53.4400  153.5600   26.4080 C   0  0  0  0  0  0  0  0  0  0  0  0
   53.4390  152.2260   26.7140 O   0  0  0  0  0  0  0  0  0  0  0  0
   52.8990  154.5370   27.2480 C   0  0  0  0  0  0  0  0  0  0  0  0
   52.2840  154.1960   28.5310 C   0  0  0  0  0  0  0  0  0  0  0  0
   52.2220  153.0360   28.9350 O   0  0  0  0  0  0  0  0  0  0  0  0
   51.7330  155.3050   29.3430 C   0  0  0  0  0  0  0  0  0  0  0  0
   51.1660  154.9710   30.5610 O   0  0  0  0  0  0  0  0  0  0  0  0
   50.0390  157.7800   30.1480 C   0  0  0  0  0  0  0  0  0  0  0  0
   49.5490  158.9180   30.8240 C   0  0  0  0  0  0  0  0  0  0  0  0
   48.1460  158.8590   31.3840 C   0  0  0  0  0  0  0  0  0  0  0  0
   47.2340  159.8960   30.7460 C   0  0  0  0  0  0  0  0  0  0  0  0
   48.7775  161.4919   34.8954 H   0  0  0  0  0  0  0  0  0  0  0  0
   48.3624  162.5289   33.4886 H   0  0  0  0  0  0  0  0  0  0  0  0
   47.9077  160.7911   33.4886 H   0  0  0  0  0  0  0  0  0  0  0  0
   50.7774  161.8423   33.5473 H   0  0  0  0  0  0  0  0  0  0  0  0
   50.2346  160.1227   33.3842 H   0  0  0  0  0  0  0  0  0  0  0  0
   48.9020  161.5634   31.3412 H   0  0  0  0  0  0  0  0  0  0  0  0
   50.6236  162.1337   31.3405 H   0  0  0  0  0  0  0  0  0  0  0  0
   52.3063  160.9074   30.4425 H   0  0  0  0  0  0  0  0  0  0  0  0
   53.1347  158.8857   29.2666 H   0  0  0  0  0  0  0  0  0  0  0  0
   53.5417  157.3060   25.3628 H   0  0  0  0  0  0  0  0  0  0  0  0
   54.5095  155.5603   23.8607 H   0  0  0  0  0  0  0  0  0  0  0  0
   54.4430  153.1560   24.5338 H   0  0  0  0  0  0  0  0  0  0  0  0
   53.8620  151.9240   27.4940 H   0  0  0  0  0  0  0  0  0  0  0  0
   50.3460  154.5210   30.5870 H   0  0  0  0  0  0  0  0  0  0  0  0
   49.3922  156.8952   30.0541 H   0  0  0  0  0  0  0  0  0  0  0  0
   47.7307  157.8577   31.1970 H   0  0  0  0  0  0  0  0  0  0  0  0
   48.2010  159.0719   32.4618 H   0  0  0  0  0  0  0  0  0  0  0  0
   46.7269  160.4726   31.5337 H   0  0  0  0  0  0  0  0  0  0  0  0
   47.8322  160.5758   30.1215 H   0  0  0  0  0  0  0  0  0  0  0  0
   46.4834  159.3895   30.1215 H   0  0  0  0  0  0  0  0  0  0  0  0
  1  2  1  0
  2  3  1  0
  3  4  1  0
  4  5  2  0
  5  6  1  0
  6  7  2  0
  7  8  1  0
  8  9  1  0
  9 10  1  0
 10 11  2  0
 11 12  1  0
 12 13  2  0
 13 14  1  0
 14 15  1  0
 14 16  2  0
 16 17  1  0
 17 18  2  0
 17 19  1  0
 19 20  1  0
  7 21  1  0
 21 22  2  0
 22 23  1  0
 23 24  1  0
 22  4  1  0
 19  8  2  0
 16 10  1  0
  1 25  1  0
  1 26  1  0
  1 27  1  0
  2 28  1  0
  2 29  1  0
  3 30  1  0
  3 31  1  0
  5 32  1  0
  6 33  1  0
 11 34  1  0
 12 35  1  0
 13 36  1  0
 15 37  1  0
 20 38  1  0
 21 39  1  0
 23 40  1  0
 23 41  1  0
 24 42  1  0
 24 43  1  0
 24 44  1  0
M  END
>  <meeko>  (1) 
{"is_sidechain": [false], "free_energy": -10.826, "intermolecular_energy": -13.991, "internal_energy": -0.201}

$$$$
cand_053_out
     RDKit          3D

 44 46  0  0  0  0  0  0  0  0999 V2000
   49.6140  161.8230   33.8440 C   0  0  0  0  0  0  0  0  0  0  0  0
   49.2080  160.5120   33.1880 C   0  0  0  0  0  0  0  0  0  0  0  0
   49.0370  160.6760   31.6770 C   0  0  0  0  0  0  0  0  0  0  0  0
   49.7910  159.6110   30.9090 C   0  0  0  0  0  0  0  0  0  0  0  0
   49.1790  158.3560   30.7460 C   0  0  0  0  0  0  0  0  0  0  0  0
   49.8110  157.3310   30.0370 C   0  0  0  0  0  0  0  0  0  0  0  0
   51.0690  157.5320   29.4630 C   0  0  0  0  0  0  0  0  0  0  0  0
   51.7350  156.4260   28.7430 C   0  0  0  0  0  0  0  0  0  0  0  0
   52.3060  156.8300   27.5410 O   0  0  0  0  0  0  0  0  0  0  0  0
   52.9570  155.9010   26.7700 C   0  0  0  0  0  0  0  0  0  0  0  0
   53.5000  156.3470   25.5650 C   0  0  0  0  0  0  0  0  0  0  0  0
   54.1780  155.4530   24.7320 C   0  0  0  0  0  0  0  0  0  0  0  0
   54.3130  154.1140   25.1070 C   0  0  0  0  0  0  0  0  0  0  0  0
   53.7690  153.6720   26.3100 C   0  0  0  0  0  0  0  0  0  0  0  0
   53.9380  152.3490   26.6140 O   0  0  0  0  0  0  0  0  0  0  0  0
   53.0900  154.5670   27.1410 C   0  0  0  0  0  0  0  0  0  0  0  0
   52.5040  154.1440   28.4140 C   0  0  0  0  0  0  0  0  0  0  0  0
   52.5880  152.9840   28.8150 O   0  0  0  0  0  0  0  0  0  0  0  0
   51.7980  155.1680   29.2170 C   0  0  0  0  0  0  0  0  0  0  0  0
   51.2600  154.7590   30.4250 O   0  0  0  0  0  0  0  0  0  0  0  0
   51.6820  158.7810   29.6280 C   0  0  0  0  0  0  0  0  0  0  0  0
   51.0570  159.8320   30.3330 C   0  0  0  0  0  0  0  0  0  0  0  0
   51.8030  161.1410   30.4590 C   0  0  0  0  0  0  0  0  0  0  0  0
   52.6820  161.1780   31.7000 C   0  0  0  0  0  0  0  0  0  0  0  0
   49.5796  161.7118   34.9378 H   0  0  0  0  0  0  0  0  0  0  0  0
   50.6360  162.0869   33.5343 H   0  0  0  0  0  0  0  0  0  0  0  0
   48.9201  162.6183   33.5343 H   0  0  0  0  0  0  0  0  0  0  0  0
   49.9861  159.7588   33.3808 H   0  0  0  0  0  0  0  0  0  0  0  0
   48.2448  160.1944   33.6139 H   0  0  0  0  0  0  0  0  0  0  0  0
   47.9676  160.6042   31.4294 H   0  0  0  0  0  0  0  0  0  0  0  0
   49.4430  161.6574   31.3906 H   0  0  0  0  0  0  0  0  0  0  0  0
   48.1858  158.1778   31.1840 H   0  0  0  0  0  0  0  0  0  0  0  0
   49.3131  156.3560   29.9297 H   0  0  0  0  0  0  0  0  0  0  0  0
   53.3946  157.4016   25.2707 H   0  0  0  0  0  0  0  0  0  0  0  0
   54.6054  155.8036   23.7810 H   0  0  0  0  0  0  0  0  0  0  0  0
   54.8482  153.4100   24.4528 H   0  0  0  0  0  0  0  0  0  0  0  0
   53.5340  151.6910   26.0830 H   0  0  0  0  0  0  0  0  0  0  0  0
   51.2130  155.3590   31.1430 H   0  0  0  0  0  0  0  0  0  0  0  0
   52.6796  158.9474   29.1954 H   0  0  0  0  0  0  0  0  0  0  0  0
   52.4372  161.2755   29.5703 H   0  0  0  0  0  0  0  0  0  0  0  0
   51.0609  161.9486   30.5437 H   0  0  0  0  0  0  0  0  0  0  0  0
   52.0486  161.1513   32.5989 H   0  0  0  0  0  0  0  0  0  0  0  0
   53.3543  160.3073   31.6992 H   0  0  0  0  0  0  0  0  0  0  0  0
   53.2788  162.1020   31.6992 H   0  0  0  0  0  0  0  0  0  0  0  0
  1  2  1  0
  2  3  1  0
  3  4  1  0
  4  5  2  0
  5  6  1  0
  6  7  2  0
  7  8  1  0
  8  9  1  0
  9 10  1  0
 10 11  2  0
 11 12  1  0
 12 13  2  0
 13 14  1  0
 14 15  1  0
 14 16  2  0
 16 17  1  0
 17 18  2  0
 17 19  1  0
 19 20  1  0
  7 21  1  0
 21 22  2  0
 22 23  1  0
 23 24  1  0
 22  4  1  0
 19  8  2  0
 16 10  1  0
  1 25  1  0
  1 26  1  0
  1 27  1  0
  2 28  1  0
  2 29  1  0
  3 30  1  0
  3 31  1  0
  5 32  1  0
  6 33  1  0
 11 34  1  0
 12 35  1  0
 13 36  1  0
 15 37  1  0
 20 38  1  0
 21 39  1  0
 23 40  1  0
 23 41  1  0
 24 42  1  0
 24 43  1  0
 24 44  1  0
M  END
>  <meeko>  (2) 
{"is_sidechain": [false], "free_energy": -10.394, "intermolecular_energy": -13.041, "internal_energy": -0.592}

$$$$
cand_053_out
     RDKit          3D

 44 46  0  0  0  0  0  0  0  0999 V2000
   54.3370  151.0770   24.7380 C   0  0  0  0  0  0  0  0  0  0  0  0
   54.1700  152.0690   25.8790 C   0  0  0  0  0  0  0  0  0  0  0  0
   52.7060  152.1800   26.3090 C   0  0  0  0  0  0  0  0  0  0  0  0
   52.4210  153.5010   26.9910 C   0  0  0  0  0  0  0  0  0  0  0  0
   51.9810  153.4740   28.3270 C   0  0  0  0  0  0  0  0  0  0  0  0
   51.7130  154.6540   29.0220 C   0  0  0  0  0  0  0  0  0  0  0  0
   51.8840  155.8990   28.4080 C   0  0  0  0  0  0  0  0  0  0  0  0
   51.5650  157.1360   29.1510 C   0  0  0  0  0  0  0  0  0  0  0  0
   50.2670  157.1470   29.6500 O   0  0  0  0  0  0  0  0  0  0  0  0
   49.8380  158.2400   30.3600 C   0  0  0  0  0  0  0  0  0  0  0  0
   48.5230  158.2130   30.8280 C   0  0  0  0  0  0  0  0  0  0  0  0
   48.0230  159.2930   31.5610 C   0  0  0  0  0  0  0  0  0  0  0  0
   48.8380  160.3970   31.8250 C   0  0  0  0  0  0  0  0  0  0  0  0
   50.1490  160.4190   31.3560 C   0  0  0  0  0  0  0  0  0  0  0  0
   50.8910  161.5290   31.6510 O   0  0  0  0  0  0  0  0  0  0  0  0
   50.6480  159.3390   30.6230 C   0  0  0  0  0  0  0  0  0  0  0  0
   52.0200  159.3220   30.1120 C   0  0  0  0  0  0  0  0  0  0  0  0
   52.7990  160.2520   30.3110 O   0  0  0  0  0  0  0  0  0  0  0  0
   52.4490  158.1340   29.3400 C   0  0  0  0  0  0  0  0  0  0  0  0
   53.7510  158.1230   28.8740 O   0  0  0  0  0  0  0  0  0  0  0  0
   52.3190  155.9270   27.0770 C   0  0  0  0  0  0  0  0  0  0  0  0
   52.6030  154.7460   26.3590 C   0  0  0  0  0  0  0  0  0  0  0  0
   53.0630  154.8830   24.9250 C   0  0  0  0  0  0  0  0  0  0  0  0
   54.4340  155.5340   24.8270 C   0  0  0  0  0  0  0  0  0  0  0  0
   54.5064  150.0708   25.1488 H   0  0  0  0  0  0  0  0  0  0  0  0
   53.4270  151.0723   24.1200 H   0  0  0  0  0  0  0  0  0  0  0  0
   55.1984  151.3705   24.1200 H   0  0  0  0  0  0  0  0  0  0  0  0
   54.7710  151.7330   26.7369 H   0  0  0  0  0  0  0  0  0  0  0  0
   54.5059  153.0573   25.5319 H   0  0  0  0  0  0  0  0  0  0  0  0
   52.0655  152.0929   25.4189 H   0  0  0  0  0  0  0  0  0  0  0  0
   52.4971  151.3721   27.0258 H   0  0  0  0  0  0  0  0  0  0  0  0
   51.8459  152.5063   28.8323 H   0  0  0  0  0  0  0  0  0  0  0  0
   51.3635  154.6045   30.0638 H   0  0  0  0  0  0  0  0  0  0  0  0
   47.8818  157.3437   30.6203 H   0  0  0  0  0  0  0  0  0  0  0  0
   46.9870  159.2739   31.9304 H   0  0  0  0  0  0  0  0  0  0  0  0
   48.4448  161.2469   32.4021 H   0  0  0  0  0  0  0  0  0  0  0  0
   51.7340  161.4370   32.0510 H   0  0  0  0  0  0  0  0  0  0  0  0
   54.0280  157.4610   28.2720 H   0  0  0  0  0  0  0  0  0  0  0  0
   52.4429  156.8986   26.5765 H   0  0  0  0  0  0  0  0  0  0  0  0
   53.1114  153.8825   24.4703 H   0  0  0  0  0  0  0  0  0  0  0  0
   52.3430  155.5253   24.3967 H   0  0  0  0  0  0  0  0  0  0  0  0
   54.8249  155.7196   25.8383 H   0  0  0  0  0  0  0  0  0  0  0  0
   55.1196  154.8653   24.2859 H   0  0  0  0  0  0  0  0  0  0  0  0
   54.3491  156.4879   24.2859 H   0  0  0  0  0  0  0  0  0  0  0  0
  1  2  1  0
  2  3  1  0
  3  4  1  0
  4  5  2  0
  5  6  1  0
  6  7  2  0
  7  8  1  0
  8  9  1  0
  9 10  1  0
 10 11  2  0
 11 12  1  0
 12 13  2  0
 13 14  1  0
 14 15  1  0
 14 16  2  0
 16 17  1  0
 17 18  2  0
 17 19  1  0
 19 20  1  0
  7 21  1  0
 21 22  2  0
 22 23  1  0
 23 24  1  0
 22  4  1  0
 19  8  2  0
 16 10  1  0
  1 25  1  0
  1 26  1  0
  1 27  1  0
  2 28  1  0
  2 29  1  0
  3 30  1  0
  3 31  1  0
  5 32  1  0
  6 33  1  0
 11 34  1  0
 12 35  1  0
 13 36  1  0
 15 37  1  0
 20 38  1  0
 21 39  1  0
 23 40  1  0
 23 41  1  0
 24 42  1  0
 24 43  1  0
 24 44  1  0
M  END
>  <meeko>  (3) 
{"is_sidechain": [false], "free_energy": -10.334, "intermolecular_energy": -13.209, "internal_energy": -0.346}

$$$$
cand_053_out
     RDKit          3D

 44 46  0  0  0  0  0  0  0  0999 V2000
   52.9910  162.2050   30.7870 C   0  0  0  0  0  0  0  0  0  0  0  0
   52.2240  161.2580   31.6960 C   0  0  0  0  0  0  0  0  0  0  0  0
   50.9460  160.7530   31.0230 C   0  0  0  0  0  0  0  0  0  0  0  0
   51.1570  159.4110   30.3550 C   0  0  0  0  0  0  0  0  0  0  0  0
   52.3750  159.1880   29.6890 C   0  0  0  0  0  0  0  0  0  0  0  0
   52.6430  157.9690   29.0630 C   0  0  0  0  0  0  0  0  0  0  0  0
   51.7060  156.9320   29.0900 C   0  0  0  0  0  0  0  0  0  0  0  0
   51.9950  155.6600   28.3950 C   0  0  0  0  0  0  0  0  0  0  0  0
   52.5600  155.8470   27.1380 O   0  0  0  0  0  0  0  0  0  0  0  0
   52.8780  154.7480   26.3820 C   0  0  0  0  0  0  0  0  0  0  0  0
   53.4280  154.9840   25.1220 C   0  0  0  0  0  0  0  0  0  0  0  0
   53.7770  153.9090   24.3010 C   0  0  0  0  0  0  0  0  0  0  0  0
   53.5760  152.5980   24.7420 C   0  0  0  0  0  0  0  0  0  0  0  0
   53.0260  152.3670   26.0000 C   0  0  0  0  0  0  0  0  0  0  0  0
   52.8570  151.0600   26.3690 O   0  0  0  0  0  0  0  0  0  0  0  0
   52.6770  153.4430   26.8200 C   0  0  0  0  0  0  0  0  0  0  0  0
   52.0980  153.2440   28.1490 C   0  0  0  0  0  0  0  0  0  0  0  0
   51.8980  152.1210   28.6100 O   0  0  0  0  0  0  0  0  0  0  0  0
   51.7550  154.4510   28.9350 C   0  0  0  0  0  0  0  0  0  0  0  0
   51.2200  154.2500   30.1950 O   0  0  0  0  0  0  0  0  0  0  0  0
   50.4900  157.1540   29.7500 C   0  0  0  0  0  0  0  0  0  0  0  0
   50.2040  158.3750   30.3960 C   0  0  0  0  0  0  0  0  0  0  0  0
   48.8610  158.5170   31.0760 C   0  0  0  0  0  0  0  0  0  0  0  0
   47.8720  159.3000   30.2260 C   0  0  0  0  0  0  0  0  0  0  0  0
   53.5662  162.9153   31.3991 H   0  0  0  0  0  0  0  0  0  0  0  0
   53.6788  161.6272   30.1521 H   0  0  0  0  0  0  0  0  0  0  0  0
   52.2829  162.7578   30.1521 H   0  0  0  0  0  0  0  0  0  0  0  0
   52.8647  160.3976   31.9392 H   0  0  0  0  0  0  0  0  0  0  0  0
   51.9428  161.8046   32.6082 H   0  0  0  0  0  0  0  0  0  0  0  0
   50.1583  160.6523   31.7842 H   0  0  0  0  0  0  0  0  0  0  0  0
   50.6563  161.4792   30.2492 H   0  0  0  0  0  0  0  0  0  0  0  0
   53.1298  159.9877   29.6606 H   0  0  0  0  0  0  0  0  0  0  0  0
   53.6014  157.8232   28.5432 H   0  0  0  0  0  0  0  0  0  0  0  0
   53.5868  156.0157   24.7752 H   0  0  0  0  0  0  0  0  0  0  0  0
   54.2102  154.0943   23.3070 H   0  0  0  0  0  0  0  0  0  0  0  0
   53.8517  151.7509   24.0968 H   0  0  0  0  0  0  0  0  0  0  0  0
   52.0090  150.7500   26.6190 H   0  0  0  0  0  0  0  0  0  0  0  0
   50.4200  153.7740   30.2940 H   0  0  0  0  0  0  0  0  0  0  0  0
   49.7365  156.3528   29.7648 H   0  0  0  0  0  0  0  0  0  0  0  0
   48.4508  157.5140   31.2649 H   0  0  0  0  0  0  0  0  0  0  0  0
   49.0125  159.0684   32.0157 H   0  0  0  0  0  0  0  0  0  0  0  0
   47.1792  159.8485   30.8812 H   0  0  0  0  0  0  0  0  0  0  0  0
   48.4183  160.0131   29.5911 H   0  0  0  0  0  0  0  0  0  0  0  0
   47.3033  158.6047   29.5911 H   0  0  0  0  0  0  0  0  0  0  0  0
  1  2  1  0
  2  3  1  0
  3  4  1  0
  4  5  2  0
  5  6  1  0
  6  7  2  0
  7  8  1  0
  8  9  1  0
  9 10  1  0
 10 11  2  0
 11 12  1  0
 12 13  2  0
 13 14  1  0
 14 15  1  0
 14 16  2  0
 16 17  1  0
 17 18  2  0
 17 19  1  0
 19 20  1  0
  7 21  1  0
 21 22  2  0
 22 23  1  0
 23 24  1  0
 22  4  1  0
 19  8  2  0
 16 10  1  0
  1 25  1  0
  1 26  1  0
  1 27  1  0
  2 28  1  0
  2 29  1  0
  3 30  1  0
  3 31  1  0
  5 32  1  0
  6 33  1  0
 11 34  1  0
 12 35  1  0
 13 36  1  0
 15 37  1  0
 20 38  1  0
 21 39  1  0
 23 40  1  0
 23 41  1  0
 24 42  1  0
 24 43  1  0
 24 44  1  0
M  END
>  <meeko>  (4) 
{"is_sidechain": [false], "free_energy": -9.966, "intermolecular_energy": -12.926, "internal_energy": -0.153}

$$$$
cand_053_out
     RDKit          3D

 44 46  0  0  0  0  0  0  0  0999 V2000
   53.4110  150.4560   25.2830 C   0  0  0  0  0  0  0  0  0  0  0  0
   52.7340  151.6250   25.9820 C   0  0  0  0  0  0  0  0  0  0  0  0
   53.7600  152.5580   26.6270 C   0  0  0  0  0  0  0  0  0  0  0  0
   53.0990  153.7540   27.2780 C   0  0  0  0  0  0  0  0  0  0  0  0
   52.5750  153.5960   28.5730 C   0  0  0  0  0  0  0  0  0  0  0  0
   51.9640  154.6600   29.2400 C   0  0  0  0  0  0  0  0  0  0  0  0
   51.8650  155.9170   28.6360 C   0  0  0  0  0  0  0  0  0  0  0  0
   51.1860  157.0230   29.3450 C   0  0  0  0  0  0  0  0  0  0  0  0
   52.0300  158.0980   29.6020 O   0  0  0  0  0  0  0  0  0  0  0  0
   51.5290  159.1940   30.2570 C   0  0  0  0  0  0  0  0  0  0  0  0
   52.4160  160.2420   30.5080 C   0  0  0  0  0  0  0  0  0  0  0  0
   51.9690  161.3890   31.1680 C   0  0  0  0  0  0  0  0  0  0  0  0
   50.6370  161.4870   31.5770 C   0  0  0  0  0  0  0  0  0  0  0  0
   49.7550  160.4390   31.3250 C   0  0  0  0  0  0  0  0  0  0  0  0
   48.4660  160.6020   31.7520 O   0  0  0  0  0  0  0  0  0  0  0  0
   50.2030  159.2920   30.6650 C   0  0  0  0  0  0  0  0  0  0  0  0
   49.3090  158.1680   30.3800 C   0  0  0  0  0  0  0  0  0  0  0  0
   48.1220  158.1840   30.7010 O   0  0  0  0  0  0  0  0  0  0  0  0
   49.8840  156.9960   29.6830 C   0  0  0  0  0  0  0  0  0  0  0  0
   49.0260  155.9450   29.4070 O   0  0  0  0  0  0  0  0  0  0  0  0
   52.3830  156.0750   27.3440 C   0  0  0  0  0  0  0  0  0  0  0  0
   53.0110  155.0160   26.6570 C   0  0  0  0  0  0  0  0  0  0  0  0
   53.5340  155.2860   25.2650 C   0  0  0  0  0  0  0  0  0  0  0  0
   54.1340  156.6790   25.1430 C   0  0  0  0  0  0  0  0  0  0  0  0
   53.8130  149.7618   26.0356 H   0  0  0  0  0  0  0  0  0  0  0  0
   52.6776  149.9303   24.6540 H   0  0  0  0  0  0  0  0  0  0  0  0
   54.2320  150.8305   24.6540 H   0  0  0  0  0  0  0  0  0  0  0  0
   52.1478  152.1926   25.2443 H   0  0  0  0  0  0  0  0  0  0  0  0
   52.0827  151.2257   26.7734 H   0  0  0  0  0  0  0  0  0  0  0  0
   54.3183  151.9990   27.3924 H   0  0  0  0  0  0  0  0  0  0  0  0
   54.4324  152.9256   25.8379 H   0  0  0  0  0  0  0  0  0  0  0  0
   52.6475  152.6171   29.0696 H   0  0  0  0  0  0  0  0  0  0  0  0
   51.5567  154.5076   30.2504 H   0  0  0  0  0  0  0  0  0  0  0  0
   53.4652  160.1648   30.1866 H   0  0  0  0  0  0  0  0  0  0  0  0
   52.6667  162.2161   31.3659 H   0  0  0  0  0  0  0  0  0  0  0  0
   50.2853  162.3902   32.0971 H   0  0  0  0  0  0  0  0  0  0  0  0
   48.0170  161.4090   31.5910 H   0  0  0  0  0  0  0  0  0  0  0  0
   49.1010  155.1430   29.8840 H   0  0  0  0  0  0  0  0  0  0  0  0
   52.2972  157.0545   26.8508 H   0  0  0  0  0  0  0  0  0  0  0  0
   54.3093  154.5430   25.0264 H   0  0  0  0  0  0  0  0  0  0  0  0
   52.6886  155.2171   24.5646 H   0  0  0  0  0  0  0  0  0  0  0  0
   54.3115  157.0910   26.1474 H   0  0  0  0  0  0  0  0  0  0  0  0
   55.0870  156.6212   24.5967 H   0  0  0  0  0  0  0  0  0  0  0  0
   53.4373  157.3318   24.5967 H   0  0  0  0  0  0  0  0  0  0  0  0
  1  2  1  0
  2  3  1  0
  3  4  1  0
  4  5  2  0
  5  6  1  0
  6  7  2  0
  7  8  1  0
  8  9  1  0
  9 10  1  0
 10 11  2  0
 11 12  1  0
 12 13  2  0
 13 14  1  0
 14 15  1  0
 14 16  2  0
 16 17  1  0
 17 18  2  0
 17 19  1  0
 19 20  1  0
  7 21  1  0
 21 22  2  0
 22 23  1  0
 23 24  1  0
 22  4  1  0
 19  8  2  0
 16 10  1  0
  1 25  1  0
  1 26  1  0
  1 27  1  0
  2 28  1  0
  2 29  1  0
  3 30  1  0
  3 31  1  0
  5 32  1  0
  6 33  1  0
 11 34  1  0
 12 35  1  0
 13 36  1  0
 15 37  1  0
 20 38  1  0
 21 39  1  0
 23 40  1  0
 23 41  1  0
 24 42  1  0
 24 43  1  0
 24 44  1  0
M  END
>  <meeko>  (5) 
{"is_sidechain": [false], "free_energy": -9.053, "intermolecular_energy": -11.313, "internal_energy": -0.587}

$$$$
cand_053_out
     RDKit          3D

 44 46  0  0  0  0  0  0  0  0999 V2000
   54.1450  153.4790   23.9400 C   0  0  0  0  0  0  0  0  0  0  0  0
   53.2550  154.3300   24.8330 C   0  0  0  0  0  0  0  0  0  0  0  0
   53.4000  153.9330   26.3030 C   0  0  0  0  0  0  0  0  0  0  0  0
   52.8550  155.0010   27.2280 C   0  0  0  0  0  0  0  0  0  0  0  0
   53.0120  156.3460   26.8500 C   0  0  0  0  0  0  0  0  0  0  0  0
   52.5220  157.3820   27.6470 C   0  0  0  0  0  0  0  0  0  0  0  0
   51.8530  157.1060   28.8430 C   0  0  0  0  0  0  0  0  0  0  0  0
   51.3690  158.2170   29.6890 C   0  0  0  0  0  0  0  0  0  0  0  0
   50.0340  158.0770   30.0540 O   0  0  0  0  0  0  0  0  0  0  0  0
   49.4560  159.0410   30.8400 C   0  0  0  0  0  0  0  0  0  0  0  0
   48.1110  158.8660   31.1680 C   0  0  0  0  0  0  0  0  0  0  0  0
   47.4610  159.8100   31.9680 C   0  0  0  0  0  0  0  0  0  0  0  0
   48.1570  160.9250   32.4400 C   0  0  0  0  0  0  0  0  0  0  0  0
   49.4990  161.0960   32.1100 C   0  0  0  0  0  0  0  0  0  0  0  0
   50.1200  162.2100   32.6050 O   0  0  0  0  0  0  0  0  0  0  0  0
   50.1480  160.1520   31.3090 C   0  0  0  0  0  0  0  0  0  0  0  0
   51.5570  160.2930   30.9400 C   0  0  0  0  0  0  0  0  0  0  0  0
   52.2380  161.2430   31.3230 O   0  0  0  0  0  0  0  0  0  0  0  0
   52.1490  159.2420   30.0810 C   0  0  0  0  0  0  0  0  0  0  0  0
   53.4850  159.3790   29.7490 O   0  0  0  0  0  0  0  0  0  0  0  0
   51.6990  155.7660   29.2230 C   0  0  0  0  0  0  0  0  0  0  0  0
   52.1790  154.7050   28.4270 C   0  0  0  0  0  0  0  0  0  0  0  0
   51.9660  153.2940   28.9270 C   0  0  0  0  0  0  0  0  0  0  0  0
   51.5480  152.3510   27.8090 C   0  0  0  0  0  0  0  0  0  0  0  0
   54.7996  152.8531   24.5643 H   0  0  0  0  0  0  0  0  0  0  0  0
   53.5188  152.8351   23.3050 H   0  0  0  0  0  0  0  0  0  0  0  0
   54.7602  154.1334   23.3050 H   0  0  0  0  0  0  0  0  0  0  0  0
   53.5376  155.3868   24.7178 H   0  0  0  0  0  0  0  0  0  0  0  0
   52.2088  154.1717   24.5323 H   0  0  0  0  0  0  0  0  0  0  0  0
   52.8487  152.9969   26.4755 H   0  0  0  0  0  0  0  0  0  0  0  0
   54.4709  153.8055   26.5197 H   0  0  0  0  0  0  0  0  0  0  0  0
   53.5300  156.5862   25.9098 H   0  0  0  0  0  0  0  0  0  0  0  0
   52.6637  158.4260   27.3308 H   0  0  0  0  0  0  0  0  0  0  0  0
   47.5634  157.9868   30.7977 H   0  0  0  0  0  0  0  0  0  0  0  0
   46.4003  159.6746   32.2261 H   0  0  0  0  0  0  0  0  0  0  0  0
   47.6460  161.6668   33.0713 H   0  0  0  0  0  0  0  0  0  0  0  0
   50.8730  162.1210   33.1550 H   0  0  0  0  0  0  0  0  0  0  0  0
   53.7710  159.1970   28.8760 H   0  0  0  0  0  0  0  0  0  0  0  0
   51.1889  155.5348   30.1697 H   0  0  0  0  0  0  0  0  0  0  0  0
   52.9048  152.9279   29.3682 H   0  0  0  0  0  0  0  0  0  0  0  0
   51.1581  153.3160   29.6732 H   0  0  0  0  0  0  0  0  0  0  0  0
   51.1384  151.4269   28.2428 H   0  0  0  0  0  0  0  0  0  0  0  0
   50.7806  152.8361   27.1879 H   0  0  0  0  0  0  0  0  0  0  0  0
   52.4228  152.1081   27.1879 H   0  0  0  0  0  0  0  0  0  0  0  0
  1  2  1  0
  2  3  1  0
  3  4  1  0
  4  5  2  0
  5  6  1  0
  6  7  2  0
  7  8  1  0
  8  9  1  0
  9 10  1  0
 10 11  2  0
 11 12  1  0
 12 13  2  0
 13 14  1  0
 14 15  1  0
 14 16  2  0
 16 17  1  0
 17 18  2  0
 17 19  1  0
 19 20  1  0
  7 21  1  0
 21 22  2  0
 22 23  1  0
 23 24  1  0
 22  4  1  0
 19  8  2  0
 16 10  1  0
  1 25  1  0
  1 26  1  0
  1 27  1  0
  2 28  1  0
  2 29  1  0
  3 30  1  0
  3 31  1  0
  5 32  1  0
  6 33  1  0
 11 34  1  0
 12 35  1  0
 13 36  1  0
 15 37  1  0
 20 38  1  0
 21 39  1  0
 23 40  1  0
 23 41  1  0
 24 42  1  0
 24 43  1  0
 24 44  1  0
M  END
>  <meeko>  (6) 
{"is_sidechain": [false], "free_energy": -8.974, "intermolecular_energy": -12.036, "internal_energy": 0.238}

$$$$
cand_053_out
     RDKit          3D

 44 46  0  0  0  0  0  0  0  0999 V2000
   47.7900  160.3240   31.0350 C   0  0  0  0  0  0  0  0  0  0  0  0
   48.0160  158.8880   30.5910 C   0  0  0  0  0  0  0  0  0  0  0  0
   49.2680  158.2950   31.2390 C   0  0  0  0  0  0  0  0  0  0  0  0
   50.0990  157.5140   30.2430 C   0  0  0  0  0  0  0  0  0  0  0  0
   49.5950  156.2860   29.7810 C   0  0  0  0  0  0  0  0  0  0  0  0
   50.3010  155.5190   28.8520 C   0  0  0  0  0  0  0  0  0  0  0  0
   51.5280  155.9610   28.3490 C   0  0  0  0  0  0  0  0  0  0  0  0
   52.2750  155.1200   27.3890 C   0  0  0  0  0  0  0  0  0  0  0  0
   51.9410  153.7730   27.4770 O   0  0  0  0  0  0  0  0  0  0  0  0
   52.5630  152.8800   26.6420 C   0  0  0  0  0  0  0  0  0  0  0  0
   52.2080  151.5370   26.7750 C   0  0  0  0  0  0  0  0  0  0  0  0
   52.8010  150.5740   25.9540 C   0  0  0  0  0  0  0  0  0  0  0  0
   53.7480  150.9560   25.0000 C   0  0  0  0  0  0  0  0  0  0  0  0
   54.0990  152.2970   24.8700 C   0  0  0  0  0  0  0  0  0  0  0  0
   55.0320  152.6010   23.9160 O   0  0  0  0  0  0  0  0  0  0  0  0
   53.5060  153.2590   25.6920 C   0  0  0  0  0  0  0  0  0  0  0  0
   53.8460  154.6780   25.5880 C   0  0  0  0  0  0  0  0  0  0  0  0
   54.6640  155.0930   24.7680 O   0  0  0  0  0  0  0  0  0  0  0  0
   53.1670  155.6160   26.5110 C   0  0  0  0  0  0  0  0  0  0  0  0
   53.4870  156.9570   26.3940 O   0  0  0  0  0  0  0  0  0  0  0  0
   52.0340  157.1830   28.8110 C   0  0  0  0  0  0  0  0  0  0  0  0
   51.3320  157.9760   29.7430 C   0  0  0  0  0  0  0  0  0  0  0  0
   51.9640  159.2770   30.1820 C   0  0  0  0  0  0  0  0  0  0  0  0
   51.1160  160.4800   29.7970 C   0  0  0  0  0  0  0  0  0  0  0  0
   47.7826  160.3712   32.1340 H   0  0  0  0  0  0  0  0  0  0  0  0
   48.5992  160.9597   30.6462 H   0  0  0  0  0  0  0  0  0  0  0  0
   46.8247  160.6804   30.6462 H   0  0  0  0  0  0  0  0  0  0  0  0
   47.1434  158.2829   30.8781 H   0  0  0  0  0  0  0  0  0  0  0  0
   48.1538  158.8803   29.4997 H   0  0  0  0  0  0  0  0  0  0  0  0
   49.8787  159.1131   31.6486 H   0  0  0  0  0  0  0  0  0  0  0  0
   48.9482  157.6050   32.0337 H   0  0  0  0  0  0  0  0  0  0  0  0
   48.6275  155.9228   30.1578 H   0  0  0  0  0  0  0  0  0  0  0  0
   49.8876  154.5577   28.5127 H   0  0  0  0  0  0  0  0  0  0  0  0
   51.4620  151.2366   27.5255 H   0  0  0  0  0  0  0  0  0  0  0  0
   52.5223  149.5151   26.0588 H   0  0  0  0  0  0  0  0  0  0  0  0
   54.2151  150.1988   24.3531 H   0  0  0  0  0  0  0  0  0  0  0  0
   54.7890  152.6130   23.0110 H   0  0  0  0  0  0  0  0  0  0  0  0
   52.8610  157.5580   26.0430 H   0  0  0  0  0  0  0  0  0  0  0  0
   53.0067  157.5343   28.4362 H   0  0  0  0  0  0  0  0  0  0  0  0
   52.0844  159.2624   31.2753 H   0  0  0  0  0  0  0  0  0  0  0  0
   52.9364  159.3704   29.6763 H   0  0  0  0  0  0  0  0  0  0  0  0
   50.7604  160.9844   30.7075 H   0  0  0  0  0  0  0  0  0  0  0  0
   51.7213  161.1801   29.2025 H   0  0  0  0  0  0  0  0  0  0  0  0
   50.2531  160.1452   29.2025 H   0  0  0  0  0  0  0  0  0  0  0  0
  1  2  1  0
  2  3  1  0
  3  4  1  0
  4  5  2  0
  5  6  1  0
  6  7  2  0
  7  8  1  0
  8  9  1  0
  9 10  1  0
 10 11  2  0
 11 12  1  0
 12 13  2  0
 13 14  1  0
 14 15  1  0
 14 16  2  0
 16 17  1  0
 17 18  2  0
 17 19  1  0
 19 20  1  0
  7 21  1  0
 21 22  2  0
 22 23  1  0
 23 24  1  0
 22  4  1  0
 19  8  2  0
 16 10  1  0
  1 25  1  0
  1 26  1  0
  1 27  1  0
  2 28  1  0
  2 29  1  0
  3 30  1  0
  3 31  1  0
  5 32  1  0
  6 33  1  0
 11 34  1  0
 12 35  1  0
 13 36  1  0
 15 37  1  0
 20 38  1  0
 21 39  1  0
 23 40  1  0
 23 41  1  0
 24 42  1  0
 24 43  1  0
 24 44  1  0
M  END
>  <meeko>  (7) 
{"is_sidechain": [false], "free_energy": -8.663, "intermolecular_energy": -11.424, "internal_energy": 0.028}

$$$$
cand_053_out
     RDKit          3D

 44 46  0  0  0  0  0  0  0  0999 V2000
   54.1540  153.2710   23.5660 C   0  0  0  0  0  0  0  0  0  0  0  0
   53.4910  154.2570   24.5150 C   0  0  0  0  0  0  0  0  0  0  0  0
   53.7580  153.8900   25.9760 C   0  0  0  0  0  0  0  0  0  0  0  0
   53.0460  154.8260   26.9280 C   0  0  0  0  0  0  0  0  0  0  0  0
   53.1580  156.2100   26.7030 C   0  0  0  0  0  0  0  0  0  0  0  0
   52.5170  157.1310   27.5330 C   0  0  0  0  0  0  0  0  0  0  0  0
   51.7360  156.6990   28.6090 C   0  0  0  0  0  0  0  0  0  0  0  0
   51.0900  157.6900   29.4960 C   0  0  0  0  0  0  0  0  0  0  0  0
   51.9070  158.7810   29.7710 O   0  0  0  0  0  0  0  0  0  0  0  0
   51.4320  159.7780   30.5850 C   0  0  0  0  0  0  0  0  0  0  0  0
   52.2910  160.8450   30.8460 C   0  0  0  0  0  0  0  0  0  0  0  0
   51.8690  161.8960   31.6650 C   0  0  0  0  0  0  0  0  0  0  0  0
   50.5870  161.8770   32.2200 C   0  0  0  0  0  0  0  0  0  0  0  0
   49.7320  160.8100   31.9570 C   0  0  0  0  0  0  0  0  0  0  0  0
   48.4920  160.8560   32.5330 O   0  0  0  0  0  0  0  0  0  0  0  0
   50.1560  159.7600   31.1390 C   0  0  0  0  0  0  0  0  0  0  0  0
   49.2890  158.6200   30.8360 C   0  0  0  0  0  0  0  0  0  0  0  0
   48.1460  158.5370   31.2810 O   0  0  0  0  0  0  0  0  0  0  0  0
   49.8360  157.5550   29.9650 C   0  0  0  0  0  0  0  0  0  0  0  0
   49.0030  156.4890   29.6760 O   0  0  0  0  0  0  0  0  0  0  0  0
   51.6260  155.3200   28.8380 C   0  0  0  0  0  0  0  0  0  0  0  0
   52.2590  154.3730   28.0050 C   0  0  0  0  0  0  0  0  0  0  0  0
   52.0820  152.9090   28.3380 C   0  0  0  0  0  0  0  0  0  0  0  0
   51.8010  152.0740   27.0980 C   0  0  0  0  0  0  0  0  0  0  0  0
   54.6750  152.4962   24.1475 H   0  0  0  0  0  0  0  0  0  0  0  0
   53.3880  152.8006   22.9320 H   0  0  0  0  0  0  0  0  0  0  0  0
   54.8786  153.8030   22.9320 H   0  0  0  0  0  0  0  0  0  0  0  0
   53.8887  155.2639   24.3203 H   0  0  0  0  0  0  0  0  0  0  0  0
   52.4050  154.2267   24.3430 H   0  0  0  0  0  0  0  0  0  0  0  0
   53.4059  152.8635   26.1556 H   0  0  0  0  0  0  0  0  0  0  0  0
   54.8396  153.9737   26.1581 H   0  0  0  0  0  0  0  0  0  0  0  0
   53.7615  156.5729   25.8579 H   0  0  0  0  0  0  0  0  0  0  0  0
   52.6275  158.2080   27.3385 H   0  0  0  0  0  0  0  0  0  0  0  0
   53.2998  160.8595   30.4077 H   0  0  0  0  0  0  0  0  0  0  0  0
   52.5460  162.7378   31.8725 H   0  0  0  0  0  0  0  0  0  0  0  0
   50.2535  162.7040   32.8640 H   0  0  0  0  0  0  0  0  0  0  0  0
   48.3940  161.1720   33.4100 H   0  0  0  0  0  0  0  0  0  0  0  0
   48.1810  156.4060   30.1150 H   0  0  0  0  0  0  0  0  0  0  0  0
   51.0291  154.9662   29.6915 H   0  0  0  0  0  0  0  0  0  0  0  0
   53.0019  152.5392   28.8146 H   0  0  0  0  0  0  0  0  0  0  0  0
   51.2193  152.8155   29.0140 H   0  0  0  0  0  0  0  0  0  0  0  0
   51.4636  151.0715   27.3998 H   0  0  0  0  0  0  0  0  0  0  0  0
   51.0169  152.5598   26.4988 H   0  0  0  0  0  0  0  0  0  0  0  0
   52.7193  151.9869   26.4988 H   0  0  0  0  0  0  0  0  0  0  0  0
  1  2  1  0
  2  3  1  0
  3  4  1  0
  4  5  2  0
  5  6  1  0
  6  7  2  0
  7  8  1  0
  8  9  1  0
  9 10  1  0
 10 11  2  0
 11 12  1  0
 12 13  2  0
 13 14  1  0
 14 15  1  0
 14 16  2  0
 16 17  1  0
 17 18  2  0
 17 19  1  0
 19 20  1  0
  7 21  1  0
 21 22  2  0
 22 23  1  0
 23 24  1  0
 22  4  1  0
 19  8  2  0
 16 10  1  0
  1 25  1  0
  1 26  1  0
  1 27  1  0
  2 28  1  0
  2 29  1  0
  3 30  1  0
  3 31  1  0
  5 32  1  0
  6 33  1  0
 11 34  1  0
 12 35  1  0
 13 36  1  0
 15 37  1  0
 20 38  1  0
 21 39  1  0
 23 40  1  0
 23 41  1  0
 24 42  1  0
 24 43  1  0
 24 44  1  0
M  END
>  <meeko>  (8) 
{"is_sidechain": [false], "free_energy": -8.426, "intermolecular_energy": -11.315, "internal_energy": 0.226}

$$$$
cand_053_out
     RDKit          3D

 44 46  0  0  0  0  0  0  0  0999 V2000
   52.2300  161.4970   31.2000 C   0  0  0  0  0  0  0  0  0  0  0  0
   51.2120  160.7780   30.3280 C   0  0  0  0  0  0  0  0  0  0  0  0
   50.8970  159.3840   30.8740 C   0  0  0  0  0  0  0  0  0  0  0  0
   51.3210  158.2960   29.9110 C   0  0  0  0  0  0  0  0  0  0  0  0
   52.5850  158.4060   29.3050 C   0  0  0  0  0  0  0  0  0  0  0  0
   53.0460  157.4320   28.4170 C   0  0  0  0  0  0  0  0  0  0  0  0
   52.2630  156.3140   28.1140 C   0  0  0  0  0  0  0  0  0  0  0  0
   52.7560  155.3090   27.1480 C   0  0  0  0  0  0  0  0  0  0  0  0
   52.3270  154.0200   27.4430 O   0  0  0  0  0  0  0  0  0  0  0  0
   52.7130  152.9880   26.6260 C   0  0  0  0  0  0  0  0  0  0  0  0
   52.2720  151.7100   26.9700 C   0  0  0  0  0  0  0  0  0  0  0  0
   52.6280  150.6140   26.1790 C   0  0  0  0  0  0  0  0  0  0  0  0
   53.4230  150.7980   25.0450 C   0  0  0  0  0  0  0  0  0  0  0  0
   53.8610  152.0760   24.7060 C   0  0  0  0  0  0  0  0  0  0  0  0
   54.6360  152.1840   23.5840 O   0  0  0  0  0  0  0  0  0  0  0  0
   53.5060  153.1710   25.4980 C   0  0  0  0  0  0  0  0  0  0  0  0
   53.9450  154.5290   25.1770 C   0  0  0  0  0  0  0  0  0  0  0  0
   54.6400  154.7720   24.1920 O   0  0  0  0  0  0  0  0  0  0  0  0
   53.5210  155.6190   26.0850 C   0  0  0  0  0  0  0  0  0  0  0  0
   53.9310  156.9010   25.7630 O   0  0  0  0  0  0  0  0  0  0  0  0
   51.0020  156.2050   28.7140 C   0  0  0  0  0  0  0  0  0  0  0  0
   50.5210  157.1740   29.6200 C   0  0  0  0  0  0  0  0  0  0  0  0
   49.1450  156.9670   30.2120 C   0  0  0  0  0  0  0  0  0  0  0  0
   48.1570  158.0220   29.7360 C   0  0  0  0  0  0  0  0  0  0  0  0
   51.9898  161.3273   32.2600 H   0  0  0  0  0  0  0  0  0  0  0  0
   53.2364  161.1082   30.9853 H   0  0  0  0  0  0  0  0  0  0  0  0
   52.2001  162.5754   30.9853 H   0  0  0  0  0  0  0  0  0  0  0  0
   50.2847  161.3690   30.2984 H   0  0  0  0  0  0  0  0  0  0  0  0
   51.6360  160.6676   29.3190 H   0  0  0  0  0  0  0  0  0  0  0  0
   51.4305  159.2452   31.8259 H   0  0  0  0  0  0  0  0  0  0  0  0
   49.8089  159.3099   31.0172 H   0  0  0  0  0  0  0  0  0  0  0  0
   53.2211  159.2736   29.5342 H   0  0  0  0  0  0  0  0  0  0  0  0
   54.0358  157.5455   27.9508 H   0  0  0  0  0  0  0  0  0  0  0  0
   51.6452  151.5651   27.8622 H   0  0  0  0  0  0  0  0  0  0  0  0
   52.2819  149.6056   26.4496 H   0  0  0  0  0  0  0  0  0  0  0  0
   53.7023  149.9359   24.4215 H   0  0  0  0  0  0  0  0  0  0  0  0
   55.4530  152.6420   23.6210 H   0  0  0  0  0  0  0  0  0  0  0  0
   53.8440  157.5910   26.3900 H   0  0  0  0  0  0  0  0  0  0  0  0
   50.3684  155.3390   28.4719 H   0  0  0  0  0  0  0  0  0  0  0  0
   48.7758  155.9744   29.9147 H   0  0  0  0  0  0  0  0  0  0  0  0
   49.2291  157.0481   31.3058 H   0  0  0  0  0  0  0  0  0  0  0  0
   47.6972  158.5130   30.6064 H   0  0  0  0  0  0  0  0  0  0  0  0
   48.6854  158.7717   29.1288 H   0  0  0  0  0  0  0  0  0  0  0  0
   47.3743  157.5439   29.1288 H   0  0  0  0  0  0  0  0  0  0  0  0
  1  2  1  0
  2  3  1  0
  3  4  1  0
  4  5  2  0
  5  6  1  0
  6  7  2  0
  7  8  1  0
  8  9  1  0
  9 10  1  0
 10 11  2  0
 11 12  1  0
 12 13  2  0
 13 14  1  0
 14 15  1  0
 14 16  2  0
 16 17  1  0
 17 18  2  0
 17 19  1  0
 19 20  1  0
  7 21  1  0
 21 22  2  0
 22 23  1  0
 23 24  1  0
 22  4  1  0
 19  8  2  0
 16 10  1  0
  1 25  1  0
  1 26  1  0
  1 27  1  0
  2 28  1  0
  2 29  1  0
  3 30  1  0
  3 31  1  0
  5 32  1  0
  6 33  1  0
 11 34  1  0
 12 35  1  0
 13 36  1  0
 15 37  1  0
 20 38  1  0
 21 39  1  0
 23 40  1  0
 23 41  1  0
 24 42  1  0
 24 43  1  0
 24 44  1  0
M  END
>  <meeko>  (9) 
{"is_sidechain": [false], "free_energy": -8.053, "intermolecular_energy": -10.568, "internal_energy": -0.04}

$$$$
