cand_028_out
     RDKit          3D

 38 40  0  0  0  0  0  0  0  0999 V2000
   47.3160  159.7310   30.8130 C   0  0  0  0  0  0  0  0  0  0  0  0
   48.3190  158.8470   31.5410 C   0  0  0  0  0  0  0  0  0  0  0  0
   49.6880  158.9030   30.9030 C   0  0  0  0  0  0  0  0  0  0  0  0
   50.1440  157.7680   30.2010 C   0  0  0  0  0  0  0  0  0  0  0  0
   51.4090  157.7320   29.5990 C   0  0  0  0  0  0  0  0  0  0  0  0
   51.8770  156.5530   28.8400 C   0  0  0  0  0  0  0  0  0  0  0  0
   52.4750  156.8930   27.6310 O   0  0  0  0  0  0  0  0  0  0  0  0
   52.9550  155.8920   26.8240 C   0  0  0  0  0  0  0  0  0  0  0  0
   53.5320  156.2770   25.6140 C   0  0  0  0  0  0  0  0  0  0  0  0
   54.0420  155.3080   24.7460 C   0  0  0  0  0  0  0  0  0  0  0  0
   53.9750  153.9560   25.0890 C   0  0  0  0  0  0  0  0  0  0  0  0
   53.3990  153.5760   26.2980 C   0  0  0  0  0  0  0  0  0  0  0  0
   53.3660  152.2350   26.5720 O   0  0  0  0  0  0  0  0  0  0  0  0
   52.8870  154.5450   27.1650 C   0  0  0  0  0  0  0  0  0  0  0  0
   52.2730  154.1880   28.4460 C   0  0  0  0  0  0  0  0  0  0  0  0
   52.1840  153.0210   28.8210 O   0  0  0  0  0  0  0  0  0  0  0  0
   51.7550  155.2900   29.2870 C   0  0  0  0  0  0  0  0  0  0  0  0
   51.1890  154.9420   30.5000 O   0  0  0  0  0  0  0  0  0  0  0  0
   52.2220  158.8670   29.6950 C   0  0  0  0  0  0  0  0  0  0  0  0
   51.7880  159.9980   30.3920 C   0  0  0  0  0  0  0  0  0  0  0  0
   50.5290  160.0270   31.0090 C   0  0  0  0  0  0  0  0  0  0  0  0
   50.1080  161.2720   31.7420 C   0  0  0  0  0  0  0  0  0  0  0  0
   46.7024  160.2718   31.5485 H   0  0  0  0  0  0  0  0  0  0  0  0
   47.8543  160.4538   30.1822 H   0  0  0  0  0  0  0  0  0  0  0  0
   46.6666  159.1062   30.1822 H   0  0  0  0  0  0  0  0  0  0  0  0
   48.3991  159.1852   32.5847 H   0  0  0  0  0  0  0  0  0  0  0  0
   47.9602  157.8086   31.4866 H   0  0  0  0  0  0  0  0  0  0  0  0
   49.4892  156.8875   30.1239 H   0  0  0  0  0  0  0  0  0  0  0  0
   53.5855  157.3418   25.3434 H   0  0  0  0  0  0  0  0  0  0  0  0
   54.4969  155.6106   23.7912 H   0  0  0  0  0  0  0  0  0  0  0  0
   54.3764  153.1932   24.4056 H   0  0  0  0  0  0  0  0  0  0  0  0
   53.8360  151.8970   27.3090 H   0  0  0  0  0  0  0  0  0  0  0  0
   50.7490  154.1200   30.5930 H   0  0  0  0  0  0  0  0  0  0  0  0
   53.2127  158.8690   29.2170 H   0  0  0  0  0  0  0  0  0  0  0  0
   52.4438  160.8787   30.4576 H   0  0  0  0  0  0  0  0  0  0  0  0
   50.1672  161.0968   32.8263 H   0  0  0  0  0  0  0  0  0  0  0  0
   50.7753  162.1023   31.4677 H   0  0  0  0  0  0  0  0  0  0  0  0
   49.0737  161.5269   31.4677 H   0  0  0  0  0  0  0  0  0  0  0  0
  1  2  1  0
  2  3  1  0
  3  4  2  0
  4  5  1  0
  5  6  1  0
  6  7  1  0
  7  8  1  0
  8  9  2  0
  9 10  1  0
 10 11  2  0
 11 12  1  0
 12 13  1  0
 12 14  2  0
 14 15  1  0
 15 16  2  0
 15 17  1  0
 17 18  1  0
  5 19  2  0
 19 20  1  0
 20 21  2  0
 21 22  1  0
 21  3  1  0
 17  6  2  0
 14  8  1  0
  1 23  1  0
  1 24  1  0
  1 25  1  0
  2 26  1  0
  2 27  1  0
  4 28  1  0
  9 29  1  0
 10 30  1  0
 11 31  1  0
 13 32  1  0
 18 33  1  0
 19 34  1  0
 20 35  1  0
 22 36  1  0
 22 37  1  0
 22 38  1  0
M  END
>  <meeko>  (1) 
{"is_sidechain": [false], "free_energy": -10.691, "intermolecular_energy": -12.566, "internal_energy": 0.015}

$$$$
cand_028_out
     RDKit          3D

 38 40  0  0  0  0  0  0  0  0999 V2000
   53.9560  156.4870   25.1500 C   0  0  0  0  0  0  0  0  0  0  0  0
   53.4150  155.0930   25.4300 C   0  0  0  0  0  0  0  0  0  0  0  0
   52.7660  155.0030   26.7920 C   0  0  0  0  0  0  0  0  0  0  0  0
   52.4250  156.2020   27.4500 C   0  0  0  0  0  0  0  0  0  0  0  0
   51.8390  156.2050   28.7230 C   0  0  0  0  0  0  0  0  0  0  0  0
   51.4570  157.4610   29.4020 C   0  0  0  0  0  0  0  0  0  0  0  0
   50.1350  157.4610   29.8330 O   0  0  0  0  0  0  0  0  0  0  0  0
   49.6480  158.5690   30.4800 C   0  0  0  0  0  0  0  0  0  0  0  0
   48.3130  158.5320   30.8810 C   0  0  0  0  0  0  0  0  0  0  0  0
   47.7540  159.6250   31.5470 C   0  0  0  0  0  0  0  0  0  0  0  0
   48.5310  160.7560   31.8100 C   0  0  0  0  0  0  0  0  0  0  0  0
   49.8640  160.7890   31.4090 C   0  0  0  0  0  0  0  0  0  0  0  0
   50.5680  161.9260   31.7000 O   0  0  0  0  0  0  0  0  0  0  0  0
   50.4220  159.6950   30.7420 C   0  0  0  0  0  0  0  0  0  0  0  0
   51.8190  159.6900   30.3030 C   0  0  0  0  0  0  0  0  0  0  0  0
   52.5670  160.6430   30.5050 O   0  0  0  0  0  0  0  0  0  0  0  0
   52.3100  158.4840   29.5980 C   0  0  0  0  0  0  0  0  0  0  0  0
   53.6340  158.4850   29.1990 O   0  0  0  0  0  0  0  0  0  0  0  0
   51.5790  154.9750   29.3360 C   0  0  0  0  0  0  0  0  0  0  0  0
   51.9150  153.7760   28.7010 C   0  0  0  0  0  0  0  0  0  0  0  0
   52.5180  153.7740   27.4340 C   0  0  0  0  0  0  0  0  0  0  0  0
   52.8550  152.4560   26.7920 C   0  0  0  0  0  0  0  0  0  0  0  0
   54.1555  157.0009   26.1019 H   0  0  0  0  0  0  0  0  0  0  0  0
   54.8892  156.4091   24.5728 H   0  0  0  0  0  0  0  0  0  0  0  0
   53.2146  157.0590   24.5728 H   0  0  0  0  0  0  0  0  0  0  0  0
   52.6681  154.8408   24.6629 H   0  0  0  0  0  0  0  0  0  0  0  0
   54.2598  154.3888   25.4079 H   0  0  0  0  0  0  0  0  0  0  0  0
   52.6243  157.1616   26.9506 H   0  0  0  0  0  0  0  0  0  0  0  0
   47.7004  157.6424   30.6729 H   0  0  0  0  0  0  0  0  0  0  0  0
   46.7013  159.5954   31.8647 H   0  0  0  0  0  0  0  0  0  0  0  0
   48.0908  161.6181   32.3325 H   0  0  0  0  0  0  0  0  0  0  0  0
   51.0580  162.3580   31.0280 H   0  0  0  0  0  0  0  0  0  0  0  0
   54.0700  157.6770   29.0160 H   0  0  0  0  0  0  0  0  0  0  0  0
   51.1051  154.9510   30.3284 H   0  0  0  0  0  0  0  0  0  0  0  0
   51.7036  152.8198   29.2020 H   0  0  0  0  0  0  0  0  0  0  0  0
   53.0468  151.7059   27.5734 H   0  0  0  0  0  0  0  0  0  0  0  0
   52.0122  152.1267   26.1666 H   0  0  0  0  0  0  0  0  0  0  0  0
   53.7525  152.5716   26.1666 H   0  0  0  0  0  0  0  0  0  0  0  0
  1  2  1  0
  2  3  1  0
  3  4  2  0
  4  5  1  0
  5  6  1  0
  6  7  1  0
  7  8  1  0
  8  9  2  0
  9 10  1  0
 10 11  2  0
 11 12  1  0
 12 13  1  0
 12 14  2  0
 14 15  1  0
 15 16  2  0
 15 17  1  0
 17 18  1  0
  5 19  2  0
 19 20  1  0
 20 21  2  0
 21 22  1  0
 21  3  1  0
 17  6  2  0
 14  8  1  0
  1 23  1  0
  1 24  1  0
  1 25  1  0
  2 26  1  0
  2 27  1  0
  4 28  1  0
  9 29  1  0
 10 30  1  0
 11 31  1  0
 13 32  1  0
 18 33  1  0
 19 34  1  0
 20 35  1  0
 22 36  1  0
 22 37  1  0
 22 38  1  0
M  END
>  <meeko>  (2) 
{"is_sidechain": [false], "free_energy": -10.362, "intermolecular_energy": -11.901, "internal_energy": -0.263}

$$$$
cand_028_out
     RDKit          3D

 38 40  0  0  0  0  0  0  0  0999 V2000
   52.7670  161.2120   31.7120 C   0  0  0  0  0  0  0  0  0  0  0  0
   51.8990  161.1540   30.4640 C   0  0  0  0  0  0  0  0  0  0  0  0
   51.1340  159.8530   30.3690 C   0  0  0  0  0  0  0  0  0  0  0  0
   51.7190  158.7850   29.6590 C   0  0  0  0  0  0  0  0  0  0  0  0
   51.0670  157.5540   29.5080 C   0  0  0  0  0  0  0  0  0  0  0  0
   51.6910  156.4250   28.7860 C   0  0  0  0  0  0  0  0  0  0  0  0
   52.2650  156.8070   27.5790 O   0  0  0  0  0  0  0  0  0  0  0  0
   52.8790  155.8550   26.8060 C   0  0  0  0  0  0  0  0  0  0  0  0
   53.4270  156.2800   25.5950 C   0  0  0  0  0  0  0  0  0  0  0  0
   54.0690  155.3620   24.7610 C   0  0  0  0  0  0  0  0  0  0  0  0
   54.1620  154.0190   25.1370 C   0  0  0  0  0  0  0  0  0  0  0  0
   53.6140  153.5990   26.3450 C   0  0  0  0  0  0  0  0  0  0  0  0
   53.7410  152.2710   26.6530 O   0  0  0  0  0  0  0  0  0  0  0  0
   52.9710  154.5180   27.1790 C   0  0  0  0  0  0  0  0  0  0  0  0
   52.3810  154.1170   28.4590 C   0  0  0  0  0  0  0  0  0  0  0  0
   52.4290  152.9570   28.8610 O   0  0  0  0  0  0  0  0  0  0  0  0
   51.7160  155.1670   29.2630 C   0  0  0  0  0  0  0  0  0  0  0  0
   51.1740  154.7790   30.4750 O   0  0  0  0  0  0  0  0  0  0  0  0
   49.8070  157.3940   30.0960 C   0  0  0  0  0  0  0  0  0  0  0  0
   49.2100  158.4450   30.7980 C   0  0  0  0  0  0  0  0  0  0  0  0
   49.8560  159.6820   30.9340 C   0  0  0  0  0  0  0  0  0  0  0  0
   49.1710  160.7780   31.7050 C   0  0  0  0  0  0  0  0  0  0  0  0
   52.1273  161.1693   32.6059 H   0  0  0  0  0  0  0  0  0  0  0  0
   53.4605  160.3582   31.7163 H   0  0  0  0  0  0  0  0  0  0  0  0
   53.3408  162.1505   31.7163 H   0  0  0  0  0  0  0  0  0  0  0  0
   51.1814  161.9873   30.4909 H   0  0  0  0  0  0  0  0  0  0  0  0
   52.5584  161.2266   29.5865 H   0  0  0  0  0  0  0  0  0  0  0  0
   52.7144  158.9217   29.2113 H   0  0  0  0  0  0  0  0  0  0  0  0
   53.3534  157.3365   25.2978 H   0  0  0  0  0  0  0  0  0  0  0  0
   54.5021  155.6964   23.8068 H   0  0  0  0  0  0  0  0  0  0  0  0
   54.6671  153.2960   24.4796 H   0  0  0  0  0  0  0  0  0  0  0  0
   53.0200  151.6880   26.5160 H   0  0  0  0  0  0  0  0  0  0  0  0
   50.8820  153.8970   30.5980 H   0  0  0  0  0  0  0  0  0  0  0  0
   49.2815  156.4319   30.0048 H   0  0  0  0  0  0  0  0  0  0  0  0
   48.2181  158.2994   31.2507 H   0  0  0  0  0  0  0  0  0  0  0  0
   49.2857  160.5945   32.7835 H   0  0  0  0  0  0  0  0  0  0  0  0
   49.6249  161.7463   31.4475 H   0  0  0  0  0  0  0  0  0  0  0  0
   48.1017  160.7943   31.4475 H   0  0  0  0  0  0  0  0  0  0  0  0
  1  2  1  0
  2  3  1  0
  3  4  2  0
  4  5  1  0
  5  6  1  0
  6  7  1  0
  7  8  1  0
  8  9  2  0
  9 10  1  0
 10 11  2  0
 11 12  1  0
 12 13  1  0
 12 14  2  0
 14 15  1  0
 15 16  2  0
 15 17  1  0
 17 18  1  0
  5 19  2  0
 19 20  1  0
 20 21  2  0
 21 22  1  0
 21  3  1  0
 17  6  2  0
 14  8  1  0
  1 23  1  0
  1 24  1  0
  1 25  1  0
  2 26  1  0
  2 27  1  0
  4 28  1  0
  9 29  1  0
 10 30  1  0
 11 31  1  0
 13 32  1  0
 18 33  1  0
 19 34  1  0
 20 35  1  0
 22 36  1  0
 22 37  1  0
 22 38  1  0
M  END
>  <meeko>  (3) 
{"is_sidechain": [false], "free_energy": -10.049, "intermolecular_energy": -11.678, "internal_energy": -0.118}

$$$$
cand_028_out
     RDKit          3D

 38 40  0  0  0  0  0  0  0  0999 V2000
   54.1550  156.6140   25.1500 C   0  0  0  0  0  0  0  0  0  0  0  0
   53.4150  155.2870   25.2270 C   0  0  0  0  0  0  0  0  0  0  0  0
   52.8720  155.0230   26.6130 C   0  0  0  0  0  0  0  0  0  0  0  0
   52.2920  156.0970   27.3180 C   0  0  0  0  0  0  0  0  0  0  0  0
   51.7840  155.9400   28.6150 C   0  0  0  0  0  0  0  0  0  0  0  0
   51.1520  157.0590   29.3450 C   0  0  0  0  0  0  0  0  0  0  0  0
   52.0290  158.1110   29.5840 O   0  0  0  0  0  0  0  0  0  0  0  0
   51.5710  159.2170   30.2560 C   0  0  0  0  0  0  0  0  0  0  0  0
   52.4890  160.2410   30.4870 C   0  0  0  0  0  0  0  0  0  0  0  0
   52.0880  161.3960   31.1630 C   0  0  0  0  0  0  0  0  0  0  0  0
   50.7700  161.5250   31.6080 C   0  0  0  0  0  0  0  0  0  0  0  0
   49.8570  160.5000   31.3750 C   0  0  0  0  0  0  0  0  0  0  0  0
   48.5830  160.6920   31.8370 O   0  0  0  0  0  0  0  0  0  0  0  0
   50.2590  159.3450   30.6990 C   0  0  0  0  0  0  0  0  0  0  0  0
   49.3300  158.2440   30.4340 C   0  0  0  0  0  0  0  0  0  0  0  0
   48.1540  158.2870   30.7870 O   0  0  0  0  0  0  0  0  0  0  0  0
   49.8590  157.0610   29.7170 C   0  0  0  0  0  0  0  0  0  0  0  0
   48.9690  156.0340   29.4610 O   0  0  0  0  0  0  0  0  0  0  0  0
   51.8510  154.6730   29.2040 C   0  0  0  0  0  0  0  0  0  0  0  0
   52.4280  153.5980   28.5210 C   0  0  0  0  0  0  0  0  0  0  0  0
   52.9510  153.7600   27.2300 C   0  0  0  0  0  0  0  0  0  0  0  0
   53.5560  152.5700   26.5380 C   0  0  0  0  0  0  0  0  0  0  0  0
   54.3589  156.9797   26.1672 H   0  0  0  0  0  0  0  0  0  0  0  0
   55.1050  156.4735   24.6136 H   0  0  0  0  0  0  0  0  0  0  0  0
   53.5361  157.3483   24.6136 H   0  0  0  0  0  0  0  0  0  0  0  0
   52.5771  155.3054   24.5145 H   0  0  0  0  0  0  0  0  0  0  0  0
   54.1271  154.4853   24.9818 H   0  0  0  0  0  0  0  0  0  0  0  0
   52.2365  157.0849   26.8374 H   0  0  0  0  0  0  0  0  0  0  0  0
   53.5271  160.1395   30.1376 H   0  0  0  0  0  0  0  0  0  0  0  0
   52.8109  162.2048   31.3451 H   0  0  0  0  0  0  0  0  0  0  0  0
   50.4544  162.4340   32.1411 H   0  0  0  0  0  0  0  0  0  0  0  0
   48.0930  159.9670   32.1730 H   0  0  0  0  0  0  0  0  0  0  0  0
   49.0050  155.2450   29.9660 H   0  0  0  0  0  0  0  0  0  0  0  0
   51.4455  154.5208   30.2151 H   0  0  0  0  0  0  0  0  0  0  0  0
   52.4723  152.6105   29.0036 H   0  0  0  0  0  0  0  0  0  0  0  0
   53.9198  151.8544   27.2900 H   0  0  0  0  0  0  0  0  0  0  0  0
   52.7948  152.0855   25.9089 H   0  0  0  0  0  0  0  0  0  0  0  0
   54.3960  152.8996   25.9089 H   0  0  0  0  0  0  0  0  0  0  0  0
  1  2  1  0
  2  3  1  0
  3  4  2  0
  4  5  1  0
  5  6  1  0
  6  7  1  0
  7  8  1  0
  8  9  2  0
  9 10  1  0
 10 11  2  0
 11 12  1  0
 12 13  1  0
 12 14  2  0
 14 15  1  0
 15 16  2  0
 15 17  1  0
 17 18  1  0
  5 19  2  0
 19 20  1  0
 20 21  2  0
 21 22  1  0
 21  3  1  0
 17  6  2  0
 14  8  1  0
  1 23  1  0
  1 24  1  0
  1 25  1  0
  2 26  1  0
  2 27  1  0
  4 28  1  0
  9 29  1  0
 10 30  1  0
 11 31  1  0
 13 32  1  0
 18 33  1  0
 19 34  1  0
 20 35  1  0
 22 36  1  0
 22 37  1  0
 22 38  1  0
M  END
>  <meeko>  (4) 
{"is_sidechain": [false], "free_energy": -9.01, "intermolecular_energy": -10.236, "internal_energy": -0.339}

$$$$
cand_028_out
     RDKit          3D

 38 40  0  0  0  0  0  0  0  0999 V2000
   51.5050  152.4850   27.7430 C   0  0  0  0  0  0  0  0  0  0  0  0
   52.1340  153.3610   28.8170 C   0  0  0  0  0  0  0  0  0  0  0  0
   52.3120  154.7880   28.3500 C   0  0  0  0  0  0  0  0  0  0  0  0
   51.8150  155.8240   29.1660 C   0  0  0  0  0  0  0  0  0  0  0  0
   51.9220  157.1710   28.7940 C   0  0  0  0  0  0  0  0  0  0  0  0
   51.4260  158.2610   29.6620 C   0  0  0  0  0  0  0  0  0  0  0  0
   50.0870  158.1090   30.0060 O   0  0  0  0  0  0  0  0  0  0  0  0
   49.4970  159.0520   30.8080 C   0  0  0  0  0  0  0  0  0  0  0  0
   48.1490  158.8690   31.1150 C   0  0  0  0  0  0  0  0  0  0  0  0
   47.4880  159.7910   31.9290 C   0  0  0  0  0  0  0  0  0  0  0  0
   48.1750  160.8970   32.4360 C   0  0  0  0  0  0  0  0  0  0  0  0
   49.5200  161.0770   32.1280 C   0  0  0  0  0  0  0  0  0  0  0  0
   50.1330  162.1800   32.6570 O   0  0  0  0  0  0  0  0  0  0  0  0
   50.1810  160.1540   31.3120 C   0  0  0  0  0  0  0  0  0  0  0  0
   51.5960  160.3060   30.9640 C   0  0  0  0  0  0  0  0  0  0  0  0
   52.2690  161.2470   31.3770 O   0  0  0  0  0  0  0  0  0  0  0  0
   52.1990  159.2770   30.0870 C   0  0  0  0  0  0  0  0  0  0  0  0
   53.5380  159.4240   29.7750 O   0  0  0  0  0  0  0  0  0  0  0  0
   52.5550  157.4770   27.5840 C   0  0  0  0  0  0  0  0  0  0  0  0
   53.0480  156.4620   26.7600 C   0  0  0  0  0  0  0  0  0  0  0  0
   52.9250  155.1130   27.1250 C   0  0  0  0  0  0  0  0  0  0  0  0
   53.4770  154.0590   26.2040 C   0  0  0  0  0  0  0  0  0  0  0  0
   50.9266  151.6795   28.2191 H   0  0  0  0  0  0  0  0  0  0  0  0
   50.8373  153.0950   27.1168 H   0  0  0  0  0  0  0  0  0  0  0  0
   52.2964  152.0473   27.1168 H   0  0  0  0  0  0  0  0  0  0  0  0
   51.4847  153.3561   29.7049 H   0  0  0  0  0  0  0  0  0  0  0  0
   53.1285  152.9526   29.0498 H   0  0  0  0  0  0  0  0  0  0  0  0
   51.3304  155.5687   30.1199 H   0  0  0  0  0  0  0  0  0  0  0  0
   47.6069  157.9989   30.7162 H   0  0  0  0  0  0  0  0  0  0  0  0
   46.4248  159.6464   32.1715 H   0  0  0  0  0  0  0  0  0  0  0  0
   47.6540  161.6235   33.0769 H   0  0  0  0  0  0  0  0  0  0  0  0
   49.7430  162.6300   33.3800 H   0  0  0  0  0  0  0  0  0  0  0  0
   54.1870  159.3520   30.4470 H   0  0  0  0  0  0  0  0  0  0  0  0
   52.6656  158.5279   27.2783 H   0  0  0  0  0  0  0  0  0  0  0  0
   53.5396  156.7244   25.8116 H   0  0  0  0  0  0  0  0  0  0  0  0
   53.9060  153.2398   26.7997 H   0  0  0  0  0  0  0  0  0  0  0  0
   52.6686  153.6666   25.5695 H   0  0  0  0  0  0  0  0  0  0  0  0
   54.2599  154.5000   25.5695 H   0  0  0  0  0  0  0  0  0  0  0  0
  1  2  1  0
  2  3  1  0
  3  4  2  0
  4  5  1  0
  5  6  1  0
  6  7  1  0
  7  8  1  0
  8  9  2  0
  9 10  1  0
 10 11  2  0
 11 12  1  0
 12 13  1  0
 12 14  2  0
 14 15  1  0
 15 16  2  0
 15 17  1  0
 17 18  1  0
  5 19  2  0
 19 20  1  0
 20 21  2  0
 21 22  1  0
 21  3  1  0
 17  6  2  0
 14  8  1  0
  1 23  1  0
  1 24  1  0
  1 25  1  0
  2 26  1  0
  2 27  1  0
  4 28  1  0
  9 29  1  0
 10 30  1  0
 11 31  1  0
 13 32  1  0
 18 33  1  0
 19 34  1  0
 20 35  1  0
 22 36  1  0
 22 37  1  0
 22 38  1  0
M  END
>  <meeko>  (5) 
{"is_sidechain": [false], "free_energy": -8.42, "intermolecular_energy": -10.259, "internal_energy": 0.378}

$$$$
cand_028_out
     RDKit          3D

 38 40  0  0  0  0  0  0  0  0999 V2000
   50.8100  160.4710   29.9500 C   0  0  0  0  0  0  0  0  0  0  0  0
   51.8460  159.3640   30.0770 C   0  0  0  0  0  0  0  0  0  0  0  0
   51.2810  158.0160   29.6900 C   0  0  0  0  0  0  0  0  0  0  0  0
   51.9940  157.2380   28.7540 C   0  0  0  0  0  0  0  0  0  0  0  0
   51.5280  155.9870   28.3280 C   0  0  0  0  0  0  0  0  0  0  0  0
   52.2870  155.1580   27.3680 C   0  0  0  0  0  0  0  0  0  0  0  0
   51.9640  153.8080   27.4470 O   0  0  0  0  0  0  0  0  0  0  0  0
   52.5970  152.9240   26.6100 C   0  0  0  0  0  0  0  0  0  0  0  0
   52.2540  151.5780   26.7350 C   0  0  0  0  0  0  0  0  0  0  0  0
   52.8590  150.6260   25.9120 C   0  0  0  0  0  0  0  0  0  0  0  0
   53.8080  151.0200   24.9650 C   0  0  0  0  0  0  0  0  0  0  0  0
   54.1470  152.3640   24.8430 C   0  0  0  0  0  0  0  0  0  0  0  0
   55.0820  152.6820   23.8950 O   0  0  0  0  0  0  0  0  0  0  0  0
   53.5420  153.3170   25.6680 C   0  0  0  0  0  0  0  0  0  0  0  0
   53.8710  154.7410   25.5720 C   0  0  0  0  0  0  0  0  0  0  0  0
   54.6880  155.1660   24.7590 O   0  0  0  0  0  0  0  0  0  0  0  0
   53.1780  155.6660   26.4970 C   0  0  0  0  0  0  0  0  0  0  0  0
   53.4870  157.0100   26.3880 O   0  0  0  0  0  0  0  0  0  0  0  0
   50.3290  155.5070   28.8670 C   0  0  0  0  0  0  0  0  0  0  0  0
   49.6070  156.2680   29.7910 C   0  0  0  0  0  0  0  0  0  0  0  0
   50.0650  157.5270   30.2040 C   0  0  0  0  0  0  0  0  0  0  0  0
   49.2530  158.3030   31.2050 C   0  0  0  0  0  0  0  0  0  0  0  0
   50.5012  160.8010   30.9529 H   0  0  0  0  0  0  0  0  0  0  0  0
   51.2457  161.3199   29.4027 H   0  0  0  0  0  0  0  0  0  0  0  0
   49.9341  160.0925   29.4027 H   0  0  0  0  0  0  0  0  0  0  0  0
   52.6963  159.5955   29.4187 H   0  0  0  0  0  0  0  0  0  0  0  0
   52.1620  159.3118   31.1294 H   0  0  0  0  0  0  0  0  0  0  0  0
   52.9408  157.6235   28.3478 H   0  0  0  0  0  0  0  0  0  0  0  0
   51.5079  151.2668   27.4809 H   0  0  0  0  0  0  0  0  0  0  0  0
   52.5882  149.5643   26.0093 H   0  0  0  0  0  0  0  0  0  0  0  0
   54.2857  150.2698   24.3178 H   0  0  0  0  0  0  0  0  0  0  0  0
   55.4490  152.0090   23.3560 H   0  0  0  0  0  0  0  0  0  0  0  0
   53.1940  157.5000   25.6460 H   0  0  0  0  0  0  0  0  0  0  0  0
   49.9508  154.5206   28.5604 H   0  0  0  0  0  0  0  0  0  0  0  0
   48.6654  155.8731   30.2002 H   0  0  0  0  0  0  0  0  0  0  0  0
   49.5540  158.0154   32.2232 H   0  0  0  0  0  0  0  0  0  0  0  0
   49.4262  159.3798   31.0618 H   0  0  0  0  0  0  0  0  0  0  0  0
   48.1852  158.0812   31.0618 H   0  0  0  0  0  0  0  0  0  0  0  0
  1  2  1  0
  2  3  1  0
  3  4  2  0
  4  5  1  0
  5  6  1  0
  6  7  1  0
  7  8  1  0
  8  9  2  0
  9 10  1  0
 10 11  2  0
 11 12  1  0
 12 13  1  0
 12 14  2  0
 14 15  1  0
 15 16  2  0
 15 17  1  0
 17 18  1  0
  5 19  2  0
 19 20  1  0
 20 21  2  0
 21 22  1  0
 21  3  1  0
 17  6  2  0
 14  8  1  0
  1 23  1  0
  1 24  1  0
  1 25  1  0
  2 26  1  0
  2 27  1  0
  4 28  1  0
  9 29  1  0
 10 30  1  0
 11 31  1  0
 13 32  1  0
 18 33  1  0
 19 34  1  0
 20 35  1  0
 22 36  1  0
 22 37  1  0
 22 38  1  0
M  END
>  <meeko>  (6) 
{"is_sidechain": [false], "free_energy": -8.309, "intermolecular_energy": -10.435, "internal_energy": 0.685}

$$$$
cand_028_out
     RDKit          3D

 38 40  0  0  0  0  0  0  0  0999 V2000
   51.5800  152.3130   27.5620 C   0  0  0  0  0  0  0  0  0  0  0  0
   52.2540  153.1420   28.6450 C   0  0  0  0  0  0  0  0  0  0  0  0
   52.3350  154.6040   28.2690 C   0  0  0  0  0  0  0  0  0  0  0  0
   51.6710  155.5410   29.0860 C   0  0  0  0  0  0  0  0  0  0  0  0
   51.6810  156.9120   28.7950 C   0  0  0  0  0  0  0  0  0  0  0  0
   51.0070  157.8990   29.6650 C   0  0  0  0  0  0  0  0  0  0  0  0
   51.8150  158.9880   29.9720 O   0  0  0  0  0  0  0  0  0  0  0  0
   51.3140  159.9810   30.7750 C   0  0  0  0  0  0  0  0  0  0  0  0
   52.1640  161.0470   31.0690 C   0  0  0  0  0  0  0  0  0  0  0  0
   51.7150  162.0930   31.8790 C   0  0  0  0  0  0  0  0  0  0  0  0
   50.4170  162.0720   32.3950 C   0  0  0  0  0  0  0  0  0  0  0  0
   49.5720  161.0070   32.0990 C   0  0  0  0  0  0  0  0  0  0  0  0
   48.3130  161.0490   32.6350 O   0  0  0  0  0  0  0  0  0  0  0  0
   50.0210  159.9600   31.2890 C   0  0  0  0  0  0  0  0  0  0  0  0
   49.1640  158.8210   30.9540 C   0  0  0  0  0  0  0  0  0  0  0  0
   48.0090  158.7350   31.3630 O   0  0  0  0  0  0  0  0  0  0  0  0
   49.7390  157.7610   30.0950 C   0  0  0  0  0  0  0  0  0  0  0  0
   48.9160  156.6970   29.7740 O   0  0  0  0  0  0  0  0  0  0  0  0
   52.3860  157.3450   27.6660 C   0  0  0  0  0  0  0  0  0  0  0  0
   53.0450  156.4290   26.8420 C   0  0  0  0  0  0  0  0  0  0  0  0
   53.0200  155.0550   27.1250 C   0  0  0  0  0  0  0  0  0  0  0  0
   53.7510  154.1120   26.2080 C   0  0  0  0  0  0  0  0  0  0  0  0
   50.9518  151.5404   28.0293 H   0  0  0  0  0  0  0  0  0  0  0  0
   50.9535  152.9662   26.9368 H   0  0  0  0  0  0  0  0  0  0  0  0
   52.3473  151.8330   26.9368 H   0  0  0  0  0  0  0  0  0  0  0  0
   51.6771  153.0461   29.5767 H   0  0  0  0  0  0  0  0  0  0  0  0
   53.2798  152.7660   28.7725 H   0  0  0  0  0  0  0  0  0  0  0  0
   51.1303  155.1868   29.9760 H   0  0  0  0  0  0  0  0  0  0  0  0
   53.1865  161.0641   30.6637 H   0  0  0  0  0  0  0  0  0  0  0  0
   52.3846  162.9344   32.1108 H   0  0  0  0  0  0  0  0  0  0  0  0
   50.0640  162.8952   33.0336 H   0  0  0  0  0  0  0  0  0  0  0  0
   48.0520  160.4080   33.2670 H   0  0  0  0  0  0  0  0  0  0  0  0
   48.6760  156.5410   28.8820 H   0  0  0  0  0  0  0  0  0  0  0  0
   52.4216  158.4177   27.4249 H   0  0  0  0  0  0  0  0  0  0  0  0
   53.5915  156.7904   25.9584 H   0  0  0  0  0  0  0  0  0  0  0  0
   54.3163  153.3828   26.8069 H   0  0  0  0  0  0  0  0  0  0  0  0
   53.0257  153.5817   25.5734 H   0  0  0  0  0  0  0  0  0  0  0  0
   54.4454  154.6822   25.5734 H   0  0  0  0  0  0  0  0  0  0  0  0
  1  2  1  0
  2  3  1  0
  3  4  2  0
  4  5  1  0
  5  6  1  0
  6  7  1  0
  7  8  1  0
  8  9  2  0
  9 10  1  0
 10 11  2  0
 11 12  1  0
 12 13  1  0
 12 14  2  0
 14 15  1  0
 15 16  2  0
 15 17  1  0
 17 18  1  0
  5 19  2  0
 19 20  1  0
 20 21  2  0
 21 22  1  0
 21  3  1  0
 17  6  2  0
 14  8  1  0
  1 23  1  0
  1 24  1  0
  1 25  1  0
  2 26  1  0
  2 27  1  0
  4 28  1  0
  9 29  1  0
 10 30  1  0
 11 31  1  0
 13 32  1  0
 18 33  1  0
 19 34  1  0
 20 35  1  0
 22 36  1  0
 22 37  1  0
 22 38  1  0
M  END
>  <meeko>  (7) 
{"is_sidechain": [false], "free_energy": -7.741, "intermolecular_energy": -9.263, "internal_energy": 0.179}

$$$$
