cand_046_out
     RDKit          3D

 39 41  0  0  0  0  0  0  0  0999 V2000
   47.2970  159.6600   30.9170 C   0  0  0  0  0  0  0  0  0  0  0  0
   48.2700  158.8450   31.3440 C   0  0  0  0  0  0  0  0  0  0  0  0
   49.6420  158.8830   30.8160 C   0  0  0  0  0  0  0  0  0  0  0  0
   50.1240  157.7780   30.0900 C   0  0  0  0  0  0  0  0  0  0  0  0
   51.4110  157.7670   29.5310 C   0  0  0  0  0  0  0  0  0  0  0  0
   51.8860  156.5720   28.8010 C   0  0  0  0  0  0  0  0  0  0  0  0
   52.4840  156.8840   27.5850 O   0  0  0  0  0  0  0  0  0  0  0  0
   52.9720  155.8670   26.8060 C   0  0  0  0  0  0  0  0  0  0  0  0
   53.5510  156.2250   25.5880 C   0  0  0  0  0  0  0  0  0  0  0  0
   54.0700  155.2370   24.7470 C   0  0  0  0  0  0  0  0  0  0  0  0
   54.0110  153.8950   25.1250 C   0  0  0  0  0  0  0  0  0  0  0  0
   53.4320  153.5400   26.3410 C   0  0  0  0  0  0  0  0  0  0  0  0
   53.4060  152.2070   26.6480 O   0  0  0  0  0  0  0  0  0  0  0  0
   52.9120  154.5290   27.1810 C   0  0  0  0  0  0  0  0  0  0  0  0
   52.2960  154.2000   28.4680 C   0  0  0  0  0  0  0  0  0  0  0  0
   52.2120  153.0420   28.8720 O   0  0  0  0  0  0  0  0  0  0  0  0
   51.7700  155.3190   29.2810 C   0  0  0  0  0  0  0  0  0  0  0  0
   51.2030  154.9990   30.5000 O   0  0  0  0  0  0  0  0  0  0  0  0
   52.2250  158.8880   29.7160 C   0  0  0  0  0  0  0  0  0  0  0  0
   51.7590  159.9970   30.4270 C   0  0  0  0  0  0  0  0  0  0  0  0
   50.4690  160.0110   30.9840 C   0  0  0  0  0  0  0  0  0  0  0  0
   50.0270  161.2480   31.7330 C   0  0  0  0  0  0  0  0  0  0  0  0
   49.9850  161.0200   33.2370 C   0  0  0  0  0  0  0  0  0  0  0  0
   46.2882  159.5858   31.3492 H   0  0  0  0  0  0  0  0  0  0  0  0
   47.5065  160.4037   30.1340 H   0  0  0  0  0  0  0  0  0  0  0  0
   48.0313  158.1113   32.1280 H   0  0  0  0  0  0  0  0  0  0  0  0
   49.4749  156.8999   29.9573 H   0  0  0  0  0  0  0  0  0  0  0  0
   53.5988  157.2829   25.2904 H   0  0  0  0  0  0  0  0  0  0  0  0
   54.5256  155.5175   23.7859 H   0  0  0  0  0  0  0  0  0  0  0  0
   54.4214  153.1182   24.4631 H   0  0  0  0  0  0  0  0  0  0  0  0
   53.5550  151.9270   27.5290 H   0  0  0  0  0  0  0  0  0  0  0  0
   51.1910  154.1090   30.7920 H   0  0  0  0  0  0  0  0  0  0  0  0
   53.2424  158.8973   29.2978 H   0  0  0  0  0  0  0  0  0  0  0  0
   52.4124  160.8730   30.5527 H   0  0  0  0  0  0  0  0  0  0  0  0
   50.7319  162.0645   31.5173 H   0  0  0  0  0  0  0  0  0  0  0  0
   49.0099  161.5015   31.3995 H   0  0  0  0  0  0  0  0  0  0  0  0
   50.1606  161.9731   33.7574 H   0  0  0  0  0  0  0  0  0  0  0  0
   48.9988  160.6238   33.5204 H   0  0  0  0  0  0  0  0  0  0  0  0
   50.7653  160.2983   33.5204 H   0  0  0  0  0  0  0  0  0  0  0  0
  1  2  2  0
  2  3  1  0
  3  4  2  0
  4  5  1  0
  5  6  1  0
  6  7  1  0
  7  8  1  0
  8  9  2  0
  9 10  1  0
 10 11  2  0
 11 12  1  0
 12 13  1  0
 12 14  2  0
 14 15  1  0
 15 16  2  0
 15 17  1  0
 17 18  1  0
  5 19  2  0
 19 20  1  0
 20 21  2  0
 21 22  1  0
 22 23  1  0
 21  3  1  0
 17  6  2  0
 14  8  1  0
  1 24  1  0
  1 25  1  0
  2 26  1  0
  4 27  1  0
  9 28  1  0
 10 29  1  0
 11 30  1  0
 13 31  1  0
 18 32  1  0
 19 33  1  0
 20 34  1  0
 22 35  1  0
 22 36  1  0
 23 37  1  0
 23 38  1  0
 23 39  1  0
M  END
>  <meeko>  (1) 
{"is_sidechain": [false], "free_energy": -11.419, "intermolecular_energy": -14.09, "internal_energy": 0.053}

$$$$
cand_046_out
     RDKit          3D

 39 41  0  0  0  0  0  0  0  0999 V2000
   51.5210  161.4500   31.8560 C   0  0  0  0  0  0  0  0  0  0  0  0
   51.5630  160.8170   30.6770 C   0  0  0  0  0  0  0  0  0  0  0  0
   50.8500  159.5590   30.4110 C   0  0  0  0  0  0  0  0  0  0  0  0
   51.5270  158.5180   29.7490 C   0  0  0  0  0  0  0  0  0  0  0  0
   50.9150  157.2810   29.4980 C   0  0  0  0  0  0  0  0  0  0  0  0
   51.6560  156.2270   28.7730 C   0  0  0  0  0  0  0  0  0  0  0  0
   52.2020  156.6770   27.5770 O   0  0  0  0  0  0  0  0  0  0  0  0
   52.9180  155.8010   26.8030 C   0  0  0  0  0  0  0  0  0  0  0  0
   53.4370  156.2920   25.6040 C   0  0  0  0  0  0  0  0  0  0  0  0
   54.1780  155.4510   24.7690 C   0  0  0  0  0  0  0  0  0  0  0  0
   54.4010  154.1230   25.1350 C   0  0  0  0  0  0  0  0  0  0  0  0
   53.8830  153.6350   26.3320 C   0  0  0  0  0  0  0  0  0  0  0  0
   54.1380  152.3230   26.6280 O   0  0  0  0  0  0  0  0  0  0  0  0
   53.1400  154.4760   27.1650 C   0  0  0  0  0  0  0  0  0  0  0  0
   52.5780  154.0040   28.4320 C   0  0  0  0  0  0  0  0  0  0  0  0
   52.7360  152.8500   28.8240 O   0  0  0  0  0  0  0  0  0  0  0  0
   51.8010  154.9720   29.2390 C   0  0  0  0  0  0  0  0  0  0  0  0
   51.2870  154.5210   30.4400 O   0  0  0  0  0  0  0  0  0  0  0  0
   49.5930  157.0980   29.9160 C   0  0  0  0  0  0  0  0  0  0  0  0
   48.9090  158.1180   30.5820 C   0  0  0  0  0  0  0  0  0  0  0  0
   49.5230  159.3560   30.8380 C   0  0  0  0  0  0  0  0  0  0  0  0
   48.7260  160.4110   31.5710 C   0  0  0  0  0  0  0  0  0  0  0  0
   47.2860  159.9790   31.8040 C   0  0  0  0  0  0  0  0  0  0  0  0
   52.0759  162.3894   31.9960 H   0  0  0  0  0  0  0  0  0  0  0  0
   50.9316  161.0307   32.6847 H   0  0  0  0  0  0  0  0  0  0  0  0
   52.1608  161.2602   29.8669 H   0  0  0  0  0  0  0  0  0  0  0  0
   52.5641  158.6786   29.4195 H   0  0  0  0  0  0  0  0  0  0  0  0
   53.2631  157.3395   25.3166 H   0  0  0  0  0  0  0  0  0  0  0  0
   54.5857  155.8362   23.8227 H   0  0  0  0  0  0  0  0  0  0  0  0
   54.9857  153.4620   24.4783 H   0  0  0  0  0  0  0  0  0  0  0  0
   54.7390  152.1070   27.3120 H   0  0  0  0  0  0  0  0  0  0  0  0
   50.7960  153.7230   30.4690 H   0  0  0  0  0  0  0  0  0  0  0  0
   49.0868  156.1416   29.7185 H   0  0  0  0  0  0  0  0  0  0  0  0
   47.8731  157.9494   30.9114 H   0  0  0  0  0  0  0  0  0  0  0  0
   49.2012  160.6023   32.5445 H   0  0  0  0  0  0  0  0  0  0  0  0
   48.7118  161.3185   30.9495 H   0  0  0  0  0  0  0  0  0  0  0  0
   47.0911  159.9205   32.8850 H   0  0  0  0  0  0  0  0  0  0  0  0
   46.6048  160.7123   31.3477 H   0  0  0  0  0  0  0  0  0  0  0  0
   47.1209  158.9918   31.3477 H   0  0  0  0  0  0  0  0  0  0  0  0
  1  2  2  0
  2  3  1  0
  3  4  2  0
  4  5  1  0
  5  6  1  0
  6  7  1  0
  7  8  1  0
  8  9  2  0
  9 10  1  0
 10 11  2  0
 11 12  1  0
 12 13  1  0
 12 14  2  0
 14 15  1  0
 15 16  2  0
 15 17  1  0
 17 18  1  0
  5 19  2  0
 19 20  1  0
 20 21  2  0
 21 22  1  0
 22 23  1  0
 21  3  1  0
 17  6  2  0
 14  8  1  0
  1 24  1  0
  1 25  1  0
  2 26  1  0
  4 27  1  0
  9 28  1  0
 10 29  1  0
 11 30  1  0
 13 31  1  0
 18 32  1  0
 19 33  1  0
 20 34  1  0
 22 35  1  0
 22 36  1  0
 23 37  1  0
 23 38  1  0
 23 39  1  0
M  END
>  <meeko>  (2) 
{"is_sidechain": [false], "free_energy": -10.822, "intermolecular_energy": -13.416, "internal_energy": 0.116}

$$$$
cand_046_out
     RDKit          3D

 39 41  0  0  0  0  0  0  0  0999 V2000
   53.0970  156.3060   24.8770 C   0  0  0  0  0  0  0  0  0  0  0  0
   53.6560  156.2200   26.0910 C   0  0  0  0  0  0  0  0  0  0  0  0
   52.8810  155.9990   27.3210 C   0  0  0  0  0  0  0  0  0  0  0  0
   52.3690  157.1110   28.0150 C   0  0  0  0  0  0  0  0  0  0  0  0
   51.5920  156.9650   29.1740 C   0  0  0  0  0  0  0  0  0  0  0  0
   51.1010  158.1640   29.8870 C   0  0  0  0  0  0  0  0  0  0  0  0
   49.7770  158.0450   30.2930 O   0  0  0  0  0  0  0  0  0  0  0  0
   49.1950  159.0860   30.9690 C   0  0  0  0  0  0  0  0  0  0  0  0
   47.8600  158.9300   31.3450 C   0  0  0  0  0  0  0  0  0  0  0  0
   47.2070  159.9520   32.0380 C   0  0  0  0  0  0  0  0  0  0  0  0
   47.8890  161.1280   32.3550 C   0  0  0  0  0  0  0  0  0  0  0  0
   49.2210  161.2820   31.9790 C   0  0  0  0  0  0  0  0  0  0  0  0
   49.8280  162.4600   32.3200 O   0  0  0  0  0  0  0  0  0  0  0  0
   49.8730  160.2590   31.2840 C   0  0  0  0  0  0  0  0  0  0  0  0
   51.2720  160.3800   30.8700 C   0  0  0  0  0  0  0  0  0  0  0  0
   51.9400  161.3820   31.1170 O   0  0  0  0  0  0  0  0  0  0  0  0
   51.8680  159.2420   30.1330 C   0  0  0  0  0  0  0  0  0  0  0  0
   53.1930  159.3600   29.7590 O   0  0  0  0  0  0  0  0  0  0  0  0
   51.3360  155.6730   29.6430 C   0  0  0  0  0  0  0  0  0  0  0  0
   51.8290  154.5580   28.9610 C   0  0  0  0  0  0  0  0  0  0  0  0
   52.6040  154.7020   27.7980 C   0  0  0  0  0  0  0  0  0  0  0  0
   53.0970  153.4510   27.1070 C   0  0  0  0  0  0  0  0  0  0  0  0
   51.9500  152.5580   26.6560 C   0  0  0  0  0  0  0  0  0  0  0  0
   53.7280  156.4724   23.9915 H   0  0  0  0  0  0  0  0  0  0  0  0
   52.0069  156.2102   24.7654 H   0  0  0  0  0  0  0  0  0  0  0  0
   54.7485  156.3196   26.1720 H   0  0  0  0  0  0  0  0  0  0  0  0
   52.5838  158.1220   27.6386 H   0  0  0  0  0  0  0  0  0  0  0  0
   47.3226  158.0031   31.0958 H   0  0  0  0  0  0  0  0  0  0  0  0
   46.1547  159.8300   32.3341 H   0  0  0  0  0  0  0  0  0  0  0  0
   47.3747  161.9324   32.9013 H   0  0  0  0  0  0  0  0  0  0  0  0
   50.0820  163.0660   31.6530 H   0  0  0  0  0  0  0  0  0  0  0  0
   53.8620  158.9450   30.2680 H   0  0  0  0  0  0  0  0  0  0  0  0
   50.7409  155.5332   30.5575 H   0  0  0  0  0  0  0  0  0  0  0  0
   51.6066  153.5500   29.3410 H   0  0  0  0  0  0  0  0  0  0  0  0
   53.6882  153.7416   26.2260 H   0  0  0  0  0  0  0  0  0  0  0  0
   53.7062  152.8838   27.8261 H   0  0  0  0  0  0  0  0  0  0  0  0
   51.4312  152.1541   27.5379 H   0  0  0  0  0  0  0  0  0  0  0  0
   51.2432  153.1459   26.0521 H   0  0  0  0  0  0  0  0  0  0  0  0
   52.3467  151.7286   26.0521 H   0  0  0  0  0  0  0  0  0  0  0  0
  1  2  2  0
  2  3  1  0
  3  4  2  0
  4  5  1  0
  5  6  1  0
  6  7  1  0
  7  8  1  0
  8  9  2  0
  9 10  1  0
 10 11  2  0
 11 12  1  0
 12 13  1  0
 12 14  2  0
 14 15  1  0
 15 16  2  0
 15 17  1  0
 17 18  1  0
  5 19  2  0
 19 20  1  0
 20 21  2  0
 21 22  1  0
 22 23  1  0
 21  3  1  0
 17  6  2  0
 14  8  1  0
  1 24  1  0
  1 25  1  0
  2 26  1  0
  4 27  1  0
  9 28  1  0
 10 29  1  0
 11 30  1  0
 13 31  1  0
 18 32  1  0
 19 33  1  0
 20 34  1  0
 22 35  1  0
 22 36  1  0
 23 37  1  0
 23 38  1  0
 23 39  1  0
M  END
>  <meeko>  (3) 
{"is_sidechain": [false], "free_energy": -10.788, "intermolecular_energy": -12.96, "internal_energy": -0.297}

$$$$
cand_046_out
     RDKit          3D

 39 41  0  0  0  0  0  0  0  0999 V2000
   51.6350  152.5540   28.2270 C   0  0  0  0  0  0  0  0  0  0  0  0
   52.0000  153.5670   29.0230 C   0  0  0  0  0  0  0  0  0  0  0  0
   52.1660  154.9480   28.5450 C   0  0  0  0  0  0  0  0  0  0  0  0
   51.6830  156.0070   29.3360 C   0  0  0  0  0  0  0  0  0  0  0  0
   51.8420  157.3470   28.9530 C   0  0  0  0  0  0  0  0  0  0  0  0
   51.2920  158.4250   29.8030 C   0  0  0  0  0  0  0  0  0  0  0  0
   49.9600  158.2180   30.1410 O   0  0  0  0  0  0  0  0  0  0  0  0
   49.3250  159.1430   30.9290 C   0  0  0  0  0  0  0  0  0  0  0  0
   47.9850  158.9030   31.2330 C   0  0  0  0  0  0  0  0  0  0  0  0
   47.2790  159.8060   32.0330 C   0  0  0  0  0  0  0  0  0  0  0  0
   47.9140  160.9450   32.5290 C   0  0  0  0  0  0  0  0  0  0  0  0
   49.2520  161.1820   32.2250 C   0  0  0  0  0  0  0  0  0  0  0  0
   49.8120  162.3190   32.7440 O   0  0  0  0  0  0  0  0  0  0  0  0
   49.9570  160.2800   31.4230 C   0  0  0  0  0  0  0  0  0  0  0  0
   51.3640  160.4910   31.0800 C   0  0  0  0  0  0  0  0  0  0  0  0
   51.9930  161.4680   31.4830 O   0  0  0  0  0  0  0  0  0  0  0  0
   52.0180  159.4800   30.2190 C   0  0  0  0  0  0  0  0  0  0  0  0
   53.3510  159.6810   29.9120 O   0  0  0  0  0  0  0  0  0  0  0  0
   52.4920  157.6190   27.7460 C   0  0  0  0  0  0  0  0  0  0  0  0
   52.9850  156.5810   26.9520 C   0  0  0  0  0  0  0  0  0  0  0  0
   52.8300  155.2380   27.3370 C   0  0  0  0  0  0  0  0  0  0  0  0
   53.3960  154.1650   26.4330 C   0  0  0  0  0  0  0  0  0  0  0  0
   52.9700  154.3560   24.9850 C   0  0  0  0  0  0  0  0  0  0  0  0
   51.5266  151.5407   28.6410 H   0  0  0  0  0  0  0  0  0  0  0  0
   51.4435  152.7352   27.1590 H   0  0  0  0  0  0  0  0  0  0  0  0
   52.1848  153.3560   30.0866 H   0  0  0  0  0  0  0  0  0  0  0  0
   51.1669  155.7778   30.2800 H   0  0  0  0  0  0  0  0  0  0  0  0
   47.4844  158.0042   30.8436 H   0  0  0  0  0  0  0  0  0  0  0  0
   46.2217  159.6184   32.2717 H   0  0  0  0  0  0  0  0  0  0  0  0
   47.3584  161.6549   33.1594 H   0  0  0  0  0  0  0  0  0  0  0  0
   50.5800  162.6830   32.3510 H   0  0  0  0  0  0  0  0  0  0  0  0
   53.9460  158.9570   29.9140 H   0  0  0  0  0  0  0  0  0  0  0  0
   52.6166  158.6615   27.4179 H   0  0  0  0  0  0  0  0  0  0  0  0
   53.5026  156.8182   26.0108 H   0  0  0  0  0  0  0  0  0  0  0  0
   54.4942  154.1979   26.4873 H   0  0  0  0  0  0  0  0  0  0  0  0
   53.0094  153.1938   26.7754 H   0  0  0  0  0  0  0  0  0  0  0  0
   51.9667  154.8059   24.9543 H   0  0  0  0  0  0  0  0  0  0  0  0
   53.6851  155.0197   24.4769 H   0  0  0  0  0  0  0  0  0  0  0  0
   52.9502  153.3806   24.4769 H   0  0  0  0  0  0  0  0  0  0  0  0
  1  2  2  0
  2  3  1  0
  3  4  2  0
  4  5  1  0
  5  6  1  0
  6  7  1  0
  7  8  1  0
  8  9  2  0
  9 10  1  0
 10 11  2  0
 11 12  1  0
 12 13  1  0
 12 14  2  0
 14 15  1  0
 15 16  2  0
 15 17  1  0
 17 18  1  0
  5 19  2  0
 19 20  1  0
 20 21  2  0
 21 22  1  0
 22 23  1  0
 21  3  1  0
 17  6  2  0
 14  8  1  0
  1 24  1  0
  1 25  1  0
  2 26  1  0
  4 27  1  0
  9 28  1  0
 10 29  1  0
 11 30  1  0
 13 31  1  0
 18 32  1  0
 19 33  1  0
 20 34  1  0
 22 35  1  0
 22 36  1  0
 23 37  1  0
 23 38  1  0
 23 39  1  0
M  END
>  <meeko>  (4) 
{"is_sidechain": [false], "free_energy": -9.822, "intermolecular_energy": -12.167, "internal_energy": 0.101}

$$$$
cand_046_out
     RDKit          3D

 39 41  0  0  0  0  0  0  0  0999 V2000
   53.1820  156.2430   24.7100 C   0  0  0  0  0  0  0  0  0  0  0  0
   53.7340  156.0770   25.9190 C   0  0  0  0  0  0  0  0  0  0  0  0
   52.9610  155.7020   27.1120 C   0  0  0  0  0  0  0  0  0  0  0  0
   52.2690  156.7030   27.8190 C   0  0  0  0  0  0  0  0  0  0  0  0
   51.4860  156.4040   28.9440 C   0  0  0  0  0  0  0  0  0  0  0  0
   50.8010  157.4920   29.6740 C   0  0  0  0  0  0  0  0  0  0  0  0
   51.6490  158.5470   29.9900 O   0  0  0  0  0  0  0  0  0  0  0  0
   51.1420  159.6260   30.6660 C   0  0  0  0  0  0  0  0  0  0  0  0
   52.0320  160.6560   30.9750 C   0  0  0  0  0  0  0  0  0  0  0  0
   51.5790  161.7860   31.6620 C   0  0  0  0  0  0  0  0  0  0  0  0
   50.2390  161.8850   32.0370 C   0  0  0  0  0  0  0  0  0  0  0  0
   49.3520  160.8570   31.7280 C   0  0  0  0  0  0  0  0  0  0  0  0
   48.0530  161.0190   32.1270 O   0  0  0  0  0  0  0  0  0  0  0  0
   49.8060  159.7270   31.0420 C   0  0  0  0  0  0  0  0  0  0  0  0
   48.9080  158.6230   30.6970 C   0  0  0  0  0  0  0  0  0  0  0  0
   47.7140  158.6400   30.9890 O   0  0  0  0  0  0  0  0  0  0  0  0
   49.4890  157.4680   29.9750 C   0  0  0  0  0  0  0  0  0  0  0  0
   48.6300  156.4370   29.6420 O   0  0  0  0  0  0  0  0  0  0  0  0
   51.4090  155.0730   29.3650 C   0  0  0  0  0  0  0  0  0  0  0  0
   52.0820  154.0660   28.6690 C   0  0  0  0  0  0  0  0  0  0  0  0
   52.8640  154.3630   27.5390 C   0  0  0  0  0  0  0  0  0  0  0  0
   53.5580  153.2220   26.8300 C   0  0  0  0  0  0  0  0  0  0  0  0
   52.6280  152.5000   25.8650 C   0  0  0  0  0  0  0  0  0  0  0  0
   53.8106  156.5243   23.8523 H   0  0  0  0  0  0  0  0  0  0  0  0
   52.1000  156.0980   24.5748 H   0  0  0  0  0  0  0  0  0  0  0  0
   54.8184  156.2286   26.0244 H   0  0  0  0  0  0  0  0  0  0  0  0
   52.3440  157.7470   27.4807 H   0  0  0  0  0  0  0  0  0  0  0  0
   53.0884  160.5786   30.6783 H   0  0  0  0  0  0  0  0  0  0  0  0
   52.2797  162.5978   31.9071 H   0  0  0  0  0  0  0  0  0  0  0  0
   49.8831  162.7750   32.5767 H   0  0  0  0  0  0  0  0  0  0  0  0
   47.4640  161.5250   31.6050 H   0  0  0  0  0  0  0  0  0  0  0  0
   48.4630  155.7500   30.2570 H   0  0  0  0  0  0  0  0  0  0  0  0
   50.8127  154.8163   30.2529 H   0  0  0  0  0  0  0  0  0  0  0  0
   51.9988  153.0237   29.0106 H   0  0  0  0  0  0  0  0  0  0  0  0
   54.4136  153.6222   26.2662 H   0  0  0  0  0  0  0  0  0  0  0  0
   53.8861  152.4986   27.5909 H   0  0  0  0  0  0  0  0  0  0  0  0
   51.8847  151.9229   26.4347 H   0  0  0  0  0  0  0  0  0  0  0  0
   52.1129  153.2371   25.2315 H   0  0  0  0  0  0  0  0  0  0  0  0
   53.2144  151.8182   25.2315 H   0  0  0  0  0  0  0  0  0  0  0  0
  1  2  2  0
  2  3  1  0
  3  4  2  0
  4  5  1  0
  5  6  1  0
  6  7  1  0
  7  8  1  0
  8  9  2  0
  9 10  1  0
 10 11  2  0
 11 12  1  0
 12 13  1  0
 12 14  2  0
 14 15  1  0
 15 16  2  0
 15 17  1  0
 17 18  1  0
  5 19  2  0
 19 20  1  0
 20 21  2  0
 21 22  1  0
 22 23  1  0
 21  3  1  0
 17  6  2  0
 14  8  1  0
  1 24  1  0
  1 25  1  0
  2 26  1  0
  4 27  1  0
  9 28  1  0
 10 29  1  0
 11 30  1  0
 13 31  1  0
 18 32  1  0
 19 33  1  0
 20 34  1  0
 22 35  1  0
 22 36  1  0
 23 37  1  0
 23 38  1  0
 23 39  1  0
M  END
>  <meeko>  (5) 
{"is_sidechain": [false], "free_energy": -8.962, "intermolecular_energy": -10.508, "internal_energy": -0.497}

$$$$
