cand_048_out
     RDKit          3D

 37 39  0  0  0  0  0  0  0  0999 V2000
   50.1010  161.3220   32.9730 C   0  0  0  0  0  0  0  0  0  0  0  0
   50.1130  161.2270   31.6380 C   0  0  0  0  0  0  0  0  0  0  0  0
   50.5150  160.0140   30.9040 C   0  0  0  0  0  0  0  0  0  0  0  0
   51.7980  159.9510   30.3340 C   0  0  0  0  0  0  0  0  0  0  0  0
   52.2320  158.8040   29.6650 C   0  0  0  0  0  0  0  0  0  0  0  0
   51.4030  157.6830   29.5570 C   0  0  0  0  0  0  0  0  0  0  0  0
   51.8690  156.4910   28.8170 C   0  0  0  0  0  0  0  0  0  0  0  0
   52.4490  156.8060   27.5940 O   0  0  0  0  0  0  0  0  0  0  0  0
   52.9230  155.7900   26.8040 C   0  0  0  0  0  0  0  0  0  0  0  0
   53.4820  156.1490   25.5770 C   0  0  0  0  0  0  0  0  0  0  0  0
   53.9860  155.1650   24.7250 C   0  0  0  0  0  0  0  0  0  0  0  0
   53.9320  153.8210   25.1010 C   0  0  0  0  0  0  0  0  0  0  0  0
   53.3740  153.4640   26.3260 C   0  0  0  0  0  0  0  0  0  0  0  0
   53.3530  152.1310   26.6300 O   0  0  0  0  0  0  0  0  0  0  0  0
   52.8690  154.4510   27.1770 C   0  0  0  0  0  0  0  0  0  0  0  0
   52.2740  154.1190   28.4720 C   0  0  0  0  0  0  0  0  0  0  0  0
   52.1970  152.9610   28.8760 O   0  0  0  0  0  0  0  0  0  0  0  0
   51.7610  155.2380   29.2970 C   0  0  0  0  0  0  0  0  0  0  0  0
   51.2130  154.9160   30.5250 O   0  0  0  0  0  0  0  0  0  0  0  0
   50.1220  157.7430   30.1250 C   0  0  0  0  0  0  0  0  0  0  0  0
   49.6720  158.8860   30.8150 C   0  0  0  0  0  0  0  0  0  0  0  0
   48.3040  158.9000   31.3650 C   0  0  0  0  0  0  0  0  0  0  0  0
   47.3260  159.6890   30.9030 C   0  0  0  0  0  0  0  0  0  0  0  0
   49.7887  162.2603   33.4548 H   0  0  0  0  0  0  0  0  0  0  0  0
   50.4034  160.4618   33.5883 H   0  0  0  0  0  0  0  0  0  0  0  0
   49.8045  162.1066   31.0540 H   0  0  0  0  0  0  0  0  0  0  0  0
   52.4705  160.8177   30.4158 H   0  0  0  0  0  0  0  0  0  0  0  0
   53.2370  158.7824   29.2182 H   0  0  0  0  0  0  0  0  0  0  0  0
   53.5255  157.2076   25.2811 H   0  0  0  0  0  0  0  0  0  0  0  0
   54.4258  155.4481   23.7573 H   0  0  0  0  0  0  0  0  0  0  0  0
   54.3298  153.0452   24.4302 H   0  0  0  0  0  0  0  0  0  0  0  0
   53.9100  151.7960   27.3050 H   0  0  0  0  0  0  0  0  0  0  0  0
   50.3240  154.6260   30.5790 H   0  0  0  0  0  0  0  0  0  0  0  0
   49.4519  156.8759   30.0294 H   0  0  0  0  0  0  0  0  0  0  0  0
   48.0741  158.2242   32.2019 H   0  0  0  0  0  0  0  0  0  0  0  0
   46.3259  159.6498   31.3593 H   0  0  0  0  0  0  0  0  0  0  0  0
   47.5226  160.3764   30.0671 H   0  0  0  0  0  0  0  0  0  0  0  0
  1  2  2  0
  2  3  1  0
  3  4  2  0
  4  5  1  0
  5  6  2  0
  6  7  1  0
  7  8  1  0
  8  9  1  0
  9 10  2  0
 10 11  1  0
 11 12  2  0
 12 13  1  0
 13 14  1  0
 13 15  2  0
 15 16  1  0
 16 17  2  0
 16 18  1  0
 18 19  1  0
  6 20  1  0
 20 21  2  0
 21 22  1  0
 22 23  2  0
 21  3  1  0
 18  7  2  0
 15  9  1  0
  1 24  1  0
  1 25  1  0
  2 26  1  0
  4 27  1  0
  5 28  1  0
 10 29  1  0
 11 30  1  0
 12 31  1  0
 14 32  1  0
 19 33  1  0
 20 34  1  0
 22 35  1  0
 23 36  1  0
 23 37  1  0
M  END
>  <meeko>  (1) 
{"is_sidechain": [false], "free_energy": -11.557, "intermolecular_energy": -14.259, "internal_energy": -0.04}

$$$$
cand_048_out
     RDKit          3D

 37 39  0  0  0  0  0  0  0  0999 V2000
   52.2480  152.7110   26.2670 C   0  0  0  0  0  0  0  0  0  0  0  0
   53.0010  153.4650   27.0770 C   0  0  0  0  0  0  0  0  0  0  0  0
   52.5190  154.6880   27.7450 C   0  0  0  0  0  0  0  0  0  0  0  0
   51.7370  154.5720   28.9050 C   0  0  0  0  0  0  0  0  0  0  0  0
   51.2940  155.7070   29.5910 C   0  0  0  0  0  0  0  0  0  0  0  0
   51.6300  156.9880   29.1430 C   0  0  0  0  0  0  0  0  0  0  0  0
   51.1250  158.1760   29.8630 C   0  0  0  0  0  0  0  0  0  0  0  0
   49.7990  158.0460   30.2580 O   0  0  0  0  0  0  0  0  0  0  0  0
   49.2040  159.0790   30.9360 C   0  0  0  0  0  0  0  0  0  0  0  0
   47.8670  158.9120   31.3000 C   0  0  0  0  0  0  0  0  0  0  0  0
   47.2030  159.9250   31.9930 C   0  0  0  0  0  0  0  0  0  0  0  0
   47.8740  161.1030   32.3250 C   0  0  0  0  0  0  0  0  0  0  0  0
   49.2080  161.2670   31.9610 C   0  0  0  0  0  0  0  0  0  0  0  0
   49.8050  162.4450   32.3180 O   0  0  0  0  0  0  0  0  0  0  0  0
   49.8730  160.2530   31.2660 C   0  0  0  0  0  0  0  0  0  0  0  0
   51.2740  160.3860   30.8650 C   0  0  0  0  0  0  0  0  0  0  0  0
   51.9350  161.3890   31.1260 O   0  0  0  0  0  0  0  0  0  0  0  0
   51.8840  159.2560   30.1240 C   0  0  0  0  0  0  0  0  0  0  0  0
   53.2110  159.3840   29.7610 O   0  0  0  0  0  0  0  0  0  0  0  0
   52.4110  157.1060   27.9840 C   0  0  0  0  0  0  0  0  0  0  0  0
   52.8780  155.9740   27.2880 C   0  0  0  0  0  0  0  0  0  0  0  0
   53.6710  156.1630   26.0590 C   0  0  0  0  0  0  0  0  0  0  0  0
   53.1300  156.3420   24.8470 C   0  0  0  0  0  0  0  0  0  0  0  0
   52.6735  151.8098   25.8014 H   0  0  0  0  0  0  0  0  0  0  0  0
   51.2036  152.9926   26.0669 H   0  0  0  0  0  0  0  0  0  0  0  0
   54.0410  153.1539   27.2549 H   0  0  0  0  0  0  0  0  0  0  0  0
   51.4687  153.5733   29.2799 H   0  0  0  0  0  0  0  0  0  0  0  0
   50.6746  155.5908   30.4926 H   0  0  0  0  0  0  0  0  0  0  0  0
   47.3375  157.9833   31.0410 H   0  0  0  0  0  0  0  0  0  0  0  0
   46.1486  159.7949   32.2782 H   0  0  0  0  0  0  0  0  0  0  0  0
   47.3502  161.9001   32.8730 H   0  0  0  0  0  0  0  0  0  0  0  0
   50.5640  162.4390   32.8670 H   0  0  0  0  0  0  0  0  0  0  0  0
   53.7020  160.1340   30.0360 H   0  0  0  0  0  0  0  0  0  0  0  0
   52.6653  158.1083   27.6089 H   0  0  0  0  0  0  0  0  0  0  0  0
   54.7678  156.1566   26.1424 H   0  0  0  0  0  0  0  0  0  0  0  0
   53.7793  156.4774   23.9694 H   0  0  0  0  0  0  0  0  0  0  0  0
   52.0364  156.3536   24.7291 H   0  0  0  0  0  0  0  0  0  0  0  0
  1  2  2  0
  2  3  1  0
  3  4  2  0
  4  5  1  0
  5  6  2  0
  6  7  1  0
  7  8  1  0
  8  9  1  0
  9 10  2  0
 10 11  1  0
 11 12  2  0
 12 13  1  0
 13 14  1  0
 13 15  2  0
 15 16  1  0
 16 17  2  0
 16 18  1  0
 18 19  1  0
  6 20  1  0
 20 21  2  0
 21 22  1  0
 22 23  2  0
 21  3  1  0
 18  7  2  0
 15  9  1  0
  1 24  1  0
  1 25  1  0
  2 26  1  0
  4 27  1  0
  5 28  1  0
 10 29  1  0
 11 30  1  0
 12 31  1  0
 14 32  1  0
 19 33  1  0
 20 34  1  0
 22 35  1  0
 23 36  1  0
 23 37  1  0
M  END
>  <meeko>  (2) 
{"is_sidechain": [false], "free_energy": -10.843, "intermolecular_energy": -13.066, "internal_energy": -0.352}

$$$$
cand_048_out
     RDKit          3D

 37 39  0  0  0  0  0  0  0  0999 V2000
   51.5810  161.1430   31.4840 C   0  0  0  0  0  0  0  0  0  0  0  0
   50.6930  160.2330   31.0640 C   0  0  0  0  0  0  0  0  0  0  0  0
   51.0490  159.0460   30.2660 C   0  0  0  0  0  0  0  0  0  0  0  0
   52.3390  158.9490   29.7180 C   0  0  0  0  0  0  0  0  0  0  0  0
   52.7280  157.8220   28.9900 C   0  0  0  0  0  0  0  0  0  0  0  0
   51.8450  156.7550   28.7970 C   0  0  0  0  0  0  0  0  0  0  0  0
   52.2640  155.5870   27.9960 C   0  0  0  0  0  0  0  0  0  0  0  0
   52.9690  155.9400   26.8510 O   0  0  0  0  0  0  0  0  0  0  0  0
   53.4170  154.9490   26.0160 C   0  0  0  0  0  0  0  0  0  0  0  0
   54.1060  155.3500   24.8700 C   0  0  0  0  0  0  0  0  0  0  0  0
   54.5910  154.3920   23.9780 C   0  0  0  0  0  0  0  0  0  0  0  0
   54.3890  153.0340   24.2310 C   0  0  0  0  0  0  0  0  0  0  0  0
   53.7010  152.6370   25.3750 C   0  0  0  0  0  0  0  0  0  0  0  0
   53.5390  151.2920   25.5620 O   0  0  0  0  0  0  0  0  0  0  0  0
   53.2150  153.5960   26.2680 C   0  0  0  0  0  0  0  0  0  0  0  0
   52.4880  153.2210   27.4810 C   0  0  0  0  0  0  0  0  0  0  0  0
   52.2760  152.0480   27.7770 O   0  0  0  0  0  0  0  0  0  0  0  0
   52.0070  154.3160   28.3570 C   0  0  0  0  0  0  0  0  0  0  0  0
   51.3330  153.9520   29.5070 O   0  0  0  0  0  0  0  0  0  0  0  0
   50.5560  156.8500   29.3430 C   0  0  0  0  0  0  0  0  0  0  0  0
   50.1500  157.9710   30.0930 C   0  0  0  0  0  0  0  0  0  0  0  0
   48.7730  158.0260   30.6150 C   0  0  0  0  0  0  0  0  0  0  0  0
   47.8800  158.9600   30.2630 C   0  0  0  0  0  0  0  0  0  0  0  0
   51.2451  162.0064   32.0771 H   0  0  0  0  0  0  0  0  0  0  0  0
   52.6464  161.0272   31.2359 H   0  0  0  0  0  0  0  0  0  0  0  0
   49.6358  160.3799   31.3301 H   0  0  0  0  0  0  0  0  0  0  0  0
   53.0533  159.7727   29.8644 H   0  0  0  0  0  0  0  0  0  0  0  0
   53.7408  157.7733   28.5636 H   0  0  0  0  0  0  0  0  0  0  0  0
   54.2665  156.4197   24.6701 H   0  0  0  0  0  0  0  0  0  0  0  0
   55.1332  154.7076   23.0744 H   0  0  0  0  0  0  0  0  0  0  0  0
   54.7723  152.2793   23.5285 H   0  0  0  0  0  0  0  0  0  0  0  0
   52.7530  150.8700   25.2770 H   0  0  0  0  0  0  0  0  0  0  0  0
   51.5530  154.3520   30.3250 H   0  0  0  0  0  0  0  0  0  0  0  0
   49.8438  156.0275   29.1811 H   0  0  0  0  0  0  0  0  0  0  0  0
   48.4606  157.2555   31.3353 H   0  0  0  0  0  0  0  0  0  0  0  0
   46.8672  158.9420   30.6919 H   0  0  0  0  0  0  0  0  0  0  0  0
   48.1593  159.7452   29.5450 H   0  0  0  0  0  0  0  0  0  0  0  0
  1  2  2  0
  2  3  1  0
  3  4  2  0
  4  5  1  0
  5  6  2  0
  6  7  1  0
  7  8  1  0
  8  9  1  0
  9 10  2  0
 10 11  1  0
 11 12  2  0
 12 13  1  0
 13 14  1  0
 13 15  2  0
 15 16  1  0
 16 17  2  0
 16 18  1  0
 18 19  1  0
  6 20  1  0
 20 21  2  0
 21 22  1  0
 22 23  2  0
 21  3  1  0
 18  7  2  0
 15  9  1  0
  1 24  1  0
  1 25  1  0
  2 26  1  0
  4 27  1  0
  5 28  1  0
 10 29  1  0
 11 30  1  0
 12 31  1  0
 14 32  1  0
 19 33  1  0
 20 34  1  0
 22 35  1  0
 23 36  1  0
 23 37  1  0
M  END
>  <meeko>  (3) 
{"is_sidechain": [false], "free_energy": -10.697, "intermolecular_energy": -13.235, "internal_energy": -0.002}

$$$$
cand_048_out
     RDKit          3D

 37 39  0  0  0  0  0  0  0  0999 V2000
   47.4740  160.0480   31.8300 C   0  0  0  0  0  0  0  0  0  0  0  0
   48.7840  160.1680   31.5830 C   0  0  0  0  0  0  0  0  0  0  0  0
   49.5760  159.1680   30.8440 C   0  0  0  0  0  0  0  0  0  0  0  0
   49.0080  157.9130   30.5670 C   0  0  0  0  0  0  0  0  0  0  0  0
   49.7110  156.9530   29.8340 C   0  0  0  0  0  0  0  0  0  0  0  0
   50.9940  157.2210   29.3480 C   0  0  0  0  0  0  0  0  0  0  0  0
   51.7320  156.1810   28.6040 C   0  0  0  0  0  0  0  0  0  0  0  0
   52.2580  156.6450   27.4030 O   0  0  0  0  0  0  0  0  0  0  0  0
   52.9680  155.7780   26.6110 C   0  0  0  0  0  0  0  0  0  0  0  0
   53.4640  156.2820   25.4080 C   0  0  0  0  0  0  0  0  0  0  0  0
   54.1960  155.4540   24.5550 C   0  0  0  0  0  0  0  0  0  0  0  0
   54.4330  154.1230   24.9060 C   0  0  0  0  0  0  0  0  0  0  0  0
   53.9370  153.6230   26.1070 C   0  0  0  0  0  0  0  0  0  0  0  0
   54.2070  152.3120   26.3890 O   0  0  0  0  0  0  0  0  0  0  0  0
   53.2030  154.4520   26.9600 C   0  0  0  0  0  0  0  0  0  0  0  0
   52.6650  153.9660   28.2310 C   0  0  0  0  0  0  0  0  0  0  0  0
   52.8370  152.8110   28.6130 O   0  0  0  0  0  0  0  0  0  0  0  0
   51.8940  154.9240   29.0580 C   0  0  0  0  0  0  0  0  0  0  0  0
   51.4000  154.4600   30.2630 O   0  0  0  0  0  0  0  0  0  0  0  0
   51.5620  158.4740   29.6240 C   0  0  0  0  0  0  0  0  0  0  0  0
   50.8640  159.4600   30.3490 C   0  0  0  0  0  0  0  0  0  0  0  0
   51.5270  160.7460   30.6330 C   0  0  0  0  0  0  0  0  0  0  0  0
   51.5550  161.3160   31.8450 C   0  0  0  0  0  0  0  0  0  0  0  0
   46.9453  160.8344   32.3887 H   0  0  0  0  0  0  0  0  0  0  0  0
   46.9261  159.1630   31.4743 H   0  0  0  0  0  0  0  0  0  0  0  0
   49.3002  161.0660   31.9534 H   0  0  0  0  0  0  0  0  0  0  0  0
   47.9962  157.6830   30.9321 H   0  0  0  0  0  0  0  0  0  0  0  0
   49.2490  155.9743   29.6370 H   0  0  0  0  0  0  0  0  0  0  0  0
   53.2784  157.3305   25.1321 H   0  0  0  0  0  0  0  0  0  0  0  0
   54.5863  155.8500   23.6059 H   0  0  0  0  0  0  0  0  0  0  0  0
   55.0107  153.4708   24.2345 H   0  0  0  0  0  0  0  0  0  0  0  0
   54.1910  151.6730   25.7040 H   0  0  0  0  0  0  0  0  0  0  0  0
   51.6310  153.6040   30.5650 H   0  0  0  0  0  0  0  0  0  0  0  0
   52.5786  158.6921   29.2650 H   0  0  0  0  0  0  0  0  0  0  0  0
   52.0268  161.2667   29.8029 H   0  0  0  0  0  0  0  0  0  0  0  0
   52.0681  162.2784   31.9885 H   0  0  0  0  0  0  0  0  0  0  0  0
   51.0649  160.8216   32.6967 H   0  0  0  0  0  0  0  0  0  0  0  0
  1  2  2  0
  2  3  1  0
  3  4  2  0
  4  5  1  0
  5  6  2  0
  6  7  1  0
  7  8  1  0
  8  9  1  0
  9 10  2  0
 10 11  1  0
 11 12  2  0
 12 13  1  0
 13 14  1  0
 13 15  2  0
 15 16  1  0
 16 17  2  0
 16 18  1  0
 18 19  1  0
  6 20  1  0
 20 21  2  0
 21 22  1  0
 22 23  2  0
 21  3  1  0
 18  7  2  0
 15  9  1  0
  1 24  1  0
  1 25  1  0
  2 26  1  0
  4 27  1  0
  5 28  1  0
 10 29  1  0
 11 30  1  0
 12 31  1  0
 14 32  1  0
 19 33  1  0
 20 34  1  0
 22 35  1  0
 23 36  1  0
 23 37  1  0
M  END
>  <meeko>  (4) 
{"is_sidechain": [false], "free_energy": -10.596, "intermolecular_energy": -13.268, "internal_energy": 0.155}

$$$$
cand_048_out
     RDKit          3D

 37 39  0  0  0  0  0  0  0  0999 V2000
   53.2430  154.0800   25.0240 C   0  0  0  0  0  0  0  0  0  0  0  0
   53.4270  154.0950   26.3500 C   0  0  0  0  0  0  0  0  0  0  0  0
   52.8910  155.1380   27.2430 C   0  0  0  0  0  0  0  0  0  0  0  0
   53.0440  156.4880   26.8890 C   0  0  0  0  0  0  0  0  0  0  0  0
   52.5150  157.5060   27.6880 C   0  0  0  0  0  0  0  0  0  0  0  0
   51.8080  157.2030   28.8560 C   0  0  0  0  0  0  0  0  0  0  0  0
   51.2840  158.2930   29.7030 C   0  0  0  0  0  0  0  0  0  0  0  0
   49.9470  158.1210   30.0420 O   0  0  0  0  0  0  0  0  0  0  0  0
   49.3350  159.0650   30.8270 C   0  0  0  0  0  0  0  0  0  0  0  0
   47.9880  158.8600   31.1290 C   0  0  0  0  0  0  0  0  0  0  0  0
   47.3050  159.7820   31.9250 C   0  0  0  0  0  0  0  0  0  0  0  0
   47.9680  160.9060   32.4190 C   0  0  0  0  0  0  0  0  0  0  0  0
   49.3120  161.1090   32.1160 C   0  0  0  0  0  0  0  0  0  0  0  0
   49.8990  162.2300   32.6330 O   0  0  0  0  0  0  0  0  0  0  0  0
   49.9950  160.1860   31.3190 C   0  0  0  0  0  0  0  0  0  0  0  0
   51.4070  160.3610   30.9770 C   0  0  0  0  0  0  0  0  0  0  0  0
   52.0610  161.3210   31.3790 O   0  0  0  0  0  0  0  0  0  0  0  0
   52.0360  159.3300   30.1180 C   0  0  0  0  0  0  0  0  0  0  0  0
   53.3740  159.4960   29.8120 O   0  0  0  0  0  0  0  0  0  0  0  0
   51.6530  155.8540   29.2110 C   0  0  0  0  0  0  0  0  0  0  0  0
   52.1670  154.8150   28.4110 C   0  0  0  0  0  0  0  0  0  0  0  0
   51.9990  153.4180   28.8530 C   0  0  0  0  0  0  0  0  0  0  0  0
   51.6460  152.4180   28.0350 C   0  0  0  0  0  0  0  0  0  0  0  0
   53.6729  153.2687   24.4182 H   0  0  0  0  0  0  0  0  0  0  0  0
   52.6619  154.8790   24.5403 H   0  0  0  0  0  0  0  0  0  0  0  0
   54.0132  153.2802   26.8000 H   0  0  0  0  0  0  0  0  0  0  0  0
   53.5882  156.7486   25.9693 H   0  0  0  0  0  0  0  0  0  0  0  0
   52.6564  158.5567   27.3948 H   0  0  0  0  0  0  0  0  0  0  0  0
   47.4651  157.9736   30.7406 H   0  0  0  0  0  0  0  0  0  0  0  0
   46.2430  159.6220   32.1629 H   0  0  0  0  0  0  0  0  0  0  0  0
   47.4296  161.6310   33.0471 H   0  0  0  0  0  0  0  0  0  0  0  0
   50.4510  162.7620   32.0940 H   0  0  0  0  0  0  0  0  0  0  0  0
   53.7110  160.3520   29.6350 H   0  0  0  0  0  0  0  0  0  0  0  0
   51.1165  155.6018   30.1376 H   0  0  0  0  0  0  0  0  0  0  0  0
   52.1734  153.1844   29.9137 H   0  0  0  0  0  0  0  0  0  0  0  0
   51.5379  151.3969   28.4295 H   0  0  0  0  0  0  0  0  0  0  0  0
   51.4642  152.6178   26.9687 H   0  0  0  0  0  0  0  0  0  0  0  0
  1  2  2  0
  2  3  1  0
  3  4  2  0
  4  5  1  0
  5  6  2  0
  6  7  1  0
  7  8  1  0
  8  9  1  0
  9 10  2  0
 10 11  1  0
 11 12  2  0
 12 13  1  0
 13 14  1  0
 13 15  2  0
 15 16  1  0
 16 17  2  0
 16 18  1  0
 18 19  1  0
  6 20  1  0
 20 21  2  0
 21 22  1  0
 22 23  2  0
 21  3  1  0
 18  7  2  0
 15  9  1  0
  1 24  1  0
  1 25  1  0
  2 26  1  0
  4 27  1  0
  5 28  1  0
 10 29  1  0
 11 30  1  0
 12 31  1  0
 14 32  1  0
 19 33  1  0
 20 34  1  0
 22 35  1  0
 23 36  1  0
 23 37  1  0
M  END
>  <meeko>  (5) 
{"is_sidechain": [false], "free_energy": -9.607, "intermolecular_energy": -12.091, "internal_energy": 0.197}

$$$$
cand_048_out
     RDKit          3D

 37 39  0  0  0  0  0  0  0  0999 V2000
   52.9290  152.5320   25.8220 C   0  0  0  0  0  0  0  0  0  0  0  0
   53.4890  153.2660   26.7920 C   0  0  0  0  0  0  0  0  0  0  0  0
   52.8010  154.3670   27.4900 C   0  0  0  0  0  0  0  0  0  0  0  0
   52.0160  154.0790   28.6190 C   0  0  0  0  0  0  0  0  0  0  0  0
   51.3810  155.0990   29.3320 C   0  0  0  0  0  0  0  0  0  0  0  0
   51.5210  156.4350   28.9460 C   0  0  0  0  0  0  0  0  0  0  0  0
   50.8140  157.4960   29.6940 C   0  0  0  0  0  0  0  0  0  0  0  0
   51.6400  158.5620   30.0290 O   0  0  0  0  0  0  0  0  0  0  0  0
   51.1100  159.6170   30.7280 C   0  0  0  0  0  0  0  0  0  0  0  0
   51.9780  160.6590   31.0580 C   0  0  0  0  0  0  0  0  0  0  0  0
   51.5030  161.7630   31.7670 C   0  0  0  0  0  0  0  0  0  0  0  0
   50.1600  161.8270   32.1450 C   0  0  0  0  0  0  0  0  0  0  0  0
   49.2960  160.7860   31.8150 C   0  0  0  0  0  0  0  0  0  0  0  0
   47.9950  160.9140   32.2160 O   0  0  0  0  0  0  0  0  0  0  0  0
   49.7720  159.6800   31.1060 C   0  0  0  0  0  0  0  0  0  0  0  0
   48.8980  158.5660   30.7400 C   0  0  0  0  0  0  0  0  0  0  0  0
   47.7040  158.5510   31.0300 O   0  0  0  0  0  0  0  0  0  0  0  0
   49.5040  157.4370   29.9950 C   0  0  0  0  0  0  0  0  0  0  0  0
   48.6670  156.3950   29.6410 O   0  0  0  0  0  0  0  0  0  0  0  0
   52.3040  156.7250   27.8190 C   0  0  0  0  0  0  0  0  0  0  0  0
   52.9640  155.7120   27.0960 C   0  0  0  0  0  0  0  0  0  0  0  0
   53.7490  156.0770   25.9020 C   0  0  0  0  0  0  0  0  0  0  0  0
   53.2080  156.3020   24.6980 C   0  0  0  0  0  0  0  0  0  0  0  0
   53.5018  151.7240   25.3434 H   0  0  0  0  0  0  0  0  0  0  0  0
   51.8962  152.7370   25.5038 H   0  0  0  0  0  0  0  0  0  0  0  0
   54.5234  153.0336   27.0852 H   0  0  0  0  0  0  0  0  0  0  0  0
   51.8996  153.0353   28.9463 H   0  0  0  0  0  0  0  0  0  0  0  0
   50.7638  154.8477   30.2072 H   0  0  0  0  0  0  0  0  0  0  0  0
   53.0356  160.6100   30.7594 H   0  0  0  0  0  0  0  0  0  0  0  0
   52.1870  162.5838   32.0285 H   0  0  0  0  0  0  0  0  0  0  0  0
   49.7854  162.6982   32.7024 H   0  0  0  0  0  0  0  0  0  0  0  0
   47.7430  161.6220   32.7750 H   0  0  0  0  0  0  0  0  0  0  0  0
   48.1590  156.4480   28.8550 H   0  0  0  0  0  0  0  0  0  0  0  0
   52.4053  157.7702   27.4913 H   0  0  0  0  0  0  0  0  0  0  0  0
   54.8401  156.1696   26.0064 H   0  0  0  0  0  0  0  0  0  0  0  0
   53.8516  156.5711   23.8474 H   0  0  0  0  0  0  0  0  0  0  0  0
   52.1200  156.2178   24.5595 H   0  0  0  0  0  0  0  0  0  0  0  0
  1  2  2  0
  2  3  1  0
  3  4  2  0
  4  5  1  0
  5  6  2  0
  6  7  1  0
  7  8  1  0
  8  9  1  0
  9 10  2  0
 10 11  1  0
 11 12  2  0
 12 13  1  0
 13 14  1  0
 13 15  2  0
 15 16  1  0
 16 17  2  0
 16 18  1  0
 18 19  1  0
  6 20  1  0
 20 21  2  0
 21 22  1  0
 22 23  2  0
 21  3  1  0
 18  7  2  0
 15  9  1  0
  1 24  1  0
  1 25  1  0
  2 26  1  0
  4 27  1  0
  5 28  1  0
 10 29  1  0
 11 30  1  0
 12 31  1  0
 14 32  1  0
 19 33  1  0
 20 34  1  0
 22 35  1  0
 23 36  1  0
 23 37  1  0
M  END
>  <meeko>  (6) 
{"is_sidechain": [false], "free_energy": -9.024, "intermolecular_energy": -10.798, "internal_energy": -0.376}

$$$$
