cand_035_out
     RDKit          3D

 36 38  0  0  0  0  0  0  0  0999 V2000
   47.3730  159.5850   31.0000 C   0  0  0  0  0  0  0  0  0  0  0  0
   48.3850  158.8400   31.4580 C   0  0  0  0  0  0  0  0  0  0  0  0
   49.7260  158.9070   30.8680 C   0  0  0  0  0  0  0  0  0  0  0  0
   50.1770  157.7960   30.1350 C   0  0  0  0  0  0  0  0  0  0  0  0
   51.4470  157.7820   29.5390 C   0  0  0  0  0  0  0  0  0  0  0  0
   51.8990  156.5860   28.7980 C   0  0  0  0  0  0  0  0  0  0  0  0
   52.4870  156.8970   27.5780 O   0  0  0  0  0  0  0  0  0  0  0  0
   52.9520  155.8780   26.7870 C   0  0  0  0  0  0  0  0  0  0  0  0
   53.5230  156.2340   25.5640 C   0  0  0  0  0  0  0  0  0  0  0  0
   54.0180  155.2440   24.7120 C   0  0  0  0  0  0  0  0  0  0  0  0
   53.9420  153.9000   25.0820 C   0  0  0  0  0  0  0  0  0  0  0  0
   53.3710  153.5470   26.3020 C   0  0  0  0  0  0  0  0  0  0  0  0
   53.3310  152.2130   26.6020 O   0  0  0  0  0  0  0  0  0  0  0  0
   52.8760  154.5380   27.1550 C   0  0  0  0  0  0  0  0  0  0  0  0
   52.2700  154.2090   28.4460 C   0  0  0  0  0  0  0  0  0  0  0  0
   52.1740  153.0520   28.8450 O   0  0  0  0  0  0  0  0  0  0  0  0
   51.7690  155.3330   29.2720 C   0  0  0  0  0  0  0  0  0  0  0  0
   51.2120  155.0150   30.4960 O   0  0  0  0  0  0  0  0  0  0  0  0
   52.2710  158.9010   29.7050 C   0  0  0  0  0  0  0  0  0  0  0  0
   51.8320  160.0110   30.4320 C   0  0  0  0  0  0  0  0  0  0  0  0
   50.5580  160.0300   31.0190 C   0  0  0  0  0  0  0  0  0  0  0  0
   50.1160  161.2420   31.7980 C   0  0  0  0  0  0  0  0  0  0  0  0
   50.1160  161.0490   33.1500 F   0  0  0  0  0  0  0  0  0  0  0  0
   46.3796  159.5096   31.4663 H   0  0  0  0  0  0  0  0  0  0  0  0
   47.5341  160.2731   30.1570 H   0  0  0  0  0  0  0  0  0  0  0  0
   48.2063  158.1572   32.3017 H   0  0  0  0  0  0  0  0  0  0  0  0
   49.5210  156.9197   30.0264 H   0  0  0  0  0  0  0  0  0  0  0  0
   53.5831  157.2927   25.2716 H   0  0  0  0  0  0  0  0  0  0  0  0
   54.4683  155.5237   23.7482 H   0  0  0  0  0  0  0  0  0  0  0  0
   54.3326  153.1210   24.4108 H   0  0  0  0  0  0  0  0  0  0  0  0
   54.1140  151.7650   26.8530 H   0  0  0  0  0  0  0  0  0  0  0  0
   50.8690  155.6920   31.0450 H   0  0  0  0  0  0  0  0  0  0  0  0
   53.2761  158.9070   29.2580 H   0  0  0  0  0  0  0  0  0  0  0  0
   52.4946  160.8817   30.5455 H   0  0  0  0  0  0  0  0  0  0  0  0
   50.7972  162.0736   31.5648 H   0  0  0  0  0  0  0  0  0  0  0  0
   49.0789  161.4575   31.5014 H   0  0  0  0  0  0  0  0  0  0  0  0
  1  2  2  0
  2  3  1  0
  3  4  2  0
  4  5  1  0
  5  6  1  0
  6  7  1  0
  7  8  1  0
  8  9  2  0
  9 10  1  0
 10 11  2  0
 11 12  1  0
 12 13  1  0
 12 14  2  0
 14 15  1  0
 15 16  2  0
 15 17  1  0
 17 18  1  0
  5 19  2  0
 19 20  1  0
 20 21  2  0
 21 22  1  0
 22 23  1  0
 21  3  1  0
 17  6  2  0
 14  8  1  0
  1 24  1  0
  1 25  1  0
  2 26  1  0
  4 27  1  0
  9 28  1  0
 10 29  1  0
 11 30  1  0
 13 31  1  0
 18 32  1  0
 19 33  1  0
 20 34  1  0
 22 35  1  0
 22 36  1  0
M  END
>  <meeko>  (1) 
{"is_sidechain": [false], "free_energy": -10.509, "intermolecular_energy": -12.966, "internal_energy": -0.055}

$$$$
cand_035_out
     RDKit          3D

 36 38  0  0  0  0  0  0  0  0999 V2000
   52.6170  161.3820   31.5600 C   0  0  0  0  0  0  0  0  0  0  0  0
   51.9360  161.0660   30.4530 C   0  0  0  0  0  0  0  0  0  0  0  0
   51.1510  159.8320   30.3520 C   0  0  0  0  0  0  0  0  0  0  0  0
   51.7320  158.7380   29.6880 C   0  0  0  0  0  0  0  0  0  0  0  0
   51.0470  157.5210   29.5490 C   0  0  0  0  0  0  0  0  0  0  0  0
   51.6780  156.4010   28.8210 C   0  0  0  0  0  0  0  0  0  0  0  0
   52.2550  156.7950   27.6180 O   0  0  0  0  0  0  0  0  0  0  0  0
   52.8770  155.8530   26.8400 C   0  0  0  0  0  0  0  0  0  0  0  0
   53.4300  156.2890   25.6360 C   0  0  0  0  0  0  0  0  0  0  0  0
   54.0790  155.3800   24.7970 C   0  0  0  0  0  0  0  0  0  0  0  0
   54.1750  154.0360   25.1630 C   0  0  0  0  0  0  0  0  0  0  0  0
   53.6210  153.6030   26.3660 C   0  0  0  0  0  0  0  0  0  0  0  0
   53.7530  152.2740   26.6620 O   0  0  0  0  0  0  0  0  0  0  0  0
   52.9720  154.5130   27.2040 C   0  0  0  0  0  0  0  0  0  0  0  0
   52.3780  154.0990   28.4760 C   0  0  0  0  0  0  0  0  0  0  0  0
   52.4280  152.9360   28.8710 O   0  0  0  0  0  0  0  0  0  0  0  0
   51.7060  155.1400   29.2880 C   0  0  0  0  0  0  0  0  0  0  0  0
   51.1610  154.7430   30.4950 O   0  0  0  0  0  0  0  0  0  0  0  0
   49.7550  157.4220   30.0750 C   0  0  0  0  0  0  0  0  0  0  0  0
   49.1680  158.5040   30.7380 C   0  0  0  0  0  0  0  0  0  0  0  0
   49.8560  159.7170   30.8860 C   0  0  0  0  0  0  0  0  0  0  0  0
   49.1940  160.8660   31.6050 C   0  0  0  0  0  0  0  0  0  0  0  0
   48.2310  161.4880   30.8630 F   0  0  0  0  0  0  0  0  0  0  0  0
   53.1960  162.3164   31.6017 H   0  0  0  0  0  0  0  0  0  0  0  0
   52.5981  160.7075   32.4287 H   0  0  0  0  0  0  0  0  0  0  0  0
   51.9658  161.7519   29.5935 H   0  0  0  0  0  0  0  0  0  0  0  0
   52.7441  158.8377   29.2688 H   0  0  0  0  0  0  0  0  0  0  0  0
   53.3551  157.3478   25.3474 H   0  0  0  0  0  0  0  0  0  0  0  0
   54.5148  155.7234   23.8472 H   0  0  0  0  0  0  0  0  0  0  0  0
   54.6870  153.3203   24.5029 H   0  0  0  0  0  0  0  0  0  0  0  0
   53.6390  151.6300   25.9910 H   0  0  0  0  0  0  0  0  0  0  0  0
   50.8580  155.3850   31.1060 H   0  0  0  0  0  0  0  0  0  0  0  0
   49.1941  156.4820   29.9659 H   0  0  0  0  0  0  0  0  0  0  0  0
   48.1528  158.4024   31.1491 H   0  0  0  0  0  0  0  0  0  0  0  0
   48.7305  160.4808   32.5252 H   0  0  0  0  0  0  0  0  0  0  0  0
   49.9753  161.6118   31.8134 H   0  0  0  0  0  0  0  0  0  0  0  0
  1  2  2  0
  2  3  1  0
  3  4  2  0
  4  5  1  0
  5  6  1  0
  6  7  1  0
  7  8  1  0
  8  9  2  0
  9 10  1  0
 10 11  2  0
 11 12  1  0
 12 13  1  0
 12 14  2  0
 14 15  1  0
 15 16  2  0
 15 17  1  0
 17 18  1  0
  5 19  2  0
 19 20  1  0
 20 21  2  0
 21 22  1  0
 22 23  1  0
 21  3  1  0
 17  6  2  0
 14  8  1  0
  1 24  1  0
  1 25  1  0
  2 26  1  0
  4 27  1  0
  9 28  1  0
 10 29  1  0
 11 30  1  0
 13 31  1  0
 18 32  1  0
 19 33  1  0
 20 34  1  0
 22 35  1  0
 22 36  1  0
M  END
>  <meeko>  (2) 
{"is_sidechain": [false], "free_energy": -10.346, "intermolecular_energy": -12.607, "internal_energy": -0.213}

$$$$
cand_035_out
     RDKit          3D

 36 38  0  0  0  0  0  0  0  0999 V2000
   54.0960  156.4080   25.1370 C   0  0  0  0  0  0  0  0  0  0  0  0
   53.3900  155.3190   25.4600 C   0  0  0  0  0  0  0  0  0  0  0  0
   52.7670  155.1620   26.7780 C   0  0  0  0  0  0  0  0  0  0  0  0
   52.3810  156.3270   27.4640 C   0  0  0  0  0  0  0  0  0  0  0  0
   51.7800  156.2630   28.7300 C   0  0  0  0  0  0  0  0  0  0  0  0
   51.4120  157.5100   29.4330 C   0  0  0  0  0  0  0  0  0  0  0  0
   50.0940  157.5100   29.8780 O   0  0  0  0  0  0  0  0  0  0  0  0
   49.6210  158.6090   30.5480 C   0  0  0  0  0  0  0  0  0  0  0  0
   48.2900  158.5720   30.9650 C   0  0  0  0  0  0  0  0  0  0  0  0
   47.7460  159.6580   31.6540 C   0  0  0  0  0  0  0  0  0  0  0  0
   48.5320  160.7790   31.9270 C   0  0  0  0  0  0  0  0  0  0  0  0
   49.8610  160.8130   31.5100 C   0  0  0  0  0  0  0  0  0  0  0  0
   50.5740  161.9410   31.8120 O   0  0  0  0  0  0  0  0  0  0  0  0
   50.4050  159.7260   30.8200 C   0  0  0  0  0  0  0  0  0  0  0  0
   51.7960  159.7220   30.3650 C   0  0  0  0  0  0  0  0  0  0  0  0
   52.5530  160.6670   30.5740 O   0  0  0  0  0  0  0  0  0  0  0  0
   52.2730  158.5240   29.6360 C   0  0  0  0  0  0  0  0  0  0  0  0
   53.5920  158.5220   29.2230 O   0  0  0  0  0  0  0  0  0  0  0  0
   51.5840  155.0050   29.3090 C   0  0  0  0  0  0  0  0  0  0  0  0
   51.9640  153.8400   28.6360 C   0  0  0  0  0  0  0  0  0  0  0  0
   52.5560  153.9030   27.3660 C   0  0  0  0  0  0  0  0  0  0  0  0
   52.9550  152.6280   26.6670 C   0  0  0  0  0  0  0  0  0  0  0  0
   51.9770  151.6760   26.6750 F   0  0  0  0  0  0  0  0  0  0  0  0
   54.5500  156.4930   24.1387 H   0  0  0  0  0  0  0  0  0  0  0  0
   54.2226  157.2187   25.8697 H   0  0  0  0  0  0  0  0  0  0  0  0
   53.2733  154.5179   24.7153 H   0  0  0  0  0  0  0  0  0  0  0  0
   52.5538  157.3086   26.9986 H   0  0  0  0  0  0  0  0  0  0  0  0
   47.6702  157.6887   30.7513 H   0  0  0  0  0  0  0  0  0  0  0  0
   46.6965  159.6301   31.9822 H   0  0  0  0  0  0  0  0  0  0  0  0
   48.1029  161.6338   32.4703 H   0  0  0  0  0  0  0  0  0  0  0  0
   51.4780  162.0020   31.5740 H   0  0  0  0  0  0  0  0  0  0  0  0
   53.8140  158.2200   28.3630 H   0  0  0  0  0  0  0  0  0  0  0  0
   51.1253  154.9314   30.3061 H   0  0  0  0  0  0  0  0  0  0  0  0
   51.7965  152.8610   29.1087 H   0  0  0  0  0  0  0  0  0  0  0  0
   53.2013  152.8659   25.6217 H   0  0  0  0  0  0  0  0  0  0  0  0
   53.8153  152.2140   27.2133 H   0  0  0  0  0  0  0  0  0  0  0  0
  1  2  2  0
  2  3  1  0
  3  4  2  0
  4  5  1  0
  5  6  1  0
  6  7  1  0
  7  8  1  0
  8  9  2  0
  9 10  1  0
 10 11  2  0
 11 12  1  0
 12 13  1  0
 12 14  2  0
 14 15  1  0
 15 16  2  0
 15 17  1  0
 17 18  1  0
  5 19  2  0
 19 20  1  0
 20 21  2  0
 21 22  1  0
 22 23  1  0
 21  3  1  0
 17  6  2  0
 14  8  1  0
  1 24  1  0
  1 25  1  0
  2 26  1  0
  4 27  1  0
  9 28  1  0
 10 29  1  0
 11 30  1  0
 13 31  1  0
 18 32  1  0
 19 33  1  0
 20 34  1  0
 22 35  1  0
 22 36  1  0
M  END
>  <meeko>  (3) 
{"is_sidechain": [false], "free_energy": -10.266, "intermolecular_energy": -12.438, "internal_energy": -0.284}

$$$$
cand_035_out
     RDKit          3D

 36 38  0  0  0  0  0  0  0  0999 V2000
   54.0750  156.6560   25.1800 C   0  0  0  0  0  0  0  0  0  0  0  0
   53.5290  155.4650   25.4460 C   0  0  0  0  0  0  0  0  0  0  0  0
   52.9220  155.1640   26.7470 C   0  0  0  0  0  0  0  0  0  0  0  0
   52.3130  156.2200   27.4460 C   0  0  0  0  0  0  0  0  0  0  0  0
   51.7100  156.0160   28.6960 C   0  0  0  0  0  0  0  0  0  0  0  0
   51.1040  157.1550   29.4160 C   0  0  0  0  0  0  0  0  0  0  0  0
   52.0050  158.1890   29.6480 O   0  0  0  0  0  0  0  0  0  0  0  0
   51.5720  159.3100   30.3080 C   0  0  0  0  0  0  0  0  0  0  0  0
   52.5120  160.3170   30.5310 C   0  0  0  0  0  0  0  0  0  0  0  0
   52.1360  161.4860   31.1970 C   0  0  0  0  0  0  0  0  0  0  0  0
   50.8210  161.6480   31.6380 C   0  0  0  0  0  0  0  0  0  0  0  0
   49.8850  160.6410   31.4140 C   0  0  0  0  0  0  0  0  0  0  0  0
   48.6150  160.8670   31.8710 O   0  0  0  0  0  0  0  0  0  0  0  0
   50.2610  159.4720   30.7480 C   0  0  0  0  0  0  0  0  0  0  0  0
   49.3080  158.3910   30.4920 C   0  0  0  0  0  0  0  0  0  0  0  0
   48.1330  158.4620   30.8420 O   0  0  0  0  0  0  0  0  0  0  0  0
   49.8100  157.1900   29.7850 C   0  0  0  0  0  0  0  0  0  0  0  0
   48.9000  156.1800   29.5340 O   0  0  0  0  0  0  0  0  0  0  0  0
   51.7420  154.7300   29.2470 C   0  0  0  0  0  0  0  0  0  0  0  0
   52.3450  153.6720   28.5600 C   0  0  0  0  0  0  0  0  0  0  0  0
   52.9380  153.8740   27.3050 C   0  0  0  0  0  0  0  0  0  0  0  0
   53.5820  152.7130   26.5900 C   0  0  0  0  0  0  0  0  0  0  0  0
   52.7080  151.7050   26.2960 F   0  0  0  0  0  0  0  0  0  0  0  0
   54.5218  156.8482   24.1934 H   0  0  0  0  0  0  0  0  0  0  0  0
   54.0774  157.4438   25.9477 H   0  0  0  0  0  0  0  0  0  0  0  0
   53.5351  154.6885   24.6669 H   0  0  0  0  0  0  0  0  0  0  0  0
   52.3090  157.2272   27.0039 H   0  0  0  0  0  0  0  0  0  0  0  0
   53.5477  160.1904   30.1828 H   0  0  0  0  0  0  0  0  0  0  0  0
   52.8766  162.2798   31.3742 H   0  0  0  0  0  0  0  0  0  0  0  0
   50.5248  162.5691   32.1613 H   0  0  0  0  0  0  0  0  0  0  0  0
   48.2450  160.3050   32.5230 H   0  0  0  0  0  0  0  0  0  0  0  0
   48.2510  155.9640   30.1750 H   0  0  0  0  0  0  0  0  0  0  0  0
   51.2874  154.5494   30.2322 H   0  0  0  0  0  0  0  0  0  0  0  0
   52.3545  152.6681   29.0096 H   0  0  0  0  0  0  0  0  0  0  0  0
   54.0187  153.0812   25.6499 H   0  0  0  0  0  0  0  0  0  0  0  0
   54.3428  152.2964   27.2665 H   0  0  0  0  0  0  0  0  0  0  0  0
  1  2  2  0
  2  3  1  0
  3  4  2  0
  4  5  1  0
  5  6  1  0
  6  7  1  0
  7  8  1  0
  8  9  2  0
  9 10  1  0
 10 11  2  0
 11 12  1  0
 12 13  1  0
 12 14  2  0
 14 15  1  0
 15 16  2  0
 15 17  1  0
 17 18  1  0
  5 19  2  0
 19 20  1  0
 20 21  2  0
 21 22  1  0
 22 23  1  0
 21  3  1  0
 17  6  2  0
 14  8  1  0
  1 24  1  0
  1 25  1  0
  2 26  1  0
  4 27  1  0
  9 28  1  0
 10 29  1  0
 11 30  1  0
 13 31  1  0
 18 32  1  0
 19 33  1  0
 20 34  1  0
 22 35  1  0
 22 36  1  0
M  END
>  <meeko>  (4) 
{"is_sidechain": [false], "free_energy": -9.157, "intermolecular_energy": -10.933, "internal_energy": -0.42}

$$$$
cand_035_out
     RDKit          3D

 36 38  0  0  0  0  0  0  0  0999 V2000
   51.0090  160.9400   30.0920 C   0  0  0  0  0  0  0  0  0  0  0  0
   51.5600  159.7850   30.4830 C   0  0  0  0  0  0  0  0  0  0  0  0
   50.9860  158.4890   30.1090 C   0  0  0  0  0  0  0  0  0  0  0  0
   51.7400  157.6570   29.2630 C   0  0  0  0  0  0  0  0  0  0  0  0
   51.2620  156.4020   28.8590 C   0  0  0  0  0  0  0  0  0  0  0  0
   52.0700  155.5660   27.9470 C   0  0  0  0  0  0  0  0  0  0  0  0
   52.7130  156.3080   26.9620 O   0  0  0  0  0  0  0  0  0  0  0  0
   53.4980  155.6550   26.0470 C   0  0  0  0  0  0  0  0  0  0  0  0
   54.1140  156.4360   25.0680 C   0  0  0  0  0  0  0  0  0  0  0  0
   54.9280  155.8340   24.1060 C   0  0  0  0  0  0  0  0  0  0  0  0
   55.1260  154.4520   24.1230 C   0  0  0  0  0  0  0  0  0  0  0  0
   54.5110  153.6750   25.1010 C   0  0  0  0  0  0  0  0  0  0  0  0
   54.7490  152.3280   25.0600 O   0  0  0  0  0  0  0  0  0  0  0  0
   53.6960  154.2780   26.0630 C   0  0  0  0  0  0  0  0  0  0  0  0
   53.0310  153.4970   27.1080 C   0  0  0  0  0  0  0  0  0  0  0  0
   53.1630  152.2790   27.1940 O   0  0  0  0  0  0  0  0  0  0  0  0
   52.1830  154.2310   28.0750 C   0  0  0  0  0  0  0  0  0  0  0  0
   51.5710  153.4880   29.0670 O   0  0  0  0  0  0  0  0  0  0  0  0
   50.0000  155.9960   29.3070 C   0  0  0  0  0  0  0  0  0  0  0  0
   49.2420  156.8150   30.1480 C   0  0  0  0  0  0  0  0  0  0  0  0
   49.7240  158.0660   30.5610 C   0  0  0  0  0  0  0  0  0  0  0  0
   48.8810  158.9260   31.4680 C   0  0  0  0  0  0  0  0  0  0  0  0
   47.7450  159.3930   30.8720 F   0  0  0  0  0  0  0  0  0  0  0  0
   51.4650  161.8956   30.3901 H   0  0  0  0  0  0  0  0  0  0  0  0
   50.1001  160.9339   29.4725 H   0  0  0  0  0  0  0  0  0  0  0  0
   52.4689  159.8087   31.1022 H   0  0  0  0  0  0  0  0  0  0  0  0
   52.7249  157.9973   28.9108 H   0  0  0  0  0  0  0  0  0  0  0  0
   53.9585  157.5249   25.0541 H   0  0  0  0  0  0  0  0  0  0  0  0
   55.4136  156.4492   23.3342 H   0  0  0  0  0  0  0  0  0  0  0  0
   55.7668  153.9779   23.3650 H   0  0  0  0  0  0  0  0  0  0  0  0
   55.6180  152.0100   24.9090 H   0  0  0  0  0  0  0  0  0  0  0  0
   51.3250  152.5990   28.9020 H   0  0  0  0  0  0  0  0  0  0  0  0
   49.5999  155.0205   28.9934 H   0  0  0  0  0  0  0  0  0  0  0  0
   48.2539  156.4741   30.4908 H   0  0  0  0  0  0  0  0  0  0  0  0
   48.5937  158.3291   32.3462 H   0  0  0  0  0  0  0  0  0  0  0  0
   49.4879  159.8020   31.7405 H   0  0  0  0  0  0  0  0  0  0  0  0
  1  2  2  0
  2  3  1  0
  3  4  2  0
  4  5  1  0
  5  6  1  0
  6  7  1  0
  7  8  1  0
  8  9  2  0
  9 10  1  0
 10 11  2  0
 11 12  1  0
 12 13  1  0
 12 14  2  0
 14 15  1  0
 15 16  2  0
 15 17  1  0
 17 18  1  0
  5 19  2  0
 19 20  1  0
 20 21  2  0
 21 22  1  0
 22 23  1  0
 21  3  1  0
 17  6  2  0
 14  8  1  0
  1 24  1  0
  1 25  1  0
  2 26  1  0
  4 27  1  0
  9 28  1  0
 10 29  1  0
 11 30  1  0
 13 31  1  0
 18 32  1  0
 19 33  1  0
 20 34  1  0
 22 35  1  0
 22 36  1  0
M  END
>  <meeko>  (5) 
{"is_sidechain": [false], "free_energy": -9.114, "intermolecular_energy": -11.315, "internal_energy": 0.014}

$$$$
cand_035_out
     RDKit          3D

 36 38  0  0  0  0  0  0  0  0999 V2000
   51.6380  152.4420   28.0130 C   0  0  0  0  0  0  0  0  0  0  0  0
   51.9960  153.4230   28.8490 C   0  0  0  0  0  0  0  0  0  0  0  0
   52.2200  154.7950   28.3830 C   0  0  0  0  0  0  0  0  0  0  0  0
   51.7580  155.8460   29.1920 C   0  0  0  0  0  0  0  0  0  0  0  0
   51.9320  157.1870   28.8160 C   0  0  0  0  0  0  0  0  0  0  0  0
   51.4090  158.2670   29.6790 C   0  0  0  0  0  0  0  0  0  0  0  0
   50.0740  158.0850   30.0210 O   0  0  0  0  0  0  0  0  0  0  0  0
   49.4620  159.0160   30.8210 C   0  0  0  0  0  0  0  0  0  0  0  0
   48.1170  158.8020   31.1280 C   0  0  0  0  0  0  0  0  0  0  0  0
   47.4350  159.7120   31.9390 C   0  0  0  0  0  0  0  0  0  0  0  0
   48.0970  160.8340   32.4420 C   0  0  0  0  0  0  0  0  0  0  0  0
   49.4380  161.0450   32.1340 C   0  0  0  0  0  0  0  0  0  0  0  0
   50.0240  162.1640   32.6610 O   0  0  0  0  0  0  0  0  0  0  0  0
   50.1210  160.1350   31.3220 C   0  0  0  0  0  0  0  0  0  0  0  0
   51.5300  160.3200   30.9750 C   0  0  0  0  0  0  0  0  0  0  0  0
   52.1820  161.2770   31.3840 O   0  0  0  0  0  0  0  0  0  0  0  0
   52.1590  159.3010   30.1020 C   0  0  0  0  0  0  0  0  0  0  0  0
   53.4940  159.4760   29.7910 O   0  0  0  0  0  0  0  0  0  0  0  0
   52.5670  157.4590   27.6000 C   0  0  0  0  0  0  0  0  0  0  0  0
   53.0310  156.4200   26.7870 C   0  0  0  0  0  0  0  0  0  0  0  0
   52.8660  155.0800   27.1670 C   0  0  0  0  0  0  0  0  0  0  0  0
   53.3760  153.9830   26.2670 C   0  0  0  0  0  0  0  0  0  0  0  0
   52.6600  153.8510   25.1120 F   0  0  0  0  0  0  0  0  0  0  0  0
   51.4781  151.4235   28.3966 H   0  0  0  0  0  0  0  0  0  0  0  0
   51.5035  152.6538   26.9420 H   0  0  0  0  0  0  0  0  0  0  0  0
   52.1261  153.1937   29.9169 H   0  0  0  0  0  0  0  0  0  0  0  0
   51.2496  155.6135   30.1393 H   0  0  0  0  0  0  0  0  0  0  0  0
   47.5953  157.9183   30.7319 H   0  0  0  0  0  0  0  0  0  0  0  0
   46.3752  159.5447   32.1817 H   0  0  0  0  0  0  0  0  0  0  0  0
   47.5594  161.5502   33.0808 H   0  0  0  0  0  0  0  0  0  0  0  0
   49.8330  162.4230   33.5410 H   0  0  0  0  0  0  0  0  0  0  0  0
   54.1280  158.8460   30.0740 H   0  0  0  0  0  0  0  0  0  0  0  0
   52.7031  158.5024   27.2793 H   0  0  0  0  0  0  0  0  0  0  0  0
   53.5321  156.6568   25.8368 H   0  0  0  0  0  0  0  0  0  0  0  0
   54.4213  154.2045   26.0056 H   0  0  0  0  0  0  0  0  0  0  0  0
   53.2764  153.0374   26.8200 H   0  0  0  0  0  0  0  0  0  0  0  0
  1  2  2  0
  2  3  1  0
  3  4  2  0
  4  5  1  0
  5  6  1  0
  6  7  1  0
  7  8  1  0
  8  9  2  0
  9 10  1  0
 10 11  2  0
 11 12  1  0
 12 13  1  0
 12 14  2  0
 14 15  1  0
 15 16  2  0
 15 17  1  0
 17 18  1  0
  5 19  2  0
 19 20  1  0
 20 21  2  0
 21 22  1  0
 22 23  1  0
 21  3  1  0
 17  6  2  0
 14  8  1  0
  1 24  1  0
  1 25  1  0
  2 26  1  0
  4 27  1  0
  9 28  1  0
 10 29  1  0
 11 30  1  0
 13 31  1  0
 18 32  1  0
 19 33  1  0
 20 34  1  0
 22 35  1  0
 22 36  1  0
M  END
>  <meeko>  (6) 
{"is_sidechain": [false], "free_energy": -8.571, "intermolecular_energy": -10.908, "internal_energy": 0.277}

$$$$
cand_035_out
     RDKit          3D

 36 38  0  0  0  0  0  0  0  0999 V2000
   51.0550  160.3810   30.0940 C   0  0  0  0  0  0  0  0  0  0  0  0
   51.7930  159.2650   30.0820 C   0  0  0  0  0  0  0  0  0  0  0  0
   51.2300  157.9690   29.6920 C   0  0  0  0  0  0  0  0  0  0  0  0
   51.9570  157.1860   28.7790 C   0  0  0  0  0  0  0  0  0  0  0  0
   51.4870  155.9340   28.3550 C   0  0  0  0  0  0  0  0  0  0  0  0
   52.2650  155.1500   27.3740 C   0  0  0  0  0  0  0  0  0  0  0  0
   51.9960  153.7870   27.4370 O   0  0  0  0  0  0  0  0  0  0  0  0
   52.6520  152.9410   26.5800 C   0  0  0  0  0  0  0  0  0  0  0  0
   52.3630  151.5800   26.6870 C   0  0  0  0  0  0  0  0  0  0  0  0
   52.9940  150.6650   25.8410 C   0  0  0  0  0  0  0  0  0  0  0  0
   53.9140  151.1110   24.8900 C   0  0  0  0  0  0  0  0  0  0  0  0
   54.2010  152.4700   24.7850 C   0  0  0  0  0  0  0  0  0  0  0  0
   55.1100  152.8370   23.8300 O   0  0  0  0  0  0  0  0  0  0  0  0
   53.5680  153.3850   25.6310 C   0  0  0  0  0  0  0  0  0  0  0  0
   53.8410  154.8210   25.5530 C   0  0  0  0  0  0  0  0  0  0  0  0
   54.6310  155.2910   24.7380 O   0  0  0  0  0  0  0  0  0  0  0  0
   53.1240  155.7060   26.5000 C   0  0  0  0  0  0  0  0  0  0  0  0
   53.3770  157.0610   26.4100 O   0  0  0  0  0  0  0  0  0  0  0  0
   50.2590  155.4830   28.8510 C   0  0  0  0  0  0  0  0  0  0  0  0
   49.5270  156.2540   29.7590 C   0  0  0  0  0  0  0  0  0  0  0  0
   50.0020  157.5010   30.1910 C   0  0  0  0  0  0  0  0  0  0  0  0
   49.1880  158.3090   31.1710 C   0  0  0  0  0  0  0  0  0  0  0  0
   47.9680  158.6820   30.6840 F   0  0  0  0  0  0  0  0  0  0  0  0
   51.5091  161.3375   30.3921 H   0  0  0  0  0  0  0  0  0  0  0  0
   49.9941  160.3420   29.8058 H   0  0  0  0  0  0  0  0  0  0  0  0
   52.8523  159.3217   30.3731 H   0  0  0  0  0  0  0  0  0  0  0  0
   52.9141  157.5625   28.3889 H   0  0  0  0  0  0  0  0  0  0  0  0
   51.6391  151.2281   27.4367 H   0  0  0  0  0  0  0  0  0  0  0  0
   52.7659  149.5921   25.9240 H   0  0  0  0  0  0  0  0  0  0  0  0
   54.4115  150.3901   24.2246 H   0  0  0  0  0  0  0  0  0  0  0  0
   55.2230  153.7410   23.6140 H   0  0  0  0  0  0  0  0  0  0  0  0
   54.1550  157.3660   25.9860 H   0  0  0  0  0  0  0  0  0  0  0  0
   49.8647  154.5100   28.5226 H   0  0  0  0  0  0  0  0  0  0  0  0
   48.5660  155.8777   30.1396 H   0  0  0  0  0  0  0  0  0  0  0  0
   49.0321  157.7046   32.0768 H   0  0  0  0  0  0  0  0  0  0  0  0
   49.7508  159.2310   31.3786 H   0  0  0  0  0  0  0  0  0  0  0  0
  1  2  2  0
  2  3  1  0
  3  4  2  0
  4  5  1  0
  5  6  1  0
  6  7  1  0
  7  8  1  0
  8  9  2  0
  9 10  1  0
 10 11  2  0
 11 12  1  0
 12 13  1  0
 12 14  2  0
 14 15  1  0
 15 16  2  0
 15 17  1  0
 17 18  1  0
  5 19  2  0
 19 20  1  0
 20 21  2  0
 21 22  1  0
 22 23  1  0
 21  3  1  0
 17  6  2  0
 14  8  1  0
  1 24  1  0
  1 25  1  0
  2 26  1  0
  4 27  1  0
  9 28  1  0
 10 29  1  0
 11 30  1  0
 13 31  1  0
 18 32  1  0
 19 33  1  0
 20 34  1  0
 22 35  1  0
 22 36  1  0
M  END
>  <meeko>  (7) 
{"is_sidechain": [false], "free_energy": -8.4, "intermolecular_energy": -10.974, "internal_energy": 0.555}

$$$$
cand_035_out
     RDKit          3D

 36 38  0  0  0  0  0  0  0  0999 V2000
   51.6100  152.2200   27.7290 C   0  0  0  0  0  0  0  0  0  0  0  0
   52.4020  153.0770   28.3840 C   0  0  0  0  0  0  0  0  0  0  0  0
   52.4830  154.4930   28.0140 C   0  0  0  0  0  0  0  0  0  0  0  0
   51.8670  155.4290   28.8630 C   0  0  0  0  0  0  0  0  0  0  0  0
   51.8990  156.8030   28.5800 C   0  0  0  0  0  0  0  0  0  0  0  0
   51.2180  157.7550   29.4800 C   0  0  0  0  0  0  0  0  0  0  0  0
   51.9820  158.8850   29.7490 O   0  0  0  0  0  0  0  0  0  0  0  0
   51.4680  159.8530   30.5730 C   0  0  0  0  0  0  0  0  0  0  0  0
   52.2740  160.9630   30.8280 C   0  0  0  0  0  0  0  0  0  0  0  0
   51.8090  161.9860   31.6570 C   0  0  0  0  0  0  0  0  0  0  0  0
   50.5400  161.8990   32.2320 C   0  0  0  0  0  0  0  0  0  0  0  0
   49.7370  160.7900   31.9760 C   0  0  0  0  0  0  0  0  0  0  0  0
   48.5050  160.7700   32.5700 O   0  0  0  0  0  0  0  0  0  0  0  0
   50.2020  159.7660   31.1460 C   0  0  0  0  0  0  0  0  0  0  0  0
   49.3910  158.5850   30.8520 C   0  0  0  0  0  0  0  0  0  0  0  0
   48.2610  158.4390   31.3130 O   0  0  0  0  0  0  0  0  0  0  0  0
   49.9790  157.5540   29.9660 C   0  0  0  0  0  0  0  0  0  0  0  0
   49.2000  156.4480   29.6820 O   0  0  0  0  0  0  0  0  0  0  0  0
   52.5490  157.2260   27.4150 C   0  0  0  0  0  0  0  0  0  0  0  0
   53.1650  156.3040   26.5640 C   0  0  0  0  0  0  0  0  0  0  0  0
   53.1420  154.9310   26.8520 C   0  0  0  0  0  0  0  0  0  0  0  0
   53.8150  153.9620   25.9130 C   0  0  0  0  0  0  0  0  0  0  0  0
   53.0790  153.6880   24.7960 F   0  0  0  0  0  0  0  0  0  0  0  0
   51.5729  151.1634   28.0327 H   0  0  0  0  0  0  0  0  0  0  0  0
   50.9961  152.5721   26.8869 H   0  0  0  0  0  0  0  0  0  0  0  0
   53.0094  152.7084   29.2238 H   0  0  0  0  0  0  0  0  0  0  0  0
   51.3494  155.0771   29.7676 H   0  0  0  0  0  0  0  0  0  0  0  0
   53.2747  161.0322   30.3765 H   0  0  0  0  0  0  0  0  0  0  0  0
   52.4437  162.8618   31.8572 H   0  0  0  0  0  0  0  0  0  0  0  0
   50.1749  162.7046   32.8860 H   0  0  0  0  0  0  0  0  0  0  0  0
   48.1720  159.9740   32.9350 H   0  0  0  0  0  0  0  0  0  0  0  0
   48.3260  156.3920   30.0160 H   0  0  0  0  0  0  0  0  0  0  0  0
   52.5754  158.2971   27.1660 H   0  0  0  0  0  0  0  0  0  0  0  0
   53.6746  156.6596   25.6563 H   0  0  0  0  0  0  0  0  0  0  0  0
   54.7775  154.3923   25.5992 H   0  0  0  0  0  0  0  0  0  0  0  0
   53.9404  153.0154   26.4590 H   0  0  0  0  0  0  0  0  0  0  0  0
  1  2  2  0
  2  3  1  0
  3  4  2  0
  4  5  1  0
  5  6  1  0
  6  7  1  0
  7  8  1  0
  8  9  2  0
  9 10  1  0
 10 11  2  0
 11 12  1  0
 12 13  1  0
 12 14  2  0
 14 15  1  0
 15 16  2  0
 15 17  1  0
 17 18  1  0
  5 19  2  0
 19 20  1  0
 20 21  2  0
 21 22  1  0
 22 23  1  0
 21  3  1  0
 17  6  2  0
 14  8  1  0
  1 24  1  0
  1 25  1  0
  2 26  1  0
  4 27  1  0
  9 28  1  0
 10 29  1  0
 11 30  1  0
 13 31  1  0
 18 32  1  0
 19 33  1  0
 20 34  1  0
 22 35  1  0
 22 36  1  0
M  END
>  <meeko>  (8) 
{"is_sidechain": [false], "free_energy": -8.013, "intermolecular_energy": -9.854, "internal_energy": -0.088}

$$$$
