cand_025_out
     RDKit          3D

 53 56  0  0  0  0  0  0  0  0999 V2000
   54.2320  156.5540   25.0710 C   0  0  0  0  0  0  0  0  0  0  0  0
   53.1220  155.5150   25.1090 C   0  0  0  0  0  0  0  0  0  0  0  0
   52.5620  155.3360   26.5030 C   0  0  0  0  0  0  0  0  0  0  0  0
   52.2490  156.4840   27.2580 C   0  0  0  0  0  0  0  0  0  0  0  0
   51.7350  156.3910   28.5570 C   0  0  0  0  0  0  0  0  0  0  0  0
   51.4300  157.5910   29.3630 C   0  0  0  0  0  0  0  0  0  0  0  0
   50.1080  157.6320   29.7920 O   0  0  0  0  0  0  0  0  0  0  0  0
   49.6890  158.6940   30.5520 C   0  0  0  0  0  0  0  0  0  0  0  0
   48.3600  158.6860   30.9740 C   0  0  0  0  0  0  0  0  0  0  0  0
   47.8680  159.7390   31.7490 C   0  0  0  0  0  0  0  0  0  0  0  0
   48.7060  160.7980   32.1020 C   0  0  0  0  0  0  0  0  0  0  0  0
   50.0330  160.8030   31.6810 C   0  0  0  0  0  0  0  0  0  0  0  0
   50.7990  161.8710   32.0620 O   0  0  0  0  0  0  0  0  0  0  0  0
   50.5250  159.7500   30.9050 C   0  0  0  0  0  0  0  0  0  0  0  0
   51.9130  159.7160   30.4410 C   0  0  0  0  0  0  0  0  0  0  0  0
   52.7080  160.6150   30.7050 O   0  0  0  0  0  0  0  0  0  0  0  0
   52.3360  158.5510   29.6310 C   0  0  0  0  0  0  0  0  0  0  0  0
   53.6450  158.5350   29.1880 O   0  0  0  0  0  0  0  0  0  0  0  0
   51.5530  155.1170   29.1060 C   0  0  0  0  0  0  0  0  0  0  0  0
   51.8660  153.9700   28.3700 C   0  0  0  0  0  0  0  0  0  0  0  0
   52.3780  154.0570   27.0670 C   0  0  0  0  0  0  0  0  0  0  0  0
   52.6950  152.9140   26.3080 N   0  0  0  0  0  0  0  0  0  0  0  0
   54.1310  152.7830   25.9780 C   0  0  0  0  0  0  0  0  0  0  0  0
   54.3410  151.5760   25.0340 C   0  0  0  0  0  0  0  0  0  0  0  0
   53.8340  150.3090   25.6140 N   0  0  0  0  0  0  0  0  0  0  0  0
   54.0020  149.2070   24.6700 C   0  0  0  0  0  0  0  0  0  0  0  0
   52.4050  150.4760   25.9710 C   0  0  0  0  0  0  0  0  0  0  0  0
   52.1620  151.6760   26.9180 C   0  0  0  0  0  0  0  0  0  0  0  0
   54.5185  156.8222   26.0986 H   0  0  0  0  0  0  0  0  0  0  0  0
   55.1039  156.1399   24.5435 H   0  0  0  0  0  0  0  0  0  0  0  0
   53.8764  157.4513   24.5435 H   0  0  0  0  0  0  0  0  0  0  0  0
   52.3111  155.8367   24.4389 H   0  0  0  0  0  0  0  0  0  0  0  0
   53.5458  154.5525   24.7865 H   0  0  0  0  0  0  0  0  0  0  0  0
   52.4126  157.4778   26.8158 H   0  0  0  0  0  0  0  0  0  0  0  0
   47.6995  157.8512   30.6969 H   0  0  0  0  0  0  0  0  0  0  0  0
   46.8194  159.7336   32.0813 H   0  0  0  0  0  0  0  0  0  0  0  0
   48.3185  161.6274   32.7119 H   0  0  0  0  0  0  0  0  0  0  0  0
   51.3170  162.3260   31.4270 H   0  0  0  0  0  0  0  0  0  0  0  0
   53.9790  159.2530   28.6870 H   0  0  0  0  0  0  0  0  0  0  0  0
   51.1592  155.0166   30.1282 H   0  0  0  0  0  0  0  0  0  0  0  0
   51.7075  152.9797   28.8219 H   0  0  0  0  0  0  0  0  0  0  0  0
   54.4770  153.7009   25.4803 H   0  0  0  0  0  0  0  0  0  0  0  0
   54.7045  152.6258   26.9034 H   0  0  0  0  0  0  0  0  0  0  0  0
   53.8104  151.7695   24.0900 H   0  0  0  0  0  0  0  0  0  0  0  0
   55.4230  151.4612   24.8724 H   0  0  0  0  0  0  0  0  0  0  0  0
   54.3680  150.0850   26.4540 H   0  0  0  0  0  0  0  0  0  0  0  0
   54.1452  148.2678   25.2245 H   0  0  0  0  0  0  0  0  0  0  0  0
   53.1058  149.1263   24.0373 H   0  0  0  0  0  0  0  0  0  0  0  0
   54.8816  149.3970   24.0373 H   0  0  0  0  0  0  0  0  0  0  0  0
   51.8278  150.6337   25.0480 H   0  0  0  0  0  0  0  0  0  0  0  0
   52.0861  149.5657   26.4998 H   0  0  0  0  0  0  0  0  0  0  0  0
   51.0819  151.7907   27.0919 H   0  0  0  0  0  0  0  0  0  0  0  0
   52.6748  151.4930   27.8738 H   0  0  0  0  0  0  0  0  0  0  0  0
  1  2  1  0
  2  3  1  0
  3  4  2  0
  4  5  1  0
  5  6  1  0
  6  7  1  0
  7  8  1  0
  8  9  2  0
  9 10  1  0
 10 11  2  0
 11 12  1  0
 12 13  1  0
 12 14  2  0
 14 15  1  0
 15 16  2  0
 15 17  1  0
 17 18  1  0
  5 19  2  0
 19 20  1  0
 20 21  2  0
 21 22  1  0
 22 23  1  0
 23 24  1  0
 24 25  1  0
 25 26  1  0
 25 27  1  0
 27 28  1  0
 21  3  1  0
 28 22  1  0
 17  6  2  0
 14  8  1  0
  1 29  1  0
  1 30  1  0
  1 31  1  0
  2 32  1  0
  2 33  1  0
  4 34  1  0
  9 35  1  0
 10 36  1  0
 11 37  1  0
 13 38  1  0
 18 39  1  0
 19 40  1  0
 20 41  1  0
 23 42  1  0
 23 43  1  0
 24 44  1  0
 24 45  1  0
 25 46  1  0
 26 47  1  0
 26 48  1  0
 26 49  1  0
 27 50  1  0
 27 51  1  0
 28 52  1  0
 28 53  1  0
M  CHG  1  25   1
M  END
>  <meeko>  (1) 
{"is_sidechain": [false], "free_energy": -10.585, "intermolecular_energy": -13.06, "internal_energy": -0.071}

$$$$
cand_025_out
     RDKit          3D

 53 56  0  0  0  0  0  0  0  0999 V2000
   53.7650  156.5600   25.3730 C   0  0  0  0  0  0  0  0  0  0  0  0
   53.1520  155.1860   25.5970 C   0  0  0  0  0  0  0  0  0  0  0  0
   52.5620  155.0490   26.9840 C   0  0  0  0  0  0  0  0  0  0  0  0
   52.0300  156.1940   27.6080 C   0  0  0  0  0  0  0  0  0  0  0  0
   51.4770  156.1390   28.8930 C   0  0  0  0  0  0  0  0  0  0  0  0
   50.9400  157.3420   29.5640 C   0  0  0  0  0  0  0  0  0  0  0  0
   51.9100  158.3090   29.7970 O   0  0  0  0  0  0  0  0  0  0  0  0
   51.5470  159.4790   30.4140 C   0  0  0  0  0  0  0  0  0  0  0  0
   52.5490  160.4290   30.6130 C   0  0  0  0  0  0  0  0  0  0  0  0
   52.2460  161.6420   31.2370 C   0  0  0  0  0  0  0  0  0  0  0  0
   50.9420  161.9030   31.6610 C   0  0  0  0  0  0  0  0  0  0  0  0
   49.9430  160.9540   31.4600 C   0  0  0  0  0  0  0  0  0  0  0  0
   48.6880  161.2750   31.9000 O   0  0  0  0  0  0  0  0  0  0  0  0
   50.2460  159.7420   30.8360 C   0  0  0  0  0  0  0  0  0  0  0  0
   49.2270  158.7170   30.6050 C   0  0  0  0  0  0  0  0  0  0  0  0
   48.0590  158.8710   30.9560 O   0  0  0  0  0  0  0  0  0  0  0  0
   49.6500  157.4690   29.9280 C   0  0  0  0  0  0  0  0  0  0  0  0
   48.6810  156.5040   29.7270 O   0  0  0  0  0  0  0  0  0  0  0  0
   51.4800  154.9110   29.5630 C   0  0  0  0  0  0  0  0  0  0  0  0
   52.0120  153.7680   28.9580 C   0  0  0  0  0  0  0  0  0  0  0  0
   52.5650  153.8170   27.6690 C   0  0  0  0  0  0  0  0  0  0  0  0
   53.1010  152.6770   27.0400 N   0  0  0  0  0  0  0  0  0  0  0  0
   52.0860  151.7370   26.5170 C   0  0  0  0  0  0  0  0  0  0  0  0
   52.7820  150.4660   25.9740 C   0  0  0  0  0  0  0  0  0  0  0  0
   53.7810  150.7730   24.9230 N   0  0  0  0  0  0  0  0  0  0  0  0
   54.4520  149.5540   24.4790 C   0  0  0  0  0  0  0  0  0  0  0  0
   54.7660  151.7450   25.4580 C   0  0  0  0  0  0  0  0  0  0  0  0
   54.1000  153.0290   26.0070 C   0  0  0  0  0  0  0  0  0  0  0  0
   53.9750  157.0307   26.3448 H   0  0  0  0  0  0  0  0  0  0  0  0
   54.7019  156.4555   24.8061 H   0  0  0  0  0  0  0  0  0  0  0  0
   53.0614  157.1874   24.8061 H   0  0  0  0  0  0  0  0  0  0  0  0
   52.3559  155.0268   24.8548 H   0  0  0  0  0  0  0  0  0  0  0  0
   53.9497  154.4361   25.4909 H   0  0  0  0  0  0  0  0  0  0  0  0
   52.0494  157.1548   27.0728 H   0  0  0  0  0  0  0  0  0  0  0  0
   53.5767  160.2234   30.2790 H   0  0  0  0  0  0  0  0  0  0  0  0
   53.0355  162.3916   31.3942 H   0  0  0  0  0  0  0  0  0  0  0  0
   50.7038  162.8574   32.1534 H   0  0  0  0  0  0  0  0  0  0  0  0
   48.4410  162.1750   31.9940 H   0  0  0  0  0  0  0  0  0  0  0  0
   48.9000  155.7030   29.2940 H   0  0  0  0  0  0  0  0  0  0  0  0
   51.0592  154.8437   30.5771 H   0  0  0  0  0  0  0  0  0  0  0  0
   51.9968  152.8124   29.5027 H   0  0  0  0  0  0  0  0  0  0  0  0
   51.3949  151.4580   27.3260 H   0  0  0  0  0  0  0  0  0  0  0  0
   51.5263  152.2214   25.7033 H   0  0  0  0  0  0  0  0  0  0  0  0
   53.2905  149.9587   26.8071 H   0  0  0  0  0  0  0  0  0  0  0  0
   52.0082  149.8266   25.5241 H   0  0  0  0  0  0  0  0  0  0  0  0
   53.3080  151.1820   24.1170 H   0  0  0  0  0  0  0  0  0  0  0  0
   54.7725  148.9718   25.3556 H   0  0  0  0  0  0  0  0  0  0  0  0
   53.7576  148.9530   23.8735 H   0  0  0  0  0  0  0  0  0  0  0  0
   55.3313  149.8192   23.8735 H   0  0  0  0  0  0  0  0  0  0  0  0
   55.3281  151.2644   26.2723 H   0  0  0  0  0  0  0  0  0  0  0  0
   55.4249  152.0411   24.6284 H   0  0  0  0  0  0  0  0  0  0  0  0
   54.8696  153.6779   26.4503 H   0  0  0  0  0  0  0  0  0  0  0  0
   53.5977  153.5567   25.1829 H   0  0  0  0  0  0  0  0  0  0  0  0
  1  2  1  0
  2  3  1  0
  3  4  2  0
  4  5  1  0
  5  6  1  0
  6  7  1  0
  7  8  1  0
  8  9  2  0
  9 10  1  0
 10 11  2  0
 11 12  1  0
 12 13  1  0
 12 14  2  0
 14 15  1  0
 15 16  2  0
 15 17  1  0
 17 18  1  0
  5 19  2  0
 19 20  1  0
 20 21  2  0
 21 22  1  0
 22 23  1  0
 23 24  1  0
 24 25  1  0
 25 26  1  0
 25 27  1  0
 27 28  1  0
 21  3  1  0
 28 22  1  0
 17  6  2  0
 14  8  1  0
  1 29  1  0
  1 30  1  0
  1 31  1  0
  2 32  1  0
  2 33  1  0
  4 34  1  0
  9 35  1  0
 10 36  1  0
 11 37  1  0
 13 38  1  0
 18 39  1  0
 19 40  1  0
 20 41  1  0
 23 42  1  0
 23 43  1  0
 24 44  1  0
 24 45  1  0
 25 46  1  0
 26 47  1  0
 26 48  1  0
 26 49  1  0
 27 50  1  0
 27 51  1  0
 28 52  1  0
 28 53  1  0
M  CHG  1  25   1
M  END
>  <meeko>  (2) 
{"is_sidechain": [false], "free_energy": -8.772, "intermolecular_energy": -11.953, "internal_energy": 1.058}

$$$$
cand_025_out
     RDKit          3D

 53 56  0  0  0  0  0  0  0  0999 V2000
   50.8240  153.6440   30.4380 C   0  0  0  0  0  0  0  0  0  0  0  0
   51.8340  153.6780   29.3010 C   0  0  0  0  0  0  0  0  0  0  0  0
   52.1050  155.0880   28.8270 C   0  0  0  0  0  0  0  0  0  0  0  0
   51.6430  156.1650   29.6090 C   0  0  0  0  0  0  0  0  0  0  0  0
   51.8520  157.4950   29.2240 C   0  0  0  0  0  0  0  0  0  0  0  0
   51.3480  158.6290   30.0280 C   0  0  0  0  0  0  0  0  0  0  0  0
   50.0140  158.4830   30.3900 O   0  0  0  0  0  0  0  0  0  0  0  0
   49.4190  159.4640   31.1400 C   0  0  0  0  0  0  0  0  0  0  0  0
   48.0840  159.2700   31.4950 C   0  0  0  0  0  0  0  0  0  0  0  0
   47.4170  160.2320   32.2570 C   0  0  0  0  0  0  0  0  0  0  0  0
   48.0860  161.3890   32.6630 C   0  0  0  0  0  0  0  0  0  0  0  0
   49.4190  161.5810   32.3080 C   0  0  0  0  0  0  0  0  0  0  0  0
   50.0130  162.7360   32.7380 O   0  0  0  0  0  0  0  0  0  0  0  0
   50.0850  160.6180   31.5460 C   0  0  0  0  0  0  0  0  0  0  0  0
   51.4850  160.7800   31.1510 C   0  0  0  0  0  0  0  0  0  0  0  0
   52.1380  161.7730   31.4640 O   0  0  0  0  0  0  0  0  0  0  0  0
   52.1010  159.6970   30.3500 C   0  0  0  0  0  0  0  0  0  0  0  0
   53.4190  159.8670   29.9730 O   0  0  0  0  0  0  0  0  0  0  0  0
   52.5220  157.7380   28.0210 C   0  0  0  0  0  0  0  0  0  0  0  0
   52.9800  156.6780   27.2310 C   0  0  0  0  0  0  0  0  0  0  0  0
   52.7750  155.3440   27.6130 C   0  0  0  0  0  0  0  0  0  0  0  0
   53.2320  154.2630   26.8340 N   0  0  0  0  0  0  0  0  0  0  0  0
   52.2290  153.1950   26.6310 C   0  0  0  0  0  0  0  0  0  0  0  0
   52.8790  152.0060   25.8840 C   0  0  0  0  0  0  0  0  0  0  0  0
   53.4670  152.4070   24.5830 N   0  0  0  0  0  0  0  0  0  0  0  0
   54.1160  151.2680   23.9380 C   0  0  0  0  0  0  0  0  0  0  0  0
   54.4390  153.5030   24.8080 C   0  0  0  0  0  0  0  0  0  0  0  0
   53.8190  154.7100   25.5510 C   0  0  0  0  0  0  0  0  0  0  0  0
   51.3553  153.6619   31.4010 H   0  0  0  0  0  0  0  0  0  0  0  0
   50.1630  154.5204   30.3676 H   0  0  0  0  0  0  0  0  0  0  0  0
   50.2234  152.7251   30.3676 H   0  0  0  0  0  0  0  0  0  0  0  0
   52.7774  153.2332   29.6504 H   0  0  0  0  0  0  0  0  0  0  0  0
   51.4153  153.1101   28.4571 H   0  0  0  0  0  0  0  0  0  0  0  0
   51.1047  155.9559   30.5452 H   0  0  0  0  0  0  0  0  0  0  0  0
   47.5565  158.3594   31.1748 H   0  0  0  0  0  0  0  0  0  0  0  0
   46.3645  160.0784   32.5375 H   0  0  0  0  0  0  0  0  0  0  0  0
   47.5608  162.1474   33.2622 H   0  0  0  0  0  0  0  0  0  0  0  0
   49.4900  163.4940   32.9160 H   0  0  0  0  0  0  0  0  0  0  0  0
   54.0980  159.3900   30.4080 H   0  0  0  0  0  0  0  0  0  0  0  0
   52.6909  158.7740   27.6921 H   0  0  0  0  0  0  0  0  0  0  0  0
   53.5110  156.8949   26.2924 H   0  0  0  0  0  0  0  0  0  0  0  0
   51.8555  152.8534   27.6076 H   0  0  0  0  0  0  0  0  0  0  0  0
   51.3933  153.5882   26.0336 H   0  0  0  0  0  0  0  0  0  0  0  0
   53.6746  151.5846   26.5160 H   0  0  0  0  0  0  0  0  0  0  0  0
   52.0901  151.2667   25.6811 H   0  0  0  0  0  0  0  0  0  0  0  0
   52.7240  152.7350   23.9650 H   0  0  0  0  0  0  0  0  0  0  0  0
   54.5055  150.5844   24.7067 H   0  0  0  0  0  0  0  0  0  0  0  0
   53.3852  150.7364   23.3108 H   0  0  0  0  0  0  0  0  0  0  0  0
   54.9459  151.6257   23.3108 H   0  0  0  0  0  0  0  0  0  0  0  0
   55.2756  153.1136   25.4067 H   0  0  0  0  0  0  0  0  0  0  0  0
   54.7735  153.8571   23.8217 H   0  0  0  0  0  0  0  0  0  0  0  0
   54.6011  155.4579   25.7484 H   0  0  0  0  0  0  0  0  0  0  0  0
   53.0299  155.1539   24.9263 H   0  0  0  0  0  0  0  0  0  0  0  0
  1  2  1  0
  2  3  1  0
  3  4  2  0
  4  5  1  0
  5  6  1  0
  6  7  1  0
  7  8  1  0
  8  9  2  0
  9 10  1  0
 10 11  2  0
 11 12  1  0
 12 13  1  0
 12 14  2  0
 14 15  1  0
 15 16  2  0
 15 17  1  0
 17 18  1  0
  5 19  2  0
 19 20  1  0
 20 21  2  0
 21 22  1  0
 22 23  1  0
 23 24  1  0
 24 25  1  0
 25 26  1  0
 25 27  1  0
 27 28  1  0
 21  3  1  0
 28 22  1  0
 17  6  2  0
 14  8  1  0
  1 29  1  0
  1 30  1  0
  1 31  1  0
  2 32  1  0
  2 33  1  0
  4 34  1  0
  9 35  1  0
 10 36  1  0
 11 37  1  0
 13 38  1  0
 18 39  1  0
 19 40  1  0
 20 41  1  0
 23 42  1  0
 23 43  1  0
 24 44  1  0
 24 45  1  0
 25 46  1  0
 26 47  1  0
 26 48  1  0
 26 49  1  0
 27 50  1  0
 27 51  1  0
 28 52  1  0
 28 53  1  0
M  CHG  1  25   1
M  END
>  <meeko>  (3) 
{"is_sidechain": [false], "free_energy": -7.875, "intermolecular_energy": -10.274, "internal_energy": 0.486}

$$$$
cand_025_out
     RDKit          3D

 53 56  0  0  0  0  0  0  0  0999 V2000
   52.4340  161.1510   31.5870 C   0  0  0  0  0  0  0  0  0  0  0  0
   52.5000  160.6030   30.1700 C   0  0  0  0  0  0  0  0  0  0  0  0
   51.7610  159.2900   30.0350 C   0  0  0  0  0  0  0  0  0  0  0  0
   52.3230  158.2780   29.2310 C   0  0  0  0  0  0  0  0  0  0  0  0
   51.6880  157.0430   29.0570 C   0  0  0  0  0  0  0  0  0  0  0  0
   52.2600  155.9860   28.1960 C   0  0  0  0  0  0  0  0  0  0  0  0
   52.8480  156.4890   27.0410 O   0  0  0  0  0  0  0  0  0  0  0  0
   53.4190  155.6160   26.1520 C   0  0  0  0  0  0  0  0  0  0  0  0
   54.0120  156.1650   25.0150 C   0  0  0  0  0  0  0  0  0  0  0  0
   54.6100  155.3300   24.0680 C   0  0  0  0  0  0  0  0  0  0  0  0
   54.6150  153.9470   24.2590 C   0  0  0  0  0  0  0  0  0  0  0  0
   54.0230  153.4010   25.3950 C   0  0  0  0  0  0  0  0  0  0  0  0
   54.0640  152.0390   25.5180 O   0  0  0  0  0  0  0  0  0  0  0  0
   53.4250  154.2360   26.3420 C   0  0  0  0  0  0  0  0  0  0  0  0
   52.7920  153.7040   27.5500 C   0  0  0  0  0  0  0  0  0  0  0  0
   52.7500  152.4980   27.7830 O   0  0  0  0  0  0  0  0  0  0  0  0
   52.1940  154.6750   28.4940 C   0  0  0  0  0  0  0  0  0  0  0  0
   51.5870  154.1600   29.6240 O   0  0  0  0  0  0  0  0  0  0  0  0
   50.4570  156.8360   29.6890 C   0  0  0  0  0  0  0  0  0  0  0  0
   49.8850  157.8350   30.4830 C   0  0  0  0  0  0  0  0  0  0  0  0
   50.5180  159.0740   30.6640 C   0  0  0  0  0  0  0  0  0  0  0  0
   49.9600  160.0910   31.4620 N   0  0  0  0  0  0  0  0  0  0  0  0
   48.8430  160.8200   30.8240 C   0  0  0  0  0  0  0  0  0  0  0  0
   48.4030  161.9950   31.7300 C   0  0  0  0  0  0  0  0  0  0  0  0
   48.0090  161.5460   33.0870 N   0  0  0  0  0  0  0  0  0  0  0  0
   47.6540  162.6900   33.9240 C   0  0  0  0  0  0  0  0  0  0  0  0
   49.1300  160.7860   33.6910 C   0  0  0  0  0  0  0  0  0  0  0  0
   49.5920  159.6010   32.8100 C   0  0  0  0  0  0  0  0  0  0  0  0
   52.5336  160.3237   32.3051 H   0  0  0  0  0  0  0  0  0  0  0  0
   53.2520  161.8702   31.7404 H   0  0  0  0  0  0  0  0  0  0  0  0
   51.4686  161.6555   31.7404 H   0  0  0  0  0  0  0  0  0  0  0  0
   52.0497  161.3360   29.4845 H   0  0  0  0  0  0  0  0  0  0  0  0
   53.5571  160.4247   29.9237 H   0  0  0  0  0  0  0  0  0  0  0  0
   53.2837  158.4633   28.7282 H   0  0  0  0  0  0  0  0  0  0  0  0
   54.0088  157.2546   24.8642 H   0  0  0  0  0  0  0  0  0  0  0  0
   55.0773  155.7626   23.1711 H   0  0  0  0  0  0  0  0  0  0  0  0
   55.0859  153.2897   23.5132 H   0  0  0  0  0  0  0  0  0  0  0  0
   54.7480  151.6340   26.0150 H   0  0  0  0  0  0  0  0  0  0  0  0
   52.0310  153.5190   30.1440 H   0  0  0  0  0  0  0  0  0  0  0  0
   49.9335  155.8772   29.5599 H   0  0  0  0  0  0  0  0  0  0  0  0
   48.9197  157.6457   30.9754 H   0  0  0  0  0  0  0  0  0  0  0  0
   49.1710  161.2121   29.8500 H   0  0  0  0  0  0  0  0  0  0  0  0
   47.9954  160.1340   30.6792 H   0  0  0  0  0  0  0  0  0  0  0  0
   49.2398  162.7031   31.8214 H   0  0  0  0  0  0  0  0  0  0  0  0
   47.5248  162.4664   31.2647 H   0  0  0  0  0  0  0  0  0  0  0  0
   47.1900  160.9420   33.0180 H   0  0  0  0  0  0  0  0  0  0  0  0
   47.7410  162.4097   34.9841 H   0  0  0  0  0  0  0  0  0  0  0  0
   48.3347  163.5269   33.7090 H   0  0  0  0  0  0  0  0  0  0  0  0
   46.6191  162.9945   33.7090 H   0  0  0  0  0  0  0  0  0  0  0  0
   49.9801  161.4688   33.8362 H   0  0  0  0  0  0  0  0  0  0  0  0
   48.7736  160.3710   34.6453 H   0  0  0  0  0  0  0  0  0  0  0  0
   50.4652  159.1195   33.2744 H   0  0  0  0  0  0  0  0  0  0  0  0
   48.7715  158.8739   32.7204 H   0  0  0  0  0  0  0  0  0  0  0  0
  1  2  1  0
  2  3  1  0
  3  4  2  0
  4  5  1  0
  5  6  1  0
  6  7  1  0
  7  8  1  0
  8  9  2  0
  9 10  1  0
 10 11  2  0
 11 12  1  0
 12 13  1  0
 12 14  2  0
 14 15  1  0
 15 16  2  0
 15 17  1  0
 17 18  1  0
  5 19  2  0
 19 20  1  0
 20 21  2  0
 21 22  1  0
 22 23  1  0
 23 24  1  0
 24 25  1  0
 25 26  1  0
 25 27  1  0
 27 28  1  0
 21  3  1  0
 28 22  1  0
 17  6  2  0
 14  8  1  0
  1 29  1  0
  1 30  1  0
  1 31  1  0
  2 32  1  0
  2 33  1  0
  4 34  1  0
  9 35  1  0
 10 36  1  0
 11 37  1  0
 13 38  1  0
 18 39  1  0
 19 40  1  0
 20 41  1  0
 23 42  1  0
 23 43  1  0
 24 44  1  0
 24 45  1  0
 25 46  1  0
 26 47  1  0
 26 48  1  0
 26 49  1  0
 27 50  1  0
 27 51  1  0
 28 52  1  0
 28 53  1  0
M  CHG  1  25   1
M  END
>  <meeko>  (4) 
{"is_sidechain": [false], "free_energy": -7.642, "intermolecular_energy": -10.088, "internal_energy": 0.588}

$$$$
