cand_005_out
     RDKit          3D

 36 38  0  0  0  0  0  0  0  0999 V2000
   47.3540  159.4150   30.8750 C   0  0  0  0  0  0  0  0  0  0  0  0
   48.3960  158.7760   31.4190 C   0  0  0  0  0  0  0  0  0  0  0  0
   49.7460  158.8340   30.8440 C   0  0  0  0  0  0  0  0  0  0  0  0
   50.2220  157.7250   30.1200 C   0  0  0  0  0  0  0  0  0  0  0  0
   51.5090  157.7090   29.5610 C   0  0  0  0  0  0  0  0  0  0  0  0
   51.9590  156.5330   28.7870 C   0  0  0  0  0  0  0  0  0  0  0  0
   52.5130  156.8740   27.5580 O   0  0  0  0  0  0  0  0  0  0  0  0
   52.9700  155.8740   26.7380 C   0  0  0  0  0  0  0  0  0  0  0  0
   53.5300  156.2610   25.5190 C   0  0  0  0  0  0  0  0  0  0  0  0
   54.0130  155.2930   24.6370 C   0  0  0  0  0  0  0  0  0  0  0  0
   53.9360  153.9390   24.9700 C   0  0  0  0  0  0  0  0  0  0  0  0
   53.3750  153.5560   26.1860 C   0  0  0  0  0  0  0  0  0  0  0  0
   53.3310  152.2150   26.4490 O   0  0  0  0  0  0  0  0  0  0  0  0
   52.8930  154.5250   27.0700 C   0  0  0  0  0  0  0  0  0  0  0  0
   52.2970  154.1640   28.3570 C   0  0  0  0  0  0  0  0  0  0  0  0
   52.1870  152.9950   28.7200 O   0  0  0  0  0  0  0  0  0  0  0  0
   51.8220  155.2680   29.2240 C   0  0  0  0  0  0  0  0  0  0  0  0
   51.2480  154.9170   30.4320 O   0  0  0  0  0  0  0  0  0  0  0  0
   52.3190  158.8370   29.7260 C   0  0  0  0  0  0  0  0  0  0  0  0
   51.8610  159.9440   30.4460 C   0  0  0  0  0  0  0  0  0  0  0  0
   50.5750  159.9570   31.0160 C   0  0  0  0  0  0  0  0  0  0  0  0
   50.1110  161.1760   31.7790 C   0  0  0  0  0  0  0  0  0  0  0  0
   49.1250  161.8640   31.1380 F   0  0  0  0  0  0  0  0  0  0  0  0
   51.1050  162.0860   31.9960 F   0  0  0  0  0  0  0  0  0  0  0  0
   49.6230  160.8770   33.0170 F   0  0  0  0  0  0  0  0  0  0  0  0
   46.3602  159.3427   31.3410 H   0  0  0  0  0  0  0  0  0  0  0  0
   47.4911  160.0126   29.9617 H   0  0  0  0  0  0  0  0  0  0  0  0
   48.2353  158.1843   32.3323 H   0  0  0  0  0  0  0  0  0  0  0  0
   49.5692  156.8494   29.9891 H   0  0  0  0  0  0  0  0  0  0  0  0
   53.5904  157.3269   25.2541 H   0  0  0  0  0  0  0  0  0  0  0  0
   54.4555  155.5975   23.6771 H   0  0  0  0  0  0  0  0  0  0  0  0
   54.3172  153.1772   24.2741 H   0  0  0  0  0  0  0  0  0  0  0  0
   52.5730  151.8410   26.8530 H   0  0  0  0  0  0  0  0  0  0  0  0
   51.0000  155.5810   31.0450 H   0  0  0  0  0  0  0  0  0  0  0  0
   53.3265  158.8532   29.2848 H   0  0  0  0  0  0  0  0  0  0  0  0
   52.5165  160.8188   30.5689 H   0  0  0  0  0  0  0  0  0  0  0  0
  1  2  2  0
  2  3  1  0
  3  4  2  0
  4  5  1  0
  5  6  1  0
  6  7  1  0
  7  8  1  0
  8  9  2  0
  9 10  1  0
 10 11  2  0
 11 12  1  0
 12 13  1  0
 12 14  2  0
 14 15  1  0
 15 16  2  0
 15 17  1  0
 17 18  1  0
  5 19  2  0
 19 20  1  0
 20 21  2  0
 21 22  1  0
 22 23  1  0
 22 24  1  0
 22 25  1  0
 21  3  1  0
 17  6  2  0
 14  8  1  0
  1 26  1  0
  1 27  1  0
  2 28  1  0
  4 29  1  0
  9 30  1  0
 10 31  1  0
 11 32  1  0
 13 33  1  0
 18 34  1  0
 19 35  1  0
 20 36  1  0
M  END
>  <meeko>  (1) 
{"is_sidechain": [false], "free_energy": -11.147, "intermolecular_energy": -13.754, "internal_energy": -0.064}

$$$$
cand_005_out
     RDKit          3D

 36 38  0  0  0  0  0  0  0  0999 V2000
   52.7160  161.3780   30.4860 C   0  0  0  0  0  0  0  0  0  0  0  0
   51.6800  160.9280   31.2040 C   0  0  0  0  0  0  0  0  0  0  0  0
   50.9190  159.7300   30.8270 C   0  0  0  0  0  0  0  0  0  0  0  0
   51.5650  158.7230   30.0850 C   0  0  0  0  0  0  0  0  0  0  0  0
   50.8890  157.5620   29.6780 C   0  0  0  0  0  0  0  0  0  0  0  0
   51.6130  156.5180   28.9220 C   0  0  0  0  0  0  0  0  0  0  0  0
   52.1490  156.9880   27.7290 O   0  0  0  0  0  0  0  0  0  0  0  0
   52.8460  156.1190   26.9290 C   0  0  0  0  0  0  0  0  0  0  0  0
   53.3790  156.6350   25.7470 C   0  0  0  0  0  0  0  0  0  0  0  0
   54.0980  155.8040   24.8860 C   0  0  0  0  0  0  0  0  0  0  0  0
   54.2850  154.4570   25.2060 C   0  0  0  0  0  0  0  0  0  0  0  0
   53.7500  153.9440   26.3860 C   0  0  0  0  0  0  0  0  0  0  0  0
   53.9700  152.6180   26.6370 O   0  0  0  0  0  0  0  0  0  0  0  0
   53.0320  154.7770   27.2470 C   0  0  0  0  0  0  0  0  0  0  0  0
   52.4560  154.2780   28.4970 C   0  0  0  0  0  0  0  0  0  0  0  0
   52.5700  153.1050   28.8450 O   0  0  0  0  0  0  0  0  0  0  0  0
   51.7170  155.2440   29.3430 C   0  0  0  0  0  0  0  0  0  0  0  0
   51.1630  154.7610   30.5140 O   0  0  0  0  0  0  0  0  0  0  0  0
   49.5460  157.4150   30.0390 C   0  0  0  0  0  0  0  0  0  0  0  0
   48.8910  158.4090   30.7710 C   0  0  0  0  0  0  0  0  0  0  0  0
   49.5630  159.5770   31.1710 C   0  0  0  0  0  0  0  0  0  0  0  0
   48.8260  160.6250   31.9710 C   0  0  0  0  0  0  0  0  0  0  0  0
   49.3440  160.8110   33.2170 F   0  0  0  0  0  0  0  0  0  0  0  0
   47.5090  160.3230   32.1690 F   0  0  0  0  0  0  0  0  0  0  0  0
   48.8250  161.8510   31.3730 F   0  0  0  0  0  0  0  0  0  0  0  0
   53.2570  162.2804   30.8069 H   0  0  0  0  0  0  0  0  0  0  0  0
   53.0265  160.8455   29.5750 H   0  0  0  0  0  0  0  0  0  0  0  0
   51.3873  161.4766   32.1114 H   0  0  0  0  0  0  0  0  0  0  0  0
   52.6246  158.8489   29.8178 H   0  0  0  0  0  0  0  0  0  0  0  0
   53.2327  157.6955   25.4940 H   0  0  0  0  0  0  0  0  0  0  0  0
   54.5180  156.2104   23.9541 H   0  0  0  0  0  0  0  0  0  0  0  0
   54.8532  153.8030   24.5282 H   0  0  0  0  0  0  0  0  0  0  0  0
   53.5880  151.9670   26.0830 H   0  0  0  0  0  0  0  0  0  0  0  0
   50.4810  154.1200   30.4810 H   0  0  0  0  0  0  0  0  0  0  0  0
   48.9994  156.5073   29.7436 H   0  0  0  0  0  0  0  0  0  0  0  0
   47.8324  158.2752   31.0385 H   0  0  0  0  0  0  0  0  0  0  0  0
  1  2  2  0
  2  3  1  0
  3  4  2  0
  4  5  1  0
  5  6  1  0
  6  7  1  0
  7  8  1  0
  8  9  2  0
  9 10  1  0
 10 11  2  0
 11 12  1  0
 12 13  1  0
 12 14  2  0
 14 15  1  0
 15 16  2  0
 15 17  1  0
 17 18  1  0
  5 19  2  0
 19 20  1  0
 20 21  2  0
 21 22  1  0
 22 23  1  0
 22 24  1  0
 22 25  1  0
 21  3  1  0
 17  6  2  0
 14  8  1  0
  1 26  1  0
  1 27  1  0
  2 28  1  0
  4 29  1  0
  9 30  1  0
 10 31  1  0
 11 32  1  0
 13 33  1  0
 18 34  1  0
 19 35  1  0
 20 36  1  0
M  END
>  <meeko>  (2) 
{"is_sidechain": [false], "free_energy": -11.066, "intermolecular_energy": -13.304, "internal_energy": -0.413}

$$$$
cand_005_out
     RDKit          3D

 36 38  0  0  0  0  0  0  0  0999 V2000
   54.0260  156.5140   25.0100 C   0  0  0  0  0  0  0  0  0  0  0  0
   53.6600  155.3200   25.4890 C   0  0  0  0  0  0  0  0  0  0  0  0
   52.9160  155.1670   26.7460 C   0  0  0  0  0  0  0  0  0  0  0  0
   52.5610  156.3220   27.4670 C   0  0  0  0  0  0  0  0  0  0  0  0
   51.8670  156.2440   28.6840 C   0  0  0  0  0  0  0  0  0  0  0  0
   51.4900  157.4840   29.3960 C   0  0  0  0  0  0  0  0  0  0  0  0
   50.1570  157.4980   29.7900 O   0  0  0  0  0  0  0  0  0  0  0  0
   49.6770  158.5950   30.4590 C   0  0  0  0  0  0  0  0  0  0  0  0
   48.3360  158.5620   30.8480 C   0  0  0  0  0  0  0  0  0  0  0  0
   47.7830  159.6460   31.5320 C   0  0  0  0  0  0  0  0  0  0  0  0
   48.5680  160.7630   31.8280 C   0  0  0  0  0  0  0  0  0  0  0  0
   49.9050  160.7930   31.4370 C   0  0  0  0  0  0  0  0  0  0  0  0
   50.6160  161.9160   31.7580 O   0  0  0  0  0  0  0  0  0  0  0  0
   50.4590  159.7070   30.7540 C   0  0  0  0  0  0  0  0  0  0  0  0
   51.8590  159.6990   30.3270 C   0  0  0  0  0  0  0  0  0  0  0  0
   52.6120  160.6460   30.5430 O   0  0  0  0  0  0  0  0  0  0  0  0
   52.3490  158.4970   29.6140 C   0  0  0  0  0  0  0  0  0  0  0  0
   53.6690  158.5040   29.2020 O   0  0  0  0  0  0  0  0  0  0  0  0
   51.5170  154.9800   29.1690 C   0  0  0  0  0  0  0  0  0  0  0  0
   51.8680  153.8250   28.4670 C   0  0  0  0  0  0  0  0  0  0  0  0
   52.5730  153.9000   27.2520 C   0  0  0  0  0  0  0  0  0  0  0  0
   52.9260  152.6300   26.5140 C   0  0  0  0  0  0  0  0  0  0  0  0
   54.2380  152.2880   26.6360 F   0  0  0  0  0  0  0  0  0  0  0  0
   52.6950  152.7060   25.1710 F   0  0  0  0  0  0  0  0  0  0  0  0
   52.2100  151.5500   26.9400 F   0  0  0  0  0  0  0  0  0  0  0  0
   54.5826  156.5798   24.0635 H   0  0  0  0  0  0  0  0  0  0  0  0
   53.7704  157.4302   25.5626 H   0  0  0  0  0  0  0  0  0  0  0  0
   53.9266  154.4176   24.9193 H   0  0  0  0  0  0  0  0  0  0  0  0
   52.8341  157.3097   27.0670 H   0  0  0  0  0  0  0  0  0  0  0  0
   47.7165  157.6832   30.6157 H   0  0  0  0  0  0  0  0  0  0  0  0
   46.7269  159.6206   31.8386 H   0  0  0  0  0  0  0  0  0  0  0  0
   48.1319  161.6163   32.3681 H   0  0  0  0  0  0  0  0  0  0  0  0
   51.5520  161.8880   31.7830 H   0  0  0  0  0  0  0  0  0  0  0  0
   54.2510  157.8240   29.4790 H   0  0  0  0  0  0  0  0  0  0  0  0
   50.9594  154.8946   30.1133 H   0  0  0  0  0  0  0  0  0  0  0  0
   51.5887  152.8406   28.8706 H   0  0  0  0  0  0  0  0  0  0  0  0
  1  2  2  0
  2  3  1  0
  3  4  2  0
  4  5  1  0
  5  6  1  0
  6  7  1  0
  7  8  1  0
  8  9  2  0
  9 10  1  0
 10 11  2  0
 11 12  1  0
 12 13  1  0
 12 14  2  0
 14 15  1  0
 15 16  2  0
 15 17  1  0
 17 18  1  0
  5 19  2  0
 19 20  1  0
 20 21  2  0
 21 22  1  0
 22 23  1  0
 22 24  1  0
 22 25  1  0
 21  3  1  0
 17  6  2  0
 14  8  1  0
  1 26  1  0
  1 27  1  0
  2 28  1  0
  4 29  1  0
  9 30  1  0
 10 31  1  0
 11 32  1  0
 13 33  1  0
 18 34  1  0
 19 35  1  0
 20 36  1  0
M  END
>  <meeko>  (3) 
{"is_sidechain": [false], "free_energy": -11.017, "intermolecular_energy": -13.48, "internal_energy": -0.177}

$$$$
cand_005_out
     RDKit          3D

 36 38  0  0  0  0  0  0  0  0999 V2000
   54.1690  156.6090   25.1880 C   0  0  0  0  0  0  0  0  0  0  0  0
   53.4680  155.4870   25.3880 C   0  0  0  0  0  0  0  0  0  0  0  0
   52.7860  155.1960   26.6560 C   0  0  0  0  0  0  0  0  0  0  0  0
   52.2730  156.2680   27.4100 C   0  0  0  0  0  0  0  0  0  0  0  0
   51.6280  156.0600   28.6390 C   0  0  0  0  0  0  0  0  0  0  0  0
   51.0810  157.2120   29.3850 C   0  0  0  0  0  0  0  0  0  0  0  0
   52.0210  158.2140   29.5970 O   0  0  0  0  0  0  0  0  0  0  0  0
   51.6440  159.3420   30.2810 C   0  0  0  0  0  0  0  0  0  0  0  0
   52.6140  160.3290   30.4600 C   0  0  0  0  0  0  0  0  0  0  0  0
   52.2970  161.5010   31.1490 C   0  0  0  0  0  0  0  0  0  0  0  0
   51.0100  161.6880   31.6590 C   0  0  0  0  0  0  0  0  0  0  0  0
   50.0440  160.7010   31.4800 C   0  0  0  0  0  0  0  0  0  0  0  0
   48.8060  160.9480   32.0050 O   0  0  0  0  0  0  0  0  0  0  0  0
   50.3620  159.5280   30.7900 C   0  0  0  0  0  0  0  0  0  0  0  0
   49.3750  158.4670   30.5790 C   0  0  0  0  0  0  0  0  0  0  0  0
   48.2250  158.5530   31.0030 O   0  0  0  0  0  0  0  0  0  0  0  0
   49.8120  157.2670   29.8290 C   0  0  0  0  0  0  0  0  0  0  0  0
   48.8770  156.2640   29.6480 O   0  0  0  0  0  0  0  0  0  0  0  0
   51.4880  154.7480   29.1020 C   0  0  0  0  0  0  0  0  0  0  0  0
   51.9970  153.6740   28.3660 C   0  0  0  0  0  0  0  0  0  0  0  0
   52.6540  153.8810   27.1390 C   0  0  0  0  0  0  0  0  0  0  0  0
   53.1820  152.6960   26.3660 C   0  0  0  0  0  0  0  0  0  0  0  0
   53.0020  152.8120   25.0210 F   0  0  0  0  0  0  0  0  0  0  0  0
   52.5810  151.5190   26.7100 F   0  0  0  0  0  0  0  0  0  0  0  0
   54.5160  152.4860   26.5560 F   0  0  0  0  0  0  0  0  0  0  0  0
   54.6631  156.7838   24.2209 H   0  0  0  0  0  0  0  0  0  0  0  0
   54.2512  157.3566   25.9907 H   0  0  0  0  0  0  0  0  0  0  0  0
   53.3997  154.7538   24.5708 H   0  0  0  0  0  0  0  0  0  0  0  0
   52.3802  157.2935   27.0268 H   0  0  0  0  0  0  0  0  0  0  0  0
   53.6277  160.1837   30.0585 H   0  0  0  0  0  0  0  0  0  0  0  0
   53.0620  162.2786   31.2906 H   0  0  0  0  0  0  0  0  0  0  0  0
   50.7603  162.6123   32.2005 H   0  0  0  0  0  0  0  0  0  0  0  0
   48.1560  161.3830   31.4890 H   0  0  0  0  0  0  0  0  0  0  0  0
   48.9850  155.4390   30.0790 H   0  0  0  0  0  0  0  0  0  0  0  0
   50.9721  154.5591   30.0550 H   0  0  0  0  0  0  0  0  0  0  0  0
   51.8821  152.6505   28.7523 H   0  0  0  0  0  0  0  0  0  0  0  0
  1  2  2  0
  2  3  1  0
  3  4  2  0
  4  5  1  0
  5  6  1  0
  6  7  1  0
  7  8  1  0
  8  9  2  0
  9 10  1  0
 10 11  2  0
 11 12  1  0
 12 13  1  0
 12 14  2  0
 14 15  1  0
 15 16  2  0
 15 17  1  0
 17 18  1  0
  5 19  2  0
 19 20  1  0
 20 21  2  0
 21 22  1  0
 22 23  1  0
 22 24  1  0
 22 25  1  0
 21  3  1  0
 17  6  2  0
 14  8  1  0
  1 26  1  0
  1 27  1  0
  2 28  1  0
  4 29  1  0
  9 30  1  0
 10 31  1  0
 11 32  1  0
 13 33  1  0
 18 34  1  0
 19 35  1  0
 20 36  1  0
M  END
>  <meeko>  (4) 
{"is_sidechain": [false], "free_energy": -9.595, "intermolecular_energy": -11.691, "internal_energy": -0.211}

$$$$
cand_005_out
     RDKit          3D

 36 38  0  0  0  0  0  0  0  0999 V2000
   51.4150  152.4560   28.2010 C   0  0  0  0  0  0  0  0  0  0  0  0
   52.1880  153.3590   28.8150 C   0  0  0  0  0  0  0  0  0  0  0  0
   52.3260  154.7400   28.3340 C   0  0  0  0  0  0  0  0  0  0  0  0
   51.8480  155.7880   29.1430 C   0  0  0  0  0  0  0  0  0  0  0  0
   51.9320  157.1280   28.7340 C   0  0  0  0  0  0  0  0  0  0  0  0
   51.4420  158.2000   29.6250 C   0  0  0  0  0  0  0  0  0  0  0  0
   50.0970  158.0600   29.9500 O   0  0  0  0  0  0  0  0  0  0  0  0
   49.5140  158.9920   30.7710 C   0  0  0  0  0  0  0  0  0  0  0  0
   48.1660  158.8060   31.0830 C   0  0  0  0  0  0  0  0  0  0  0  0
   47.5120  159.7180   31.9120 C   0  0  0  0  0  0  0  0  0  0  0  0
   48.2030  160.8150   32.4310 C   0  0  0  0  0  0  0  0  0  0  0  0
   49.5480  160.9990   32.1170 C   0  0  0  0  0  0  0  0  0  0  0  0
   50.1630  162.0930   32.6580 O   0  0  0  0  0  0  0  0  0  0  0  0
   50.2030  160.0850   31.2880 C   0  0  0  0  0  0  0  0  0  0  0  0
   51.6150  160.2410   30.9350 C   0  0  0  0  0  0  0  0  0  0  0  0
   52.2890  161.1830   31.3450 O   0  0  0  0  0  0  0  0  0  0  0  0
   52.2170  159.2130   30.0540 C   0  0  0  0  0  0  0  0  0  0  0  0
   53.5470  159.3760   29.7140 O   0  0  0  0  0  0  0  0  0  0  0  0
   52.5200  157.4090   27.4970 C   0  0  0  0  0  0  0  0  0  0  0  0
   52.9940  156.3770   26.6820 C   0  0  0  0  0  0  0  0  0  0  0  0
   52.9010  155.0330   27.0850 C   0  0  0  0  0  0  0  0  0  0  0  0
   53.4340  153.9450   26.1830 C   0  0  0  0  0  0  0  0  0  0  0  0
   54.0780  152.9550   26.8610 F   0  0  0  0  0  0  0  0  0  0  0  0
   54.3380  154.4010   25.2660 F   0  0  0  0  0  0  0  0  0  0  0  0
   52.4590  153.3340   25.4510 F   0  0  0  0  0  0  0  0  0  0  0  0
   51.3428  151.4328   28.5983 H   0  0  0  0  0  0  0  0  0  0  0  0
   50.8516  152.7368   27.2989 H   0  0  0  0  0  0  0  0  0  0  0  0
   52.7420  153.0553   29.7155 H   0  0  0  0  0  0  0  0  0  0  0  0
   51.3981  155.5513   30.1185 H   0  0  0  0  0  0  0  0  0  0  0  0
   47.6204  157.9419   30.6759 H   0  0  0  0  0  0  0  0  0  0  0  0
   46.4496  159.5726   32.1574 H   0  0  0  0  0  0  0  0  0  0  0  0
   47.6867  161.5321   33.0861 H   0  0  0  0  0  0  0  0  0  0  0  0
   50.8730  161.9830   33.2590 H   0  0  0  0  0  0  0  0  0  0  0  0
   54.1890  158.7680   30.0240 H   0  0  0  0  0  0  0  0  0  0  0  0
   52.6105  158.4527   27.1618 H   0  0  0  0  0  0  0  0  0  0  0  0
   53.4471  156.6202   25.7096 H   0  0  0  0  0  0  0  0  0  0  0  0
  1  2  2  0
  2  3  1  0
  3  4  2  0
  4  5  1  0
  5  6  1  0
  6  7  1  0
  7  8  1  0
  8  9  2  0
  9 10  1  0
 10 11  2  0
 11 12  1  0
 12 13  1  0
 12 14  2  0
 14 15  1  0
 15 16  2  0
 15 17  1  0
 17 18  1  0
  5 19  2  0
 19 20  1  0
 20 21  2  0
 21 22  1  0
 22 23  1  0
 22 24  1  0
 22 25  1  0
 21  3  1  0
 17  6  2  0
 14  8  1  0
  1 26  1  0
  1 27  1  0
  2 28  1  0
  4 29  1  0
  9 30  1  0
 10 31  1  0
 11 32  1  0
 13 33  1  0
 18 34  1  0
 19 35  1  0
 20 36  1  0
M  END
>  <meeko>  (5) 
{"is_sidechain": [false], "free_energy": -8.943, "intermolecular_energy": -11.294, "internal_energy": 0.195}

$$$$
cand_005_out
     RDKit          3D

 36 38  0  0  0  0  0  0  0  0999 V2000
   51.5730  152.0500   27.7780 C   0  0  0  0  0  0  0  0  0  0  0  0
   52.3910  152.9200   28.3810 C   0  0  0  0  0  0  0  0  0  0  0  0
   52.4720  154.3320   27.9880 C   0  0  0  0  0  0  0  0  0  0  0  0
   51.8490  155.2970   28.8010 C   0  0  0  0  0  0  0  0  0  0  0  0
   51.8730  156.6620   28.4720 C   0  0  0  0  0  0  0  0  0  0  0  0
   51.2270  157.6450   29.3670 C   0  0  0  0  0  0  0  0  0  0  0  0
   52.0400  158.7360   29.6500 O   0  0  0  0  0  0  0  0  0  0  0  0
   51.5610  159.7230   30.4730 C   0  0  0  0  0  0  0  0  0  0  0  0
   52.4060  160.8070   30.7200 C   0  0  0  0  0  0  0  0  0  0  0  0
   51.9800  161.8460   31.5490 C   0  0  0  0  0  0  0  0  0  0  0  0
   50.7120  161.8030   32.1330 C   0  0  0  0  0  0  0  0  0  0  0  0
   49.8720  160.7190   31.8850 C   0  0  0  0  0  0  0  0  0  0  0  0
   48.6450  160.7410   32.4890 O   0  0  0  0  0  0  0  0  0  0  0  0
   50.2980  159.6800   31.0540 C   0  0  0  0  0  0  0  0  0  0  0  0
   49.4460  158.5250   30.7680 C   0  0  0  0  0  0  0  0  0  0  0  0
   48.3200  158.4100   31.2480 O   0  0  0  0  0  0  0  0  0  0  0  0
   49.9890  157.4800   29.8690 C   0  0  0  0  0  0  0  0  0  0  0  0
   49.1830  156.3860   29.6160 O   0  0  0  0  0  0  0  0  0  0  0  0
   52.5500  157.0530   27.3130 C   0  0  0  0  0  0  0  0  0  0  0  0
   53.1700  156.1050   26.4940 C   0  0  0  0  0  0  0  0  0  0  0  0
   53.1370  154.7360   26.8160 C   0  0  0  0  0  0  0  0  0  0  0  0
   53.8280  153.7410   25.9140 C   0  0  0  0  0  0  0  0  0  0  0  0
   52.9650  153.0620   25.1080 F   0  0  0  0  0  0  0  0  0  0  0  0
   54.5150  152.7800   26.5980 F   0  0  0  0  0  0  0  0  0  0  0  0
   54.7470  154.3180   25.0880 F   0  0  0  0  0  0  0  0  0  0  0  0
   51.5467  151.0008   28.1073 H   0  0  0  0  0  0  0  0  0  0  0  0
   50.9267  152.3839   26.9529 H   0  0  0  0  0  0  0  0  0  0  0  0
   53.0280  152.5632   29.2037 H   0  0  0  0  0  0  0  0  0  0  0  0
   51.3308  154.9744   29.7161 H   0  0  0  0  0  0  0  0  0  0  0  0
   53.4055  160.8420   30.2621 H   0  0  0  0  0  0  0  0  0  0  0  0
   52.6446  162.7008   31.7429 H   0  0  0  0  0  0  0  0  0  0  0  0
   50.3775  162.6221   32.7866 H   0  0  0  0  0  0  0  0  0  0  0  0
   47.8690  160.8150   31.9700 H   0  0  0  0  0  0  0  0  0  0  0  0
   48.4140  156.4810   29.0890 H   0  0  0  0  0  0  0  0  0  0  0  0
   52.5953  158.1183   27.0426 H   0  0  0  0  0  0  0  0  0  0  0  0
   53.6919  156.4346   25.5835 H   0  0  0  0  0  0  0  0  0  0  0  0
  1  2  2  0
  2  3  1  0
  3  4  2  0
  4  5  1  0
  5  6  1  0
  6  7  1  0
  7  8  1  0
  8  9  2  0
  9 10  1  0
 10 11  2  0
 11 12  1  0
 12 13  1  0
 12 14  2  0
 14 15  1  0
 15 16  2  0
 15 17  1  0
 17 18  1  0
  5 19  2  0
 19 20  1  0
 20 21  2  0
 21 22  1  0
 22 23  1  0
 22 24  1  0
 22 25  1  0
 21  3  1  0
 17  6  2  0
 14  8  1  0
  1 26  1  0
  1 27  1  0
  2 28  1  0
  4 29  1  0
  9 30  1  0
 10 31  1  0
 11 32  1  0
 13 33  1  0
 18 34  1  0
 19 35  1  0
 20 36  1  0
M  END
>  <meeko>  (6) 
{"is_sidechain": [false], "free_energy": -8.453, "intermolecular_energy": -10.49, "internal_energy": -0.003}

$$$$
cand_005_out
     RDKit          3D

 36 38  0  0  0  0  0  0  0  0999 V2000
   47.9250  158.6970   30.0700 C   0  0  0  0  0  0  0  0  0  0  0  0
   48.9340  158.0250   30.6350 C   0  0  0  0  0  0  0  0  0  0  0  0
   50.2880  158.0080   30.0670 C   0  0  0  0  0  0  0  0  0  0  0  0
   50.6710  156.9190   29.2620 C   0  0  0  0  0  0  0  0  0  0  0  0
   51.9560  156.8330   28.7050 C   0  0  0  0  0  0  0  0  0  0  0  0
   52.3080  155.6840   27.8440 C   0  0  0  0  0  0  0  0  0  0  0  0
   51.8240  154.4750   28.3300 O   0  0  0  0  0  0  0  0  0  0  0  0
   52.0820  153.3270   27.6260 C   0  0  0  0  0  0  0  0  0  0  0  0
   51.5660  152.1370   28.1430 C   0  0  0  0  0  0  0  0  0  0  0  0
   51.7930  150.9320   27.4760 C   0  0  0  0  0  0  0  0  0  0  0  0
   52.5350  150.9150   26.2930 C   0  0  0  0  0  0  0  0  0  0  0  0
   53.0490  152.1030   25.7800 C   0  0  0  0  0  0  0  0  0  0  0  0
   53.7660  152.0140   24.6190 O   0  0  0  0  0  0  0  0  0  0  0  0
   52.8210  153.3090   26.4470 C   0  0  0  0  0  0  0  0  0  0  0  0
   53.3430  154.5800   25.9410 C   0  0  0  0  0  0  0  0  0  0  0  0
   54.0100  154.6470   24.9110 O   0  0  0  0  0  0  0  0  0  0  0  0
   53.0390  155.8030   26.7200 C   0  0  0  0  0  0  0  0  0  0  0  0
   53.5480  156.9960   26.2420 O   0  0  0  0  0  0  0  0  0  0  0  0
   52.8590  157.8700   28.9560 C   0  0  0  0  0  0  0  0  0  0  0  0
   52.4950  158.9550   29.7570 C   0  0  0  0  0  0  0  0  0  0  0  0
   51.2110  159.0380   30.3260 C   0  0  0  0  0  0  0  0  0  0  0  0
   50.8480  160.2310   31.1780 C   0  0  0  0  0  0  0  0  0  0  0  0
   50.0760  161.1420   30.5230 F   0  0  0  0  0  0  0  0  0  0  0  0
   51.9360  160.9300   31.6160 F   0  0  0  0  0  0  0  0  0  0  0  0
   50.1620  159.8920   32.3070 F   0  0  0  0  0  0  0  0  0  0  0  0
   46.9267  158.6809   30.5317 H   0  0  0  0  0  0  0  0  0  0  0  0
   48.0935  159.2658   29.1437 H   0  0  0  0  0  0  0  0  0  0  0  0
   48.7421  157.4633   31.5611 H   0  0  0  0  0  0  0  0  0  0  0  0
   49.9456  156.1160   29.0647 H   0  0  0  0  0  0  0  0  0  0  0  0
   50.9814  152.1491   29.0747 H   0  0  0  0  0  0  0  0  0  0  0  0
   51.3868  149.9942   27.8829 H   0  0  0  0  0  0  0  0  0  0  0  0
   52.7130  149.9651   25.7676 H   0  0  0  0  0  0  0  0  0  0  0  0
   54.5650  151.5250   24.5970 H   0  0  0  0  0  0  0  0  0  0  0  0
   52.9860  157.7380   26.1380 H   0  0  0  0  0  0  0  0  0  0  0  0
   53.8673  157.8313   28.5180 H   0  0  0  0  0  0  0  0  0  0  0  0
   53.2237  159.7571   29.9458 H   0  0  0  0  0  0  0  0  0  0  0  0
  1  2  2  0
  2  3  1  0
  3  4  2  0
  4  5  1  0
  5  6  1  0
  6  7  1  0
  7  8  1  0
  8  9  2  0
  9 10  1  0
 10 11  2  0
 11 12  1  0
 12 13  1  0
 12 14  2  0
 14 15  1  0
 15 16  2  0
 15 17  1  0
 17 18  1  0
  5 19  2  0
 19 20  1  0
 20 21  2  0
 21 22  1  0
 22 23  1  0
 22 24  1  0
 22 25  1  0
 21  3  1  0
 17  6  2  0
 14  8  1  0
  1 26  1  0
  1 27  1  0
  2 28  1  0
  4 29  1  0
  9 30  1  0
 10 31  1  0
 11 32  1  0
 13 33  1  0
 18 34  1  0
 19 35  1  0
 20 36  1  0
M  END
>  <meeko>  (7) 
{"is_sidechain": [false], "free_energy": -8.3, "intermolecular_energy": -10.21, "internal_energy": -0.095}

$$$$
