cand_021_out
     RDKit          3D

 36 38  0  0  0  0  0  0  0  0999 V2000
   47.4030  159.6190   30.9500 C   0  0  0  0  0  0  0  0  0  0  0  0
   48.3880  158.8540   31.4370 C   0  0  0  0  0  0  0  0  0  0  0  0
   49.7390  158.8400   30.8610 C   0  0  0  0  0  0  0  0  0  0  0  0
   50.1640  157.7110   30.1380 C   0  0  0  0  0  0  0  0  0  0  0  0
   51.4400  157.6480   29.5600 C   0  0  0  0  0  0  0  0  0  0  0  0
   51.8820  156.4720   28.7840 C   0  0  0  0  0  0  0  0  0  0  0  0
   52.4660  156.8120   27.5700 O   0  0  0  0  0  0  0  0  0  0  0  0
   52.9200  155.8120   26.7480 C   0  0  0  0  0  0  0  0  0  0  0  0
   53.4850  156.1980   25.5320 C   0  0  0  0  0  0  0  0  0  0  0  0
   53.9690  155.2280   24.6500 C   0  0  0  0  0  0  0  0  0  0  0  0
   53.8880  153.8750   24.9850 C   0  0  0  0  0  0  0  0  0  0  0  0
   53.3230  153.4930   26.1990 C   0  0  0  0  0  0  0  0  0  0  0  0
   53.2760  152.1520   26.4630 O   0  0  0  0  0  0  0  0  0  0  0  0
   52.8390  154.4630   27.0810 C   0  0  0  0  0  0  0  0  0  0  0  0
   52.2390  154.1040   28.3660 C   0  0  0  0  0  0  0  0  0  0  0  0
   52.1380  152.9360   28.7360 O   0  0  0  0  0  0  0  0  0  0  0  0
   51.7490  155.2070   29.2250 C   0  0  0  0  0  0  0  0  0  0  0  0
   51.1960  154.8590   30.4430 O   0  0  0  0  0  0  0  0  0  0  0  0
   52.2880  158.7540   29.6950 C   0  0  0  0  0  0  0  0  0  0  0  0
   51.8770  159.8840   30.4050 C   0  0  0  0  0  0  0  0  0  0  0  0
   50.6040  159.9420   30.9970 C   0  0  0  0  0  0  0  0  0  0  0  0
   50.1990  161.1710   31.7740 C   0  0  0  0  0  0  0  0  0  0  0  0
   51.1840  162.1110   31.8260 F   0  0  0  0  0  0  0  0  0  0  0  0
   49.8850  160.9070   33.0770 F   0  0  0  0  0  0  0  0  0  0  0  0
   46.4067  159.5953   31.4157 H   0  0  0  0  0  0  0  0  0  0  0  0
   47.5900  160.2712   30.0842 H   0  0  0  0  0  0  0  0  0  0  0  0
   48.1769  158.2100   32.3034 H   0  0  0  0  0  0  0  0  0  0  0  0
   49.4795  156.8576   30.0233 H   0  0  0  0  0  0  0  0  0  0  0  0
   53.5494  157.2639   25.2680 H   0  0  0  0  0  0  0  0  0  0  0  0
   54.4143  155.5308   23.6908 H   0  0  0  0  0  0  0  0  0  0  0  0
   54.2700  153.1119   24.2909 H   0  0  0  0  0  0  0  0  0  0  0  0
   53.3040  151.8460   27.3500 H   0  0  0  0  0  0  0  0  0  0  0  0
   50.2650  154.7940   30.5350 H   0  0  0  0  0  0  0  0  0  0  0  0
   53.2880  158.7325   29.2372 H   0  0  0  0  0  0  0  0  0  0  0  0
   52.5596  160.7411   30.5022 H   0  0  0  0  0  0  0  0  0  0  0  0
   49.3202  161.5376   31.2232 H   0  0  0  0  0  0  0  0  0  0  0  0
  1  2  2  0
  2  3  1  0
  3  4  2  0
  4  5  1  0
  5  6  1  0
  6  7  1  0
  7  8  1  0
  8  9  2  0
  9 10  1  0
 10 11  2  0
 11 12  1  0
 12 13  1  0
 12 14  2  0
 14 15  1  0
 15 16  2  0
 15 17  1  0
 17 18  1  0
  5 19  2  0
 19 20  1  0
 20 21  2  0
 21 22  1  0
 22 23  1  0
 22 24  1  0
 21  3  1  0
 17  6  2  0
 14  8  1  0
  1 25  1  0
  1 26  1  0
  2 27  1  0
  4 28  1  0
  9 29  1  0
 10 30  1  0
 11 31  1  0
 13 32  1  0
 18 33  1  0
 19 34  1  0
 20 35  1  0
 22 36  1  0
M  END
>  <meeko>  (1) 
{"is_sidechain": [false], "free_energy": -10.833, "intermolecular_energy": -13.366, "internal_energy": -0.103}

$$$$
cand_021_out
     RDKit          3D

 36 38  0  0  0  0  0  0  0  0999 V2000
   52.7980  161.5250   30.5230 C   0  0  0  0  0  0  0  0  0  0  0  0
   51.7740  161.0420   31.2370 C   0  0  0  0  0  0  0  0  0  0  0  0
   51.0000  159.8670   30.8180 C   0  0  0  0  0  0  0  0  0  0  0  0
   51.6400  158.8500   30.0870 C   0  0  0  0  0  0  0  0  0  0  0  0
   50.9510  157.7020   29.6690 C   0  0  0  0  0  0  0  0  0  0  0  0
   51.6250  156.6240   28.9170 C   0  0  0  0  0  0  0  0  0  0  0  0
   52.2040  157.0680   27.7350 O   0  0  0  0  0  0  0  0  0  0  0  0
   52.8630  156.1660   26.9390 C   0  0  0  0  0  0  0  0  0  0  0  0
   53.4150  156.6520   25.7530 C   0  0  0  0  0  0  0  0  0  0  0  0
   54.1010  155.7850   24.8980 C   0  0  0  0  0  0  0  0  0  0  0  0
   54.2340  154.4360   25.2290 C   0  0  0  0  0  0  0  0  0  0  0  0
   53.6820  153.9530   26.4130 C   0  0  0  0  0  0  0  0  0  0  0  0
   53.8500  152.6220   26.6760 O   0  0  0  0  0  0  0  0  0  0  0  0
   52.9950  154.8200   27.2680 C   0  0  0  0  0  0  0  0  0  0  0  0
   52.4000  154.3550   28.5210 C   0  0  0  0  0  0  0  0  0  0  0  0
   52.4810  153.1830   28.8860 O   0  0  0  0  0  0  0  0  0  0  0  0
   51.6870  155.3510   29.3520 C   0  0  0  0  0  0  0  0  0  0  0  0
   51.1400  154.9060   30.5410 O   0  0  0  0  0  0  0  0  0  0  0  0
   49.6020  157.5710   30.0180 C   0  0  0  0  0  0  0  0  0  0  0  0
   48.9550  158.5700   30.7500 C   0  0  0  0  0  0  0  0  0  0  0  0
   49.6410  159.7270   31.1560 C   0  0  0  0  0  0  0  0  0  0  0  0
   48.9070  160.7960   31.9280 C   0  0  0  0  0  0  0  0  0  0  0  0
   47.7720  160.3320   32.5230 F   0  0  0  0  0  0  0  0  0  0  0  0
   48.5030  161.8430   31.1500 F   0  0  0  0  0  0  0  0  0  0  0  0
   53.3480  162.4088   30.8786 H   0  0  0  0  0  0  0  0  0  0  0  0
   53.0895  161.0381   29.5807 H   0  0  0  0  0  0  0  0  0  0  0  0
   51.5013  161.5460   32.1759 H   0  0  0  0  0  0  0  0  0  0  0  0
   52.7059  158.9575   29.8373 H   0  0  0  0  0  0  0  0  0  0  0  0
   53.3104  157.7154   25.4916 H   0  0  0  0  0  0  0  0  0  0  0  0
   54.5367  156.1666   23.9628 H   0  0  0  0  0  0  0  0  0  0  0  0
   54.7743  153.7546   24.5554 H   0  0  0  0  0  0  0  0  0  0  0  0
   53.4730  151.9800   26.1050 H   0  0  0  0  0  0  0  0  0  0  0  0
   51.5870  154.2570   31.0490 H   0  0  0  0  0  0  0  0  0  0  0  0
   49.0455  156.6725   29.7130 H   0  0  0  0  0  0  0  0  0  0  0  0
   47.8936  158.4489   31.0121 H   0  0  0  0  0  0  0  0  0  0  0  0
   49.6485  161.1217   32.6724 H   0  0  0  0  0  0  0  0  0  0  0  0
  1  2  2  0
  2  3  1  0
  3  4  2  0
  4  5  1  0
  5  6  1  0
  6  7  1  0
  7  8  1  0
  8  9  2  0
  9 10  1  0
 10 11  2  0
 11 12  1  0
 12 13  1  0
 12 14  2  0
 14 15  1  0
 15 16  2  0
 15 17  1  0
 17 18  1  0
  5 19  2  0
 19 20  1  0
 20 21  2  0
 21 22  1  0
 22 23  1  0
 22 24  1  0
 21  3  1  0
 17  6  2  0
 14  8  1  0
  1 25  1  0
  1 26  1  0
  2 27  1  0
  4 28  1  0
  9 29  1  0
 10 30  1  0
 11 31  1  0
 13 32  1  0
 18 33  1  0
 19 34  1  0
 20 35  1  0
 22 36  1  0
M  END
>  <meeko>  (2) 
{"is_sidechain": [false], "free_energy": -10.821, "intermolecular_energy": -12.979, "internal_energy": -0.475}

$$$$
cand_021_out
     RDKit          3D

 36 38  0  0  0  0  0  0  0  0999 V2000
   54.1070  156.4370   24.9210 C   0  0  0  0  0  0  0  0  0  0  0  0
   53.6380  155.2650   25.3680 C   0  0  0  0  0  0  0  0  0  0  0  0
   52.9020  155.1370   26.6330 C   0  0  0  0  0  0  0  0  0  0  0  0
   52.5720  156.2990   27.3540 C   0  0  0  0  0  0  0  0  0  0  0  0
   51.8630  156.2340   28.5620 C   0  0  0  0  0  0  0  0  0  0  0  0
   51.4980  157.4540   29.3120 C   0  0  0  0  0  0  0  0  0  0  0  0
   50.1790  157.4460   29.7500 O   0  0  0  0  0  0  0  0  0  0  0  0
   49.7090  158.5220   30.4590 C   0  0  0  0  0  0  0  0  0  0  0  0
   48.3740  158.4790   30.8650 C   0  0  0  0  0  0  0  0  0  0  0  0
   47.8340  159.5420   31.5930 C   0  0  0  0  0  0  0  0  0  0  0  0
   48.6270  160.6450   31.9150 C   0  0  0  0  0  0  0  0  0  0  0  0
   49.9590  160.6850   31.5090 C   0  0  0  0  0  0  0  0  0  0  0  0
   50.6780  161.7940   31.8580 O   0  0  0  0  0  0  0  0  0  0  0  0
   50.4990  159.6220   30.7800 C   0  0  0  0  0  0  0  0  0  0  0  0
   51.8930  159.6230   30.3340 C   0  0  0  0  0  0  0  0  0  0  0  0
   52.6570  160.5540   30.5840 O   0  0  0  0  0  0  0  0  0  0  0  0
   52.3660  158.4520   29.5610 C   0  0  0  0  0  0  0  0  0  0  0  0
   53.6870  158.4560   29.1550 O   0  0  0  0  0  0  0  0  0  0  0  0
   51.4600  154.9790   29.0330 C   0  0  0  0  0  0  0  0  0  0  0  0
   51.7760  153.8180   28.3240 C   0  0  0  0  0  0  0  0  0  0  0  0
   52.4990  153.8800   27.1210 C   0  0  0  0  0  0  0  0  0  0  0  0
   52.8410  152.6050   26.3900 C   0  0  0  0  0  0  0  0  0  0  0  0
   52.1040  151.5400   26.8140 F   0  0  0  0  0  0  0  0  0  0  0  0
   54.1440  152.2250   26.5450 F   0  0  0  0  0  0  0  0  0  0  0  0
   54.6527  156.4832   23.9670 H   0  0  0  0  0  0  0  0  0  0  0  0
   53.9465  157.3535   25.5078 H   0  0  0  0  0  0  0  0  0  0  0  0
   53.8107  154.3621   24.7639 H   0  0  0  0  0  0  0  0  0  0  0  0
   52.8769  157.2803   26.9614 H   0  0  0  0  0  0  0  0  0  0  0  0
   47.7487  157.6100   30.6122 H   0  0  0  0  0  0  0  0  0  0  0  0
   46.7821  159.5099   31.9131 H   0  0  0  0  0  0  0  0  0  0  0  0
   48.2006  161.4813   32.4885 H   0  0  0  0  0  0  0  0  0  0  0  0
   50.2480  162.5270   32.2540 H   0  0  0  0  0  0  0  0  0  0  0  0
   53.9070  158.2410   28.2700 H   0  0  0  0  0  0  0  0  0  0  0  0
   50.8890  154.9065   29.9704 H   0  0  0  0  0  0  0  0  0  0  0  0
   51.4541  152.8408   28.7131 H   0  0  0  0  0  0  0  0  0  0  0  0
   52.6258  152.8529   25.3401 H   0  0  0  0  0  0  0  0  0  0  0  0
  1  2  2  0
  2  3  1  0
  3  4  2  0
  4  5  1  0
  5  6  1  0
  6  7  1  0
  7  8  1  0
  8  9  2  0
  9 10  1  0
 10 11  2  0
 11 12  1  0
 12 13  1  0
 12 14  2  0
 14 15  1  0
 15 16  2  0
 15 17  1  0
 17 18  1  0
  5 19  2  0
 19 20  1  0
 20 21  2  0
 21 22  1  0
 22 23  1  0
 22 24  1  0
 21  3  1  0
 17  6  2  0
 14  8  1  0
  1 25  1  0
  1 26  1  0
  2 27  1  0
  4 28  1  0
  9 29  1  0
 10 30  1  0
 11 31  1  0
 13 32  1  0
 18 33  1  0
 19 34  1  0
 20 35  1  0
 22 36  1  0
M  END
>  <meeko>  (3) 
{"is_sidechain": [false], "free_energy": -10.695, "intermolecular_energy": -12.93, "internal_energy": -0.369}

$$$$
cand_021_out
     RDKit          3D

 36 38  0  0  0  0  0  0  0  0999 V2000
   48.0890  158.8740   30.1540 C   0  0  0  0  0  0  0  0  0  0  0  0
   49.0900  158.2000   30.7330 C   0  0  0  0  0  0  0  0  0  0  0  0
   50.4000  158.0210   30.0930 C   0  0  0  0  0  0  0  0  0  0  0  0
   50.6730  156.8190   29.4160 C   0  0  0  0  0  0  0  0  0  0  0  0
   51.9030  156.5980   28.7800 C   0  0  0  0  0  0  0  0  0  0  0  0
   52.1850  155.3440   28.0520 C   0  0  0  0  0  0  0  0  0  0  0  0
   52.8230  155.5560   26.8360 O   0  0  0  0  0  0  0  0  0  0  0  0
   53.1420  154.4730   26.0560 C   0  0  0  0  0  0  0  0  0  0  0  0
   53.7670  154.7330   24.8360 C   0  0  0  0  0  0  0  0  0  0  0  0
   54.1200  153.6740   23.9960 C   0  0  0  0  0  0  0  0  0  0  0  0
   53.8490  152.3580   24.3760 C   0  0  0  0  0  0  0  0  0  0  0  0
   53.2250  152.1020   25.5950 C   0  0  0  0  0  0  0  0  0  0  0  0
   52.9900  150.7910   25.9040 O   0  0  0  0  0  0  0  0  0  0  0  0
   52.8710  153.1610   26.4340 C   0  0  0  0  0  0  0  0  0  0  0  0
   52.2150  152.9370   27.7230 C   0  0  0  0  0  0  0  0  0  0  0  0
   51.9500  151.8070   28.1320 O   0  0  0  0  0  0  0  0  0  0  0  0
   51.8740  154.1270   28.5350 C   0  0  0  0  0  0  0  0  0  0  0  0
   51.2660  153.9040   29.7570 O   0  0  0  0  0  0  0  0  0  0  0  0
   52.8600  157.6190   28.8090 C   0  0  0  0  0  0  0  0  0  0  0  0
   52.6010  158.8210   29.4720 C   0  0  0  0  0  0  0  0  0  0  0  0
   51.3740  159.0370   30.1220 C   0  0  0  0  0  0  0  0  0  0  0  0
   51.1330  160.3380   30.8470 C   0  0  0  0  0  0  0  0  0  0  0  0
   50.4190  161.2310   30.1040 F   0  0  0  0  0  0  0  0  0  0  0  0
   52.2850  160.9910   31.1830 F   0  0  0  0  0  0  0  0  0  0  0  0
   47.1253  158.9812   30.6734 H   0  0  0  0  0  0  0  0  0  0  0  0
   48.2300  159.3207   29.1587 H   0  0  0  0  0  0  0  0  0  0  0  0
   48.9250  157.7623   31.7286 H   0  0  0  0  0  0  0  0  0  0  0  0
   49.9035  156.0336   29.3846 H   0  0  0  0  0  0  0  0  0  0  0  0
   53.9813  155.7694   24.5362 H   0  0  0  0  0  0  0  0  0  0  0  0
   54.6123  153.8772   23.0335 H   0  0  0  0  0  0  0  0  0  0  0  0
   54.1277  151.5249   23.7140 H   0  0  0  0  0  0  0  0  0  0  0  0
   52.1120  150.4920   26.0450 H   0  0  0  0  0  0  0  0  0  0  0  0
   50.5780  154.4700   30.0490 H   0  0  0  0  0  0  0  0  0  0  0  0
   53.8265  157.4733   28.3043 H   0  0  0  0  0  0  0  0  0  0  0  0
   53.3681  159.6093   29.4854 H   0  0  0  0  0  0  0  0  0  0  0  0
   50.5804  160.0261   31.7455 H   0  0  0  0  0  0  0  0  0  0  0  0
  1  2  2  0
  2  3  1  0
  3  4  2  0
  4  5  1  0
  5  6  1  0
  6  7  1  0
  7  8  1  0
  8  9  2  0
  9 10  1  0
 10 11  2  0
 11 12  1  0
 12 13  1  0
 12 14  2  0
 14 15  1  0
 15 16  2  0
 15 17  1  0
 17 18  1  0
  5 19  2  0
 19 20  1  0
 20 21  2  0
 21 22  1  0
 22 23  1  0
 22 24  1  0
 21  3  1  0
 17  6  2  0
 14  8  1  0
  1 25  1  0
  1 26  1  0
  2 27  1  0
  4 28  1  0
  9 29  1  0
 10 30  1  0
 11 31  1  0
 13 32  1  0
 18 33  1  0
 19 34  1  0
 20 35  1  0
 22 36  1  0
M  END
>  <meeko>  (4) 
{"is_sidechain": [false], "free_energy": -10.276, "intermolecular_energy": -12.498, "internal_energy": -0.283}

$$$$
cand_021_out
     RDKit          3D

 36 38  0  0  0  0  0  0  0  0999 V2000
   54.1960  156.6770   25.1580 C   0  0  0  0  0  0  0  0  0  0  0  0
   53.4850  155.5640   25.3760 C   0  0  0  0  0  0  0  0  0  0  0  0
   52.8330  155.2790   26.6610 C   0  0  0  0  0  0  0  0  0  0  0  0
   52.2940  156.3430   27.4070 C   0  0  0  0  0  0  0  0  0  0  0  0
   51.6540  156.1270   28.6350 C   0  0  0  0  0  0  0  0  0  0  0  0
   51.0700  157.2400   29.4110 C   0  0  0  0  0  0  0  0  0  0  0  0
   51.9720  158.2720   29.6400 O   0  0  0  0  0  0  0  0  0  0  0  0
   51.5580  159.3690   30.3520 C   0  0  0  0  0  0  0  0  0  0  0  0
   52.5010  160.3740   30.5720 C   0  0  0  0  0  0  0  0  0  0  0  0
   52.1430  161.5190   31.2880 C   0  0  0  0  0  0  0  0  0  0  0  0
   50.8450  161.6590   31.7820 C   0  0  0  0  0  0  0  0  0  0  0  0
   49.9060  160.6540   31.5610 C   0  0  0  0  0  0  0  0  0  0  0  0
   48.6540  160.8550   32.0720 O   0  0  0  0  0  0  0  0  0  0  0  0
   50.2640  159.5080   30.8450 C   0  0  0  0  0  0  0  0  0  0  0  0
   49.3090  158.4290   30.5900 C   0  0  0  0  0  0  0  0  0  0  0  0
   48.1460  158.4810   30.9860 O   0  0  0  0  0  0  0  0  0  0  0  0
   49.7900  157.2540   29.8290 C   0  0  0  0  0  0  0  0  0  0  0  0
   48.8770  156.2460   29.5800 O   0  0  0  0  0  0  0  0  0  0  0  0
   51.5350  154.8130   29.1020 C   0  0  0  0  0  0  0  0  0  0  0  0
   52.0600  153.7460   28.3690 C   0  0  0  0  0  0  0  0  0  0  0  0
   52.7150  153.9630   27.1450 C   0  0  0  0  0  0  0  0  0  0  0  0
   53.2880  152.7900   26.3880 C   0  0  0  0  0  0  0  0  0  0  0  0
   52.6120  151.6300   26.6220 F   0  0  0  0  0  0  0  0  0  0  0  0
   54.5870  152.5210   26.7120 F   0  0  0  0  0  0  0  0  0  0  0  0
   54.6661  156.8462   24.1780 H   0  0  0  0  0  0  0  0  0  0  0  0
   54.3102  157.4224   25.9588 H   0  0  0  0  0  0  0  0  0  0  0  0
   53.3850  154.8333   24.5599 H   0  0  0  0  0  0  0  0  0  0  0  0
   52.3768  157.3684   27.0174 H   0  0  0  0  0  0  0  0  0  0  0  0
   53.5239  160.2648   30.1825 H   0  0  0  0  0  0  0  0  0  0  0  0
   52.8854  162.3117   31.4628 H   0  0  0  0  0  0  0  0  0  0  0  0
   50.5641  162.5614   32.3448 H   0  0  0  0  0  0  0  0  0  0  0  0
   48.4390  160.5360   32.9270 H   0  0  0  0  0  0  0  0  0  0  0  0
   48.0400  156.4520   29.2140 H   0  0  0  0  0  0  0  0  0  0  0  0
   51.0229  154.6185   30.0559 H   0  0  0  0  0  0  0  0  0  0  0  0
   51.9592  152.7211   28.7556 H   0  0  0  0  0  0  0  0  0  0  0  0
   53.2008  153.1026   25.3370 H   0  0  0  0  0  0  0  0  0  0  0  0
  1  2  2  0
  2  3  1  0
  3  4  2  0
  4  5  1  0
  5  6  1  0
  6  7  1  0
  7  8  1  0
  8  9  2  0
  9 10  1  0
 10 11  2  0
 11 12  1  0
 12 13  1  0
 12 14  2  0
 14 15  1  0
 15 16  2  0
 15 17  1  0
 17 18  1  0
  5 19  2  0
 19 20  1  0
 20 21  2  0
 21 22  1  0
 22 23  1  0
 22 24  1  0
 21  3  1  0
 17  6  2  0
 14  8  1  0
  1 25  1  0
  1 26  1  0
  2 27  1  0
  4 28  1  0
  9 29  1  0
 10 30  1  0
 11 31  1  0
 13 32  1  0
 18 33  1  0
 19 34  1  0
 20 35  1  0
 22 36  1  0
M  END
>  <meeko>  (5) 
{"is_sidechain": [false], "free_energy": -9.448, "intermolecular_energy": -11.34, "internal_energy": -0.42}

$$$$
cand_021_out
     RDKit          3D

 36 38  0  0  0  0  0  0  0  0999 V2000
   51.5300  152.4340   28.1070 C   0  0  0  0  0  0  0  0  0  0  0  0
   52.1640  153.3820   28.8090 C   0  0  0  0  0  0  0  0  0  0  0  0
   52.2730  154.7710   28.3450 C   0  0  0  0  0  0  0  0  0  0  0  0
   51.7990  155.8070   29.1700 C   0  0  0  0  0  0  0  0  0  0  0  0
   51.8870  157.1520   28.7810 C   0  0  0  0  0  0  0  0  0  0  0  0
   51.4070  158.2430   29.6530 C   0  0  0  0  0  0  0  0  0  0  0  0
   50.0770  158.0930   30.0260 O   0  0  0  0  0  0  0  0  0  0  0  0
   49.5040  159.0410   30.8370 C   0  0  0  0  0  0  0  0  0  0  0  0
   48.1620  158.8590   31.1730 C   0  0  0  0  0  0  0  0  0  0  0  0
   47.5200  159.7870   31.9970 C   0  0  0  0  0  0  0  0  0  0  0  0
   48.2180  160.8930   32.4830 C   0  0  0  0  0  0  0  0  0  0  0  0
   49.5580  161.0720   32.1450 C   0  0  0  0  0  0  0  0  0  0  0  0
   50.1820  162.1770   32.6560 O   0  0  0  0  0  0  0  0  0  0  0  0
   50.2000  160.1450   31.3210 C   0  0  0  0  0  0  0  0  0  0  0  0
   51.6060  160.2940   30.9420 C   0  0  0  0  0  0  0  0  0  0  0  0
   52.2900  161.2370   31.3350 O   0  0  0  0  0  0  0  0  0  0  0  0
   52.1900  159.2600   30.0580 C   0  0  0  0  0  0  0  0  0  0  0  0
   53.5230  159.4020   29.7160 O   0  0  0  0  0  0  0  0  0  0  0  0
   52.4850  157.4520   27.5530 C   0  0  0  0  0  0  0  0  0  0  0  0
   52.9660  156.4340   26.7260 C   0  0  0  0  0  0  0  0  0  0  0  0
   52.8660  155.0850   27.1090 C   0  0  0  0  0  0  0  0  0  0  0  0
   53.3780  154.0080   26.1830 C   0  0  0  0  0  0  0  0  0  0  0  0
   54.4620  154.4060   25.4590 F   0  0  0  0  0  0  0  0  0  0  0  0
   52.4560  153.6060   25.2590 F   0  0  0  0  0  0  0  0  0  0  0  0
   51.4743  151.4065   28.4957 H   0  0  0  0  0  0  0  0  0  0  0  0
   51.0649  152.6829   27.1417 H   0  0  0  0  0  0  0  0  0  0  0  0
   52.6213  153.1094   29.7715 H   0  0  0  0  0  0  0  0  0  0  0  0
   51.3492  155.5569   30.1422 H   0  0  0  0  0  0  0  0  0  0  0  0
   47.6110  157.9873   30.7902 H   0  0  0  0  0  0  0  0  0  0  0  0
   46.4621  159.6453   32.2631 H   0  0  0  0  0  0  0  0  0  0  0  0
   47.7114  161.6225   33.1319 H   0  0  0  0  0  0  0  0  0  0  0  0
   50.0360  162.4280   33.5480 H   0  0  0  0  0  0  0  0  0  0  0  0
   54.0450  158.6450   29.5390 H   0  0  0  0  0  0  0  0  0  0  0  0
   52.5776  158.5009   27.2348 H   0  0  0  0  0  0  0  0  0  0  0  0
   53.4293  156.6914   25.7621 H   0  0  0  0  0  0  0  0  0  0  0  0
   53.6308  153.1866   26.8696 H   0  0  0  0  0  0  0  0  0  0  0  0
  1  2  2  0
  2  3  1  0
  3  4  2  0
  4  5  1  0
  5  6  1  0
  6  7  1  0
  7  8  1  0
  8  9  2  0
  9 10  1  0
 10 11  2  0
 11 12  1  0
 12 13  1  0
 12 14  2  0
 14 15  1  0
 15 16  2  0
 15 17  1  0
 17 18  1  0
  5 19  2  0
 19 20  1  0
 20 21  2  0
 21 22  1  0
 22 23  1  0
 22 24  1  0
 21  3  1  0
 17  6  2  0
 14  8  1  0
  1 25  1  0
  1 26  1  0
  2 27  1  0
  4 28  1  0
  9 29  1  0
 10 30  1  0
 11 31  1  0
 13 32  1  0
 18 33  1  0
 19 34  1  0
 20 35  1  0
 22 36  1  0
M  END
>  <meeko>  (6) 
{"is_sidechain": [false], "free_energy": -9.022, "intermolecular_energy": -11.204, "internal_energy": -0.031}

$$$$
cand_021_out
     RDKit          3D

 36 38  0  0  0  0  0  0  0  0999 V2000
   51.8500  152.0450   27.0590 C   0  0  0  0  0  0  0  0  0  0  0  0
   52.6800  152.8720   27.7080 C   0  0  0  0  0  0  0  0  0  0  0  0
   52.7070  154.3200   27.4640 C   0  0  0  0  0  0  0  0  0  0  0  0
   52.0610  155.1800   28.3700 C   0  0  0  0  0  0  0  0  0  0  0  0
   52.0630  156.5700   28.1900 C   0  0  0  0  0  0  0  0  0  0  0  0
   51.4020  157.4770   29.1500 C   0  0  0  0  0  0  0  0  0  0  0  0
   52.1490  158.6170   29.4220 O   0  0  0  0  0  0  0  0  0  0  0  0
   51.6490  159.5440   30.3010 C   0  0  0  0  0  0  0  0  0  0  0  0
   52.4400  160.6650   30.5570 C   0  0  0  0  0  0  0  0  0  0  0  0
   51.9880  161.6480   31.4410 C   0  0  0  0  0  0  0  0  0  0  0  0
   50.7480  161.5100   32.0670 C   0  0  0  0  0  0  0  0  0  0  0  0
   49.9610  160.3900   31.8090 C   0  0  0  0  0  0  0  0  0  0  0  0
   48.7580  160.3190   32.4550 O   0  0  0  0  0  0  0  0  0  0  0  0
   50.4130  159.4070   30.9250 C   0  0  0  0  0  0  0  0  0  0  0  0
   49.6180  158.2150   30.6260 C   0  0  0  0  0  0  0  0  0  0  0  0
   48.5130  158.0250   31.1310 O   0  0  0  0  0  0  0  0  0  0  0  0
   50.1910  157.2290   29.6830 C   0  0  0  0  0  0  0  0  0  0  0  0
   49.4260  156.1130   29.3950 O   0  0  0  0  0  0  0  0  0  0  0  0
   52.7510  157.0990   27.0920 C   0  0  0  0  0  0  0  0  0  0  0  0
   53.4030  156.2570   26.1870 C   0  0  0  0  0  0  0  0  0  0  0  0
   53.3890  154.8630   26.3590 C   0  0  0  0  0  0  0  0  0  0  0  0
   54.0860  153.9800   25.3520 C   0  0  0  0  0  0  0  0  0  0  0  0
   55.2190  154.5470   24.8500 F   0  0  0  0  0  0  0  0  0  0  0  0
   53.3150  153.6900   24.2620 F   0  0  0  0  0  0  0  0  0  0  0  0
   51.8668  150.9668   27.2764 H   0  0  0  0  0  0  0  0  0  0  0  0
   51.1516  152.4440   26.3086 H   0  0  0  0  0  0  0  0  0  0  0  0
   53.3693  152.4496   28.4539 H   0  0  0  0  0  0  0  0  0  0  0  0
   51.5420  154.7518   29.2402 H   0  0  0  0  0  0  0  0  0  0  0  0
   53.4172  160.7743   30.0639 H   0  0  0  0  0  0  0  0  0  0  0  0
   52.6103  162.5321   31.6440 H   0  0  0  0  0  0  0  0  0  0  0  0
   50.3929  162.2844   32.7629 H   0  0  0  0  0  0  0  0  0  0  0  0
   48.2690  159.5190   32.4500 H   0  0  0  0  0  0  0  0  0  0  0  0
   48.7280  156.1710   28.7730 H   0  0  0  0  0  0  0  0  0  0  0  0
   52.7788  158.1881   26.9399 H   0  0  0  0  0  0  0  0  0  0  0  0
   53.9346  156.6921   25.3279 H   0  0  0  0  0  0  0  0  0  0  0  0
   54.3105  153.0701   25.9279 H   0  0  0  0  0  0  0  0  0  0  0  0
  1  2  2  0
  2  3  1  0
  3  4  2  0
  4  5  1  0
  5  6  1  0
  6  7  1  0
  7  8  1  0
  8  9  2  0
  9 10  1  0
 10 11  2  0
 11 12  1  0
 12 13  1  0
 12 14  2  0
 14 15  1  0
 15 16  2  0
 15 17  1  0
 17 18  1  0
  5 19  2  0
 19 20  1  0
 20 21  2  0
 21 22  1  0
 22 23  1  0
 22 24  1  0
 21  3  1  0
 17  6  2  0
 14  8  1  0
  1 25  1  0
  1 26  1  0
  2 27  1  0
  4 28  1  0
  9 29  1  0
 10 30  1  0
 11 31  1  0
 13 32  1  0
 18 33  1  0
 19 34  1  0
 20 35  1  0
 22 36  1  0
M  END
>  <meeko>  (7) 
{"is_sidechain": [false], "free_energy": -8.504, "intermolecular_energy": -10.35, "internal_energy": -0.245}

$$$$
cand_021_out
     RDKit          3D

 36 38  0  0  0  0  0  0  0  0999 V2000
   51.2750  160.8260   30.1110 C   0  0  0  0  0  0  0  0  0  0  0  0
   51.8680  159.6410   30.2960 C   0  0  0  0  0  0  0  0  0  0  0  0
   51.2430  158.3710   29.9030 C   0  0  0  0  0  0  0  0  0  0  0  0
   51.9250  157.5160   29.0190 C   0  0  0  0  0  0  0  0  0  0  0  0
   51.3790  156.2890   28.6180 C   0  0  0  0  0  0  0  0  0  0  0  0
   52.1010  155.3800   27.7050 C   0  0  0  0  0  0  0  0  0  0  0  0
   51.6980  154.0560   27.8280 O   0  0  0  0  0  0  0  0  0  0  0  0
   52.2920  153.1060   27.0360 C   0  0  0  0  0  0  0  0  0  0  0  0
   51.8680  151.7860   27.2030 C   0  0  0  0  0  0  0  0  0  0  0  0
   52.4310  150.7710   26.4270 C   0  0  0  0  0  0  0  0  0  0  0  0
   53.4150  151.0740   25.4850 C   0  0  0  0  0  0  0  0  0  0  0  0
   53.8360  152.3910   25.3200 C   0  0  0  0  0  0  0  0  0  0  0  0
   54.8030  152.6170   24.3790 O   0  0  0  0  0  0  0  0  0  0  0  0
   53.2740  153.4070   26.0970 C   0  0  0  0  0  0  0  0  0  0  0  0
   53.6870  154.8040   25.9550 C   0  0  0  0  0  0  0  0  0  0  0  0
   54.5420  155.1520   25.1430 O   0  0  0  0  0  0  0  0  0  0  0  0
   53.0350  155.8030   26.8320 C   0  0  0  0  0  0  0  0  0  0  0  0
   53.4220  157.1220   26.6820 O   0  0  0  0  0  0  0  0  0  0  0  0
   50.1360  155.9100   29.1400 C   0  0  0  0  0  0  0  0  0  0  0  0
   49.4500  156.7470   30.0240 C   0  0  0  0  0  0  0  0  0  0  0  0
   49.9910  157.9840   30.4150 C   0  0  0  0  0  0  0  0  0  0  0  0
   49.2140  158.8720   31.3550 C   0  0  0  0  0  0  0  0  0  0  0  0
   48.4900  158.1670   32.2690 F   0  0  0  0  0  0  0  0  0  0  0  0
   48.3090  159.6730   30.7190 F   0  0  0  0  0  0  0  0  0  0  0  0
   51.7838  161.7502   30.4223 H   0  0  0  0  0  0  0  0  0  0  0  0
   50.2786  160.8760   29.6476 H   0  0  0  0  0  0  0  0  0  0  0  0
   52.8644  159.6167   30.7615 H   0  0  0  0  0  0  0  0  0  0  0  0
   52.9101  157.8173   28.6332 H   0  0  0  0  0  0  0  0  0  0  0  0
   51.0918  151.5463   27.9446 H   0  0  0  0  0  0  0  0  0  0  0  0
   52.0984  149.7308   26.5584 H   0  0  0  0  0  0  0  0  0  0  0  0
   53.8574  150.2736   24.8737 H   0  0  0  0  0  0  0  0  0  0  0  0
   55.6760  152.3030   24.5190 H   0  0  0  0  0  0  0  0  0  0  0  0
   54.1970  157.4340   27.1060 H   0  0  0  0  0  0  0  0  0  0  0  0
   49.6955  154.9443   28.8514 H   0  0  0  0  0  0  0  0  0  0  0  0
   48.4727  156.4333   30.4195 H   0  0  0  0  0  0  0  0  0  0  0  0
   49.9988  159.4725   31.8382 H   0  0  0  0  0  0  0  0  0  0  0  0
  1  2  2  0
  2  3  1  0
  3  4  2  0
  4  5  1  0
  5  6  1  0
  6  7  1  0
  7  8  1  0
  8  9  2  0
  9 10  1  0
 10 11  2  0
 11 12  1  0
 12 13  1  0
 12 14  2  0
 14 15  1  0
 15 16  2  0
 15 17  1  0
 17 18  1  0
  5 19  2  0
 19 20  1  0
 20 21  2  0
 21 22  1  0
 22 23  1  0
 22 24  1  0
 21  3  1  0
 17  6  2  0
 14  8  1  0
  1 25  1  0
  1 26  1  0
  2 27  1  0
  4 28  1  0
  9 29  1  0
 10 30  1  0
 11 31  1  0
 13 32  1  0
 18 33  1  0
 19 34  1  0
 20 35  1  0
 22 36  1  0
M  END
>  <meeko>  (8) 
{"is_sidechain": [false], "free_energy": -8.066, "intermolecular_energy": -10.318, "internal_energy": 0.263}

$$$$
cand_021_out
     RDKit          3D

 36 38  0  0  0  0  0  0  0  0999 V2000
   47.9840  158.8110   30.1630 C   0  0  0  0  0  0  0  0  0  0  0  0
   48.9350  157.9980   30.6390 C   0  0  0  0  0  0  0  0  0  0  0  0
   50.2880  157.9420   30.0710 C   0  0  0  0  0  0  0  0  0  0  0  0
   50.6510  156.8430   29.2710 C   0  0  0  0  0  0  0  0  0  0  0  0
   51.9260  156.7440   28.6970 C   0  0  0  0  0  0  0  0  0  0  0  0
   52.3040  155.6000   27.8410 C   0  0  0  0  0  0  0  0  0  0  0  0
   51.7960  154.3900   28.3000 O   0  0  0  0  0  0  0  0  0  0  0  0
   52.0740  153.2460   27.5970 C   0  0  0  0  0  0  0  0  0  0  0  0
   51.5580  152.0510   28.1020 C   0  0  0  0  0  0  0  0  0  0  0  0
   51.8030  150.8490   27.4320 C   0  0  0  0  0  0  0  0  0  0  0  0
   52.5610  150.8430   26.2600 C   0  0  0  0  0  0  0  0  0  0  0  0
   53.0740  152.0360   25.7590 C   0  0  0  0  0  0  0  0  0  0  0  0
   53.8070  151.9580   24.6070 O   0  0  0  0  0  0  0  0  0  0  0  0
   52.8310  153.2380   26.4290 C   0  0  0  0  0  0  0  0  0  0  0  0
   53.3510  154.5140   25.9360 C   0  0  0  0  0  0  0  0  0  0  0  0
   54.0200  154.5920   24.9070 O   0  0  0  0  0  0  0  0  0  0  0  0
   53.0430  155.7290   26.7240 C   0  0  0  0  0  0  0  0  0  0  0  0
   53.5270  156.9320   26.2430 O   0  0  0  0  0  0  0  0  0  0  0  0
   52.8370  157.7840   28.9130 C   0  0  0  0  0  0  0  0  0  0  0  0
   52.4890  158.8840   29.7000 C   0  0  0  0  0  0  0  0  0  0  0  0
   51.2160  158.9780   30.2880 C   0  0  0  0  0  0  0  0  0  0  0  0
   50.8780  160.1710   31.1480 C   0  0  0  0  0  0  0  0  0  0  0  0
   50.2790  161.1740   30.4470 F   0  0  0  0  0  0  0  0  0  0  0  0
   51.9720  160.7440   31.7320 F   0  0  0  0  0  0  0  0  0  0  0  0
   46.9847  158.8168   30.6227 H   0  0  0  0  0  0  0  0  0  0  0  0
   48.2018  159.4733   29.3121 H   0  0  0  0  0  0  0  0  0  0  0  0
   48.6930  157.3451   31.4906 H   0  0  0  0  0  0  0  0  0  0  0  0
   49.9174  156.0431   29.0919 H   0  0  0  0  0  0  0  0  0  0  0  0
   50.9599  152.0554   29.0252 H   0  0  0  0  0  0  0  0  0  0  0  0
   51.3979  149.9065   27.8289 H   0  0  0  0  0  0  0  0  0  0  0  0
   52.7527  149.8967   25.7330 H   0  0  0  0  0  0  0  0  0  0  0  0
   53.7770  151.1800   24.0830 H   0  0  0  0  0  0  0  0  0  0  0  0
   52.9560  157.5180   25.7850 H   0  0  0  0  0  0  0  0  0  0  0  0
   53.8374  157.7346   28.4583 H   0  0  0  0  0  0  0  0  0  0  0  0
   53.2217  159.6883   29.8619 H   0  0  0  0  0  0  0  0  0  0  0  0
   50.2022  159.7494   31.9067 H   0  0  0  0  0  0  0  0  0  0  0  0
  1  2  2  0
  2  3  1  0
  3  4  2  0
  4  5  1  0
  5  6  1  0
  6  7  1  0
  7  8  1  0
  8  9  2  0
  9 10  1  0
 10 11  2  0
 11 12  1  0
 12 13  1  0
 12 14  2  0
 14 15  1  0
 15 16  2  0
 15 17  1  0
 17 18  1  0
  5 19  2  0
 19 20  1  0
 20 21  2  0
 21 22  1  0
 22 23  1  0
 22 24  1  0
 21  3  1  0
 17  6  2  0
 14  8  1  0
  1 25  1  0
  1 26  1  0
  2 27  1  0
  4 28  1  0
  9 29  1  0
 10 30  1  0
 11 31  1  0
 13 32  1  0
 18 33  1  0
 19 34  1  0
 20 35  1  0
 22 36  1  0
M  END
>  <meeko>  (9) 
{"is_sidechain": [false], "free_energy": -8.045, "intermolecular_energy": -9.928, "internal_energy": -0.101}

$$$$
