cand_039_out
     RDKit          3D

 41 43  0  0  0  0  0  0  0  0999 V2000
   49.9610  161.0000   33.2590 C   0  0  0  0  0  0  0  0  0  0  0  0
   49.9890  161.2420   31.7570 C   0  0  0  0  0  0  0  0  0  0  0  0
   50.4130  160.0090   30.9940 C   0  0  0  0  0  0  0  0  0  0  0  0
   51.6970  159.9940   30.4220 C   0  0  0  0  0  0  0  0  0  0  0  0
   52.1580  158.8850   29.7100 C   0  0  0  0  0  0  0  0  0  0  0  0
   51.3490  157.7580   29.5430 C   0  0  0  0  0  0  0  0  0  0  0  0
   51.8630  156.5840   28.8040 C   0  0  0  0  0  0  0  0  0  0  0  0
   52.4290  156.9220   27.5810 O   0  0  0  0  0  0  0  0  0  0  0  0
   52.9450  155.9270   26.7900 C   0  0  0  0  0  0  0  0  0  0  0  0
   53.5180  156.3130   25.5790 C   0  0  0  0  0  0  0  0  0  0  0  0
   54.0600  155.3480   24.7260 C   0  0  0  0  0  0  0  0  0  0  0  0
   54.0300  154.0000   25.0850 C   0  0  0  0  0  0  0  0  0  0  0  0
   53.4570  153.6170   26.2950 C   0  0  0  0  0  0  0  0  0  0  0  0
   53.4610  152.2810   26.5850 O   0  0  0  0  0  0  0  0  0  0  0  0
   52.9160  154.5830   27.1490 C   0  0  0  0  0  0  0  0  0  0  0  0
   52.3050  154.2240   28.4290 C   0  0  0  0  0  0  0  0  0  0  0  0
   52.2340  153.0570   28.8120 O   0  0  0  0  0  0  0  0  0  0  0  0
   51.7670  155.3230   29.2640 C   0  0  0  0  0  0  0  0  0  0  0  0
   51.1800  154.9710   30.4650 O   0  0  0  0  0  0  0  0  0  0  0  0
   50.0750  157.7630   30.1280 C   0  0  0  0  0  0  0  0  0  0  0  0
   49.5940  158.8710   30.8560 C   0  0  0  0  0  0  0  0  0  0  0  0
   48.1960  158.7880   31.4260 C   0  0  0  0  0  0  0  0  0  0  0  0
   47.2780  159.8490   30.8360 C   0  0  0  0  0  0  0  0  0  0  0  0
   50.0719  161.9586   33.7870 H   0  0  0  0  0  0  0  0  0  0  0  0
   49.0032  160.5364   33.5379 H   0  0  0  0  0  0  0  0  0  0  0  0
   50.7876  160.3300   33.5379 H   0  0  0  0  0  0  0  0  0  0  0  0
   48.9822  161.5362   31.4257 H   0  0  0  0  0  0  0  0  0  0  0  0
   50.7221  162.0366   31.5540 H   0  0  0  0  0  0  0  0  0  0  0  0
   52.3501  160.8716   30.5374 H   0  0  0  0  0  0  0  0  0  0  0  0
   53.1687  158.8986   29.2760 H   0  0  0  0  0  0  0  0  0  0  0  0
   53.5434  157.3755   25.2955 H   0  0  0  0  0  0  0  0  0  0  0  0
   54.5111  155.6516   23.7698 H   0  0  0  0  0  0  0  0  0  0  0  0
   54.4582  153.2413   24.4135 H   0  0  0  0  0  0  0  0  0  0  0  0
   53.6940  151.6580   25.9250 H   0  0  0  0  0  0  0  0  0  0  0  0
   51.6920  154.5590   31.1330 H   0  0  0  0  0  0  0  0  0  0  0  0
   49.4322  156.8774   30.0160 H   0  0  0  0  0  0  0  0  0  0  0  0
   47.7798  157.7943   31.2037 H   0  0  0  0  0  0  0  0  0  0  0  0
   48.2598  158.9578   32.5109 H   0  0  0  0  0  0  0  0  0  0  0  0
   46.7938  160.4086   31.6499 H   0  0  0  0  0  0  0  0  0  0  0  0
   47.8676  160.5403   30.2159 H   0  0  0  0  0  0  0  0  0  0  0  0
   46.5092  159.3649   30.2159 H   0  0  0  0  0  0  0  0  0  0  0  0
  1  2  1  0
  2  3  1  0
  3  4  2  0
  4  5  1  0
  5  6  2  0
  6  7  1  0
  7  8  1  0
  8  9  1  0
  9 10  2  0
 10 11  1  0
 11 12  2  0
 12 13  1  0
 13 14  1  0
 13 15  2  0
 15 16  1  0
 16 17  2  0
 16 18  1  0
 18 19  1  0
  6 20  1  0
 20 21  2  0
 21 22  1  0
 22 23  1  0
 21  3  1  0
 18  7  2  0
 15  9  1  0
  1 24  1  0
  1 25  1  0
  1 26  1  0
  2 27  1  0
  2 28  1  0
  4 29  1  0
  5 30  1  0
 10 31  1  0
 11 32  1  0
 12 33  1  0
 14 34  1  0
 19 35  1  0
 20 36  1  0
 22 37  1  0
 22 38  1  0
 23 39  1  0
 23 40  1  0
 23 41  1  0
M  END
>  <meeko>  (1) 
{"is_sidechain": [false], "free_energy": -10.664, "intermolecular_energy": -13.158, "internal_energy": 0.099}

$$$$
cand_039_out
     RDKit          3D

 41 43  0  0  0  0  0  0  0  0999 V2000
   49.2860  160.7060   33.1700 C   0  0  0  0  0  0  0  0  0  0  0  0
   49.1410  160.8290   31.6600 C   0  0  0  0  0  0  0  0  0  0  0  0
   49.8650  159.7210   30.9310 C   0  0  0  0  0  0  0  0  0  0  0  0
   49.2190  158.4790   30.8080 C   0  0  0  0  0  0  0  0  0  0  0  0
   49.8240  157.4120   30.1400 C   0  0  0  0  0  0  0  0  0  0  0  0
   51.0960  157.5520   29.5780 C   0  0  0  0  0  0  0  0  0  0  0  0
   51.7130  156.4190   28.8560 C   0  0  0  0  0  0  0  0  0  0  0  0
   52.2620  156.7910   27.6350 O   0  0  0  0  0  0  0  0  0  0  0  0
   52.8670  155.8350   26.8600 C   0  0  0  0  0  0  0  0  0  0  0  0
   53.4180  156.2560   25.6500 C   0  0  0  0  0  0  0  0  0  0  0  0
   54.0480  155.3310   24.8120 C   0  0  0  0  0  0  0  0  0  0  0  0
   54.1260  153.9880   25.1850 C   0  0  0  0  0  0  0  0  0  0  0  0
   53.5750  153.5710   26.3940 C   0  0  0  0  0  0  0  0  0  0  0  0
   53.6860  152.2420   26.6980 O   0  0  0  0  0  0  0  0  0  0  0  0
   52.9460  154.4960   27.2320 C   0  0  0  0  0  0  0  0  0  0  0  0
   52.3540  154.1000   28.5100 C   0  0  0  0  0  0  0  0  0  0  0  0
   52.3760  152.9360   28.9040 O   0  0  0  0  0  0  0  0  0  0  0  0
   51.7180  155.1580   29.3280 C   0  0  0  0  0  0  0  0  0  0  0  0
   51.1500  154.7700   30.5280 O   0  0  0  0  0  0  0  0  0  0  0  0
   51.7350  158.7960   29.6840 C   0  0  0  0  0  0  0  0  0  0  0  0
   51.1370  159.8870   30.3490 C   0  0  0  0  0  0  0  0  0  0  0  0
   51.9180  161.1790   30.4300 C   0  0  0  0  0  0  0  0  0  0  0  0
   52.7390  161.2670   31.7090 C   0  0  0  0  0  0  0  0  0  0  0  0
   48.5363  161.3420   33.6634 H   0  0  0  0  0  0  0  0  0  0  0  0
   49.1323  159.6586   33.4690 H   0  0  0  0  0  0  0  0  0  0  0  0
   50.2943  161.0285   33.4690 H   0  0  0  0  0  0  0  0  0  0  0  0
   48.0728  160.7861   31.4009 H   0  0  0  0  0  0  0  0  0  0  0  0
   49.5863  161.7866   31.3522 H   0  0  0  0  0  0  0  0  0  0  0  0
   48.2188  158.3448   31.2457 H   0  0  0  0  0  0  0  0  0  0  0  0
   49.2940  156.4518   30.0554 H   0  0  0  0  0  0  0  0  0  0  0  0
   53.3570  157.3141   25.3554 H   0  0  0  0  0  0  0  0  0  0  0  0
   54.4829  155.6620   23.8573 H   0  0  0  0  0  0  0  0  0  0  0  0
   54.6217  153.2607   24.5252 H   0  0  0  0  0  0  0  0  0  0  0  0
   54.5260  151.8750   26.8920 H   0  0  0  0  0  0  0  0  0  0  0  0
   51.5110  155.0740   31.3370 H   0  0  0  0  0  0  0  0  0  0  0  0
   52.7312  158.9247   29.2357 H   0  0  0  0  0  0  0  0  0  0  0  0
   52.5971  161.2387   29.5667 H   0  0  0  0  0  0  0  0  0  0  0  0
   51.1998  162.0121   30.4280 H   0  0  0  0  0  0  0  0  0  0  0  0
   52.0704  161.1953   32.5795 H   0  0  0  0  0  0  0  0  0  0  0  0
   53.4656  160.4416   31.7358 H   0  0  0  0  0  0  0  0  0  0  0  0
   53.2742  162.2277   31.7358 H   0  0  0  0  0  0  0  0  0  0  0  0
  1  2  1  0
  2  3  1  0
  3  4  2  0
  4  5  1  0
  5  6  2  0
  6  7  1  0
  7  8  1  0
  8  9  1  0
  9 10  2  0
 10 11  1  0
 11 12  2  0
 12 13  1  0
 13 14  1  0
 13 15  2  0
 15 16  1  0
 16 17  2  0
 16 18  1  0
 18 19  1  0
  6 20  1  0
 20 21  2  0
 21 22  1  0
 22 23  1  0
 21  3  1  0
 18  7  2  0
 15  9  1  0
  1 24  1  0
  1 25  1  0
  1 26  1  0
  2 27  1  0
  2 28  1  0
  4 29  1  0
  5 30  1  0
 10 31  1  0
 11 32  1  0
 12 33  1  0
 14 34  1  0
 19 35  1  0
 20 36  1  0
 22 37  1  0
 22 38  1  0
 23 39  1  0
 23 40  1  0
 23 41  1  0
M  END
>  <meeko>  (2) 
{"is_sidechain": [false], "free_energy": -10.657, "intermolecular_energy": -12.693, "internal_energy": -0.357}

$$$$
cand_039_out
     RDKit          3D

 41 43  0  0  0  0  0  0  0  0999 V2000
   51.9820  151.5290   26.7360 C   0  0  0  0  0  0  0  0  0  0  0  0
   53.1070  152.5530   26.7150 C   0  0  0  0  0  0  0  0  0  0  0  0
   52.6920  153.8610   27.3470 C   0  0  0  0  0  0  0  0  0  0  0  0
   52.1590  153.8260   28.6470 C   0  0  0  0  0  0  0  0  0  0  0  0
   51.7620  154.9970   29.2970 C   0  0  0  0  0  0  0  0  0  0  0  0
   51.8820  156.2390   28.6670 C   0  0  0  0  0  0  0  0  0  0  0  0
   51.4760  157.4700   29.3780 C   0  0  0  0  0  0  0  0  0  0  0  0
   50.1350  157.4650   29.7450 O   0  0  0  0  0  0  0  0  0  0  0  0
   49.6250  158.5490   30.4130 C   0  0  0  0  0  0  0  0  0  0  0  0
   48.2800  158.4940   30.7750 C   0  0  0  0  0  0  0  0  0  0  0  0
   47.6970  159.5660   31.4560 C   0  0  0  0  0  0  0  0  0  0  0  0
   48.4610  160.6910   31.7740 C   0  0  0  0  0  0  0  0  0  0  0  0
   49.8040  160.7430   31.4110 C   0  0  0  0  0  0  0  0  0  0  0  0
   50.4940  161.8730   31.7540 O   0  0  0  0  0  0  0  0  0  0  0  0
   50.3870  159.6690   30.7310 C   0  0  0  0  0  0  0  0  0  0  0  0
   51.7940  159.6830   30.3310 C   0  0  0  0  0  0  0  0  0  0  0  0
   52.5290  160.6400   30.5690 O   0  0  0  0  0  0  0  0  0  0  0  0
   52.3170  158.4930   29.6210 C   0  0  0  0  0  0  0  0  0  0  0  0
   53.6440  158.5220   29.2360 O   0  0  0  0  0  0  0  0  0  0  0  0
   52.4300  156.2770   27.3770 C   0  0  0  0  0  0  0  0  0  0  0  0
   52.8420  155.1070   26.7070 C   0  0  0  0  0  0  0  0  0  0  0  0
   53.3980  155.2520   25.3080 C   0  0  0  0  0  0  0  0  0  0  0  0
   54.1200  156.5790   25.1190 C   0  0  0  0  0  0  0  0  0  0  0  0
   51.7215  151.2919   27.7781 H   0  0  0  0  0  0  0  0  0  0  0  0
   51.1010  151.9416   26.2226 H   0  0  0  0  0  0  0  0  0  0  0  0
   52.3101  150.6132   26.2226 H   0  0  0  0  0  0  0  0  0  0  0  0
   53.9667  152.1478   27.2687 H   0  0  0  0  0  0  0  0  0  0  0  0
   53.3681  152.7502   25.6648 H   0  0  0  0  0  0  0  0  0  0  0  0
   52.0526  152.8596   29.1616 H   0  0  0  0  0  0  0  0  0  0  0  0
   51.3505  154.9411   30.3156 H   0  0  0  0  0  0  0  0  0  0  0  0
   47.6782  157.6078   30.5249 H   0  0  0  0  0  0  0  0  0  0  0  0
   46.6356  159.5237   31.7418 H   0  0  0  0  0  0  0  0  0  0  0  0
   48.0023  161.5347   32.3105 H   0  0  0  0  0  0  0  0  0  0  0  0
   51.1190  162.2380   31.1590 H   0  0  0  0  0  0  0  0  0  0  0  0
   53.9140  158.0900   28.4510 H   0  0  0  0  0  0  0  0  0  0  0  0
   52.5418  157.2483   26.8729 H   0  0  0  0  0  0  0  0  0  0  0  0
   54.1064  154.4317   25.1200 H   0  0  0  0  0  0  0  0  0  0  0  0
   52.5558  155.2183   24.6012 H   0  0  0  0  0  0  0  0  0  0  0  0
   54.3554  157.0117   26.1026 H   0  0  0  0  0  0  0  0  0  0  0  0
   55.0520  156.4128   24.5589 H   0  0  0  0  0  0  0  0  0  0  0  0
   53.4742  157.2713   24.5589 H   0  0  0  0  0  0  0  0  0  0  0  0
  1  2  1  0
  2  3  1  0
  3  4  2  0
  4  5  1  0
  5  6  2  0
  6  7  1  0
  7  8  1  0
  8  9  1  0
  9 10  2  0
 10 11  1  0
 11 12  2  0
 12 13  1  0
 13 14  1  0
 13 15  2  0
 15 16  1  0
 16 17  2  0
 16 18  1  0
 18 19  1  0
  6 20  1  0
 20 21  2  0
 21 22  1  0
 22 23  1  0
 21  3  1  0
 18  7  2  0
 15  9  1  0
  1 24  1  0
  1 25  1  0
  1 26  1  0
  2 27  1  0
  2 28  1  0
  4 29  1  0
  5 30  1  0
 10 31  1  0
 11 32  1  0
 12 33  1  0
 14 34  1  0
 19 35  1  0
 20 36  1  0
 22 37  1  0
 22 38  1  0
 23 39  1  0
 23 40  1  0
 23 41  1  0
M  END
>  <meeko>  (3) 
{"is_sidechain": [false], "free_energy": -10.172, "intermolecular_energy": -12.006, "internal_energy": -0.446}

$$$$
cand_039_out
     RDKit          3D

 41 43  0  0  0  0  0  0  0  0999 V2000
   52.6720  151.6640   26.0140 C   0  0  0  0  0  0  0  0  0  0  0  0
   53.6930  152.6070   26.6350 C   0  0  0  0  0  0  0  0  0  0  0  0
   53.0360  153.8050   27.2790 C   0  0  0  0  0  0  0  0  0  0  0  0
   52.5300  153.6600   28.5830 C   0  0  0  0  0  0  0  0  0  0  0  0
   51.9180  154.7280   29.2430 C   0  0  0  0  0  0  0  0  0  0  0  0
   51.7880  155.9720   28.6200 C   0  0  0  0  0  0  0  0  0  0  0  0
   51.1560  157.0970   29.3420 C   0  0  0  0  0  0  0  0  0  0  0  0
   52.0400  158.1380   29.6010 O   0  0  0  0  0  0  0  0  0  0  0  0
   51.5840  159.2470   30.2660 C   0  0  0  0  0  0  0  0  0  0  0  0
   52.5020  160.2730   30.4900 C   0  0  0  0  0  0  0  0  0  0  0  0
   52.1020  161.4300   31.1650 C   0  0  0  0  0  0  0  0  0  0  0  0
   50.7870  161.5580   31.6150 C   0  0  0  0  0  0  0  0  0  0  0  0
   49.8730  160.5320   31.3900 C   0  0  0  0  0  0  0  0  0  0  0  0
   48.6020  160.7230   31.8570 O   0  0  0  0  0  0  0  0  0  0  0  0
   50.2730  159.3750   30.7140 C   0  0  0  0  0  0  0  0  0  0  0  0
   49.3450  158.2740   30.4570 C   0  0  0  0  0  0  0  0  0  0  0  0
   48.1730  158.3100   30.8290 O   0  0  0  0  0  0  0  0  0  0  0  0
   49.8660  157.0950   29.7260 C   0  0  0  0  0  0  0  0  0  0  0  0
   48.9840  156.0550   29.5010 O   0  0  0  0  0  0  0  0  0  0  0  0
   52.3080  156.1240   27.3270 C   0  0  0  0  0  0  0  0  0  0  0  0
   52.9350  155.0600   26.6460 C   0  0  0  0  0  0  0  0  0  0  0  0
   53.4420  155.3180   25.2450 C   0  0  0  0  0  0  0  0  0  0  0  0
   54.1710  156.6500   25.1410 C   0  0  0  0  0  0  0  0  0  0  0  0
   52.1153  151.1498   26.8113 H   0  0  0  0  0  0  0  0  0  0  0  0
   51.9721  152.2402   25.3910 H   0  0  0  0  0  0  0  0  0  0  0  0
   53.1909  150.9206   25.3910 H   0  0  0  0  0  0  0  0  0  0  0  0
   54.2628  152.0598   27.4005 H   0  0  0  0  0  0  0  0  0  0  0  0
   54.3526  152.9704   25.8333 H   0  0  0  0  0  0  0  0  0  0  0  0
   52.6177  152.6888   29.0920 H   0  0  0  0  0  0  0  0  0  0  0  0
   51.5342  154.5883   30.2644 H   0  0  0  0  0  0  0  0  0  0  0  0
   53.5386  160.1719   30.1362 H   0  0  0  0  0  0  0  0  0  0  0  0
   52.8245  162.2404   31.3417 H   0  0  0  0  0  0  0  0  0  0  0  0
   50.4731  162.4683   32.1468 H   0  0  0  0  0  0  0  0  0  0  0  0
   48.4570  160.8880   32.7680 H   0  0  0  0  0  0  0  0  0  0  0  0
   48.1870  156.0020   29.9900 H   0  0  0  0  0  0  0  0  0  0  0  0
   52.2246  157.1014   26.8292 H   0  0  0  0  0  0  0  0  0  0  0  0
   54.1342  154.5109   24.9632 H   0  0  0  0  0  0  0  0  0  0  0  0
   52.5745  155.3507   24.5694 H   0  0  0  0  0  0  0  0  0  0  0  0
   54.3806  157.0330   26.1506 H   0  0  0  0  0  0  0  0  0  0  0  0
   55.1175  156.5086   24.5986 H   0  0  0  0  0  0  0  0  0  0  0  0
   53.5417  157.3710   24.5986 H   0  0  0  0  0  0  0  0  0  0  0  0
  1  2  1  0
  2  3  1  0
  3  4  2  0
  4  5  1  0
  5  6  2  0
  6  7  1  0
  7  8  1  0
  8  9  1  0
  9 10  2  0
 10 11  1  0
 11 12  2  0
 12 13  1  0
 13 14  1  0
 13 15  2  0
 15 16  1  0
 16 17  2  0
 16 18  1  0
 18 19  1  0
  6 20  1  0
 20 21  2  0
 21 22  1  0
 22 23  1  0
 21  3  1  0
 18  7  2  0
 15  9  1  0
  1 24  1  0
  1 25  1  0
  1 26  1  0
  2 27  1  0
  2 28  1  0
  4 29  1  0
  5 30  1  0
 10 31  1  0
 11 32  1  0
 12 33  1  0
 14 34  1  0
 19 35  1  0
 20 36  1  0
 22 37  1  0
 22 38  1  0
 23 39  1  0
 23 40  1  0
 23 41  1  0
M  END
>  <meeko>  (4) 
{"is_sidechain": [false], "free_energy": -9.087, "intermolecular_energy": -10.596, "internal_energy": -0.518}

$$$$
cand_039_out
     RDKit          3D

 41 43  0  0  0  0  0  0  0  0999 V2000
   53.1580  154.4000   24.7800 C   0  0  0  0  0  0  0  0  0  0  0  0
   53.4840  154.0800   26.2320 C   0  0  0  0  0  0  0  0  0  0  0  0
   52.9270  155.1190   27.1780 C   0  0  0  0  0  0  0  0  0  0  0  0
   53.0660  156.4730   26.8280 C   0  0  0  0  0  0  0  0  0  0  0  0
   52.5680  157.4860   27.6500 C   0  0  0  0  0  0  0  0  0  0  0  0
   51.9210  157.1780   28.8500 C   0  0  0  0  0  0  0  0  0  0  0  0
   51.3820  158.2640   29.6980 C   0  0  0  0  0  0  0  0  0  0  0  0
   50.0320  158.1010   29.9890 O   0  0  0  0  0  0  0  0  0  0  0  0
   49.4040  159.0390   30.7680 C   0  0  0  0  0  0  0  0  0  0  0  0
   48.0540  158.8270   31.0490 C   0  0  0  0  0  0  0  0  0  0  0  0
   47.3540  159.7460   31.8350 C   0  0  0  0  0  0  0  0  0  0  0  0
   48.0040  160.8740   32.3400 C   0  0  0  0  0  0  0  0  0  0  0  0
   49.3520  161.0820   32.0590 C   0  0  0  0  0  0  0  0  0  0  0  0
   49.9260  162.2060   32.5850 O   0  0  0  0  0  0  0  0  0  0  0  0
   50.0520  160.1620   31.2730 C   0  0  0  0  0  0  0  0  0  0  0  0
   51.4690  160.3430   30.9530 C   0  0  0  0  0  0  0  0  0  0  0  0
   52.1070  161.3140   31.3540 O   0  0  0  0  0  0  0  0  0  0  0  0
   52.1200  159.3070   30.1180 C   0  0  0  0  0  0  0  0  0  0  0  0
   53.4550  159.4950   29.8120 O   0  0  0  0  0  0  0  0  0  0  0  0
   51.7660  155.8280   29.1920 C   0  0  0  0  0  0  0  0  0  0  0  0
   52.2550  154.7900   28.3720 C   0  0  0  0  0  0  0  0  0  0  0  0
   52.0590  153.3660   28.8420 C   0  0  0  0  0  0  0  0  0  0  0  0
   51.5750  152.4590   27.7190 C   0  0  0  0  0  0  0  0  0  0  0  0
   52.3735  155.1701   24.7415 H   0  0  0  0  0  0  0  0  0  0  0  0
   54.0616  154.7715   24.2746 H   0  0  0  0  0  0  0  0  0  0  0  0
   52.8033  153.4896   24.2746 H   0  0  0  0  0  0  0  0  0  0  0  0
   53.0523  153.1006   26.4857 H   0  0  0  0  0  0  0  0  0  0  0  0
   54.5785  154.0719   26.3414 H   0  0  0  0  0  0  0  0  0  0  0  0
   53.5759  156.7394   25.8904 H   0  0  0  0  0  0  0  0  0  0  0  0
   52.6862  158.5376   27.3499 H   0  0  0  0  0  0  0  0  0  0  0  0
   47.5416  157.9380   30.6525 H   0  0  0  0  0  0  0  0  0  0  0  0
   46.2893  159.5807   32.0563 H   0  0  0  0  0  0  0  0  0  0  0  0
   47.4522  161.5970   32.9587 H   0  0  0  0  0  0  0  0  0  0  0  0
   50.5090  162.1360   33.3150 H   0  0  0  0  0  0  0  0  0  0  0  0
   53.7420  159.4470   28.9210 H   0  0  0  0  0  0  0  0  0  0  0  0
   51.2477  155.5703   30.1274 H   0  0  0  0  0  0  0  0  0  0  0  0
   53.0173  152.9817   29.2215 H   0  0  0  0  0  0  0  0  0  0  0  0
   51.2928  153.3699   29.6312 H   0  0  0  0  0  0  0  0  0  0  0  0
   51.0983  151.5657   28.1488 H   0  0  0  0  0  0  0  0  0  0  0  0
   50.8461  153.0008   27.0984 H   0  0  0  0  0  0  0  0  0  0  0  0
   52.4309  152.1552   27.0984 H   0  0  0  0  0  0  0  0  0  0  0  0
  1  2  1  0
  2  3  1  0
  3  4  2  0
  4  5  1  0
  5  6  2  0
  6  7  1  0
  7  8  1  0
  8  9  1  0
  9 10  2  0
 10 11  1  0
 11 12  2  0
 12 13  1  0
 13 14  1  0
 13 15  2  0
 15 16  1  0
 16 17  2  0
 16 18  1  0
 18 19  1  0
  6 20  1  0
 20 21  2  0
 21 22  1  0
 22 23  1  0
 21  3  1  0
 18  7  2  0
 15  9  1  0
  1 24  1  0
  1 25  1  0
  1 26  1  0
  2 27  1  0
  2 28  1  0
  4 29  1  0
  5 30  1  0
 10 31  1  0
 11 32  1  0
 12 33  1  0
 14 34  1  0
 19 35  1  0
 20 36  1  0
 22 37  1  0
 22 38  1  0
 23 39  1  0
 23 40  1  0
 23 41  1  0
M  END
>  <meeko>  (5) 
{"is_sidechain": [false], "free_energy": -8.925, "intermolecular_energy": -11.152, "internal_energy": 0.239}

$$$$
cand_039_out
     RDKit          3D

 41 43  0  0  0  0  0  0  0  0999 V2000
   48.0420  158.9530   30.5760 C   0  0  0  0  0  0  0  0  0  0  0  0
   49.2970  158.3800   31.2190 C   0  0  0  0  0  0  0  0  0  0  0  0
   50.1230  157.5840   30.2350 C   0  0  0  0  0  0  0  0  0  0  0  0
   49.6220  156.3430   29.8050 C   0  0  0  0  0  0  0  0  0  0  0  0
   50.3280  155.5580   28.8900 C   0  0  0  0  0  0  0  0  0  0  0  0
   51.5570  155.9850   28.3810 C   0  0  0  0  0  0  0  0  0  0  0  0
   52.2800  155.1500   27.3980 C   0  0  0  0  0  0  0  0  0  0  0  0
   51.9580  153.8010   27.4960 O   0  0  0  0  0  0  0  0  0  0  0  0
   52.5580  152.9120   26.6410 C   0  0  0  0  0  0  0  0  0  0  0  0
   52.1940  151.5710   26.7640 C   0  0  0  0  0  0  0  0  0  0  0  0
   52.7690  150.6130   25.9250 C   0  0  0  0  0  0  0  0  0  0  0  0
   53.7080  150.9970   24.9650 C   0  0  0  0  0  0  0  0  0  0  0  0
   54.0690  152.3360   24.8450 C   0  0  0  0  0  0  0  0  0  0  0  0
   54.9930  152.6430   23.8840 O   0  0  0  0  0  0  0  0  0  0  0  0
   53.4920  153.2950   25.6830 C   0  0  0  0  0  0  0  0  0  0  0  0
   53.8440  154.7120   25.5900 C   0  0  0  0  0  0  0  0  0  0  0  0
   54.6670  155.1260   24.7760 O   0  0  0  0  0  0  0  0  0  0  0  0
   53.1700  155.6480   26.5200 C   0  0  0  0  0  0  0  0  0  0  0  0
   53.5200  156.9820   26.4320 O   0  0  0  0  0  0  0  0  0  0  0  0
   52.0490  157.2310   28.7960 C   0  0  0  0  0  0  0  0  0  0  0  0
   51.3490  158.0420   29.7130 C   0  0  0  0  0  0  0  0  0  0  0  0
   51.9760  159.3570   30.1160 C   0  0  0  0  0  0  0  0  0  0  0  0
   51.0310  160.5290   29.8900 C   0  0  0  0  0  0  0  0  0  0  0  0
   47.3411  159.2730   31.3611 H   0  0  0  0  0  0  0  0  0  0  0  0
   48.3120  159.8171   29.9511 H   0  0  0  0  0  0  0  0  0  0  0  0
   47.5659  158.1830   29.9511 H   0  0  0  0  0  0  0  0  0  0  0  0
   49.9076  159.2087   31.6070 H   0  0  0  0  0  0  0  0  0  0  0  0
   48.9860  157.7029   32.0282 H   0  0  0  0  0  0  0  0  0  0  0  0
   48.6583  155.9841   30.1953 H   0  0  0  0  0  0  0  0  0  0  0  0
   49.9114  154.5927   28.5666 H   0  0  0  0  0  0  0  0  0  0  0  0
   51.4552  151.2681   27.5206 H   0  0  0  0  0  0  0  0  0  0  0  0
   52.4819  149.5555   26.0206 H   0  0  0  0  0  0  0  0  0  0  0  0
   54.1614  150.2427   24.3050 H   0  0  0  0  0  0  0  0  0  0  0  0
   55.7720  152.1280   23.8020 H   0  0  0  0  0  0  0  0  0  0  0  0
   54.4110  157.2420   26.5610 H   0  0  0  0  0  0  0  0  0  0  0  0
   53.0094  157.5862   28.3943 H   0  0  0  0  0  0  0  0  0  0  0  0
   52.2395  159.3132   31.1831 H   0  0  0  0  0  0  0  0  0  0  0  0
   52.8691  159.5140   29.4933 H   0  0  0  0  0  0  0  0  0  0  0  0
   50.7068  160.9311   30.8612 H   0  0  0  0  0  0  0  0  0  0  0  0
   51.5509  161.3151   29.3228 H   0  0  0  0  0  0  0  0  0  0  0  0
   50.1525  160.1876   29.3228 H   0  0  0  0  0  0  0  0  0  0  0  0
  1  2  1  0
  2  3  1  0
  3  4  2  0
  4  5  1  0
  5  6  2  0
  6  7  1  0
  7  8  1  0
  8  9  1  0
  9 10  2  0
 10 11  1  0
 11 12  2  0
 12 13  1  0
 13 14  1  0
 13 15  2  0
 15 16  1  0
 16 17  2  0
 16 18  1  0
 18 19  1  0
  6 20  1  0
 20 21  2  0
 21 22  1  0
 22 23  1  0
 21  3  1  0
 18  7  2  0
 15  9  1  0
  1 24  1  0
  1 25  1  0
  1 26  1  0
  2 27  1  0
  2 28  1  0
  4 29  1  0
  5 30  1  0
 10 31  1  0
 11 32  1  0
 12 33  1  0
 14 34  1  0
 19 35  1  0
 20 36  1  0
 22 37  1  0
 22 38  1  0
 23 39  1  0
 23 40  1  0
 23 41  1  0
M  END
>  <meeko>  (6) 
{"is_sidechain": [false], "free_energy": -8.749, "intermolecular_energy": -11.142, "internal_energy": 0.445}

$$$$
cand_039_out
     RDKit          3D

 41 43  0  0  0  0  0  0  0  0999 V2000
   54.4540  154.8160   24.7880 C   0  0  0  0  0  0  0  0  0  0  0  0
   53.7670  154.0360   25.8990 C   0  0  0  0  0  0  0  0  0  0  0  0
   53.0620  154.9470   26.8770 C   0  0  0  0  0  0  0  0  0  0  0  0
   53.1550  156.3350   26.6710 C   0  0  0  0  0  0  0  0  0  0  0  0
   52.5230  157.2360   27.5310 C   0  0  0  0  0  0  0  0  0  0  0  0
   51.7810  156.7800   28.6240 C   0  0  0  0  0  0  0  0  0  0  0  0
   51.1010  157.7480   29.5100 C   0  0  0  0  0  0  0  0  0  0  0  0
   51.9020  158.8360   29.8370 O   0  0  0  0  0  0  0  0  0  0  0  0
   51.3940  159.8130   30.6550 C   0  0  0  0  0  0  0  0  0  0  0  0
   52.2270  160.8940   30.9430 C   0  0  0  0  0  0  0  0  0  0  0  0
   51.7720  161.9220   31.7720 C   0  0  0  0  0  0  0  0  0  0  0  0
   50.4850  161.8690   32.3120 C   0  0  0  0  0  0  0  0  0  0  0  0
   49.6560  160.7880   32.0220 C   0  0  0  0  0  0  0  0  0  0  0  0
   48.4090  160.7990   32.5830 O   0  0  0  0  0  0  0  0  0  0  0  0
   50.1110  159.7600   31.1910 C   0  0  0  0  0  0  0  0  0  0  0  0
   49.2730  158.6070   30.8620 C   0  0  0  0  0  0  0  0  0  0  0  0
   48.1320  158.4850   31.3040 O   0  0  0  0  0  0  0  0  0  0  0  0
   49.8470  157.5750   29.9670 C   0  0  0  0  0  0  0  0  0  0  0  0
   49.0510  156.4840   29.6740 O   0  0  0  0  0  0  0  0  0  0  0  0
   51.6720  155.3960   28.8200 C   0  0  0  0  0  0  0  0  0  0  0  0
   52.2980  154.4690   27.9600 C   0  0  0  0  0  0  0  0  0  0  0  0
   52.1410  152.9980   28.2710 C   0  0  0  0  0  0  0  0  0  0  0  0
   51.8990  152.1750   27.0140 C   0  0  0  0  0  0  0  0  0  0  0  0
   55.1201  155.5723   25.2288 H   0  0  0  0  0  0  0  0  0  0  0  0
   55.0433  154.1262   24.1660 H   0  0  0  0  0  0  0  0  0  0  0  0
   53.6953  155.3135   24.1660 H   0  0  0  0  0  0  0  0  0  0  0  0
   53.0278  153.3558   25.4508 H   0  0  0  0  0  0  0  0  0  0  0  0
   54.5384  153.4777   26.4497 H   0  0  0  0  0  0  0  0  0  0  0  0
   53.7352  156.7175   25.8183 H   0  0  0  0  0  0  0  0  0  0  0  0
   52.6103  158.3168   27.3459 H   0  0  0  0  0  0  0  0  0  0  0  0
   53.2407  160.9369   30.5180 H   0  0  0  0  0  0  0  0  0  0  0  0
   52.4284  162.7747   31.9999 H   0  0  0  0  0  0  0  0  0  0  0  0
   50.1270  162.6789   32.9646 H   0  0  0  0  0  0  0  0  0  0  0  0
   47.6880  160.4050   32.1310 H   0  0  0  0  0  0  0  0  0  0  0  0
   48.8070  156.3070   28.7860 H   0  0  0  0  0  0  0  0  0  0  0  0
   51.0812  155.0219   29.6691 H   0  0  0  0  0  0  0  0  0  0  0  0
   53.0579  152.6382   28.7606 H   0  0  0  0  0  0  0  0  0  0  0  0
   51.2676  152.8800   28.9292 H   0  0  0  0  0  0  0  0  0  0  0  0
   51.5990  151.1549   27.2957 H   0  0  0  0  0  0  0  0  0  0  0  0
   51.0999  152.6410   26.4188 H   0  0  0  0  0  0  0  0  0  0  0  0
   52.8232  152.1343   26.4188 H   0  0  0  0  0  0  0  0  0  0  0  0
  1  2  1  0
  2  3  1  0
  3  4  2  0
  4  5  1  0
  5  6  2  0
  6  7  1  0
  7  8  1  0
  8  9  1  0
  9 10  2  0
 10 11  1  0
 11 12  2  0
 12 13  1  0
 13 14  1  0
 13 15  2  0
 15 16  1  0
 16 17  2  0
 16 18  1  0
 18 19  1  0
  6 20  1  0
 20 21  2  0
 21 22  1  0
 22 23  1  0
 21  3  1  0
 18  7  2  0
 15  9  1  0
  1 24  1  0
  1 25  1  0
  1 26  1  0
  2 27  1  0
  2 28  1  0
  4 29  1  0
  5 30  1  0
 10 31  1  0
 11 32  1  0
 12 33  1  0
 14 34  1  0
 19 35  1  0
 20 36  1  0
 22 37  1  0
 22 38  1  0
 23 39  1  0
 23 40  1  0
 23 41  1  0
M  END
>  <meeko>  (7) 
{"is_sidechain": [false], "free_energy": -8.178, "intermolecular_energy": -10.447, "internal_energy": 0.455}

$$$$
cand_039_out
     RDKit          3D

 41 43  0  0  0  0  0  0  0  0999 V2000
   50.4950  160.7450   30.1210 C   0  0  0  0  0  0  0  0  0  0  0  0
   50.9790  159.5220   30.8850 C   0  0  0  0  0  0  0  0  0  0  0  0
   51.3320  158.3810   29.9590 C   0  0  0  0  0  0  0  0  0  0  0  0
   52.5790  158.4160   29.3120 C   0  0  0  0  0  0  0  0  0  0  0  0
   52.9750  157.3920   28.4490 C   0  0  0  0  0  0  0  0  0  0  0  0
   52.1340  156.3030   28.2020 C   0  0  0  0  0  0  0  0  0  0  0  0
   52.5790  155.2170   27.3010 C   0  0  0  0  0  0  0  0  0  0  0  0
   52.1030  153.9690   27.6860 O   0  0  0  0  0  0  0  0  0  0  0  0
   52.4400  152.8700   26.9360 C   0  0  0  0  0  0  0  0  0  0  0  0
   51.9280  151.6400   27.3490 C   0  0  0  0  0  0  0  0  0  0  0  0
   52.2350  150.4820   26.6310 C   0  0  0  0  0  0  0  0  0  0  0  0
   53.0540  150.5540   25.5020 C   0  0  0  0  0  0  0  0  0  0  0  0
   53.5640  151.7830   25.0930 C   0  0  0  0  0  0  0  0  0  0  0  0
   54.3580  151.7830   23.9800 O   0  0  0  0  0  0  0  0  0  0  0  0
   53.2550  152.9430   25.8110 C   0  0  0  0  0  0  0  0  0  0  0  0
   53.7710  154.2540   25.4150 C   0  0  0  0  0  0  0  0  0  0  0  0
   54.5030  154.3970   24.4380 O   0  0  0  0  0  0  0  0  0  0  0  0
   53.3780  155.4210   26.2380 C   0  0  0  0  0  0  0  0  0  0  0  0
   53.8820  156.6530   25.8630 O   0  0  0  0  0  0  0  0  0  0  0  0
   50.8970  156.2570   28.8600 C   0  0  0  0  0  0  0  0  0  0  0  0
   50.4830  157.2780   29.7400 C   0  0  0  0  0  0  0  0  0  0  0  0
   49.1190  157.1480   30.3810 C   0  0  0  0  0  0  0  0  0  0  0  0
   48.1040  158.0910   29.7530 C   0  0  0  0  0  0  0  0  0  0  0  0
   50.1866  161.5242   30.8336 H   0  0  0  0  0  0  0  0  0  0  0  0
   51.3093  161.1281   29.4884 H   0  0  0  0  0  0  0  0  0  0  0  0
   49.6390  160.4671   29.4884 H   0  0  0  0  0  0  0  0  0  0  0  0
   51.8712  159.7966   31.4669 H   0  0  0  0  0  0  0  0  0  0  0  0
   50.1636  159.1868   31.5428 H   0  0  0  0  0  0  0  0  0  0  0  0
   53.2554  159.2653   29.4885 H   0  0  0  0  0  0  0  0  0  0  0  0
   53.9584  157.4428   27.9587 H   0  0  0  0  0  0  0  0  0  0  0  0
   51.2836  151.5821   28.2386 H   0  0  0  0  0  0  0  0  0  0  0  0
   51.8310  149.5116   26.9553 H   0  0  0  0  0  0  0  0  0  0  0  0
   53.2955  149.6415   24.9372 H   0  0  0  0  0  0  0  0  0  0  0  0
   54.0470  151.4030   23.1820 H   0  0  0  0  0  0  0  0  0  0  0  0
   53.5540  157.4340   26.2630 H   0  0  0  0  0  0  0  0  0  0  0  0
   50.2302  155.3999   28.6848 H   0  0  0  0  0  0  0  0  0  0  0  0
   48.7660  156.1134   30.2589 H   0  0  0  0  0  0  0  0  0  0  0  0
   49.2160  157.4114   31.4446 H   0  0  0  0  0  0  0  0  0  0  0  0
   47.5457  158.6097   30.5462 H   0  0  0  0  0  0  0  0  0  0  0  0
   48.6275  158.8306   29.1293 H   0  0  0  0  0  0  0  0  0  0  0  0
   47.4049  157.5146   29.1293 H   0  0  0  0  0  0  0  0  0  0  0  0
  1  2  1  0
  2  3  1  0
  3  4  2  0
  4  5  1  0
  5  6  2  0
  6  7  1  0
  7  8  1  0
  8  9  1  0
  9 10  2  0
 10 11  1  0
 11 12  2  0
 12 13  1  0
 13 14  1  0
 13 15  2  0
 15 16  1  0
 16 17  2  0
 16 18  1  0
 18 19  1  0
  6 20  1  0
 20 21  2  0
 21 22  1  0
 22 23  1  0
 21  3  1  0
 18  7  2  0
 15  9  1  0
  1 24  1  0
  1 25  1  0
  1 26  1  0
  2 27  1  0
  2 28  1  0
  4 29  1  0
  5 30  1  0
 10 31  1  0
 11 32  1  0
 12 33  1  0
 14 34  1  0
 19 35  1  0
 20 36  1  0
 22 37  1  0
 22 38  1  0
 23 39  1  0
 23 40  1  0
 23 41  1  0
M  END
>  <meeko>  (8) 
{"is_sidechain": [false], "free_energy": -7.961, "intermolecular_energy": -9.691, "internal_energy": -0.033}

$$$$
