cand_042_out
     RDKit          3D

 38 40  0  0  0  0  0  0  0  0999 V2000
   49.2600  160.4990   33.2410 C   0  0  0  0  0  0  0  0  0  0  0  0
   49.4220  160.8560   31.7710 C   0  0  0  0  0  0  0  0  0  0  0  0
   50.0580  159.7330   30.9820 C   0  0  0  0  0  0  0  0  0  0  0  0
   49.3210  158.5550   30.7830 C   0  0  0  0  0  0  0  0  0  0  0  0
   49.8580  157.4800   30.0720 C   0  0  0  0  0  0  0  0  0  0  0  0
   51.1450  157.5530   29.5340 C   0  0  0  0  0  0  0  0  0  0  0  0
   51.7480  156.4210   28.7980 C   0  0  0  0  0  0  0  0  0  0  0  0
   52.3120  156.8030   27.5870 O   0  0  0  0  0  0  0  0  0  0  0  0
   52.9060  155.8500   26.8010 C   0  0  0  0  0  0  0  0  0  0  0  0
   53.4720  156.2810   25.6010 C   0  0  0  0  0  0  0  0  0  0  0  0
   54.0930  155.3600   24.7530 C   0  0  0  0  0  0  0  0  0  0  0  0
   54.1470  154.0100   25.1050 C   0  0  0  0  0  0  0  0  0  0  0  0
   53.5820  153.5830   26.3040 C   0  0  0  0  0  0  0  0  0  0  0  0
   53.6690  152.2470   26.5870 O   0  0  0  0  0  0  0  0  0  0  0  0
   52.9620  154.5050   27.1530 C   0  0  0  0  0  0  0  0  0  0  0  0
   52.3550  154.0980   28.4200 C   0  0  0  0  0  0  0  0  0  0  0  0
   52.3560  152.9270   28.7960 O   0  0  0  0  0  0  0  0  0  0  0  0
   51.7300  155.1530   29.2500 C   0  0  0  0  0  0  0  0  0  0  0  0
   51.1490  154.7550   30.4400 O   0  0  0  0  0  0  0  0  0  0  0  0
   51.8890  158.7250   29.7460 C   0  0  0  0  0  0  0  0  0  0  0  0
   51.3660  159.8140   30.4670 C   0  0  0  0  0  0  0  0  0  0  0  0
   52.2150  161.0440   30.6380 C   0  0  0  0  0  0  0  0  0  0  0  0
   49.6350  161.3255   33.8625 H   0  0  0  0  0  0  0  0  0  0  0  0
   48.1960  160.3278   33.4617 H   0  0  0  0  0  0  0  0  0  0  0  0
   49.8318  159.5856   33.4617 H   0  0  0  0  0  0  0  0  0  0  0  0
   48.4303  161.0711   31.3464 H   0  0  0  0  0  0  0  0  0  0  0  0
   50.0818  161.7337   31.7052 H   0  0  0  0  0  0  0  0  0  0  0  0
   48.3036  158.4775   31.1940 H   0  0  0  0  0  0  0  0  0  0  0  0
   49.2614  156.5662   29.9341 H   0  0  0  0  0  0  0  0  0  0  0  0
   53.4296  157.3444   25.3226 H   0  0  0  0  0  0  0  0  0  0  0  0
   54.5399  155.6992   23.8068 H   0  0  0  0  0  0  0  0  0  0  0  0
   54.6348  153.2852   24.4366 H   0  0  0  0  0  0  0  0  0  0  0  0
   52.8990  151.7140   26.5710 H   0  0  0  0  0  0  0  0  0  0  0  0
   51.6880  154.4960   31.1610 H   0  0  0  0  0  0  0  0  0  0  0  0
   52.9080  158.7934   29.3374 H   0  0  0  0  0  0  0  0  0  0  0  0
   52.3550  161.2468   31.7100 H   0  0  0  0  0  0  0  0  0  0  0  0
   53.1946  160.8821   30.1645 H   0  0  0  0  0  0  0  0  0  0  0  0
   51.7163  161.9025   30.1645 H   0  0  0  0  0  0  0  0  0  0  0  0
  1  2  1  0
  2  3  1  0
  3  4  2  0
  4  5  1  0
  5  6  2  0
  6  7  1  0
  7  8  1  0
  8  9  1  0
  9 10  2  0
 10 11  1  0
 11 12  2  0
 12 13  1  0
 13 14  1  0
 13 15  2  0
 15 16  1  0
 16 17  2  0
 16 18  1  0
 18 19  1  0
  6 20  1  0
 20 21  2  0
 21 22  1  0
 21  3  1  0
 18  7  2  0
 15  9  1  0
  1 23  1  0
  1 24  1  0
  1 25  1  0
  2 26  1  0
  2 27  1  0
  4 28  1  0
  5 29  1  0
 10 30  1  0
 11 31  1  0
 12 32  1  0
 14 33  1  0
 19 34  1  0
 20 35  1  0
 22 36  1  0
 22 37  1  0
 22 38  1  0
M  END
>  <meeko>  (1) 
{"is_sidechain": [false], "free_energy": -10.826, "intermolecular_energy": -12.725, "internal_energy": -0.202}

$$$$
cand_042_out
     RDKit          3D

 38 40  0  0  0  0  0  0  0  0999 V2000
   49.9190  161.1240   33.1270 C   0  0  0  0  0  0  0  0  0  0  0  0
   49.8360  161.2570   31.6140 C   0  0  0  0  0  0  0  0  0  0  0  0
   50.3280  160.0130   30.9080 C   0  0  0  0  0  0  0  0  0  0  0  0
   51.6450  159.9960   30.4230 C   0  0  0  0  0  0  0  0  0  0  0  0
   52.1530  158.8810   29.7530 C   0  0  0  0  0  0  0  0  0  0  0  0
   51.3610  157.7470   29.5550 C   0  0  0  0  0  0  0  0  0  0  0  0
   51.8650  156.5610   28.8290 C   0  0  0  0  0  0  0  0  0  0  0  0
   52.4470  156.8810   27.6090 O   0  0  0  0  0  0  0  0  0  0  0  0
   52.9560  155.8730   26.8320 C   0  0  0  0  0  0  0  0  0  0  0  0
   53.5450  156.2420   25.6210 C   0  0  0  0  0  0  0  0  0  0  0  0
   54.0820  155.2640   24.7810 C   0  0  0  0  0  0  0  0  0  0  0  0
   54.0310  153.9180   25.1510 C   0  0  0  0  0  0  0  0  0  0  0  0
   53.4430  153.5530   26.3600 C   0  0  0  0  0  0  0  0  0  0  0  0
   53.4250  152.2180   26.6600 O   0  0  0  0  0  0  0  0  0  0  0  0
   52.9060  154.5320   27.2010 C   0  0  0  0  0  0  0  0  0  0  0  0
   52.2800  154.1920   28.4780 C   0  0  0  0  0  0  0  0  0  0  0  0
   52.1900  153.0300   28.8700 O   0  0  0  0  0  0  0  0  0  0  0  0
   51.7490  155.3050   29.2990 C   0  0  0  0  0  0  0  0  0  0  0  0
   51.1480  154.9690   30.4990 O   0  0  0  0  0  0  0  0  0  0  0  0
   50.0380  157.7680   30.0260 C   0  0  0  0  0  0  0  0  0  0  0  0
   49.5080  158.8870   30.6950 C   0  0  0  0  0  0  0  0  0  0  0  0
   48.0890  158.8310   31.1890 C   0  0  0  0  0  0  0  0  0  0  0  0
   49.3929  161.9671   33.5986 H   0  0  0  0  0  0  0  0  0  0  0  0
   49.4501  160.1789   33.4383 H   0  0  0  0  0  0  0  0  0  0  0  0
   50.9740  161.1298   33.4383 H   0  0  0  0  0  0  0  0  0  0  0  0
   48.7884  161.4356   31.3301 H   0  0  0  0  0  0  0  0  0  0  0  0
   50.4790  162.0965   31.3109 H   0  0  0  0  0  0  0  0  0  0  0  0
   52.2879  160.8758   30.5732 H   0  0  0  0  0  0  0  0  0  0  0  0
   53.1868  158.8956   29.3774 H   0  0  0  0  0  0  0  0  0  0  0  0
   53.5860  157.3017   25.3289 H   0  0  0  0  0  0  0  0  0  0  0  0
   54.5458  155.5541   23.8267 H   0  0  0  0  0  0  0  0  0  0  0  0
   54.4542  153.1480   24.4892 H   0  0  0  0  0  0  0  0  0  0  0  0
   52.6130  151.7510   26.6680 H   0  0  0  0  0  0  0  0  0  0  0  0
   50.6790  154.1630   30.5790 H   0  0  0  0  0  0  0  0  0  0  0  0
   49.3992  156.8866   29.8678 H   0  0  0  0  0  0  0  0  0  0  0  0
   48.0834  158.8308   32.2890 H   0  0  0  0  0  0  0  0  0  0  0  0
   47.5373  159.7081   30.8197 H   0  0  0  0  0  0  0  0  0  0  0  0
   47.6081  157.9132   30.8197 H   0  0  0  0  0  0  0  0  0  0  0  0
  1  2  1  0
  2  3  1  0
  3  4  2  0
  4  5  1  0
  5  6  2  0
  6  7  1  0
  7  8  1  0
  8  9  1  0
  9 10  2  0
 10 11  1  0
 11 12  2  0
 12 13  1  0
 13 14  1  0
 13 15  2  0
 15 16  1  0
 16 17  2  0
 16 18  1  0
 18 19  1  0
  6 20  1  0
 20 21  2  0
 21 22  1  0
 21  3  1  0
 18  7  2  0
 15  9  1  0
  1 23  1  0
  1 24  1  0
  1 25  1  0
  2 26  1  0
  2 27  1  0
  4 28  1  0
  5 29  1  0
 10 30  1  0
 11 31  1  0
 12 32  1  0
 14 33  1  0
 19 34  1  0
 20 35  1  0
 22 36  1  0
 22 37  1  0
 22 38  1  0
M  END
>  <meeko>  (2) 
{"is_sidechain": [false], "free_energy": -10.636, "intermolecular_energy": -12.578, "internal_energy": -0.125}

$$$$
cand_042_out
     RDKit          3D

 38 40  0  0  0  0  0  0  0  0999 V2000
   52.0490  151.5670   26.7810 C   0  0  0  0  0  0  0  0  0  0  0  0
   52.9960  152.7080   26.4400 C   0  0  0  0  0  0  0  0  0  0  0  0
   52.6410  153.9790   27.1790 C   0  0  0  0  0  0  0  0  0  0  0  0
   51.9380  153.8730   28.3890 C   0  0  0  0  0  0  0  0  0  0  0  0
   51.5730  155.0110   29.1130 C   0  0  0  0  0  0  0  0  0  0  0  0
   51.9060  156.2870   28.6500 C   0  0  0  0  0  0  0  0  0  0  0  0
   51.5120  157.5090   29.3830 C   0  0  0  0  0  0  0  0  0  0  0  0
   50.1790  157.4980   29.7760 O   0  0  0  0  0  0  0  0  0  0  0  0
   49.6820  158.5730   30.4650 C   0  0  0  0  0  0  0  0  0  0  0  0
   48.3430  158.5140   30.8520 C   0  0  0  0  0  0  0  0  0  0  0  0
   47.7730  159.5770   31.5570 C   0  0  0  0  0  0  0  0  0  0  0  0
   48.5410  160.6990   31.8730 C   0  0  0  0  0  0  0  0  0  0  0  0
   49.8770  160.7550   31.4860 C   0  0  0  0  0  0  0  0  0  0  0  0
   50.5720  161.8840   31.8270 O   0  0  0  0  0  0  0  0  0  0  0  0
   50.4480  159.6910   30.7820 C   0  0  0  0  0  0  0  0  0  0  0  0
   51.8470  159.7110   30.3560 C   0  0  0  0  0  0  0  0  0  0  0  0
   52.5860  160.6660   30.5910 O   0  0  0  0  0  0  0  0  0  0  0  0
   52.3560  158.5300   29.6220 C   0  0  0  0  0  0  0  0  0  0  0  0
   53.6780  158.5660   29.2140 O   0  0  0  0  0  0  0  0  0  0  0  0
   52.5960  156.3940   27.4320 C   0  0  0  0  0  0  0  0  0  0  0  0
   52.9640  155.2580   26.6870 C   0  0  0  0  0  0  0  0  0  0  0  0
   53.7180  155.4490   25.3990 C   0  0  0  0  0  0  0  0  0  0  0  0
   51.9692  151.4709   27.8739 H   0  0  0  0  0  0  0  0  0  0  0  0
   51.0554  151.7762   26.3578 H   0  0  0  0  0  0  0  0  0  0  0  0
   52.4377  150.6290   26.3578 H   0  0  0  0  0  0  0  0  0  0  0  0
   54.0201  152.4130   26.7124 H   0  0  0  0  0  0  0  0  0  0  0  0
   52.9130  152.9076   25.3614 H   0  0  0  0  0  0  0  0  0  0  0  0
   51.6700  152.8779   28.7737 H   0  0  0  0  0  0  0  0  0  0  0  0
   51.0182  154.9016   30.0565 H   0  0  0  0  0  0  0  0  0  0  0  0
   47.7363  157.6311   30.6022 H   0  0  0  0  0  0  0  0  0  0  0  0
   46.7176  159.5297   31.8635 H   0  0  0  0  0  0  0  0  0  0  0  0
   48.0916  161.5368   32.4264 H   0  0  0  0  0  0  0  0  0  0  0  0
   51.3550  161.8160   32.3370 H   0  0  0  0  0  0  0  0  0  0  0  0
   54.2060  159.3150   29.4020 H   0  0  0  0  0  0  0  0  0  0  0  0
   52.8559  157.3922   27.0498 H   0  0  0  0  0  0  0  0  0  0  0  0
   54.7623  155.7136   25.6212 H   0  0  0  0  0  0  0  0  0  0  0  0
   53.6920  154.5159   24.8171 H   0  0  0  0  0  0  0  0  0  0  0  0
   53.2509  156.2572   24.8171 H   0  0  0  0  0  0  0  0  0  0  0  0
  1  2  1  0
  2  3  1  0
  3  4  2  0
  4  5  1  0
  5  6  2  0
  6  7  1  0
  7  8  1  0
  8  9  1  0
  9 10  2  0
 10 11  1  0
 11 12  2  0
 12 13  1  0
 13 14  1  0
 13 15  2  0
 15 16  1  0
 16 17  2  0
 16 18  1  0
 18 19  1  0
  6 20  1  0
 20 21  2  0
 21 22  1  0
 21  3  1  0
 18  7  2  0
 15  9  1  0
  1 23  1  0
  1 24  1  0
  1 25  1  0
  2 26  1  0
  2 27  1  0
  4 28  1  0
  5 29  1  0
 10 30  1  0
 11 31  1  0
 12 32  1  0
 14 33  1  0
 19 34  1  0
 20 35  1  0
 22 36  1  0
 22 37  1  0
 22 38  1  0
M  END
>  <meeko>  (3) 
{"is_sidechain": [false], "free_energy": -9.829, "intermolecular_energy": -11.609, "internal_energy": -0.145}

$$$$
cand_042_out
     RDKit          3D

 38 40  0  0  0  0  0  0  0  0999 V2000
   52.5400  151.8770   26.3520 C   0  0  0  0  0  0  0  0  0  0  0  0
   53.5020  153.0520   26.4530 C   0  0  0  0  0  0  0  0  0  0  0  0
   52.9000  154.2120   27.2150 C   0  0  0  0  0  0  0  0  0  0  0  0
   52.1890  153.9400   28.3940 C   0  0  0  0  0  0  0  0  0  0  0  0
   51.6010  154.9670   29.1350 C   0  0  0  0  0  0  0  0  0  0  0  0
   51.7130  156.2980   28.7230 C   0  0  0  0  0  0  0  0  0  0  0  0
   51.0820  157.4030   29.4740 C   0  0  0  0  0  0  0  0  0  0  0  0
   51.9600  158.4470   29.7410 O   0  0  0  0  0  0  0  0  0  0  0  0
   51.5030  159.5380   30.4330 C   0  0  0  0  0  0  0  0  0  0  0  0
   52.4150  160.5690   30.6650 C   0  0  0  0  0  0  0  0  0  0  0  0
   52.0150  161.7090   31.3660 C   0  0  0  0  0  0  0  0  0  0  0  0
   50.7030  161.8190   31.8340 C   0  0  0  0  0  0  0  0  0  0  0  0
   49.7960  160.7890   31.6000 C   0  0  0  0  0  0  0  0  0  0  0  0
   48.5280  160.9610   32.0870 O   0  0  0  0  0  0  0  0  0  0  0  0
   50.1960  159.6480   30.8980 C   0  0  0  0  0  0  0  0  0  0  0  0
   49.2740  158.5440   30.6320 C   0  0  0  0  0  0  0  0  0  0  0  0
   48.1070  158.5640   31.0170 O   0  0  0  0  0  0  0  0  0  0  0  0
   49.7960  157.3850   29.8730 C   0  0  0  0  0  0  0  0  0  0  0  0
   48.9190  156.3420   29.6380 O   0  0  0  0  0  0  0  0  0  0  0  0
   52.4110  156.5690   27.5350 C   0  0  0  0  0  0  0  0  0  0  0  0
   53.0020  155.5450   26.7720 C   0  0  0  0  0  0  0  0  0  0  0  0
   53.7500  155.9130   25.5200 C   0  0  0  0  0  0  0  0  0  0  0  0
   52.2646  151.5407   27.3625 H   0  0  0  0  0  0  0  0  0  0  0  0
   51.6351  152.1895   25.8103 H   0  0  0  0  0  0  0  0  0  0  0  0
   53.0250  151.0516   25.8103 H   0  0  0  0  0  0  0  0  0  0  0  0
   54.4139  152.7211   26.9717 H   0  0  0  0  0  0  0  0  0  0  0  0
   53.7277  153.3956   25.4327 H   0  0  0  0  0  0  0  0  0  0  0  0
   52.0933  152.9003   28.7401 H   0  0  0  0  0  0  0  0  0  0  0  0
   51.0439  154.7262   30.0524 H   0  0  0  0  0  0  0  0  0  0  0  0
   53.4478  160.4838   30.2961 H   0  0  0  0  0  0  0  0  0  0  0  0
   52.7337  162.5212   31.5499 H   0  0  0  0  0  0  0  0  0  0  0  0
   50.3877  162.7169   32.3857 H   0  0  0  0  0  0  0  0  0  0  0  0
   47.8610  161.3220   31.5380 H   0  0  0  0  0  0  0  0  0  0  0  0
   48.9140  155.9110   28.8060 H   0  0  0  0  0  0  0  0  0  0  0  0
   52.4981  157.6103   27.1914 H   0  0  0  0  0  0  0  0  0  0  0  0
   54.7069  156.3838   25.7896 H   0  0  0  0  0  0  0  0  0  0  0  0
   53.9415  155.0063   24.9274 H   0  0  0  0  0  0  0  0  0  0  0  0
   53.1486  156.6181   24.9274 H   0  0  0  0  0  0  0  0  0  0  0  0
  1  2  1  0
  2  3  1  0
  3  4  2  0
  4  5  1  0
  5  6  2  0
  6  7  1  0
  7  8  1  0
  8  9  1  0
  9 10  2  0
 10 11  1  0
 11 12  2  0
 12 13  1  0
 13 14  1  0
 13 15  2  0
 15 16  1  0
 16 17  2  0
 16 18  1  0
 18 19  1  0
  6 20  1  0
 20 21  2  0
 21 22  1  0
 21  3  1  0
 18  7  2  0
 15  9  1  0
  1 23  1  0
  1 24  1  0
  1 25  1  0
  2 26  1  0
  2 27  1  0
  4 28  1  0
  5 29  1  0
 10 30  1  0
 11 31  1  0
 12 32  1  0
 14 33  1  0
 19 34  1  0
 20 35  1  0
 22 36  1  0
 22 37  1  0
 22 38  1  0
M  END
>  <meeko>  (4) 
{"is_sidechain": [false], "free_energy": -9.001, "intermolecular_energy": -10.577, "internal_energy": -0.205}

$$$$
cand_042_out
     RDKit          3D

 38 40  0  0  0  0  0  0  0  0999 V2000
   48.1950  159.1450   30.6020 C   0  0  0  0  0  0  0  0  0  0  0  0
   49.3780  158.4230   31.2310 C   0  0  0  0  0  0  0  0  0  0  0  0
   50.1460  157.6040   30.2180 C   0  0  0  0  0  0  0  0  0  0  0  0
   49.6480  156.3400   29.8650 C   0  0  0  0  0  0  0  0  0  0  0  0
   50.3170  155.5330   28.9430 C   0  0  0  0  0  0  0  0  0  0  0  0
   51.5020  155.9680   28.3430 C   0  0  0  0  0  0  0  0  0  0  0  0
   52.2450  155.1250   27.3820 C   0  0  0  0  0  0  0  0  0  0  0  0
   51.9360  153.7740   27.4960 O   0  0  0  0  0  0  0  0  0  0  0  0
   52.5560  152.8790   26.6640 C   0  0  0  0  0  0  0  0  0  0  0  0
   52.2050  151.5360   26.8040 C   0  0  0  0  0  0  0  0  0  0  0  0
   52.8000  150.5720   25.9870 C   0  0  0  0  0  0  0  0  0  0  0  0
   53.7450  150.9500   25.0310 C   0  0  0  0  0  0  0  0  0  0  0  0
   54.0920  152.2920   24.8930 C   0  0  0  0  0  0  0  0  0  0  0  0
   55.0250  152.5930   23.9380 O   0  0  0  0  0  0  0  0  0  0  0  0
   53.4960  153.2570   25.7100 C   0  0  0  0  0  0  0  0  0  0  0  0
   53.8330  154.6760   25.5980 C   0  0  0  0  0  0  0  0  0  0  0  0
   54.6610  155.0860   24.7860 O   0  0  0  0  0  0  0  0  0  0  0  0
   53.1390  155.6180   26.5050 C   0  0  0  0  0  0  0  0  0  0  0  0
   53.4750  156.9550   26.3990 O   0  0  0  0  0  0  0  0  0  0  0  0
   52.0090  157.2260   28.7070 C   0  0  0  0  0  0  0  0  0  0  0  0
   51.3510  158.0480   29.6400 C   0  0  0  0  0  0  0  0  0  0  0  0
   51.9440  159.3910   29.9680 C   0  0  0  0  0  0  0  0  0  0  0  0
   47.5441  159.5422   31.3948 H   0  0  0  0  0  0  0  0  0  0  0  0
   48.5608  159.9739   29.9783 H   0  0  0  0  0  0  0  0  0  0  0  0
   47.6250  158.4407   29.9783 H   0  0  0  0  0  0  0  0  0  0  0  0
   50.0557  159.1689   31.6718 H   0  0  0  0  0  0  0  0  0  0  0  0
   48.9886  157.7368   31.9975 H   0  0  0  0  0  0  0  0  0  0  0  0
   48.7150  155.9793   30.3225 H   0  0  0  0  0  0  0  0  0  0  0  0
   49.9074  154.5449   28.6862 H   0  0  0  0  0  0  0  0  0  0  0  0
   51.4608  151.2368   27.5567 H   0  0  0  0  0  0  0  0  0  0  0  0
   52.5236  149.5130   26.0969 H   0  0  0  0  0  0  0  0  0  0  0  0
   54.2141  150.1902   24.3887 H   0  0  0  0  0  0  0  0  0  0  0  0
   54.8560  152.3920   23.0390 H   0  0  0  0  0  0  0  0  0  0  0  0
   53.4950  157.4960   27.1630 H   0  0  0  0  0  0  0  0  0  0  0  0
   52.9457  157.5781   28.2504 H   0  0  0  0  0  0  0  0  0  0  0  0
   51.9972  159.5115   31.0601 H   0  0  0  0  0  0  0  0  0  0  0  0
   52.9558  159.4590   29.5419 H   0  0  0  0  0  0  0  0  0  0  0  0
   51.3126  160.1846   29.5419 H   0  0  0  0  0  0  0  0  0  0  0  0
  1  2  1  0
  2  3  1  0
  3  4  2  0
  4  5  1  0
  5  6  2  0
  6  7  1  0
  7  8  1  0
  8  9  1  0
  9 10  2  0
 10 11  1  0
 11 12  2  0
 12 13  1  0
 13 14  1  0
 13 15  2  0
 15 16  1  0
 16 17  2  0
 16 18  1  0
 18 19  1  0
  6 20  1  0
 20 21  2  0
 21 22  1  0
 21  3  1  0
 18  7  2  0
 15  9  1  0
  1 23  1  0
  1 24  1  0
  1 25  1  0
  2 26  1  0
  2 27  1  0
  4 28  1  0
  5 29  1  0
 10 30  1  0
 11 31  1  0
 12 32  1  0
 14 33  1  0
 19 34  1  0
 20 35  1  0
 22 36  1  0
 22 37  1  0
 22 38  1  0
M  END
>  <meeko>  (5) 
{"is_sidechain": [false], "free_energy": -8.724, "intermolecular_energy": -10.59, "internal_energy": 0.135}

$$$$
cand_042_out
     RDKit          3D

 38 40  0  0  0  0  0  0  0  0999 V2000
   50.0760  160.6040   30.0710 C   0  0  0  0  0  0  0  0  0  0  0  0
   50.7260  159.4730   30.8540 C   0  0  0  0  0  0  0  0  0  0  0  0
   51.1670  158.3410   29.9540 C   0  0  0  0  0  0  0  0  0  0  0  0
   52.4260  158.4300   29.3370 C   0  0  0  0  0  0  0  0  0  0  0  0
   52.8850  157.4220   28.4870 C   0  0  0  0  0  0  0  0  0  0  0  0
   52.1020  156.2930   28.2330 C   0  0  0  0  0  0  0  0  0  0  0  0
   52.5520  155.2220   27.3180 C   0  0  0  0  0  0  0  0  0  0  0  0
   52.0910  153.9640   27.6900 O   0  0  0  0  0  0  0  0  0  0  0  0
   52.4360  152.8790   26.9270 C   0  0  0  0  0  0  0  0  0  0  0  0
   51.9400  151.6380   27.3290 C   0  0  0  0  0  0  0  0  0  0  0  0
   52.2540  150.4910   26.5960 C   0  0  0  0  0  0  0  0  0  0  0  0
   53.0640  150.5850   25.4630 C   0  0  0  0  0  0  0  0  0  0  0  0
   53.5570  151.8240   25.0640 C   0  0  0  0  0  0  0  0  0  0  0  0
   54.3450  151.8440   23.9450 O   0  0  0  0  0  0  0  0  0  0  0  0
   53.2420  152.9720   25.7970 C   0  0  0  0  0  0  0  0  0  0  0  0
   53.7400  154.2930   25.4120 C   0  0  0  0  0  0  0  0  0  0  0  0
   54.4640  154.4550   24.4310 O   0  0  0  0  0  0  0  0  0  0  0  0
   53.3420  155.4460   26.2510 C   0  0  0  0  0  0  0  0  0  0  0  0
   53.8290  156.6880   25.8850 O   0  0  0  0  0  0  0  0  0  0  0  0
   50.8370  156.2110   28.8360 C   0  0  0  0  0  0  0  0  0  0  0  0
   50.3560  157.2210   29.6890 C   0  0  0  0  0  0  0  0  0  0  0  0
   48.9980  157.0560   30.3150 C   0  0  0  0  0  0  0  0  0  0  0  0
   49.6534  161.3393   30.7715 H   0  0  0  0  0  0  0  0  0  0  0  0
   50.8310  161.0927   29.4377 H   0  0  0  0  0  0  0  0  0  0  0  0
   49.2736  160.1977   29.4377 H   0  0  0  0  0  0  0  0  0  0  0  0
   51.6050  159.8678   31.3846 H   0  0  0  0  0  0  0  0  0  0  0  0
   49.9808  159.0758   31.5589 H   0  0  0  0  0  0  0  0  0  0  0  0
   53.0606  159.3083   29.5267 H   0  0  0  0  0  0  0  0  0  0  0  0
   53.8728  157.5176   28.0126 H   0  0  0  0  0  0  0  0  0  0  0  0
   51.3024  151.5631   28.2222 H   0  0  0  0  0  0  0  0  0  0  0  0
   51.8626  149.5128   26.9119 H   0  0  0  0  0  0  0  0  0  0  0  0
   53.3122  149.6816   24.8866 H   0  0  0  0  0  0  0  0  0  0  0  0
   55.2710  151.7270   24.0230 H   0  0  0  0  0  0  0  0  0  0  0  0
   54.6630  156.9750   26.1980 H   0  0  0  0  0  0  0  0  0  0  0  0
   50.2048  155.3333   28.6361 H   0  0  0  0  0  0  0  0  0  0  0  0
   49.0954  157.0678   31.4106 H   0  0  0  0  0  0  0  0  0  0  0  0
   48.3445  157.8814   29.9961 H   0  0  0  0  0  0  0  0  0  0  0  0
   48.5611  156.0982   29.9961 H   0  0  0  0  0  0  0  0  0  0  0  0
  1  2  1  0
  2  3  1  0
  3  4  2  0
  4  5  1  0
  5  6  2  0
  6  7  1  0
  7  8  1  0
  8  9  1  0
  9 10  2  0
 10 11  1  0
 11 12  2  0
 12 13  1  0
 13 14  1  0
 13 15  2  0
 15 16  1  0
 16 17  2  0
 16 18  1  0
 18 19  1  0
  6 20  1  0
 20 21  2  0
 21 22  1  0
 21  3  1  0
 18  7  2  0
 15  9  1  0
  1 23  1  0
  1 24  1  0
  1 25  1  0
  2 26  1  0
  2 27  1  0
  4 28  1  0
  5 29  1  0
 10 30  1  0
 11 31  1  0
 12 32  1  0
 14 33  1  0
 19 34  1  0
 20 35  1  0
 22 36  1  0
 22 37  1  0
 22 38  1  0
M  END
>  <meeko>  (6) 
{"is_sidechain": [false], "free_energy": -8.036, "intermolecular_energy": -9.635, "internal_energy": -0.012}

$$$$
