cand_031_out
     RDKit          3D

 36 38  0  0  0  0  0  0  0  0999 V2000
   47.3580  159.6360   31.0110 C   0  0  0  0  0  0  0  0  0  0  0  0
   48.3800  158.8860   31.4400 C   0  0  0  0  0  0  0  0  0  0  0  0
   49.7160  158.9090   30.8240 C   0  0  0  0  0  0  0  0  0  0  0  0
   50.1820  157.7710   30.1400 C   0  0  0  0  0  0  0  0  0  0  0  0
   51.4620  157.7310   29.5660 C   0  0  0  0  0  0  0  0  0  0  0  0
   51.9000  156.5250   28.8300 C   0  0  0  0  0  0  0  0  0  0  0  0
   52.4780  156.8240   27.6020 O   0  0  0  0  0  0  0  0  0  0  0  0
   52.9280  155.7960   26.8120 C   0  0  0  0  0  0  0  0  0  0  0  0
   53.5130  156.1410   25.5940 C   0  0  0  0  0  0  0  0  0  0  0  0
   53.9910  155.1430   24.7420 C   0  0  0  0  0  0  0  0  0  0  0  0
   53.8830  153.8000   25.1090 C   0  0  0  0  0  0  0  0  0  0  0  0
   53.2980  153.4580   26.3250 C   0  0  0  0  0  0  0  0  0  0  0  0
   53.2240  152.1240   26.6210 O   0  0  0  0  0  0  0  0  0  0  0  0
   52.8210  154.4580   27.1770 C   0  0  0  0  0  0  0  0  0  0  0  0
   52.2000  154.1410   28.4650 C   0  0  0  0  0  0  0  0  0  0  0  0
   52.0630  152.9830   28.8540 O   0  0  0  0  0  0  0  0  0  0  0  0
   51.7330  155.2740   29.2960 C   0  0  0  0  0  0  0  0  0  0  0  0
   51.1350  154.9630   30.5040 O   0  0  0  0  0  0  0  0  0  0  0  0
   52.2780  158.8610   29.6810 C   0  0  0  0  0  0  0  0  0  0  0  0
   51.8340  159.9930   30.3660 C   0  0  0  0  0  0  0  0  0  0  0  0
   50.5560  160.0330   30.9430 C   0  0  0  0  0  0  0  0  0  0  0  0
   50.1220  161.2750   31.6740 C   0  0  0  0  0  0  0  0  0  0  0  0
   46.3816  159.5744   31.5137 H   0  0  0  0  0  0  0  0  0  0  0  0
   47.4944  160.3141   30.1556 H   0  0  0  0  0  0  0  0  0  0  0  0
   48.2125  158.2177   32.2976 H   0  0  0  0  0  0  0  0  0  0  0  0
   49.5271  156.8914   30.0531 H   0  0  0  0  0  0  0  0  0  0  0  0
   53.5979  157.1988   25.3044 H   0  0  0  0  0  0  0  0  0  0  0  0
   54.4528  155.4150   23.7814 H   0  0  0  0  0  0  0  0  0  0  0  0
   54.2596  153.0136   24.4383 H   0  0  0  0  0  0  0  0  0  0  0  0
   53.7950  151.7540   27.2660 H   0  0  0  0  0  0  0  0  0  0  0  0
   50.3770  155.4360   30.7860 H   0  0  0  0  0  0  0  0  0  0  0  0
   53.2799  158.8575   29.2269 H   0  0  0  0  0  0  0  0  0  0  0  0
   52.4961  160.8669   30.4548 H   0  0  0  0  0  0  0  0  0  0  0  0
   50.1824  161.1021   32.7586 H   0  0  0  0  0  0  0  0  0  0  0  0
   50.7811  162.1116   31.3988 H   0  0  0  0  0  0  0  0  0  0  0  0
   49.0853  161.5190   31.3988 H   0  0  0  0  0  0  0  0  0  0  0  0
  1  2  2  0
  2  3  1  0
  3  4  2  0
  4  5  1  0
  5  6  1  0
  6  7  1  0
  7  8  1  0
  8  9  2  0
  9 10  1  0
 10 11  2  0
 11 12  1  0
 12 13  1  0
 12 14  2  0
 14 15  1  0
 15 16  2  0
 15 17  1  0
 17 18  1  0
  5 19  2  0
 19 20  1  0
 20 21  2  0
 21 22  1  0
 21  3  1  0
 17  6  2  0
 14  8  1  0
  1 23  1  0
  1 24  1  0
  2 25  1  0
  4 26  1  0
  9 27  1  0
 10 28  1  0
 11 29  1  0
 13 30  1  0
 18 31  1  0
 19 32  1  0
 20 33  1  0
 22 34  1  0
 22 35  1  0
 22 36  1  0
M  END
>  <meeko>  (1) 
{"is_sidechain": [false], "free_energy": -11.456, "intermolecular_energy": -13.466, "internal_energy": 0.104}

$$$$
cand_031_out
     RDKit          3D

 36 38  0  0  0  0  0  0  0  0999 V2000
   54.0880  156.3010   25.1250 C   0  0  0  0  0  0  0  0  0  0  0  0
   53.3050  155.2730   25.4740 C   0  0  0  0  0  0  0  0  0  0  0  0
   52.6790  155.1440   26.7990 C   0  0  0  0  0  0  0  0  0  0  0  0
   52.3040  156.3040   27.5020 C   0  0  0  0  0  0  0  0  0  0  0  0
   51.7350  156.2350   28.7840 C   0  0  0  0  0  0  0  0  0  0  0  0
   51.3280  157.4770   29.4740 C   0  0  0  0  0  0  0  0  0  0  0  0
   49.9920  157.4680   29.8570 O   0  0  0  0  0  0  0  0  0  0  0  0
   49.4790  158.5610   30.5070 C   0  0  0  0  0  0  0  0  0  0  0  0
   48.1380  158.5040   30.8860 C   0  0  0  0  0  0  0  0  0  0  0  0
   47.5540  159.5850   31.5500 C   0  0  0  0  0  0  0  0  0  0  0  0
   48.3120  160.7220   31.8360 C   0  0  0  0  0  0  0  0  0  0  0  0
   49.6510  160.7770   31.4580 C   0  0  0  0  0  0  0  0  0  0  0  0
   50.3330  161.9210   31.7690 O   0  0  0  0  0  0  0  0  0  0  0  0
   50.2340  159.6950   30.7930 C   0  0  0  0  0  0  0  0  0  0  0  0
   51.6380  159.7120   30.3790 C   0  0  0  0  0  0  0  0  0  0  0  0
   52.3670  160.6790   30.5880 O   0  0  0  0  0  0  0  0  0  0  0  0
   52.1610  158.5120   29.6870 C   0  0  0  0  0  0  0  0  0  0  0  0
   53.4850  158.5440   29.2860 O   0  0  0  0  0  0  0  0  0  0  0  0
   51.5380  154.9750   29.3570 C   0  0  0  0  0  0  0  0  0  0  0  0
   51.9150  153.8160   28.6760 C   0  0  0  0  0  0  0  0  0  0  0  0
   52.4870  153.8840   27.3960 C   0  0  0  0  0  0  0  0  0  0  0  0
   52.8800  152.6070   26.7020 C   0  0  0  0  0  0  0  0  0  0  0  0
   54.5275  156.3403   24.1174 H   0  0  0  0  0  0  0  0  0  0  0  0
   54.2920  157.1065   25.8458 H   0  0  0  0  0  0  0  0  0  0  0  0
   53.1199  154.4832   24.7311 H   0  0  0  0  0  0  0  0  0  0  0  0
   52.4603  157.2882   27.0362 H   0  0  0  0  0  0  0  0  0  0  0  0
   47.5405  157.6080   30.6620 H   0  0  0  0  0  0  0  0  0  0  0  0
   46.4960  159.5406   31.8479 H   0  0  0  0  0  0  0  0  0  0  0  0
   47.8520  161.5733   32.3593 H   0  0  0  0  0  0  0  0  0  0  0  0
   50.3110  162.2580   32.6430 H   0  0  0  0  0  0  0  0  0  0  0  0
   53.8330  159.3150   28.8820 H   0  0  0  0  0  0  0  0  0  0  0  0
   51.0813  154.8960   30.3546 H   0  0  0  0  0  0  0  0  0  0  0  0
   51.7615  152.8351   29.1495 H   0  0  0  0  0  0  0  0  0  0  0  0
   53.1163  151.8391   27.4533 H   0  0  0  0  0  0  0  0  0  0  0  0
   52.0470  152.2603   26.0728 H   0  0  0  0  0  0  0  0  0  0  0  0
   53.7638  152.7886   26.0728 H   0  0  0  0  0  0  0  0  0  0  0  0
  1  2  2  0
  2  3  1  0
  3  4  2  0
  4  5  1  0
  5  6  1  0
  6  7  1  0
  7  8  1  0
  8  9  2  0
  9 10  1  0
 10 11  2  0
 11 12  1  0
 12 13  1  0
 12 14  2  0
 14 15  1  0
 15 16  2  0
 15 17  1  0
 17 18  1  0
  5 19  2  0
 19 20  1  0
 20 21  2  0
 21 22  1  0
 21  3  1  0
 17  6  2  0
 14  8  1  0
  1 23  1  0
  1 24  1  0
  2 25  1  0
  4 26  1  0
  9 27  1  0
 10 28  1  0
 11 29  1  0
 13 30  1  0
 18 31  1  0
 19 32  1  0
 20 33  1  0
 22 34  1  0
 22 35  1  0
 22 36  1  0
M  END
>  <meeko>  (2) 
{"is_sidechain": [false], "free_energy": -10.873, "intermolecular_energy": -12.425, "internal_energy": -0.25}

$$$$
cand_031_out
     RDKit          3D

 36 38  0  0  0  0  0  0  0  0999 V2000
   51.4850  161.4910   31.9000 C   0  0  0  0  0  0  0  0  0  0  0  0
   51.4910  160.8640   30.7160 C   0  0  0  0  0  0  0  0  0  0  0  0
   50.8170  159.5790   30.4770 C   0  0  0  0  0  0  0  0  0  0  0  0
   51.4920  158.5640   29.7750 C   0  0  0  0  0  0  0  0  0  0  0  0
   50.8800  157.3330   29.4910 C   0  0  0  0  0  0  0  0  0  0  0  0
   51.6370  156.2830   28.7770 C   0  0  0  0  0  0  0  0  0  0  0  0
   52.1580  156.7240   27.5650 O   0  0  0  0  0  0  0  0  0  0  0  0
   52.8830  155.8500   26.7970 C   0  0  0  0  0  0  0  0  0  0  0  0
   53.3980  156.3370   25.5950 C   0  0  0  0  0  0  0  0  0  0  0  0
   54.1440  155.4980   24.7660 C   0  0  0  0  0  0  0  0  0  0  0  0
   54.3750  154.1720   25.1360 C   0  0  0  0  0  0  0  0  0  0  0  0
   53.8590  153.6880   26.3360 C   0  0  0  0  0  0  0  0  0  0  0  0
   54.1230  152.3790   26.6360 O   0  0  0  0  0  0  0  0  0  0  0  0
   53.1130  154.5280   27.1660 C   0  0  0  0  0  0  0  0  0  0  0  0
   52.5540  154.0580   28.4350 C   0  0  0  0  0  0  0  0  0  0  0  0
   52.7070  152.9030   28.8260 O   0  0  0  0  0  0  0  0  0  0  0  0
   51.7840  155.0300   29.2440 C   0  0  0  0  0  0  0  0  0  0  0  0
   51.2480  154.5720   30.4340 O   0  0  0  0  0  0  0  0  0  0  0  0
   49.5680  157.1260   29.9300 C   0  0  0  0  0  0  0  0  0  0  0  0
   48.8810  158.1280   30.6190 C   0  0  0  0  0  0  0  0  0  0  0  0
   49.4910  159.3600   30.9000 C   0  0  0  0  0  0  0  0  0  0  0  0
   48.7100  160.4100   31.6430 C   0  0  0  0  0  0  0  0  0  0  0  0
   52.0083  162.4515   32.0164 H   0  0  0  0  0  0  0  0  0  0  0  0
   50.9567  161.0453   32.7557 H   0  0  0  0  0  0  0  0  0  0  0  0
   52.0279  161.3348   29.8793 H   0  0  0  0  0  0  0  0  0  0  0  0
   52.5251  158.7392   29.4403 H   0  0  0  0  0  0  0  0  0  0  0  0
   53.2161  157.3813   25.3011 H   0  0  0  0  0  0  0  0  0  0  0  0
   54.5508  155.8824   23.8190 H   0  0  0  0  0  0  0  0  0  0  0  0
   54.9628  153.5112   24.4819 H   0  0  0  0  0  0  0  0  0  0  0  0
   54.0970  152.0870   27.5260 H   0  0  0  0  0  0  0  0  0  0  0  0
   51.5260  153.7500   30.7880 H   0  0  0  0  0  0  0  0  0  0  0  0
   49.0724  156.1644   29.7306 H   0  0  0  0  0  0  0  0  0  0  0  0
   47.8462  157.9487   30.9463 H   0  0  0  0  0  0  0  0  0  0  0  0
   48.8253  160.2550   32.7259 H   0  0  0  0  0  0  0  0  0  0  0  0
   49.0875  161.4073   31.3731 H   0  0  0  0  0  0  0  0  0  0  0  0
   47.6462  160.3353   31.3731 H   0  0  0  0  0  0  0  0  0  0  0  0
  1  2  2  0
  2  3  1  0
  3  4  2  0
  4  5  1  0
  5  6  1  0
  6  7  1  0
  7  8  1  0
  8  9  2  0
  9 10  1  0
 10 11  2  0
 11 12  1  0
 12 13  1  0
 12 14  2  0
 14 15  1  0
 15 16  2  0
 15 17  1  0
 17 18  1  0
  5 19  2  0
 19 20  1  0
 20 21  2  0
 21 22  1  0
 21  3  1  0
 17  6  2  0
 14  8  1  0
  1 23  1  0
  1 24  1  0
  2 25  1  0
  4 26  1  0
  9 27  1  0
 10 28  1  0
 11 29  1  0
 13 30  1  0
 18 31  1  0
 19 32  1  0
 20 33  1  0
 22 34  1  0
 22 35  1  0
 22 36  1  0
M  END
>  <meeko>  (3) 
{"is_sidechain": [false], "free_energy": -10.418, "intermolecular_energy": -12.474, "internal_energy": 0.333}

$$$$
cand_031_out
     RDKit          3D

 36 38  0  0  0  0  0  0  0  0999 V2000
   51.6310  152.4070   28.0660 C   0  0  0  0  0  0  0  0  0  0  0  0
   51.9910  153.3890   28.9010 C   0  0  0  0  0  0  0  0  0  0  0  0
   52.2090  154.7790   28.4710 C   0  0  0  0  0  0  0  0  0  0  0  0
   51.6950  155.8330   29.2490 C   0  0  0  0  0  0  0  0  0  0  0  0
   51.8460  157.1740   28.8630 C   0  0  0  0  0  0  0  0  0  0  0  0
   51.3160  158.2510   29.7270 C   0  0  0  0  0  0  0  0  0  0  0  0
   49.9750  158.0740   30.0480 O   0  0  0  0  0  0  0  0  0  0  0  0
   49.3550  159.0030   30.8430 C   0  0  0  0  0  0  0  0  0  0  0  0
   48.0120  158.7790   31.1510 C   0  0  0  0  0  0  0  0  0  0  0  0
   47.3210  159.6870   31.9560 C   0  0  0  0  0  0  0  0  0  0  0  0
   47.9720  160.8190   32.4510 C   0  0  0  0  0  0  0  0  0  0  0  0
   49.3110  161.0400   32.1420 C   0  0  0  0  0  0  0  0  0  0  0  0
   49.8860  162.1680   32.6610 O   0  0  0  0  0  0  0  0  0  0  0  0
   50.0020  160.1310   31.3380 C   0  0  0  0  0  0  0  0  0  0  0  0
   51.4110  160.3260   30.9900 C   0  0  0  0  0  0  0  0  0  0  0  0
   52.0500  161.3000   31.3820 O   0  0  0  0  0  0  0  0  0  0  0  0
   52.0530  159.3000   30.1370 C   0  0  0  0  0  0  0  0  0  0  0  0
   53.3800  159.5010   29.8020 O   0  0  0  0  0  0  0  0  0  0  0  0
   52.5330  157.4510   27.6770 C   0  0  0  0  0  0  0  0  0  0  0  0
   53.0390  156.4160   26.8890 C   0  0  0  0  0  0  0  0  0  0  0  0
   52.8860  155.0750   27.2720 C   0  0  0  0  0  0  0  0  0  0  0  0
   53.4460  153.9930   26.3880 C   0  0  0  0  0  0  0  0  0  0  0  0
   51.4830  151.3864   28.4486 H   0  0  0  0  0  0  0  0  0  0  0  0
   51.4831  152.6205   26.9971 H   0  0  0  0  0  0  0  0  0  0  0  0
   52.1312  153.1441   29.9642 H   0  0  0  0  0  0  0  0  0  0  0  0
   51.1618  155.6002   30.1825 H   0  0  0  0  0  0  0  0  0  0  0  0
   47.4986  157.8882   30.7600 H   0  0  0  0  0  0  0  0  0  0  0  0
   46.2631  159.5105   32.2004 H   0  0  0  0  0  0  0  0  0  0  0  0
   47.4274  161.5349   33.0841 H   0  0  0  0  0  0  0  0  0  0  0  0
   50.1550  162.8620   32.0920 H   0  0  0  0  0  0  0  0  0  0  0  0
   53.9330  160.0080   30.3630 H   0  0  0  0  0  0  0  0  0  0  0  0
   52.6761  158.4951   27.3619 H   0  0  0  0  0  0  0  0  0  0  0  0
   53.5658  156.6554   25.9535 H   0  0  0  0  0  0  0  0  0  0  0  0
   53.8624  153.1885   27.0121 H   0  0  0  0  0  0  0  0  0  0  0  0
   52.6448  153.5871   25.7530 H   0  0  0  0  0  0  0  0  0  0  0  0
   54.2401  154.4127   25.7530 H   0  0  0  0  0  0  0  0  0  0  0  0
  1  2  2  0
  2  3  1  0
  3  4  2  0
  4  5  1  0
  5  6  1  0
  6  7  1  0
  7  8  1  0
  8  9  2  0
  9 10  1  0
 10 11  2  0
 11 12  1  0
 12 13  1  0
 12 14  2  0
 14 15  1  0
 15 16  2  0
 15 17  1  0
 17 18  1  0
  5 19  2  0
 19 20  1  0
 20 21  2  0
 21 22  1  0
 21  3  1  0
 17  6  2  0
 14  8  1  0
  1 23  1  0
  1 24  1  0
  2 25  1  0
  4 26  1  0
  9 27  1  0
 10 28  1  0
 11 29  1  0
 13 30  1  0
 18 31  1  0
 19 32  1  0
 20 33  1  0
 22 34  1  0
 22 35  1  0
 22 36  1  0
M  END
>  <meeko>  (4) 
{"is_sidechain": [false], "free_energy": -9.326, "intermolecular_energy": -11.278, "internal_energy": 0.421}

$$$$
cand_031_out
     RDKit          3D

 36 38  0  0  0  0  0  0  0  0999 V2000
   54.0810  156.6410   25.1010 C   0  0  0  0  0  0  0  0  0  0  0  0
   53.6960  155.4040   25.4410 C   0  0  0  0  0  0  0  0  0  0  0  0
   52.9900  155.0910   26.6920 C   0  0  0  0  0  0  0  0  0  0  0  0
   52.3610  156.1240   27.4090 C   0  0  0  0  0  0  0  0  0  0  0  0
   51.7050  155.8820   28.6260 C   0  0  0  0  0  0  0  0  0  0  0  0
   51.0310  156.9940   29.3320 C   0  0  0  0  0  0  0  0  0  0  0  0
   51.8860  158.0550   29.6070 O   0  0  0  0  0  0  0  0  0  0  0  0
   51.3900  159.1540   30.2610 C   0  0  0  0  0  0  0  0  0  0  0  0
   52.2790  160.2010   30.5050 C   0  0  0  0  0  0  0  0  0  0  0  0
   51.8400  161.3490   31.1670 C   0  0  0  0  0  0  0  0  0  0  0  0
   50.5110  161.4490   31.5860 C   0  0  0  0  0  0  0  0  0  0  0  0
   49.6260  160.4020   31.3420 C   0  0  0  0  0  0  0  0  0  0  0  0
   48.3410  160.5670   31.7800 O   0  0  0  0  0  0  0  0  0  0  0  0
   50.0670  159.2540   30.6780 C   0  0  0  0  0  0  0  0  0  0  0  0
   49.1690  158.1320   30.4010 C   0  0  0  0  0  0  0  0  0  0  0  0
   47.9880  158.1430   30.7450 O   0  0  0  0  0  0  0  0  0  0  0  0
   49.7330  156.9650   29.6860 C   0  0  0  0  0  0  0  0  0  0  0  0
   48.8800  155.9040   29.4430 O   0  0  0  0  0  0  0  0  0  0  0  0
   51.6800  154.5740   29.1190 C   0  0  0  0  0  0  0  0  0  0  0  0
   52.3100  153.5390   28.4250 C   0  0  0  0  0  0  0  0  0  0  0  0
   52.9690  153.7810   27.2100 C   0  0  0  0  0  0  0  0  0  0  0  0
   53.6350  152.6340   26.4990 C   0  0  0  0  0  0  0  0  0  0  0  0
   54.6065  156.8115   24.1498 H   0  0  0  0  0  0  0  0  0  0  0  0
   53.8717  157.4864   25.7730 H   0  0  0  0  0  0  0  0  0  0  0  0
   53.9197  154.5794   24.7482 H   0  0  0  0  0  0  0  0  0  0  0  0
   52.3836  157.1473   27.0061 H   0  0  0  0  0  0  0  0  0  0  0  0
   53.3256  160.1220   30.1759 H   0  0  0  0  0  0  0  0  0  0  0  0
   52.5407  162.1750   31.3588 H   0  0  0  0  0  0  0  0  0  0  0  0
   50.1643  162.3532   32.1077 H   0  0  0  0  0  0  0  0  0  0  0  0
   47.9500  161.4190   31.7820 H   0  0  0  0  0  0  0  0  0  0  0  0
   49.1980  155.1390   29.0050 H   0  0  0  0  0  0  0  0  0  0  0  0
   51.1587  154.3580   30.0632 H   0  0  0  0  0  0  0  0  0  0  0  0
   52.2894  152.5192   28.8367 H   0  0  0  0  0  0  0  0  0  0  0  0
   54.0433  151.9308   27.2398 H   0  0  0  0  0  0  0  0  0  0  0  0
   52.8975  152.1154   25.8687 H   0  0  0  0  0  0  0  0  0  0  0  0
   54.4510  153.0174   25.8687 H   0  0  0  0  0  0  0  0  0  0  0  0
  1  2  2  0
  2  3  1  0
  3  4  2  0
  4  5  1  0
  5  6  1  0
  6  7  1  0
  7  8  1  0
  8  9  2  0
  9 10  1  0
 10 11  2  0
 11 12  1  0
 12 13  1  0
 12 14  2  0
 14 15  1  0
 15 16  2  0
 15 17  1  0
 17 18  1  0
  5 19  2  0
 19 20  1  0
 20 21  2  0
 21 22  1  0
 21  3  1  0
 17  6  2  0
 14  8  1  0
  1 23  1  0
  1 24  1  0
  2 25  1  0
  4 26  1  0
  9 27  1  0
 10 28  1  0
 11 29  1  0
 13 30  1  0
 18 31  1  0
 19 32  1  0
 20 33  1  0
 22 34  1  0
 22 35  1  0
 22 36  1  0
M  END
>  <meeko>  (5) 
{"is_sidechain": [false], "free_energy": -9.096, "intermolecular_energy": -10.317, "internal_energy": -0.271}

$$$$
