cand_024_out
     RDKit          3D

 47 49  0  0  0  0  0  0  0  0999 V2000
   54.1590  152.2740   23.8660 C   0  0  0  0  0  0  0  0  0  0  0  0
   54.4510  151.6130   25.1400 N   0  0  0  0  0  0  0  0  0  0  0  0
   53.7560  150.3220   25.1890 C   0  0  0  0  0  0  0  0  0  0  0  0
   54.0480  152.4430   26.2930 C   0  0  0  0  0  0  0  0  0  0  0  0
   52.5570  152.8270   26.2710 C   0  0  0  0  0  0  0  0  0  0  0  0
   52.2920  154.1070   27.0430 C   0  0  0  0  0  0  0  0  0  0  0  0
   51.6610  154.0080   28.2950 C   0  0  0  0  0  0  0  0  0  0  0  0
   51.3790  155.1480   29.0490 C   0  0  0  0  0  0  0  0  0  0  0  0
   51.7240  156.4200   28.5810 C   0  0  0  0  0  0  0  0  0  0  0  0
   51.4000  157.6150   29.3890 C   0  0  0  0  0  0  0  0  0  0  0  0
   50.0830  157.6310   29.8300 O   0  0  0  0  0  0  0  0  0  0  0  0
   49.6520  158.6850   30.5930 C   0  0  0  0  0  0  0  0  0  0  0  0
   48.3180  158.6680   31.0020 C   0  0  0  0  0  0  0  0  0  0  0  0
   47.8150  159.7110   31.7830 C   0  0  0  0  0  0  0  0  0  0  0  0
   48.6450  160.7710   32.1530 C   0  0  0  0  0  0  0  0  0  0  0  0
   49.9760  160.7860   31.7440 C   0  0  0  0  0  0  0  0  0  0  0  0
   50.7330  161.8530   32.1420 O   0  0  0  0  0  0  0  0  0  0  0  0
   50.4780  159.7430   30.9620 C   0  0  0  0  0  0  0  0  0  0  0  0
   51.8710  159.7200   30.5100 C   0  0  0  0  0  0  0  0  0  0  0  0
   52.6640  160.6120   30.8010 O   0  0  0  0  0  0  0  0  0  0  0  0
   52.3010  158.5710   29.6800 C   0  0  0  0  0  0  0  0  0  0  0  0
   53.6220  158.5510   29.2690 O   0  0  0  0  0  0  0  0  0  0  0  0
   52.3410  156.5210   27.3260 C   0  0  0  0  0  0  0  0  0  0  0  0
   52.6330  155.3830   26.5440 C   0  0  0  0  0  0  0  0  0  0  0  0
   53.3210  155.5720   25.2090 C   0  0  0  0  0  0  0  0  0  0  0  0
   54.6240  155.1660   25.2010 F   0  0  0  0  0  0  0  0  0  0  0  0
   52.7150  154.8820   24.2030 F   0  0  0  0  0  0  0  0  0  0  0  0
   53.3480  156.8750   24.8070 F   0  0  0  0  0  0  0  0  0  0  0  0
   53.7214  153.2646   24.0587 H   0  0  0  0  0  0  0  0  0  0  0  0
   55.0897  152.3898   23.2912 H   0  0  0  0  0  0  0  0  0  0  0  0
   53.4466  151.6640   23.2912 H   0  0  0  0  0  0  0  0  0  0  0  0
   55.4590  151.4690   25.2010 H   0  0  0  0  0  0  0  0  0  0  0  0
   53.5987  150.0298   26.2378 H   0  0  0  0  0  0  0  0  0  0  0  0
   52.7832  150.4098   24.6830 H   0  0  0  0  0  0  0  0  0  0  0  0
   54.3649  149.5583   24.6830 H   0  0  0  0  0  0  0  0  0  0  0  0
   54.2509  151.8809   27.2165 H   0  0  0  0  0  0  0  0  0  0  0  0
   54.6273  153.3767   26.2426 H   0  0  0  0  0  0  0  0  0  0  0  0
   52.2416  152.9694   25.2269 H   0  0  0  0  0  0  0  0  0  0  0  0
   51.9884  152.0158   26.7492 H   0  0  0  0  0  0  0  0  0  0  0  0
   51.3854  153.0175   28.6862 H   0  0  0  0  0  0  0  0  0  0  0  0
   50.8792  155.0448   30.0235 H   0  0  0  0  0  0  0  0  0  0  0  0
   47.6631  157.8339   30.7096 H   0  0  0  0  0  0  0  0  0  0  0  0
   46.7639  159.6973   32.1069 H   0  0  0  0  0  0  0  0  0  0  0  0
   48.2481  161.5931   32.7667 H   0  0  0  0  0  0  0  0  0  0  0  0
   51.2830  162.2940   31.5240 H   0  0  0  0  0  0  0  0  0  0  0  0
   53.9130  157.8980   28.6620 H   0  0  0  0  0  0  0  0  0  0  0  0
   52.6052  157.5164   26.9396 H   0  0  0  0  0  0  0  0  0  0  0  0
  1  2  1  0
  2  3  1  0
  2  4  1  0
  4  5  1  0
  5  6  1  0
  6  7  2  0
  7  8  1  0
  8  9  2  0
  9 10  1  0
 10 11  1  0
 11 12  1  0
 12 13  2  0
 13 14  1  0
 14 15  2  0
 15 16  1  0
 16 17  1  0
 16 18  2  0
 18 19  1  0
 19 20  2  0
 19 21  1  0
 21 22  1  0
  9 23  1  0
 23 24  2  0
 24 25  1  0
 25 26  1  0
 25 27  1  0
 25 28  1  0
 24  6  1  0
 21 10  2  0
 18 12  1  0
  1 29  1  0
  1 30  1  0
  1 31  1  0
  2 32  1  0
  3 33  1  0
  3 34  1  0
  3 35  1  0
  4 36  1  0
  4 37  1  0
  5 38  1  0
  5 39  1  0
  7 40  1  0
  8 41  1  0
 13 42  1  0
 14 43  1  0
 15 44  1  0
 17 45  1  0
 22 46  1  0
 23 47  1  0
M  CHG  1   2   1
M  END
>  <meeko>  (1) 
{"is_sidechain": [false], "free_energy": -10.518, "intermolecular_energy": -14.207, "internal_energy": -0.129}

$$$$
cand_024_out
     RDKit          3D

 47 49  0  0  0  0  0  0  0  0999 V2000
   49.0540  161.2620   34.1990 C   0  0  0  0  0  0  0  0  0  0  0  0
   49.8630  161.8520   33.1280 N   0  0  0  0  0  0  0  0  0  0  0  0
   48.9780  162.4310   32.1130 C   0  0  0  0  0  0  0  0  0  0  0  0
   50.7560  160.8560   32.5050 C   0  0  0  0  0  0  0  0  0  0  0  0
   50.8130  160.9700   30.9700 C   0  0  0  0  0  0  0  0  0  0  0  0
   51.0700  159.6260   30.3130 C   0  0  0  0  0  0  0  0  0  0  0  0
   52.3740  159.3400   29.8740 C   0  0  0  0  0  0  0  0  0  0  0  0
   52.6730  158.1270   29.2520 C   0  0  0  0  0  0  0  0  0  0  0  0
   51.6810  157.1600   29.0550 C   0  0  0  0  0  0  0  0  0  0  0  0
   52.0160  155.8880   28.3790 C   0  0  0  0  0  0  0  0  0  0  0  0
   52.5100  156.0730   27.0930 O   0  0  0  0  0  0  0  0  0  0  0  0
   52.8620  154.9720   26.3550 C   0  0  0  0  0  0  0  0  0  0  0  0
   53.3390  155.2010   25.0630 C   0  0  0  0  0  0  0  0  0  0  0  0
   53.7170  154.1250   24.2590 C   0  0  0  0  0  0  0  0  0  0  0  0
   53.6160  152.8190   24.7440 C   0  0  0  0  0  0  0  0  0  0  0  0
   53.1400  152.5930   26.0320 C   0  0  0  0  0  0  0  0  0  0  0  0
   53.0670  151.2900   26.4440 O   0  0  0  0  0  0  0  0  0  0  0  0
   52.7610  153.6700   26.8370 C   0  0  0  0  0  0  0  0  0  0  0  0
   52.2550  153.4760   28.1970 C   0  0  0  0  0  0  0  0  0  0  0  0
   52.1450  152.3600   28.6980 O   0  0  0  0  0  0  0  0  0  0  0  0
   51.8750  154.6850   28.9640 C   0  0  0  0  0  0  0  0  0  0  0  0
   51.4110  154.4940   30.2530 O   0  0  0  0  0  0  0  0  0  0  0  0
   50.3770  157.4490   29.4800 C   0  0  0  0  0  0  0  0  0  0  0  0
   50.0510  158.6710   30.1090 C   0  0  0  0  0  0  0  0  0  0  0  0
   48.6240  158.9000   30.5590 C   0  0  0  0  0  0  0  0  0  0  0  0
   48.1490  160.1450   30.2650 F   0  0  0  0  0  0  0  0  0  0  0  0
   47.7460  158.0280   29.9900 F   0  0  0  0  0  0  0  0  0  0  0  0
   48.4660  158.7650   31.9070 F   0  0  0  0  0  0  0  0  0  0  0  0
   49.4638  161.5608   35.1751 H   0  0  0  0  0  0  0  0  0  0  0  0
   48.0164  161.6169   34.1127 H   0  0  0  0  0  0  0  0  0  0  0  0
   49.0749  160.1656   34.1127 H   0  0  0  0  0  0  0  0  0  0  0  0
   50.4490  162.5800   33.5370 H   0  0  0  0  0  0  0  0  0  0  0  0
   48.1557  162.9690   32.6073 H   0  0  0  0  0  0  0  0  0  0  0  0
   49.5488  163.1308   31.4850 H   0  0  0  0  0  0  0  0  0  0  0  0
   48.5654  161.6277   31.4850 H   0  0  0  0  0  0  0  0  0  0  0  0
   51.7711  160.9981   32.9043 H   0  0  0  0  0  0  0  0  0  0  0  0
   50.3540  159.8606   32.7447 H   0  0  0  0  0  0  0  0  0  0  0  0
   49.8532  161.3660   30.6067 H   0  0  0  0  0  0  0  0  0  0  0  0
   51.6433  161.6424   30.7082 H   0  0  0  0  0  0  0  0  0  0  0  0
   53.1710  160.0834   30.0229 H   0  0  0  0  0  0  0  0  0  0  0  0
   53.7004  157.9288   28.9127 H   0  0  0  0  0  0  0  0  0  0  0  0
   53.4168  156.2289   24.6791 H   0  0  0  0  0  0  0  0  0  0  0  0
   54.0950  154.3055   23.2419 H   0  0  0  0  0  0  0  0  0  0  0  0
   53.9121  151.9709   24.1092 H   0  0  0  0  0  0  0  0  0  0  0  0
   53.5410  150.6260   25.9830 H   0  0  0  0  0  0  0  0  0  0  0  0
   51.7830  154.9810   30.9620 H   0  0  0  0  0  0  0  0  0  0  0  0
   49.5849  156.7029   29.3191 H   0  0  0  0  0  0  0  0  0  0  0  0
  1  2  1  0
  2  3  1  0
  2  4  1  0
  4  5  1  0
  5  6  1  0
  6  7  2  0
  7  8  1  0
  8  9  2  0
  9 10  1  0
 10 11  1  0
 11 12  1  0
 12 13  2  0
 13 14  1  0
 14 15  2  0
 15 16  1  0
 16 17  1  0
 16 18  2  0
 18 19  1  0
 19 20  2  0
 19 21  1  0
 21 22  1  0
  9 23  1  0
 23 24  2  0
 24 25  1  0
 25 26  1  0
 25 27  1  0
 25 28  1  0
 24  6  1  0
 21 10  2  0
 18 12  1  0
  1 29  1  0
  1 30  1  0
  1 31  1  0
  2 32  1  0
  3 33  1  0
  3 34  1  0
  3 35  1  0
  4 36  1  0
  4 37  1  0
  5 38  1  0
  5 39  1  0
  7 40  1  0
  8 41  1  0
 13 42  1  0
 14 43  1  0
 15 44  1  0
 17 45  1  0
 22 46  1  0
 23 47  1  0
M  CHG  1   2   1
M  END
>  <meeko>  (2) 
{"is_sidechain": [false], "free_energy": -10.133, "intermolecular_energy": -13.322, "internal_energy": -0.494}

$$$$
cand_024_out
     RDKit          3D

 47 49  0  0  0  0  0  0  0  0999 V2000
   54.9570  161.9160   31.5860 C   0  0  0  0  0  0  0  0  0  0  0  0
   53.7310  161.7110   30.8110 N   0  0  0  0  0  0  0  0  0  0  0  0
   53.3390  162.9730   30.1760 C   0  0  0  0  0  0  0  0  0  0  0  0
   52.6280  161.2110   31.6540 C   0  0  0  0  0  0  0  0  0  0  0  0
   51.3770  160.8180   30.8460 C   0  0  0  0  0  0  0  0  0  0  0  0
   51.5340  159.4590   30.1870 C   0  0  0  0  0  0  0  0  0  0  0  0
   52.7980  159.1080   29.6850 C   0  0  0  0  0  0  0  0  0  0  0  0
   53.0060  157.8780   29.0570 C   0  0  0  0  0  0  0  0  0  0  0  0
   51.9600  156.9590   28.9190 C   0  0  0  0  0  0  0  0  0  0  0  0
   52.1970  155.6700   28.2360 C   0  0  0  0  0  0  0  0  0  0  0  0
   52.7610  155.8200   26.9760 O   0  0  0  0  0  0  0  0  0  0  0  0
   53.0350  154.6990   26.2340 C   0  0  0  0  0  0  0  0  0  0  0  0
   53.5880  154.8970   24.9680 C   0  0  0  0  0  0  0  0  0  0  0  0
   53.8920  153.7980   24.1620 C   0  0  0  0  0  0  0  0  0  0  0  0
   53.6440  152.5030   24.6210 C   0  0  0  0  0  0  0  0  0  0  0  0
   53.0930  152.3080   25.8850 C   0  0  0  0  0  0  0  0  0  0  0  0
   52.8760  151.0140   26.2720 O   0  0  0  0  0  0  0  0  0  0  0  0
   52.7870  153.4080   26.6910 C   0  0  0  0  0  0  0  0  0  0  0  0
   52.2070  153.2480   28.0250 C   0  0  0  0  0  0  0  0  0  0  0  0
   51.9660  152.1420   28.5030 O   0  0  0  0  0  0  0  0  0  0  0  0
   51.9150  154.4790   28.7960 C   0  0  0  0  0  0  0  0  0  0  0  0
   51.3790  154.3190   30.0610 O   0  0  0  0  0  0  0  0  0  0  0  0
   50.6940  157.3150   29.4080 C   0  0  0  0  0  0  0  0  0  0  0  0
   50.4600  158.5540   30.0420 C   0  0  0  0  0  0  0  0  0  0  0  0
   49.0720  158.8550   30.5630 C   0  0  0  0  0  0  0  0  0  0  0  0
   48.9890  158.8780   31.9250 F   0  0  0  0  0  0  0  0  0  0  0  0
   48.6060  160.0660   30.1470 F   0  0  0  0  0  0  0  0  0  0  0  0
   48.1450  157.9400   30.1620 F   0  0  0  0  0  0  0  0  0  0  0  0
   54.7227  161.8768   32.6600 H   0  0  0  0  0  0  0  0  0  0  0  0
   55.6826  161.1267   31.3400 H   0  0  0  0  0  0  0  0  0  0  0  0
   55.3864  162.8984   31.3400 H   0  0  0  0  0  0  0  0  0  0  0  0
   53.9190  161.0050   30.0980 H   0  0  0  0  0  0  0  0  0  0  0  0
   53.1077  163.7176   30.9520 H   0  0  0  0  0  0  0  0  0  0  0  0
   54.1653  163.3406   29.5498 H   0  0  0  0  0  0  0  0  0  0  0  0
   52.4499  162.8077   29.5498 H   0  0  0  0  0  0  0  0  0  0  0  0
   52.9815  160.3261   32.2036 H   0  0  0  0  0  0  0  0  0  0  0  0
   52.3370  162.0283   32.3302 H   0  0  0  0  0  0  0  0  0  0  0  0
   50.5110  160.7870   31.5235 H   0  0  0  0  0  0  0  0  0  0  0  0
   51.2331  161.5672   30.0535 H   0  0  0  0  0  0  0  0  0  0  0  0
   53.6366  159.8124   29.7880 H   0  0  0  0  0  0  0  0  0  0  0  0
   54.0037  157.6289   28.6664 H   0  0  0  0  0  0  0  0  0  0  0  0
   53.7840  155.9170   24.6057 H   0  0  0  0  0  0  0  0  0  0  0  0
   54.3276  153.9528   23.1638 H   0  0  0  0  0  0  0  0  0  0  0  0
   53.8835  151.6380   23.9851 H   0  0  0  0  0  0  0  0  0  0  0  0
   53.4270  150.3300   25.9480 H   0  0  0  0  0  0  0  0  0  0  0  0
   51.9260  154.0420   30.7700 H   0  0  0  0  0  0  0  0  0  0  0  0
   49.8594  156.6077   29.2939 H   0  0  0  0  0  0  0  0  0  0  0  0
  1  2  1  0
  2  3  1  0
  2  4  1  0
  4  5  1  0
  5  6  1  0
  6  7  2  0
  7  8  1  0
  8  9  2  0
  9 10  1  0
 10 11  1  0
 11 12  1  0
 12 13  2  0
 13 14  1  0
 14 15  2  0
 15 16  1  0
 16 17  1  0
 16 18  2  0
 18 19  1  0
 19 20  2  0
 19 21  1  0
 21 22  1  0
  9 23  1  0
 23 24  2  0
 24 25  1  0
 25 26  1  0
 25 27  1  0
 25 28  1  0
 24  6  1  0
 21 10  2  0
 18 12  1  0
  1 29  1  0
  1 30  1  0
  1 31  1  0
  2 32  1  0
  3 33  1  0
  3 34  1  0
  3 35  1  0
  4 36  1  0
  4 37  1  0
  5 38  1  0
  5 39  1  0
  7 40  1  0
  8 41  1  0
 13 42  1  0
 14 43  1  0
 15 44  1  0
 17 45  1  0
 22 46  1  0
 23 47  1  0
M  CHG  1   2   1
M  END
>  <meeko>  (3) 
{"is_sidechain": [false], "free_energy": -9.974, "intermolecular_energy": -13.445, "internal_energy": -0.158}

$$$$
cand_024_out
     RDKit          3D

 47 49  0  0  0  0  0  0  0  0999 V2000
   53.7920  149.9460   25.1200 C   0  0  0  0  0  0  0  0  0  0  0  0
   53.3360  151.3070   24.8240 N   0  0  0  0  0  0  0  0  0  0  0  0
   54.4590  152.0970   24.3100 C   0  0  0  0  0  0  0  0  0  0  0  0
   52.7640  151.9650   26.0150 C   0  0  0  0  0  0  0  0  0  0  0  0
   53.7740  152.8590   26.7570 C   0  0  0  0  0  0  0  0  0  0  0  0
   53.0990  154.0460   27.4210 C   0  0  0  0  0  0  0  0  0  0  0  0
   52.5880  153.8770   28.7190 C   0  0  0  0  0  0  0  0  0  0  0  0
   51.9460  154.9260   29.3800 C   0  0  0  0  0  0  0  0  0  0  0  0
   51.8000  156.1750   28.7680 C   0  0  0  0  0  0  0  0  0  0  0  0
   51.1020  157.2670   29.4800 C   0  0  0  0  0  0  0  0  0  0  0  0
   51.9290  158.3470   29.7590 O   0  0  0  0  0  0  0  0  0  0  0  0
   51.4040  159.4310   30.4150 C   0  0  0  0  0  0  0  0  0  0  0  0
   52.2730  160.4880   30.6880 C   0  0  0  0  0  0  0  0  0  0  0  0
   51.8020  161.6230   31.3530 C   0  0  0  0  0  0  0  0  0  0  0  0
   50.4640  161.7000   31.7440 C   0  0  0  0  0  0  0  0  0  0  0  0
   49.5990  160.6440   31.4700 C   0  0  0  0  0  0  0  0  0  0  0  0
   48.3020  160.7860   31.8810 O   0  0  0  0  0  0  0  0  0  0  0  0
   50.0700  159.5090   30.8060 C   0  0  0  0  0  0  0  0  0  0  0  0
   49.1940  158.3770   30.4990 C   0  0  0  0  0  0  0  0  0  0  0  0
   48.0040  158.3730   30.8040 O   0  0  0  0  0  0  0  0  0  0  0  0
   49.7950  157.2180   29.7980 C   0  0  0  0  0  0  0  0  0  0  0  0
   48.9570  156.1590   29.5000 O   0  0  0  0  0  0  0  0  0  0  0  0
   52.2970  156.3400   27.4670 C   0  0  0  0  0  0  0  0  0  0  0  0
   52.9470  155.2930   26.7780 C   0  0  0  0  0  0  0  0  0  0  0  0
   53.4760  155.5550   25.3850 C   0  0  0  0  0  0  0  0  0  0  0  0
   54.7890  155.2240   25.2250 F   0  0  0  0  0  0  0  0  0  0  0  0
   52.8020  154.8590   24.4280 F   0  0  0  0  0  0  0  0  0  0  0  0
   53.3890  156.8680   25.0240 F   0  0  0  0  0  0  0  0  0  0  0  0
   53.8395  149.8041   26.2098 H   0  0  0  0  0  0  0  0  0  0  0  0
   53.0877  149.2209   24.6862 H   0  0  0  0  0  0  0  0  0  0  0  0
   54.7910  149.7915   24.6862 H   0  0  0  0  0  0  0  0  0  0  0  0
   52.5990  151.2490   24.1200 H   0  0  0  0  0  0  0  0  0  0  0  0
   55.0372  152.5038   25.1527 H   0  0  0  0  0  0  0  0  0  0  0  0
   55.1079  151.4554   23.6958 H   0  0  0  0  0  0  0  0  0  0  0  0
   54.0744  152.9246   23.6958 H   0  0  0  0  0  0  0  0  0  0  0  0
   51.9143  152.5869   25.6968 H   0  0  0  0  0  0  0  0  0  0  0  0
   52.4565  151.1710   26.7114 H   0  0  0  0  0  0  0  0  0  0  0  0
   54.2793  152.2598   27.5288 H   0  0  0  0  0  0  0  0  0  0  0  0
   54.4936  153.2447   26.0198 H   0  0  0  0  0  0  0  0  0  0  0  0
   52.6953  152.9044   29.2215 H   0  0  0  0  0  0  0  0  0  0  0  0
   51.5503  154.7682   30.3942 H   0  0  0  0  0  0  0  0  0  0  0  0
   53.3273  160.4278   30.3801 H   0  0  0  0  0  0  0  0  0  0  0  0
   52.4862  162.4568   31.5687 H   0  0  0  0  0  0  0  0  0  0  0  0
   50.0937  162.5936   32.2678 H   0  0  0  0  0  0  0  0  0  0  0  0
   48.0650  160.5780   32.7630 H   0  0  0  0  0  0  0  0  0  0  0  0
   48.1510  156.3120   29.0460 H   0  0  0  0  0  0  0  0  0  0  0  0
   52.1769  157.3134   26.9689 H   0  0  0  0  0  0  0  0  0  0  0  0
  1  2  1  0
  2  3  1  0
  2  4  1  0
  4  5  1  0
  5  6  1  0
  6  7  2  0
  7  8  1  0
  8  9  2  0
  9 10  1  0
 10 11  1  0
 11 12  1  0
 12 13  2  0
 13 14  1  0
 14 15  2  0
 15 16  1  0
 16 17  1  0
 16 18  2  0
 18 19  1  0
 19 20  2  0
 19 21  1  0
 21 22  1  0
  9 23  1  0
 23 24  2  0
 24 25  1  0
 25 26  1  0
 25 27  1  0
 25 28  1  0
 24  6  1  0
 21 10  2  0
 18 12  1  0
  1 29  1  0
  1 30  1  0
  1 31  1  0
  2 32  1  0
  3 33  1  0
  3 34  1  0
  3 35  1  0
  4 36  1  0
  4 37  1  0
  5 38  1  0
  5 39  1  0
  7 40  1  0
  8 41  1  0
 13 42  1  0
 14 43  1  0
 15 44  1  0
 17 45  1  0
 22 46  1  0
 23 47  1  0
M  CHG  1   2   1
M  END
>  <meeko>  (4) 
{"is_sidechain": [false], "free_energy": -9.691, "intermolecular_energy": -12.512, "internal_energy": -0.708}

$$$$
cand_024_out
     RDKit          3D

 47 49  0  0  0  0  0  0  0  0999 V2000
   53.9830  152.3160   24.0560 C   0  0  0  0  0  0  0  0  0  0  0  0
   53.8360  153.7520   23.8060 N   0  0  0  0  0  0  0  0  0  0  0  0
   55.1590  154.3860   23.8170 C   0  0  0  0  0  0  0  0  0  0  0  0
   52.9640  154.3960   24.8070 C   0  0  0  0  0  0  0  0  0  0  0  0
   53.4470  154.1890   26.2550 C   0  0  0  0  0  0  0  0  0  0  0  0
   52.8790  155.2360   27.1950 C   0  0  0  0  0  0  0  0  0  0  0  0
   52.9800  156.5870   26.8210 C   0  0  0  0  0  0  0  0  0  0  0  0
   52.4880  157.6000   27.6470 C   0  0  0  0  0  0  0  0  0  0  0  0
   51.8760  157.2940   28.8670 C   0  0  0  0  0  0  0  0  0  0  0  0
   51.3770  158.3830   29.7340 C   0  0  0  0  0  0  0  0  0  0  0  0
   50.0400  158.2320   30.0780 O   0  0  0  0  0  0  0  0  0  0  0  0
   49.4520  159.1750   30.8830 C   0  0  0  0  0  0  0  0  0  0  0  0
   48.1030  158.9920   31.1910 C   0  0  0  0  0  0  0  0  0  0  0  0
   47.4450  159.9140   32.0070 C   0  0  0  0  0  0  0  0  0  0  0  0
   48.1340  161.0180   32.5140 C   0  0  0  0  0  0  0  0  0  0  0  0
   49.4790  161.1980   32.2050 C   0  0  0  0  0  0  0  0  0  0  0  0
   50.0930  162.2990   32.7350 O   0  0  0  0  0  0  0  0  0  0  0  0
   50.1380  160.2760   31.3880 C   0  0  0  0  0  0  0  0  0  0  0  0
   51.5520  160.4270   31.0380 C   0  0  0  0  0  0  0  0  0  0  0  0
   52.2270  161.3670   31.4510 O   0  0  0  0  0  0  0  0  0  0  0  0
   52.1530  159.3970   30.1600 C   0  0  0  0  0  0  0  0  0  0  0  0
   53.4920  159.5410   29.8460 O   0  0  0  0  0  0  0  0  0  0  0  0
   51.7870  155.9480   29.2480 C   0  0  0  0  0  0  0  0  0  0  0  0
   52.2810  154.9070   28.4310 C   0  0  0  0  0  0  0  0  0  0  0  0
   52.1290  153.4770   28.9010 C   0  0  0  0  0  0  0  0  0  0  0  0
   51.3850  152.7000   28.0620 F   0  0  0  0  0  0  0  0  0  0  0  0
   53.3240  152.8370   29.0300 F   0  0  0  0  0  0  0  0  0  0  0  0
   51.5180  153.3800   30.1160 F   0  0  0  0  0  0  0  0  0  0  0  0
   54.0018  152.1326   25.1404 H   0  0  0  0  0  0  0  0  0  0  0  0
   53.1353  151.7771   23.6076 H   0  0  0  0  0  0  0  0  0  0  0  0
   54.9223  151.9600   23.6076 H   0  0  0  0  0  0  0  0  0  0  0  0
   53.3990  153.8730   22.8920 H   0  0  0  0  0  0  0  0  0  0  0  0
   55.4826  154.5411   24.8568 H   0  0  0  0  0  0  0  0  0  0  0  0
   55.8813  153.7362   23.3012 H   0  0  0  0  0  0  0  0  0  0  0  0
   55.1050  155.3561   23.3012 H   0  0  0  0  0  0  0  0  0  0  0  0
   52.9322  155.4759   24.6000 H   0  0  0  0  0  0  0  0  0  0  0  0
   51.9710  153.9301   24.7237 H   0  0  0  0  0  0  0  0  0  0  0  0
   53.1287  153.1933   26.5974 H   0  0  0  0  0  0  0  0  0  0  0  0
   54.5432  154.2796   26.2654 H   0  0  0  0  0  0  0  0  0  0  0  0
   53.4535  156.8504   25.8637 H   0  0  0  0  0  0  0  0  0  0  0  0
   52.5828  158.6504   27.3346 H   0  0  0  0  0  0  0  0  0  0  0  0
   47.5594  158.1231   30.7916 H   0  0  0  0  0  0  0  0  0  0  0  0
   46.3820  159.7707   32.2511 H   0  0  0  0  0  0  0  0  0  0  0  0
   47.6144  161.7441   33.1565 H   0  0  0  0  0  0  0  0  0  0  0  0
   49.6960  162.7590   33.4490 H   0  0  0  0  0  0  0  0  0  0  0  0
   54.1310  158.9910   30.2560 H   0  0  0  0  0  0  0  0  0  0  0  0
   51.3190  155.6951   30.2108 H   0  0  0  0  0  0  0  0  0  0  0  0
  1  2  1  0
  2  3  1  0
  2  4  1  0
  4  5  1  0
  5  6  1  0
  6  7  2  0
  7  8  1  0
  8  9  2  0
  9 10  1  0
 10 11  1  0
 11 12  1  0
 12 13  2  0
 13 14  1  0
 14 15  2  0
 15 16  1  0
 16 17  1  0
 16 18  2  0
 18 19  1  0
 19 20  2  0
 19 21  1  0
 21 22  1  0
  9 23  1  0
 23 24  2  0
 24 25  1  0
 25 26  1  0
 25 27  1  0
 25 28  1  0
 24  6  1  0
 21 10  2  0
 18 12  1  0
  1 29  1  0
  1 30  1  0
  1 31  1  0
  2 32  1  0
  3 33  1  0
  3 34  1  0
  3 35  1  0
  4 36  1  0
  4 37  1  0
  5 38  1  0
  5 39  1  0
  7 40  1  0
  8 41  1  0
 13 42  1  0
 14 43  1  0
 15 44  1  0
 17 45  1  0
 22 46  1  0
 23 47  1  0
M  CHG  1   2   1
M  END
>  <meeko>  (5) 
{"is_sidechain": [false], "free_energy": -9.626, "intermolecular_energy": -12.612, "internal_energy": -0.52}

$$$$
cand_024_out
     RDKit          3D

 47 49  0  0  0  0  0  0  0  0999 V2000
   48.1070  161.7580   34.4170 C   0  0  0  0  0  0  0  0  0  0  0  0
   49.3980  161.3710   33.8420 N   0  0  0  0  0  0  0  0  0  0  0  0
   49.8930  162.4530   32.9840 C   0  0  0  0  0  0  0  0  0  0  0  0
   49.2990  160.1210   33.0640 C   0  0  0  0  0  0  0  0  0  0  0  0
   49.1690  160.3580   31.5480 C   0  0  0  0  0  0  0  0  0  0  0  0
   49.9270  159.3160   30.7460 C   0  0  0  0  0  0  0  0  0  0  0  0
   49.2660  158.1190   30.4220 C   0  0  0  0  0  0  0  0  0  0  0  0
   49.9100  157.1160   29.6960 C   0  0  0  0  0  0  0  0  0  0  0  0
   51.2310  157.2800   29.2650 C   0  0  0  0  0  0  0  0  0  0  0  0
   51.9000  156.1990   28.5120 C   0  0  0  0  0  0  0  0  0  0  0  0
   52.4530  156.6340   27.3140 O   0  0  0  0  0  0  0  0  0  0  0  0
   53.1070  155.7290   26.5180 C   0  0  0  0  0  0  0  0  0  0  0  0
   53.6340  156.2060   25.3170 C   0  0  0  0  0  0  0  0  0  0  0  0
   54.3130  155.3370   24.4600 C   0  0  0  0  0  0  0  0  0  0  0  0
   54.4640  153.9920   24.8040 C   0  0  0  0  0  0  0  0  0  0  0  0
   53.9380  153.5190   26.0030 C   0  0  0  0  0  0  0  0  0  0  0  0
   54.1220  152.1910   26.2770 O   0  0  0  0  0  0  0  0  0  0  0  0
   53.2580  154.3880   26.8590 C   0  0  0  0  0  0  0  0  0  0  0  0
   52.6890  153.9310   28.1280 C   0  0  0  0  0  0  0  0  0  0  0  0
   52.7870  152.7660   28.5040 O   0  0  0  0  0  0  0  0  0  0  0  0
   51.9810  154.9320   28.9600 C   0  0  0  0  0  0  0  0  0  0  0  0
   51.4580  154.4950   30.1640 O   0  0  0  0  0  0  0  0  0  0  0  0
   51.8960  158.4690   29.5990 C   0  0  0  0  0  0  0  0  0  0  0  0
   51.2650  159.4950   30.3360 C   0  0  0  0  0  0  0  0  0  0  0  0
   52.0420  160.7580   30.6390 C   0  0  0  0  0  0  0  0  0  0  0  0
   51.4330  161.8970   30.1990 F   0  0  0  0  0  0  0  0  0  0  0  0
   52.2460  160.9420   31.9730 F   0  0  0  0  0  0  0  0  0  0  0  0
   53.2800  160.7690   30.0660 F   0  0  0  0  0  0  0  0  0  0  0  0
   48.1738  161.7380   35.5148 H   0  0  0  0  0  0  0  0  0  0  0  0
   47.8469  162.7736   34.0839 H   0  0  0  0  0  0  0  0  0  0  0  0
   47.3311  161.0529   34.0839 H   0  0  0  0  0  0  0  0  0  0  0  0
   50.0520  161.2070   34.6080 H   0  0  0  0  0  0  0  0  0  0  0  0
   50.2691  163.2751   33.6107 H   0  0  0  0  0  0  0  0  0  0  0  0
   50.7073  162.0740   32.3489 H   0  0  0  0  0  0  0  0  0  0  0  0
   49.0738  162.8213   32.3489 H   0  0  0  0  0  0  0  0  0  0  0  0
   50.2033  159.5224   33.2479 H   0  0  0  0  0  0  0  0  0  0  0  0
   48.3861  159.6029   33.3931 H   0  0  0  0  0  0  0  0  0  0  0  0
   48.1052  160.3154   31.2712 H   0  0  0  0  0  0  0  0  0  0  0  0
   49.5989  161.3442   31.3187 H   0  0  0  0  0  0  0  0  0  0  0  0
   48.2252  157.9703   30.7455 H   0  0  0  0  0  0  0  0  0  0  0  0
   49.3727  156.1856   29.4599 H   0  0  0  0  0  0  0  0  0  0  0  0
   53.5147  157.2653   25.0456 H   0  0  0  0  0  0  0  0  0  0  0  0
   54.7291  155.7123   23.5134 H   0  0  0  0  0  0  0  0  0  0  0  0
   54.9978  153.3073   24.1285 H   0  0  0  0  0  0  0  0  0  0  0  0
   53.7530  151.8180   27.0530 H   0  0  0  0  0  0  0  0  0  0  0  0
   51.6680  153.6390   30.4830 H   0  0  0  0  0  0  0  0  0  0  0  0
   52.9390  158.6061   29.2776 H   0  0  0  0  0  0  0  0  0  0  0  0
  1  2  1  0
  2  3  1  0
  2  4  1  0
  4  5  1  0
  5  6  1  0
  6  7  2  0
  7  8  1  0
  8  9  2  0
  9 10  1  0
 10 11  1  0
 11 12  1  0
 12 13  2  0
 13 14  1  0
 14 15  2  0
 15 16  1  0
 16 17  1  0
 16 18  2  0
 18 19  1  0
 19 20  2  0
 19 21  1  0
 21 22  1  0
  9 23  1  0
 23 24  2  0
 24 25  1  0
 25 26  1  0
 25 27  1  0
 25 28  1  0
 24  6  1  0
 21 10  2  0
 18 12  1  0
  1 29  1  0
  1 30  1  0
  1 31  1  0
  2 32  1  0
  3 33  1  0
  3 34  1  0
  3 35  1  0
  4 36  1  0
  4 37  1  0
  5 38  1  0
  5 39  1  0
  7 40  1  0
  8 41  1  0
 13 42  1  0
 14 43  1  0
 15 44  1  0
 17 45  1  0
 22 46  1  0
 23 47  1  0
M  CHG  1   2   1
M  END
>  <meeko>  (6) 
{"is_sidechain": [false], "free_energy": -9.528, "intermolecular_energy": -12.576, "internal_energy": -0.424}

$$$$
cand_024_out
     RDKit          3D

 47 49  0  0  0  0  0  0  0  0999 V2000
   53.9970  151.9580   24.4730 C   0  0  0  0  0  0  0  0  0  0  0  0
   53.6950  153.2950   23.9560 N   0  0  0  0  0  0  0  0  0  0  0  0
   54.9450  153.9720   23.5960 C   0  0  0  0  0  0  0  0  0  0  0  0
   52.9510  154.1070   24.9400 C   0  0  0  0  0  0  0  0  0  0  0  0
   53.7680  154.4240   26.2060 C   0  0  0  0  0  0  0  0  0  0  0  0
   53.0070  155.3270   27.1590 C   0  0  0  0  0  0  0  0  0  0  0  0
   53.0200  156.7110   26.9150 C   0  0  0  0  0  0  0  0  0  0  0  0
   52.3480  157.5960   27.7600 C   0  0  0  0  0  0  0  0  0  0  0  0
   51.6390  157.1270   28.8700 C   0  0  0  0  0  0  0  0  0  0  0  0
   50.9490  158.0830   29.7620 C   0  0  0  0  0  0  0  0  0  0  0  0
   51.7310  159.1870   30.0810 O   0  0  0  0  0  0  0  0  0  0  0  0
   51.2080  160.1540   30.9010 C   0  0  0  0  0  0  0  0  0  0  0  0
   52.0320  161.2380   31.2070 C   0  0  0  0  0  0  0  0  0  0  0  0
   51.5620  162.2580   32.0350 C   0  0  0  0  0  0  0  0  0  0  0  0
   50.2690  162.1950   32.5580 C   0  0  0  0  0  0  0  0  0  0  0  0
   49.4480  161.1130   32.2510 C   0  0  0  0  0  0  0  0  0  0  0  0
   48.1940  161.1140   32.7960 O   0  0  0  0  0  0  0  0  0  0  0  0
   49.9200  160.0910   31.4230 C   0  0  0  0  0  0  0  0  0  0  0  0
   49.0900  158.9360   31.0760 C   0  0  0  0  0  0  0  0  0  0  0  0
   47.9400  158.8120   31.4900 O   0  0  0  0  0  0  0  0  0  0  0  0
   49.6870  157.9050   30.1950 C   0  0  0  0  0  0  0  0  0  0  0  0
   48.8930  156.8240   29.8610 O   0  0  0  0  0  0  0  0  0  0  0  0
   51.6370  155.7470   29.1230 C   0  0  0  0  0  0  0  0  0  0  0  0
   52.3110  154.8340   28.2840 C   0  0  0  0  0  0  0  0  0  0  0  0
   52.2440  153.3580   28.6110 C   0  0  0  0  0  0  0  0  0  0  0  0
   51.6630  152.6050   27.6320 F   0  0  0  0  0  0  0  0  0  0  0  0
   53.4740  152.8090   28.8160 F   0  0  0  0  0  0  0  0  0  0  0  0
   51.5240  153.0970   29.7390 F   0  0  0  0  0  0  0  0  0  0  0  0
   53.9919  151.9804   25.5728 H   0  0  0  0  0  0  0  0  0  0  0  0
   53.2368  151.2470   24.1172 H   0  0  0  0  0  0  0  0  0  0  0  0
   54.9890  151.6427   24.1172 H   0  0  0  0  0  0  0  0  0  0  0  0
   53.1030  153.1910   23.1310 H   0  0  0  0  0  0  0  0  0  0  0  0
   55.4814  154.2625   24.5113 H   0  0  0  0  0  0  0  0  0  0  0  0
   55.5733  153.2909   23.0033 H   0  0  0  0  0  0  0  0  0  0  0  0
   54.7179  154.8704   23.0033 H   0  0  0  0  0  0  0  0  0  0  0  0
   52.6621  155.0555   24.4637 H   0  0  0  0  0  0  0  0  0  0  0  0
   52.0759  153.5192   25.2542 H   0  0  0  0  0  0  0  0  0  0  0  0
   54.0048  153.4817   26.7217 H   0  0  0  0  0  0  0  0  0  0  0  0
   54.6845  154.9485   25.8979 H   0  0  0  0  0  0  0  0  0  0  0  0
   53.5678  157.1027   26.0453 H   0  0  0  0  0  0  0  0  0  0  0  0
   52.3767  158.6754   27.5500 H   0  0  0  0  0  0  0  0  0  0  0  0
   53.0510  161.2882   30.7958 H   0  0  0  0  0  0  0  0  0  0  0  0
   52.2110  163.1128   32.2760 H   0  0  0  0  0  0  0  0  0  0  0  0
   49.8994  162.9989   33.2116 H   0  0  0  0  0  0  0  0  0  0  0  0
   47.8510  161.8970   33.1810 H   0  0  0  0  0  0  0  0  0  0  0  0
   49.2470  155.9560   29.8880 H   0  0  0  0  0  0  0  0  0  0  0  0
   51.0944  155.3656   30.0006 H   0  0  0  0  0  0  0  0  0  0  0  0
  1  2  1  0
  2  3  1  0
  2  4  1  0
  4  5  1  0
  5  6  1  0
  6  7  2  0
  7  8  1  0
  8  9  2  0
  9 10  1  0
 10 11  1  0
 11 12  1  0
 12 13  2  0
 13 14  1  0
 14 15  2  0
 15 16  1  0
 16 17  1  0
 16 18  2  0
 18 19  1  0
 19 20  2  0
 19 21  1  0
 21 22  1  0
  9 23  1  0
 23 24  2  0
 24 25  1  0
 25 26  1  0
 25 27  1  0
 25 28  1  0
 24  6  1  0
 21 10  2  0
 18 12  1  0
  1 29  1  0
  1 30  1  0
  1 31  1  0
  2 32  1  0
  3 33  1  0
  3 34  1  0
  3 35  1  0
  4 36  1  0
  4 37  1  0
  5 38  1  0
  5 39  1  0
  7 40  1  0
  8 41  1  0
 13 42  1  0
 14 43  1  0
 15 44  1  0
 17 45  1  0
 22 46  1  0
 23 47  1  0
M  CHG  1   2   1
M  END
>  <meeko>  (7) 
{"is_sidechain": [false], "free_energy": -8.757, "intermolecular_energy": -11.485, "internal_energy": -0.472}

$$$$
cand_024_out
     RDKit          3D

 47 49  0  0  0  0  0  0  0  0999 V2000
   48.4160  161.4270   30.6480 C   0  0  0  0  0  0  0  0  0  0  0  0
   47.9380  160.2150   31.3190 N   0  0  0  0  0  0  0  0  0  0  0  0
   48.6030  160.0830   32.6190 C   0  0  0  0  0  0  0  0  0  0  0  0
   48.1810  159.0070   30.5070 C   0  0  0  0  0  0  0  0  0  0  0  0
   49.1650  158.0220   31.1650 C   0  0  0  0  0  0  0  0  0  0  0  0
   50.0330  157.3190   30.1370 C   0  0  0  0  0  0  0  0  0  0  0  0
   49.6440  156.0410   29.7040 C   0  0  0  0  0  0  0  0  0  0  0  0
   50.4050  155.3360   28.7690 C   0  0  0  0  0  0  0  0  0  0  0  0
   51.5730  155.8900   28.2340 C   0  0  0  0  0  0  0  0  0  0  0  0
   52.3740  155.1200   27.2580 C   0  0  0  0  0  0  0  0  0  0  0  0
   52.0910  153.7600   27.2790 O   0  0  0  0  0  0  0  0  0  0  0  0
   52.7640  152.9300   26.4180 C   0  0  0  0  0  0  0  0  0  0  0  0
   52.4590  151.5690   26.4830 C   0  0  0  0  0  0  0  0  0  0  0  0
   53.1070  150.6700   25.6340 C   0  0  0  0  0  0  0  0  0  0  0  0
   54.0590  151.1300   24.7220 C   0  0  0  0  0  0  0  0  0  0  0  0
   54.3600  152.4880   24.6590 C   0  0  0  0  0  0  0  0  0  0  0  0
   55.3020  152.8700   23.7430 O   0  0  0  0  0  0  0  0  0  0  0  0
   53.7130  153.3880   25.5100 C   0  0  0  0  0  0  0  0  0  0  0  0
   54.0010  154.8230   25.4770 C   0  0  0  0  0  0  0  0  0  0  0  0
   54.8190  155.3050   24.6980 O   0  0  0  0  0  0  0  0  0  0  0  0
   53.2630  155.6900   26.4250 C   0  0  0  0  0  0  0  0  0  0  0  0
   53.5310  157.0460   26.3780 O   0  0  0  0  0  0  0  0  0  0  0  0
   51.9700  157.1600   28.6770 C   0  0  0  0  0  0  0  0  0  0  0  0
   51.2180  157.8890   29.6230 C   0  0  0  0  0  0  0  0  0  0  0  0
   51.7000  159.2630   30.0350 C   0  0  0  0  0  0  0  0  0  0  0  0
   51.5570  159.5190   31.3680 F   0  0  0  0  0  0  0  0  0  0  0  0
   53.0200  159.4600   29.7630 F   0  0  0  0  0  0  0  0  0  0  0  0
   51.0330  160.2700   29.4020 F   0  0  0  0  0  0  0  0  0  0  0  0
   48.7098  162.1720   31.4021 H   0  0  0  0  0  0  0  0  0  0  0  0
   49.2840  161.1799   30.0191 H   0  0  0  0  0  0  0  0  0  0  0  0
   47.6130  161.8389   30.0191 H   0  0  0  0  0  0  0  0  0  0  0  0
   46.9290  160.3020   31.4500 H   0  0  0  0  0  0  0  0  0  0  0  0
   47.8674  160.2290   33.4237 H   0  0  0  0  0  0  0  0  0  0  0  0
   49.0454  159.0795   32.7043 H   0  0  0  0  0  0  0  0  0  0  0  0
   49.3952  160.8414   32.7043 H   0  0  0  0  0  0  0  0  0  0  0  0
   47.2218  158.4915   30.3514 H   0  0  0  0  0  0  0  0  0  0  0  0
   48.6319  159.3355   29.5590 H   0  0  0  0  0  0  0  0  0  0  0  0
   49.8137  158.5771   31.8586 H   0  0  0  0  0  0  0  0  0  0  0  0
   48.5789  157.2579   31.6966 H   0  0  0  0  0  0  0  0  0  0  0  0
   48.7261  155.5884   30.1073 H   0  0  0  0  0  0  0  0  0  0  0  0
   50.0825  154.3340   28.4496 H   0  0  0  0  0  0  0  0  0  0  0  0
   51.7096  151.2059   27.2017 H   0  0  0  0  0  0  0  0  0  0  0  0
   52.8672  149.5976   25.6836 H   0  0  0  0  0  0  0  0  0  0  0  0
   54.5703  150.4208   24.0545 H   0  0  0  0  0  0  0  0  0  0  0  0
   56.2110  152.7250   23.9170 H   0  0  0  0  0  0  0  0  0  0  0  0
   53.6020  157.4810   25.5510 H   0  0  0  0  0  0  0  0  0  0  0  0
   52.8944  157.6008   28.2755 H   0  0  0  0  0  0  0  0  0  0  0  0
  1  2  1  0
  2  3  1  0
  2  4  1  0
  4  5  1  0
  5  6  1  0
  6  7  2  0
  7  8  1  0
  8  9  2  0
  9 10  1  0
 10 11  1  0
 11 12  1  0
 12 13  2  0
 13 14  1  0
 14 15  2  0
 15 16  1  0
 16 17  1  0
 16 18  2  0
 18 19  1  0
 19 20  2  0
 19 21  1  0
 21 22  1  0
  9 23  1  0
 23 24  2  0
 24 25  1  0
 25 26  1  0
 25 27  1  0
 25 28  1  0
 24  6  1  0
 21 10  2  0
 18 12  1  0
  1 29  1  0
  1 30  1  0
  1 31  1  0
  2 32  1  0
  3 33  1  0
  3 34  1  0
  3 35  1  0
  4 36  1  0
  4 37  1  0
  5 38  1  0
  5 39  1  0
  7 40  1  0
  8 41  1  0
 13 42  1  0
 14 43  1  0
 15 44  1  0
 17 45  1  0
 22 46  1  0
 23 47  1  0
M  CHG  1   2   1
M  END
>  <meeko>  (8) 
{"is_sidechain": [false], "free_energy": -8.746, "intermolecular_energy": -11.802, "internal_energy": -0.141}

$$$$
