cand_050_out
     RDKit          3D

 38 40  0  0  0  0  0  0  0  0999 V2000
   50.0290  161.1840   33.0630 C   0  0  0  0  0  0  0  0  0  0  0  0
   50.1630  161.3940   31.5610 C   0  0  0  0  0  0  0  0  0  0  0  0
   50.5630  160.1230   30.8440 C   0  0  0  0  0  0  0  0  0  0  0  0
   51.9130  159.9600   30.4870 C   0  0  0  0  0  0  0  0  0  0  0  0
   52.3460  158.8140   29.8160 C   0  0  0  0  0  0  0  0  0  0  0  0
   51.4470  157.7960   29.4850 C   0  0  0  0  0  0  0  0  0  0  0  0
   51.9230  156.6010   28.7580 C   0  0  0  0  0  0  0  0  0  0  0  0
   52.5350  156.9100   27.5480 O   0  0  0  0  0  0  0  0  0  0  0  0
   53.0220  155.8890   26.7730 C   0  0  0  0  0  0  0  0  0  0  0  0
   53.6150  156.2430   25.5600 C   0  0  0  0  0  0  0  0  0  0  0  0
   54.1340  155.2520   24.7230 C   0  0  0  0  0  0  0  0  0  0  0  0
   54.0620  153.9100   25.1000 C   0  0  0  0  0  0  0  0  0  0  0  0
   53.4700  153.5590   26.3100 C   0  0  0  0  0  0  0  0  0  0  0  0
   53.4320  152.2260   26.6170 O   0  0  0  0  0  0  0  0  0  0  0  0
   52.9490  154.5510   27.1470 C   0  0  0  0  0  0  0  0  0  0  0  0
   52.3200  154.2250   28.4270 C   0  0  0  0  0  0  0  0  0  0  0  0
   52.2240  153.0690   28.8320 O   0  0  0  0  0  0  0  0  0  0  0  0
   51.7930  155.3490   29.2350 C   0  0  0  0  0  0  0  0  0  0  0  0
   51.2110  155.0350   30.4500 O   0  0  0  0  0  0  0  0  0  0  0  0
   50.0970  157.9640   29.8260 C   0  0  0  0  0  0  0  0  0  0  0  0
   49.6360  159.1150   30.5020 C   0  0  0  0  0  0  0  0  0  0  0  0
   48.1670  159.2150   30.8530 C   0  0  0  0  0  0  0  0  0  0  0  0
   47.6680  160.4820   30.7600 F   0  0  0  0  0  0  0  0  0  0  0  0
   47.8960  158.8140   32.1270 F   0  0  0  0  0  0  0  0  0  0  0  0
   47.3820  158.4520   30.0430 F   0  0  0  0  0  0  0  0  0  0  0  0
   50.5471  161.9959   33.5944 H   0  0  0  0  0  0  0  0  0  0  0  0
   48.9644  161.1853   33.3399 H   0  0  0  0  0  0  0  0  0  0  0  0
   50.4787  160.2191   33.3399 H   0  0  0  0  0  0  0  0  0  0  0  0
   49.1967  161.7372   31.1629 H   0  0  0  0  0  0  0  0  0  0  0  0
   50.9516  162.1420   31.3917 H   0  0  0  0  0  0  0  0  0  0  0  0
   52.6391  160.7467   30.7399 H   0  0  0  0  0  0  0  0  0  0  0  0
   53.4071  158.7113   29.5448 H   0  0  0  0  0  0  0  0  0  0  0  0
   53.6736  157.3007   25.2635 H   0  0  0  0  0  0  0  0  0  0  0  0
   54.5998  155.5296   23.7660 H   0  0  0  0  0  0  0  0  0  0  0  0
   54.4727  153.1304   24.4415 H   0  0  0  0  0  0  0  0  0  0  0  0
   52.6120  151.8070   26.7840 H   0  0  0  0  0  0  0  0  0  0  0  0
   50.8070  154.1990   30.5730 H   0  0  0  0  0  0  0  0  0  0  0  0
   49.3766  157.1767   29.5593 H   0  0  0  0  0  0  0  0  0  0  0  0
  1  2  1  0
  2  3  1  0
  3  4  2  0
  4  5  1  0
  5  6  2  0
  6  7  1  0
  7  8  1  0
  8  9  1  0
  9 10  2  0
 10 11  1  0
 11 12  2  0
 12 13  1  0
 13 14  1  0
 13 15  2  0
 15 16  1  0
 16 17  2  0
 16 18  1  0
 18 19  1  0
  6 20  1  0
 20 21  2  0
 21 22  1  0
 22 23  1  0
 22 24  1  0
 22 25  1  0
 21  3  1  0
 18  7  2  0
 15  9  1  0
  1 26  1  0
  1 27  1  0
  1 28  1  0
  2 29  1  0
  2 30  1  0
  4 31  1  0
  5 32  1  0
 10 33  1  0
 11 34  1  0
 12 35  1  0
 14 36  1  0
 19 37  1  0
 20 38  1  0
M  END
>  <meeko>  (1) 
{"is_sidechain": [false], "free_energy": -10.797, "intermolecular_energy": -13.322, "internal_energy": -0.345}

$$$$
cand_050_out
     RDKit          3D

 38 40  0  0  0  0  0  0  0  0999 V2000
   47.4250  159.8600   31.7000 C   0  0  0  0  0  0  0  0  0  0  0  0
   48.9050  160.2160   31.6700 C   0  0  0  0  0  0  0  0  0  0  0  0
   49.7100  159.2200   30.8630 C   0  0  0  0  0  0  0  0  0  0  0  0
   49.1040  158.0000   30.5180 C   0  0  0  0  0  0  0  0  0  0  0  0
   49.7960  157.0350   29.7830 C   0  0  0  0  0  0  0  0  0  0  0  0
   51.1110  157.2610   29.3670 C   0  0  0  0  0  0  0  0  0  0  0  0
   51.8320  156.2180   28.6060 C   0  0  0  0  0  0  0  0  0  0  0  0
   52.3490  156.6860   27.4030 O   0  0  0  0  0  0  0  0  0  0  0  0
   53.0410  155.8180   26.5980 C   0  0  0  0  0  0  0  0  0  0  0  0
   53.5290  156.3250   25.3930 C   0  0  0  0  0  0  0  0  0  0  0  0
   54.2460  155.4950   24.5270 C   0  0  0  0  0  0  0  0  0  0  0  0
   54.4740  154.1610   24.8670 C   0  0  0  0  0  0  0  0  0  0  0  0
   53.9860  153.6570   26.0690 C   0  0  0  0  0  0  0  0  0  0  0  0
   54.2450  152.3410   26.3390 O   0  0  0  0  0  0  0  0  0  0  0  0
   53.2680  154.4870   26.9350 C   0  0  0  0  0  0  0  0  0  0  0  0
   52.7380  153.9980   28.2080 C   0  0  0  0  0  0  0  0  0  0  0  0
   52.9030  152.8380   28.5810 O   0  0  0  0  0  0  0  0  0  0  0  0
   51.9850  154.9570   29.0490 C   0  0  0  0  0  0  0  0  0  0  0  0
   51.4990  154.4910   30.2570 O   0  0  0  0  0  0  0  0  0  0  0  0
   51.7240  158.4710   29.7250 C   0  0  0  0  0  0  0  0  0  0  0  0
   51.0450  159.4590   30.4690 C   0  0  0  0  0  0  0  0  0  0  0  0
   51.7670  160.7470   30.8010 C   0  0  0  0  0  0  0  0  0  0  0  0
   53.0750  160.7570   30.4140 F   0  0  0  0  0  0  0  0  0  0  0  0
   51.7840  161.0180   32.1360 F   0  0  0  0  0  0  0  0  0  0  0  0
   51.2010  161.8340   30.2040 F   0  0  0  0  0  0  0  0  0  0  0  0
   47.0884  159.7790   32.7441 H   0  0  0  0  0  0  0  0  0  0  0  0
   46.8486  160.6451   31.1888 H   0  0  0  0  0  0  0  0  0  0  0  0
   47.2687  158.8986   31.1888 H   0  0  0  0  0  0  0  0  0  0  0  0
   49.0216  161.2137   31.2216 H   0  0  0  0  0  0  0  0  0  0  0  0
   49.2803  160.1990   32.7039 H   0  0  0  0  0  0  0  0  0  0  0  0
   48.0685  157.8020   30.8317 H   0  0  0  0  0  0  0  0  0  0  0  0
   49.3005  156.0864   29.5286 H   0  0  0  0  0  0  0  0  0  0  0  0
   53.3495  157.3767   25.1251 H   0  0  0  0  0  0  0  0  0  0  0  0
   54.6309  155.8935   23.5767 H   0  0  0  0  0  0  0  0  0  0  0  0
   55.0391  153.5082   24.1854 H   0  0  0  0  0  0  0  0  0  0  0  0
   55.1240  152.0590   26.4960 H   0  0  0  0  0  0  0  0  0  0  0  0
   50.9790  155.0510   30.7990 H   0  0  0  0  0  0  0  0  0  0  0  0
   52.7638  158.6548   29.4168 H   0  0  0  0  0  0  0  0  0  0  0  0
  1  2  1  0
  2  3  1  0
  3  4  2  0
  4  5  1  0
  5  6  2  0
  6  7  1  0
  7  8  1  0
  8  9  1  0
  9 10  2  0
 10 11  1  0
 11 12  2  0
 12 13  1  0
 13 14  1  0
 13 15  2  0
 15 16  1  0
 16 17  2  0
 16 18  1  0
 18 19  1  0
  6 20  1  0
 20 21  2  0
 21 22  1  0
 22 23  1  0
 22 24  1  0
 22 25  1  0
 21  3  1  0
 18  7  2  0
 15  9  1  0
  1 26  1  0
  1 27  1  0
  1 28  1  0
  2 29  1  0
  2 30  1  0
  4 31  1  0
  5 32  1  0
 10 33  1  0
 11 34  1  0
 12 35  1  0
 14 36  1  0
 19 37  1  0
 20 38  1  0
M  END
>  <meeko>  (2) 
{"is_sidechain": [false], "free_energy": -10.762, "intermolecular_energy": -13.21, "internal_energy": -0.413}

$$$$
cand_050_out
     RDKit          3D

 38 40  0  0  0  0  0  0  0  0999 V2000
   52.0560  151.5860   26.6900 C   0  0  0  0  0  0  0  0  0  0  0  0
   53.1550  152.6330   26.5750 C   0  0  0  0  0  0  0  0  0  0  0  0
   52.7730  153.9320   27.2500 C   0  0  0  0  0  0  0  0  0  0  0  0
   52.1840  153.8700   28.5240 C   0  0  0  0  0  0  0  0  0  0  0  0
   51.8000  155.0320   29.1970 C   0  0  0  0  0  0  0  0  0  0  0  0
   51.9950  156.2900   28.6200 C   0  0  0  0  0  0  0  0  0  0  0  0
   51.5640  157.5060   29.3410 C   0  0  0  0  0  0  0  0  0  0  0  0
   50.2320  157.4590   29.7370 O   0  0  0  0  0  0  0  0  0  0  0  0
   49.7040  158.5270   30.4160 C   0  0  0  0  0  0  0  0  0  0  0  0
   48.3600  158.4430   30.7800 C   0  0  0  0  0  0  0  0  0  0  0  0
   47.7600  159.4960   31.4770 C   0  0  0  0  0  0  0  0  0  0  0  0
   48.5050  160.6280   31.8090 C   0  0  0  0  0  0  0  0  0  0  0  0
   49.8470  160.7090   31.4450 C   0  0  0  0  0  0  0  0  0  0  0  0
   50.5170  161.8480   31.8020 O   0  0  0  0  0  0  0  0  0  0  0  0
   50.4460  159.6570   30.7470 C   0  0  0  0  0  0  0  0  0  0  0  0
   51.8520  159.7010   30.3450 C   0  0  0  0  0  0  0  0  0  0  0  0
   52.5750  160.6600   30.6060 O   0  0  0  0  0  0  0  0  0  0  0  0
   52.3890  158.5380   29.6020 C   0  0  0  0  0  0  0  0  0  0  0  0
   53.7220  158.5810   29.2370 O   0  0  0  0  0  0  0  0  0  0  0  0
   52.5670  156.3540   27.3410 C   0  0  0  0  0  0  0  0  0  0  0  0
   52.9610  155.1920   26.6420 C   0  0  0  0  0  0  0  0  0  0  0  0
   53.5890  155.3430   25.2720 C   0  0  0  0  0  0  0  0  0  0  0  0
   54.8570  154.8460   25.1940 F   0  0  0  0  0  0  0  0  0  0  0  0
   53.6850  156.6420   24.8720 F   0  0  0  0  0  0  0  0  0  0  0  0
   52.8840  154.7010   24.2990 F   0  0  0  0  0  0  0  0  0  0  0  0
   51.8480  151.3879   27.7518 H   0  0  0  0  0  0  0  0  0  0  0  0
   51.1434  151.9571   26.2006 H   0  0  0  0  0  0  0  0  0  0  0  0
   52.3824  150.6565   26.2006 H   0  0  0  0  0  0  0  0  0  0  0  0
   54.0684  152.2425   27.0474 H   0  0  0  0  0  0  0  0  0  0  0  0
   53.3168  152.8399   25.5068 H   0  0  0  0  0  0  0  0  0  0  0  0
   52.0228  152.8910   28.9988 H   0  0  0  0  0  0  0  0  0  0  0  0
   51.3387  154.9562   30.1927 H   0  0  0  0  0  0  0  0  0  0  0  0
   47.7733  157.5498   30.5191 H   0  0  0  0  0  0  0  0  0  0  0  0
   46.7000  159.4320   31.7638 H   0  0  0  0  0  0  0  0  0  0  0  0
   48.0328  161.4561   32.3579 H   0  0  0  0  0  0  0  0  0  0  0  0
   51.3360  162.0550   31.3980 H   0  0  0  0  0  0  0  0  0  0  0  0
   54.1080  159.3920   28.9720 H   0  0  0  0  0  0  0  0  0  0  0  0
   52.7128  157.3369   26.8692 H   0  0  0  0  0  0  0  0  0  0  0  0
  1  2  1  0
  2  3  1  0
  3  4  2  0
  4  5  1  0
  5  6  2  0
  6  7  1  0
  7  8  1  0
  8  9  1  0
  9 10  2  0
 10 11  1  0
 11 12  2  0
 12 13  1  0
 13 14  1  0
 13 15  2  0
 15 16  1  0
 16 17  2  0
 16 18  1  0
 18 19  1  0
  6 20  1  0
 20 21  2  0
 21 22  1  0
 22 23  1  0
 22 24  1  0
 22 25  1  0
 21  3  1  0
 18  7  2  0
 15  9  1  0
  1 26  1  0
  1 27  1  0
  1 28  1  0
  2 29  1  0
  2 30  1  0
  4 31  1  0
  5 32  1  0
 10 33  1  0
 11 34  1  0
 12 35  1  0
 14 36  1  0
 19 37  1  0
 20 38  1  0
M  END
>  <meeko>  (3) 
{"is_sidechain": [false], "free_energy": -10.684, "intermolecular_energy": -13.044, "internal_energy": -0.484}

$$$$
cand_050_out
     RDKit          3D

 38 40  0  0  0  0  0  0  0  0999 V2000
   52.6110  151.7130   26.0090 C   0  0  0  0  0  0  0  0  0  0  0  0
   53.6610  152.6860   26.5250 C   0  0  0  0  0  0  0  0  0  0  0  0
   53.0380  153.8780   27.2190 C   0  0  0  0  0  0  0  0  0  0  0  0
   52.5000  153.6900   28.5040 C   0  0  0  0  0  0  0  0  0  0  0  0
   51.9030  154.7460   29.1960 C   0  0  0  0  0  0  0  0  0  0  0  0
   51.8280  156.0210   28.6270 C   0  0  0  0  0  0  0  0  0  0  0  0
   51.1750  157.1210   29.3690 C   0  0  0  0  0  0  0  0  0  0  0  0
   52.0380  158.1740   29.6470 O   0  0  0  0  0  0  0  0  0  0  0  0
   51.5580  159.2610   30.3320 C   0  0  0  0  0  0  0  0  0  0  0  0
   52.4620  160.2880   30.6030 C   0  0  0  0  0  0  0  0  0  0  0  0
   52.0380  161.4250   31.2960 C   0  0  0  0  0  0  0  0  0  0  0  0
   50.7110  161.5340   31.7150 C   0  0  0  0  0  0  0  0  0  0  0  0
   49.8100  160.5070   31.4430 C   0  0  0  0  0  0  0  0  0  0  0  0
   48.5260  160.6780   31.8840 O   0  0  0  0  0  0  0  0  0  0  0  0
   50.2350  159.3690   30.7510 C   0  0  0  0  0  0  0  0  0  0  0  0
   49.3220  158.2680   30.4460 C   0  0  0  0  0  0  0  0  0  0  0  0
   48.1380  158.2910   30.7750 O   0  0  0  0  0  0  0  0  0  0  0  0
   49.8740  157.1040   29.7150 C   0  0  0  0  0  0  0  0  0  0  0  0
   49.0020  156.0730   29.4180 O   0  0  0  0  0  0  0  0  0  0  0  0
   52.3490  156.2060   27.3390 C   0  0  0  0  0  0  0  0  0  0  0  0
   52.9550  155.1530   26.6200 C   0  0  0  0  0  0  0  0  0  0  0  0
   53.5120  155.4360   25.2410 C   0  0  0  0  0  0  0  0  0  0  0  0
   52.9370  154.6870   24.2550 F   0  0  0  0  0  0  0  0  0  0  0  0
   54.8490  155.1900   25.1470 F   0  0  0  0  0  0  0  0  0  0  0  0
   53.3410  156.7330   24.8630 F   0  0  0  0  0  0  0  0  0  0  0  0
   52.1000  151.2395   26.8603 H   0  0  0  0  0  0  0  0  0  0  0  0
   51.8765  152.2568   25.3968 H   0  0  0  0  0  0  0  0  0  0  0  0
   53.0974  150.9393   25.3968 H   0  0  0  0  0  0  0  0  0  0  0  0
   54.3121  152.1600   27.2387 H   0  0  0  0  0  0  0  0  0  0  0  0
   54.2336  153.0567   25.6620 H   0  0  0  0  0  0  0  0  0  0  0  0
   52.5500  152.6957   28.9718 H   0  0  0  0  0  0  0  0  0  0  0  0
   51.4873  154.5728   30.1996 H   0  0  0  0  0  0  0  0  0  0  0  0
   53.5075  160.2030   30.2716 H   0  0  0  0  0  0  0  0  0  0  0  0
   52.7506  162.2348   31.5115 H   0  0  0  0  0  0  0  0  0  0  0  0
   50.3772  162.4297   32.2593 H   0  0  0  0  0  0  0  0  0  0  0  0
   48.2270  160.2210   32.6440 H   0  0  0  0  0  0  0  0  0  0  0  0
   48.3490  156.1880   28.7560 H   0  0  0  0  0  0  0  0  0  0  0  0
   52.2838  157.2011   26.8747 H   0  0  0  0  0  0  0  0  0  0  0  0
  1  2  1  0
  2  3  1  0
  3  4  2  0
  4  5  1  0
  5  6  2  0
  6  7  1  0
  7  8  1  0
  8  9  1  0
  9 10  2  0
 10 11  1  0
 11 12  2  0
 12 13  1  0
 13 14  1  0
 13 15  2  0
 15 16  1  0
 16 17  2  0
 16 18  1  0
 18 19  1  0
  6 20  1  0
 20 21  2  0
 21 22  1  0
 22 23  1  0
 22 24  1  0
 22 25  1  0
 21  3  1  0
 18  7  2  0
 15  9  1  0
  1 26  1  0
  1 27  1  0
  1 28  1  0
  2 29  1  0
  2 30  1  0
  4 31  1  0
  5 32  1  0
 10 33  1  0
 11 34  1  0
 12 35  1  0
 14 36  1  0
 19 37  1  0
 20 38  1  0
M  END
>  <meeko>  (4) 
{"is_sidechain": [false], "free_energy": -9.776, "intermolecular_energy": -11.82, "internal_energy": -0.587}

$$$$
cand_050_out
     RDKit          3D

 38 40  0  0  0  0  0  0  0  0999 V2000
   54.0620  154.9020   24.9080 C   0  0  0  0  0  0  0  0  0  0  0  0
   53.4310  154.2550   26.1320 C   0  0  0  0  0  0  0  0  0  0  0  0
   52.8840  155.2840   27.0980 C   0  0  0  0  0  0  0  0  0  0  0  0
   52.9730  156.6410   26.7430 C   0  0  0  0  0  0  0  0  0  0  0  0
   52.4960  157.6400   27.5940 C   0  0  0  0  0  0  0  0  0  0  0  0
   51.9110  157.3150   28.8220 C   0  0  0  0  0  0  0  0  0  0  0  0
   51.4290  158.3890   29.7150 C   0  0  0  0  0  0  0  0  0  0  0  0
   50.0940  158.2360   30.0750 O   0  0  0  0  0  0  0  0  0  0  0  0
   49.5210  159.1680   30.9020 C   0  0  0  0  0  0  0  0  0  0  0  0
   48.1760  158.9840   31.2260 C   0  0  0  0  0  0  0  0  0  0  0  0
   47.5310  159.8940   32.0670 C   0  0  0  0  0  0  0  0  0  0  0  0
   48.2310  160.9860   32.5830 C   0  0  0  0  0  0  0  0  0  0  0  0
   49.5730  161.1670   32.2590 C   0  0  0  0  0  0  0  0  0  0  0  0
   50.1970  162.2580   32.8000 O   0  0  0  0  0  0  0  0  0  0  0  0
   50.2180  160.2570   31.4170 C   0  0  0  0  0  0  0  0  0  0  0  0
   51.6260  160.4100   31.0510 C   0  0  0  0  0  0  0  0  0  0  0  0
   52.3110  161.3400   31.4710 O   0  0  0  0  0  0  0  0  0  0  0  0
   52.2130  159.3950   30.1470 C   0  0  0  0  0  0  0  0  0  0  0  0
   53.5470  159.5390   29.8170 O   0  0  0  0  0  0  0  0  0  0  0  0
   51.8360  155.9630   29.1850 C   0  0  0  0  0  0  0  0  0  0  0  0
   52.3140  154.9360   28.3420 C   0  0  0  0  0  0  0  0  0  0  0  0
   52.1810  153.4980   28.7960 C   0  0  0  0  0  0  0  0  0  0  0  0
   51.4670  152.7160   27.9340 F   0  0  0  0  0  0  0  0  0  0  0  0
   51.5510  153.3760   29.9980 F   0  0  0  0  0  0  0  0  0  0  0  0
   53.3860  152.8800   28.9390 F   0  0  0  0  0  0  0  0  0  0  0  0
   54.7966  155.6552   25.2290 H   0  0  0  0  0  0  0  0  0  0  0  0
   54.5658  154.1322   24.3050 H   0  0  0  0  0  0  0  0  0  0  0  0
   53.2798  155.3864   24.3050 H   0  0  0  0  0  0  0  0  0  0  0  0
   52.6082  153.6025   25.8045 H   0  0  0  0  0  0  0  0  0  0  0  0
   54.2109  153.6803   26.6530 H   0  0  0  0  0  0  0  0  0  0  0  0
   53.4254  156.9203   25.7800 H   0  0  0  0  0  0  0  0  0  0  0  0
   52.5814  158.6951   27.2950 H   0  0  0  0  0  0  0  0  0  0  0  0
   47.6245  158.1234   30.8196 H   0  0  0  0  0  0  0  0  0  0  0  0
   46.4709  159.7500   32.3228 H   0  0  0  0  0  0  0  0  0  0  0  0
   47.7229  161.7027   33.2449 H   0  0  0  0  0  0  0  0  0  0  0  0
   50.8200  162.1470   33.4900 H   0  0  0  0  0  0  0  0  0  0  0  0
   54.0520  158.7890   29.5700 H   0  0  0  0  0  0  0  0  0  0  0  0
   51.3918  155.6944   30.1548 H   0  0  0  0  0  0  0  0  0  0  0  0
  1  2  1  0
  2  3  1  0
  3  4  2  0
  4  5  1  0
  5  6  2  0
  6  7  1  0
  7  8  1  0
  8  9  1  0
  9 10  2  0
 10 11  1  0
 11 12  2  0
 12 13  1  0
 13 14  1  0
 13 15  2  0
 15 16  1  0
 16 17  2  0
 16 18  1  0
 18 19  1  0
  6 20  1  0
 20 21  2  0
 21 22  1  0
 22 23  1  0
 22 24  1  0
 22 25  1  0
 21  3  1  0
 18  7  2  0
 15  9  1  0
  1 26  1  0
  1 27  1  0
  1 28  1  0
  2 29  1  0
  2 30  1  0
  4 31  1  0
  5 32  1  0
 10 33  1  0
 11 34  1  0
 12 35  1  0
 14 36  1  0
 19 37  1  0
 20 38  1  0
M  END
>  <meeko>  (5) 
{"is_sidechain": [false], "free_energy": -9.163, "intermolecular_energy": -11.22, "internal_energy": -0.431}

$$$$
cand_050_out
     RDKit          3D

 38 40  0  0  0  0  0  0  0  0999 V2000
   47.7390  159.4840   30.8640 C   0  0  0  0  0  0  0  0  0  0  0  0
   48.8960  158.7650   31.5440 C   0  0  0  0  0  0  0  0  0  0  0  0
   49.7360  157.9840   30.5570 C   0  0  0  0  0  0  0  0  0  0  0  0
   49.3010  156.7000   30.1860 C   0  0  0  0  0  0  0  0  0  0  0  0
   50.0360  155.9230   29.2870 C   0  0  0  0  0  0  0  0  0  0  0  0
   51.2230  156.4070   28.7290 C   0  0  0  0  0  0  0  0  0  0  0  0
   51.9950  155.5610   27.7940 C   0  0  0  0  0  0  0  0  0  0  0  0
   51.6420  154.2170   27.8610 O   0  0  0  0  0  0  0  0  0  0  0  0
   52.2850  153.3230   27.0440 C   0  0  0  0  0  0  0  0  0  0  0  0
   51.9110  151.9830   27.1550 C   0  0  0  0  0  0  0  0  0  0  0  0
   52.5240  151.0200   26.3500 C   0  0  0  0  0  0  0  0  0  0  0  0
   53.5080  151.3970   25.4350 C   0  0  0  0  0  0  0  0  0  0  0  0
   53.8790  152.7340   25.3250 C   0  0  0  0  0  0  0  0  0  0  0  0
   54.8500  153.0340   24.4090 O   0  0  0  0  0  0  0  0  0  0  0  0
   53.2660  153.6980   26.1320 C   0  0  0  0  0  0  0  0  0  0  0  0
   53.6270  155.1140   26.0490 C   0  0  0  0  0  0  0  0  0  0  0  0
   54.4780  155.5250   25.2640 O   0  0  0  0  0  0  0  0  0  0  0  0
   52.9240  156.0520   26.9530 C   0  0  0  0  0  0  0  0  0  0  0  0
   53.2600  157.3900   26.8590 O   0  0  0  0  0  0  0  0  0  0  0  0
   51.6670  157.6810   29.1110 C   0  0  0  0  0  0  0  0  0  0  0  0
   50.9430  158.4820   30.0190 C   0  0  0  0  0  0  0  0  0  0  0  0
   51.4770  159.8550   30.3680 C   0  0  0  0  0  0  0  0  0  0  0  0
   52.7710  160.0530   29.9850 F   0  0  0  0  0  0  0  0  0  0  0  0
   51.4560  160.1080   31.7070 F   0  0  0  0  0  0  0  0  0  0  0  0
   50.7640  160.8580   29.7840 F   0  0  0  0  0  0  0  0  0  0  0  0
   47.0669  159.9016   31.6281 H   0  0  0  0  0  0  0  0  0  0  0  0
   48.1311  160.2978   30.2363 H   0  0  0  0  0  0  0  0  0  0  0  0
   47.1830  158.7721   30.2363 H   0  0  0  0  0  0  0  0  0  0  0  0
   49.5339  159.5101   32.0419 H   0  0  0  0  0  0  0  0  0  0  0  0
   48.4748  158.0537   32.2697 H   0  0  0  0  0  0  0  0  0  0  0  0
   48.3677  156.3008   30.6099 H   0  0  0  0  0  0  0  0  0  0  0  0
   49.6768  154.9194   29.0153 H   0  0  0  0  0  0  0  0  0  0  0  0
   51.1347  151.6857   27.8753 H   0  0  0  0  0  0  0  0  0  0  0  0
   52.2308  149.9634   26.4374 H   0  0  0  0  0  0  0  0  0  0  0  0
   53.9900  150.6381   24.8012 H   0  0  0  0  0  0  0  0  0  0  0  0
   54.7540  153.7800   23.8520 H   0  0  0  0  0  0  0  0  0  0  0  0
   53.5860  157.7360   26.0520 H   0  0  0  0  0  0  0  0  0  0  0  0
   52.6072  158.0671   28.6904 H   0  0  0  0  0  0  0  0  0  0  0  0
  1  2  1  0
  2  3  1  0
  3  4  2  0
  4  5  1  0
  5  6  2  0
  6  7  1  0
  7  8  1  0
  8  9  1  0
  9 10  2  0
 10 11  1  0
 11 12  2  0
 12 13  1  0
 13 14  1  0
 13 15  2  0
 15 16  1  0
 16 17  2  0
 16 18  1  0
 18 19  1  0
  6 20  1  0
 20 21  2  0
 21 22  1  0
 22 23  1  0
 22 24  1  0
 22 25  1  0
 21  3  1  0
 18  7  2  0
 15  9  1  0
  1 26  1  0
  1 27  1  0
  1 28  1  0
  2 29  1  0
  2 30  1  0
  4 31  1  0
  5 32  1  0
 10 33  1  0
 11 34  1  0
 12 35  1  0
 14 36  1  0
 19 37  1  0
 20 38  1  0
M  END
>  <meeko>  (6) 
{"is_sidechain": [false], "free_energy": -8.576, "intermolecular_energy": -10.822, "internal_energy": -0.105}

$$$$
cand_050_out
     RDKit          3D

 38 40  0  0  0  0  0  0  0  0999 V2000
   54.8740  155.0220   24.5130 C   0  0  0  0  0  0  0  0  0  0  0  0
   53.9880  154.1840   25.4230 C   0  0  0  0  0  0  0  0  0  0  0  0
   53.2580  155.0330   26.4420 C   0  0  0  0  0  0  0  0  0  0  0  0
   53.3980  156.4290   26.3640 C   0  0  0  0  0  0  0  0  0  0  0  0
   52.7590  157.2690   27.2790 C   0  0  0  0  0  0  0  0  0  0  0  0
   51.9570  156.7400   28.2950 C   0  0  0  0  0  0  0  0  0  0  0  0
   51.3040  157.6450   29.2640 C   0  0  0  0  0  0  0  0  0  0  0  0
   52.0570  158.7830   29.5360 O   0  0  0  0  0  0  0  0  0  0  0  0
   51.5640  159.7070   30.4210 C   0  0  0  0  0  0  0  0  0  0  0  0
   52.3580  160.8250   30.6760 C   0  0  0  0  0  0  0  0  0  0  0  0
   51.9150  161.8070   31.5660 C   0  0  0  0  0  0  0  0  0  0  0  0
   50.6780  161.6690   32.1980 C   0  0  0  0  0  0  0  0  0  0  0  0
   49.8870  160.5530   31.9420 C   0  0  0  0  0  0  0  0  0  0  0  0
   48.6870  160.4820   32.5960 O   0  0  0  0  0  0  0  0  0  0  0  0
   50.3310  159.5700   31.0520 C   0  0  0  0  0  0  0  0  0  0  0  0
   49.5320  158.3820   30.7560 C   0  0  0  0  0  0  0  0  0  0  0  0
   48.4300  158.1920   31.2670 O   0  0  0  0  0  0  0  0  0  0  0  0
   50.0970  157.3970   29.8050 C   0  0  0  0  0  0  0  0  0  0  0  0
   49.3290  156.2830   29.5190 O   0  0  0  0  0  0  0  0  0  0  0  0
   51.8290  155.3460   28.3840 C   0  0  0  0  0  0  0  0  0  0  0  0
   52.4680  154.4790   27.4720 C   0  0  0  0  0  0  0  0  0  0  0  0
   52.2670  152.9860   27.6220 C   0  0  0  0  0  0  0  0  0  0  0  0
   51.4360  152.4480   26.6820 F   0  0  0  0  0  0  0  0  0  0  0  0
   51.7230  152.6410   28.8230 F   0  0  0  0  0  0  0  0  0  0  0  0
   53.4330  152.2880   27.5230 F   0  0  0  0  0  0  0  0  0  0  0  0
   55.5381  155.6501   25.1249 H   0  0  0  0  0  0  0  0  0  0  0  0
   55.4794  154.3583   23.8781 H   0  0  0  0  0  0  0  0  0  0  0  0
   54.2450  155.6634   23.8781 H   0  0  0  0  0  0  0  0  0  0  0  0
   53.2473  153.6532   24.8069 H   0  0  0  0  0  0  0  0  0  0  0  0
   54.6318  153.4777   25.9677 H   0  0  0  0  0  0  0  0  0  0  0  0
   54.0205  156.8672   25.5700 H   0  0  0  0  0  0  0  0  0  0  0  0
   52.8881  158.3585   27.1994 H   0  0  0  0  0  0  0  0  0  0  0  0
   53.3322  160.9336   30.1769 H   0  0  0  0  0  0  0  0  0  0  0  0
   52.5409  162.6886   31.7685 H   0  0  0  0  0  0  0  0  0  0  0  0
   50.3286  162.4421   32.8981 H   0  0  0  0  0  0  0  0  0  0  0  0
   48.5310  161.0170   33.3480 H   0  0  0  0  0  0  0  0  0  0  0  0
   49.2000  156.0190   28.6290 H   0  0  0  0  0  0  0  0  0  0  0  0
   51.2129  154.9163   29.1876 H   0  0  0  0  0  0  0  0  0  0  0  0
  1  2  1  0
  2  3  1  0
  3  4  2  0
  4  5  1  0
  5  6  2  0
  6  7  1  0
  7  8  1  0
  8  9  1  0
  9 10  2  0
 10 11  1  0
 11 12  2  0
 12 13  1  0
 13 14  1  0
 13 15  2  0
 15 16  1  0
 16 17  2  0
 16 18  1  0
 18 19  1  0
  6 20  1  0
 20 21  2  0
 21 22  1  0
 22 23  1  0
 22 24  1  0
 22 25  1  0
 21  3  1  0
 18  7  2  0
 15  9  1  0
  1 26  1  0
  1 27  1  0
  1 28  1  0
  2 29  1  0
  2 30  1  0
  4 31  1  0
  5 32  1  0
 10 33  1  0
 11 34  1  0
 12 35  1  0
 14 36  1  0
 19 37  1  0
 20 38  1  0
M  END
>  <meeko>  (7) 
{"is_sidechain": [false], "free_energy": -8.526, "intermolecular_energy": -10.724, "internal_energy": -0.141}

$$$$
cand_050_out
     RDKit          3D

 38 40  0  0  0  0  0  0  0  0999 V2000
   52.2220  161.4460   31.2260 C   0  0  0  0  0  0  0  0  0  0  0  0
   51.0220  160.5110   31.1650 C   0  0  0  0  0  0  0  0  0  0  0  0
   51.3080  159.2760   30.3380 C   0  0  0  0  0  0  0  0  0  0  0  0
   52.6180  159.0810   29.8680 C   0  0  0  0  0  0  0  0  0  0  0  0
   52.9450  157.9670   29.0920 C   0  0  0  0  0  0  0  0  0  0  0  0
   51.9760  157.0130   28.7660 C   0  0  0  0  0  0  0  0  0  0  0  0
   52.3400  155.8500   27.9280 C   0  0  0  0  0  0  0  0  0  0  0  0
   51.8120  154.6540   28.4020 O   0  0  0  0  0  0  0  0  0  0  0  0
   52.0750  153.4970   27.7160 C   0  0  0  0  0  0  0  0  0  0  0  0
   51.5380  152.3170   28.2350 C   0  0  0  0  0  0  0  0  0  0  0  0
   51.7650  151.1030   27.5840 C   0  0  0  0  0  0  0  0  0  0  0  0
   52.5270  151.0680   26.4140 C   0  0  0  0  0  0  0  0  0  0  0  0
   53.0620  152.2460   25.8990 C   0  0  0  0  0  0  0  0  0  0  0  0
   53.7990  152.1390   24.7500 O   0  0  0  0  0  0  0  0  0  0  0  0
   52.8350  153.4610   26.5510 C   0  0  0  0  0  0  0  0  0  0  0  0
   53.3780  154.7210   26.0430 C   0  0  0  0  0  0  0  0  0  0  0  0
   54.0530  154.7740   25.0160 O   0  0  0  0  0  0  0  0  0  0  0  0
   53.0860  155.9520   26.8130 C   0  0  0  0  0  0  0  0  0  0  0  0
   53.5920  157.1400   26.3190 O   0  0  0  0  0  0  0  0  0  0  0  0
   50.6650  157.2140   29.2210 C   0  0  0  0  0  0  0  0  0  0  0  0
   50.3110  158.3340   30.0040 C   0  0  0  0  0  0  0  0  0  0  0  0
   48.8790  158.4730   30.4730 C   0  0  0  0  0  0  0  0  0  0  0  0
   48.3110  159.6720   30.1520 F   0  0  0  0  0  0  0  0  0  0  0  0
   48.7490  158.3640   31.8260 F   0  0  0  0  0  0  0  0  0  0  0  0
   48.0580  157.5250   29.9400 F   0  0  0  0  0  0  0  0  0  0  0  0
   52.4782  161.6456   32.2769 H   0  0  0  0  0  0  0  0  0  0  0  0
   53.0794  160.9755   30.7226 H   0  0  0  0  0  0  0  0  0  0  0  0
   51.9754  162.3924   30.7226 H   0  0  0  0  0  0  0  0  0  0  0  0
   50.7607  160.2012   32.1876 H   0  0  0  0  0  0  0  0  0  0  0  0
   50.1917  161.0538   30.6897 H   0  0  0  0  0  0  0  0  0  0  0  0
   53.3974  159.8168   30.1151 H   0  0  0  0  0  0  0  0  0  0  0  0
   53.9768  157.8385   28.7330 H   0  0  0  0  0  0  0  0  0  0  0  0
   50.9368  152.3440   29.1558 H   0  0  0  0  0  0  0  0  0  0  0  0
   51.3433  150.1730   27.9930 H   0  0  0  0  0  0  0  0  0  0  0  0
   52.7042  150.1116   25.9003 H   0  0  0  0  0  0  0  0  0  0  0  0
   53.4260  152.3910   23.9300 H   0  0  0  0  0  0  0  0  0  0  0  0
   54.4720  157.3930   26.5180 H   0  0  0  0  0  0  0  0  0  0  0  0
   49.8902  156.4779   28.9604 H   0  0  0  0  0  0  0  0  0  0  0  0
  1  2  1  0
  2  3  1  0
  3  4  2  0
  4  5  1  0
  5  6  2  0
  6  7  1  0
  7  8  1  0
  8  9  1  0
  9 10  2  0
 10 11  1  0
 11 12  2  0
 12 13  1  0
 13 14  1  0
 13 15  2  0
 15 16  1  0
 16 17  2  0
 16 18  1  0
 18 19  1  0
  6 20  1  0
 20 21  2  0
 21 22  1  0
 22 23  1  0
 22 24  1  0
 22 25  1  0
 21  3  1  0
 18  7  2  0
 15  9  1  0
  1 26  1  0
  1 27  1  0
  1 28  1  0
  2 29  1  0
  2 30  1  0
  4 31  1  0
  5 32  1  0
 10 33  1  0
 11 34  1  0
 12 35  1  0
 14 36  1  0
 19 37  1  0
 20 38  1  0
M  END
>  <meeko>  (8) 
{"is_sidechain": [false], "free_energy": -7.799, "intermolecular_energy": -9.678, "internal_energy": -0.29}

$$$$
