cand_012_out
     RDKit          3D

 40 42  0  0  0  0  0  0  0  0999 V2000
   49.2340  160.1580   33.0270 C   0  0  0  0  0  0  0  0  0  0  0  0
   49.4070  160.4620   31.6040 N   0  0  0  0  0  0  0  0  0  0  0  0
   48.1970  160.9700   30.9480 C   0  0  0  0  0  0  0  0  0  0  0  0
   50.0030  159.4150   30.8770 C   0  0  0  0  0  0  0  0  0  0  0  0
   49.3140  158.2260   30.5910 C   0  0  0  0  0  0  0  0  0  0  0  0
   49.9130  157.1950   29.8600 C   0  0  0  0  0  0  0  0  0  0  0  0
   51.2200  157.3250   29.3830 C   0  0  0  0  0  0  0  0  0  0  0  0
   51.8880  156.2430   28.6310 C   0  0  0  0  0  0  0  0  0  0  0  0
   52.4250  156.6750   27.4230 O   0  0  0  0  0  0  0  0  0  0  0  0
   53.0720  155.7700   26.6220 C   0  0  0  0  0  0  0  0  0  0  0  0
   53.6060  156.2510   25.4250 C   0  0  0  0  0  0  0  0  0  0  0  0
   54.2770  155.3800   24.5630 C   0  0  0  0  0  0  0  0  0  0  0  0
   54.4130  154.0310   24.8970 C   0  0  0  0  0  0  0  0  0  0  0  0
   53.8790  153.5550   26.0910 C   0  0  0  0  0  0  0  0  0  0  0  0
   54.0490  152.2230   26.3560 O   0  0  0  0  0  0  0  0  0  0  0  0
   53.2090  154.4260   26.9540 C   0  0  0  0  0  0  0  0  0  0  0  0
   52.6320  153.9660   28.2180 C   0  0  0  0  0  0  0  0  0  0  0  0
   52.7050  152.7930   28.5800 O   0  0  0  0  0  0  0  0  0  0  0  0
   51.9470  154.9700   29.0640 C   0  0  0  0  0  0  0  0  0  0  0  0
   51.3920  154.5220   30.2490 O   0  0  0  0  0  0  0  0  0  0  0  0
   51.9150  158.5080   29.6720 C   0  0  0  0  0  0  0  0  0  0  0  0
   51.3220  159.5570   30.4090 C   0  0  0  0  0  0  0  0  0  0  0  0
   52.1130  160.8110   30.6900 C   0  0  0  0  0  0  0  0  0  0  0  0
   51.6100  161.9250   30.0840 F   0  0  0  0  0  0  0  0  0  0  0  0
   53.4060  160.7280   30.2460 F   0  0  0  0  0  0  0  0  0  0  0  0
   52.2220  161.1060   32.0180 F   0  0  0  0  0  0  0  0  0  0  0  0
   49.6888  160.9572   33.6306 H   0  0  0  0  0  0  0  0  0  0  0  0
   48.1611  160.0885   33.2593 H   0  0  0  0  0  0  0  0  0  0  0  0
   49.7223  159.2001   33.2593 H   0  0  0  0  0  0  0  0  0  0  0  0
   47.4670  161.2765   31.7117 H   0  0  0  0  0  0  0  0  0  0  0  0
   48.4560  161.8353   30.3202 H   0  0  0  0  0  0  0  0  0  0  0  0
   47.7607  160.1791   30.3202 H   0  0  0  0  0  0  0  0  0  0  0  0
   48.2813  158.1025   30.9493 H   0  0  0  0  0  0  0  0  0  0  0  0
   49.3494  156.2721   29.6584 H   0  0  0  0  0  0  0  0  0  0  0  0
   53.4986  157.3135   25.1612 H   0  0  0  0  0  0  0  0  0  0  0  0
   54.6988  155.7575   23.6198 H   0  0  0  0  0  0  0  0  0  0  0  0
   54.9412  153.3457   24.2177 H   0  0  0  0  0  0  0  0  0  0  0  0
   54.4800  151.9520   27.1420 H   0  0  0  0  0  0  0  0  0  0  0  0
   51.3490  155.0940   30.9910 H   0  0  0  0  0  0  0  0  0  0  0  0
   52.9493  158.6222   29.3154 H   0  0  0  0  0  0  0  0  0  0  0  0
  1  2  1  0
  2  3  1  0
  2  4  1  0
  4  5  2  0
  5  6  1  0
  6  7  2  0
  7  8  1  0
  8  9  1  0
  9 10  1  0
 10 11  2  0
 11 12  1  0
 12 13  2  0
 13 14  1  0
 14 15  1  0
 14 16  2  0
 16 17  1  0
 17 18  2  0
 17 19  1  0
 19 20  1  0
  7 21  1  0
 21 22  2  0
 22 23  1  0
 23 24  1  0
 23 25  1  0
 23 26  1  0
 22  4  1  0
 19  8  2  0
 16 10  1  0
  1 27  1  0
  1 28  1  0
  1 29  1  0
  3 30  1  0
  3 31  1  0
  3 32  1  0
  5 33  1  0
  6 34  1  0
 11 35  1  0
 12 36  1  0
 13 37  1  0
 15 38  1  0
 20 39  1  0
 21 40  1  0
M  END
>  <meeko>  (1) 
{"is_sidechain": [false], "free_energy": -10.367, "intermolecular_energy": -12.791, "internal_energy": -0.37}

$$$$
cand_012_out
     RDKit          3D

 40 42  0  0  0  0  0  0  0  0999 V2000
   52.0770  151.7530   26.6330 C   0  0  0  0  0  0  0  0  0  0  0  0
   52.9460  152.9140   26.4200 N   0  0  0  0  0  0  0  0  0  0  0  0
   54.3780  152.6230   26.5500 C   0  0  0  0  0  0  0  0  0  0  0  0
   52.5650  154.0430   27.1690 C   0  0  0  0  0  0  0  0  0  0  0  0
   52.0250  153.9270   28.4590 C   0  0  0  0  0  0  0  0  0  0  0  0
   51.6580  155.0560   29.1980 C   0  0  0  0  0  0  0  0  0  0  0  0
   51.8290  156.3390   28.6730 C   0  0  0  0  0  0  0  0  0  0  0  0
   51.4260  157.5490   29.4200 C   0  0  0  0  0  0  0  0  0  0  0  0
   50.0840  157.5380   29.7830 O   0  0  0  0  0  0  0  0  0  0  0  0
   49.5750  158.6040   30.4790 C   0  0  0  0  0  0  0  0  0  0  0  0
   48.2260  158.5450   30.8330 C   0  0  0  0  0  0  0  0  0  0  0  0
   47.6460  159.5990   31.5430 C   0  0  0  0  0  0  0  0  0  0  0  0
   48.4140  160.7100   31.8980 C   0  0  0  0  0  0  0  0  0  0  0  0
   49.7590  160.7660   31.5430 C   0  0  0  0  0  0  0  0  0  0  0  0
   50.4510  161.8840   31.9220 O   0  0  0  0  0  0  0  0  0  0  0  0
   50.3390  159.7120   30.8340 C   0  0  0  0  0  0  0  0  0  0  0  0
   51.7490  159.7310   30.4410 C   0  0  0  0  0  0  0  0  0  0  0  0
   52.4880  160.6760   30.7100 O   0  0  0  0  0  0  0  0  0  0  0  0
   52.2690  158.5610   29.6960 C   0  0  0  0  0  0  0  0  0  0  0  0
   53.5980  158.5960   29.3150 O   0  0  0  0  0  0  0  0  0  0  0  0
   52.3610  156.4590   27.3810 C   0  0  0  0  0  0  0  0  0  0  0  0
   52.7360  155.3280   26.6240 C   0  0  0  0  0  0  0  0  0  0  0  0
   53.3070  155.5130   25.2400 C   0  0  0  0  0  0  0  0  0  0  0  0
   54.6630  155.3680   25.1810 F   0  0  0  0  0  0  0  0  0  0  0  0
   53.0700  156.7650   24.7350 F   0  0  0  0  0  0  0  0  0  0  0  0
   52.7840  154.6610   24.3110 F   0  0  0  0  0  0  0  0  0  0  0  0
   51.9499  151.5832   27.7124 H   0  0  0  0  0  0  0  0  0  0  0  0
   51.0954  151.9404   26.1732 H   0  0  0  0  0  0  0  0  0  0  0  0
   52.5335  150.8641   26.1732 H   0  0  0  0  0  0  0  0  0  0  0  0
   54.6458  152.5686   27.6155 H   0  0  0  0  0  0  0  0  0  0  0  0
   54.6021  151.6610   26.0660 H   0  0  0  0  0  0  0  0  0  0  0  0
   54.9598  153.4213   26.0660 H   0  0  0  0  0  0  0  0  0  0  0  0
   51.8876  152.9277   28.8978 H   0  0  0  0  0  0  0  0  0  0  0  0
   51.2300  154.9323   30.2037 H   0  0  0  0  0  0  0  0  0  0  0  0
   47.6208  157.6701   30.5534 H   0  0  0  0  0  0  0  0  0  0  0  0
   46.5831  159.5538   31.8228 H   0  0  0  0  0  0  0  0  0  0  0  0
   47.9569  161.5396   32.4573 H   0  0  0  0  0  0  0  0  0  0  0  0
   49.9960  162.6140   32.2930 H   0  0  0  0  0  0  0  0  0  0  0  0
   54.2610  158.2910   29.9030 H   0  0  0  0  0  0  0  0  0  0  0  0
   52.4895  157.4611   26.9459 H   0  0  0  0  0  0  0  0  0  0  0  0
  1  2  1  0
  2  3  1  0
  2  4  1  0
  4  5  2  0
  5  6  1  0
  6  7  2  0
  7  8  1  0
  8  9  1  0
  9 10  1  0
 10 11  2  0
 11 12  1  0
 12 13  2  0
 13 14  1  0
 14 15  1  0
 14 16  2  0
 16 17  1  0
 17 18  2  0
 17 19  1  0
 19 20  1  0
  7 21  1  0
 21 22  2  0
 22 23  1  0
 23 24  1  0
 23 25  1  0
 23 26  1  0
 22  4  1  0
 19  8  2  0
 16 10  1  0
  1 27  1  0
  1 28  1  0
  1 29  1  0
  3 30  1  0
  3 31  1  0
  3 32  1  0
  5 33  1  0
  6 34  1  0
 11 35  1  0
 12 36  1  0
 13 37  1  0
 15 38  1  0
 20 39  1  0
 21 40  1  0
M  END
>  <meeko>  (2) 
{"is_sidechain": [false], "free_energy": -10.086, "intermolecular_energy": -12.769, "internal_energy": -0.046}

$$$$
cand_012_out
     RDKit          3D

 40 42  0  0  0  0  0  0  0  0999 V2000
   51.6290  161.8420   30.8700 C   0  0  0  0  0  0  0  0  0  0  0  0
   50.6910  160.7400   31.1000 N   0  0  0  0  0  0  0  0  0  0  0  0
   50.3780  160.5040   32.5140 C   0  0  0  0  0  0  0  0  0  0  0  0
   51.0470  159.5530   30.4310 C   0  0  0  0  0  0  0  0  0  0  0  0
   52.3700  159.2910   30.0440 C   0  0  0  0  0  0  0  0  0  0  0  0
   52.7140  158.1040   29.3880 C   0  0  0  0  0  0  0  0  0  0  0  0
   51.7450  157.1380   29.1070 C   0  0  0  0  0  0  0  0  0  0  0  0
   52.0740  155.8870   28.3920 C   0  0  0  0  0  0  0  0  0  0  0  0
   52.5620  156.1100   27.1090 O   0  0  0  0  0  0  0  0  0  0  0  0
   52.9040  155.0340   26.3320 C   0  0  0  0  0  0  0  0  0  0  0  0
   53.4010  155.3050   25.0560 C   0  0  0  0  0  0  0  0  0  0  0  0
   53.7680  154.2530   24.2140 C   0  0  0  0  0  0  0  0  0  0  0  0
   53.6370  152.9320   24.6460 C   0  0  0  0  0  0  0  0  0  0  0  0
   53.1410  152.6650   25.9190 C   0  0  0  0  0  0  0  0  0  0  0  0
   53.0390  151.3480   26.2780 O   0  0  0  0  0  0  0  0  0  0  0  0
   52.7760  153.7170   26.7620 C   0  0  0  0  0  0  0  0  0  0  0  0
   52.2490  153.4800   28.1070 C   0  0  0  0  0  0  0  0  0  0  0  0
   52.0990  152.3460   28.5580 O   0  0  0  0  0  0  0  0  0  0  0  0
   51.8960  154.6640   28.9240 C   0  0  0  0  0  0  0  0  0  0  0  0
   51.3850  154.4290   30.1870 O   0  0  0  0  0  0  0  0  0  0  0  0
   50.4210  157.4000   29.4860 C   0  0  0  0  0  0  0  0  0  0  0  0
   50.0590  158.5930   30.1490 C   0  0  0  0  0  0  0  0  0  0  0  0
   48.6200  158.8240   30.5370 C   0  0  0  0  0  0  0  0  0  0  0  0
   48.3460  158.5180   31.8390 F   0  0  0  0  0  0  0  0  0  0  0  0
   47.7480  158.0560   29.8100 F   0  0  0  0  0  0  0  0  0  0  0  0
   48.1960  160.1060   30.3410 F   0  0  0  0  0  0  0  0  0  0  0  0
   51.9692  162.2417   31.8367 H   0  0  0  0  0  0  0  0  0  0  0  0
   52.4949  161.4736   30.3003 H   0  0  0  0  0  0  0  0  0  0  0  0
   51.1270  162.6379   30.3003 H   0  0  0  0  0  0  0  0  0  0  0  0
   51.0978  161.0467   33.1444 H   0  0  0  0  0  0  0  0  0  0  0  0
   49.3601  160.8613   32.7288 H   0  0  0  0  0  0  0  0  0  0  0  0
   50.4415  159.4270   32.7288 H   0  0  0  0  0  0  0  0  0  0  0  0
   53.1522  160.0335   30.2606 H   0  0  0  0  0  0  0  0  0  0  0  0
   53.7585  157.9297   29.0904 H   0  0  0  0  0  0  0  0  0  0  0  0
   53.5034  156.3455   24.7142 H   0  0  0  0  0  0  0  0  0  0  0  0
   54.1609  154.4656   23.2088 H   0  0  0  0  0  0  0  0  0  0  0  0
   53.9251  152.1038   23.9819 H   0  0  0  0  0  0  0  0  0  0  0  0
   53.6800  150.7310   25.9830 H   0  0  0  0  0  0  0  0  0  0  0  0
   51.0590  153.5780   30.4100 H   0  0  0  0  0  0  0  0  0  0  0  0
   49.6428  156.6559   29.2607 H   0  0  0  0  0  0  0  0  0  0  0  0
  1  2  1  0
  2  3  1  0
  2  4  1  0
  4  5  2  0
  5  6  1  0
  6  7  2  0
  7  8  1  0
  8  9  1  0
  9 10  1  0
 10 11  2  0
 11 12  1  0
 12 13  2  0
 13 14  1  0
 14 15  1  0
 14 16  2  0
 16 17  1  0
 17 18  2  0
 17 19  1  0
 19 20  1  0
  7 21  1  0
 21 22  2  0
 22 23  1  0
 23 24  1  0
 23 25  1  0
 23 26  1  0
 22  4  1  0
 19  8  2  0
 16 10  1  0
  1 27  1  0
  1 28  1  0
  1 29  1  0
  3 30  1  0
  3 31  1  0
  3 32  1  0
  5 33  1  0
  6 34  1  0
 11 35  1  0
 12 36  1  0
 13 37  1  0
 15 38  1  0
 20 39  1  0
 21 40  1  0
M  END
>  <meeko>  (3) 
{"is_sidechain": [false], "free_energy": -9.247, "intermolecular_energy": -12.155, "internal_energy": 0.375}

$$$$
cand_012_out
     RDKit          3D

 40 42  0  0  0  0  0  0  0  0999 V2000
   52.4530  151.6880   26.3190 C   0  0  0  0  0  0  0  0  0  0  0  0
   53.2860  152.8940   26.3310 N   0  0  0  0  0  0  0  0  0  0  0  0
   54.6940  152.6470   26.6610 C   0  0  0  0  0  0  0  0  0  0  0  0
   52.7390  153.9430   27.0950 C   0  0  0  0  0  0  0  0  0  0  0  0
   52.1750  153.7210   28.3610 C   0  0  0  0  0  0  0  0  0  0  0  0
   51.6430  154.7720   29.1140 C   0  0  0  0  0  0  0  0  0  0  0  0
   51.6680  156.0810   28.6290 C   0  0  0  0  0  0  0  0  0  0  0  0
   51.0900  157.2080   29.3920 C   0  0  0  0  0  0  0  0  0  0  0  0
   52.0090  158.2210   29.6390 O   0  0  0  0  0  0  0  0  0  0  0  0
   51.6050  159.3270   30.3420 C   0  0  0  0  0  0  0  0  0  0  0  0
   52.5580  160.3240   30.5570 C   0  0  0  0  0  0  0  0  0  0  0  0
   52.2110  161.4770   31.2660 C   0  0  0  0  0  0  0  0  0  0  0  0
   50.9140  161.6310   31.7600 C   0  0  0  0  0  0  0  0  0  0  0  0
   49.9660  160.6340   31.5440 C   0  0  0  0  0  0  0  0  0  0  0  0
   48.7160  160.8500   32.0560 O   0  0  0  0  0  0  0  0  0  0  0  0
   50.3130  159.4820   30.8340 C   0  0  0  0  0  0  0  0  0  0  0  0
   49.3480  158.4100   30.5860 C   0  0  0  0  0  0  0  0  0  0  0  0
   48.1890  158.4700   30.9930 O   0  0  0  0  0  0  0  0  0  0  0  0
   49.8130  157.2330   29.8180 C   0  0  0  0  0  0  0  0  0  0  0  0
   48.8980  156.2190   29.6020 O   0  0  0  0  0  0  0  0  0  0  0  0
   52.2250  156.3070   27.3620 C   0  0  0  0  0  0  0  0  0  0  0  0
   52.7660  155.2560   26.5900 C   0  0  0  0  0  0  0  0  0  0  0  0
   53.3550  155.5530   25.2340 C   0  0  0  0  0  0  0  0  0  0  0  0
   54.7170  155.4800   25.1990 F   0  0  0  0  0  0  0  0  0  0  0  0
   53.0650  156.8190   24.7990 F   0  0  0  0  0  0  0  0  0  0  0  0
   52.8970  154.7340   24.2430 F   0  0  0  0  0  0  0  0  0  0  0  0
   52.2398  151.3793   27.3531 H   0  0  0  0  0  0  0  0  0  0  0  0
   51.5080  151.9002   25.7975 H   0  0  0  0  0  0  0  0  0  0  0  0
   52.9860  150.8794   25.7975 H   0  0  0  0  0  0  0  0  0  0  0  0
   54.8161  152.6256   27.7540 H   0  0  0  0  0  0  0  0  0  0  0  0
   55.0056  151.6805   26.2382 H   0  0  0  0  0  0  0  0  0  0  0  0
   55.3160  153.4498   26.2382 H   0  0  0  0  0  0  0  0  0  0  0  0
   52.1511  152.6997   28.7689 H   0  0  0  0  0  0  0  0  0  0  0  0
   51.1999  154.5654   30.0994 H   0  0  0  0  0  0  0  0  0  0  0  0
   53.5801  160.2023   30.1691 H   0  0  0  0  0  0  0  0  0  0  0  0
   52.9604  162.2643   31.4352 H   0  0  0  0  0  0  0  0  0  0  0  0
   50.6415  162.5384   32.3189 H   0  0  0  0  0  0  0  0  0  0  0  0
   48.0800  160.1620   32.0470 H   0  0  0  0  0  0  0  0  0  0  0  0
   47.9920  156.3570   29.7980 H   0  0  0  0  0  0  0  0  0  0  0  0
   52.2408  157.3304   26.9589 H   0  0  0  0  0  0  0  0  0  0  0  0
  1  2  1  0
  2  3  1  0
  2  4  1  0
  4  5  2  0
  5  6  1  0
  6  7  2  0
  7  8  1  0
  8  9  1  0
  9 10  1  0
 10 11  2  0
 11 12  1  0
 12 13  2  0
 13 14  1  0
 14 15  1  0
 14 16  2  0
 16 17  1  0
 17 18  2  0
 17 19  1  0
 19 20  1  0
  7 21  1  0
 21 22  2  0
 22 23  1  0
 23 24  1  0
 23 25  1  0
 23 26  1  0
 22  4  1  0
 19  8  2  0
 16 10  1  0
  1 27  1  0
  1 28  1  0
  1 29  1  0
  3 30  1  0
  3 31  1  0
  3 32  1  0
  5 33  1  0
  6 34  1  0
 11 35  1  0
 12 36  1  0
 13 37  1  0
 15 38  1  0
 20 39  1  0
 21 40  1  0
M  END
>  <meeko>  (4) 
{"is_sidechain": [false], "free_energy": -8.798, "intermolecular_energy": -10.959, "internal_energy": -0.266}

$$$$
cand_012_out
     RDKit          3D

 40 42  0  0  0  0  0  0  0  0999 V2000
   54.4270  154.6970   25.3130 C   0  0  0  0  0  0  0  0  0  0  0  0
   53.3920  154.2560   26.2530 N   0  0  0  0  0  0  0  0  0  0  0  0
   52.3000  153.5010   25.6300 C   0  0  0  0  0  0  0  0  0  0  0  0
   52.9160  155.2870   27.0850 C   0  0  0  0  0  0  0  0  0  0  0  0
   52.9600  156.6340   26.6940 C   0  0  0  0  0  0  0  0  0  0  0  0
   52.4750  157.6490   27.5250 C   0  0  0  0  0  0  0  0  0  0  0  0
   51.9230  157.3470   28.7720 C   0  0  0  0  0  0  0  0  0  0  0  0
   51.4280  158.4000   29.6830 C   0  0  0  0  0  0  0  0  0  0  0  0
   50.0830  158.2490   30.0030 O   0  0  0  0  0  0  0  0  0  0  0  0
   49.4930  159.1620   30.8390 C   0  0  0  0  0  0  0  0  0  0  0  0
   48.1460  158.9650   31.1430 C   0  0  0  0  0  0  0  0  0  0  0  0
   47.4850  159.8590   31.9880 C   0  0  0  0  0  0  0  0  0  0  0  0
   48.1700  160.9490   32.5290 C   0  0  0  0  0  0  0  0  0  0  0  0
   49.5150  161.1430   32.2230 C   0  0  0  0  0  0  0  0  0  0  0  0
   50.1250  162.2310   32.7860 O   0  0  0  0  0  0  0  0  0  0  0  0
   50.1760  160.2480   31.3790 C   0  0  0  0  0  0  0  0  0  0  0  0
   51.5880  160.4160   31.0310 C   0  0  0  0  0  0  0  0  0  0  0  0
   52.2580  161.3530   31.4610 O   0  0  0  0  0  0  0  0  0  0  0  0
   52.1970  159.4090   30.1320 C   0  0  0  0  0  0  0  0  0  0  0  0
   53.5270  159.5850   29.7980 O   0  0  0  0  0  0  0  0  0  0  0  0
   51.8840  156.0030   29.1700 C   0  0  0  0  0  0  0  0  0  0  0  0
   52.3690  154.9680   28.3410 C   0  0  0  0  0  0  0  0  0  0  0  0
   52.3010  153.5370   28.8160 C   0  0  0  0  0  0  0  0  0  0  0  0
   51.4420  152.7600   28.0950 F   0  0  0  0  0  0  0  0  0  0  0  0
   51.8610  153.4330   30.1090 F   0  0  0  0  0  0  0  0  0  0  0  0
   53.5060  152.8970   28.8080 F   0  0  0  0  0  0  0  0  0  0  0  0
   55.2976  155.0680   25.8738 H   0  0  0  0  0  0  0  0  0  0  0  0
   54.7321  153.8507   24.6800 H   0  0  0  0  0  0  0  0  0  0  0  0
   54.0279  155.5032   24.6800 H   0  0  0  0  0  0  0  0  0  0  0  0
   51.6646  153.0617   26.4131 H   0  0  0  0  0  0  0  0  0  0  0  0
   51.6974  154.1763   25.0048 H   0  0  0  0  0  0  0  0  0  0  0  0
   52.7189  152.6987   25.0048 H   0  0  0  0  0  0  0  0  0  0  0  0
   53.3846  156.8969   25.7139 H   0  0  0  0  0  0  0  0  0  0  0  0
   52.5288  158.6963   27.1930 H   0  0  0  0  0  0  0  0  0  0  0  0
   47.6052  158.1067   30.7178 H   0  0  0  0  0  0  0  0  0  0  0  0
   46.4227  159.7043   32.2279 H   0  0  0  0  0  0  0  0  0  0  0  0
   47.6489  161.6525   33.1950 H   0  0  0  0  0  0  0  0  0  0  0  0
   51.0600  162.2900   32.7970 H   0  0  0  0  0  0  0  0  0  0  0  0
   53.7560  160.0510   29.0170 H   0  0  0  0  0  0  0  0  0  0  0  0
   51.4643  155.7482   30.1544 H   0  0  0  0  0  0  0  0  0  0  0  0
  1  2  1  0
  2  3  1  0
  2  4  1  0
  4  5  2  0
  5  6  1  0
  6  7  2  0
  7  8  1  0
  8  9  1  0
  9 10  1  0
 10 11  2  0
 11 12  1  0
 12 13  2  0
 13 14  1  0
 14 15  1  0
 14 16  2  0
 16 17  1  0
 17 18  2  0
 17 19  1  0
 19 20  1  0
  7 21  1  0
 21 22  2  0
 22 23  1  0
 23 24  1  0
 23 25  1  0
 23 26  1  0
 22  4  1  0
 19  8  2  0
 16 10  1  0
  1 27  1  0
  1 28  1  0
  1 29  1  0
  3 30  1  0
  3 31  1  0
  3 32  1  0
  5 33  1  0
  6 34  1  0
 11 35  1  0
 12 36  1  0
 13 37  1  0
 15 38  1  0
 20 39  1  0
 21 40  1  0
M  END
>  <meeko>  (5) 
{"is_sidechain": [false], "free_energy": -8.092, "intermolecular_energy": -10.687, "internal_energy": 0.333}

$$$$
