cand_049_out
     RDKit          3D

 47 49  0  0  0  0  0  0  0  0999 V2000
   51.5880  160.7960   31.7010 C   0  0  0  0  0  0  0  0  0  0  0  0
   51.8200  160.3060   30.2780 C   0  0  0  0  0  0  0  0  0  0  0  0
   51.2180  158.9370   30.0500 C   0  0  0  0  0  0  0  0  0  0  0  0
   51.9150  158.0440   29.2090 C   0  0  0  0  0  0  0  0  0  0  0  0
   51.4580  156.7400   28.9700 C   0  0  0  0  0  0  0  0  0  0  0  0
   52.2090  155.8520   28.0560 C   0  0  0  0  0  0  0  0  0  0  0  0
   52.7760  156.5340   26.9850 O   0  0  0  0  0  0  0  0  0  0  0  0
   53.5010  155.8300   26.0590 C   0  0  0  0  0  0  0  0  0  0  0  0
   54.0400  156.5520   24.9940 C   0  0  0  0  0  0  0  0  0  0  0  0
   54.7910  155.8960   24.0160 C   0  0  0  0  0  0  0  0  0  0  0  0
   55.0050  154.5190   24.1050 C   0  0  0  0  0  0  0  0  0  0  0  0
   54.4670  153.8000   25.1690 C   0  0  0  0  0  0  0  0  0  0  0  0
   54.7150  152.4560   25.1960 O   0  0  0  0  0  0  0  0  0  0  0  0
   53.7150  154.4570   26.1470 C   0  0  0  0  0  0  0  0  0  0  0  0
   53.1310  153.7400   27.2820 C   0  0  0  0  0  0  0  0  0  0  0  0
   53.2810  152.5290   27.4330 O   0  0  0  0  0  0  0  0  0  0  0  0
   52.3440  154.5280   28.2580 C   0  0  0  0  0  0  0  0  0  0  0  0
   51.8090  153.8420   29.3340 O   0  0  0  0  0  0  0  0  0  0  0  0
   50.2700  156.3320   29.5820 C   0  0  0  0  0  0  0  0  0  0  0  0
   49.5690  157.2010   30.4220 C   0  0  0  0  0  0  0  0  0  0  0  0
   50.0270  158.5060   30.6670 C   0  0  0  0  0  0  0  0  0  0  0  0
   49.2060  159.3930   31.5820 C   0  0  0  0  0  0  0  0  0  0  0  0
   48.0100  160.0740   30.8850 C   0  0  0  0  0  0  0  0  0  0  0  0
   46.6880  159.8080   31.6080 C   0  0  0  0  0  0  0  0  0  0  0  0
   48.2540  161.5840   30.8010 C   0  0  0  0  0  0  0  0  0  0  0  0
   51.9469  160.0381   32.4129 H   0  0  0  0  0  0  0  0  0  0  0  0
   52.1365  161.7363   31.8590 H   0  0  0  0  0  0  0  0  0  0  0  0
   50.5130  160.9676   31.8590 H   0  0  0  0  0  0  0  0  0  0  0  0
   51.3606  161.0182   29.5768 H   0  0  0  0  0  0  0  0  0  0  0  0
   52.9053  160.2339   30.1139 H   0  0  0  0  0  0  0  0  0  0  0  0
   52.8444  158.3806   28.7265 H   0  0  0  0  0  0  0  0  0  0  0  0
   53.8737  157.6371   24.9245 H   0  0  0  0  0  0  0  0  0  0  0  0
   55.2143  156.4646   23.1749 H   0  0  0  0  0  0  0  0  0  0  0  0
   55.5979  154.0030   23.3355 H   0  0  0  0  0  0  0  0  0  0  0  0
   55.0190  152.0500   25.9840 H   0  0  0  0  0  0  0  0  0  0  0  0
   51.7320  152.9080   29.3020 H   0  0  0  0  0  0  0  0  0  0  0  0
   49.8834  155.3182   29.4010 H   0  0  0  0  0  0  0  0  0  0  0  0
   48.6405  156.8565   30.9007 H   0  0  0  0  0  0  0  0  0  0  0  0
   48.8206  158.7765   32.4075 H   0  0  0  0  0  0  0  0  0  0  0  0
   49.8722  160.1962   31.9299 H   0  0  0  0  0  0  0  0  0  0  0  0
   47.9281  159.6441   29.8758 H   0  0  0  0  0  0  0  0  0  0  0  0
   46.8516  159.8409   32.6953 H   0  0  0  0  0  0  0  0  0  0  0  0
   45.9538  160.5764   31.3243 H   0  0  0  0  0  0  0  0  0  0  0  0
   46.3082  158.8154   31.3243 H   0  0  0  0  0  0  0  0  0  0  0  0
   48.3215  162.0016   31.8164 H   0  0  0  0  0  0  0  0  0  0  0  0
   49.1945  161.7741   30.2631 H   0  0  0  0  0  0  0  0  0  0  0  0
   47.4212  162.0606   30.2631 H   0  0  0  0  0  0  0  0  0  0  0  0
  1  2  1  0
  2  3  1  0
  3  4  2  0
  4  5  1  0
  5  6  1  0
  6  7  1  0
  7  8  1  0
  8  9  2  0
  9 10  1  0
 10 11  2  0
 11 12  1  0
 12 13  1  0
 12 14  2  0
 14 15  1  0
 15 16  2  0
 15 17  1  0
 17 18  1  0
  5 19  2  0
 19 20  1  0
 20 21  2  0
 21 22  1  0
 22 23  1  0
 23 24  1  0
 23 25  1  0
 21  3  1  0
 17  6  2  0
 14  8  1  0
  1 26  1  0
  1 27  1  0
  1 28  1  0
  2 29  1  0
  2 30  1  0
  4 31  1  0
  9 32  1  0
 10 33  1  0
 11 34  1  0
 13 35  1  0
 18 36  1  0
 19 37  1  0
 20 38  1  0
 22 39  1  0
 22 40  1  0
 23 41  1  0
 24 42  1  0
 24 43  1  0
 24 44  1  0
 25 45  1  0
 25 46  1  0
 25 47  1  0
M  END
>  <meeko>  (1) 
{"is_sidechain": [false], "free_energy": -10.918, "intermolecular_energy": -14.109, "internal_energy": 0.29}

$$$$
cand_049_out
     RDKit          3D

 47 49  0  0  0  0  0  0  0  0999 V2000
   47.6480  159.0530   30.0600 C   0  0  0  0  0  0  0  0  0  0  0  0
   48.6930  158.7630   31.1290 C   0  0  0  0  0  0  0  0  0  0  0  0
   50.0920  158.7310   30.5540 C   0  0  0  0  0  0  0  0  0  0  0  0
   50.4780  157.5860   29.8260 C   0  0  0  0  0  0  0  0  0  0  0  0
   51.7390  157.4800   29.2210 C   0  0  0  0  0  0  0  0  0  0  0  0
   52.1060  156.2460   28.4940 C   0  0  0  0  0  0  0  0  0  0  0  0
   52.6320  156.4990   27.2320 O   0  0  0  0  0  0  0  0  0  0  0  0
   53.0150  155.4420   26.4490 C   0  0  0  0  0  0  0  0  0  0  0  0
   53.5250  155.7410   25.1850 C   0  0  0  0  0  0  0  0  0  0  0  0
   53.9360  154.7100   24.3370 C   0  0  0  0  0  0  0  0  0  0  0  0
   53.8370  153.3810   24.7520 C   0  0  0  0  0  0  0  0  0  0  0  0
   53.3280  153.0840   26.0140 C   0  0  0  0  0  0  0  0  0  0  0  0
   53.2600  151.7630   26.3580 O   0  0  0  0  0  0  0  0  0  0  0  0
   52.9170  154.1160   26.8620 C   0  0  0  0  0  0  0  0  0  0  0  0
   52.3760  153.8490   28.1960 C   0  0  0  0  0  0  0  0  0  0  0  0
   52.2650  152.7060   28.6350 O   0  0  0  0  0  0  0  0  0  0  0  0
   51.9620  155.0130   29.0130 C   0  0  0  0  0  0  0  0  0  0  0  0
   51.4660  154.7480   30.2770 O   0  0  0  0  0  0  0  0  0  0  0  0
   52.6310  158.5460   29.3610 C   0  0  0  0  0  0  0  0  0  0  0  0
   52.2650  159.6900   30.0740 C   0  0  0  0  0  0  0  0  0  0  0  0
   51.0010  159.8010   30.6780 C   0  0  0  0  0  0  0  0  0  0  0  0
   50.6810  161.0690   31.4440 C   0  0  0  0  0  0  0  0  0  0  0  0
   49.3770  160.9940   32.2630 C   0  0  0  0  0  0  0  0  0  0  0  0
   49.6400  160.9380   33.7700 C   0  0  0  0  0  0  0  0  0  0  0  0
   48.4950  162.2030   31.9410 C   0  0  0  0  0  0  0  0  0  0  0  0
   46.6949  159.3175   30.5412 H   0  0  0  0  0  0  0  0  0  0  0  0
   47.9873  159.8909   29.4333 H   0  0  0  0  0  0  0  0  0  0  0  0
   47.5070  158.1600   29.4333 H   0  0  0  0  0  0  0  0  0  0  0  0
   48.6423  159.5475   31.8984 H   0  0  0  0  0  0  0  0  0  0  0  0
   48.4773  157.7734   31.5581 H   0  0  0  0  0  0  0  0  0  0  0  0
   49.7685  156.7509   29.7299 H   0  0  0  0  0  0  0  0  0  0  0  0
   53.6033  156.7879   24.8566 H   0  0  0  0  0  0  0  0  0  0  0  0
   54.3383  154.9458   23.3407 H   0  0  0  0  0  0  0  0  0  0  0  0
   54.1604  152.5695   24.0835 H   0  0  0  0  0  0  0  0  0  0  0  0
   52.4450  151.3030   26.2930 H   0  0  0  0  0  0  0  0  0  0  0  0
   50.6210  155.0710   30.5250 H   0  0  0  0  0  0  0  0  0  0  0  0
   53.6304  158.4839   28.9057 H   0  0  0  0  0  0  0  0  0  0  0  0
   52.9805  160.5206   30.1645 H   0  0  0  0  0  0  0  0  0  0  0  0
   51.5120  161.2750   32.1347 H   0  0  0  0  0  0  0  0  0  0  0  0
   50.5432  161.8655   30.6980 H   0  0  0  0  0  0  0  0  0  0  0  0
   48.8642  160.0626   31.9809 H   0  0  0  0  0  0  0  0  0  0  0  0
   48.7044  161.1372   34.3131 H   0  0  0  0  0  0  0  0  0  0  0  0
   50.0152  159.9398   34.0399 H   0  0  0  0  0  0  0  0  0  0  0  0
   50.3893  161.6967   34.0399 H   0  0  0  0  0  0  0  0  0  0  0  0
   48.1552  162.6688   32.8778 H   0  0  0  0  0  0  0  0  0  0  0  0
   49.0736  162.9338   31.3569 H   0  0  0  0  0  0  0  0  0  0  0  0
   47.6224  161.8751   31.3569 H   0  0  0  0  0  0  0  0  0  0  0  0
  1  2  1  0
  2  3  1  0
  3  4  2  0
  4  5  1  0
  5  6  1  0
  6  7  1  0
  7  8  1  0
  8  9  2  0
  9 10  1  0
 10 11  2  0
 11 12  1  0
 12 13  1  0
 12 14  2  0
 14 15  1  0
 15 16  2  0
 15 17  1  0
 17 18  1  0
  5 19  2  0
 19 20  1  0
 20 21  2  0
 21 22  1  0
 22 23  1  0
 23 24  1  0
 23 25  1  0
 21  3  1  0
 17  6  2  0
 14  8  1  0
  1 26  1  0
  1 27  1  0
  1 28  1  0
  2 29  1  0
  2 30  1  0
  4 31  1  0
  9 32  1  0
 10 33  1  0
 11 34  1  0
 13 35  1  0
 18 36  1  0
 19 37  1  0
 20 38  1  0
 22 39  1  0
 22 40  1  0
 23 41  1  0
 24 42  1  0
 24 43  1  0
 24 44  1  0
 25 45  1  0
 25 46  1  0
 25 47  1  0
M  END
>  <meeko>  (2) 
{"is_sidechain": [false], "free_energy": -10.845, "intermolecular_energy": -14.354, "internal_energy": 0.628}

$$$$
cand_049_out
     RDKit          3D

 47 49  0  0  0  0  0  0  0  0999 V2000
   54.3030  156.2370   24.8670 C   0  0  0  0  0  0  0  0  0  0  0  0
   53.1820  155.2110   24.9690 C   0  0  0  0  0  0  0  0  0  0  0  0
   52.7440  154.9960   26.4010 C   0  0  0  0  0  0  0  0  0  0  0  0
   52.3560  156.1280   27.1480 C   0  0  0  0  0  0  0  0  0  0  0  0
   51.8980  156.0250   28.4690 C   0  0  0  0  0  0  0  0  0  0  0  0
   51.5310  157.2460   29.2190 C   0  0  0  0  0  0  0  0  0  0  0  0
   50.2240  157.2160   29.6930 O   0  0  0  0  0  0  0  0  0  0  0  0
   49.7530  158.2880   30.4070 C   0  0  0  0  0  0  0  0  0  0  0  0
   48.4320  158.2220   30.8510 C   0  0  0  0  0  0  0  0  0  0  0  0
   47.8900  159.2790   31.5850 C   0  0  0  0  0  0  0  0  0  0  0  0
   48.6690  160.4000   31.8770 C   0  0  0  0  0  0  0  0  0  0  0  0
   49.9880  160.4640   31.4330 C   0  0  0  0  0  0  0  0  0  0  0  0
   50.6940  161.5900   31.7540 O   0  0  0  0  0  0  0  0  0  0  0  0
   50.5290  159.4060   30.6970 C   0  0  0  0  0  0  0  0  0  0  0  0
   51.9100  159.4320   30.2120 C   0  0  0  0  0  0  0  0  0  0  0  0
   52.6600  160.3800   30.4340 O   0  0  0  0  0  0  0  0  0  0  0  0
   52.3850  158.2640   29.4350 C   0  0  0  0  0  0  0  0  0  0  0  0
   53.6950  158.2940   28.9930 O   0  0  0  0  0  0  0  0  0  0  0  0
   51.8380  154.7570   29.0510 C   0  0  0  0  0  0  0  0  0  0  0  0
   52.2120  153.6230   28.3260 C   0  0  0  0  0  0  0  0  0  0  0  0
   52.6690  153.7220   27.0000 C   0  0  0  0  0  0  0  0  0  0  0  0
   53.0670  152.4490   26.2820 C   0  0  0  0  0  0  0  0  0  0  0  0
   54.2210  152.6330   25.2760 C   0  0  0  0  0  0  0  0  0  0  0  0
   55.5840  152.2940   25.8850 C   0  0  0  0  0  0  0  0  0  0  0  0
   53.9770  151.7540   24.0450 C   0  0  0  0  0  0  0  0  0  0  0  0
   54.6241  156.5309   25.8772 H   0  0  0  0  0  0  0  0  0  0  0  0
   55.1536  155.7980   24.3251 H   0  0  0  0  0  0  0  0  0  0  0  0
   53.9409  157.1231   24.3251 H   0  0  0  0  0  0  0  0  0  0  0  0
   52.3211  155.5651   24.3830 H   0  0  0  0  0  0  0  0  0  0  0  0
   53.5590  154.2537   24.5800 H   0  0  0  0  0  0  0  0  0  0  0  0
   52.4146  157.1217   26.6798 H   0  0  0  0  0  0  0  0  0  0  0  0
   47.8181  157.3382   30.6231 H   0  0  0  0  0  0  0  0  0  0  0  0
   46.8479  159.2283   31.9336 H   0  0  0  0  0  0  0  0  0  0  0  0
   48.2420  161.2316   32.4568 H   0  0  0  0  0  0  0  0  0  0  0  0
   51.5440  161.7310   31.3840 H   0  0  0  0  0  0  0  0  0  0  0  0
   54.2330  159.0410   29.1710 H   0  0  0  0  0  0  0  0  0  0  0  0
   51.4930  154.6502   30.0900 H   0  0  0  0  0  0  0  0  0  0  0  0
   52.1477  152.6333   28.8018 H   0  0  0  0  0  0  0  0  0  0  0  0
   53.3785  151.7098   27.0348 H   0  0  0  0  0  0  0  0  0  0  0  0
   52.1900  152.1207   25.7049 H   0  0  0  0  0  0  0  0  0  0  0  0
   54.2411  153.6948   24.9894 H   0  0  0  0  0  0  0  0  0  0  0  0
   55.5101  152.3124   26.9824 H   0  0  0  0  0  0  0  0  0  0  0  0
   55.8939  151.2914   25.5551 H   0  0  0  0  0  0  0  0  0  0  0  0
   56.3274  153.0346   25.5551 H   0  0  0  0  0  0  0  0  0  0  0  0
   53.6957  150.7408   24.3679 H   0  0  0  0  0  0  0  0  0  0  0  0
   53.1646  152.1853   23.4417 H   0  0  0  0  0  0  0  0  0  0  0  0
   54.8955  151.7049   23.4417 H   0  0  0  0  0  0  0  0  0  0  0  0
  1  2  1  0
  2  3  1  0
  3  4  2  0
  4  5  1  0
  5  6  1  0
  6  7  1  0
  7  8  1  0
  8  9  2  0
  9 10  1  0
 10 11  2  0
 11 12  1  0
 12 13  1  0
 12 14  2  0
 14 15  1  0
 15 16  2  0
 15 17  1  0
 17 18  1  0
  5 19  2  0
 19 20  1  0
 20 21  2  0
 21 22  1  0
 22 23  1  0
 23 24  1  0
 23 25  1  0
 21  3  1  0
 17  6  2  0
 14  8  1  0
  1 26  1  0
  1 27  1  0
  1 28  1  0
  2 29  1  0
  2 30  1  0
  4 31  1  0
  9 32  1  0
 10 33  1  0
 11 34  1  0
 13 35  1  0
 18 36  1  0
 19 37  1  0
 20 38  1  0
 22 39  1  0
 22 40  1  0
 23 41  1  0
 24 42  1  0
 24 43  1  0
 24 44  1  0
 25 45  1  0
 25 46  1  0
 25 47  1  0
M  END
>  <meeko>  (3) 
{"is_sidechain": [false], "free_energy": -10.838, "intermolecular_energy": -13.677, "internal_energy": -0.039}

$$$$
cand_049_out
     RDKit          3D

 47 49  0  0  0  0  0  0  0  0999 V2000
   51.5990  152.6250   27.8660 C   0  0  0  0  0  0  0  0  0  0  0  0
   51.9670  153.5740   28.9990 C   0  0  0  0  0  0  0  0  0  0  0  0
   52.1720  154.9890   28.5030 C   0  0  0  0  0  0  0  0  0  0  0  0
   51.6820  156.0430   29.3010 C   0  0  0  0  0  0  0  0  0  0  0  0
   51.8590  157.3880   28.9460 C   0  0  0  0  0  0  0  0  0  0  0  0
   51.3000  158.4570   29.8020 C   0  0  0  0  0  0  0  0  0  0  0  0
   49.9670  158.2390   30.1340 O   0  0  0  0  0  0  0  0  0  0  0  0
   49.3230  159.1550   30.9250 C   0  0  0  0  0  0  0  0  0  0  0  0
   47.9830  158.9050   31.2220 C   0  0  0  0  0  0  0  0  0  0  0  0
   47.2690  159.7970   32.0250 C   0  0  0  0  0  0  0  0  0  0  0  0
   47.8940  160.9380   32.5310 C   0  0  0  0  0  0  0  0  0  0  0  0
   49.2320  161.1860   32.2340 C   0  0  0  0  0  0  0  0  0  0  0  0
   49.7820  162.3210   32.7620 O   0  0  0  0  0  0  0  0  0  0  0  0
   49.9460  160.2930   31.4300 C   0  0  0  0  0  0  0  0  0  0  0  0
   51.3530  160.5150   31.0920 C   0  0  0  0  0  0  0  0  0  0  0  0
   51.9740  161.4920   31.5060 O   0  0  0  0  0  0  0  0  0  0  0  0
   52.0170  159.5130   30.2280 C   0  0  0  0  0  0  0  0  0  0  0  0
   53.3500  159.7270   29.9270 O   0  0  0  0  0  0  0  0  0  0  0  0
   52.5360  157.6750   27.7580 C   0  0  0  0  0  0  0  0  0  0  0  0
   53.0340  156.6440   26.9570 C   0  0  0  0  0  0  0  0  0  0  0  0
   52.8620  155.2950   27.3130 C   0  0  0  0  0  0  0  0  0  0  0  0
   53.4200  154.2330   26.3870 C   0  0  0  0  0  0  0  0  0  0  0  0
   53.5500  154.6880   24.9190 C   0  0  0  0  0  0  0  0  0  0  0  0
   54.7590  155.5990   24.6980 C   0  0  0  0  0  0  0  0  0  0  0  0
   53.6590  153.4620   24.0070 C   0  0  0  0  0  0  0  0  0  0  0  0
   51.2315  151.6772   28.2863 H   0  0  0  0  0  0  0  0  0  0  0  0
   50.8125  153.0809   27.2467 H   0  0  0  0  0  0  0  0  0  0  0  0
   52.4873  152.4315   27.2467 H   0  0  0  0  0  0  0  0  0  0  0  0
   51.1567  153.5714   29.7429 H   0  0  0  0  0  0  0  0  0  0  0  0
   52.9120  153.2269   29.4423 H   0  0  0  0  0  0  0  0  0  0  0  0
   51.1445  155.8030   30.2303 H   0  0  0  0  0  0  0  0  0  0  0  0
   47.4893  158.0062   30.8241 H   0  0  0  0  0  0  0  0  0  0  0  0
   46.2124  159.6001   32.2591 H   0  0  0  0  0  0  0  0  0  0  0  0
   47.3307  161.6401   33.1633 H   0  0  0  0  0  0  0  0  0  0  0  0
   50.7100  162.3780   32.8840 H   0  0  0  0  0  0  0  0  0  0  0  0
   53.5900  160.0980   29.1000 H   0  0  0  0  0  0  0  0  0  0  0  0
   52.6782  158.7216   27.4506 H   0  0  0  0  0  0  0  0  0  0  0  0
   53.5711  156.8928   26.0298 H   0  0  0  0  0  0  0  0  0  0  0  0
   54.4180  153.9466   26.7503 H   0  0  0  0  0  0  0  0  0  0  0  0
   52.7088  153.3939   26.3989 H   0  0  0  0  0  0  0  0  0  0  0  0
   52.6483  155.2680   24.6730 H   0  0  0  0  0  0  0  0  0  0  0  0
   55.1684  155.9075   25.6712 H   0  0  0  0  0  0  0  0  0  0  0  0
   55.5294  155.0550   24.1319 H   0  0  0  0  0  0  0  0  0  0  0  0
   54.4484  156.4896   24.1319 H   0  0  0  0  0  0  0  0  0  0  0  0
   53.7398  152.5536   24.6220 H   0  0  0  0  0  0  0  0  0  0  0  0
   52.7631  153.3965   23.3721 H   0  0  0  0  0  0  0  0  0  0  0  0
   54.5524  153.5556   23.3721 H   0  0  0  0  0  0  0  0  0  0  0  0
  1  2  1  0
  2  3  1  0
  3  4  2  0
  4  5  1  0
  5  6  1  0
  6  7  1  0
  7  8  1  0
  8  9  2  0
  9 10  1  0
 10 11  2  0
 11 12  1  0
 12 13  1  0
 12 14  2  0
 14 15  1  0
 15 16  2  0
 15 17  1  0
 17 18  1  0
  5 19  2  0
 19 20  1  0
 20 21  2  0
 21 22  1  0
 22 23  1  0
 23 24  1  0
 23 25  1  0
 21  3  1  0
 17  6  2  0
 14  8  1  0
  1 26  1  0
  1 27  1  0
  1 28  1  0
  2 29  1  0
  2 30  1  0
  4 31  1  0
  9 32  1  0
 10 33  1  0
 11 34  1  0
 13 35  1  0
 18 36  1  0
 19 37  1  0
 20 38  1  0
 22 39  1  0
 22 40  1  0
 23 41  1  0
 24 42  1  0
 24 43  1  0
 24 44  1  0
 25 45  1  0
 25 46  1  0
 25 47  1  0
M  END
>  <meeko>  (4) 
{"is_sidechain": [false], "free_energy": -10.347, "intermolecular_energy": -13.679, "internal_energy": 0.599}

$$$$
cand_049_out
     RDKit          3D

 47 49  0  0  0  0  0  0  0  0999 V2000
   47.7810  158.0110   29.6670 C   0  0  0  0  0  0  0  0  0  0  0  0
   48.8500  157.7580   30.7220 C   0  0  0  0  0  0  0  0  0  0  0  0
   50.2430  157.8130   30.1360 C   0  0  0  0  0  0  0  0  0  0  0  0
   50.6690  156.7240   29.3470 C   0  0  0  0  0  0  0  0  0  0  0  0
   51.9270  156.7010   28.7280 C   0  0  0  0  0  0  0  0  0  0  0  0
   52.3380  155.5220   27.9360 C   0  0  0  0  0  0  0  0  0  0  0  0
   53.0420  155.8630   26.7870 O   0  0  0  0  0  0  0  0  0  0  0  0
   53.4840  154.8630   25.9590 C   0  0  0  0  0  0  0  0  0  0  0  0
   54.1740  155.2510   24.8100 C   0  0  0  0  0  0  0  0  0  0  0  0
   54.6530  154.2830   23.9240 C   0  0  0  0  0  0  0  0  0  0  0  0
   54.4420  152.9280   24.1880 C   0  0  0  0  0  0  0  0  0  0  0  0
   53.7540  152.5430   25.3350 C   0  0  0  0  0  0  0  0  0  0  0  0
   53.5840  151.2010   25.5330 O   0  0  0  0  0  0  0  0  0  0  0  0
   53.2740  153.5130   26.2210 C   0  0  0  0  0  0  0  0  0  0  0  0
   52.5450  153.1520   27.4380 C   0  0  0  0  0  0  0  0  0  0  0  0
   52.3270  151.9810   27.7430 O   0  0  0  0  0  0  0  0  0  0  0  0
   52.0730  154.2550   28.3060 C   0  0  0  0  0  0  0  0  0  0  0  0
   51.3980  153.9020   29.4600 O   0  0  0  0  0  0  0  0  0  0  0  0
   52.7760  157.7950   28.9160 C   0  0  0  0  0  0  0  0  0  0  0  0
   52.3700  158.8850   29.6890 C   0  0  0  0  0  0  0  0  0  0  0  0
   51.1080  158.9120   30.3070 C   0  0  0  0  0  0  0  0  0  0  0  0
   50.7440  160.1250   31.1390 C   0  0  0  0  0  0  0  0  0  0  0  0
   49.3530  160.7090   30.8190 C   0  0  0  0  0  0  0  0  0  0  0  0
   48.9950  161.8900   31.7250 C   0  0  0  0  0  0  0  0  0  0  0  0
   49.3050  161.1540   29.3540 C   0  0  0  0  0  0  0  0  0  0  0  0
   46.8246  158.2374   30.1610 H   0  0  0  0  0  0  0  0  0  0  0  0
   48.0800  158.8632   29.0390 H   0  0  0  0  0  0  0  0  0  0  0  0
   47.6663  157.1152   29.0390 H   0  0  0  0  0  0  0  0  0  0  0  0
   48.7636  158.5238   31.5069 H   0  0  0  0  0  0  0  0  0  0  0  0
   48.6921  156.7500   31.1332 H   0  0  0  0  0  0  0  0  0  0  0  0
   49.9934  155.8663   29.2132 H   0  0  0  0  0  0  0  0  0  0  0  0
   54.3407  156.3182   24.6020 H   0  0  0  0  0  0  0  0  0  0  0  0
   55.1967  154.5883   23.0178 H   0  0  0  0  0  0  0  0  0  0  0  0
   54.8191  152.1658   23.4902 H   0  0  0  0  0  0  0  0  0  0  0  0
   53.2310  150.6670   24.8480 H   0  0  0  0  0  0  0  0  0  0  0  0
   51.5830  153.0840   29.8790 H   0  0  0  0  0  0  0  0  0  0  0  0
   53.7729  157.7976   28.4510 H   0  0  0  0  0  0  0  0  0  0  0  0
   53.0513  159.7391   29.8167 H   0  0  0  0  0  0  0  0  0  0  0  0
   50.7620  159.8351   32.2000 H   0  0  0  0  0  0  0  0  0  0  0  0
   51.4804  160.9070   30.9018 H   0  0  0  0  0  0  0  0  0  0  0  0
   48.6134  159.9154   31.0014 H   0  0  0  0  0  0  0  0  0  0  0  0
   49.0873  161.5855   32.7780 H   0  0  0  0  0  0  0  0  0  0  0  0
   49.6798  162.7271   31.5240 H   0  0  0  0  0  0  0  0  0  0  0  0
   47.9607  162.2060   31.5240 H   0  0  0  0  0  0  0  0  0  0  0  0
   49.1871  162.2466   29.3064 H   0  0  0  0  0  0  0  0  0  0  0  0
   50.2397  160.8638   28.8518 H   0  0  0  0  0  0  0  0  0  0  0  0
   48.4537  160.6711   28.8518 H   0  0  0  0  0  0  0  0  0  0  0  0
  1  2  1  0
  2  3  1  0
  3  4  2  0
  4  5  1  0
  5  6  1  0
  6  7  1  0
  7  8  1  0
  8  9  2  0
  9 10  1  0
 10 11  2  0
 11 12  1  0
 12 13  1  0
 12 14  2  0
 14 15  1  0
 15 16  2  0
 15 17  1  0
 17 18  1  0
  5 19  2  0
 19 20  1  0
 20 21  2  0
 21 22  1  0
 22 23  1  0
 23 24  1  0
 23 25  1  0
 21  3  1  0
 17  6  2  0
 14  8  1  0
  1 26  1  0
  1 27  1  0
  1 28  1  0
  2 29  1  0
  2 30  1  0
  4 31  1  0
  9 32  1  0
 10 33  1  0
 11 34  1  0
 13 35  1  0
 18 36  1  0
 19 37  1  0
 20 38  1  0
 22 39  1  0
 22 40  1  0
 23 41  1  0
 24 42  1  0
 24 43  1  0
 24 44  1  0
 25 45  1  0
 25 46  1  0
 25 47  1  0
M  END
>  <meeko>  (5) 
{"is_sidechain": [false], "free_energy": -10.282, "intermolecular_energy": -13.12, "internal_energy": 0.123}

$$$$
cand_049_out
     RDKit          3D

 47 49  0  0  0  0  0  0  0  0999 V2000
   51.5620  152.3730   27.3850 C   0  0  0  0  0  0  0  0  0  0  0  0
   52.0500  153.1760   28.5830 C   0  0  0  0  0  0  0  0  0  0  0  0
   52.1950  154.6450   28.2550 C   0  0  0  0  0  0  0  0  0  0  0  0
   51.5070  155.5710   29.0660 C   0  0  0  0  0  0  0  0  0  0  0  0
   51.6110  156.9550   28.8660 C   0  0  0  0  0  0  0  0  0  0  0  0
   50.8450  157.8840   29.7260 C   0  0  0  0  0  0  0  0  0  0  0  0
   51.5900  158.9870   30.1270 O   0  0  0  0  0  0  0  0  0  0  0  0
   51.0010  159.9300   30.9290 C   0  0  0  0  0  0  0  0  0  0  0  0
   51.7890  161.0130   31.3180 C   0  0  0  0  0  0  0  0  0  0  0  0
   51.2500  162.0100   32.1340 C   0  0  0  0  0  0  0  0  0  0  0  0
   49.9220  161.9250   32.5590 C   0  0  0  0  0  0  0  0  0  0  0  0
   49.1370  160.8430   32.1680 C   0  0  0  0  0  0  0  0  0  0  0  0
   47.8460  160.8220   32.6190 O   0  0  0  0  0  0  0  0  0  0  0  0
   49.6780  159.8450   31.3530 C   0  0  0  0  0  0  0  0  0  0  0  0
   48.8880  158.6910   30.9190 C   0  0  0  0  0  0  0  0  0  0  0  0
   47.7110  158.5500   31.2450 O   0  0  0  0  0  0  0  0  0  0  0  0
   49.5570  157.6860   30.0620 C   0  0  0  0  0  0  0  0  0  0  0  0
   48.7960  156.6080   29.6470 O   0  0  0  0  0  0  0  0  0  0  0  0
   52.4180  157.4140   27.8220 C   0  0  0  0  0  0  0  0  0  0  0  0
   53.1110  156.5120   27.0120 C   0  0  0  0  0  0  0  0  0  0  0  0
   53.0120  155.1250   27.2120 C   0  0  0  0  0  0  0  0  0  0  0  0
   53.7870  154.2090   26.2850 C   0  0  0  0  0  0  0  0  0  0  0  0
   53.7660  154.6530   24.8080 C   0  0  0  0  0  0  0  0  0  0  0  0
   54.9290  155.5880   24.4660 C   0  0  0  0  0  0  0  0  0  0  0  0
   53.8160  153.4210   23.8990 C   0  0  0  0  0  0  0  0  0  0  0  0
   51.0207  151.4823   27.7365 H   0  0  0  0  0  0  0  0  0  0  0  0
   50.8889  152.9947   26.7765 H   0  0  0  0  0  0  0  0  0  0  0  0
   52.4239  152.0618   26.7765 H   0  0  0  0  0  0  0  0  0  0  0  0
   51.3269  153.0646   29.4044 H   0  0  0  0  0  0  0  0  0  0  0  0
   53.0394  152.7915   28.8713 H   0  0  0  0  0  0  0  0  0  0  0  0
   50.8694  155.1963   29.8802 H   0  0  0  0  0  0  0  0  0  0  0  0
   52.8343  161.0818   30.9823 H   0  0  0  0  0  0  0  0  0  0  0  0
   51.8719  162.8633   32.4424 H   0  0  0  0  0  0  0  0  0  0  0  0
   49.4973  162.7108   33.2010 H   0  0  0  0  0  0  0  0  0  0  0  0
   47.4520  160.0110   32.8740 H   0  0  0  0  0  0  0  0  0  0  0  0
   48.0140  156.7500   29.1510 H   0  0  0  0  0  0  0  0  0  0  0  0
   52.5082  158.4945   27.6366 H   0  0  0  0  0  0  0  0  0  0  0  0
   53.7474  156.8953   26.2008 H   0  0  0  0  0  0  0  0  0  0  0  0
   54.8334  154.1788   26.6229 H   0  0  0  0  0  0  0  0  0  0  0  0
   53.3007  153.2233   26.3295 H   0  0  0  0  0  0  0  0  0  0  0  0
   52.8321  155.2108   24.6449 H   0  0  0  0  0  0  0  0  0  0  0  0
   55.3881  155.9571   25.3950 H   0  0  0  0  0  0  0  0  0  0  0  0
   55.6800  155.0394   23.8786 H   0  0  0  0  0  0  0  0  0  0  0  0
   54.5545  156.4393   23.8786 H   0  0  0  0  0  0  0  0  0  0  0  0
   53.8529  152.5112   24.5162 H   0  0  0  0  0  0  0  0  0  0  0  0
   52.9181  153.3971   23.2640 H   0  0  0  0  0  0  0  0  0  0  0  0
   54.7129  153.4700   23.2640 H   0  0  0  0  0  0  0  0  0  0  0  0
  1  2  1  0
  2  3  1  0
  3  4  2  0
  4  5  1  0
  5  6  1  0
  6  7  1  0
  7  8  1  0
  8  9  2  0
  9 10  1  0
 10 11  2  0
 11 12  1  0
 12 13  1  0
 12 14  2  0
 14 15  1  0
 15 16  2  0
 15 17  1  0
 17 18  1  0
  5 19  2  0
 19 20  1  0
 20 21  2  0
 21 22  1  0
 22 23  1  0
 23 24  1  0
 23 25  1  0
 21  3  1  0
 17  6  2  0
 14  8  1  0
  1 26  1  0
  1 27  1  0
  1 28  1  0
  2 29  1  0
  2 30  1  0
  4 31  1  0
  9 32  1  0
 10 33  1  0
 11 34  1  0
 13 35  1  0
 18 36  1  0
 19 37  1  0
 20 38  1  0
 22 39  1  0
 22 40  1  0
 23 41  1  0
 24 42  1  0
 24 43  1  0
 24 44  1  0
 25 45  1  0
 25 46  1  0
 25 47  1  0
M  END
>  <meeko>  (6) 
{"is_sidechain": [false], "free_energy": -9.087, "intermolecular_energy": -11.577, "internal_energy": 0.123}

$$$$
cand_049_out
     RDKit          3D

 47 49  0  0  0  0  0  0  0  0999 V2000
   54.1620  156.6300   25.1970 C   0  0  0  0  0  0  0  0  0  0  0  0
   53.3510  155.3410   25.2060 C   0  0  0  0  0  0  0  0  0  0  0  0
   52.8310  155.0140   26.5890 C   0  0  0  0  0  0  0  0  0  0  0  0
   52.1850  156.0410   27.3090 C   0  0  0  0  0  0  0  0  0  0  0  0
   51.6340  155.8230   28.5800 C   0  0  0  0  0  0  0  0  0  0  0  0
   50.9940  156.9410   29.3070 C   0  0  0  0  0  0  0  0  0  0  0  0
   51.8700  157.9900   29.5640 O   0  0  0  0  0  0  0  0  0  0  0  0
   51.4060  159.0930   30.2330 C   0  0  0  0  0  0  0  0  0  0  0  0
   52.3220  160.1150   30.4830 C   0  0  0  0  0  0  0  0  0  0  0  0
   51.9150  161.2670   31.1580 C   0  0  0  0  0  0  0  0  0  0  0  0
   50.5910  161.3980   31.5830 C   0  0  0  0  0  0  0  0  0  0  0  0
   49.6780  160.3770   31.3330 C   0  0  0  0  0  0  0  0  0  0  0  0
   48.3980  160.5700   31.7750 O   0  0  0  0  0  0  0  0  0  0  0  0
   50.0870  159.2240   30.6570 C   0  0  0  0  0  0  0  0  0  0  0  0
   49.1600  158.1270   30.3740 C   0  0  0  0  0  0  0  0  0  0  0  0
   47.9780  158.1710   30.7090 O   0  0  0  0  0  0  0  0  0  0  0  0
   49.6950  156.9450   29.6590 C   0  0  0  0  0  0  0  0  0  0  0  0
   48.8060  155.9210   29.3840 O   0  0  0  0  0  0  0  0  0  0  0  0
   51.7450  154.5490   29.1390 C   0  0  0  0  0  0  0  0  0  0  0  0
   52.3760  153.5170   28.4390 C   0  0  0  0  0  0  0  0  0  0  0  0
   52.9250  153.7310   27.1630 C   0  0  0  0  0  0  0  0  0  0  0  0
   53.6030  152.5660   26.4710 C   0  0  0  0  0  0  0  0  0  0  0  0
   54.4810  152.9760   25.2710 C   0  0  0  0  0  0  0  0  0  0  0  0
   55.9750  152.8080   25.5590 C   0  0  0  0  0  0  0  0  0  0  0  0
   54.0990  152.1420   24.0440 C   0  0  0  0  0  0  0  0  0  0  0  0
   54.3605  156.9455   26.2319 H   0  0  0  0  0  0  0  0  0  0  0  0
   55.1158  156.4595   24.6763 H   0  0  0  0  0  0  0  0  0  0  0  0
   53.5954  157.4160   24.6763 H   0  0  0  0  0  0  0  0  0  0  0  0
   52.4970  155.4528   24.5217 H   0  0  0  0  0  0  0  0  0  0  0  0
   54.0096  154.5204   24.8854 H   0  0  0  0  0  0  0  0  0  0  0  0
   52.1113  157.0425   26.8601 H   0  0  0  0  0  0  0  0  0  0  0  0
   53.3649  160.0131   30.1482 H   0  0  0  0  0  0  0  0  0  0  0  0
   52.6377  162.0724   31.3554 H   0  0  0  0  0  0  0  0  0  0  0  0
   50.2702  162.3062   32.1143 H   0  0  0  0  0  0  0  0  0  0  0  0
   47.9170  161.3260   31.5000 H   0  0  0  0  0  0  0  0  0  0  0  0
   49.1270  155.0760   29.1360 H   0  0  0  0  0  0  0  0  0  0  0  0
   51.3320  154.3553   30.1399 H   0  0  0  0  0  0  0  0  0  0  0  0
   52.4443  152.5184   28.8953 H   0  0  0  0  0  0  0  0  0  0  0  0
   54.2392  152.0499   27.2051 H   0  0  0  0  0  0  0  0  0  0  0  0
   52.8043  151.9208   26.0762 H   0  0  0  0  0  0  0  0  0  0  0  0
   54.2983  154.0436   25.0792 H   0  0  0  0  0  0  0  0  0  0  0  0
   56.1390  152.7896   26.6466 H   0  0  0  0  0  0  0  0  0  0  0  0
   56.3294  151.8643   25.1187 H   0  0  0  0  0  0  0  0  0  0  0  0
   56.5302  153.6494   25.1187 H   0  0  0  0  0  0  0  0  0  0  0  0
   53.6617  151.1872   24.3713 H   0  0  0  0  0  0  0  0  0  0  0  0
   53.3640  152.6940   23.4398 H   0  0  0  0  0  0  0  0  0  0  0  0
   54.9971  151.9460   23.4398 H   0  0  0  0  0  0  0  0  0  0  0  0
  1  2  1  0
  2  3  1  0
  3  4  2  0
  4  5  1  0
  5  6  1  0
  6  7  1  0
  7  8  1  0
  8  9  2  0
  9 10  1  0
 10 11  2  0
 11 12  1  0
 12 13  1  0
 12 14  2  0
 14 15  1  0
 15 16  2  0
 15 17  1  0
 17 18  1  0
  5 19  2  0
 19 20  1  0
 20 21  2  0
 21 22  1  0
 22 23  1  0
 23 24  1  0
 23 25  1  0
 21  3  1  0
 17  6  2  0
 14  8  1  0
  1 26  1  0
  1 27  1  0
  1 28  1  0
  2 29  1  0
  2 30  1  0
  4 31  1  0
  9 32  1  0
 10 33  1  0
 11 34  1  0
 13 35  1  0
 18 36  1  0
 19 37  1  0
 20 38  1  0
 22 39  1  0
 22 40  1  0
 23 41  1  0
 24 42  1  0
 24 43  1  0
 24 44  1  0
 25 45  1  0
 25 46  1  0
 25 47  1  0
M  END
>  <meeko>  (7) 
{"is_sidechain": [false], "free_energy": -9.082, "intermolecular_energy": -11.739, "internal_energy": 0.292}

$$$$
