cand_019_out
     RDKit          3D

 35 37  0  0  0  0  0  0  0  0999 V2000
   52.1490  152.9450   28.8190 O   0  0  0  0  0  0  0  0  0  0  0  0
   52.2610  154.1040   28.4270 C   0  0  0  0  0  0  0  0  0  0  0  0
   51.7610  155.2280   29.2510 C   0  0  0  0  0  0  0  0  0  0  0  0
   51.1590  154.9070   30.4540 O   0  0  0  0  0  0  0  0  0  0  0  0
   51.9040  156.4820   28.7830 C   0  0  0  0  0  0  0  0  0  0  0  0
   51.4310  157.6780   29.5140 C   0  0  0  0  0  0  0  0  0  0  0  0
   52.2580  158.7860   29.7240 C   0  0  0  0  0  0  0  0  0  0  0  0
   51.7830  159.9160   30.3970 C   0  0  0  0  0  0  0  0  0  0  0  0
   50.4660  159.9660   30.8760 C   0  0  0  0  0  0  0  0  0  0  0  0
   49.9830  161.2030   31.5910 C   0  0  0  0  0  0  0  0  0  0  0  0
   49.9990  161.0590   32.9460 F   0  0  0  0  0  0  0  0  0  0  0  0
   49.6090  158.8680   30.6490 C   0  0  0  0  0  0  0  0  0  0  0  0
   48.1720  158.8800   31.1230 C   0  0  0  0  0  0  0  0  0  0  0  0
   48.0740  158.8920   32.4820 F   0  0  0  0  0  0  0  0  0  0  0  0
   47.4790  159.9790   30.7040 F   0  0  0  0  0  0  0  0  0  0  0  0
   50.1070  157.7370   29.9740 C   0  0  0  0  0  0  0  0  0  0  0  0
   52.4860  156.7910   27.5600 O   0  0  0  0  0  0  0  0  0  0  0  0
   52.9650  155.7710   26.7770 C   0  0  0  0  0  0  0  0  0  0  0  0
   53.5510  156.1280   25.5610 C   0  0  0  0  0  0  0  0  0  0  0  0
   54.0580  155.1380   24.7160 C   0  0  0  0  0  0  0  0  0  0  0  0
   53.9780  153.7940   25.0850 C   0  0  0  0  0  0  0  0  0  0  0  0
   53.3920  153.4410   26.2990 C   0  0  0  0  0  0  0  0  0  0  0  0
   53.3470  152.1070   26.5970 O   0  0  0  0  0  0  0  0  0  0  0  0
   52.8860  154.4320   27.1430 C   0  0  0  0  0  0  0  0  0  0  0  0
   51.6850  154.7050   31.2030 H   0  0  0  0  0  0  0  0  0  0  0  0
   53.2943  158.7684   29.3555 H   0  0  0  0  0  0  0  0  0  0  0  0
   52.4507  160.7762   30.5526 H   0  0  0  0  0  0  0  0  0  0  0  0
   50.6344  162.0462   31.3176 H   0  0  0  0  0  0  0  0  0  0  0  0
   48.9418  161.3825   31.2849 H   0  0  0  0  0  0  0  0  0  0  0  0
   47.7496  157.9601   30.6925 H   0  0  0  0  0  0  0  0  0  0  0  0
   49.4412  156.8782   29.8031 H   0  0  0  0  0  0  0  0  0  0  0  0
   53.6133  157.1867   25.2690 H   0  0  0  0  0  0  0  0  0  0  0  0
   54.5210  155.4178   23.7583 H   0  0  0  0  0  0  0  0  0  0  0  0
   54.3769  153.0150   24.4186 H   0  0  0  0  0  0  0  0  0  0  0  0
   53.5040  151.8170   27.4740 H   0  0  0  0  0  0  0  0  0  0  0  0
  1  2  2  0
  2  3  1  0
  3  4  1  0
  3  5  2  0
  5  6  1  0
  6  7  2  0
  7  8  1  0
  8  9  2  0
  9 10  1  0
 10 11  1  0
  9 12  1  0
 12 13  1  0
 13 14  1  0
 13 15  1  0
 12 16  2  0
  5 17  1  0
 17 18  1  0
 18 19  2  0
 19 20  1  0
 20 21  2  0
 21 22  1  0
 22 23  1  0
 22 24  2  0
 24  2  1  0
 16  6  1  0
 24 18  1  0
  4 25  1  0
  7 26  1  0
  8 27  1  0
 10 28  1  0
 10 29  1  0
 13 30  1  0
 16 31  1  0
 19 32  1  0
 20 33  1  0
 21 34  1  0
 23 35  1  0
M  END
>  <meeko>  (1) 
{"is_sidechain": [false], "free_energy": -10.617, "intermolecular_energy": -13.099, "internal_energy": -0.163}

$$$$
cand_019_out
     RDKit          3D

 35 37  0  0  0  0  0  0  0  0999 V2000
   52.5000  160.6660   30.5550 O   0  0  0  0  0  0  0  0  0  0  0  0
   51.7680  159.7020   30.3430 C   0  0  0  0  0  0  0  0  0  0  0  0
   52.2870  158.5040   29.6430 C   0  0  0  0  0  0  0  0  0  0  0  0
   53.6080  158.5370   29.2350 O   0  0  0  0  0  0  0  0  0  0  0  0
   51.4510  157.4710   29.4310 C   0  0  0  0  0  0  0  0  0  0  0  0
   51.8550  156.2320   28.7320 C   0  0  0  0  0  0  0  0  0  0  0  0
   51.5840  154.9660   29.2610 C   0  0  0  0  0  0  0  0  0  0  0  0
   51.9540  153.8080   28.5720 C   0  0  0  0  0  0  0  0  0  0  0  0
   52.6060  153.8860   27.3320 C   0  0  0  0  0  0  0  0  0  0  0  0
   52.9860  152.6180   26.6120 C   0  0  0  0  0  0  0  0  0  0  0  0
   51.9930  151.6850   26.6440 F   0  0  0  0  0  0  0  0  0  0  0  0
   52.8640  155.1550   26.7700 C   0  0  0  0  0  0  0  0  0  0  0  0
   53.5430  155.2960   25.4260 C   0  0  0  0  0  0  0  0  0  0  0  0
   52.7120  154.9910   24.3900 F   0  0  0  0  0  0  0  0  0  0  0  0
   53.9750  156.5670   25.1750 F   0  0  0  0  0  0  0  0  0  0  0  0
   52.4880  156.3110   27.4820 C   0  0  0  0  0  0  0  0  0  0  0  0
   50.1170  157.4600   29.8210 O   0  0  0  0  0  0  0  0  0  0  0  0
   49.6090  158.5530   30.4780 C   0  0  0  0  0  0  0  0  0  0  0  0
   48.2680  158.4950   30.8600 C   0  0  0  0  0  0  0  0  0  0  0  0
   47.6880  159.5740   31.5320 C   0  0  0  0  0  0  0  0  0  0  0  0
   48.4490  160.7100   31.8190 C   0  0  0  0  0  0  0  0  0  0  0  0
   49.7870  160.7640   31.4360 C   0  0  0  0  0  0  0  0  0  0  0  0
   50.4720  161.9060   31.7500 O   0  0  0  0  0  0  0  0  0  0  0  0
   50.3650  159.6840   30.7650 C   0  0  0  0  0  0  0  0  0  0  0  0
   54.0890  157.7380   29.1400 H   0  0  0  0  0  0  0  0  0  0  0  0
   51.0732  154.8808   30.2315 H   0  0  0  0  0  0  0  0  0  0  0  0
   51.7313  152.8227   29.0073 H   0  0  0  0  0  0  0  0  0  0  0  0
   53.2089  152.8609   25.5626 H   0  0  0  0  0  0  0  0  0  0  0  0
   53.8627  152.1924   27.1221 H   0  0  0  0  0  0  0  0  0  0  0  0
   54.3895  154.5964   25.4892 H   0  0  0  0  0  0  0  0  0  0  0  0
   52.6957  157.3000   27.0474 H   0  0  0  0  0  0  0  0  0  0  0  0
   47.6686  157.6012   30.6324 H   0  0  0  0  0  0  0  0  0  0  0  0
   46.6316  159.5291   31.8353 H   0  0  0  0  0  0  0  0  0  0  0  0
   47.9922  161.5603   32.3466 H   0  0  0  0  0  0  0  0  0  0  0  0
   51.1810  162.1900   31.2080 H   0  0  0  0  0  0  0  0  0  0  0  0
  1  2  2  0
  2  3  1  0
  3  4  1  0
  3  5  2  0
  5  6  1  0
  6  7  2  0
  7  8  1  0
  8  9  2  0
  9 10  1  0
 10 11  1  0
  9 12  1  0
 12 13  1  0
 13 14  1  0
 13 15  1  0
 12 16  2  0
  5 17  1  0
 17 18  1  0
 18 19  2  0
 19 20  1  0
 20 21  2  0
 21 22  1  0
 22 23  1  0
 22 24  2  0
 24  2  1  0
 16  6  1  0
 24 18  1  0
  4 25  1  0
  7 26  1  0
  8 27  1  0
 10 28  1  0
 10 29  1  0
 13 30  1  0
 16 31  1  0
 19 32  1  0
 20 33  1  0
 21 34  1  0
 23 35  1  0
M  END
>  <meeko>  (2) 
{"is_sidechain": [false], "free_energy": -10.492, "intermolecular_energy": -12.823, "internal_energy": -0.286}

$$$$
cand_019_out
     RDKit          3D

 35 37  0  0  0  0  0  0  0  0999 V2000
   52.4790  153.0480   28.8080 O   0  0  0  0  0  0  0  0  0  0  0  0
   52.4290  154.2190   28.4400 C   0  0  0  0  0  0  0  0  0  0  0  0
   51.7540  155.2410   29.2740 C   0  0  0  0  0  0  0  0  0  0  0  0
   51.1800  154.8090   30.4560 O   0  0  0  0  0  0  0  0  0  0  0  0
   51.7220  156.5110   28.8330 C   0  0  0  0  0  0  0  0  0  0  0  0
   51.0650  157.6100   29.5740 C   0  0  0  0  0  0  0  0  0  0  0  0
   49.7590  157.4940   30.0590 C   0  0  0  0  0  0  0  0  0  0  0  0
   49.1670  158.5370   30.7770 C   0  0  0  0  0  0  0  0  0  0  0  0
   49.8680  159.7240   31.0300 C   0  0  0  0  0  0  0  0  0  0  0  0
   49.2020  160.8270   31.8140 C   0  0  0  0  0  0  0  0  0  0  0  0
   48.6750  161.7910   31.0090 F   0  0  0  0  0  0  0  0  0  0  0  0
   51.1970  159.8490   30.5720 C   0  0  0  0  0  0  0  0  0  0  0  0
   52.0070  161.0990   30.8390 C   0  0  0  0  0  0  0  0  0  0  0  0
   52.4110  161.1890   32.1370 F   0  0  0  0  0  0  0  0  0  0  0  0
   53.1550  161.1610   30.1010 F   0  0  0  0  0  0  0  0  0  0  0  0
   51.7750  158.7900   29.8460 C   0  0  0  0  0  0  0  0  0  0  0  0
   52.2780  156.9290   27.6290 O   0  0  0  0  0  0  0  0  0  0  0  0
   52.9170  156.0070   26.8390 C   0  0  0  0  0  0  0  0  0  0  0  0
   53.4700  156.4720   25.6450 C   0  0  0  0  0  0  0  0  0  0  0  0
   54.1330  155.5850   24.7930 C   0  0  0  0  0  0  0  0  0  0  0  0
   54.2420  154.2350   25.1350 C   0  0  0  0  0  0  0  0  0  0  0  0
   53.6890  153.7750   26.3270 C   0  0  0  0  0  0  0  0  0  0  0  0
   53.8320  152.4420   26.6000 O   0  0  0  0  0  0  0  0  0  0  0  0
   53.0260  154.6620   27.1780 C   0  0  0  0  0  0  0  0  0  0  0  0
   51.6980  154.3500   31.0880 H   0  0  0  0  0  0  0  0  0  0  0  0
   49.1904  156.5708   29.8734 H   0  0  0  0  0  0  0  0  0  0  0  0
   48.1377  158.4247   31.1483 H   0  0  0  0  0  0  0  0  0  0  0  0
   48.3935  160.3915   32.4194 H   0  0  0  0  0  0  0  0  0  0  0  0
   49.9687  161.2996   32.4455 H   0  0  0  0  0  0  0  0  0  0  0  0
   51.3202  161.9149   30.5695 H   0  0  0  0  0  0  0  0  0  0  0  0
   52.8086  158.8898   29.4830 H   0  0  0  0  0  0  0  0  0  0  0  0
   53.3841  157.5349   25.3751 H   0  0  0  0  0  0  0  0  0  0  0  0
   54.5697  155.9502   23.8518 H   0  0  0  0  0  0  0  0  0  0  0  0
   54.7637  153.5368   24.4639 H   0  0  0  0  0  0  0  0  0  0  0  0
   53.7170  151.8090   25.9190 H   0  0  0  0  0  0  0  0  0  0  0  0
  1  2  2  0
  2  3  1  0
  3  4  1  0
  3  5  2  0
  5  6  1  0
  6  7  2  0
  7  8  1  0
  8  9  2  0
  9 10  1  0
 10 11  1  0
  9 12  1  0
 12 13  1  0
 13 14  1  0
 13 15  1  0
 12 16  2  0
  5 17  1  0
 17 18  1  0
 18 19  2  0
 19 20  1  0
 20 21  2  0
 21 22  1  0
 22 23  1  0
 22 24  2  0
 24  2  1  0
 16  6  1  0
 24 18  1  0
  4 25  1  0
  7 26  1  0
  8 27  1  0
 10 28  1  0
 10 29  1  0
 13 30  1  0
 16 31  1  0
 19 32  1  0
 20 33  1  0
 21 34  1  0
 23 35  1  0
M  END
>  <meeko>  (3) 
{"is_sidechain": [false], "free_energy": -10.44, "intermolecular_energy": -12.708, "internal_energy": -0.337}

$$$$
cand_019_out
     RDKit          3D

 35 37  0  0  0  0  0  0  0  0999 V2000
   48.0500  158.5180   30.7870 O   0  0  0  0  0  0  0  0  0  0  0  0
   49.2370  158.4500   30.4730 C   0  0  0  0  0  0  0  0  0  0  0  0
   49.7650  157.2490   29.7860 C   0  0  0  0  0  0  0  0  0  0  0  0
   48.8720  156.2230   29.5360 O   0  0  0  0  0  0  0  0  0  0  0  0
   51.0710  157.2160   29.4620 C   0  0  0  0  0  0  0  0  0  0  0  0
   51.7100  156.0660   28.7870 C   0  0  0  0  0  0  0  0  0  0  0  0
   51.6530  154.7740   29.3200 C   0  0  0  0  0  0  0  0  0  0  0  0
   52.2440  153.6980   28.6520 C   0  0  0  0  0  0  0  0  0  0  0  0
   52.9070  153.8860   27.4310 C   0  0  0  0  0  0  0  0  0  0  0  0
   53.5270  152.7020   26.7330 C   0  0  0  0  0  0  0  0  0  0  0  0
   52.6230  152.0030   25.9910 F   0  0  0  0  0  0  0  0  0  0  0  0
   52.9510  155.1780   26.8640 C   0  0  0  0  0  0  0  0  0  0  0  0
   53.6320  155.4320   25.5380 C   0  0  0  0  0  0  0  0  0  0  0  0
   52.8840  155.0090   24.4800 F   0  0  0  0  0  0  0  0  0  0  0  0
   53.8690  156.7560   25.3020 F   0  0  0  0  0  0  0  0  0  0  0  0
   52.3540  156.2510   27.5540 C   0  0  0  0  0  0  0  0  0  0  0  0
   51.9650  158.2420   29.7430 O   0  0  0  0  0  0  0  0  0  0  0  0
   51.5040  159.3700   30.3730 C   0  0  0  0  0  0  0  0  0  0  0  0
   52.4350  160.3790   30.6270 C   0  0  0  0  0  0  0  0  0  0  0  0
   52.0310  161.5540   31.2660 C   0  0  0  0  0  0  0  0  0  0  0  0
   50.6990  161.7180   31.6520 C   0  0  0  0  0  0  0  0  0  0  0  0
   49.7730  160.7090   31.3980 C   0  0  0  0  0  0  0  0  0  0  0  0
   48.4860  160.9370   31.8020 O   0  0  0  0  0  0  0  0  0  0  0  0
   50.1780  159.5350   30.7580 C   0  0  0  0  0  0  0  0  0  0  0  0
   49.1830  155.3450   29.4360 H   0  0  0  0  0  0  0  0  0  0  0  0
   51.1369  154.6028   30.2762 H   0  0  0  0  0  0  0  0  0  0  0  0
   52.1883  152.6905   29.0899 H   0  0  0  0  0  0  0  0  0  0  0  0
   54.3258  153.0626   26.0683 H   0  0  0  0  0  0  0  0  0  0  0  0
   53.9199  152.0255   27.5063 H   0  0  0  0  0  0  0  0  0  0  0  0
   54.5747  154.8711   25.6204 H   0  0  0  0  0  0  0  0  0  0  0  0
   52.3936  157.2590   27.1155 H   0  0  0  0  0  0  0  0  0  0  0  0
   53.4846  160.2491   30.3246 H   0  0  0  0  0  0  0  0  0  0  0  0
   52.7629  162.3507   31.4652 H   0  0  0  0  0  0  0  0  0  0  0  0
   50.3815  162.6428   32.1560 H   0  0  0  0  0  0  0  0  0  0  0  0
   48.2890  161.0150   32.7150 H   0  0  0  0  0  0  0  0  0  0  0  0
  1  2  2  0
  2  3  1  0
  3  4  1  0
  3  5  2  0
  5  6  1  0
  6  7  2  0
  7  8  1  0
  8  9  2  0
  9 10  1  0
 10 11  1  0
  9 12  1  0
 12 13  1  0
 13 14  1  0
 13 15  1  0
 12 16  2  0
  5 17  1  0
 17 18  1  0
 18 19  2  0
 19 20  1  0
 20 21  2  0
 21 22  1  0
 22 23  1  0
 22 24  2  0
 24  2  1  0
 16  6  1  0
 24 18  1  0
  4 25  1  0
  7 26  1  0
  8 27  1  0
 10 28  1  0
 10 29  1  0
 13 30  1  0
 16 31  1  0
 19 32  1  0
 20 33  1  0
 21 34  1  0
 23 35  1  0
M  END
>  <meeko>  (4) 
{"is_sidechain": [false], "free_energy": -9.461, "intermolecular_energy": -11.389, "internal_energy": -0.448}

$$$$
cand_019_out
     RDKit          3D

 35 37  0  0  0  0  0  0  0  0999 V2000
   52.3360  161.2800   31.3720 O   0  0  0  0  0  0  0  0  0  0  0  0
   51.6530  160.3410   30.9680 C   0  0  0  0  0  0  0  0  0  0  0  0
   52.2420  159.3080   30.0840 C   0  0  0  0  0  0  0  0  0  0  0  0
   53.5710  159.4640   29.7340 O   0  0  0  0  0  0  0  0  0  0  0  0
   51.4580  158.2990   29.6640 C   0  0  0  0  0  0  0  0  0  0  0  0
   51.9350  157.2200   28.7710 C   0  0  0  0  0  0  0  0  0  0  0  0
   52.5540  157.4970   27.5480 C   0  0  0  0  0  0  0  0  0  0  0  0
   53.0170  156.4620   26.7310 C   0  0  0  0  0  0  0  0  0  0  0  0
   52.8740  155.1210   27.1170 C   0  0  0  0  0  0  0  0  0  0  0  0
   53.3920  154.0300   26.2150 C   0  0  0  0  0  0  0  0  0  0  0  0
   52.4580  153.6140   25.3140 F   0  0  0  0  0  0  0  0  0  0  0  0
   52.2760  154.8250   28.3610 C   0  0  0  0  0  0  0  0  0  0  0  0
   52.1190  153.3970   28.8370 C   0  0  0  0  0  0  0  0  0  0  0  0
   51.5270  153.3210   30.0620 F   0  0  0  0  0  0  0  0  0  0  0  0
   51.3360  152.6410   28.0130 F   0  0  0  0  0  0  0  0  0  0  0  0
   51.8110  155.8800   29.1680 C   0  0  0  0  0  0  0  0  0  0  0  0
   50.1160  158.1680   30.0010 O   0  0  0  0  0  0  0  0  0  0  0  0
   49.5440  159.1050   30.8230 C   0  0  0  0  0  0  0  0  0  0  0  0
   48.1970  158.9290   31.1430 C   0  0  0  0  0  0  0  0  0  0  0  0
   47.5530  159.8480   31.9750 C   0  0  0  0  0  0  0  0  0  0  0  0
   48.2550  160.9420   32.4860 C   0  0  0  0  0  0  0  0  0  0  0  0
   49.5990  161.1150   32.1640 C   0  0  0  0  0  0  0  0  0  0  0  0
   50.2250  162.2080   32.6970 O   0  0  0  0  0  0  0  0  0  0  0  0
   50.2420  160.1950   31.3320 C   0  0  0  0  0  0  0  0  0  0  0  0
   53.9390  160.3230   29.6610 H   0  0  0  0  0  0  0  0  0  0  0  0
   52.6779  158.5413   27.2254 H   0  0  0  0  0  0  0  0  0  0  0  0
   53.5001  156.7022   25.7724 H   0  0  0  0  0  0  0  0  0  0  0  0
   54.2668  154.4102   25.6671 H   0  0  0  0  0  0  0  0  0  0  0  0
   53.6554  153.1690   26.8470 H   0  0  0  0  0  0  0  0  0  0  0  0
   53.1507  153.0160   28.8589 H   0  0  0  0  0  0  0  0  0  0  0  0
   51.3386  155.6483   30.1340 H   0  0  0  0  0  0  0  0  0  0  0  0
   47.6432  158.0679   30.7407 H   0  0  0  0  0  0  0  0  0  0  0  0
   46.4915  159.7098   32.2281 H   0  0  0  0  0  0  0  0  0  0  0  0
   47.7476  161.6653   33.1413 H   0  0  0  0  0  0  0  0  0  0  0  0
   49.7240  162.9540   32.9580 H   0  0  0  0  0  0  0  0  0  0  0  0
  1  2  2  0
  2  3  1  0
  3  4  1  0
  3  5  2  0
  5  6  1  0
  6  7  2  0
  7  8  1  0
  8  9  2  0
  9 10  1  0
 10 11  1  0
  9 12  1  0
 12 13  1  0
 13 14  1  0
 13 15  1  0
 12 16  2  0
  5 17  1  0
 17 18  1  0
 18 19  2  0
 19 20  1  0
 20 21  2  0
 21 22  1  0
 22 23  1  0
 22 24  2  0
 24  2  1  0
 16  6  1  0
 24 18  1  0
  4 25  1  0
  7 26  1  0
  8 27  1  0
 10 28  1  0
 10 29  1  0
 13 30  1  0
 16 31  1  0
 19 32  1  0
 20 33  1  0
 21 34  1  0
 23 35  1  0
M  END
>  <meeko>  (5) 
{"is_sidechain": [false], "free_energy": -8.927, "intermolecular_energy": -10.84, "internal_energy": -0.337}

$$$$
cand_019_out
     RDKit          3D

 35 37  0  0  0  0  0  0  0  0999 V2000
   48.4840  158.1880   31.3270 O   0  0  0  0  0  0  0  0  0  0  0  0
   49.5780  158.3630   30.7940 C   0  0  0  0  0  0  0  0  0  0  0  0
   50.1170  157.3680   29.8390 C   0  0  0  0  0  0  0  0  0  0  0  0
   49.3450  156.2460   29.5970 O   0  0  0  0  0  0  0  0  0  0  0  0
   51.3190  157.6000   29.2800 C   0  0  0  0  0  0  0  0  0  0  0  0
   51.9610  156.6710   28.3240 C   0  0  0  0  0  0  0  0  0  0  0  0
   52.7660  157.1310   27.2780 C   0  0  0  0  0  0  0  0  0  0  0  0
   53.3810  156.2340   26.4000 C   0  0  0  0  0  0  0  0  0  0  0  0
   53.2080  154.8510   26.5480 C   0  0  0  0  0  0  0  0  0  0  0  0
   53.8920  153.9100   25.5880 C   0  0  0  0  0  0  0  0  0  0  0  0
   53.1400  153.6630   24.4790 F   0  0  0  0  0  0  0  0  0  0  0  0
   52.4200  154.3670   27.6140 C   0  0  0  0  0  0  0  0  0  0  0  0
   52.2190  152.8830   27.8340 C   0  0  0  0  0  0  0  0  0  0  0  0
   51.5160  152.6170   28.9700 F   0  0  0  0  0  0  0  0  0  0  0  0
   51.5150  152.2840   26.8290 F   0  0  0  0  0  0  0  0  0  0  0  0
   51.8040  155.2860   28.4850 C   0  0  0  0  0  0  0  0  0  0  0  0
   52.0980  158.7180   29.5520 O   0  0  0  0  0  0  0  0  0  0  0  0
   51.6220  159.6610   30.4280 C   0  0  0  0  0  0  0  0  0  0  0  0
   52.4330  160.7720   30.6640 C   0  0  0  0  0  0  0  0  0  0  0  0
   52.0080  161.7690   31.5450 C   0  0  0  0  0  0  0  0  0  0  0  0
   50.7750  161.6540   32.1900 C   0  0  0  0  0  0  0  0  0  0  0  0
   49.9690  160.5430   31.9530 C   0  0  0  0  0  0  0  0  0  0  0  0
   48.7740  160.4950   32.6180 O   0  0  0  0  0  0  0  0  0  0  0  0
   50.3940  159.5470   31.0710 C   0  0  0  0  0  0  0  0  0  0  0  0
   49.3900  155.5130   30.1790 H   0  0  0  0  0  0  0  0  0  0  0  0
   52.9174  158.2123   27.1441 H   0  0  0  0  0  0  0  0  0  0  0  0
   54.0087  156.6183   25.5825 H   0  0  0  0  0  0  0  0  0  0  0  0
   54.8470  154.3572   25.2749 H   0  0  0  0  0  0  0  0  0  0  0  0
   54.0466  152.9534   26.1086 H   0  0  0  0  0  0  0  0  0  0  0  0
   53.2442  152.4879   27.8881 H   0  0  0  0  0  0  0  0  0  0  0  0
   51.1845  154.9089   29.3120 H   0  0  0  0  0  0  0  0  0  0  0  0
   53.4051  160.8623   30.1571 H   0  0  0  0  0  0  0  0  0  0  0  0
   52.6455  162.6459   31.7309 H   0  0  0  0  0  0  0  0  0  0  0  0
   50.4408  162.4393   32.8840 H   0  0  0  0  0  0  0  0  0  0  0  0
   48.5220  159.7160   33.0720 H   0  0  0  0  0  0  0  0  0  0  0  0
  1  2  2  0
  2  3  1  0
  3  4  1  0
  3  5  2  0
  5  6  1  0
  6  7  2  0
  7  8  1  0
  8  9  2  0
  9 10  1  0
 10 11  1  0
  9 12  1  0
 12 13  1  0
 13 14  1  0
 13 15  1  0
 12 16  2  0
  5 17  1  0
 17 18  1  0
 18 19  2  0
 19 20  1  0
 20 21  2  0
 21 22  1  0
 22 23  1  0
 22 24  2  0
 24  2  1  0
 16  6  1  0
 24 18  1  0
  4 25  1  0
  7 26  1  0
  8 27  1  0
 10 28  1  0
 10 29  1  0
 13 30  1  0
 16 31  1  0
 19 32  1  0
 20 33  1  0
 21 34  1  0
 23 35  1  0
M  END
>  <meeko>  (6) 
{"is_sidechain": [false], "free_energy": -8.363, "intermolecular_energy": -10.37, "internal_energy": -0.112}

$$$$
cand_019_out
     RDKit          3D

 35 37  0  0  0  0  0  0  0  0999 V2000
   54.6930  155.2250   24.8050 O   0  0  0  0  0  0  0  0  0  0  0  0
   53.8600  154.7720   25.5870 C   0  0  0  0  0  0  0  0  0  0  0  0
   53.1190  155.6730   26.5000 C   0  0  0  0  0  0  0  0  0  0  0  0
   53.4230  157.0200   26.4380 O   0  0  0  0  0  0  0  0  0  0  0  0
   52.2170  155.1350   27.3410 C   0  0  0  0  0  0  0  0  0  0  0  0
   51.4300  155.9340   28.3050 C   0  0  0  0  0  0  0  0  0  0  0  0
   50.2880  155.4210   28.9280 C   0  0  0  0  0  0  0  0  0  0  0  0
   49.5730  156.1870   29.8530 C   0  0  0  0  0  0  0  0  0  0  0  0
   49.9830  157.4870   30.1810 C   0  0  0  0  0  0  0  0  0  0  0  0
   49.1930  158.2830   31.1890 C   0  0  0  0  0  0  0  0  0  0  0  0
   48.0070  158.7260   30.6860 F   0  0  0  0  0  0  0  0  0  0  0  0
   51.1490  158.0110   29.5820 C   0  0  0  0  0  0  0  0  0  0  0  0
   51.6490  159.3990   29.9180 C   0  0  0  0  0  0  0  0  0  0  0  0
   50.7950  160.3750   29.4980 F   0  0  0  0  0  0  0  0  0  0  0  0
   51.7970  159.6050   31.2590 F   0  0  0  0  0  0  0  0  0  0  0  0
   51.8530  157.2270   28.6480 C   0  0  0  0  0  0  0  0  0  0  0  0
   51.9400  153.7750   27.4150 O   0  0  0  0  0  0  0  0  0  0  0  0
   52.6050  152.9160   26.5760 C   0  0  0  0  0  0  0  0  0  0  0  0
   52.2890  151.5610   26.6770 C   0  0  0  0  0  0  0  0  0  0  0  0
   52.9300  150.6330   25.8520 C   0  0  0  0  0  0  0  0  0  0  0  0
   53.8870  151.0600   24.9290 C   0  0  0  0  0  0  0  0  0  0  0  0
   54.2000  152.4140   24.8320 C   0  0  0  0  0  0  0  0  0  0  0  0
   55.1460  152.7630   23.9070 O   0  0  0  0  0  0  0  0  0  0  0  0
   53.5580  153.3410   25.6560 C   0  0  0  0  0  0  0  0  0  0  0  0
   54.2520  157.2990   26.1010 H   0  0  0  0  0  0  0  0  0  0  0  0
   49.9484  154.4028   28.6873 H   0  0  0  0  0  0  0  0  0  0  0  0
   48.6765  155.7642   30.3301 H   0  0  0  0  0  0  0  0  0  0  0  0
   48.9904  157.6455   32.0622 H   0  0  0  0  0  0  0  0  0  0  0  0
   49.7911  159.1643   31.4638 H   0  0  0  0  0  0  0  0  0  0  0  0
   52.6183  159.4566   29.4012 H   0  0  0  0  0  0  0  0  0  0  0  0
   52.7571  157.6385   28.1755 H   0  0  0  0  0  0  0  0  0  0  0  0
   51.5365  151.2236   27.4049 H   0  0  0  0  0  0  0  0  0  0  0  0
   52.6804  149.5645   25.9297 H   0  0  0  0  0  0  0  0  0  0  0  0
   54.3923  150.3293   24.2804 H   0  0  0  0  0  0  0  0  0  0  0  0
   55.0880  153.5860   23.4650 H   0  0  0  0  0  0  0  0  0  0  0  0
  1  2  2  0
  2  3  1  0
  3  4  1  0
  3  5  2  0
  5  6  1  0
  6  7  2  0
  7  8  1  0
  8  9  2  0
  9 10  1  0
 10 11  1  0
  9 12  1  0
 12 13  1  0
 13 14  1  0
 13 15  1  0
 12 16  2  0
  5 17  1  0
 17 18  1  0
 18 19  2  0
 19 20  1  0
 20 21  2  0
 21 22  1  0
 22 23  1  0
 22 24  2  0
 24  2  1  0
 16  6  1  0
 24 18  1  0
  4 25  1  0
  7 26  1  0
  8 27  1  0
 10 28  1  0
 10 29  1  0
 13 30  1  0
 16 31  1  0
 19 32  1  0
 20 33  1  0
 21 34  1  0
 23 35  1  0
M  END
>  <meeko>  (7) 
{"is_sidechain": [false], "free_energy": -8.189, "intermolecular_energy": -10.543, "internal_energy": 0.275}

$$$$
cand_019_out
     RDKit          3D

 35 37  0  0  0  0  0  0  0  0999 V2000
   54.6190  154.7630   24.1610 O   0  0  0  0  0  0  0  0  0  0  0  0
   53.9280  154.5430   25.1530 C   0  0  0  0  0  0  0  0  0  0  0  0
   53.5140  155.6530   26.0420 C   0  0  0  0  0  0  0  0  0  0  0  0
   53.9530  156.9220   25.7110 O   0  0  0  0  0  0  0  0  0  0  0  0
   52.7580  155.3660   27.1180 C   0  0  0  0  0  0  0  0  0  0  0  0
   52.2980  156.3900   28.0810 C   0  0  0  0  0  0  0  0  0  0  0  0
   53.0940  157.4870   28.4270 C   0  0  0  0  0  0  0  0  0  0  0  0
   52.6290  158.4550   29.3210 C   0  0  0  0  0  0  0  0  0  0  0  0
   51.3530  158.3520   29.8940 C   0  0  0  0  0  0  0  0  0  0  0  0
   50.8800  159.4170   30.8490 C   0  0  0  0  0  0  0  0  0  0  0  0
   50.4590  160.5420   30.2060 F   0  0  0  0  0  0  0  0  0  0  0  0
   50.5260  157.2660   29.5360 C   0  0  0  0  0  0  0  0  0  0  0  0
   49.1320  157.1180   30.1060 C   0  0  0  0  0  0  0  0  0  0  0  0
   48.3430  158.1960   29.8330 F   0  0  0  0  0  0  0  0  0  0  0  0
   48.4570  156.0440   29.6000 F   0  0  0  0  0  0  0  0  0  0  0  0
   51.0130  156.2970   28.6370 C   0  0  0  0  0  0  0  0  0  0  0  0
   52.3460  154.0830   27.4570 O   0  0  0  0  0  0  0  0  0  0  0  0
   52.7080  153.0350   26.6490 C   0  0  0  0  0  0  0  0  0  0  0  0
   52.2640  151.7650   27.0210 C   0  0  0  0  0  0  0  0  0  0  0  0
   52.5980  150.6550   26.2420 C   0  0  0  0  0  0  0  0  0  0  0  0
   53.3760  150.8140   25.0930 C   0  0  0  0  0  0  0  0  0  0  0  0
   53.8170  152.0830   24.7250 C   0  0  0  0  0  0  0  0  0  0  0  0
   54.5740  152.1660   23.5880 O   0  0  0  0  0  0  0  0  0  0  0  0
   53.4830  153.1920   25.5040 C   0  0  0  0  0  0  0  0  0  0  0  0
   53.3320  157.5920   25.5020 H   0  0  0  0  0  0  0  0  0  0  0  0
   54.0983  157.5889   27.9900 H   0  0  0  0  0  0  0  0  0  0  0  0
   53.2723  159.3092   29.5788 H   0  0  0  0  0  0  0  0  0  0  0  0
   50.0445  159.0149   31.4408 H   0  0  0  0  0  0  0  0  0  0  0  0
   51.7304  159.6951   31.4889 H   0  0  0  0  0  0  0  0  0  0  0  0
   49.3050  157.0017   31.1861 H   0  0  0  0  0  0  0  0  0  0  0  0
   50.3704  155.4469   28.3643 H   0  0  0  0  0  0  0  0  0  0  0  0
   51.6520  151.6386   27.9263 H   0  0  0  0  0  0  0  0  0  0  0  0
   52.2478  149.6539   26.5338 H   0  0  0  0  0  0  0  0  0  0  0  0
   53.6398  149.9394   24.4803 H   0  0  0  0  0  0  0  0  0  0  0  0
   54.7360  153.0000   23.1930 H   0  0  0  0  0  0  0  0  0  0  0  0
  1  2  2  0
  2  3  1  0
  3  4  1  0
  3  5  2  0
  5  6  1  0
  6  7  2  0
  7  8  1  0
  8  9  2  0
  9 10  1  0
 10 11  1  0
  9 12  1  0
 12 13  1  0
 13 14  1  0
 13 15  1  0
 12 16  2  0
  5 17  1  0
 17 18  1  0
 18 19  2  0
 19 20  1  0
 20 21  2  0
 21 22  1  0
 22 23  1  0
 22 24  2  0
 24  2  1  0
 16  6  1  0
 24 18  1  0
  4 25  1  0
  7 26  1  0
  8 27  1  0
 10 28  1  0
 10 29  1  0
 13 30  1  0
 16 31  1  0
 19 32  1  0
 20 33  1  0
 21 34  1  0
 23 35  1  0
M  END
>  <meeko>  (8) 
{"is_sidechain": [false], "free_energy": -7.879, "intermolecular_energy": -9.809, "internal_energy": -0.076}

$$$$
