cand_022_out
     RDKit          3D

 41 43  0  0  0  0  0  0  0  0999 V2000
   55.3430  154.0070   24.4630 C   0  0  0  0  0  0  0  0  0  0  0  0
   54.4650  155.1900   24.8380 C   0  0  0  0  0  0  0  0  0  0  0  0
   52.9970  154.7770   24.9660 C   0  0  0  0  0  0  0  0  0  0  0  0
   52.5680  154.6770   26.4140 C   0  0  0  0  0  0  0  0  0  0  0  0
   52.2670  155.8680   27.1040 C   0  0  0  0  0  0  0  0  0  0  0  0
   51.8830  155.8640   28.4530 C   0  0  0  0  0  0  0  0  0  0  0  0
   51.5410  157.1090   29.1700 C   0  0  0  0  0  0  0  0  0  0  0  0
   50.2380  157.1140   29.6540 O   0  0  0  0  0  0  0  0  0  0  0  0
   49.7900  158.2130   30.3420 C   0  0  0  0  0  0  0  0  0  0  0  0
   48.4710  158.1800   30.7970 C   0  0  0  0  0  0  0  0  0  0  0  0
   47.9520  159.2660   31.5050 C   0  0  0  0  0  0  0  0  0  0  0  0
   48.7510  160.3830   31.7590 C   0  0  0  0  0  0  0  0  0  0  0  0
   50.0670  160.4120   31.3050 C   0  0  0  0  0  0  0  0  0  0  0  0
   50.7940  161.5360   31.5880 O   0  0  0  0  0  0  0  0  0  0  0  0
   50.5850  159.3250   30.5950 C   0  0  0  0  0  0  0  0  0  0  0  0
   51.9630  159.3160   30.0990 C   0  0  0  0  0  0  0  0  0  0  0  0
   52.7290  160.2590   30.2890 O   0  0  0  0  0  0  0  0  0  0  0  0
   52.4120  158.1190   29.3510 C   0  0  0  0  0  0  0  0  0  0  0  0
   53.7190  158.1160   28.8990 O   0  0  0  0  0  0  0  0  0  0  0  0
   51.7850  154.6320   29.1080 C   0  0  0  0  0  0  0  0  0  0  0  0
   52.0850  153.4410   28.4400 C   0  0  0  0  0  0  0  0  0  0  0  0
   52.4870  153.4480   27.0960 C   0  0  0  0  0  0  0  0  0  0  0  0
   52.7930  152.1390   26.4220 C   0  0  0  0  0  0  0  0  0  0  0  0
   55.7072  153.5162   25.3776 H   0  0  0  0  0  0  0  0  0  0  0  0
   54.7573  153.2891   23.8700 H   0  0  0  0  0  0  0  0  0  0  0  0
   56.1998  154.3597   23.8700 H   0  0  0  0  0  0  0  0  0  0  0  0
   54.8070  155.5988   25.8002 H   0  0  0  0  0  0  0  0  0  0  0  0
   54.5441  155.9458   24.0427 H   0  0  0  0  0  0  0  0  0  0  0  0
   52.3705  155.5259   24.4594 H   0  0  0  0  0  0  0  0  0  0  0  0
   52.8780  153.7859   24.5038 H   0  0  0  0  0  0  0  0  0  0  0  0
   52.3350  156.8273   26.5701 H   0  0  0  0  0  0  0  0  0  0  0  0
   47.8414  157.3001   30.5983 H   0  0  0  0  0  0  0  0  0  0  0  0
   46.9122  159.2417   31.8632 H   0  0  0  0  0  0  0  0  0  0  0  0
   48.3415  161.2382   32.3166 H   0  0  0  0  0  0  0  0  0  0  0  0
   51.1410  161.6640   32.4490 H   0  0  0  0  0  0  0  0  0  0  0  0
   54.2950  157.4160   29.1370 H   0  0  0  0  0  0  0  0  0  0  0  0
   51.4682  154.5998   30.1609 H   0  0  0  0  0  0  0  0  0  0  0  0
   52.0046  152.4840   28.9764 H   0  0  0  0  0  0  0  0  0  0  0  0
   52.9734  151.3672   27.1848 H   0  0  0  0  0  0  0  0  0  0  0  0
   51.9401  151.8417   25.7941 H   0  0  0  0  0  0  0  0  0  0  0  0
   53.6893  152.2506   25.7941 H   0  0  0  0  0  0  0  0  0  0  0  0
  1  2  1  0
  2  3  1  0
  3  4  1  0
  4  5  2  0
  5  6  1  0
  6  7  1  0
  7  8  1  0
  8  9  1  0
  9 10  2  0
 10 11  1  0
 11 12  2  0
 12 13  1  0
 13 14  1  0
 13 15  2  0
 15 16  1  0
 16 17  2  0
 16 18  1  0
 18 19  1  0
  6 20  2  0
 20 21  1  0
 21 22  2  0
 22 23  1  0
 22  4  1  0
 18  7  2  0
 15  9  1  0
  1 24  1  0
  1 25  1  0
  1 26  1  0
  2 27  1  0
  2 28  1  0
  3 29  1  0
  3 30  1  0
  5 31  1  0
 10 32  1  0
 11 33  1  0
 12 34  1  0
 14 35  1  0
 19 36  1  0
 20 37  1  0
 21 38  1  0
 23 39  1  0
 23 40  1  0
 23 41  1  0
M  END
>  <meeko>  (1) 
{"is_sidechain": [false], "free_energy": -10.01, "intermolecular_energy": -12.351, "internal_energy": -0.564}

$$$$
cand_022_out
     RDKit          3D

 41 43  0  0  0  0  0  0  0  0999 V2000
   46.6910  160.1310   31.5420 C   0  0  0  0  0  0  0  0  0  0  0  0
   47.6370  159.4030   30.6000 C   0  0  0  0  0  0  0  0  0  0  0  0
   48.6660  158.5750   31.3720 C   0  0  0  0  0  0  0  0  0  0  0  0
   50.0040  158.5450   30.6660 C   0  0  0  0  0  0  0  0  0  0  0  0
   50.3710  157.3670   29.9840 C   0  0  0  0  0  0  0  0  0  0  0  0
   51.6020  157.2490   29.3230 C   0  0  0  0  0  0  0  0  0  0  0  0
   51.9770  156.0260   28.5860 C   0  0  0  0  0  0  0  0  0  0  0  0
   52.5140  156.2930   27.3320 O   0  0  0  0  0  0  0  0  0  0  0  0
   52.9050  155.2430   26.5400 C   0  0  0  0  0  0  0  0  0  0  0  0
   53.4250  155.5580   25.2830 C   0  0  0  0  0  0  0  0  0  0  0  0
   53.8430  154.5360   24.4280 C   0  0  0  0  0  0  0  0  0  0  0  0
   53.7440  153.2020   24.8280 C   0  0  0  0  0  0  0  0  0  0  0  0
   53.2260  152.8920   26.0830 C   0  0  0  0  0  0  0  0  0  0  0  0
   53.1570  151.5660   26.4120 O   0  0  0  0  0  0  0  0  0  0  0  0
   52.8060  153.9150   26.9390 C   0  0  0  0  0  0  0  0  0  0  0  0
   52.2550  153.6310   28.2650 C   0  0  0  0  0  0  0  0  0  0  0  0
   52.1430  152.4840   28.6910 O   0  0  0  0  0  0  0  0  0  0  0  0
   51.8320  154.7860   29.0910 C   0  0  0  0  0  0  0  0  0  0  0  0
   51.3260  154.5070   30.3470 O   0  0  0  0  0  0  0  0  0  0  0  0
   52.4680  158.3480   29.3380 C   0  0  0  0  0  0  0  0  0  0  0  0
   52.1220  159.5210   30.0130 C   0  0  0  0  0  0  0  0  0  0  0  0
   50.8980  159.6320   30.6890 C   0  0  0  0  0  0  0  0  0  0  0  0
   50.5710  160.9190   31.3960 C   0  0  0  0  0  0  0  0  0  0  0  0
   46.9720  159.9147   32.5833 H   0  0  0  0  0  0  0  0  0  0  0  0
   46.7561  161.2142   31.3621 H   0  0  0  0  0  0  0  0  0  0  0  0
   45.6606  159.7907   31.3621 H   0  0  0  0  0  0  0  0  0  0  0  0
   47.0520  158.7334   29.9524 H   0  0  0  0  0  0  0  0  0  0  0  0
   48.1749  160.1531   30.0017 H   0  0  0  0  0  0  0  0  0  0  0  0
   48.8001  159.0148   32.3713 H   0  0  0  0  0  0  0  0  0  0  0  0
   48.2923  157.5428   31.4423 H   0  0  0  0  0  0  0  0  0  0  0  0
   49.6726  156.5173   29.9700 H   0  0  0  0  0  0  0  0  0  0  0  0
   53.5052  156.6086   24.9670 H   0  0  0  0  0  0  0  0  0  0  0  0
   54.2513  154.7826   23.4368 H   0  0  0  0  0  0  0  0  0  0  0  0
   54.0742  152.3981   24.1537 H   0  0  0  0  0  0  0  0  0  0  0  0
   53.8740  150.9960   26.2120 H   0  0  0  0  0  0  0  0  0  0  0  0
   51.5300  153.6940   30.7650 H   0  0  0  0  0  0  0  0  0  0  0  0
   53.4323  158.2876   28.8122 H   0  0  0  0  0  0  0  0  0  0  0  0
   52.8203  160.3709   30.0144 H   0  0  0  0  0  0  0  0  0  0  0  0
   50.6113  160.7603   32.4837 H   0  0  0  0  0  0  0  0  0  0  0  0
   51.3018  161.6901   31.1106 H   0  0  0  0  0  0  0  0  0  0  0  0
   49.5608  161.2477   31.1106 H   0  0  0  0  0  0  0  0  0  0  0  0
  1  2  1  0
  2  3  1  0
  3  4  1  0
  4  5  2  0
  5  6  1  0
  6  7  1  0
  7  8  1  0
  8  9  1  0
  9 10  2  0
 10 11  1  0
 11 12  2  0
 12 13  1  0
 13 14  1  0
 13 15  2  0
 15 16  1  0
 16 17  2  0
 16 18  1  0
 18 19  1  0
  6 20  2  0
 20 21  1  0
 21 22  2  0
 22 23  1  0
 22  4  1  0
 18  7  2  0
 15  9  1  0
  1 24  1  0
  1 25  1  0
  1 26  1  0
  2 27  1  0
  2 28  1  0
  3 29  1  0
  3 30  1  0
  5 31  1  0
 10 32  1  0
 11 33  1  0
 12 34  1  0
 14 35  1  0
 19 36  1  0
 20 37  1  0
 21 38  1  0
 23 39  1  0
 23 40  1  0
 23 41  1  0
M  END
>  <meeko>  (2) 
{"is_sidechain": [false], "free_energy": -9.861, "intermolecular_energy": -12.522, "internal_energy": -0.208}

$$$$
cand_022_out
     RDKit          3D

 41 43  0  0  0  0  0  0  0  0999 V2000
   53.9440  162.2560   31.0120 C   0  0  0  0  0  0  0  0  0  0  0  0
   52.9180  161.1910   31.3630 C   0  0  0  0  0  0  0  0  0  0  0  0
   51.7410  161.2070   30.3860 C   0  0  0  0  0  0  0  0  0  0  0  0
   51.0390  159.8670   30.3340 C   0  0  0  0  0  0  0  0  0  0  0  0
   51.6480  158.8230   29.6080 C   0  0  0  0  0  0  0  0  0  0  0  0
   51.0530  157.5590   29.4930 C   0  0  0  0  0  0  0  0  0  0  0  0
   51.7030  156.4560   28.7550 C   0  0  0  0  0  0  0  0  0  0  0  0
   52.2240  156.8580   27.5310 O   0  0  0  0  0  0  0  0  0  0  0  0
   52.8560  155.9300   26.7430 C   0  0  0  0  0  0  0  0  0  0  0  0
   53.3520  156.3740   25.5150 C   0  0  0  0  0  0  0  0  0  0  0  0
   54.0070  155.4810   24.6650 C   0  0  0  0  0  0  0  0  0  0  0  0
   54.1690  154.1450   25.0410 C   0  0  0  0  0  0  0  0  0  0  0  0
   53.6740  153.7060   26.2670 C   0  0  0  0  0  0  0  0  0  0  0  0
   53.8670  152.3870   26.5730 O   0  0  0  0  0  0  0  0  0  0  0  0
   53.0170  154.6000   27.1170 C   0  0  0  0  0  0  0  0  0  0  0  0
   52.4820  154.1780   28.4130 C   0  0  0  0  0  0  0  0  0  0  0  0
   52.5910  153.0220   28.8170 O   0  0  0  0  0  0  0  0  0  0  0  0
   51.7960  155.2010   29.2350 C   0  0  0  0  0  0  0  0  0  0  0  0
   51.3060  154.7950   30.4630 O   0  0  0  0  0  0  0  0  0  0  0  0
   49.8300  157.3420   30.1360 C   0  0  0  0  0  0  0  0  0  0  0  0
   49.2090  158.3680   30.8550 C   0  0  0  0  0  0  0  0  0  0  0  0
   49.7960  159.6380   30.9560 C   0  0  0  0  0  0  0  0  0  0  0  0
   49.0910  160.7050   31.7460 C   0  0  0  0  0  0  0  0  0  0  0  0
   54.3577  162.6854   31.9364 H   0  0  0  0  0  0  0  0  0  0  0  0
   54.7553  161.8036   30.4228 H   0  0  0  0  0  0  0  0  0  0  0  0
   53.4616  163.0498   30.4228 H   0  0  0  0  0  0  0  0  0  0  0  0
   53.4005  160.2031   31.3261 H   0  0  0  0  0  0  0  0  0  0  0  0
   52.5333  161.3998   32.3722 H   0  0  0  0  0  0  0  0  0  0  0  0
   51.0213  161.9744   30.7073 H   0  0  0  0  0  0  0  0  0  0  0  0
   52.1315  161.4290   29.3819 H   0  0  0  0  0  0  0  0  0  0  0  0
   52.6161  159.0053   29.1186 H   0  0  0  0  0  0  0  0  0  0  0  0
   53.2267  157.4257   25.2181 H   0  0  0  0  0  0  0  0  0  0  0  0
   54.3964  155.8299   23.6972 H   0  0  0  0  0  0  0  0  0  0  0  0
   54.6858  153.4421   24.3710 H   0  0  0  0  0  0  0  0  0  0  0  0
   54.3700  152.1500   27.3280 H   0  0  0  0  0  0  0  0  0  0  0  0
   50.6680  154.1110   30.5090 H   0  0  0  0  0  0  0  0  0  0  0  0
   49.3514  156.3534   30.0754 H   0  0  0  0  0  0  0  0  0  0  0  0
   48.2451  158.1762   31.3491 H   0  0  0  0  0  0  0  0  0  0  0  0
   49.2195  160.5105   32.8210 H   0  0  0  0  0  0  0  0  0  0  0  0
   49.5181  161.6878   31.4975 H   0  0  0  0  0  0  0  0  0  0  0  0
   48.0195  160.6975   31.4975 H   0  0  0  0  0  0  0  0  0  0  0  0
  1  2  1  0
  2  3  1  0
  3  4  1  0
  4  5  2  0
  5  6  1  0
  6  7  1  0
  7  8  1  0
  8  9  1  0
  9 10  2  0
 10 11  1  0
 11 12  2  0
 12 13  1  0
 13 14  1  0
 13 15  2  0
 15 16  1  0
 16 17  2  0
 16 18  1  0
 18 19  1  0
  6 20  2  0
 20 21  1  0
 21 22  2  0
 22 23  1  0
 22  4  1  0
 18  7  2  0
 15  9  1  0
  1 24  1  0
  1 25  1  0
  1 26  1  0
  2 27  1  0
  2 28  1  0
  3 29  1  0
  3 30  1  0
  5 31  1  0
 10 32  1  0
 11 33  1  0
 12 34  1  0
 14 35  1  0
 19 36  1  0
 20 37  1  0
 21 38  1  0
 23 39  1  0
 23 40  1  0
 23 41  1  0
M  END
>  <meeko>  (3) 
{"is_sidechain": [false], "free_energy": -9.628, "intermolecular_energy": -12.2, "internal_energy": -0.243}

$$$$
cand_022_out
     RDKit          3D

 41 43  0  0  0  0  0  0  0  0999 V2000
   55.0060  156.7560   24.0940 C   0  0  0  0  0  0  0  0  0  0  0  0
   53.9890  156.6750   25.2220 C   0  0  0  0  0  0  0  0  0  0  0  0
   53.4040  155.2670   25.3460 C   0  0  0  0  0  0  0  0  0  0  0  0
   52.8170  155.0250   26.7190 C   0  0  0  0  0  0  0  0  0  0  0  0
   52.2620  156.1210   27.4110 C   0  0  0  0  0  0  0  0  0  0  0  0
   51.7170  155.9850   28.6950 C   0  0  0  0  0  0  0  0  0  0  0  0
   51.1110  157.1270   29.4100 C   0  0  0  0  0  0  0  0  0  0  0  0
   52.0100  158.1630   29.6330 O   0  0  0  0  0  0  0  0  0  0  0  0
   51.5760  159.2880   30.2880 C   0  0  0  0  0  0  0  0  0  0  0  0
   52.5160  160.2970   30.5030 C   0  0  0  0  0  0  0  0  0  0  0  0
   52.1400  161.4690   31.1630 C   0  0  0  0  0  0  0  0  0  0  0  0
   50.8260  161.6330   31.6070 C   0  0  0  0  0  0  0  0  0  0  0  0
   49.8910  160.6240   31.3900 C   0  0  0  0  0  0  0  0  0  0  0  0
   48.6220  160.8490   31.8500 O   0  0  0  0  0  0  0  0  0  0  0  0
   50.2680  159.4510   30.7300 C   0  0  0  0  0  0  0  0  0  0  0  0
   49.3150  158.3660   30.4830 C   0  0  0  0  0  0  0  0  0  0  0  0
   48.1400  158.4390   30.8370 O   0  0  0  0  0  0  0  0  0  0  0  0
   49.8180  157.1620   29.7830 C   0  0  0  0  0  0  0  0  0  0  0  0
   48.9070  156.1490   29.5430 O   0  0  0  0  0  0  0  0  0  0  0  0
   51.7180  154.7150   29.2830 C   0  0  0  0  0  0  0  0  0  0  0  0
   52.2690  153.6190   28.6140 C   0  0  0  0  0  0  0  0  0  0  0  0
   52.8300  153.7590   27.3360 C   0  0  0  0  0  0  0  0  0  0  0  0
   53.4050  152.5460   26.6570 C   0  0  0  0  0  0  0  0  0  0  0  0
   56.0179  156.8366   24.5177 H   0  0  0  0  0  0  0  0  0  0  0  0
   54.9391  155.8497   23.4742 H   0  0  0  0  0  0  0  0  0  0  0  0
   54.7965  157.6403   23.4742 H   0  0  0  0  0  0  0  0  0  0  0  0
   54.4820  156.9423   26.1683 H   0  0  0  0  0  0  0  0  0  0  0  0
   53.1682  157.3725   24.9989 H   0  0  0  0  0  0  0  0  0  0  0  0
   52.6123  155.1421   24.5926 H   0  0  0  0  0  0  0  0  0  0  0  0
   54.2164  154.5425   25.1874 H   0  0  0  0  0  0  0  0  0  0  0  0
   52.2566  157.1101   26.9298 H   0  0  0  0  0  0  0  0  0  0  0  0
   53.5511  160.1694   30.1533 H   0  0  0  0  0  0  0  0  0  0  0  0
   52.8803  162.2645   31.3335 H   0  0  0  0  0  0  0  0  0  0  0  0
   50.5305  162.5564   32.1266 H   0  0  0  0  0  0  0  0  0  0  0  0
   48.2560  161.7110   31.8120 H   0  0  0  0  0  0  0  0  0  0  0  0
   48.4820  155.7210   30.2600 H   0  0  0  0  0  0  0  0  0  0  0  0
   51.2802  154.5781   30.2828 H   0  0  0  0  0  0  0  0  0  0  0  0
   52.2627  152.6308   29.0972 H   0  0  0  0  0  0  0  0  0  0  0  0
   53.7457  151.8274   27.4169 H   0  0  0  0  0  0  0  0  0  0  0  0
   52.6333  152.0771   26.0288 H   0  0  0  0  0  0  0  0  0  0  0  0
   54.2565  152.8466   26.0288 H   0  0  0  0  0  0  0  0  0  0  0  0
  1  2  1  0
  2  3  1  0
  3  4  1  0
  4  5  2  0
  5  6  1  0
  6  7  1  0
  7  8  1  0
  8  9  1  0
  9 10  2  0
 10 11  1  0
 11 12  2  0
 12 13  1  0
 13 14  1  0
 13 15  2  0
 15 16  1  0
 16 17  2  0
 16 18  1  0
 18 19  1  0
  6 20  2  0
 20 21  1  0
 21 22  2  0
 22 23  1  0
 22  4  1  0
 18  7  2  0
 15  9  1  0
  1 24  1  0
  1 25  1  0
  1 26  1  0
  2 27  1  0
  2 28  1  0
  3 29  1  0
  3 30  1  0
  5 31  1  0
 10 32  1  0
 11 33  1  0
 12 34  1  0
 14 35  1  0
 19 36  1  0
 20 37  1  0
 21 38  1  0
 23 39  1  0
 23 40  1  0
 23 41  1  0
M  END
>  <meeko>  (4) 
{"is_sidechain": [false], "free_energy": -8.688, "intermolecular_energy": -10.871, "internal_energy": -0.412}

$$$$
cand_022_out
     RDKit          3D

 41 43  0  0  0  0  0  0  0  0999 V2000
   50.4610  161.6290   31.7320 C   0  0  0  0  0  0  0  0  0  0  0  0
   50.5290  160.8550   30.4250 C   0  0  0  0  0  0  0  0  0  0  0  0
   51.5850  159.7490   30.4860 C   0  0  0  0  0  0  0  0  0  0  0  0
   51.0170  158.4100   30.0670 C   0  0  0  0  0  0  0  0  0  0  0  0
   51.7740  157.6120   29.1850 C   0  0  0  0  0  0  0  0  0  0  0  0
   51.3100  156.3690   28.7310 C   0  0  0  0  0  0  0  0  0  0  0  0
   52.1130  155.5200   27.8280 C   0  0  0  0  0  0  0  0  0  0  0  0
   52.7630  156.2480   26.8380 O   0  0  0  0  0  0  0  0  0  0  0  0
   53.5450  155.5810   25.9290 C   0  0  0  0  0  0  0  0  0  0  0  0
   54.1670  156.3490   24.9440 C   0  0  0  0  0  0  0  0  0  0  0  0
   54.9780  155.7330   23.9890 C   0  0  0  0  0  0  0  0  0  0  0  0
   55.1690  154.3500   24.0190 C   0  0  0  0  0  0  0  0  0  0  0  0
   54.5470  153.5860   25.0030 C   0  0  0  0  0  0  0  0  0  0  0  0
   54.7760  152.2370   24.9750 O   0  0  0  0  0  0  0  0  0  0  0  0
   53.7350  154.2030   25.9590 C   0  0  0  0  0  0  0  0  0  0  0  0
   53.0630  153.4360   27.0100 C   0  0  0  0  0  0  0  0  0  0  0  0
   53.1870  152.2170   27.1060 O   0  0  0  0  0  0  0  0  0  0  0  0
   52.2180  154.1850   27.9680 C   0  0  0  0  0  0  0  0  0  0  0  0
   51.5990  153.4530   28.9650 O   0  0  0  0  0  0  0  0  0  0  0  0
   50.0690  155.9180   29.1920 C   0  0  0  0  0  0  0  0  0  0  0  0
   49.3040  156.6980   30.0630 C   0  0  0  0  0  0  0  0  0  0  0  0
   49.7600  157.9500   30.5020 C   0  0  0  0  0  0  0  0  0  0  0  0
   48.9000  158.7480   31.4440 C   0  0  0  0  0  0  0  0  0  0  0  0
   50.5226  160.9276   32.5771 H   0  0  0  0  0  0  0  0  0  0  0  0
   51.3003  162.3383   31.7822 H   0  0  0  0  0  0  0  0  0  0  0  0
   49.5109  162.1811   31.7822 H   0  0  0  0  0  0  0  0  0  0  0  0
   49.5468  160.4016   30.2259 H   0  0  0  0  0  0  0  0  0  0  0  0
   50.8057  161.5543   29.6222 H   0  0  0  0  0  0  0  0  0  0  0  0
   52.4148  160.0107   29.8130 H   0  0  0  0  0  0  0  0  0  0  0  0
   51.9332  159.6639   31.5260 H   0  0  0  0  0  0  0  0  0  0  0  0
   52.7550  157.9742   28.8438 H   0  0  0  0  0  0  0  0  0  0  0  0
   54.0185  157.4387   24.9199 H   0  0  0  0  0  0  0  0  0  0  0  0
   55.4674  156.3381   23.2116 H   0  0  0  0  0  0  0  0  0  0  0  0
   55.8092  153.8654   23.2672 H   0  0  0  0  0  0  0  0  0  0  0  0
   54.3790  151.7090   24.3110 H   0  0  0  0  0  0  0  0  0  0  0  0
   51.3960  153.8570   29.7850 H   0  0  0  0  0  0  0  0  0  0  0  0
   49.6909  154.9381   28.8652 H   0  0  0  0  0  0  0  0  0  0  0  0
   48.3292  156.3246   30.4098 H   0  0  0  0  0  0  0  0  0  0  0  0
   49.1664  158.5008   32.4822 H   0  0  0  0  0  0  0  0  0  0  0  0
   49.0633  159.8217   31.2692 H   0  0  0  0  0  0  0  0  0  0  0  0
   47.8415  158.5049   31.2692 H   0  0  0  0  0  0  0  0  0  0  0  0
  1  2  1  0
  2  3  1  0
  3  4  1  0
  4  5  2  0
  5  6  1  0
  6  7  1  0
  7  8  1  0
  8  9  1  0
  9 10  2  0
 10 11  1  0
 11 12  2  0
 12 13  1  0
 13 14  1  0
 13 15  2  0
 15 16  1  0
 16 17  2  0
 16 18  1  0
 18 19  1  0
  6 20  2  0
 20 21  1  0
 21 22  2  0
 22 23  1  0
 22  4  1  0
 18  7  2  0
 15  9  1  0
  1 24  1  0
  1 25  1  0
  1 26  1  0
  2 27  1  0
  2 28  1  0
  3 29  1  0
  3 30  1  0
  5 31  1  0
 10 32  1  0
 11 33  1  0
 12 34  1  0
 14 35  1  0
 19 36  1  0
 20 37  1  0
 21 38  1  0
 23 39  1  0
 23 40  1  0
 23 41  1  0
M  END
>  <meeko>  (5) 
{"is_sidechain": [false], "free_energy": -8.165, "intermolecular_energy": -11.409, "internal_energy": 0.772}

$$$$
cand_022_out
     RDKit          3D

 41 43  0  0  0  0  0  0  0  0999 V2000
   50.9120  161.2020   31.2590 C   0  0  0  0  0  0  0  0  0  0  0  0
   50.8020  160.2900   30.0480 C   0  0  0  0  0  0  0  0  0  0  0  0
   51.8980  159.2230   30.0530 C   0  0  0  0  0  0  0  0  0  0  0  0
   51.3660  157.8720   29.6240 C   0  0  0  0  0  0  0  0  0  0  0  0
   52.0910  157.1470   28.6570 C   0  0  0  0  0  0  0  0  0  0  0  0
   51.6560  155.8980   28.1900 C   0  0  0  0  0  0  0  0  0  0  0  0
   52.4280  155.1250   27.1970 C   0  0  0  0  0  0  0  0  0  0  0  0
   52.1530  153.7630   27.2400 O   0  0  0  0  0  0  0  0  0  0  0  0
   52.8030  152.9270   26.3680 C   0  0  0  0  0  0  0  0  0  0  0  0
   52.5070  151.5650   26.4560 C   0  0  0  0  0  0  0  0  0  0  0  0
   53.1330  150.6600   25.5970 C   0  0  0  0  0  0  0  0  0  0  0  0
   54.0540  151.1140   24.6500 C   0  0  0  0  0  0  0  0  0  0  0  0
   54.3460  152.4730   24.5640 C   0  0  0  0  0  0  0  0  0  0  0  0
   55.2560  152.8500   23.6150 O   0  0  0  0  0  0  0  0  0  0  0  0
   53.7200  153.3790   25.4250 C   0  0  0  0  0  0  0  0  0  0  0  0
   54.0000  154.8150   25.3680 C   0  0  0  0  0  0  0  0  0  0  0  0
   54.7920  155.2920   24.5580 O   0  0  0  0  0  0  0  0  0  0  0  0
   53.2900  155.6890   26.3290 C   0  0  0  0  0  0  0  0  0  0  0  0
   53.5520  157.0450   26.2580 O   0  0  0  0  0  0  0  0  0  0  0  0
   50.4760  155.3680   28.7230 C   0  0  0  0  0  0  0  0  0  0  0  0
   49.7420  156.0760   29.6790 C   0  0  0  0  0  0  0  0  0  0  0  0
   50.1690  157.3330   30.1320 C   0  0  0  0  0  0  0  0  0  0  0  0
   49.3460  158.0520   31.1660 C   0  0  0  0  0  0  0  0  0  0  0  0
   50.8396  160.6017   32.1779 H   0  0  0  0  0  0  0  0  0  0  0  0
   51.8797  161.7246   31.2377 H   0  0  0  0  0  0  0  0  0  0  0  0
   50.0963  161.9397   31.2377 H   0  0  0  0  0  0  0  0  0  0  0  0
   49.8199  159.7947   30.0608 H   0  0  0  0  0  0  0  0  0  0  0  0
   50.9181  160.9020   29.1414 H   0  0  0  0  0  0  0  0  0  0  0  0
   52.6960  159.5283   29.3601 H   0  0  0  0  0  0  0  0  0  0  0  0
   52.2817  159.1303   31.0797 H   0  0  0  0  0  0  0  0  0  0  0  0
   53.0235  157.5723   28.2576 H   0  0  0  0  0  0  0  0  0  0  0  0
   51.7817  151.2059   27.2010 H   0  0  0  0  0  0  0  0  0  0  0  0
   52.9005  149.5871   25.6660 H   0  0  0  0  0  0  0  0  0  0  0  0
   54.5473  150.4001   23.9740 H   0  0  0  0  0  0  0  0  0  0  0  0
   56.0650  152.3840   23.5300 H   0  0  0  0  0  0  0  0  0  0  0  0
   53.3490  157.5210   25.4770 H   0  0  0  0  0  0  0  0  0  0  0  0
   50.1217  154.3827   28.3858 H   0  0  0  0  0  0  0  0  0  0  0  0
   48.8156  155.6409   30.0821 H   0  0  0  0  0  0  0  0  0  0  0  0
   49.6822  157.7583   32.1713 H   0  0  0  0  0  0  0  0  0  0  0  0
   49.4679  159.1381   31.0413 H   0  0  0  0  0  0  0  0  0  0  0  0
   48.2861  157.7853   31.0413 H   0  0  0  0  0  0  0  0  0  0  0  0
  1  2  1  0
  2  3  1  0
  3  4  1  0
  4  5  2  0
  5  6  1  0
  6  7  1  0
  7  8  1  0
  8  9  1  0
  9 10  2  0
 10 11  1  0
 11 12  2  0
 12 13  1  0
 13 14  1  0
 13 15  2  0
 15 16  1  0
 16 17  2  0
 16 18  1  0
 18 19  1  0
  6 20  2  0
 20 21  1  0
 21 22  2  0
 22 23  1  0
 22  4  1  0
 18  7  2  0
 15  9  1  0
  1 24  1  0
  1 25  1  0
  1 26  1  0
  2 27  1  0
  2 28  1  0
  3 29  1  0
  3 30  1  0
  5 31  1  0
 10 32  1  0
 11 33  1  0
 12 34  1  0
 14 35  1  0
 19 36  1  0
 20 37  1  0
 21 38  1  0
 23 39  1  0
 23 40  1  0
 23 41  1  0
M  END
>  <meeko>  (6) 
{"is_sidechain": [false], "free_energy": -8.005, "intermolecular_energy": -11.107, "internal_energy": 0.666}

$$$$
cand_022_out
     RDKit          3D

 41 43  0  0  0  0  0  0  0  0999 V2000
   51.5270  150.9740   28.0840 C   0  0  0  0  0  0  0  0  0  0  0  0
   51.5310  152.4390   27.6810 C   0  0  0  0  0  0  0  0  0  0  0  0
   51.9480  153.3380   28.8460 C   0  0  0  0  0  0  0  0  0  0  0  0
   52.1890  154.7630   28.3970 C   0  0  0  0  0  0  0  0  0  0  0  0
   51.6960  155.8090   29.2030 C   0  0  0  0  0  0  0  0  0  0  0  0
   51.8580  157.1550   28.8470 C   0  0  0  0  0  0  0  0  0  0  0  0
   51.3660  158.2530   29.7040 C   0  0  0  0  0  0  0  0  0  0  0  0
   50.0280  158.1090   30.0510 O   0  0  0  0  0  0  0  0  0  0  0  0
   49.4430  159.0610   30.8470 C   0  0  0  0  0  0  0  0  0  0  0  0
   48.0940  158.8850   31.1590 C   0  0  0  0  0  0  0  0  0  0  0  0
   47.4380  159.8170   31.9650 C   0  0  0  0  0  0  0  0  0  0  0  0
   48.1300  160.9240   32.4610 C   0  0  0  0  0  0  0  0  0  0  0  0
   49.4760  161.0970   32.1490 C   0  0  0  0  0  0  0  0  0  0  0  0
   50.0930  162.2020   32.6680 O   0  0  0  0  0  0  0  0  0  0  0  0
   50.1320  160.1640   31.3400 C   0  0  0  0  0  0  0  0  0  0  0  0
   51.5460  160.3100   30.9880 C   0  0  0  0  0  0  0  0  0  0  0  0
   52.2230  161.2530   31.3920 O   0  0  0  0  0  0  0  0  0  0  0  0
   52.1440  159.2700   30.1200 C   0  0  0  0  0  0  0  0  0  0  0  0
   53.4830  159.4100   29.8040 O   0  0  0  0  0  0  0  0  0  0  0  0
   52.5450  157.4480   27.6640 C   0  0  0  0  0  0  0  0  0  0  0  0
   53.0360  156.4230   26.8500 C   0  0  0  0  0  0  0  0  0  0  0  0
   52.8580  155.0760   27.1980 C   0  0  0  0  0  0  0  0  0  0  0  0
   53.4100  154.0110   26.2900 C   0  0  0  0  0  0  0  0  0  0  0  0
   51.5268  150.8955   29.1812 H   0  0  0  0  0  0  0  0  0  0  0  0
   50.6275  150.4854   27.6813 H   0  0  0  0  0  0  0  0  0  0  0  0
   52.4238  150.4805   27.6813 H   0  0  0  0  0  0  0  0  0  0  0  0
   52.2378  152.5795   26.8499 H   0  0  0  0  0  0  0  0  0  0  0  0
   50.5109  152.7170   27.3776 H   0  0  0  0  0  0  0  0  0  0  0  0
   51.1499  153.3332   29.6030 H   0  0  0  0  0  0  0  0  0  0  0  0
   52.8884  152.9463   29.2610 H   0  0  0  0  0  0  0  0  0  0  0  0
   51.1697  155.5623   30.1369 H   0  0  0  0  0  0  0  0  0  0  0  0
   47.5483  158.0127   30.7701 H   0  0  0  0  0  0  0  0  0  0  0  0
   46.3745  159.6793   32.2098 H   0  0  0  0  0  0  0  0  0  0  0  0
   47.6129  161.6577   33.0968 H   0  0  0  0  0  0  0  0  0  0  0  0
   49.7740  162.5880   33.4600 H   0  0  0  0  0  0  0  0  0  0  0  0
   54.0790  159.7610   30.4360 H   0  0  0  0  0  0  0  0  0  0  0  0
   52.7006  158.4968   27.3710 H   0  0  0  0  0  0  0  0  0  0  0  0
   53.5701  156.6768   25.9224 H   0  0  0  0  0  0  0  0  0  0  0  0
   53.8326  153.1957   26.8956 H   0  0  0  0  0  0  0  0  0  0  0  0
   52.6031  153.6160   25.6552 H   0  0  0  0  0  0  0  0  0  0  0  0
   54.1979  154.4426   25.6552 H   0  0  0  0  0  0  0  0  0  0  0  0
  1  2  1  0
  2  3  1  0
  3  4  1  0
  4  5  2  0
  5  6  1  0
  6  7  1  0
  7  8  1  0
  8  9  1  0
  9 10  2  0
 10 11  1  0
 11 12  2  0
 12 13  1  0
 13 14  1  0
 13 15  2  0
 15 16  1  0
 16 17  2  0
 16 18  1  0
 18 19  1  0
  6 20  2  0
 20 21  1  0
 21 22  2  0
 22 23  1  0
 22  4  1  0
 18  7  2  0
 15  9  1  0
  1 24  1  0
  1 25  1  0
  1 26  1  0
  2 27  1  0
  2 28  1  0
  3 29  1  0
  3 30  1  0
  5 31  1  0
 10 32  1  0
 11 33  1  0
 12 34  1  0
 14 35  1  0
 19 36  1  0
 20 37  1  0
 21 38  1  0
 23 39  1  0
 23 40  1  0
 23 41  1  0
M  END
>  <meeko>  (7) 
{"is_sidechain": [false], "free_energy": -7.407, "intermolecular_energy": -10.193, "internal_energy": 0.491}

$$$$
cand_022_out
     RDKit          3D

 41 43  0  0  0  0  0  0  0  0999 V2000
   47.2670  159.7640   31.2360 C   0  0  0  0  0  0  0  0  0  0  0  0
   47.9840  158.9750   30.1520 C   0  0  0  0  0  0  0  0  0  0  0  0
   48.8930  157.9010   30.7530 C   0  0  0  0  0  0  0  0  0  0  0  0
   50.2680  157.9140   30.1200 C   0  0  0  0  0  0  0  0  0  0  0  0
   50.6430  156.8160   29.3180 C   0  0  0  0  0  0  0  0  0  0  0  0
   51.9060  156.7410   28.7140 C   0  0  0  0  0  0  0  0  0  0  0  0
   52.2910  155.6050   27.8520 C   0  0  0  0  0  0  0  0  0  0  0  0
   51.7910  154.3890   28.3050 O   0  0  0  0  0  0  0  0  0  0  0  0
   52.0750  153.2500   27.5950 C   0  0  0  0  0  0  0  0  0  0  0  0
   51.5650  152.0490   28.0940 C   0  0  0  0  0  0  0  0  0  0  0  0
   51.8150  150.8530   27.4190 C   0  0  0  0  0  0  0  0  0  0  0  0
   52.5720  150.8560   26.2460 C   0  0  0  0  0  0  0  0  0  0  0  0
   53.0780  152.0540   25.7500 C   0  0  0  0  0  0  0  0  0  0  0  0
   53.8110  151.9860   24.5970 O   0  0  0  0  0  0  0  0  0  0  0  0
   52.8290  153.2520   26.4270 C   0  0  0  0  0  0  0  0  0  0  0  0
   53.3430  154.5340   25.9400 C   0  0  0  0  0  0  0  0  0  0  0  0
   54.0100  154.6180   24.9110 O   0  0  0  0  0  0  0  0  0  0  0  0
   53.0280  155.7430   26.7340 C   0  0  0  0  0  0  0  0  0  0  0  0
   53.5070  156.9490   26.2580 O   0  0  0  0  0  0  0  0  0  0  0  0
   52.7980  157.8000   28.9110 C   0  0  0  0  0  0  0  0  0  0  0  0
   52.4440  158.8930   29.7070 C   0  0  0  0  0  0  0  0  0  0  0  0
   51.1870  158.9600   30.3250 C   0  0  0  0  0  0  0  0  0  0  0  0
   50.8540  160.1610   31.1680 C   0  0  0  0  0  0  0  0  0  0  0  0
   47.5914  159.4071   32.2246 H   0  0  0  0  0  0  0  0  0  0  0  0
   47.5101  160.8319   31.1338 H   0  0  0  0  0  0  0  0  0  0  0  0
   46.1808  159.6239   31.1338 H   0  0  0  0  0  0  0  0  0  0  0  0
   47.2357  158.4909   29.5072 H   0  0  0  0  0  0  0  0  0  0  0  0
   48.6071  159.6712   29.5714 H   0  0  0  0  0  0  0  0  0  0  0  0
   48.9957  158.0841   31.8328 H   0  0  0  0  0  0  0  0  0  0  0  0
   48.4364  156.9187   30.5619 H   0  0  0  0  0  0  0  0  0  0  0  0
   49.9255  155.9968   29.1623 H   0  0  0  0  0  0  0  0  0  0  0  0
   50.9673  152.0458   29.0174 H   0  0  0  0  0  0  0  0  0  0  0  0
   51.4149  149.9067   27.8119 H   0  0  0  0  0  0  0  0  0  0  0  0
   52.7682  149.9131   25.7146 H   0  0  0  0  0  0  0  0  0  0  0  0
   53.9150  152.7490   24.0630 H   0  0  0  0  0  0  0  0  0  0  0  0
   53.7660  157.0290   25.3610 H   0  0  0  0  0  0  0  0  0  0  0  0
   53.7890  157.7724   28.4343 H   0  0  0  0  0  0  0  0  0  0  0  0
   53.1626  159.7134   29.8509 H   0  0  0  0  0  0  0  0  0  0  0  0
   50.9281  159.8937   32.2325 H   0  0  0  0  0  0  0  0  0  0  0  0
   51.5607  160.9736   30.9439 H   0  0  0  0  0  0  0  0  0  0  0  0
   49.8297  160.4937   30.9439 H   0  0  0  0  0  0  0  0  0  0  0  0
  1  2  1  0
  2  3  1  0
  3  4  1  0
  4  5  2  0
  5  6  1  0
  6  7  1  0
  7  8  1  0
  8  9  1  0
  9 10  2  0
 10 11  1  0
 11 12  2  0
 12 13  1  0
 13 14  1  0
 13 15  2  0
 15 16  1  0
 16 17  2  0
 16 18  1  0
 18 19  1  0
  6 20  2  0
 20 21  1  0
 21 22  2  0
 22 23  1  0
 22  4  1  0
 18  7  2  0
 15  9  1  0
  1 24  1  0
  1 25  1  0
  1 26  1  0
  2 27  1  0
  2 28  1  0
  3 29  1  0
  3 30  1  0
  5 31  1  0
 10 32  1  0
 11 33  1  0
 12 34  1  0
 14 35  1  0
 19 36  1  0
 20 37  1  0
 21 38  1  0
 23 39  1  0
 23 40  1  0
 23 41  1  0
M  END
>  <meeko>  (8) 
{"is_sidechain": [false], "free_energy": -7.354, "intermolecular_energy": -9.735, "internal_energy": 0.098}

$$$$
cand_022_out
     RDKit          3D

 41 43  0  0  0  0  0  0  0  0999 V2000
   52.5170  151.1810   26.2660 C   0  0  0  0  0  0  0  0  0  0  0  0
   51.8190  152.2890   27.0380 C   0  0  0  0  0  0  0  0  0  0  0  0
   52.8010  153.0520   27.9290 C   0  0  0  0  0  0  0  0  0  0  0  0
   52.7930  154.5360   27.6280 C   0  0  0  0  0  0  0  0  0  0  0  0
   52.1360  155.3950   28.5310 C   0  0  0  0  0  0  0  0  0  0  0  0
   52.0640  156.7790   28.3150 C   0  0  0  0  0  0  0  0  0  0  0  0
   51.3990  157.6840   29.2740 C   0  0  0  0  0  0  0  0  0  0  0  0
   52.1440  158.8250   29.5470 O   0  0  0  0  0  0  0  0  0  0  0  0
   51.6410  159.7530   30.4230 C   0  0  0  0  0  0  0  0  0  0  0  0
   52.4300  160.8760   30.6790 C   0  0  0  0  0  0  0  0  0  0  0  0
   51.9760  161.8590   31.5600 C   0  0  0  0  0  0  0  0  0  0  0  0
   50.7340  161.7210   32.1850 C   0  0  0  0  0  0  0  0  0  0  0  0
   49.9500  160.6000   31.9280 C   0  0  0  0  0  0  0  0  0  0  0  0
   48.7450  160.5280   32.5720 O   0  0  0  0  0  0  0  0  0  0  0  0
   50.4050  159.6150   31.0460 C   0  0  0  0  0  0  0  0  0  0  0  0
   49.6110  158.4210   30.7480 C   0  0  0  0  0  0  0  0  0  0  0  0
   48.5060  158.2320   31.2530 O   0  0  0  0  0  0  0  0  0  0  0  0
   50.1870  157.4350   29.8060 C   0  0  0  0  0  0  0  0  0  0  0  0
   49.4240  156.3170   29.5220 O   0  0  0  0  0  0  0  0  0  0  0  0
   52.6830  157.3030   27.1750 C   0  0  0  0  0  0  0  0  0  0  0  0
   53.3350  156.4640   26.2670 C   0  0  0  0  0  0  0  0  0  0  0  0
   53.3910  155.0780   26.4740 C   0  0  0  0  0  0  0  0  0  0  0  0
   54.1090  154.2200   25.4690 C   0  0  0  0  0  0  0  0  0  0  0  0
   52.9661  150.4681   26.9732 H   0  0  0  0  0  0  0  0  0  0  0  0
   51.7851  150.6578   25.6331 H   0  0  0  0  0  0  0  0  0  0  0  0
   53.3049  151.6153   25.6331 H   0  0  0  0  0  0  0  0  0  0  0  0
   51.3639  152.9910   26.3238 H   0  0  0  0  0  0  0  0  0  0  0  0
   51.0510  151.8330   27.6801 H   0  0  0  0  0  0  0  0  0  0  0  0
   52.5195  152.9001   28.9815 H   0  0  0  0  0  0  0  0  0  0  0  0
   53.8127  152.6675   27.7323 H   0  0  0  0  0  0  0  0  0  0  0  0
   51.6667  154.9687   29.4299 H   0  0  0  0  0  0  0  0  0  0  0  0
   53.4078  160.9860   30.1873 H   0  0  0  0  0  0  0  0  0  0  0  0
   52.5972  162.7439   31.7626 H   0  0  0  0  0  0  0  0  0  0  0  0
   50.3766  162.4964   32.8785 H   0  0  0  0  0  0  0  0  0  0  0  0
   47.9860  160.2270   32.1120 H   0  0  0  0  0  0  0  0  0  0  0  0
   49.5510  155.5270   30.0090 H   0  0  0  0  0  0  0  0  0  0  0  0
   52.6563  158.3872   26.9913 H   0  0  0  0  0  0  0  0  0  0  0  0
   53.8119  156.8977   25.3757 H   0  0  0  0  0  0  0  0  0  0  0  0
   54.7288  153.4793   25.9955 H   0  0  0  0  0  0  0  0  0  0  0  0
   53.3729  153.7002   24.8382 H   0  0  0  0  0  0  0  0  0  0  0  0
   54.7505  154.8530   24.8382 H   0  0  0  0  0  0  0  0  0  0  0  0
  1  2  1  0
  2  3  1  0
  3  4  1  0
  4  5  2  0
  5  6  1  0
  6  7  1  0
  7  8  1  0
  8  9  1  0
  9 10  2  0
 10 11  1  0
 11 12  2  0
 12 13  1  0
 13 14  1  0
 13 15  2  0
 15 16  1  0
 16 17  2  0
 16 18  1  0
 18 19  1  0
  6 20  2  0
 20 21  1  0
 21 22  2  0
 22 23  1  0
 22  4  1  0
 18  7  2  0
 15  9  1  0
  1 24  1  0
  1 25  1  0
  1 26  1  0
  2 27  1  0
  2 28  1  0
  3 29  1  0
  3 30  1  0
  5 31  1  0
 10 32  1  0
 11 33  1  0
 12 34  1  0
 14 35  1  0
 19 36  1  0
 20 37  1  0
 21 38  1  0
 23 39  1  0
 23 40  1  0
 23 41  1  0
M  END
>  <meeko>  (9) 
{"is_sidechain": [false], "free_energy": -7.274, "intermolecular_energy": -9.405, "internal_energy": -0.134}

$$$$
