cand_056_out
     RDKit          3D

 50 53  0  0  0  0  0  0  0  0999 V2000
   55.2190  154.4300   22.7220 C   0  0  0  0  0  0  0  0  0  0  0  0
   54.2140  154.7530   23.7330 N   0  0  0  0  0  0  0  0  0  0  0  0
   53.6900  153.5160   24.3580 C   0  0  0  0  0  0  0  0  0  0  0  0
   52.6620  153.8100   25.4770 C   0  0  0  0  0  0  0  0  0  0  0  0
   53.2730  154.6860   26.5040 N   0  0  0  0  0  0  0  0  0  0  0  0
   52.4500  154.8970   27.6250 C   0  0  0  0  0  0  0  0  0  0  0  0
   52.2400  156.1810   28.1620 C   0  0  0  0  0  0  0  0  0  0  0  0
   51.4110  156.3940   29.2740 C   0  0  0  0  0  0  0  0  0  0  0  0
   51.2090  157.7410   29.8450 C   0  0  0  0  0  0  0  0  0  0  0  0
   49.9320  157.9250   30.3620 O   0  0  0  0  0  0  0  0  0  0  0  0
   49.6120  159.1330   30.9240 C   0  0  0  0  0  0  0  0  0  0  0  0
   48.3230  159.2680   31.4430 C   0  0  0  0  0  0  0  0  0  0  0  0
   47.9310  160.4750   32.0280 C   0  0  0  0  0  0  0  0  0  0  0  0
   48.8270  161.5450   32.0930 C   0  0  0  0  0  0  0  0  0  0  0  0
   50.1110  161.4070   31.5740 C   0  0  0  0  0  0  0  0  0  0  0  0
   50.9360  162.4940   31.6690 O   0  0  0  0  0  0  0  0  0  0  0  0
   50.5030  160.2000   30.9890 C   0  0  0  0  0  0  0  0  0  0  0  0
   51.8430  160.0140   30.4310 C   0  0  0  0  0  0  0  0  0  0  0  0
   52.6850  160.9100   30.4430 O   0  0  0  0  0  0  0  0  0  0  0  0
   52.1620  158.6930   29.8410 C   0  0  0  0  0  0  0  0  0  0  0  0
   53.4250  158.5310   29.3040 O   0  0  0  0  0  0  0  0  0  0  0  0
   50.8000  155.2860   29.8700 C   0  0  0  0  0  0  0  0  0  0  0  0
   51.0000  154.0040   29.3540 C   0  0  0  0  0  0  0  0  0  0  0  0
   51.8220  153.7960   28.2310 C   0  0  0  0  0  0  0  0  0  0  0  0
   52.0190  152.4000   27.6920 C   0  0  0  0  0  0  0  0  0  0  0  0
   51.5130  151.4370   28.5250 F   0  0  0  0  0  0  0  0  0  0  0  0
   53.3290  152.0580   27.5220 F   0  0  0  0  0  0  0  0  0  0  0  0
   51.4030  152.1810   26.4940 F   0  0  0  0  0  0  0  0  0  0  0  0
   53.7840  155.9440   25.9100 C   0  0  0  0  0  0  0  0  0  0  0  0
   54.7950  155.6220   24.7840 C   0  0  0  0  0  0  0  0  0  0  0  0
   56.1540  154.1295   23.2174 H   0  0  0  0  0  0  0  0  0  0  0  0
   54.8548  153.6036   22.0939 H   0  0  0  0  0  0  0  0  0  0  0  0
   55.4045  155.3138   22.0939 H   0  0  0  0  0  0  0  0  0  0  0  0
   53.4510  155.2480   23.2700 H   0  0  0  0  0  0  0  0  0  0  0  0
   53.2030  152.9071   23.5820 H   0  0  0  0  0  0  0  0  0  0  0  0
   54.5388  152.9849   24.8135 H   0  0  0  0  0  0  0  0  0  0  0  0
   51.7847  154.3126   25.0437 H   0  0  0  0  0  0  0  0  0  0  0  0
   52.3541  152.8631   25.9446 H   0  0  0  0  0  0  0  0  0  0  0  0
   52.7404  157.0428   27.6963 H   0  0  0  0  0  0  0  0  0  0  0  0
   47.6173  158.4258   31.3915 H   0  0  0  0  0  0  0  0  0  0  0  0
   46.9159  160.5828   32.4378 H   0  0  0  0  0  0  0  0  0  0  0  0
   48.5181  162.4950   32.5536 H   0  0  0  0  0  0  0  0  0  0  0  0
   51.8550  162.4000   31.5130 H   0  0  0  0  0  0  0  0  0  0  0  0
   53.7860  159.1920   28.7470 H   0  0  0  0  0  0  0  0  0  0  0  0
   50.1572  155.4255   30.7517 H   0  0  0  0  0  0  0  0  0  0  0  0
   50.5079  153.1443   29.8323 H   0  0  0  0  0  0  0  0  0  0  0  0
   52.9436  156.5179   25.4925 H   0  0  0  0  0  0  0  0  0  0  0  0
   54.2866  156.5348   26.6900 H   0  0  0  0  0  0  0  0  0  0  0  0
   55.1209  156.5654   24.3217 H   0  0  0  0  0  0  0  0  0  0  0  0
   55.6394  155.0814   25.2365 H   0  0  0  0  0  0  0  0  0  0  0  0
  1  2  1  0
  2  3  1  0
  3  4  1  0
  4  5  1  0
  5  6  1  0
  6  7  2  0
  7  8  1  0
  8  9  1  0
  9 10  1  0
 10 11  1  0
 11 12  2  0
 12 13  1  0
 13 14  2  0
 14 15  1  0
 15 16  1  0
 15 17  2  0
 17 18  1  0
 18 19  2  0
 18 20  1  0
 20 21  1  0
  8 22  2  0
 22 23  1  0
 23 24  2  0
 24 25  1  0
 25 26  1  0
 25 27  1  0
 25 28  1  0
  5 29  1  0
 29 30  1  0
 30  2  1  0
 24  6  1  0
 20  9  2  0
 17 11  1  0
  1 31  1  0
  1 32  1  0
  1 33  1  0
  2 34  1  0
  3 35  1  0
  3 36  1  0
  4 37  1  0
  4 38  1  0
  7 39  1  0
 12 40  1  0
 13 41  1  0
 14 42  1  0
 16 43  1  0
 21 44  1  0
 22 45  1  0
 23 46  1  0
 29 47  1  0
 29 48  1  0
 30 49  1  0
 30 50  1  0
M  CHG  1   2   1
M  END
>  <meeko>  (1) 
{"is_sidechain": [false], "free_energy": -8.694, "intermolecular_energy": -10.727, "internal_energy": 2.052}

$$$$
cand_056_out
     RDKit          3D

 50 53  0  0  0  0  0  0  0  0999 V2000
   53.2840  163.9070   31.9950 C   0  0  0  0  0  0  0  0  0  0  0  0
   52.9420  162.5010   31.7860 N   0  0  0  0  0  0  0  0  0  0  0  0
   51.6000  162.2050   32.3420 C   0  0  0  0  0  0  0  0  0  0  0  0
   51.1690  160.7390   32.0940 C   0  0  0  0  0  0  0  0  0  0  0  0
   51.2010  160.4450   30.6420 N   0  0  0  0  0  0  0  0  0  0  0  0
   50.6970  159.1730   30.3150 C   0  0  0  0  0  0  0  0  0  0  0  0
   51.4670  158.2250   29.6160 C   0  0  0  0  0  0  0  0  0  0  0  0
   50.9690  156.9530   29.2980 C   0  0  0  0  0  0  0  0  0  0  0  0
   51.7750  155.9690   28.5470 C   0  0  0  0  0  0  0  0  0  0  0  0
   52.2630  156.4710   27.3470 O   0  0  0  0  0  0  0  0  0  0  0  0
   53.0300  155.6600   26.5510 C   0  0  0  0  0  0  0  0  0  0  0  0
   53.5120  156.2100   25.3620 C   0  0  0  0  0  0  0  0  0  0  0  0
   54.2970  155.4370   24.5050 C   0  0  0  0  0  0  0  0  0  0  0  0
   54.6010  154.1140   24.8360 C   0  0  0  0  0  0  0  0  0  0  0  0
   54.1200  153.5680   26.0220 C   0  0  0  0  0  0  0  0  0  0  0  0
   54.4530  152.2670   26.2840 O   0  0  0  0  0  0  0  0  0  0  0  0
   53.3340  154.3420   26.8810 C   0  0  0  0  0  0  0  0  0  0  0  0
   52.8070  153.8060   28.1360 C   0  0  0  0  0  0  0  0  0  0  0  0
   53.0240  152.6500   28.4940 O   0  0  0  0  0  0  0  0  0  0  0  0
   51.9910  154.7110   28.9780 C   0  0  0  0  0  0  0  0  0  0  0  0
   51.4870  154.1930   30.1560 O   0  0  0  0  0  0  0  0  0  0  0  0
   49.6600  156.6380   29.6750 C   0  0  0  0  0  0  0  0  0  0  0  0
   48.8780  157.5660   30.3660 C   0  0  0  0  0  0  0  0  0  0  0  0
   49.3850  158.8370   30.6930 C   0  0  0  0  0  0  0  0  0  0  0  0
   48.5210  159.8220   31.4430 C   0  0  0  0  0  0  0  0  0  0  0  0
   47.2000  159.4600   31.4550 F   0  0  0  0  0  0  0  0  0  0  0  0
   48.5320  161.0780   30.9110 F   0  0  0  0  0  0  0  0  0  0  0  0
   48.8560  159.9570   32.7600 F   0  0  0  0  0  0  0  0  0  0  0  0
   52.5400  160.7080   30.0640 C   0  0  0  0  0  0  0  0  0  0  0  0
   52.9530  162.1740   30.3410 C   0  0  0  0  0  0  0  0  0  0  0  0
   53.3347  164.1156   33.0739 H   0  0  0  0  0  0  0  0  0  0  0  0
   54.2600  164.1194   31.5342 H   0  0  0  0  0  0  0  0  0  0  0  0
   52.5146  164.5439   31.5342 H   0  0  0  0  0  0  0  0  0  0  0  0
   53.6400  161.9330   32.2660 H   0  0  0  0  0  0  0  0  0  0  0  0
   51.6183  162.3893   33.4263 H   0  0  0  0  0  0  0  0  0  0  0  0
   50.8750  162.8583   31.8344 H   0  0  0  0  0  0  0  0  0  0  0  0
   51.8588  160.0618   32.6190 H   0  0  0  0  0  0  0  0  0  0  0  0
   50.1464  160.5923   32.4717 H   0  0  0  0  0  0  0  0  0  0  0  0
   52.4899  158.4895   29.3099 H   0  0  0  0  0  0  0  0  0  0  0  0
   53.2734  157.2515   25.1007 H   0  0  0  0  0  0  0  0  0  0  0  0
   54.6768  155.8699   23.5678 H   0  0  0  0  0  0  0  0  0  0  0  0
   55.2195  153.5052   24.1602 H   0  0  0  0  0  0  0  0  0  0  0  0
   54.1120  151.5790   25.7480 H   0  0  0  0  0  0  0  0  0  0  0  0
   50.9390  154.7200   30.7040 H   0  0  0  0  0  0  0  0  0  0  0  0
   49.2428  155.6513   29.4253 H   0  0  0  0  0  0  0  0  0  0  0  0
   47.8516  157.2996   30.6586 H   0  0  0  0  0  0  0  0  0  0  0  0
   53.2748  160.0291   30.5214 H   0  0  0  0  0  0  0  0  0  0  0  0
   52.5056  160.5399   28.9775 H   0  0  0  0  0  0  0  0  0  0  0  0
   53.9686  162.3346   29.9503 H   0  0  0  0  0  0  0  0  0  0  0  0
   52.2215  162.8279   29.8438 H   0  0  0  0  0  0  0  0  0  0  0  0
  1  2  1  0
  2  3  1  0
  3  4  1  0
  4  5  1  0
  5  6  1  0
  6  7  2  0
  7  8  1  0
  8  9  1  0
  9 10  1  0
 10 11  1  0
 11 12  2  0
 12 13  1  0
 13 14  2  0
 14 15  1  0
 15 16  1  0
 15 17  2  0
 17 18  1  0
 18 19  2  0
 18 20  1  0
 20 21  1  0
  8 22  2  0
 22 23  1  0
 23 24  2  0
 24 25  1  0
 25 26  1  0
 25 27  1  0
 25 28  1  0
  5 29  1  0
 29 30  1  0
 30  2  1  0
 24  6  1  0
 20  9  2  0
 17 11  1  0
  1 31  1  0
  1 32  1  0
  1 33  1  0
  2 34  1  0
  3 35  1  0
  3 36  1  0
  4 37  1  0
  4 38  1  0
  7 39  1  0
 12 40  1  0
 13 41  1  0
 14 42  1  0
 16 43  1  0
 21 44  1  0
 22 45  1  0
 23 46  1  0
 29 47  1  0
 29 48  1  0
 30 49  1  0
 30 50  1  0
M  CHG  1   2   1
M  END
>  <meeko>  (2) 
{"is_sidechain": [false], "free_energy": -8.53, "intermolecular_energy": -9.535, "internal_energy": 1.063}

$$$$
cand_056_out
     RDKit          3D

 50 53  0  0  0  0  0  0  0  0999 V2000
   46.1660  160.3280   31.8770 C   0  0  0  0  0  0  0  0  0  0  0  0
   47.2550  159.7240   31.1100 N   0  0  0  0  0  0  0  0  0  0  0  0
   48.1110  160.7730   30.5100 C   0  0  0  0  0  0  0  0  0  0  0  0
   49.3130  160.1820   29.7340 C   0  0  0  0  0  0  0  0  0  0  0  0
   50.1130  159.3160   30.6310 N   0  0  0  0  0  0  0  0  0  0  0  0
   51.2990  158.8410   30.0430 C   0  0  0  0  0  0  0  0  0  0  0  0
   51.3640  157.5860   29.4080 C   0  0  0  0  0  0  0  0  0  0  0  0
   52.5440  157.1160   28.8120 C   0  0  0  0  0  0  0  0  0  0  0  0
   52.6110  155.7900   28.1640 C   0  0  0  0  0  0  0  0  0  0  0  0
   53.1600  155.8380   26.8880 O   0  0  0  0  0  0  0  0  0  0  0  0
   53.2820  154.6740   26.1740 C   0  0  0  0  0  0  0  0  0  0  0  0
   53.8520  154.7670   24.9030 C   0  0  0  0  0  0  0  0  0  0  0  0
   54.0030  153.6190   24.1230 C   0  0  0  0  0  0  0  0  0  0  0  0
   53.5840  152.3800   24.6110 C   0  0  0  0  0  0  0  0  0  0  0  0
   53.0150  152.2900   25.8790 C   0  0  0  0  0  0  0  0  0  0  0  0
   52.6260  151.0470   26.2950 O   0  0  0  0  0  0  0  0  0  0  0  0
   52.8650  153.4390   26.6600 C   0  0  0  0  0  0  0  0  0  0  0  0
   52.2710  153.3890   27.9970 C   0  0  0  0  0  0  0  0  0  0  0  0
   51.8720  152.3380   28.4940 O   0  0  0  0  0  0  0  0  0  0  0  0
   52.1640  154.6620   28.7470 C   0  0  0  0  0  0  0  0  0  0  0  0
   51.5910  154.6070   30.0030 O   0  0  0  0  0  0  0  0  0  0  0  0
   53.6880  157.9190   28.8770 C   0  0  0  0  0  0  0  0  0  0  0  0
   53.6440  159.1640   29.5060 C   0  0  0  0  0  0  0  0  0  0  0  0
   52.4560  159.6380   30.0920 C   0  0  0  0  0  0  0  0  0  0  0  0
   52.4350  160.9900   30.7630 C   0  0  0  0  0  0  0  0  0  0  0  0
   53.6880  161.5230   30.9120 F   0  0  0  0  0  0  0  0  0  0  0  0
   51.9160  160.9680   32.0250 F   0  0  0  0  0  0  0  0  0  0  0  0
   51.7350  161.9370   30.0730 F   0  0  0  0  0  0  0  0  0  0  0  0
   49.2860  158.2400   31.2270 C   0  0  0  0  0  0  0  0  0  0  0  0
   48.0840  158.8580   31.9810 C   0  0  0  0  0  0  0  0  0  0  0  0
   46.3686  160.2156   32.9523 H   0  0  0  0  0  0  0  0  0  0  0  0
   46.0908  161.3968   31.6278 H   0  0  0  0  0  0  0  0  0  0  0  0
   45.2195  159.8259   31.6278 H   0  0  0  0  0  0  0  0  0  0  0  0
   46.8410  159.1590   30.3680 H   0  0  0  0  0  0  0  0  0  0  0  0
   47.5024  161.3713   29.8161 H   0  0  0  0  0  0  0  0  0  0  0  0
   48.5109  161.3885   31.3293 H   0  0  0  0  0  0  0  0  0  0  0  0
   48.9432  159.5867   28.8861 H   0  0  0  0  0  0  0  0  0  0  0  0
   49.9447  161.0027   29.3633 H   0  0  0  0  0  0  0  0  0  0  0  0
   50.4631  156.9555   29.3783 H   0  0  0  0  0  0  0  0  0  0  0  0
   54.1815  155.7429   24.5169 H   0  0  0  0  0  0  0  0  0  0  0  0
   54.4530  153.6909   23.1219 H   0  0  0  0  0  0  0  0  0  0  0  0
   53.7030  151.4764   23.9951 H   0  0  0  0  0  0  0  0  0  0  0  0
   52.7480  150.7930   27.1890 H   0  0  0  0  0  0  0  0  0  0  0  0
   51.5330  153.7890   30.4570 H   0  0  0  0  0  0  0  0  0  0  0  0
   54.6288  157.5664   28.4291 H   0  0  0  0  0  0  0  0  0  0  0  0
   54.5518  159.7840   29.5442 H   0  0  0  0  0  0  0  0  0  0  0  0
   48.9158  157.5797   30.4289 H   0  0  0  0  0  0  0  0  0  0  0  0
   49.8986  157.6608   31.9336 H   0  0  0  0  0  0  0  0  0  0  0  0
   47.4553  158.0439   32.3709 H   0  0  0  0  0  0  0  0  0  0  0  0
   48.4833  159.4834   32.7930 H   0  0  0  0  0  0  0  0  0  0  0  0
  1  2  1  0
  2  3  1  0
  3  4  1  0
  4  5  1  0
  5  6  1  0
  6  7  2  0
  7  8  1  0
  8  9  1  0
  9 10  1  0
 10 11  1  0
 11 12  2  0
 12 13  1  0
 13 14  2  0
 14 15  1  0
 15 16  1  0
 15 17  2  0
 17 18  1  0
 18 19  2  0
 18 20  1  0
 20 21  1  0
  8 22  2  0
 22 23  1  0
 23 24  2  0
 24 25  1  0
 25 26  1  0
 25 27  1  0
 25 28  1  0
  5 29  1  0
 29 30  1  0
 30  2  1  0
 24  6  1  0
 20  9  2  0
 17 11  1  0
  1 31  1  0
  1 32  1  0
  1 33  1  0
  2 34  1  0
  3 35  1  0
  3 36  1  0
  4 37  1  0
  4 38  1  0
  7 39  1  0
 12 40  1  0
 13 41  1  0
 14 42  1  0
 16 43  1  0
 21 44  1  0
 22 45  1  0
 23 46  1  0
 29 47  1  0
 29 48  1  0
 30 49  1  0
 30 50  1  0
M  CHG  1   2   1
M  END
>  <meeko>  (3) 
{"is_sidechain": [false], "free_energy": -8.464, "intermolecular_energy": -8.185, "internal_energy": -0.206}

$$$$
cand_056_out
     RDKit          3D

 50 53  0  0  0  0  0  0  0  0999 V2000
   52.9780  148.6930   25.4340 C   0  0  0  0  0  0  0  0  0  0  0  0
   53.2230  150.0390   25.9500 N   0  0  0  0  0  0  0  0  0  0  0  0
   54.0960  150.7990   25.0250 C   0  0  0  0  0  0  0  0  0  0  0  0
   54.3380  152.2520   25.5020 C   0  0  0  0  0  0  0  0  0  0  0  0
   53.0410  152.9470   25.6740 N   0  0  0  0  0  0  0  0  0  0  0  0
   53.1720  154.3130   25.9800 C   0  0  0  0  0  0  0  0  0  0  0  0
   52.4180  154.9230   27.0000 C   0  0  0  0  0  0  0  0  0  0  0  0
   52.5550  156.2840   27.3120 C   0  0  0  0  0  0  0  0  0  0  0  0
   51.7470  156.9230   28.3710 C   0  0  0  0  0  0  0  0  0  0  0  0
   52.2660  158.1430   28.7870 O   0  0  0  0  0  0  0  0  0  0  0  0
   51.6110  158.8420   29.7670 C   0  0  0  0  0  0  0  0  0  0  0  0
   52.1600  160.0700   30.1440 C   0  0  0  0  0  0  0  0  0  0  0  0
   51.5420  160.8320   31.1380 C   0  0  0  0  0  0  0  0  0  0  0  0
   50.3780  160.3680   31.7550 C   0  0  0  0  0  0  0  0  0  0  0  0
   49.8340  159.1440   31.3780 C   0  0  0  0  0  0  0  0  0  0  0  0
   48.6940  158.7490   32.0230 O   0  0  0  0  0  0  0  0  0  0  0  0
   50.4510  158.3810   30.3830 C   0  0  0  0  0  0  0  0  0  0  0  0
   49.9120  157.0890   29.9570 C   0  0  0  0  0  0  0  0  0  0  0  0
   48.8960  156.6100   30.4570 O   0  0  0  0  0  0  0  0  0  0  0  0
   50.6370  156.3630   28.8890 C   0  0  0  0  0  0  0  0  0  0  0  0
   50.1280  155.1370   28.5020 O   0  0  0  0  0  0  0  0  0  0  0  0
   53.4560  157.0500   26.5660 C   0  0  0  0  0  0  0  0  0  0  0  0
   54.2100  156.4650   25.5470 C   0  0  0  0  0  0  0  0  0  0  0  0
   54.0790  155.0970   25.2440 C   0  0  0  0  0  0  0  0  0  0  0  0
   54.9080  154.4880   24.1400 C   0  0  0  0  0  0  0  0  0  0  0  0
   55.4690  155.4310   23.3210 F   0  0  0  0  0  0  0  0  0  0  0  0
   54.1960  153.6800   23.3010 F   0  0  0  0  0  0  0  0  0  0  0  0
   55.9620  153.7460   24.5890 F   0  0  0  0  0  0  0  0  0  0  0  0
   52.1570  152.2200   26.6150 C   0  0  0  0  0  0  0  0  0  0  0  0
   51.9450  150.7680   26.1250 C   0  0  0  0  0  0  0  0  0  0  0  0
   52.8510  147.9954   26.2750 H   0  0  0  0  0  0  0  0  0  0  0  0
   52.0657  148.6963   24.8194 H   0  0  0  0  0  0  0  0  0  0  0  0
   53.8330  148.3747   24.8194 H   0  0  0  0  0  0  0  0  0  0  0  0
   53.6870  149.9480   26.8550 H   0  0  0  0  0  0  0  0  0  0  0  0
   55.0658  150.2850   24.9520 H   0  0  0  0  0  0  0  0  0  0  0  0
   53.5904  150.8461   24.0492 H   0  0  0  0  0  0  0  0  0  0  0  0
   54.8740  152.2364   26.4624 H   0  0  0  0  0  0  0  0  0  0  0  0
   54.9387  152.7854   24.7505 H   0  0  0  0  0  0  0  0  0  0  0  0
   51.7000  154.3146   27.5695 H   0  0  0  0  0  0  0  0  0  0  0  0
   53.0770  160.4360   29.6591 H   0  0  0  0  0  0  0  0  0  0  0  0
   51.9728  161.7994   31.4355 H   0  0  0  0  0  0  0  0  0  0  0  0
   49.8921  160.9692   32.5376 H   0  0  0  0  0  0  0  0  0  0  0  0
   48.7500  158.1810   32.7670 H   0  0  0  0  0  0  0  0  0  0  0  0
   49.2620  155.0800   28.1480 H   0  0  0  0  0  0  0  0  0  0  0  0
   53.5717  158.1220   26.7837 H   0  0  0  0  0  0  0  0  0  0  0  0
   54.9166  157.0822   24.9727 H   0  0  0  0  0  0  0  0  0  0  0  0
   52.6207  152.2041   27.6123 H   0  0  0  0  0  0  0  0  0  0  0  0
   51.1840  152.7306   26.6648 H   0  0  0  0  0  0  0  0  0  0  0  0
   51.3308  150.2320   26.8635 H   0  0  0  0  0  0  0  0  0  0  0  0
   51.4479  150.8139   25.1448 H   0  0  0  0  0  0  0  0  0  0  0  0
  1  2  1  0
  2  3  1  0
  3  4  1  0
  4  5  1  0
  5  6  1  0
  6  7  2  0
  7  8  1  0
  8  9  1  0
  9 10  1  0
 10 11  1  0
 11 12  2  0
 12 13  1  0
 13 14  2  0
 14 15  1  0
 15 16  1  0
 15 17  2  0
 17 18  1  0
 18 19  2  0
 18 20  1  0
 20 21  1  0
  8 22  2  0
 22 23  1  0
 23 24  2  0
 24 25  1  0
 25 26  1  0
 25 27  1  0
 25 28  1  0
  5 29  1  0
 29 30  1  0
 30  2  1  0
 24  6  1  0
 20  9  2  0
 17 11  1  0
  1 31  1  0
  1 32  1  0
  1 33  1  0
  2 34  1  0
  3 35  1  0
  3 36  1  0
  4 37  1  0
  4 38  1  0
  7 39  1  0
 12 40  1  0
 13 41  1  0
 14 42  1  0
 16 43  1  0
 21 44  1  0
 22 45  1  0
 23 46  1  0
 29 47  1  0
 29 48  1  0
 30 49  1  0
 30 50  1  0
M  CHG  1   2   1
M  END
>  <meeko>  (4) 
{"is_sidechain": [false], "free_energy": -7.498, "intermolecular_energy": -9.496, "internal_energy": 2.296}

$$$$
cand_056_out
     RDKit          3D

 50 53  0  0  0  0  0  0  0  0999 V2000
   53.3890  163.4230   31.0810 C   0  0  0  0  0  0  0  0  0  0  0  0
   52.9000  162.2290   30.3930 N   0  0  0  0  0  0  0  0  0  0  0  0
   53.6300  161.0260   30.8560 C   0  0  0  0  0  0  0  0  0  0  0  0
   53.1080  159.7270   30.1950 C   0  0  0  0  0  0  0  0  0  0  0  0
   51.6570  159.5790   30.4550 N   0  0  0  0  0  0  0  0  0  0  0  0
   51.1260  158.3590   30.0010 C   0  0  0  0  0  0  0  0  0  0  0  0
   51.8320  157.5250   29.1130 C   0  0  0  0  0  0  0  0  0  0  0  0
   51.3070  156.3020   28.6680 C   0  0  0  0  0  0  0  0  0  0  0  0
   52.0440  155.4400   27.7210 C   0  0  0  0  0  0  0  0  0  0  0  0
   51.6960  154.0990   27.8260 O   0  0  0  0  0  0  0  0  0  0  0  0
   52.3060  153.1890   27.0020 C   0  0  0  0  0  0  0  0  0  0  0  0
   51.9150  151.8550   27.1310 C   0  0  0  0  0  0  0  0  0  0  0  0
   52.5000  150.8770   26.3230 C   0  0  0  0  0  0  0  0  0  0  0  0
   53.4740  151.2330   25.3870 C   0  0  0  0  0  0  0  0  0  0  0  0
   53.8620  152.5630   25.2600 C   0  0  0  0  0  0  0  0  0  0  0  0
   54.8210  152.8410   24.3260 O   0  0  0  0  0  0  0  0  0  0  0  0
   53.2770  153.5420   26.0690 C   0  0  0  0  0  0  0  0  0  0  0  0
   53.6570  154.9520   25.9680 C   0  0  0  0  0  0  0  0  0  0  0  0
   54.5100  155.3420   25.1750 O   0  0  0  0  0  0  0  0  0  0  0  0
   52.9710  155.9110   26.8650 C   0  0  0  0  0  0  0  0  0  0  0  0
   53.3450  157.2380   26.7720 O   0  0  0  0  0  0  0  0  0  0  0  0
   50.0360  155.9230   29.1110 C   0  0  0  0  0  0  0  0  0  0  0  0
   49.3190  156.7380   29.9890 C   0  0  0  0  0  0  0  0  0  0  0  0
   49.8530  157.9580   30.4430 C   0  0  0  0  0  0  0  0  0  0  0  0
   49.0590  158.8200   31.3940 C   0  0  0  0  0  0  0  0  0  0  0  0
   48.1530  158.0990   32.1250 F   0  0  0  0  0  0  0  0  0  0  0  0
   48.3160  159.7820   30.7720 F   0  0  0  0  0  0  0  0  0  0  0  0
   49.8230  159.4630   32.3240 F   0  0  0  0  0  0  0  0  0  0  0  0
   50.8980  160.7590   29.9770 C   0  0  0  0  0  0  0  0  0  0  0  0
   51.4510  162.0440   30.6400 C   0  0  0  0  0  0  0  0  0  0  0  0
   53.3267  163.2708   32.1686 H   0  0  0  0  0  0  0  0  0  0  0  0
   54.4352  163.6078   30.7960 H   0  0  0  0  0  0  0  0  0  0  0  0
   52.7729  164.2886   30.7960 H   0  0  0  0  0  0  0  0  0  0  0  0
   53.0580  162.3570   29.3930 H   0  0  0  0  0  0  0  0  0  0  0  0
   54.6958  161.1435   30.6105 H   0  0  0  0  0  0  0  0  0  0  0  0
   53.4734  160.9361   31.9411 H   0  0  0  0  0  0  0  0  0  0  0  0
   53.2815  159.7744   29.1098 H   0  0  0  0  0  0  0  0  0  0  0  0
   53.6425  158.8640   30.6187 H   0  0  0  0  0  0  0  0  0  0  0  0
   52.8239  157.8413   28.7578 H   0  0  0  0  0  0  0  0  0  0  0  0
   51.1477  151.5745   27.8676 H   0  0  0  0  0  0  0  0  0  0  0  0
   52.1934  149.8254   26.4239 H   0  0  0  0  0  0  0  0  0  0  0  0
   53.9338  150.4623   24.7509 H   0  0  0  0  0  0  0  0  0  0  0  0
   54.8110  152.4000   23.4980 H   0  0  0  0  0  0  0  0  0  0  0  0
   52.7650  157.9110   27.0720 H   0  0  0  0  0  0  0  0  0  0  0  0
   49.5976  154.9753   28.7650 H   0  0  0  0  0  0  0  0  0  0  0  0
   48.3224  156.4218   30.3307 H   0  0  0  0  0  0  0  0  0  0  0  0
   50.9988  160.8397   28.8846 H   0  0  0  0  0  0  0  0  0  0  0  0
   49.8376  160.6406   30.2444 H   0  0  0  0  0  0  0  0  0  0  0  0
   50.9100  162.9116   30.2343 H   0  0  0  0  0  0  0  0  0  0  0  0
   51.3056  161.9499   31.7263 H   0  0  0  0  0  0  0  0  0  0  0  0
  1  2  1  0
  2  3  1  0
  3  4  1  0
  4  5  1  0
  5  6  1  0
  6  7  2  0
  7  8  1  0
  8  9  1  0
  9 10  1  0
 10 11  1  0
 11 12  2  0
 12 13  1  0
 13 14  2  0
 14 15  1  0
 15 16  1  0
 15 17  2  0
 17 18  1  0
 18 19  2  0
 18 20  1  0
 20 21  1  0
  8 22  2  0
 22 23  1  0
 23 24  2  0
 24 25  1  0
 25 26  1  0
 25 27  1  0
 25 28  1  0
  5 29  1  0
 29 30  1  0
 30  2  1  0
 24  6  1  0
 20  9  2  0
 17 11  1  0
  1 31  1  0
  1 32  1  0
  1 33  1  0
  2 34  1  0
  3 35  1  0
  3 36  1  0
  4 37  1  0
  4 38  1  0
  7 39  1  0
 12 40  1  0
 13 41  1  0
 14 42  1  0
 16 43  1  0
 21 44  1  0
 22 45  1  0
 23 46  1  0
 29 47  1  0
 29 48  1  0
 30 49  1  0
 30 50  1  0
M  CHG  1   2   1
M  END
>  <meeko>  (5) 
{"is_sidechain": [false], "free_energy": -6.484, "intermolecular_energy": -6.859, "internal_energy": 0.911}

$$$$
cand_056_out
     RDKit          3D

 50 53  0  0  0  0  0  0  0  0999 V2000
   55.2070  155.4160   23.0990 C   0  0  0  0  0  0  0  0  0  0  0  0
   54.1530  155.6290   24.0900 N   0  0  0  0  0  0  0  0  0  0  0  0
   53.6210  154.3320   24.5700 C   0  0  0  0  0  0  0  0  0  0  0  0
   52.5400  154.5050   25.6640 C   0  0  0  0  0  0  0  0  0  0  0  0
   53.0910  155.2860   26.7960 N   0  0  0  0  0  0  0  0  0  0  0  0
   52.2160  155.3800   27.8930 C   0  0  0  0  0  0  0  0  0  0  0  0
   51.7960  156.6220   28.4070 C   0  0  0  0  0  0  0  0  0  0  0  0
   50.9160  156.7160   29.4950 C   0  0  0  0  0  0  0  0  0  0  0  0
   50.4940  158.0220   30.0410 C   0  0  0  0  0  0  0  0  0  0  0  0
   51.5660  158.8430   30.3700 O   0  0  0  0  0  0  0  0  0  0  0  0
   51.3130  160.0880   30.8870 C   0  0  0  0  0  0  0  0  0  0  0  0
   52.4190  160.8840   31.1890 C   0  0  0  0  0  0  0  0  0  0  0  0
   52.2320  162.1620   31.7210 C   0  0  0  0  0  0  0  0  0  0  0  0
   50.9410  162.6420   31.9510 C   0  0  0  0  0  0  0  0  0  0  0  0
   49.8400  161.8460   31.6490 C   0  0  0  0  0  0  0  0  0  0  0  0
   48.6050  162.3770   31.9010 O   0  0  0  0  0  0  0  0  0  0  0  0
   50.0270  160.5670   31.1170 C   0  0  0  0  0  0  0  0  0  0  0  0
   48.8980  159.6970   30.7860 C   0  0  0  0  0  0  0  0  0  0  0  0
   47.7320  160.0450   30.9660 O   0  0  0  0  0  0  0  0  0  0  0  0
   49.2040  158.3640   30.2190 C   0  0  0  0  0  0  0  0  0  0  0  0
   48.1310  157.5440   29.9220 O   0  0  0  0  0  0  0  0  0  0  0  0
   50.4660  155.5330   30.0900 C   0  0  0  0  0  0  0  0  0  0  0  0
   50.8730  154.2920   29.5980 C   0  0  0  0  0  0  0  0  0  0  0  0
   51.7480  154.2010   28.4990 C   0  0  0  0  0  0  0  0  0  0  0  0
   52.1710  152.8470   27.9850 C   0  0  0  0  0  0  0  0  0  0  0  0
   51.7570  151.8230   28.7940 F   0  0  0  0  0  0  0  0  0  0  0  0
   53.5240  152.6920   27.8950 F   0  0  0  0  0  0  0  0  0  0  0  0
   51.6650  152.5430   26.7540 F   0  0  0  0  0  0  0  0  0  0  0  0
   53.6070  156.6010   26.3480 C   0  0  0  0  0  0  0  0  0  0  0  0
   54.6730  156.4000   25.2440 C   0  0  0  0  0  0  0  0  0  0  0  0
   56.1602  155.2234   23.6131 H   0  0  0  0  0  0  0  0  0  0  0  0
   54.9489  154.5519   22.4692 H   0  0  0  0  0  0  0  0  0  0  0  0
   55.3047  156.3125   22.4692 H   0  0  0  0  0  0  0  0  0  0  0  0
   53.4030  156.1570   23.6420 H   0  0  0  0  0  0  0  0  0  0  0  0
   53.1784  153.7949   23.7181 H   0  0  0  0  0  0  0  0  0  0  0  0
   54.4571  153.7697   25.0113 H   0  0  0  0  0  0  0  0  0  0  0  0
   51.6744  155.0361   25.2412 H   0  0  0  0  0  0  0  0  0  0  0  0
   52.2272  153.5141   26.0250 H   0  0  0  0  0  0  0  0  0  0  0  0
   52.1693  157.5460   27.9413 H   0  0  0  0  0  0  0  0  0  0  0  0
   53.4360  160.5057   31.0084 H   0  0  0  0  0  0  0  0  0  0  0  0
   53.1026  162.7909   31.9590 H   0  0  0  0  0  0  0  0  0  0  0  0
   50.7944  163.6483   32.3705 H   0  0  0  0  0  0  0  0  0  0  0  0
   48.0230  161.9490   32.4980 H   0  0  0  0  0  0  0  0  0  0  0  0
   47.9030  157.3750   29.0290 H   0  0  0  0  0  0  0  0  0  0  0  0
   49.7856  155.5811   30.9530 H   0  0  0  0  0  0  0  0  0  0  0  0
   50.5049  153.3721   30.0757 H   0  0  0  0  0  0  0  0  0  0  0  0
   52.7767  157.2017   25.9483 H   0  0  0  0  0  0  0  0  0  0  0  0
   54.0643  157.1210   27.2027 H   0  0  0  0  0  0  0  0  0  0  0  0
   55.0043  157.3870   24.8889 H   0  0  0  0  0  0  0  0  0  0  0  0
   55.5051  155.8288   25.6814 H   0  0  0  0  0  0  0  0  0  0  0  0
  1  2  1  0
  2  3  1  0
  3  4  1  0
  4  5  1  0
  5  6  1  0
  6  7  2  0
  7  8  1  0
  8  9  1  0
  9 10  1  0
 10 11  1  0
 11 12  2  0
 12 13  1  0
 13 14  2  0
 14 15  1  0
 15 16  1  0
 15 17  2  0
 17 18  1  0
 18 19  2  0
 18 20  1  0
 20 21  1  0
  8 22  2  0
 22 23  1  0
 23 24  2  0
 24 25  1  0
 25 26  1  0
 25 27  1  0
 25 28  1  0
  5 29  1  0
 29 30  1  0
 30  2  1  0
 24  6  1  0
 20  9  2  0
 17 11  1  0
  1 31  1  0
  1 32  1  0
  1 33  1  0
  2 34  1  0
  3 35  1  0
  3 36  1  0
  4 37  1  0
  4 38  1  0
  7 39  1  0
 12 40  1  0
 13 41  1  0
 14 42  1  0
 16 43  1  0
 21 44  1  0
 22 45  1  0
 23 46  1  0
 29 47  1  0
 29 48  1  0
 30 49  1  0
 30 50  1  0
M  CHG  1   2   1
M  END
>  <meeko>  (6) 
{"is_sidechain": [false], "free_energy": -5.879, "intermolecular_energy": -6.328, "internal_energy": 1.126}

$$$$
