cand_004_out
     RDKit          3D

 38 40  0  0  0  0  0  0  0  0999 V2000
   47.3290  159.5760   30.7090 C   0  0  0  0  0  0  0  0  0  0  0  0
   48.3320  158.7300   31.4800 C   0  0  0  0  0  0  0  0  0  0  0  0
   49.7130  158.7890   30.8620 C   0  0  0  0  0  0  0  0  0  0  0  0
   50.1660  157.6630   30.1440 C   0  0  0  0  0  0  0  0  0  0  0  0
   51.4400  157.6230   29.5580 C   0  0  0  0  0  0  0  0  0  0  0  0
   51.9050  156.4510   28.7880 C   0  0  0  0  0  0  0  0  0  0  0  0
   52.4720  156.7980   27.5670 O   0  0  0  0  0  0  0  0  0  0  0  0
   52.9470  155.8030   26.7500 C   0  0  0  0  0  0  0  0  0  0  0  0
   53.4940  156.1950   25.5270 C   0  0  0  0  0  0  0  0  0  0  0  0
   53.9970  155.2320   24.6490 C   0  0  0  0  0  0  0  0  0  0  0  0
   53.9520  153.8790   24.9930 C   0  0  0  0  0  0  0  0  0  0  0  0
   53.4060  153.4920   26.2140 C   0  0  0  0  0  0  0  0  0  0  0  0
   53.3950  152.1510   26.4870 O   0  0  0  0  0  0  0  0  0  0  0  0
   52.9030  154.4550   27.0920 C   0  0  0  0  0  0  0  0  0  0  0  0
   52.3190  154.0900   28.3840 C   0  0  0  0  0  0  0  0  0  0  0  0
   52.2510  152.9220   28.7610 O   0  0  0  0  0  0  0  0  0  0  0  0
   51.8070  155.1860   29.2380 C   0  0  0  0  0  0  0  0  0  0  0  0
   51.2710  154.8330   30.4620 O   0  0  0  0  0  0  0  0  0  0  0  0
   52.2640  158.7460   29.6860 C   0  0  0  0  0  0  0  0  0  0  0  0
   51.8330  159.8700   30.3960 C   0  0  0  0  0  0  0  0  0  0  0  0
   50.5620  159.9090   30.9970 C   0  0  0  0  0  0  0  0  0  0  0  0
   50.1440  161.1550   31.7510 C   0  0  0  0  0  0  0  0  0  0  0  0
   49.1730  161.8650   31.1130 F   0  0  0  0  0  0  0  0  0  0  0  0
   51.1790  162.0200   31.9440 F   0  0  0  0  0  0  0  0  0  0  0  0
   49.6470  160.8970   32.9950 F   0  0  0  0  0  0  0  0  0  0  0  0
   46.6857  160.1186   31.4174 H   0  0  0  0  0  0  0  0  0  0  0  0
   47.8672  160.2970   30.0762 H   0  0  0  0  0  0  0  0  0  0  0  0
   46.7091  158.9239   30.0762 H   0  0  0  0  0  0  0  0  0  0  0  0
   48.3890  159.1003   32.5142 H   0  0  0  0  0  0  0  0  0  0  0  0
   47.9899  157.6849   31.4514 H   0  0  0  0  0  0  0  0  0  0  0  0
   49.5021  156.7920   30.0406 H   0  0  0  0  0  0  0  0  0  0  0  0
   53.5289  157.2603   25.2552 H   0  0  0  0  0  0  0  0  0  0  0  0
   54.4291  155.5396   23.6853 H   0  0  0  0  0  0  0  0  0  0  0  0
   54.3471  153.1208   24.3008 H   0  0  0  0  0  0  0  0  0  0  0  0
   52.8940  151.5680   25.9520 H   0  0  0  0  0  0  0  0  0  0  0  0
   51.8000  154.8740   31.2350 H   0  0  0  0  0  0  0  0  0  0  0  0
   53.2618  158.7445   29.2229 H   0  0  0  0  0  0  0  0  0  0  0  0
   52.5000  160.7400   30.4864 H   0  0  0  0  0  0  0  0  0  0  0  0
  1  2  1  0
  2  3  1  0
  3  4  2  0
  4  5  1  0
  5  6  1  0
  6  7  1  0
  7  8  1  0
  8  9  2  0
  9 10  1  0
 10 11  2  0
 11 12  1  0
 12 13  1  0
 12 14  2  0
 14 15  1  0
 15 16  2  0
 15 17  1  0
 17 18  1  0
  5 19  2  0
 19 20  1  0
 20 21  2  0
 21 22  1  0
 22 23  1  0
 22 24  1  0
 22 25  1  0
 21  3  1  0
 17  6  2  0
 14  8  1  0
  1 26  1  0
  1 27  1  0
  1 28  1  0
  2 29  1  0
  2 30  1  0
  4 31  1  0
  9 32  1  0
 10 33  1  0
 11 34  1  0
 13 35  1  0
 18 36  1  0
 19 37  1  0
 20 38  1  0
M  END
>  <meeko>  (1) 
{"is_sidechain": [false], "free_energy": -11.917, "intermolecular_energy": -14.704, "internal_energy": -0.12}

$$$$
cand_004_out
     RDKit          3D

 38 40  0  0  0  0  0  0  0  0999 V2000
   52.9740  156.3350   24.9350 C   0  0  0  0  0  0  0  0  0  0  0  0
   53.6530  155.9650   26.2460 C   0  0  0  0  0  0  0  0  0  0  0  0
   52.6580  155.8360   27.3800 C   0  0  0  0  0  0  0  0  0  0  0  0
   52.3210  156.9990   28.1020 C   0  0  0  0  0  0  0  0  0  0  0  0
   51.4270  156.9670   29.1810 C   0  0  0  0  0  0  0  0  0  0  0  0
   51.0580  158.1910   29.9230 C   0  0  0  0  0  0  0  0  0  0  0  0
   49.7470  158.1690   30.3840 O   0  0  0  0  0  0  0  0  0  0  0  0
   49.2740  159.2460   31.0900 C   0  0  0  0  0  0  0  0  0  0  0  0
   47.9470  159.1880   31.5200 C   0  0  0  0  0  0  0  0  0  0  0  0
   47.4040  160.2510   32.2460 C   0  0  0  0  0  0  0  0  0  0  0  0
   48.1860  161.3700   32.5400 C   0  0  0  0  0  0  0  0  0  0  0  0
   49.5090  161.4240   32.1100 C   0  0  0  0  0  0  0  0  0  0  0  0
   50.2180  162.5490   32.4340 O   0  0  0  0  0  0  0  0  0  0  0  0
   50.0520  160.3620   31.3840 C   0  0  0  0  0  0  0  0  0  0  0  0
   51.4380  160.3790   30.9120 C   0  0  0  0  0  0  0  0  0  0  0  0
   52.1910  161.3240   31.1370 O   0  0  0  0  0  0  0  0  0  0  0  0
   51.9140  159.2060   30.1440 C   0  0  0  0  0  0  0  0  0  0  0  0
   53.2280  159.2250   29.7150 O   0  0  0  0  0  0  0  0  0  0  0  0
   50.8500  155.7410   29.5280 C   0  0  0  0  0  0  0  0  0  0  0  0
   51.1730  154.5770   28.8250 C   0  0  0  0  0  0  0  0  0  0  0  0
   52.0810  154.6020   27.7510 C   0  0  0  0  0  0  0  0  0  0  0  0
   52.3920  153.3110   27.0220 C   0  0  0  0  0  0  0  0  0  0  0  0
   51.9820  153.3190   25.7240 F   0  0  0  0  0  0  0  0  0  0  0  0
   51.7970  152.2300   27.5990 F   0  0  0  0  0  0  0  0  0  0  0  0
   53.7230  153.0180   26.9810 F   0  0  0  0  0  0  0  0  0  0  0  0
   52.0261  156.8516   25.1461 H   0  0  0  0  0  0  0  0  0  0  0  0
   53.6324  156.9991   24.3557 H   0  0  0  0  0  0  0  0  0  0  0  0
   52.7729  155.4218   24.3557 H   0  0  0  0  0  0  0  0  0  0  0  0
   54.1733  155.0043   26.1183 H   0  0  0  0  0  0  0  0  0  0  0  0
   54.3601  156.7677   26.5023 H   0  0  0  0  0  0  0  0  0  0  0  0
   52.7724  157.9587   27.8103 H   0  0  0  0  0  0  0  0  0  0  0  0
   47.3303  158.3072   31.2877 H   0  0  0  0  0  0  0  0  0  0  0  0
   46.3590  160.2065   32.5865 H   0  0  0  0  0  0  0  0  0  0  0  0
   47.7574  162.2073   33.1103 H   0  0  0  0  0  0  0  0  0  0  0  0
   49.9780  163.3760   32.0660 H   0  0  0  0  0  0  0  0  0  0  0  0
   53.4560  159.6700   28.9210 H   0  0  0  0  0  0  0  0  0  0  0  0
   50.1349  155.6925   30.3625 H   0  0  0  0  0  0  0  0  0  0  0  0
   50.7085  153.6236   29.1170 H   0  0  0  0  0  0  0  0  0  0  0  0
  1  2  1  0
  2  3  1  0
  3  4  2  0
  4  5  1  0
  5  6  1  0
  6  7  1  0
  7  8  1  0
  8  9  2  0
  9 10  1  0
 10 11  2  0
 11 12  1  0
 12 13  1  0
 12 14  2  0
 14 15  1  0
 15 16  2  0
 15 17  1  0
 17 18  1  0
  5 19  2  0
 19 20  1  0
 20 21  2  0
 21 22  1  0
 22 23  1  0
 22 24  1  0
 22 25  1  0
 21  3  1  0
 17  6  2  0
 14  8  1  0
  1 26  1  0
  1 27  1  0
  1 28  1  0
  2 29  1  0
  2 30  1  0
  4 31  1  0
  9 32  1  0
 10 33  1  0
 11 34  1  0
 13 35  1  0
 18 36  1  0
 19 37  1  0
 20 38  1  0
M  END
>  <meeko>  (2) 
{"is_sidechain": [false], "free_energy": -11.296, "intermolecular_energy": -13.782, "internal_energy": -0.275}

$$$$
cand_004_out
     RDKit          3D

 38 40  0  0  0  0  0  0  0  0999 V2000
   51.8000  161.2210   31.9570 C   0  0  0  0  0  0  0  0  0  0  0  0
   51.3090  160.9910   30.5350 C   0  0  0  0  0  0  0  0  0  0  0  0
   50.6550  159.6350   30.3760 C   0  0  0  0  0  0  0  0  0  0  0  0
   51.3660  158.6320   29.6850 C   0  0  0  0  0  0  0  0  0  0  0  0
   50.8270  157.3550   29.4730 C   0  0  0  0  0  0  0  0  0  0  0  0
   51.5830  156.2990   28.7680 C   0  0  0  0  0  0  0  0  0  0  0  0
   52.1260  156.7350   27.5650 O   0  0  0  0  0  0  0  0  0  0  0  0
   52.8550  155.8520   26.8090 C   0  0  0  0  0  0  0  0  0  0  0  0
   53.3690  156.3270   25.6010 C   0  0  0  0  0  0  0  0  0  0  0  0
   54.1210  155.4810   24.7840 C   0  0  0  0  0  0  0  0  0  0  0  0
   54.3580  154.1600   25.1730 C   0  0  0  0  0  0  0  0  0  0  0  0
   53.8440  153.6890   26.3780 C   0  0  0  0  0  0  0  0  0  0  0  0
   54.1150  152.3870   26.6980 O   0  0  0  0  0  0  0  0  0  0  0  0
   53.0910  154.5360   27.1950 C   0  0  0  0  0  0  0  0  0  0  0  0
   52.5320  154.0810   28.4690 C   0  0  0  0  0  0  0  0  0  0  0  0
   52.7030  152.9360   28.8840 O   0  0  0  0  0  0  0  0  0  0  0  0
   51.7430  155.0550   29.2570 C   0  0  0  0  0  0  0  0  0  0  0  0
   51.2300  154.6200   30.4650 O   0  0  0  0  0  0  0  0  0  0  0  0
   49.5530  157.0810   29.9800 C   0  0  0  0  0  0  0  0  0  0  0  0
   48.8320  158.0630   30.6660 C   0  0  0  0  0  0  0  0  0  0  0  0
   49.3630  159.3490   30.8680 C   0  0  0  0  0  0  0  0  0  0  0  0
   48.5390  160.3740   31.6220 C   0  0  0  0  0  0  0  0  0  0  0  0
   48.9790  160.5810   32.8930 F   0  0  0  0  0  0  0  0  0  0  0  0
   47.2300  160.0130   31.7290 F   0  0  0  0  0  0  0  0  0  0  0  0
   48.5330  161.6040   31.0340 F   0  0  0  0  0  0  0  0  0  0  0  0
   51.0408  160.8653   32.6691 H   0  0  0  0  0  0  0  0  0  0  0  0
   52.7381  160.6686   32.1149 H   0  0  0  0  0  0  0  0  0  0  0  0
   51.9761  162.2953   32.1149 H   0  0  0  0  0  0  0  0  0  0  0  0
   50.5763  161.7712   30.2812 H   0  0  0  0  0  0  0  0  0  0  0  0
   52.1792  161.0307   29.8633 H   0  0  0  0  0  0  0  0  0  0  0  0
   52.3719  158.8579   29.3015 H   0  0  0  0  0  0  0  0  0  0  0  0
   53.1817  157.3664   25.2934 H   0  0  0  0  0  0  0  0  0  0  0  0
   54.5275  155.8548   23.8327 H   0  0  0  0  0  0  0  0  0  0  0  0
   54.9496  153.4935   24.5283 H   0  0  0  0  0  0  0  0  0  0  0  0
   54.4860  151.8150   26.0560 H   0  0  0  0  0  0  0  0  0  0  0  0
   50.8980  155.2400   31.0840 H   0  0  0  0  0  0  0  0  0  0  0  0
   49.1136  156.0827   29.8377 H   0  0  0  0  0  0  0  0  0  0  0  0
   47.8309  157.8251   31.0548 H   0  0  0  0  0  0  0  0  0  0  0  0
  1  2  1  0
  2  3  1  0
  3  4  2  0
  4  5  1  0
  5  6  1  0
  6  7  1  0
  7  8  1  0
  8  9  2  0
  9 10  1  0
 10 11  2  0
 11 12  1  0
 12 13  1  0
 12 14  2  0
 14 15  1  0
 15 16  2  0
 15 17  1  0
 17 18  1  0
  5 19  2  0
 19 20  1  0
 20 21  2  0
 21 22  1  0
 22 23  1  0
 22 24  1  0
 22 25  1  0
 21  3  1  0
 17  6  2  0
 14  8  1  0
  1 26  1  0
  1 27  1  0
  1 28  1  0
  2 29  1  0
  2 30  1  0
  4 31  1  0
  9 32  1  0
 10 33  1  0
 11 34  1  0
 13 35  1  0
 18 36  1  0
 19 37  1  0
 20 38  1  0
M  END
>  <meeko>  (3) 
{"is_sidechain": [false], "free_energy": -10.849, "intermolecular_energy": -13.413, "internal_energy": -0.093}

$$$$
cand_004_out
     RDKit          3D

 38 40  0  0  0  0  0  0  0  0999 V2000
   54.3460  156.6100   24.8620 C   0  0  0  0  0  0  0  0  0  0  0  0
   53.8850  155.1710   25.0420 C   0  0  0  0  0  0  0  0  0  0  0  0
   53.1600  154.9700   26.3550 C   0  0  0  0  0  0  0  0  0  0  0  0
   52.8120  156.1150   27.1020 C   0  0  0  0  0  0  0  0  0  0  0  0
   52.1590  156.0210   28.3400 C   0  0  0  0  0  0  0  0  0  0  0  0
   51.7750  157.2210   29.1100 C   0  0  0  0  0  0  0  0  0  0  0  0
   50.4640  157.1710   29.5710 O   0  0  0  0  0  0  0  0  0  0  0  0
   49.9780  158.2250   30.3020 C   0  0  0  0  0  0  0  0  0  0  0  0
   48.6520  158.1400   30.7310 C   0  0  0  0  0  0  0  0  0  0  0  0
   48.0960  159.1780   31.4820 C   0  0  0  0  0  0  0  0  0  0  0  0
   48.8640  160.3000   31.8030 C   0  0  0  0  0  0  0  0  0  0  0  0
   50.1850  160.3810   31.3740 C   0  0  0  0  0  0  0  0  0  0  0  0
   50.8790  161.5070   31.7240 O   0  0  0  0  0  0  0  0  0  0  0  0
   50.7420  159.3440   30.6230 C   0  0  0  0  0  0  0  0  0  0  0  0
   52.1270  159.3900   30.1510 C   0  0  0  0  0  0  0  0  0  0  0  0
   52.8680  160.3390   30.3990 O   0  0  0  0  0  0  0  0  0  0  0  0
   52.6180  158.2420   29.3550 C   0  0  0  0  0  0  0  0  0  0  0  0
   53.9320  158.2890   28.9260 O   0  0  0  0  0  0  0  0  0  0  0  0
   51.8390  154.7490   28.8250 C   0  0  0  0  0  0  0  0  0  0  0  0
   52.1780  153.6020   28.1000 C   0  0  0  0  0  0  0  0  0  0  0  0
   52.8460  153.6920   26.8650 C   0  0  0  0  0  0  0  0  0  0  0  0
   53.1860  152.4180   26.1200 C   0  0  0  0  0  0  0  0  0  0  0  0
   52.5150  151.3300   26.5900 F   0  0  0  0  0  0  0  0  0  0  0  0
   54.5100  152.1070   26.1950 F   0  0  0  0  0  0  0  0  0  0  0  0
   52.8980  152.4740   24.7880 F   0  0  0  0  0  0  0  0  0  0  0  0
   54.4945  157.0736   25.8484 H   0  0  0  0  0  0  0  0  0  0  0  0
   55.2937  156.6243   24.3037 H   0  0  0  0  0  0  0  0  0  0  0  0
   53.5830  157.1723   24.3037 H   0  0  0  0  0  0  0  0  0  0  0  0
   53.2058  154.9095   24.2172 H   0  0  0  0  0  0  0  0  0  0  0  0
   54.7757  154.5256   25.0425 H   0  0  0  0  0  0  0  0  0  0  0  0
   53.0597  157.1095   26.7025 H   0  0  0  0  0  0  0  0  0  0  0  0
   48.0465  157.2572   30.4780 H   0  0  0  0  0  0  0  0  0  0  0  0
   47.0517  159.1120   31.8213 H   0  0  0  0  0  0  0  0  0  0  0  0
   48.4252  161.1177   32.3937 H   0  0  0  0  0  0  0  0  0  0  0  0
   51.7990  161.5620   31.5550 H   0  0  0  0  0  0  0  0  0  0  0  0
   54.4120  159.0920   28.9720 H   0  0  0  0  0  0  0  0  0  0  0  0
   51.3150  154.6495   29.7871 H   0  0  0  0  0  0  0  0  0  0  0  0
   51.9177  152.6119   28.5025 H   0  0  0  0  0  0  0  0  0  0  0  0
  1  2  1  0
  2  3  1  0
  3  4  2  0
  4  5  1  0
  5  6  1  0
  6  7  1  0
  7  8  1  0
  8  9  2  0
  9 10  1  0
 10 11  2  0
 11 12  1  0
 12 13  1  0
 12 14  2  0
 14 15  1  0
 15 16  2  0
 15 17  1  0
 17 18  1  0
  5 19  2  0
 19 20  1  0
 20 21  2  0
 21 22  1  0
 22 23  1  0
 22 24  1  0
 22 25  1  0
 21  3  1  0
 17  6  2  0
 14  8  1  0
  1 26  1  0
  1 27  1  0
  1 28  1  0
  2 29  1  0
  2 30  1  0
  4 31  1  0
  9 32  1  0
 10 33  1  0
 11 34  1  0
 13 35  1  0
 18 36  1  0
 19 37  1  0
 20 38  1  0
M  END
>  <meeko>  (4) 
{"is_sidechain": [false], "free_energy": -10.053, "intermolecular_energy": -12.236, "internal_energy": -0.287}

$$$$
cand_004_out
     RDKit          3D

 38 40  0  0  0  0  0  0  0  0999 V2000
   51.9490  152.8970   29.2430 C   0  0  0  0  0  0  0  0  0  0  0  0
   51.2330  153.6820   28.1540 C   0  0  0  0  0  0  0  0  0  0  0  0
   51.7890  155.0810   28.0070 C   0  0  0  0  0  0  0  0  0  0  0  0
   51.3030  156.0830   28.8730 C   0  0  0  0  0  0  0  0  0  0  0  0
   51.7460  157.4110   28.7930 C   0  0  0  0  0  0  0  0  0  0  0  0
   51.2520  158.4530   29.7150 C   0  0  0  0  0  0  0  0  0  0  0  0
   49.9200  158.2730   30.0700 O   0  0  0  0  0  0  0  0  0  0  0  0
   49.3340  159.1720   30.9240 C   0  0  0  0  0  0  0  0  0  0  0  0
   47.9910  158.9620   31.2420 C   0  0  0  0  0  0  0  0  0  0  0  0
   47.3340  159.8400   32.1070 C   0  0  0  0  0  0  0  0  0  0  0  0
   48.0200  160.9270   32.6540 C   0  0  0  0  0  0  0  0  0  0  0  0
   49.3590  161.1340   32.3350 C   0  0  0  0  0  0  0  0  0  0  0  0
   49.9690  162.2170   32.9070 O   0  0  0  0  0  0  0  0  0  0  0  0
   50.0160  160.2570   31.4700 C   0  0  0  0  0  0  0  0  0  0  0  0
   51.4220  160.4380   31.1080 C   0  0  0  0  0  0  0  0  0  0  0  0
   52.0950  161.3660   31.5540 O   0  0  0  0  0  0  0  0  0  0  0  0
   52.0220  159.4560   30.1770 C   0  0  0  0  0  0  0  0  0  0  0  0
   53.3550  159.6280   29.8520 O   0  0  0  0  0  0  0  0  0  0  0  0
   52.7100  157.7300   27.8310 C   0  0  0  0  0  0  0  0  0  0  0  0
   53.2030  156.7520   26.9630 C   0  0  0  0  0  0  0  0  0  0  0  0
   52.7500  155.4220   27.0310 C   0  0  0  0  0  0  0  0  0  0  0  0
   53.3210  154.4010   26.0670 C   0  0  0  0  0  0  0  0  0  0  0  0
   53.8600  153.3190   26.6940 F   0  0  0  0  0  0  0  0  0  0  0  0
   54.3110  154.9180   25.2870 F   0  0  0  0  0  0  0  0  0  0  0  0
   52.3980  153.8960   25.2000 F   0  0  0  0  0  0  0  0  0  0  0  0
   51.6213  153.2563   30.2297 H   0  0  0  0  0  0  0  0  0  0  0  0
   51.7081  151.8283   29.1433 H   0  0  0  0  0  0  0  0  0  0  0  0
   53.0353  153.0388   29.1433 H   0  0  0  0  0  0  0  0  0  0  0  0
   51.3498  153.1509   27.1978 H   0  0  0  0  0  0  0  0  0  0  0  0
   50.1728  153.7650   28.4354 H   0  0  0  0  0  0  0  0  0  0  0  0
   50.5546  155.8147   29.6332 H   0  0  0  0  0  0  0  0  0  0  0  0
   47.4507  158.1059   30.8117 H   0  0  0  0  0  0  0  0  0  0  0  0
   46.2757  159.6754   32.3577 H   0  0  0  0  0  0  0  0  0  0  0  0
   47.5029  161.6183   33.3357 H   0  0  0  0  0  0  0  0  0  0  0  0
   49.5570  163.0580   32.8740 H   0  0  0  0  0  0  0  0  0  0  0  0
   53.6330  159.5640   28.9590 H   0  0  0  0  0  0  0  0  0  0  0  0
   53.0841  158.7618   27.7569 H   0  0  0  0  0  0  0  0  0  0  0  0
   53.9591  157.0272   26.2129 H   0  0  0  0  0  0  0  0  0  0  0  0
  1  2  1  0
  2  3  1  0
  3  4  2  0
  4  5  1  0
  5  6  1  0
  6  7  1  0
  7  8  1  0
  8  9  2  0
  9 10  1  0
 10 11  2  0
 11 12  1  0
 12 13  1  0
 12 14  2  0
 14 15  1  0
 15 16  2  0
 15 17  1  0
 17 18  1  0
  5 19  2  0
 19 20  1  0
 20 21  2  0
 21 22  1  0
 22 23  1  0
 22 24  1  0
 22 25  1  0
 21  3  1  0
 17  6  2  0
 14  8  1  0
  1 26  1  0
  1 27  1  0
  1 28  1  0
  2 29  1  0
  2 30  1  0
  4 31  1  0
  9 32  1  0
 10 33  1  0
 11 34  1  0
 13 35  1  0
 18 36  1  0
 19 37  1  0
 20 38  1  0
M  END
>  <meeko>  (5) 
{"is_sidechain": [false], "free_energy": -9.485, "intermolecular_energy": -11.626, "internal_energy": -0.196}

$$$$
cand_004_out
     RDKit          3D

 38 40  0  0  0  0  0  0  0  0999 V2000
   54.6980  156.7780   24.9430 C   0  0  0  0  0  0  0  0  0  0  0  0
   53.4050  155.9780   24.8710 C   0  0  0  0  0  0  0  0  0  0  0  0
   52.9370  155.5350   26.2400 C   0  0  0  0  0  0  0  0  0  0  0  0
   52.3040  156.4880   27.0650 C   0  0  0  0  0  0  0  0  0  0  0  0
   51.8590  156.1710   28.3560 C   0  0  0  0  0  0  0  0  0  0  0  0
   51.1760  157.1640   29.2100 C   0  0  0  0  0  0  0  0  0  0  0  0
   51.9630  158.2790   29.4770 O   0  0  0  0  0  0  0  0  0  0  0  0
   51.4490  159.2810   30.2600 C   0  0  0  0  0  0  0  0  0  0  0  0
   52.2790  160.3740   30.5150 C   0  0  0  0  0  0  0  0  0  0  0  0
   51.8170  161.4310   31.3030 C   0  0  0  0  0  0  0  0  0  0  0  0
   50.5260  161.3930   31.8370 C   0  0  0  0  0  0  0  0  0  0  0  0
   49.7010  160.3020   31.5810 C   0  0  0  0  0  0  0  0  0  0  0  0
   48.4500  160.3310   32.1330 O   0  0  0  0  0  0  0  0  0  0  0  0
   50.1640  159.2450   30.7920 C   0  0  0  0  0  0  0  0  0  0  0  0
   49.3300  158.0790   30.4990 C   0  0  0  0  0  0  0  0  0  0  0  0
   48.1810  157.9760   30.9260 O   0  0  0  0  0  0  0  0  0  0  0  0
   49.9170  157.0100   29.6600 C   0  0  0  0  0  0  0  0  0  0  0  0
   49.1160  155.9190   29.3770 O   0  0  0  0  0  0  0  0  0  0  0  0
   52.0430  154.8630   28.8180 C   0  0  0  0  0  0  0  0  0  0  0  0
   52.6700  153.9050   28.0160 C   0  0  0  0  0  0  0  0  0  0  0  0
   53.1300  154.2240   26.7250 C   0  0  0  0  0  0  0  0  0  0  0  0
   53.7990  153.1450   25.8980 C   0  0  0  0  0  0  0  0  0  0  0  0
   53.1450  152.8830   24.7330 F   0  0  0  0  0  0  0  0  0  0  0  0
   53.8840  151.9570   26.5590 F   0  0  0  0  0  0  0  0  0  0  0  0
   55.0770  153.4530   25.5350 F   0  0  0  0  0  0  0  0  0  0  0  0
   54.9677  156.9449   25.9963 H   0  0  0  0  0  0  0  0  0  0  0  0
   55.5029  156.2198   24.4424 H   0  0  0  0  0  0  0  0  0  0  0  0
   54.5578  157.7474   24.4424 H   0  0  0  0  0  0  0  0  0  0  0  0
   52.6246  156.6043   24.4141 H   0  0  0  0  0  0  0  0  0  0  0  0
   53.5951  155.0775   24.2685 H   0  0  0  0  0  0  0  0  0  0  0  0
   52.1553  157.5093   26.6844 H   0  0  0  0  0  0  0  0  0  0  0  0
   53.2956  160.4030   30.0960 H   0  0  0  0  0  0  0  0  0  0  0  0
   52.4696  162.2936   31.5033 H   0  0  0  0  0  0  0  0  0  0  0  0
   50.1625  162.2244   32.4588 H   0  0  0  0  0  0  0  0  0  0  0  0
   48.2090  161.0270   32.7110 H   0  0  0  0  0  0  0  0  0  0  0  0
   48.7780  155.3920   30.0740 H   0  0  0  0  0  0  0  0  0  0  0  0
   51.6907  154.5858   29.8225 H   0  0  0  0  0  0  0  0  0  0  0  0
   52.8062  152.8836   28.4010 H   0  0  0  0  0  0  0  0  0  0  0  0
  1  2  1  0
  2  3  1  0
  3  4  2  0
  4  5  1  0
  5  6  1  0
  6  7  1  0
  7  8  1  0
  8  9  2  0
  9 10  1  0
 10 11  2  0
 11 12  1  0
 12 13  1  0
 12 14  2  0
 14 15  1  0
 15 16  2  0
 15 17  1  0
 17 18  1  0
  5 19  2  0
 19 20  1  0
 20 21  2  0
 21 22  1  0
 22 23  1  0
 22 24  1  0
 22 25  1  0
 21  3  1  0
 17  6  2  0
 14  8  1  0
  1 26  1  0
  1 27  1  0
  1 28  1  0
  2 29  1  0
  2 30  1  0
  4 31  1  0
  9 32  1  0
 10 33  1  0
 11 34  1  0
 13 35  1  0
 18 36  1  0
 19 37  1  0
 20 38  1  0
M  END
>  <meeko>  (6) 
{"is_sidechain": [false], "free_energy": -8.938, "intermolecular_energy": -10.601, "internal_energy": -0.548}

$$$$
