cand_051_out
     RDKit          3D

 44 46  0  0  0  0  0  0  0  0999 V2000
   52.3940  160.9760   30.5530 C   0  0  0  0  0  0  0  0  0  0  0  0
   51.5140  159.7750   30.3430 C   0  0  0  0  0  0  0  0  0  0  0  0
   52.0420  158.6630   29.6590 C   0  0  0  0  0  0  0  0  0  0  0  0
   51.2800  157.5080   29.4220 C   0  0  0  0  0  0  0  0  0  0  0  0
   51.8710  156.3750   28.6780 C   0  0  0  0  0  0  0  0  0  0  0  0
   52.4350  156.7610   27.4680 O   0  0  0  0  0  0  0  0  0  0  0  0
   53.0200  155.8060   26.6740 C   0  0  0  0  0  0  0  0  0  0  0  0
   53.5620  156.2350   25.4620 C   0  0  0  0  0  0  0  0  0  0  0  0
   54.1730  155.3140   24.6080 C   0  0  0  0  0  0  0  0  0  0  0  0
   54.2430  153.9670   24.9660 C   0  0  0  0  0  0  0  0  0  0  0  0
   53.7010  153.5420   26.1770 C   0  0  0  0  0  0  0  0  0  0  0  0
   53.8050  152.2080   26.4650 O   0  0  0  0  0  0  0  0  0  0  0  0
   53.0890  154.4630   27.0310 C   0  0  0  0  0  0  0  0  0  0  0  0
   52.5080  154.0580   28.3110 C   0  0  0  0  0  0  0  0  0  0  0  0
   52.5370  152.8920   28.7000 O   0  0  0  0  0  0  0  0  0  0  0  0
   51.8750  155.1110   29.1390 C   0  0  0  0  0  0  0  0  0  0  0  0
   51.3410  154.7200   30.3540 O   0  0  0  0  0  0  0  0  0  0  0  0
   49.9560  157.4870   29.8670 C   0  0  0  0  0  0  0  0  0  0  0  0
   49.4150  158.5810   30.5450 C   0  0  0  0  0  0  0  0  0  0  0  0
   50.1810  159.7330   30.7970 C   0  0  0  0  0  0  0  0  0  0  0  0
   49.5270  160.8800   31.5420 C   0  0  0  0  0  0  0  0  0  0  0  0
   48.5840  160.4340   32.6780 C   0  0  0  0  0  0  0  0  0  0  0  0
   47.1840  160.1700   32.1150 C   0  0  0  0  0  0  0  0  0  0  0  0
   48.4990  161.4700   33.8000 C   0  0  0  0  0  0  0  0  0  0  0  0
   52.5230  161.1520   31.6311 H   0  0  0  0  0  0  0  0  0  0  0  0
   53.3759  160.7964   30.0907 H   0  0  0  0  0  0  0  0  0  0  0  0
   51.9269  161.8581   30.0907 H   0  0  0  0  0  0  0  0  0  0  0  0
   53.0812  158.7005   29.3002 H   0  0  0  0  0  0  0  0  0  0  0  0
   53.5082  157.2968   25.1795 H   0  0  0  0  0  0  0  0  0  0  0  0
   54.5997  155.6509   23.6518 H   0  0  0  0  0  0  0  0  0  0  0  0
   54.7251  153.2423   24.2934 H   0  0  0  0  0  0  0  0  0  0  0  0
   53.2330  151.5930   26.0510 H   0  0  0  0  0  0  0  0  0  0  0  0
   51.7170  155.0340   31.1530 H   0  0  0  0  0  0  0  0  0  0  0  0
   49.3333  156.5994   29.6813 H   0  0  0  0  0  0  0  0  0  0  0  0
   48.3707  158.5411   30.8883 H   0  0  0  0  0  0  0  0  0  0  0  0
   50.3196  161.5068   31.9765 H   0  0  0  0  0  0  0  0  0  0  0  0
   48.9099  161.4233   30.8112 H   0  0  0  0  0  0  0  0  0  0  0  0
   49.0000  159.5112   33.1085 H   0  0  0  0  0  0  0  0  0  0  0  0
   46.4744  160.0362   32.9448 H   0  0  0  0  0  0  0  0  0  0  0  0
   46.8697  161.0247   31.4980 H   0  0  0  0  0  0  0  0  0  0  0  0
   47.2026  159.2595   31.4980 H   0  0  0  0  0  0  0  0  0  0  0  0
   48.5408  160.9601   34.7738 H   0  0  0  0  0  0  0  0  0  0  0  0
   49.3427  162.1709   33.7166 H   0  0  0  0  0  0  0  0  0  0  0  0
   47.5524  162.0240   33.7166 H   0  0  0  0  0  0  0  0  0  0  0  0
  1  2  1  0
  2  3  2  0
  3  4  1  0
  4  5  1  0
  5  6  1  0
  6  7  1  0
  7  8  2  0
  8  9  1  0
  9 10  2  0
 10 11  1  0
 11 12  1  0
 11 13  2  0
 13 14  1  0
 14 15  2  0
 14 16  1  0
 16 17  1  0
  4 18  2  0
 18 19  1  0
 19 20  2  0
 20 21  1  0
 21 22  1  0
 22 23  1  0
 22 24  1  0
 20  2  1  0
 16  5  2  0
 13  7  1  0
  1 25  1  0
  1 26  1  0
  1 27  1  0
  3 28  1  0
  8 29  1  0
  9 30  1  0
 10 31  1  0
 12 32  1  0
 17 33  1  0
 18 34  1  0
 19 35  1  0
 21 36  1  0
 21 37  1  0
 22 38  1  0
 23 39  1  0
 23 40  1  0
 23 41  1  0
 24 42  1  0
 24 43  1  0
 24 44  1  0
M  END
>  <meeko>  (1) 
{"is_sidechain": [false], "free_energy": -11.256, "intermolecular_energy": -13.889, "internal_energy": -0.121}

$$$$
cand_051_out
     RDKit          3D

 44 46  0  0  0  0  0  0  0  0999 V2000
   52.0720  160.3790   30.4220 C   0  0  0  0  0  0  0  0  0  0  0  0
   51.4220  159.0460   30.1760 C   0  0  0  0  0  0  0  0  0  0  0  0
   52.0680  158.1260   29.3280 C   0  0  0  0  0  0  0  0  0  0  0  0
   51.5190  156.8650   29.0470 C   0  0  0  0  0  0  0  0  0  0  0  0
   52.2230  155.9420   28.1310 C   0  0  0  0  0  0  0  0  0  0  0  0
   52.8100  156.5960   27.0540 O   0  0  0  0  0  0  0  0  0  0  0  0
   53.4970  155.8570   26.1230 C   0  0  0  0  0  0  0  0  0  0  0  0
   54.0590  156.5520   25.0510 C   0  0  0  0  0  0  0  0  0  0  0  0
   54.7730  155.8600   24.0710 C   0  0  0  0  0  0  0  0  0  0  0  0
   54.9250  154.4760   24.1610 C   0  0  0  0  0  0  0  0  0  0  0  0
   54.3630  153.7850   25.2320 C   0  0  0  0  0  0  0  0  0  0  0  0
   54.5510  152.4300   25.2590 O   0  0  0  0  0  0  0  0  0  0  0  0
   53.6480  154.4770   26.2140 C   0  0  0  0  0  0  0  0  0  0  0  0
   53.0430  153.7900   27.3540 C   0  0  0  0  0  0  0  0  0  0  0  0
   53.1390  152.5730   27.5080 O   0  0  0  0  0  0  0  0  0  0  0  0
   52.2990  154.6140   28.3350 C   0  0  0  0  0  0  0  0  0  0  0  0
   51.7430  153.9560   29.4160 O   0  0  0  0  0  0  0  0  0  0  0  0
   50.2870  156.5370   29.6180 C   0  0  0  0  0  0  0  0  0  0  0  0
   49.6320  157.4380   30.4600 C   0  0  0  0  0  0  0  0  0  0  0  0
   50.1860  158.6960   30.7550 C   0  0  0  0  0  0  0  0  0  0  0  0
   49.4180  159.6190   31.6800 C   0  0  0  0  0  0  0  0  0  0  0  0
   48.3490  160.4740   30.9680 C   0  0  0  0  0  0  0  0  0  0  0  0
   48.4000  161.9110   31.4950 C   0  0  0  0  0  0  0  0  0  0  0  0
   46.9390  159.9080   31.1520 C   0  0  0  0  0  0  0  0  0  0  0  0
   52.1562  160.5516   31.5051 H   0  0  0  0  0  0  0  0  0  0  0  0
   53.0750  160.3868   29.9704 H   0  0  0  0  0  0  0  0  0  0  0  0
   51.4604  161.1740   29.9704 H   0  0  0  0  0  0  0  0  0  0  0  0
   53.0302  158.4034   28.8728 H   0  0  0  0  0  0  0  0  0  0  0  0
   53.9396  157.6431   24.9784 H   0  0  0  0  0  0  0  0  0  0  0  0
   55.2167  156.4071   23.2261 H   0  0  0  0  0  0  0  0  0  0  0  0
   55.4874  153.9318   23.3880 H   0  0  0  0  0  0  0  0  0  0  0  0
   53.8230  151.8580   25.4000 H   0  0  0  0  0  0  0  0  0  0  0  0
   51.4030  153.0890   29.3120 H   0  0  0  0  0  0  0  0  0  0  0  0
   49.8289  155.5604   29.4024 H   0  0  0  0  0  0  0  0  0  0  0  0
   48.6639  157.1581   30.9010 H   0  0  0  0  0  0  0  0  0  0  0  0
   48.9178  159.0054   32.4437 H   0  0  0  0  0  0  0  0  0  0  0  0
   50.1496  160.3184   32.1109 H   0  0  0  0  0  0  0  0  0  0  0  0
   48.5759  160.4573   29.8918 H   0  0  0  0  0  0  0  0  0  0  0  0
   48.3996  161.8984   32.5949 H   0  0  0  0  0  0  0  0  0  0  0  0
   49.3161  162.4015   31.1343 H   0  0  0  0  0  0  0  0  0  0  0  0
   47.5210  162.4652   31.1343 H   0  0  0  0  0  0  0  0  0  0  0  0
   46.7169  159.8189   32.2257 H   0  0  0  0  0  0  0  0  0  0  0  0
   46.2088  160.5827   30.6813 H   0  0  0  0  0  0  0  0  0  0  0  0
   46.8779  158.9157   30.6813 H   0  0  0  0  0  0  0  0  0  0  0  0
  1  2  1  0
  2  3  2  0
  3  4  1  0
  4  5  1  0
  5  6  1  0
  6  7  1  0
  7  8  2  0
  8  9  1  0
  9 10  2  0
 10 11  1  0
 11 12  1  0
 11 13  2  0
 13 14  1  0
 14 15  2  0
 14 16  1  0
 16 17  1  0
  4 18  2  0
 18 19  1  0
 19 20  2  0
 20 21  1  0
 21 22  1  0
 22 23  1  0
 22 24  1  0
 20  2  1  0
 16  5  2  0
 13  7  1  0
  1 25  1  0
  1 26  1  0
  1 27  1  0
  3 28  1  0
  8 29  1  0
  9 30  1  0
 10 31  1  0
 12 32  1  0
 17 33  1  0
 18 34  1  0
 19 35  1  0
 21 36  1  0
 21 37  1  0
 22 38  1  0
 23 39  1  0
 23 40  1  0
 23 41  1  0
 24 42  1  0
 24 43  1  0
 24 44  1  0
M  END
>  <meeko>  (2) 
{"is_sidechain": [false], "free_energy": -10.824, "intermolecular_energy": -13.077, "internal_energy": -0.399}

$$$$
cand_051_out
     RDKit          3D

 44 46  0  0  0  0  0  0  0  0999 V2000
   48.1390  158.8840   30.7410 C   0  0  0  0  0  0  0  0  0  0  0  0
   49.5960  158.8460   30.3680 C   0  0  0  0  0  0  0  0  0  0  0  0
   50.0900  157.7150   29.6920 C   0  0  0  0  0  0  0  0  0  0  0  0
   51.4390  157.6070   29.3160 C   0  0  0  0  0  0  0  0  0  0  0  0
   51.9170  156.3890   28.6280 C   0  0  0  0  0  0  0  0  0  0  0  0
   52.4980  156.6600   27.3940 O   0  0  0  0  0  0  0  0  0  0  0  0
   52.9850  155.6170   26.6480 C   0  0  0  0  0  0  0  0  0  0  0  0
   53.5470  155.9320   25.4090 C   0  0  0  0  0  0  0  0  0  0  0  0
   54.0640  154.9170   24.6010 C   0  0  0  0  0  0  0  0  0  0  0  0
   54.0200  153.5890   25.0300 C   0  0  0  0  0  0  0  0  0  0  0  0
   53.4600  153.2780   26.2660 C   0  0  0  0  0  0  0  0  0  0  0  0
   53.4500  151.9580   26.6250 O   0  0  0  0  0  0  0  0  0  0  0  0
   52.9420  154.2930   27.0750 C   0  0  0  0  0  0  0  0  0  0  0  0
   52.3450  154.0090   28.3800 C   0  0  0  0  0  0  0  0  0  0  0  0
   52.2760  152.8670   28.8310 O   0  0  0  0  0  0  0  0  0  0  0  0
   51.8180  155.1560   29.1560 C   0  0  0  0  0  0  0  0  0  0  0  0
   51.2680  154.8770   30.3940 O   0  0  0  0  0  0  0  0  0  0  0  0
   52.3040  158.6530   29.6480 C   0  0  0  0  0  0  0  0  0  0  0  0
   51.8300  159.7810   30.3210 C   0  0  0  0  0  0  0  0  0  0  0  0
   50.4780  159.8980   30.6850 C   0  0  0  0  0  0  0  0  0  0  0  0
   50.0360  161.1540   31.4100 C   0  0  0  0  0  0  0  0  0  0  0  0
   49.0020  160.9030   32.5270 C   0  0  0  0  0  0  0  0  0  0  0  0
   48.2390  162.1950   32.8270 C   0  0  0  0  0  0  0  0  0  0  0  0
   49.6530  160.3810   33.8110 C   0  0  0  0  0  0  0  0  0  0  0  0
   48.0409  158.8866   31.8366 H   0  0  0  0  0  0  0  0  0  0  0  0
   47.6788  159.7945   30.3296 H   0  0  0  0  0  0  0  0  0  0  0  0
   47.6320  157.9988   30.3296 H   0  0  0  0  0  0  0  0  0  0  0  0
   49.4004  156.8925   29.4513 H   0  0  0  0  0  0  0  0  0  0  0  0
   53.5824  156.9779   25.0700 H   0  0  0  0  0  0  0  0  0  0  0  0
   54.5067  155.1642   23.6248 H   0  0  0  0  0  0  0  0  0  0  0  0
   54.4270  152.7902   24.3926 H   0  0  0  0  0  0  0  0  0  0  0  0
   53.6360  151.2970   25.9870 H   0  0  0  0  0  0  0  0  0  0  0  0
   50.8460  155.5570   30.8830 H   0  0  0  0  0  0  0  0  0  0  0  0
   53.3680  158.5873   29.3767 H   0  0  0  0  0  0  0  0  0  0  0  0
   52.5283  160.5933   30.5709 H   0  0  0  0  0  0  0  0  0  0  0  0
   50.9231  161.6244   31.8592 H   0  0  0  0  0  0  0  0  0  0  0  0
   49.5477  161.7973   30.6632 H   0  0  0  0  0  0  0  0  0  0  0  0
   48.3086  160.1290   32.1663 H   0  0  0  0  0  0  0  0  0  0  0  0
   48.1596  162.3295   33.9159 H   0  0  0  0  0  0  0  0  0  0  0  0
   48.7778  163.0489   32.3904 H   0  0  0  0  0  0  0  0  0  0  0  0
   47.2311  162.1354   32.3904 H   0  0  0  0  0  0  0  0  0  0  0  0
   49.1305  160.8000   34.6836 H   0  0  0  0  0  0  0  0  0  0  0  0
   49.5862  159.2833   33.8359 H   0  0  0  0  0  0  0  0  0  0  0  0
   50.7099  160.6847   33.8359 H   0  0  0  0  0  0  0  0  0  0  0  0
  1  2  1  0
  2  3  2  0
  3  4  1  0
  4  5  1  0
  5  6  1  0
  6  7  1  0
  7  8  2  0
  8  9  1  0
  9 10  2  0
 10 11  1  0
 11 12  1  0
 11 13  2  0
 13 14  1  0
 14 15  2  0
 14 16  1  0
 16 17  1  0
  4 18  2  0
 18 19  1  0
 19 20  2  0
 20 21  1  0
 21 22  1  0
 22 23  1  0
 22 24  1  0
 20  2  1  0
 16  5  2  0
 13  7  1  0
  1 25  1  0
  1 26  1  0
  1 27  1  0
  3 28  1  0
  8 29  1  0
  9 30  1  0
 10 31  1  0
 12 32  1  0
 17 33  1  0
 18 34  1  0
 19 35  1  0
 21 36  1  0
 21 37  1  0
 22 38  1  0
 23 39  1  0
 23 40  1  0
 23 41  1  0
 24 42  1  0
 24 43  1  0
 24 44  1  0
M  END
>  <meeko>  (3) 
{"is_sidechain": [false], "free_energy": -10.385, "intermolecular_energy": -13.096, "internal_energy": 0.161}

$$$$
cand_051_out
     RDKit          3D

 44 46  0  0  0  0  0  0  0  0999 V2000
   51.6070  152.6210   28.5580 C   0  0  0  0  0  0  0  0  0  0  0  0
   51.9940  153.9830   28.0500 C   0  0  0  0  0  0  0  0  0  0  0  0
   51.6420  155.1130   28.8130 C   0  0  0  0  0  0  0  0  0  0  0  0
   51.9650  156.4150   28.4000 C   0  0  0  0  0  0  0  0  0  0  0  0
   51.5530  157.5730   29.2230 C   0  0  0  0  0  0  0  0  0  0  0  0
   50.2150  157.5190   29.5970 O   0  0  0  0  0  0  0  0  0  0  0  0
   49.7000  158.5330   30.3650 C   0  0  0  0  0  0  0  0  0  0  0  0
   48.3500  158.4470   30.7060 C   0  0  0  0  0  0  0  0  0  0  0  0
   47.7640  159.4450   31.4870 C   0  0  0  0  0  0  0  0  0  0  0  0
   48.5260  160.5280   31.9280 C   0  0  0  0  0  0  0  0  0  0  0  0
   49.8740  160.6110   31.5860 C   0  0  0  0  0  0  0  0  0  0  0  0
   50.5630  161.6980   32.0520 O   0  0  0  0  0  0  0  0  0  0  0  0
   50.4610  159.6130   30.8040 C   0  0  0  0  0  0  0  0  0  0  0  0
   51.8720  159.6620   30.4230 C   0  0  0  0  0  0  0  0  0  0  0  0
   52.6110  160.5790   30.7780 O   0  0  0  0  0  0  0  0  0  0  0  0
   52.3950  158.5580   29.5850 C   0  0  0  0  0  0  0  0  0  0  0  0
   53.7340  158.6080   29.2430 O   0  0  0  0  0  0  0  0  0  0  0  0
   52.6360  156.5780   27.1860 C   0  0  0  0  0  0  0  0  0  0  0  0
   52.9910  155.4680   26.4160 C   0  0  0  0  0  0  0  0  0  0  0  0
   52.6820  154.1620   26.8330 C   0  0  0  0  0  0  0  0  0  0  0  0
   53.1020  153.0060   25.9460 C   0  0  0  0  0  0  0  0  0  0  0  0
   54.3720  153.2830   25.1150 C   0  0  0  0  0  0  0  0  0  0  0  0
   54.0360  153.2310   23.6230 C   0  0  0  0  0  0  0  0  0  0  0  0
   55.4940  152.2890   25.4250 C   0  0  0  0  0  0  0  0  0  0  0  0
   51.6084  152.6259   29.6580 H   0  0  0  0  0  0  0  0  0  0  0  0
   50.6009  152.3661   28.1937 H   0  0  0  0  0  0  0  0  0  0  0  0
   52.3288  151.8751   28.1937 H   0  0  0  0  0  0  0  0  0  0  0  0
   51.0988  154.9714   29.7590 H   0  0  0  0  0  0  0  0  0  0  0  0
   47.7479  157.5939   30.3600 H   0  0  0  0  0  0  0  0  0  0  0  0
   46.6994  159.3776   31.7554 H   0  0  0  0  0  0  0  0  0  0  0  0
   48.0637  161.3136   32.5437 H   0  0  0  0  0  0  0  0  0  0  0  0
   50.7130  162.4330   31.4910 H   0  0  0  0  0  0  0  0  0  0  0  0
   54.3900  158.4660   29.8970 H   0  0  0  0  0  0  0  0  0  0  0  0
   52.8871  157.5892   26.8332 H   0  0  0  0  0  0  0  0  0  0  0  0
   53.5227  155.6190   25.4649 H   0  0  0  0  0  0  0  0  0  0  0  0
   53.2905  152.1305   26.5847 H   0  0  0  0  0  0  0  0  0  0  0  0
   52.2832  152.8395   25.2306 H   0  0  0  0  0  0  0  0  0  0  0  0
   54.7321  154.2862   25.3869 H   0  0  0  0  0  0  0  0  0  0  0  0
   52.9562  153.0639   23.4959 H   0  0  0  0  0  0  0  0  0  0  0  0
   54.3178  154.1834   23.1503 H   0  0  0  0  0  0  0  0  0  0  0  0
   54.5925  152.4083   23.1503 H   0  0  0  0  0  0  0  0  0  0  0  0
   55.6056  152.1902   26.5149 H   0  0  0  0  0  0  0  0  0  0  0  0
   55.2458  151.3090   24.9915 H   0  0  0  0  0  0  0  0  0  0  0  0
   56.4370  152.6535   24.9915 H   0  0  0  0  0  0  0  0  0  0  0  0
  1  2  1  0
  2  3  2  0
  3  4  1  0
  4  5  1  0
  5  6  1  0
  6  7  1  0
  7  8  2  0
  8  9  1  0
  9 10  2  0
 10 11  1  0
 11 12  1  0
 11 13  2  0
 13 14  1  0
 14 15  2  0
 14 16  1  0
 16 17  1  0
  4 18  2  0
 18 19  1  0
 19 20  2  0
 20 21  1  0
 21 22  1  0
 22 23  1  0
 22 24  1  0
 20  2  1  0
 16  5  2  0
 13  7  1  0
  1 25  1  0
  1 26  1  0
  1 27  1  0
  3 28  1  0
  8 29  1  0
  9 30  1  0
 10 31  1  0
 12 32  1  0
 17 33  1  0
 18 34  1  0
 19 35  1  0
 21 36  1  0
 21 37  1  0
 22 38  1  0
 23 39  1  0
 23 40  1  0
 23 41  1  0
 24 42  1  0
 24 43  1  0
 24 44  1  0
M  END
>  <meeko>  (4) 
{"is_sidechain": [false], "free_energy": -10.026, "intermolecular_energy": -12.044, "internal_energy": -0.446}

$$$$
cand_051_out
     RDKit          3D

 44 46  0  0  0  0  0  0  0  0999 V2000
   52.0490  159.3670   30.0530 C   0  0  0  0  0  0  0  0  0  0  0  0
   51.4140  158.0560   29.6810 C   0  0  0  0  0  0  0  0  0  0  0  0
   52.0890  157.2120   28.7790 C   0  0  0  0  0  0  0  0  0  0  0  0
   51.5570  155.9740   28.3820 C   0  0  0  0  0  0  0  0  0  0  0  0
   52.2910  155.1330   27.4130 C   0  0  0  0  0  0  0  0  0  0  0  0
   51.9550  153.7870   27.5050 O   0  0  0  0  0  0  0  0  0  0  0  0
   52.5640  152.8920   26.6620 C   0  0  0  0  0  0  0  0  0  0  0  0
   52.2060  151.5500   26.7970 C   0  0  0  0  0  0  0  0  0  0  0  0
   52.7880  150.5880   25.9680 C   0  0  0  0  0  0  0  0  0  0  0  0
   53.7240  150.9670   25.0050 C   0  0  0  0  0  0  0  0  0  0  0  0
   54.0780  152.3070   24.8710 C   0  0  0  0  0  0  0  0  0  0  0  0
   55.0000  152.6090   23.9070 O   0  0  0  0  0  0  0  0  0  0  0  0
   53.4970  153.2700   25.7010 C   0  0  0  0  0  0  0  0  0  0  0  0
   53.8410  154.6880   25.5940 C   0  0  0  0  0  0  0  0  0  0  0  0
   54.6500  155.1010   24.7660 O   0  0  0  0  0  0  0  0  0  0  0  0
   53.1740  155.6270   26.5260 C   0  0  0  0  0  0  0  0  0  0  0  0
   53.4960  156.9660   26.4070 O   0  0  0  0  0  0  0  0  0  0  0  0
   50.3120  155.5960   28.8910 C   0  0  0  0  0  0  0  0  0  0  0  0
   49.6280  156.4220   29.7860 C   0  0  0  0  0  0  0  0  0  0  0  0
   50.1650  157.6540   30.1960 C   0  0  0  0  0  0  0  0  0  0  0  0
   49.3670  158.4950   31.1720 C   0  0  0  0  0  0  0  0  0  0  0  0
   48.2920  159.3780   30.5060 C   0  0  0  0  0  0  0  0  0  0  0  0
   48.9260  160.6780   30.0050 C   0  0  0  0  0  0  0  0  0  0  0  0
   47.1380  159.7030   31.4580 C   0  0  0  0  0  0  0  0  0  0  0  0
   52.0920  159.4558   31.1486 H   0  0  0  0  0  0  0  0  0  0  0  0
   53.0681  159.4107   29.6413 H   0  0  0  0  0  0  0  0  0  0  0  0
   51.4515  160.1937   29.6413 H   0  0  0  0  0  0  0  0  0  0  0  0
   53.0605  157.5309   28.3736 H   0  0  0  0  0  0  0  0  0  0  0  0
   51.4670  151.2503   27.5547 H   0  0  0  0  0  0  0  0  0  0  0  0
   52.5079  149.5296   26.0746 H   0  0  0  0  0  0  0  0  0  0  0  0
   54.1814  150.2085   24.3528 H   0  0  0  0  0  0  0  0  0  0  0  0
   55.2280  153.5020   23.7400 H   0  0  0  0  0  0  0  0  0  0  0  0
   53.7260  157.4620   27.1680 H   0  0  0  0  0  0  0  0  0  0  0  0
   49.8660  154.6385   28.5839 H   0  0  0  0  0  0  0  0  0  0  0  0
   48.6509  156.1021   30.1771 H   0  0  0  0  0  0  0  0  0  0  0  0
   48.8683  157.8199   31.8831 H   0  0  0  0  0  0  0  0  0  0  0  0
   50.0789  159.1754   31.6621 H   0  0  0  0  0  0  0  0  0  0  0  0
   47.8764  158.8092   29.6612 H   0  0  0  0  0  0  0  0  0  0  0  0
   49.2267  161.2945   30.8650 H   0  0  0  0  0  0  0  0  0  0  0  0
   49.8107  160.4432   29.3950 H   0  0  0  0  0  0  0  0  0  0  0  0
   48.1962  161.2306   29.3950 H   0  0  0  0  0  0  0  0  0  0  0  0
   47.4824  159.6060   32.4982 H   0  0  0  0  0  0  0  0  0  0  0  0
   46.7947  160.7328   31.2799 H   0  0  0  0  0  0  0  0  0  0  0  0
   46.3077  159.0037   31.2799 H   0  0  0  0  0  0  0  0  0  0  0  0
  1  2  1  0
  2  3  2  0
  3  4  1  0
  4  5  1  0
  5  6  1  0
  6  7  1  0
  7  8  2  0
  8  9  1  0
  9 10  2  0
 10 11  1  0
 11 12  1  0
 11 13  2  0
 13 14  1  0
 14 15  2  0
 14 16  1  0
 16 17  1  0
  4 18  2  0
 18 19  1  0
 19 20  2  0
 20 21  1  0
 21 22  1  0
 22 23  1  0
 22 24  1  0
 20  2  1  0
 16  5  2  0
 13  7  1  0
  1 25  1  0
  1 26  1  0
  1 27  1  0
  3 28  1  0
  8 29  1  0
  9 30  1  0
 10 31  1  0
 12 32  1  0
 17 33  1  0
 18 34  1  0
 19 35  1  0
 21 36  1  0
 21 37  1  0
 22 38  1  0
 23 39  1  0
 23 40  1  0
 23 41  1  0
 24 42  1  0
 24 43  1  0
 24 44  1  0
M  END
>  <meeko>  (5) 
{"is_sidechain": [false], "free_energy": -9.987, "intermolecular_energy": -12.434, "internal_energy": -0.009}

$$$$
cand_051_out
     RDKit          3D

 44 46  0  0  0  0  0  0  0  0999 V2000
   48.7620  157.5800   30.6190 C   0  0  0  0  0  0  0  0  0  0  0  0
   50.1360  157.6450   30.0110 C   0  0  0  0  0  0  0  0  0  0  0  0
   50.5820  156.5600   29.2330 C   0  0  0  0  0  0  0  0  0  0  0  0
   51.8530  156.5480   28.6380 C   0  0  0  0  0  0  0  0  0  0  0  0
   52.2870  155.3750   27.8480 C   0  0  0  0  0  0  0  0  0  0  0  0
   53.0590  155.7230   26.7460 O   0  0  0  0  0  0  0  0  0  0  0  0
   53.5280  154.7290   25.9250 C   0  0  0  0  0  0  0  0  0  0  0  0
   54.2870  155.1240   24.8220 C   0  0  0  0  0  0  0  0  0  0  0  0
   54.7970  154.1620   23.9470 C   0  0  0  0  0  0  0  0  0  0  0  0
   54.5500  152.8070   24.1750 C   0  0  0  0  0  0  0  0  0  0  0  0
   53.7930  152.4160   25.2770 C   0  0  0  0  0  0  0  0  0  0  0  0
   53.5890  151.0730   25.4410 O   0  0  0  0  0  0  0  0  0  0  0  0
   53.2810  153.3790   26.1520 C   0  0  0  0  0  0  0  0  0  0  0  0
   52.4820  153.0110   27.3200 C   0  0  0  0  0  0  0  0  0  0  0  0
   52.2270  151.8390   27.5920 O   0  0  0  0  0  0  0  0  0  0  0  0
   51.9810  154.1080   28.1800 C   0  0  0  0  0  0  0  0  0  0  0  0
   51.2370  153.7480   29.2890 O   0  0  0  0  0  0  0  0  0  0  0  0
   52.6940  157.6430   28.8510 C   0  0  0  0  0  0  0  0  0  0  0  0
   52.2690  158.7270   29.6230 C   0  0  0  0  0  0  0  0  0  0  0  0
   50.9910  158.7480   30.2070 C   0  0  0  0  0  0  0  0  0  0  0  0
   50.5980  159.9600   31.0280 C   0  0  0  0  0  0  0  0  0  0  0  0
   49.2060  160.5280   30.6800 C   0  0  0  0  0  0  0  0  0  0  0  0
   49.1910  161.0070   29.2260 C   0  0  0  0  0  0  0  0  0  0  0  0
   48.8040  161.6800   31.6050 C   0  0  0  0  0  0  0  0  0  0  0  0
   48.8458  157.5840   31.7158 H   0  0  0  0  0  0  0  0  0  0  0  0
   48.1752  158.4514   30.2930 H   0  0  0  0  0  0  0  0  0  0  0  0
   48.2600  156.6571   30.2930 H   0  0  0  0  0  0  0  0  0  0  0  0
   49.9155  155.6971   29.0873 H   0  0  0  0  0  0  0  0  0  0  0  0
   54.4832  156.1913   24.6422 H   0  0  0  0  0  0  0  0  0  0  0  0
   55.3942  154.4726   23.0770 H   0  0  0  0  0  0  0  0  0  0  0  0
   54.9523  152.0498   23.4859 H   0  0  0  0  0  0  0  0  0  0  0  0
   52.7400  150.7520   25.6700 H   0  0  0  0  0  0  0  0  0  0  0  0
   51.0770  154.3740   29.9690 H   0  0  0  0  0  0  0  0  0  0  0  0
   53.7002  157.6517   28.4067 H   0  0  0  0  0  0  0  0  0  0  0  0
   52.9470  159.5795   29.7765 H   0  0  0  0  0  0  0  0  0  0  0  0
   50.5994  159.6738   32.0901 H   0  0  0  0  0  0  0  0  0  0  0  0
   51.3300  160.7493   30.8016 H   0  0  0  0  0  0  0  0  0  0  0  0
   48.4747  159.7183   30.8195 H   0  0  0  0  0  0  0  0  0  0  0  0
   49.1566  162.1062   29.2024 H   0  0  0  0  0  0  0  0  0  0  0  0
   50.1005  160.6576   28.7154 H   0  0  0  0  0  0  0  0  0  0  0  0
   48.3051  160.6014   28.7154 H   0  0  0  0  0  0  0  0  0  0  0  0
   48.9142  161.3643   32.6530 H   0  0  0  0  0  0  0  0  0  0  0  0
   49.4525  162.5476   31.4133 H   0  0  0  0  0  0  0  0  0  0  0  0
   47.7565  161.9557   31.4133 H   0  0  0  0  0  0  0  0  0  0  0  0
  1  2  1  0
  2  3  2  0
  3  4  1  0
  4  5  1  0
  5  6  1  0
  6  7  1  0
  7  8  2  0
  8  9  1  0
  9 10  2  0
 10 11  1  0
 11 12  1  0
 11 13  2  0
 13 14  1  0
 14 15  2  0
 14 16  1  0
 16 17  1  0
  4 18  2  0
 18 19  1  0
 19 20  2  0
 20 21  1  0
 21 22  1  0
 22 23  1  0
 22 24  1  0
 20  2  1  0
 16  5  2  0
 13  7  1  0
  1 25  1  0
  1 26  1  0
  1 27  1  0
  3 28  1  0
  8 29  1  0
  9 30  1  0
 10 31  1  0
 12 32  1  0
 17 33  1  0
 18 34  1  0
 19 35  1  0
 21 36  1  0
 21 37  1  0
 22 38  1  0
 23 39  1  0
 23 40  1  0
 23 41  1  0
 24 42  1  0
 24 43  1  0
 24 44  1  0
M  END
>  <meeko>  (6) 
{"is_sidechain": [false], "free_energy": -9.748, "intermolecular_energy": -12.374, "internal_energy": 0.225}

$$$$
cand_051_out
     RDKit          3D

 44 46  0  0  0  0  0  0  0  0999 V2000
   53.9380  156.2550   25.2480 C   0  0  0  0  0  0  0  0  0  0  0  0
   52.9750  155.9200   26.3540 C   0  0  0  0  0  0  0  0  0  0  0  0
   52.6120  156.9320   27.2620 C   0  0  0  0  0  0  0  0  0  0  0  0
   51.7220  156.6940   28.3220 C   0  0  0  0  0  0  0  0  0  0  0  0
   51.3900  157.7820   29.2650 C   0  0  0  0  0  0  0  0  0  0  0  0
   50.0620  157.7520   29.6780 O   0  0  0  0  0  0  0  0  0  0  0  0
   49.6180  158.7080   30.5560 C   0  0  0  0  0  0  0  0  0  0  0  0
   48.2760  158.6480   30.9320 C   0  0  0  0  0  0  0  0  0  0  0  0
   47.7610  159.5900   31.8250 C   0  0  0  0  0  0  0  0  0  0  0  0
   48.5860  160.5900   32.3420 C   0  0  0  0  0  0  0  0  0  0  0  0
   49.9260  160.6470   31.9650 C   0  0  0  0  0  0  0  0  0  0  0  0
   50.6780  161.6520   32.5090 O   0  0  0  0  0  0  0  0  0  0  0  0
   50.4420  159.7050   31.0710 C   0  0  0  0  0  0  0  0  0  0  0  0
   51.8420  159.7290   30.6490 C   0  0  0  0  0  0  0  0  0  0  0  0
   52.6330  160.5730   31.0650 O   0  0  0  0  0  0  0  0  0  0  0  0
   52.2870  158.6900   29.6920 C   0  0  0  0  0  0  0  0  0  0  0  0
   53.6160  158.7140   29.3100 O   0  0  0  0  0  0  0  0  0  0  0  0
   51.2070  155.4040   28.4760 C   0  0  0  0  0  0  0  0  0  0  0  0
   51.5580  154.3870   27.5840 C   0  0  0  0  0  0  0  0  0  0  0  0
   52.4370  154.6270   26.5150 C   0  0  0  0  0  0  0  0  0  0  0  0
   52.7690  153.4760   25.5860 C   0  0  0  0  0  0  0  0  0  0  0  0
   53.6280  152.3730   26.2370 C   0  0  0  0  0  0  0  0  0  0  0  0
   55.0770  152.4940   25.7570 C   0  0  0  0  0  0  0  0  0  0  0  0
   53.1000  150.9700   25.9280 C   0  0  0  0  0  0  0  0  0  0  0  0
   54.8929  156.5872   25.6814 H   0  0  0  0  0  0  0  0  0  0  0  0
   54.1077  155.3631   24.6269 H   0  0  0  0  0  0  0  0  0  0  0  0
   53.5175  157.0597   24.6269 H   0  0  0  0  0  0  0  0  0  0  0  0
   53.0377  157.9387   27.1379 H   0  0  0  0  0  0  0  0  0  0  0  0
   47.6247  157.8601   30.5258 H   0  0  0  0  0  0  0  0  0  0  0  0
   46.7028  159.5438   32.1216 H   0  0  0  0  0  0  0  0  0  0  0  0
   48.1792  161.3314   33.0455 H   0  0  0  0  0  0  0  0  0  0  0  0
   50.3910  162.0820   33.2900 H   0  0  0  0  0  0  0  0  0  0  0  0
   54.1900  158.0200   29.5700 H   0  0  0  0  0  0  0  0  0  0  0  0
   50.5193  155.1872   29.3067 H   0  0  0  0  0  0  0  0  0  0  0  0
   51.1380  153.3797   27.7217 H   0  0  0  0  0  0  0  0  0  0  0  0
   51.8261  153.0239   25.2445 H   0  0  0  0  0  0  0  0  0  0  0  0
   53.3615  153.8947   24.7592 H   0  0  0  0  0  0  0  0  0  0  0  0
   53.5765  152.5153   27.3265 H   0  0  0  0  0  0  0  0  0  0  0  0
   55.7479  152.5500   26.6269 H   0  0  0  0  0  0  0  0  0  0  0  0
   55.3367  151.6144   25.1496 H   0  0  0  0  0  0  0  0  0  0  0  0
   55.1873  153.4045   25.1496 H   0  0  0  0  0  0  0  0  0  0  0  0
   52.8998  150.4379   26.8697 H   0  0  0  0  0  0  0  0  0  0  0  0
   52.1698  151.0482   25.3461 H   0  0  0  0  0  0  0  0  0  0  0  0
   53.8510  150.4155   25.3461 H   0  0  0  0  0  0  0  0  0  0  0  0
  1  2  1  0
  2  3  2  0
  3  4  1  0
  4  5  1  0
  5  6  1  0
  6  7  1  0
  7  8  2  0
  8  9  1  0
  9 10  2  0
 10 11  1  0
 11 12  1  0
 11 13  2  0
 13 14  1  0
 14 15  2  0
 14 16  1  0
 16 17  1  0
  4 18  2  0
 18 19  1  0
 19 20  2  0
 20 21  1  0
 21 22  1  0
 22 23  1  0
 22 24  1  0
 20  2  1  0
 16  5  2  0
 13  7  1  0
  1 25  1  0
  1 26  1  0
  1 27  1  0
  3 28  1  0
  8 29  1  0
  9 30  1  0
 10 31  1  0
 12 32  1  0
 17 33  1  0
 18 34  1  0
 19 35  1  0
 21 36  1  0
 21 37  1  0
 22 38  1  0
 23 39  1  0
 23 40  1  0
 23 41  1  0
 24 42  1  0
 24 43  1  0
 24 44  1  0
M  END
>  <meeko>  (7) 
{"is_sidechain": [false], "free_energy": -9.393, "intermolecular_energy": -11.386, "internal_energy": -0.324}

$$$$
cand_051_out
     RDKit          3D

 44 46  0  0  0  0  0  0  0  0999 V2000
   51.8760  152.8380   28.3680 C   0  0  0  0  0  0  0  0  0  0  0  0
   52.1660  154.2840   28.0770 C   0  0  0  0  0  0  0  0  0  0  0  0
   51.5720  155.2680   28.8900 C   0  0  0  0  0  0  0  0  0  0  0  0
   51.7920  156.6380   28.6770 C   0  0  0  0  0  0  0  0  0  0  0  0
   51.1270  157.6350   29.5420 C   0  0  0  0  0  0  0  0  0  0  0  0
   51.9320  158.7360   29.8140 O   0  0  0  0  0  0  0  0  0  0  0  0
   51.4380  159.7400   30.6070 C   0  0  0  0  0  0  0  0  0  0  0  0
   52.2850  160.8190   30.8660 C   0  0  0  0  0  0  0  0  0  0  0  0
   51.8420  161.8750   31.6640 C   0  0  0  0  0  0  0  0  0  0  0  0
   50.5550  161.8540   32.2040 C   0  0  0  0  0  0  0  0  0  0  0  0
   49.7120  160.7760   31.9440 C   0  0  0  0  0  0  0  0  0  0  0  0
   48.4630  160.8200   32.5020 O   0  0  0  0  0  0  0  0  0  0  0  0
   50.1540  159.7180   31.1450 C   0  0  0  0  0  0  0  0  0  0  0  0
   49.3010  158.5680   30.8470 C   0  0  0  0  0  0  0  0  0  0  0  0
   48.1530  158.4800   31.2790 O   0  0  0  0  0  0  0  0  0  0  0  0
   49.8680  157.4960   29.9970 C   0  0  0  0  0  0  0  0  0  0  0  0
   49.0480  156.4200   29.7110 O   0  0  0  0  0  0  0  0  0  0  0  0
   52.6110  157.0180   27.6100 C   0  0  0  0  0  0  0  0  0  0  0  0
   53.2070  156.0550   26.7930 C   0  0  0  0  0  0  0  0  0  0  0  0
   53.0000  154.6830   27.0130 C   0  0  0  0  0  0  0  0  0  0  0  0
   53.6820  153.6960   26.0870 C   0  0  0  0  0  0  0  0  0  0  0  0
   53.7970  154.1830   24.6270 C   0  0  0  0  0  0  0  0  0  0  0  0
   54.0430  152.9880   23.7010 C   0  0  0  0  0  0  0  0  0  0  0  0
   54.9160  155.2110   24.4470 C   0  0  0  0  0  0  0  0  0  0  0  0
   51.8447  152.6821   29.4565 H   0  0  0  0  0  0  0  0  0  0  0  0
   50.9049  152.5635   27.9302 H   0  0  0  0  0  0  0  0  0  0  0  0
   52.6661  152.2103   27.9302 H   0  0  0  0  0  0  0  0  0  0  0  0
   50.9166  154.9543   29.7159 H   0  0  0  0  0  0  0  0  0  0  0  0
   53.2998  160.8370   30.4419 H   0  0  0  0  0  0  0  0  0  0  0  0
   52.5087  162.7258   31.8678 H   0  0  0  0  0  0  0  0  0  0  0  0
   50.2074  162.6866   32.8332 H   0  0  0  0  0  0  0  0  0  0  0  0
   48.2170  160.1900   33.1500 H   0  0  0  0  0  0  0  0  0  0  0  0
   49.2730  155.8320   29.0160 H   0  0  0  0  0  0  0  0  0  0  0  0
   52.7877  158.0855   27.4120 H   0  0  0  0  0  0  0  0  0  0  0  0
   53.8509  156.3769   25.9612 H   0  0  0  0  0  0  0  0  0  0  0  0
   54.6958  153.5063   26.4694 H   0  0  0  0  0  0  0  0  0  0  0  0
   53.0589  152.7896   26.0725 H   0  0  0  0  0  0  0  0  0  0  0  0
   52.8481  154.6751   24.3672 H   0  0  0  0  0  0  0  0  0  0  0  0
   54.2283  152.0878   24.3054 H   0  0  0  0  0  0  0  0  0  0  0  0
   53.1590  152.8279   23.0663 H   0  0  0  0  0  0  0  0  0  0  0  0
   54.9184  153.1901   23.0663 H   0  0  0  0  0  0  0  0  0  0  0  0
   55.2740  155.5399   25.4338 H   0  0  0  0  0  0  0  0  0  0  0  0
   55.7468  154.7547   23.8889 H   0  0  0  0  0  0  0  0  0  0  0  0
   54.5316  156.0775   23.8889 H   0  0  0  0  0  0  0  0  0  0  0  0
  1  2  1  0
  2  3  2  0
  3  4  1  0
  4  5  1  0
  5  6  1  0
  6  7  1  0
  7  8  2  0
  8  9  1  0
  9 10  2  0
 10 11  1  0
 11 12  1  0
 11 13  2  0
 13 14  1  0
 14 15  2  0
 14 16  1  0
 16 17  1  0
  4 18  2  0
 18 19  1  0
 19 20  2  0
 20 21  1  0
 21 22  1  0
 22 23  1  0
 22 24  1  0
 20  2  1  0
 16  5  2  0
 13  7  1  0
  1 25  1  0
  1 26  1  0
  1 27  1  0
  3 28  1  0
  8 29  1  0
  9 30  1  0
 10 31  1  0
 12 32  1  0
 17 33  1  0
 18 34  1  0
 19 35  1  0
 21 36  1  0
 21 37  1  0
 22 38  1  0
 23 39  1  0
 23 40  1  0
 23 41  1  0
 24 42  1  0
 24 43  1  0
 24 44  1  0
M  END
>  <meeko>  (8) 
{"is_sidechain": [false], "free_energy": -9.319, "intermolecular_energy": -11.892, "internal_energy": 0.274}

$$$$
cand_051_out
     RDKit          3D

 44 46  0  0  0  0  0  0  0  0999 V2000
   53.7510  156.2170   25.8070 C   0  0  0  0  0  0  0  0  0  0  0  0
   53.0130  155.8190   27.0550 C   0  0  0  0  0  0  0  0  0  0  0  0
   52.3120  156.8100   27.7690 C   0  0  0  0  0  0  0  0  0  0  0  0
   51.6040  156.5150   28.9450 C   0  0  0  0  0  0  0  0  0  0  0  0
   50.9030  157.5940   29.6740 C   0  0  0  0  0  0  0  0  0  0  0  0
   51.7380  158.6580   29.9950 O   0  0  0  0  0  0  0  0  0  0  0  0
   51.2150  159.7300   30.6740 C   0  0  0  0  0  0  0  0  0  0  0  0
   52.0910  160.7700   30.9890 C   0  0  0  0  0  0  0  0  0  0  0  0
   51.6230  161.8910   31.6770 C   0  0  0  0  0  0  0  0  0  0  0  0
   50.2800  161.9730   32.0500 C   0  0  0  0  0  0  0  0  0  0  0  0
   49.4080  160.9340   31.7340 C   0  0  0  0  0  0  0  0  0  0  0  0
   48.1050  161.0800   32.1280 O   0  0  0  0  0  0  0  0  0  0  0  0
   49.8760  159.8120   31.0460 C   0  0  0  0  0  0  0  0  0  0  0  0
   48.9940  158.6990   30.6950 C   0  0  0  0  0  0  0  0  0  0  0  0
   47.7980  158.7010   30.9810 O   0  0  0  0  0  0  0  0  0  0  0  0
   49.5910  157.5520   29.9720 C   0  0  0  0  0  0  0  0  0  0  0  0
   48.7450  156.5130   29.6330 O   0  0  0  0  0  0  0  0  0  0  0  0
   51.6230  155.2010   29.4170 C   0  0  0  0  0  0  0  0  0  0  0  0
   52.3150  154.2060   28.7220 C   0  0  0  0  0  0  0  0  0  0  0  0
   53.0120  154.4950   27.5370 C   0  0  0  0  0  0  0  0  0  0  0  0
   53.7370  153.3630   26.8360 C   0  0  0  0  0  0  0  0  0  0  0  0
   52.9340  152.7210   25.6860 C   0  0  0  0  0  0  0  0  0  0  0  0
   52.5870  151.2730   26.0410 C   0  0  0  0  0  0  0  0  0  0  0  0
   53.6960  152.7560   24.3590 C   0  0  0  0  0  0  0  0  0  0  0  0
   54.6887  156.7227   26.0810 H   0  0  0  0  0  0  0  0  0  0  0  0
   53.9785  155.3192   25.2135 H   0  0  0  0  0  0  0  0  0  0  0  0
   53.1258  156.9003   25.2135 H   0  0  0  0  0  0  0  0  0  0  0  0
   52.3194  157.8444   27.3948 H   0  0  0  0  0  0  0  0  0  0  0  0
   53.1492  160.7064   30.6954 H   0  0  0  0  0  0  0  0  0  0  0  0
   52.3132  162.7107   31.9255 H   0  0  0  0  0  0  0  0  0  0  0  0
   49.9115  162.8563   32.5922 H   0  0  0  0  0  0  0  0  0  0  0  0
   47.9030  161.2250   33.0310 H   0  0  0  0  0  0  0  0  0  0  0  0
   47.8990  156.4490   30.0300 H   0  0  0  0  0  0  0  0  0  0  0  0
   51.0884  154.9470   30.3442 H   0  0  0  0  0  0  0  0  0  0  0  0
   52.3141  153.1767   29.1101 H   0  0  0  0  0  0  0  0  0  0  0  0
   54.6773  153.7575   26.4233 H   0  0  0  0  0  0  0  0  0  0  0  0
   53.9013  152.5766   27.5873 H   0  0  0  0  0  0  0  0  0  0  0  0
   52.0139  153.3101   25.5576 H   0  0  0  0  0  0  0  0  0  0  0  0
   52.5599  151.1600   27.1349 H   0  0  0  0  0  0  0  0  0  0  0  0
   51.6024  151.0185   25.6216 H   0  0  0  0  0  0  0  0  0  0  0  0
   53.3493  150.5999   25.6216 H   0  0  0  0  0  0  0  0  0  0  0  0
   54.7767  152.8056   24.5580 H   0  0  0  0  0  0  0  0  0  0  0  0
   53.4707  151.8466   23.7827 H   0  0  0  0  0  0  0  0  0  0  0  0
   53.3882  153.6410   23.7827 H   0  0  0  0  0  0  0  0  0  0  0  0
  1  2  1  0
  2  3  2  0
  3  4  1  0
  4  5  1  0
  5  6  1  0
  6  7  1  0
  7  8  2  0
  8  9  1  0
  9 10  2  0
 10 11  1  0
 11 12  1  0
 11 13  2  0
 13 14  1  0
 14 15  2  0
 14 16  1  0
 16 17  1  0
  4 18  2  0
 18 19  1  0
 19 20  2  0
 20 21  1  0
 21 22  1  0
 22 23  1  0
 22 24  1  0
 20  2  1  0
 16  5  2  0
 13  7  1  0
  1 25  1  0
  1 26  1  0
  1 27  1  0
  3 28  1  0
  8 29  1  0
  9 30  1  0
 10 31  1  0
 12 32  1  0
 17 33  1  0
 18 34  1  0
 19 35  1  0
 21 36  1  0
 21 37  1  0
 22 38  1  0
 23 39  1  0
 23 40  1  0
 23 41  1  0
 24 42  1  0
 24 43  1  0
 24 44  1  0
M  END
>  <meeko>  (9) 
{"is_sidechain": [false], "free_energy": -9.315, "intermolecular_energy": -11.062, "internal_energy": -0.552}

$$$$
