cand_008_out
     RDKit          3D

 35 37  0  0  0  0  0  0  0  0999 V2000
   52.2720  152.6130   28.5690 O   0  0  0  0  0  0  0  0  0  0  0  0
   52.3760  153.7720   28.1740 C   0  0  0  0  0  0  0  0  0  0  0  0
   51.9030  154.8980   29.0120 C   0  0  0  0  0  0  0  0  0  0  0  0
   51.3350  154.5780   30.2330 O   0  0  0  0  0  0  0  0  0  0  0  0
   52.0340  156.1510   28.5410 C   0  0  0  0  0  0  0  0  0  0  0  0
   51.5860  157.3470   29.2850 C   0  0  0  0  0  0  0  0  0  0  0  0
   52.4060  158.4700   29.4370 C   0  0  0  0  0  0  0  0  0  0  0  0
   51.9550  159.5990   30.1250 C   0  0  0  0  0  0  0  0  0  0  0  0
   50.6650  159.6380   30.6790 C   0  0  0  0  0  0  0  0  0  0  0  0
   50.2030  160.8760   31.4140 C   0  0  0  0  0  0  0  0  0  0  0  0
   49.3440  161.6450   30.6850 F   0  0  0  0  0  0  0  0  0  0  0  0
   51.2410  161.7000   31.7350 F   0  0  0  0  0  0  0  0  0  0  0  0
   49.8150  158.5210   30.5140 C   0  0  0  0  0  0  0  0  0  0  0  0
   48.4140  158.5100   31.0850 C   0  0  0  0  0  0  0  0  0  0  0  0
   48.3940  158.8710   32.3990 F   0  0  0  0  0  0  0  0  0  0  0  0
   47.5730  159.3830   30.4600 F   0  0  0  0  0  0  0  0  0  0  0  0
   50.2910  157.3890   29.8240 C   0  0  0  0  0  0  0  0  0  0  0  0
   52.5790  156.4600   27.3010 O   0  0  0  0  0  0  0  0  0  0  0  0
   53.0330  155.4390   26.5040 C   0  0  0  0  0  0  0  0  0  0  0  0
   53.5850  155.7960   25.2720 C   0  0  0  0  0  0  0  0  0  0  0  0
   54.0640  154.8060   24.4120 C   0  0  0  0  0  0  0  0  0  0  0  0
   53.9940  153.4610   24.7840 C   0  0  0  0  0  0  0  0  0  0  0  0
   53.4440  153.1080   26.0130 C   0  0  0  0  0  0  0  0  0  0  0  0
   53.4040  151.7750   26.3130 O   0  0  0  0  0  0  0  0  0  0  0  0
   52.9630  154.1000   26.8740 C   0  0  0  0  0  0  0  0  0  0  0  0
   51.7390  153.9370   30.7830 H   0  0  0  0  0  0  0  0  0  0  0  0
   53.4194  158.4640   29.0091 H   0  0  0  0  0  0  0  0  0  0  0  0
   52.6191  160.4691   30.2343 H   0  0  0  0  0  0  0  0  0  0  0  0
   49.7043  160.4775   32.3098 H   0  0  0  0  0  0  0  0  0  0  0  0
   48.0789  157.4725   30.9389 H   0  0  0  0  0  0  0  0  0  0  0  0
   49.6316  156.5167   29.7047 H   0  0  0  0  0  0  0  0  0  0  0  0
   53.6423  156.8549   24.9798 H   0  0  0  0  0  0  0  0  0  0  0  0
   54.4971  155.0852   23.4402 H   0  0  0  0  0  0  0  0  0  0  0  0
   54.3731  152.6819   24.1063 H   0  0  0  0  0  0  0  0  0  0  0  0
   54.1220  151.2210   26.0770 H   0  0  0  0  0  0  0  0  0  0  0  0
  1  2  2  0
  2  3  1  0
  3  4  1  0
  3  5  2  0
  5  6  1  0
  6  7  2  0
  7  8  1  0
  8  9  2  0
  9 10  1  0
 10 11  1  0
 10 12  1  0
  9 13  1  0
 13 14  1  0
 14 15  1  0
 14 16  1  0
 13 17  2  0
  5 18  1  0
 18 19  1  0
 19 20  2  0
 20 21  1  0
 21 22  2  0
 22 23  1  0
 23 24  1  0
 23 25  2  0
 25  2  1  0
 17  6  1  0
 25 19  1  0
  4 26  1  0
  7 27  1  0
  8 28  1  0
 10 29  1  0
 14 30  1  0
 17 31  1  0
 20 32  1  0
 21 33  1  0
 22 34  1  0
 24 35  1  0
M  END
>  <meeko>  (1) 
{"is_sidechain": [false], "free_energy": -11.032, "intermolecular_energy": -13.611, "internal_energy": -0.184}

$$$$
cand_008_out
     RDKit          3D

 35 37  0  0  0  0  0  0  0  0999 V2000
   52.4630  153.0700   28.8110 O   0  0  0  0  0  0  0  0  0  0  0  0
   52.4080  154.2440   28.4490 C   0  0  0  0  0  0  0  0  0  0  0  0
   51.7200  155.2560   29.2840 C   0  0  0  0  0  0  0  0  0  0  0  0
   51.1420  154.8140   30.4610 O   0  0  0  0  0  0  0  0  0  0  0  0
   51.6820  156.5290   28.8500 C   0  0  0  0  0  0  0  0  0  0  0  0
   51.0130  157.6180   29.5930 C   0  0  0  0  0  0  0  0  0  0  0  0
   49.7070  157.4870   30.0750 C   0  0  0  0  0  0  0  0  0  0  0  0
   49.1020  158.5200   30.7950 C   0  0  0  0  0  0  0  0  0  0  0  0
   49.7900  159.7160   31.0570 C   0  0  0  0  0  0  0  0  0  0  0  0
   49.1100  160.8140   31.8430 C   0  0  0  0  0  0  0  0  0  0  0  0
   48.0560  160.3690   32.5850 F   0  0  0  0  0  0  0  0  0  0  0  0
   48.5960  161.7820   31.0330 F   0  0  0  0  0  0  0  0  0  0  0  0
   51.1190  159.8550   30.5980 C   0  0  0  0  0  0  0  0  0  0  0  0
   51.9100  161.1190   30.8560 C   0  0  0  0  0  0  0  0  0  0  0  0
   52.3390  161.2000   32.1470 F   0  0  0  0  0  0  0  0  0  0  0  0
   53.0390  161.2090   30.0960 F   0  0  0  0  0  0  0  0  0  0  0  0
   51.7090  158.8060   29.8670 C   0  0  0  0  0  0  0  0  0  0  0  0
   52.2420  156.9570   27.6520 O   0  0  0  0  0  0  0  0  0  0  0  0
   52.8920  156.0440   26.8610 C   0  0  0  0  0  0  0  0  0  0  0  0
   53.4490  156.5200   25.6730 C   0  0  0  0  0  0  0  0  0  0  0  0
   54.1240  155.6430   24.8210 C   0  0  0  0  0  0  0  0  0  0  0  0
   54.2420  154.2920   25.1570 C   0  0  0  0  0  0  0  0  0  0  0  0
   53.6840  153.8210   26.3420 C   0  0  0  0  0  0  0  0  0  0  0  0
   53.8350  152.4880   26.6090 O   0  0  0  0  0  0  0  0  0  0  0  0
   53.0090  154.6990   27.1950 C   0  0  0  0  0  0  0  0  0  0  0  0
   51.5760  154.9560   31.2780 H   0  0  0  0  0  0  0  0  0  0  0  0
   49.1487  156.5585   29.8848 H   0  0  0  0  0  0  0  0  0  0  0  0
   48.0725  158.3949   31.1618 H   0  0  0  0  0  0  0  0  0  0  0  0
   49.9077  161.2039   32.4924 H   0  0  0  0  0  0  0  0  0  0  0  0
   51.2054  161.9260   30.6064 H   0  0  0  0  0  0  0  0  0  0  0  0
   52.7403  158.9202   29.5018 H   0  0  0  0  0  0  0  0  0  0  0  0
   53.3565  157.5837   25.4083 H   0  0  0  0  0  0  0  0  0  0  0  0
   54.5633  156.0164   23.8842 H   0  0  0  0  0  0  0  0  0  0  0  0
   54.7749  153.6019   24.4863 H   0  0  0  0  0  0  0  0  0  0  0  0
   53.2580  151.8640   26.2140 H   0  0  0  0  0  0  0  0  0  0  0  0
  1  2  2  0
  2  3  1  0
  3  4  1  0
  3  5  2  0
  5  6  1  0
  6  7  2  0
  7  8  1  0
  8  9  2  0
  9 10  1  0
 10 11  1  0
 10 12  1  0
  9 13  1  0
 13 14  1  0
 14 15  1  0
 14 16  1  0
 13 17  2  0
  5 18  1  0
 18 19  1  0
 19 20  2  0
 20 21  1  0
 21 22  2  0
 22 23  1  0
 23 24  1  0
 23 25  2  0
 25  2  1  0
 17  6  1  0
 25 19  1  0
  4 26  1  0
  7 27  1  0
  8 28  1  0
 10 29  1  0
 14 30  1  0
 17 31  1  0
 20 32  1  0
 21 33  1  0
 22 34  1  0
 24 35  1  0
M  END
>  <meeko>  (2) 
{"is_sidechain": [false], "free_energy": -10.934, "intermolecular_energy": -13.263, "internal_energy": -0.411}

$$$$
cand_008_out
     RDKit          3D

 35 37  0  0  0  0  0  0  0  0999 V2000
   52.5600  160.6510   30.6350 O   0  0  0  0  0  0  0  0  0  0  0  0
   51.8090  159.7070   30.3960 C   0  0  0  0  0  0  0  0  0  0  0  0
   52.3040  158.5210   29.6580 C   0  0  0  0  0  0  0  0  0  0  0  0
   53.6250  158.5410   29.2480 O   0  0  0  0  0  0  0  0  0  0  0  0
   51.4490  157.5110   29.4160 C   0  0  0  0  0  0  0  0  0  0  0  0
   51.8290  156.2870   28.6790 C   0  0  0  0  0  0  0  0  0  0  0  0
   51.6000  155.0110   29.2040 C   0  0  0  0  0  0  0  0  0  0  0  0
   51.9470  153.8660   28.4820 C   0  0  0  0  0  0  0  0  0  0  0  0
   52.5300  153.9670   27.2080 C   0  0  0  0  0  0  0  0  0  0  0  0
   52.8900  152.7100   26.4490 C   0  0  0  0  0  0  0  0  0  0  0  0
   52.1580  151.6240   26.8300 F   0  0  0  0  0  0  0  0  0  0  0  0
   54.1910  152.3510   26.6370 F   0  0  0  0  0  0  0  0  0  0  0  0
   52.7450  155.2490   26.6530 C   0  0  0  0  0  0  0  0  0  0  0  0
   53.3650  155.4170   25.2840 C   0  0  0  0  0  0  0  0  0  0  0  0
   53.2230  156.6870   24.8090 F   0  0  0  0  0  0  0  0  0  0  0  0
   54.7080  155.1770   25.2700 F   0  0  0  0  0  0  0  0  0  0  0  0
   52.3970  156.3900   27.4000 C   0  0  0  0  0  0  0  0  0  0  0  0
   50.1150  157.5140   29.8080 O   0  0  0  0  0  0  0  0  0  0  0  0
   49.6290  158.5950   30.4990 C   0  0  0  0  0  0  0  0  0  0  0  0
   48.2880  158.5490   30.8830 C   0  0  0  0  0  0  0  0  0  0  0  0
   47.7300  159.6170   31.5880 C   0  0  0  0  0  0  0  0  0  0  0  0
   48.5130  160.7290   31.9100 C   0  0  0  0  0  0  0  0  0  0  0  0
   49.8500  160.7710   31.5260 C   0  0  0  0  0  0  0  0  0  0  0  0
   50.5570  161.8890   31.8720 O   0  0  0  0  0  0  0  0  0  0  0  0
   50.4090  159.7020   30.8200 C   0  0  0  0  0  0  0  0  0  0  0  0
   54.0660  157.7390   29.0500 H   0  0  0  0  0  0  0  0  0  0  0  0
   51.1408  154.9074   30.1982 H   0  0  0  0  0  0  0  0  0  0  0  0
   51.7612  152.8728   28.9169 H   0  0  0  0  0  0  0  0  0  0  0  0
   52.6847  152.9704   25.4002 H   0  0  0  0  0  0  0  0  0  0  0  0
   52.8302  154.6839   24.6623 H   0  0  0  0  0  0  0  0  0  0  0  0
   52.5747  157.3870   26.9706 H   0  0  0  0  0  0  0  0  0  0  0  0
   47.6721  157.6732   30.6307 H   0  0  0  0  0  0  0  0  0  0  0  0
   46.6729  159.5833   31.8904 H   0  0  0  0  0  0  0  0  0  0  0  0
   48.0731  161.5699   32.4662 H   0  0  0  0  0  0  0  0  0  0  0  0
   51.0300  161.9120   32.6810 H   0  0  0  0  0  0  0  0  0  0  0  0
  1  2  2  0
  2  3  1  0
  3  4  1  0
  3  5  2  0
  5  6  1  0
  6  7  2  0
  7  8  1  0
  8  9  2  0
  9 10  1  0
 10 11  1  0
 10 12  1  0
  9 13  1  0
 13 14  1  0
 14 15  1  0
 14 16  1  0
 13 17  2  0
  5 18  1  0
 18 19  1  0
 19 20  2  0
 20 21  1  0
 21 22  2  0
 22 23  1  0
 23 24  1  0
 23 25  2  0
 25  2  1  0
 17  6  1  0
 25 19  1  0
  4 26  1  0
  7 27  1  0
  8 28  1  0
 10 29  1  0
 14 30  1  0
 17 31  1  0
 20 32  1  0
 21 33  1  0
 22 34  1  0
 24 35  1  0
M  END
>  <meeko>  (3) 
{"is_sidechain": [false], "free_energy": -10.854, "intermolecular_energy": -13.105, "internal_energy": -0.471}

$$$$
cand_008_out
     RDKit          3D

 35 37  0  0  0  0  0  0  0  0999 V2000
   48.1460  158.5180   31.0290 O   0  0  0  0  0  0  0  0  0  0  0  0
   49.3070  158.4690   30.6300 C   0  0  0  0  0  0  0  0  0  0  0  0
   49.7960  157.2890   29.8800 C   0  0  0  0  0  0  0  0  0  0  0  0
   48.8970  156.2590   29.6710 O   0  0  0  0  0  0  0  0  0  0  0  0
   51.0760  157.2760   29.4640 C   0  0  0  0  0  0  0  0  0  0  0  0
   51.6740  156.1480   28.7190 C   0  0  0  0  0  0  0  0  0  0  0  0
   51.5070  154.8220   29.1330 C   0  0  0  0  0  0  0  0  0  0  0  0
   52.0620  153.7680   28.4020 C   0  0  0  0  0  0  0  0  0  0  0  0
   52.7980  154.0120   27.2320 C   0  0  0  0  0  0  0  0  0  0  0  0
   53.3820  152.8500   26.4600 C   0  0  0  0  0  0  0  0  0  0  0  0
   52.6120  151.7260   26.5180 F   0  0  0  0  0  0  0  0  0  0  0  0
   54.6020  152.4770   26.9390 F   0  0  0  0  0  0  0  0  0  0  0  0
   52.9550  155.3440   26.7860 C   0  0  0  0  0  0  0  0  0  0  0  0
   53.7340  155.6650   25.5300 C   0  0  0  0  0  0  0  0  0  0  0  0
   52.9810  155.5040   24.4050 F   0  0  0  0  0  0  0  0  0  0  0  0
   54.1730  156.9550   25.4870 F   0  0  0  0  0  0  0  0  0  0  0  0
   52.3950  156.3930   27.5410 C   0  0  0  0  0  0  0  0  0  0  0  0
   51.9800  158.3040   29.7040 O   0  0  0  0  0  0  0  0  0  0  0  0
   51.5540  159.4140   30.3900 C   0  0  0  0  0  0  0  0  0  0  0  0
   52.4920  160.4260   30.5990 C   0  0  0  0  0  0  0  0  0  0  0  0
   52.1250  161.5820   31.2900 C   0  0  0  0  0  0  0  0  0  0  0  0
   50.8220  161.7260   31.7730 C   0  0  0  0  0  0  0  0  0  0  0  0
   49.8890  160.7140   31.5640 C   0  0  0  0  0  0  0  0  0  0  0  0
   48.6330  160.9190   32.0630 O   0  0  0  0  0  0  0  0  0  0  0  0
   50.2570  159.5570   30.8700 C   0  0  0  0  0  0  0  0  0  0  0  0
   48.1560  156.3900   29.1130 H   0  0  0  0  0  0  0  0  0  0  0  0
   50.9316  154.6063   30.0454 H   0  0  0  0  0  0  0  0  0  0  0  0
   51.9201  152.7336   28.7482 H   0  0  0  0  0  0  0  0  0  0  0  0
   53.4453  153.2260   25.4282 H   0  0  0  0  0  0  0  0  0  0  0  0
   54.5817  154.9646   25.5599 H   0  0  0  0  0  0  0  0  0  0  0  0
   52.5263  157.4300   27.1983 H   0  0  0  0  0  0  0  0  0  0  0  0
   53.5184  160.3129   30.2200 H   0  0  0  0  0  0  0  0  0  0  0  0
   52.8630  162.3810   31.4545 H   0  0  0  0  0  0  0  0  0  0  0  0
   50.5338  162.6373   32.3174 H   0  0  0  0  0  0  0  0  0  0  0  0
   48.0190  161.4420   31.5860 H   0  0  0  0  0  0  0  0  0  0  0  0
  1  2  2  0
  2  3  1  0
  3  4  1  0
  3  5  2  0
  5  6  1  0
  6  7  2  0
  7  8  1  0
  8  9  2  0
  9 10  1  0
 10 11  1  0
 10 12  1  0
  9 13  1  0
 13 14  1  0
 14 15  1  0
 14 16  1  0
 13 17  2  0
  5 18  1  0
 18 19  1  0
 19 20  2  0
 20 21  1  0
 21 22  2  0
 22 23  1  0
 23 24  1  0
 23 25  2  0
 25  2  1  0
 17  6  1  0
 25 19  1  0
  4 26  1  0
  7 27  1  0
  8 28  1  0
 10 29  1  0
 14 30  1  0
 17 31  1  0
 20 32  1  0
 21 33  1  0
 22 34  1  0
 24 35  1  0
M  END
>  <meeko>  (4) 
{"is_sidechain": [false], "free_energy": -9.556, "intermolecular_energy": -11.586, "internal_energy": -0.389}

$$$$
cand_008_out
     RDKit          3D

 35 37  0  0  0  0  0  0  0  0999 V2000
   52.3200  161.2810   31.4040 O   0  0  0  0  0  0  0  0  0  0  0  0
   51.6420  160.3420   30.9940 C   0  0  0  0  0  0  0  0  0  0  0  0
   52.2360  159.3190   30.1020 C   0  0  0  0  0  0  0  0  0  0  0  0
   53.5640  159.4830   29.7520 O   0  0  0  0  0  0  0  0  0  0  0  0
   51.4570  158.3080   29.6740 C   0  0  0  0  0  0  0  0  0  0  0  0
   51.9400  157.2400   28.7730 C   0  0  0  0  0  0  0  0  0  0  0  0
   52.5510  157.5290   27.5490 C   0  0  0  0  0  0  0  0  0  0  0  0
   53.0200  156.5050   26.7220 C   0  0  0  0  0  0  0  0  0  0  0  0
   52.8950  155.1590   27.1010 C   0  0  0  0  0  0  0  0  0  0  0  0
   53.4170  154.0720   26.1880 C   0  0  0  0  0  0  0  0  0  0  0  0
   54.4260  154.4950   25.3730 F   0  0  0  0  0  0  0  0  0  0  0  0
   52.4520  153.5990   25.3500 F   0  0  0  0  0  0  0  0  0  0  0  0
   52.3020  154.8500   28.3460 C   0  0  0  0  0  0  0  0  0  0  0  0
   52.1450  153.4180   28.8070 C   0  0  0  0  0  0  0  0  0  0  0  0
   51.5470  153.3360   30.0300 F   0  0  0  0  0  0  0  0  0  0  0  0
   51.3660  152.6690   27.9750 F   0  0  0  0  0  0  0  0  0  0  0  0
   51.8280  155.8960   29.1620 C   0  0  0  0  0  0  0  0  0  0  0  0
   50.1160  158.1670   30.0080 O   0  0  0  0  0  0  0  0  0  0  0  0
   49.5390  159.0950   30.8380 C   0  0  0  0  0  0  0  0  0  0  0  0
   48.1930  158.9080   31.1580 C   0  0  0  0  0  0  0  0  0  0  0  0
   47.5450  159.8170   31.9960 C   0  0  0  0  0  0  0  0  0  0  0  0
   48.2410  160.9110   32.5160 C   0  0  0  0  0  0  0  0  0  0  0  0
   49.5830  161.0950   32.1960 C   0  0  0  0  0  0  0  0  0  0  0  0
   50.2040  162.1860   32.7370 O   0  0  0  0  0  0  0  0  0  0  0  0
   50.2330  160.1850   31.3560 C   0  0  0  0  0  0  0  0  0  0  0  0
   54.1850  159.7710   30.3910 H   0  0  0  0  0  0  0  0  0  0  0  0
   52.6640  158.5765   27.2329 H   0  0  0  0  0  0  0  0  0  0  0  0
   53.4933  156.7568   25.7615 H   0  0  0  0  0  0  0  0  0  0  0  0
   53.7741  153.2959   26.8810 H   0  0  0  0  0  0  0  0  0  0  0  0
   53.1756  153.0341   28.8276 H   0  0  0  0  0  0  0  0  0  0  0  0
   51.3589  155.6537   30.1270 H   0  0  0  0  0  0  0  0  0  0  0  0
   47.6442  158.0461   30.7506 H   0  0  0  0  0  0  0  0  0  0  0  0
   46.4840  159.6716   32.2475 H   0  0  0  0  0  0  0  0  0  0  0  0
   47.7293  161.6258   33.1772 H   0  0  0  0  0  0  0  0  0  0  0  0
   49.6950  162.9090   33.0450 H   0  0  0  0  0  0  0  0  0  0  0  0
  1  2  2  0
  2  3  1  0
  3  4  1  0
  3  5  2  0
  5  6  1  0
  6  7  2  0
  7  8  1  0
  8  9  2  0
  9 10  1  0
 10 11  1  0
 10 12  1  0
  9 13  1  0
 13 14  1  0
 14 15  1  0
 14 16  1  0
 13 17  2  0
  5 18  1  0
 18 19  1  0
 19 20  2  0
 20 21  1  0
 21 22  2  0
 22 23  1  0
 23 24  1  0
 23 25  2  0
 25  2  1  0
 17  6  1  0
 25 19  1  0
  4 26  1  0
  7 27  1  0
  8 28  1  0
 10 29  1  0
 14 30  1  0
 17 31  1  0
 20 32  1  0
 21 33  1  0
 22 34  1  0
 24 35  1  0
M  END
>  <meeko>  (5) 
{"is_sidechain": [false], "free_energy": -9.41, "intermolecular_energy": -11.381, "internal_energy": -0.414}

$$$$
cand_008_out
     RDKit          3D

 35 37  0  0  0  0  0  0  0  0999 V2000
   48.4800  158.1640   31.2920 O   0  0  0  0  0  0  0  0  0  0  0  0
   49.5750  158.3460   30.7650 C   0  0  0  0  0  0  0  0  0  0  0  0
   50.1230  157.3560   29.8090 C   0  0  0  0  0  0  0  0  0  0  0  0
   49.3580  156.2300   29.5610 O   0  0  0  0  0  0  0  0  0  0  0  0
   51.3270  157.5930   29.2560 C   0  0  0  0  0  0  0  0  0  0  0  0
   51.9750  156.6690   28.3010 C   0  0  0  0  0  0  0  0  0  0  0  0
   52.7780  157.1350   27.2550 C   0  0  0  0  0  0  0  0  0  0  0  0
   53.4000  156.2440   26.3770 C   0  0  0  0  0  0  0  0  0  0  0  0
   53.2390  154.8570   26.5250 C   0  0  0  0  0  0  0  0  0  0  0  0
   53.9290  153.9170   25.5610 C   0  0  0  0  0  0  0  0  0  0  0  0
   54.9600  154.5020   24.8860 F   0  0  0  0  0  0  0  0  0  0  0  0
   53.0820  153.4570   24.5980 F   0  0  0  0  0  0  0  0  0  0  0  0
   52.4520  154.3680   27.5910 C   0  0  0  0  0  0  0  0  0  0  0  0
   52.2480  152.8840   27.8010 C   0  0  0  0  0  0  0  0  0  0  0  0
   51.5660  152.6180   28.9510 F   0  0  0  0  0  0  0  0  0  0  0  0
   51.5190  152.2980   26.8080 F   0  0  0  0  0  0  0  0  0  0  0  0
   51.8260  155.2830   28.4610 C   0  0  0  0  0  0  0  0  0  0  0  0
   52.1010  158.7130   29.5350 O   0  0  0  0  0  0  0  0  0  0  0  0
   51.6170  159.6520   30.4100 C   0  0  0  0  0  0  0  0  0  0  0  0
   52.4220  160.7660   30.6510 C   0  0  0  0  0  0  0  0  0  0  0  0
   51.9890  161.7590   31.5320 C   0  0  0  0  0  0  0  0  0  0  0  0
   50.7530  161.6390   32.1710 C   0  0  0  0  0  0  0  0  0  0  0  0
   49.9520  160.5260   31.9290 C   0  0  0  0  0  0  0  0  0  0  0  0
   48.7550  160.4700   32.5880 O   0  0  0  0  0  0  0  0  0  0  0  0
   50.3850  159.5320   31.0460 C   0  0  0  0  0  0  0  0  0  0  0  0
   49.7320  155.3780   29.6600 H   0  0  0  0  0  0  0  0  0  0  0  0
   52.9217  158.2174   27.1219 H   0  0  0  0  0  0  0  0  0  0  0  0
   54.0239  156.6340   25.5593 H   0  0  0  0  0  0  0  0  0  0  0  0
   54.2962  153.1042   26.2049 H   0  0  0  0  0  0  0  0  0  0  0  0
   53.2704  152.4791   27.8273 H   0  0  0  0  0  0  0  0  0  0  0  0
   51.2056  154.9015   29.2854 H   0  0  0  0  0  0  0  0  0  0  0  0
   53.3956  160.8617   30.1480 H   0  0  0  0  0  0  0  0  0  0  0  0
   52.6227  162.6376   31.7231 H   0  0  0  0  0  0  0  0  0  0  0  0
   50.4128  162.4224   32.8643 H   0  0  0  0  0  0  0  0  0  0  0  0
   47.9610  160.3540   32.1050 H   0  0  0  0  0  0  0  0  0  0  0  0
  1  2  2  0
  2  3  1  0
  3  4  1  0
  3  5  2  0
  5  6  1  0
  6  7  2  0
  7  8  1  0
  8  9  2  0
  9 10  1  0
 10 11  1  0
 10 12  1  0
  9 13  1  0
 13 14  1  0
 14 15  1  0
 14 16  1  0
 13 17  2  0
  5 18  1  0
 18 19  1  0
 19 20  2  0
 20 21  1  0
 21 22  2  0
 22 23  1  0
 23 24  1  0
 23 25  2  0
 25  2  1  0
 17  6  1  0
 25 19  1  0
  4 26  1  0
  7 27  1  0
  8 28  1  0
 10 29  1  0
 14 30  1  0
 17 31  1  0
 20 32  1  0
 21 33  1  0
 22 34  1  0
 24 35  1  0
M  END
>  <meeko>  (6) 
{"is_sidechain": [false], "free_energy": -8.899, "intermolecular_energy": -10.966, "internal_energy": -0.197}

$$$$
cand_008_out
     RDKit          3D

 35 37  0  0  0  0  0  0  0  0999 V2000
   54.5960  155.2590   25.1780 O   0  0  0  0  0  0  0  0  0  0  0  0
   53.7220  154.8850   25.9570 C   0  0  0  0  0  0  0  0  0  0  0  0
   53.0180  155.8600   26.8230 C   0  0  0  0  0  0  0  0  0  0  0  0
   53.4030  157.1850   26.7200 O   0  0  0  0  0  0  0  0  0  0  0  0
   52.0690  155.4080   27.6620 C   0  0  0  0  0  0  0  0  0  0  0  0
   51.3130  156.2870   28.5790 C   0  0  0  0  0  0  0  0  0  0  0  0
   50.1190  155.8730   29.1790 C   0  0  0  0  0  0  0  0  0  0  0  0
   49.4320  156.7120   30.0600 C   0  0  0  0  0  0  0  0  0  0  0  0
   49.9230  157.9900   30.3700 C   0  0  0  0  0  0  0  0  0  0  0  0
   49.1590  158.8730   31.3300 C   0  0  0  0  0  0  0  0  0  0  0  0
   48.4940  158.1700   32.2920 F   0  0  0  0  0  0  0  0  0  0  0  0
   48.2040  159.6130   30.6990 F   0  0  0  0  0  0  0  0  0  0  0  0
   51.1410  158.4140   29.7910 C   0  0  0  0  0  0  0  0  0  0  0  0
   51.7190  159.7790   30.0920 C   0  0  0  0  0  0  0  0  0  0  0  0
   50.8990  160.7860   29.6790 F   0  0  0  0  0  0  0  0  0  0  0  0
   51.9120  159.9970   31.4250 F   0  0  0  0  0  0  0  0  0  0  0  0
   51.8150  157.5580   28.8990 C   0  0  0  0  0  0  0  0  0  0  0  0
   51.7100  154.0700   27.7790 O   0  0  0  0  0  0  0  0  0  0  0  0
   52.3390  153.1440   26.9850 C   0  0  0  0  0  0  0  0  0  0  0  0
   51.9390  151.8140   27.1260 C   0  0  0  0  0  0  0  0  0  0  0  0
   52.5390  150.8210   26.3500 C   0  0  0  0  0  0  0  0  0  0  0  0
   53.5370  151.1570   25.4320 C   0  0  0  0  0  0  0  0  0  0  0  0
   53.9340  152.4840   25.2930 C   0  0  0  0  0  0  0  0  0  0  0  0
   54.9160  152.7430   24.3780 O   0  0  0  0  0  0  0  0  0  0  0  0
   53.3330  153.4790   26.0710 C   0  0  0  0  0  0  0  0  0  0  0  0
   53.2600  157.6530   25.9210 H   0  0  0  0  0  0  0  0  0  0  0  0
   49.7160  154.8744   28.9544 H   0  0  0  0  0  0  0  0  0  0  0  0
   48.4931  156.3662   30.5171 H   0  0  0  0  0  0  0  0  0  0  0  0
   49.9376  159.5077   31.7783 H   0  0  0  0  0  0  0  0  0  0  0  0
   52.6772  159.7832   29.5518 H   0  0  0  0  0  0  0  0  0  0  0  0
   52.7576  157.8935   28.4420 H   0  0  0  0  0  0  0  0  0  0  0  0
   51.1522  151.5490   27.8476 H   0  0  0  0  0  0  0  0  0  0  0  0
   52.2256  149.7725   26.4614 H   0  0  0  0  0  0  0  0  0  0  0  0
   54.0085  150.3741   24.8198 H   0  0  0  0  0  0  0  0  0  0  0  0
   54.7600  152.5890   23.4670 H   0  0  0  0  0  0  0  0  0  0  0  0
  1  2  2  0
  2  3  1  0
  3  4  1  0
  3  5  2  0
  5  6  1  0
  6  7  2  0
  7  8  1  0
  8  9  2  0
  9 10  1  0
 10 11  1  0
 10 12  1  0
  9 13  1  0
 13 14  1  0
 14 15  1  0
 14 16  1  0
 13 17  2  0
  5 18  1  0
 18 19  1  0
 19 20  2  0
 20 21  1  0
 21 22  2  0
 22 23  1  0
 23 24  1  0
 23 25  2  0
 25  2  1  0
 17  6  1  0
 25 19  1  0
  4 26  1  0
  7 27  1  0
  8 28  1  0
 10 29  1  0
 14 30  1  0
 17 31  1  0
 20 32  1  0
 21 33  1  0
 22 34  1  0
 24 35  1  0
M  END
>  <meeko>  (7) 
{"is_sidechain": [false], "free_energy": -8.218, "intermolecular_energy": -10.463, "internal_energy": 0.138}

$$$$
cand_008_out
     RDKit          3D

 35 37  0  0  0  0  0  0  0  0999 V2000
   54.0090  154.6420   24.9290 O   0  0  0  0  0  0  0  0  0  0  0  0
   53.3340  154.5670   25.9540 C   0  0  0  0  0  0  0  0  0  0  0  0
   53.0100  155.7850   26.7320 C   0  0  0  0  0  0  0  0  0  0  0  0
   53.5120  156.9860   26.2600 O   0  0  0  0  0  0  0  0  0  0  0  0
   52.2690  155.6580   27.8480 C   0  0  0  0  0  0  0  0  0  0  0  0
   51.8960  156.8020   28.7070 C   0  0  0  0  0  0  0  0  0  0  0  0
   52.7820  157.8550   28.9560 C   0  0  0  0  0  0  0  0  0  0  0  0
   52.4020  158.9370   29.7540 C   0  0  0  0  0  0  0  0  0  0  0  0
   51.1200  158.9990   30.3220 C   0  0  0  0  0  0  0  0  0  0  0  0
   50.7360  160.1860   31.1770 C   0  0  0  0  0  0  0  0  0  0  0  0
   50.0270  161.1310   30.4950 F   0  0  0  0  0  0  0  0  0  0  0  0
   51.8260  160.8380   31.6690 F   0  0  0  0  0  0  0  0  0  0  0  0
   50.2040  157.9550   30.0600 C   0  0  0  0  0  0  0  0  0  0  0  0
   48.8080  157.9710   30.6420 C   0  0  0  0  0  0  0  0  0  0  0  0
   48.7840  158.4960   31.9000 F   0  0  0  0  0  0  0  0  0  0  0  0
   47.9350  158.7290   29.9200 F   0  0  0  0  0  0  0  0  0  0  0  0
   50.6090  156.8680   29.2610 C   0  0  0  0  0  0  0  0  0  0  0  0
   51.7940  154.4440   28.3280 O   0  0  0  0  0  0  0  0  0  0  0  0
   52.0710  153.2980   27.6260 C   0  0  0  0  0  0  0  0  0  0  0  0
   51.5640  152.1030   28.1380 C   0  0  0  0  0  0  0  0  0  0  0  0
   51.8110  150.9010   27.4720 C   0  0  0  0  0  0  0  0  0  0  0  0
   52.5630  150.8930   26.2950 C   0  0  0  0  0  0  0  0  0  0  0  0
   53.0680  152.0870   25.7870 C   0  0  0  0  0  0  0  0  0  0  0  0
   53.7960  152.0080   24.6330 O   0  0  0  0  0  0  0  0  0  0  0  0
   52.8200  153.2910   26.4530 C   0  0  0  0  0  0  0  0  0  0  0  0
   53.1860  157.3470   25.4600 H   0  0  0  0  0  0  0  0  0  0  0  0
   53.7908  157.8310   28.5180 H   0  0  0  0  0  0  0  0  0  0  0  0
   53.1175  159.7516   29.9397 H   0  0  0  0  0  0  0  0  0  0  0  0
   50.1267  159.7452   31.9798 H   0  0  0  0  0  0  0  0  0  0  0  0
   48.5069  156.9131   30.6326 H   0  0  0  0  0  0  0  0  0  0  0  0
   49.8987  156.0509   29.0667 H   0  0  0  0  0  0  0  0  0  0  0  0
   50.9709  152.1080   29.0644 H   0  0  0  0  0  0  0  0  0  0  0  0
   51.4125  149.9583   27.8751 H   0  0  0  0  0  0  0  0  0  0  0  0
   52.7559  149.9455   25.7705 H   0  0  0  0  0  0  0  0  0  0  0  0
   54.1550  152.7850   24.2520 H   0  0  0  0  0  0  0  0  0  0  0  0
  1  2  2  0
  2  3  1  0
  3  4  1  0
  3  5  2  0
  5  6  1  0
  6  7  2  0
  7  8  1  0
  8  9  2  0
  9 10  1  0
 10 11  1  0
 10 12  1  0
  9 13  1  0
 13 14  1  0
 14 15  1  0
 14 16  1  0
 13 17  2  0
  5 18  1  0
 18 19  1  0
 19 20  2  0
 20 21  1  0
 21 22  2  0
 22 23  1  0
 23 24  1  0
 23 25  2  0
 25  2  1  0
 17  6  1  0
 25 19  1  0
  4 26  1  0
  7 27  1  0
  8 28  1  0
 10 29  1  0
 14 30  1  0
 17 31  1  0
 20 32  1  0
 21 33  1  0
 22 34  1  0
 24 35  1  0
M  END
>  <meeko>  (8) 
{"is_sidechain": [false], "free_energy": -8.19, "intermolecular_energy": -10.316, "internal_energy": 0.027}

$$$$
