cand_004_out
     RDKit          3D

 38 40  0  0  0  0  0  0  0  0999 V2000
   47.2770  159.5630   30.7040 C   0  0  0  0  0  0  0  0  0  0  0  0
   48.3100  158.8040   31.5240 C   0  0  0  0  0  0  0  0  0  0  0  0
   49.6870  158.8690   30.8980 C   0  0  0  0  0  0  0  0  0  0  0  0
   50.1430  157.7420   30.1820 C   0  0  0  0  0  0  0  0  0  0  0  0
   51.4130  157.7070   29.5890 C   0  0  0  0  0  0  0  0  0  0  0  0
   51.8810  156.5340   28.8210 C   0  0  0  0  0  0  0  0  0  0  0  0
   52.4790  156.8820   27.6160 O   0  0  0  0  0  0  0  0  0  0  0  0
   52.9600  155.8870   26.8030 C   0  0  0  0  0  0  0  0  0  0  0  0
   53.5380  156.2800   25.5950 C   0  0  0  0  0  0  0  0  0  0  0  0
   54.0490  155.3170   24.7210 C   0  0  0  0  0  0  0  0  0  0  0  0
   53.9800  153.9620   25.0550 C   0  0  0  0  0  0  0  0  0  0  0  0
   53.4020  153.5740   26.2610 C   0  0  0  0  0  0  0  0  0  0  0  0
   53.3680  152.2310   26.5240 O   0  0  0  0  0  0  0  0  0  0  0  0
   52.8910  154.5370   27.1340 C   0  0  0  0  0  0  0  0  0  0  0  0
   52.2750  154.1710   28.4100 C   0  0  0  0  0  0  0  0  0  0  0  0
   52.1840  153.0010   28.7780 O   0  0  0  0  0  0  0  0  0  0  0  0
   51.7580  155.2670   29.2600 C   0  0  0  0  0  0  0  0  0  0  0  0
   51.1900  154.9130   30.4700 O   0  0  0  0  0  0  0  0  0  0  0  0
   52.2310  158.8350   29.7070 C   0  0  0  0  0  0  0  0  0  0  0  0
   51.7970  159.9600   30.4140 C   0  0  0  0  0  0  0  0  0  0  0  0
   50.5300  159.9930   31.0230 C   0  0  0  0  0  0  0  0  0  0  0  0
   50.1090  161.2410   31.7740 C   0  0  0  0  0  0  0  0  0  0  0  0
   49.1120  161.9280   31.1510 F   0  0  0  0  0  0  0  0  0  0  0  0
   51.1340  162.1240   31.9340 F   0  0  0  0  0  0  0  0  0  0  0  0
   49.6450  160.9870   33.0310 F   0  0  0  0  0  0  0  0  0  0  0  0
   46.5777  160.0768   31.3801 H   0  0  0  0  0  0  0  0  0  0  0  0
   47.7851  160.3042   30.0696 H   0  0  0  0  0  0  0  0  0  0  0  0
   46.7215  158.8567   30.0696 H   0  0  0  0  0  0  0  0  0  0  0  0
   48.3564  159.2429   32.5316 H   0  0  0  0  0  0  0  0  0  0  0  0
   48.0038  157.7483   31.5648 H   0  0  0  0  0  0  0  0  0  0  0  0
   49.4839  156.8666   30.0864 H   0  0  0  0  0  0  0  0  0  0  0  0
   53.5912  157.3466   25.3313 H   0  0  0  0  0  0  0  0  0  0  0  0
   54.5060  155.6258   23.7693 H   0  0  0  0  0  0  0  0  0  0  0  0
   54.3814  153.2035   24.3668 H   0  0  0  0  0  0  0  0  0  0  0  0
   52.8000  151.8990   27.1900 H   0  0  0  0  0  0  0  0  0  0  0  0
   51.6730  154.3880   31.0780 H   0  0  0  0  0  0  0  0  0  0  0  0
   53.2263  158.8370   29.2386 H   0  0  0  0  0  0  0  0  0  0  0  0
   52.4584  160.8352   30.4954 H   0  0  0  0  0  0  0  0  0  0  0  0
  1  2  1  0
  2  3  1  0
  3  4  2  0
  4  5  1  0
  5  6  1  0
  6  7  1  0
  7  8  1  0
  8  9  2  0
  9 10  1  0
 10 11  2  0
 11 12  1  0
 12 13  1  0
 12 14  2  0
 14 15  1  0
 15 16  2  0
 15 17  1  0
 17 18  1  0
  5 19  2  0
 19 20  1  0
 20 21  2  0
 21 22  1  0
 22 23  1  0
 22 24  1  0
 22 25  1  0
 21  3  1  0
 17  6  2  0
 14  8  1  0
  1 26  1  0
  1 27  1  0
  1 28  1  0
  2 29  1  0
  2 30  1  0
  4 31  1  0
  9 32  1  0
 10 33  1  0
 11 34  1  0
 13 35  1  0
 18 36  1  0
 19 37  1  0
 20 38  1  0
M  END
>  <meeko>  (1) 
{"is_sidechain": [false], "free_energy": -11.139, "intermolecular_energy": -13.744, "internal_energy": -0.194}

$$$$
cand_004_out
     RDKit          3D

 38 40  0  0  0  0  0  0  0  0999 V2000
   52.6570  161.1420   31.6710 C   0  0  0  0  0  0  0  0  0  0  0  0
   51.7020  161.1090   30.4870 C   0  0  0  0  0  0  0  0  0  0  0  0
   50.9960  159.7760   30.3670 C   0  0  0  0  0  0  0  0  0  0  0  0
   51.6420  158.7460   29.6510 C   0  0  0  0  0  0  0  0  0  0  0  0
   51.0510  157.4870   29.4720 C   0  0  0  0  0  0  0  0  0  0  0  0
   51.7380  156.4020   28.7410 C   0  0  0  0  0  0  0  0  0  0  0  0
   52.2840  156.8250   27.5350 O   0  0  0  0  0  0  0  0  0  0  0  0
   52.9530  155.9160   26.7540 C   0  0  0  0  0  0  0  0  0  0  0  0
   53.4710  156.3800   25.5440 C   0  0  0  0  0  0  0  0  0  0  0  0
   54.1640  155.5060   24.7030 C   0  0  0  0  0  0  0  0  0  0  0  0
   54.3380  154.1700   25.0720 C   0  0  0  0  0  0  0  0  0  0  0  0
   53.8190  153.7100   26.2790 C   0  0  0  0  0  0  0  0  0  0  0  0
   54.0270  152.3910   26.5780 O   0  0  0  0  0  0  0  0  0  0  0  0
   53.1260  154.5840   27.1200 C   0  0  0  0  0  0  0  0  0  0  0  0
   52.5650  154.1420   28.3970 C   0  0  0  0  0  0  0  0  0  0  0  0
   52.6820  152.9840   28.7950 O   0  0  0  0  0  0  0  0  0  0  0  0
   51.8410  155.1450   29.2110 C   0  0  0  0  0  0  0  0  0  0  0  0
   51.3260  154.7210   30.4220 O   0  0  0  0  0  0  0  0  0  0  0  0
   49.7930  157.2580   30.0380 C   0  0  0  0  0  0  0  0  0  0  0  0
   49.1370  158.2670   30.7490 C   0  0  0  0  0  0  0  0  0  0  0  0
   49.7190  159.5360   30.9180 C   0  0  0  0  0  0  0  0  0  0  0  0
   48.9650  160.5920   31.7010 C   0  0  0  0  0  0  0  0  0  0  0  0
   49.5930  160.9510   32.8550 F   0  0  0  0  0  0  0  0  0  0  0  0
   47.7180  160.1810   32.0630 F   0  0  0  0  0  0  0  0  0  0  0  0
   48.7820  161.7530   31.0100 F   0  0  0  0  0  0  0  0  0  0  0  0
   52.0806  161.1221   32.6077 H   0  0  0  0  0  0  0  0  0  0  0  0
   53.3214  160.2663   31.6307 H   0  0  0  0  0  0  0  0  0  0  0  0
   53.2594  162.0615   31.6307 H   0  0  0  0  0  0  0  0  0  0  0  0
   50.9485  161.8999   30.6160 H   0  0  0  0  0  0  0  0  0  0  0  0
   52.2901  161.2664   29.5708 H   0  0  0  0  0  0  0  0  0  0  0  0
   52.6367  158.9359   29.2214 H   0  0  0  0  0  0  0  0  0  0  0  0
   53.3338  157.4319   25.2531 H   0  0  0  0  0  0  0  0  0  0  0  0
   54.5731  155.8702   23.7491 H   0  0  0  0  0  0  0  0  0  0  0  0
   54.8844  153.4824   24.4097 H   0  0  0  0  0  0  0  0  0  0  0  0
   53.3100  151.8540   26.8510 H   0  0  0  0  0  0  0  0  0  0  0  0
   51.8250  154.1450   30.9680 H   0  0  0  0  0  0  0  0  0  0  0  0
   49.3149  156.2741   29.9226 H   0  0  0  0  0  0  0  0  0  0  0  0
   48.1473  158.0647   31.1843 H   0  0  0  0  0  0  0  0  0  0  0  0
  1  2  1  0
  2  3  1  0
  3  4  2  0
  4  5  1  0
  5  6  1  0
  6  7  1  0
  7  8  1  0
  8  9  2  0
  9 10  1  0
 10 11  2  0
 11 12  1  0
 12 13  1  0
 12 14  2  0
 14 15  1  0
 15 16  2  0
 15 17  1  0
 17 18  1  0
  5 19  2  0
 19 20  1  0
 20 21  2  0
 21 22  1  0
 22 23  1  0
 22 24  1  0
 22 25  1  0
 21  3  1  0
 17  6  2  0
 14  8  1  0
  1 26  1  0
  1 27  1  0
  1 28  1  0
  2 29  1  0
  2 30  1  0
  4 31  1  0
  9 32  1  0
 10 33  1  0
 11 34  1  0
 13 35  1  0
 18 36  1  0
 19 37  1  0
 20 38  1  0
M  END
>  <meeko>  (2) 
{"is_sidechain": [false], "free_energy": -10.851, "intermolecular_energy": -13.197, "internal_energy": -0.385}

$$$$
cand_004_out
     RDKit          3D

 38 40  0  0  0  0  0  0  0  0999 V2000
   54.0770  156.7350   25.1400 C   0  0  0  0  0  0  0  0  0  0  0  0
   53.7170  155.2850   25.4280 C   0  0  0  0  0  0  0  0  0  0  0  0
   52.9450  155.1410   26.7220 C   0  0  0  0  0  0  0  0  0  0  0  0
   52.5910  156.3160   27.4170 C   0  0  0  0  0  0  0  0  0  0  0  0
   51.8960  156.2750   28.6340 C   0  0  0  0  0  0  0  0  0  0  0  0
   51.5070  157.5080   29.3500 C   0  0  0  0  0  0  0  0  0  0  0  0
   50.1780  157.4990   29.7580 O   0  0  0  0  0  0  0  0  0  0  0  0
   49.6850  158.5860   30.4350 C   0  0  0  0  0  0  0  0  0  0  0  0
   48.3420  158.5410   30.8120 C   0  0  0  0  0  0  0  0  0  0  0  0
   47.7780  159.6140   31.5060 C   0  0  0  0  0  0  0  0  0  0  0  0
   48.5560  160.7300   31.8220 C   0  0  0  0  0  0  0  0  0  0  0  0
   49.8950  160.7710   31.4450 C   0  0  0  0  0  0  0  0  0  0  0  0
   50.5990  161.8940   31.7880 O   0  0  0  0  0  0  0  0  0  0  0  0
   50.4600  159.6990   30.7510 C   0  0  0  0  0  0  0  0  0  0  0  0
   51.8630  159.7020   30.3350 C   0  0  0  0  0  0  0  0  0  0  0  0
   52.6130  160.6440   30.5820 O   0  0  0  0  0  0  0  0  0  0  0  0
   52.3610  158.5190   29.5970 C   0  0  0  0  0  0  0  0  0  0  0  0
   53.6910  158.5250   29.2200 O   0  0  0  0  0  0  0  0  0  0  0  0
   51.5380  155.0260   29.1510 C   0  0  0  0  0  0  0  0  0  0  0  0
   51.8810  153.8500   28.4770 C   0  0  0  0  0  0  0  0  0  0  0  0
   52.5920  153.8870   27.2640 C   0  0  0  0  0  0  0  0  0  0  0  0
   52.9340  152.5820   26.5750 C   0  0  0  0  0  0  0  0  0  0  0  0
   52.2590  151.5150   27.0840 F   0  0  0  0  0  0  0  0  0  0  0  0
   54.2570  152.2720   26.6720 F   0  0  0  0  0  0  0  0  0  0  0  0
   52.6570  152.5840   25.2390 F   0  0  0  0  0  0  0  0  0  0  0  0
   54.2111  157.2749   26.0889 H   0  0  0  0  0  0  0  0  0  0  0  0
   55.0118  156.7728   24.5614 H   0  0  0  0  0  0  0  0  0  0  0  0
   53.2684  157.2056   24.5614 H   0  0  0  0  0  0  0  0  0  0  0  0
   53.1008  154.9008   24.6017 H   0  0  0  0  0  0  0  0  0  0  0  0
   54.6524  154.7143   25.5240 H   0  0  0  0  0  0  0  0  0  0  0  0
   52.8680  157.2922   26.9923 H   0  0  0  0  0  0  0  0  0  0  0  0
   47.7289  157.6623   30.5631 H   0  0  0  0  0  0  0  0  0  0  0  0
   46.7197  159.5800   31.8040 H   0  0  0  0  0  0  0  0  0  0  0  0
   48.1112  161.5751   32.3679 H   0  0  0  0  0  0  0  0  0  0  0  0
   51.4330  161.8150   32.2040 H   0  0  0  0  0  0  0  0  0  0  0  0
   54.3110  159.0440   29.6960 H   0  0  0  0  0  0  0  0  0  0  0  0
   50.9808  154.9681   30.0977 H   0  0  0  0  0  0  0  0  0  0  0  0
   51.5896  152.8786   28.9030 H   0  0  0  0  0  0  0  0  0  0  0  0
  1  2  1  0
  2  3  1  0
  3  4  2  0
  4  5  1  0
  5  6  1  0
  6  7  1  0
  7  8  1  0
  8  9  2  0
  9 10  1  0
 10 11  2  0
 11 12  1  0
 12 13  1  0
 12 14  2  0
 14 15  1  0
 15 16  2  0
 15 17  1  0
 17 18  1  0
  5 19  2  0
 19 20  1  0
 20 21  2  0
 21 22  1  0
 22 23  1  0
 22 24  1  0
 22 25  1  0
 21  3  1  0
 17  6  2  0
 14  8  1  0
  1 26  1  0
  1 27  1  0
  1 28  1  0
  2 29  1  0
  2 30  1  0
  4 31  1  0
  9 32  1  0
 10 33  1  0
 11 34  1  0
 13 35  1  0
 18 36  1  0
 19 37  1  0
 20 38  1  0
M  END
>  <meeko>  (3) 
{"is_sidechain": [false], "free_energy": -10.662, "intermolecular_energy": -13.045, "internal_energy": -0.304}

$$$$
cand_004_out
     RDKit          3D

 38 40  0  0  0  0  0  0  0  0999 V2000
   54.1600  156.7740   25.2570 C   0  0  0  0  0  0  0  0  0  0  0  0
   53.4670  155.4190   25.2500 C   0  0  0  0  0  0  0  0  0  0  0  0
   52.8150  155.1110   26.5810 C   0  0  0  0  0  0  0  0  0  0  0  0
   52.2910  156.1870   27.3270 C   0  0  0  0  0  0  0  0  0  0  0  0
   51.6910  155.9950   28.5800 C   0  0  0  0  0  0  0  0  0  0  0  0
   51.1220  157.1200   29.3500 C   0  0  0  0  0  0  0  0  0  0  0  0
   52.0330  158.1500   29.5540 O   0  0  0  0  0  0  0  0  0  0  0  0
   51.6340  159.2590   30.2560 C   0  0  0  0  0  0  0  0  0  0  0  0
   52.5850  160.2620   30.4510 C   0  0  0  0  0  0  0  0  0  0  0  0
   52.2430  161.4190   31.1560 C   0  0  0  0  0  0  0  0  0  0  0  0
   50.9520  161.5710   31.6660 C   0  0  0  0  0  0  0  0  0  0  0  0
   50.0060  160.5690   31.4710 C   0  0  0  0  0  0  0  0  0  0  0  0
   48.7610  160.7840   31.9970 O   0  0  0  0  0  0  0  0  0  0  0  0
   50.3470  159.4130   30.7660 C   0  0  0  0  0  0  0  0  0  0  0  0
   49.3840  158.3350   30.5380 C   0  0  0  0  0  0  0  0  0  0  0  0
   48.2260  158.3980   30.9500 O   0  0  0  0  0  0  0  0  0  0  0  0
   49.8480  157.1480   29.7860 C   0  0  0  0  0  0  0  0  0  0  0  0
   48.9270  156.1410   29.5640 O   0  0  0  0  0  0  0  0  0  0  0  0
   51.6040  154.6920   29.0810 C   0  0  0  0  0  0  0  0  0  0  0  0
   52.1200  153.6140   28.3570 C   0  0  0  0  0  0  0  0  0  0  0  0
   52.7360  153.8040   27.1070 C   0  0  0  0  0  0  0  0  0  0  0  0
   53.2740  152.5980   26.3630 C   0  0  0  0  0  0  0  0  0  0  0  0
   52.6750  151.4330   26.7310 F   0  0  0  0  0  0  0  0  0  0  0  0
   54.6100  152.4160   26.5620 F   0  0  0  0  0  0  0  0  0  0  0  0
   53.1140  152.6780   25.0110 F   0  0  0  0  0  0  0  0  0  0  0  0
   54.3248  157.0962   26.2958 H   0  0  0  0  0  0  0  0  0  0  0  0
   55.1277  156.6936   24.7401 H   0  0  0  0  0  0  0  0  0  0  0  0
   53.5284  157.5115   24.7401 H   0  0  0  0  0  0  0  0  0  0  0  0
   52.6943  155.4189   24.4671 H   0  0  0  0  0  0  0  0  0  0  0  0
   54.2277  154.6483   25.0568 H   0  0  0  0  0  0  0  0  0  0  0  0
   52.3546  157.2048   26.9148 H   0  0  0  0  0  0  0  0  0  0  0  0
   53.6023  160.1418   30.0502 H   0  0  0  0  0  0  0  0  0  0  0  0
   52.9913  162.2106   31.3093 H   0  0  0  0  0  0  0  0  0  0  0  0
   50.6830  162.4817   32.2213 H   0  0  0  0  0  0  0  0  0  0  0  0
   48.0150  160.3560   31.6260 H   0  0  0  0  0  0  0  0  0  0  0  0
   48.5440  156.0350   28.7150 H   0  0  0  0  0  0  0  0  0  0  0  0
   51.1245  154.5141   30.0549 H   0  0  0  0  0  0  0  0  0  0  0  0
   52.0430  152.5983   28.7723 H   0  0  0  0  0  0  0  0  0  0  0  0
  1  2  1  0
  2  3  1  0
  3  4  2  0
  4  5  1  0
  5  6  1  0
  6  7  1  0
  7  8  1  0
  8  9  2  0
  9 10  1  0
 10 11  2  0
 11 12  1  0
 12 13  1  0
 12 14  2  0
 14 15  1  0
 15 16  2  0
 15 17  1  0
 17 18  1  0
  5 19  2  0
 19 20  1  0
 20 21  2  0
 21 22  1  0
 22 23  1  0
 22 24  1  0
 22 25  1  0
 21  3  1  0
 17  6  2  0
 14  8  1  0
  1 26  1  0
  1 27  1  0
  1 28  1  0
  2 29  1  0
  2 30  1  0
  4 31  1  0
  9 32  1  0
 10 33  1  0
 11 34  1  0
 13 35  1  0
 18 36  1  0
 19 37  1  0
 20 38  1  0
M  END
>  <meeko>  (4) 
{"is_sidechain": [false], "free_energy": -9.35, "intermolecular_energy": -11.5, "internal_energy": -0.23}

$$$$
cand_004_out
     RDKit          3D

 38 40  0  0  0  0  0  0  0  0999 V2000
   51.4070  152.4190   27.9570 C   0  0  0  0  0  0  0  0  0  0  0  0
   52.3800  153.2620   28.7690 C   0  0  0  0  0  0  0  0  0  0  0  0
   52.4640  154.6820   28.2520 C   0  0  0  0  0  0  0  0  0  0  0  0
   51.9570  155.7150   29.0680 C   0  0  0  0  0  0  0  0  0  0  0  0
   51.9730  157.0560   28.6590 C   0  0  0  0  0  0  0  0  0  0  0  0
   51.4620  158.1400   29.5230 C   0  0  0  0  0  0  0  0  0  0  0  0
   50.1190  157.9840   29.8470 O   0  0  0  0  0  0  0  0  0  0  0  0
   49.5170  158.9220   30.6470 C   0  0  0  0  0  0  0  0  0  0  0  0
   48.1640  158.7350   30.9340 C   0  0  0  0  0  0  0  0  0  0  0  0
   47.4910  159.6530   31.7440 C   0  0  0  0  0  0  0  0  0  0  0  0
   48.1700  160.7560   32.2650 C   0  0  0  0  0  0  0  0  0  0  0  0
   49.5190  160.9400   31.9770 C   0  0  0  0  0  0  0  0  0  0  0  0
   50.1220  162.0410   32.5210 O   0  0  0  0  0  0  0  0  0  0  0  0
   50.1920  160.0230   31.1670 C   0  0  0  0  0  0  0  0  0  0  0  0
   51.6100  160.1790   30.8390 C   0  0  0  0  0  0  0  0  0  0  0  0
   52.2780  161.1190   31.2650 O   0  0  0  0  0  0  0  0  0  0  0  0
   52.2280  159.1550   29.9650 C   0  0  0  0  0  0  0  0  0  0  0  0
   53.5710  159.3040   29.6720 O   0  0  0  0  0  0  0  0  0  0  0  0
   52.5260  157.3620   27.4110 C   0  0  0  0  0  0  0  0  0  0  0  0
   53.0310  156.3510   26.5880 C   0  0  0  0  0  0  0  0  0  0  0  0
   53.0030  155.0030   26.9880 C   0  0  0  0  0  0  0  0  0  0  0  0
   53.5690  153.9490   26.0580 C   0  0  0  0  0  0  0  0  0  0  0  0
   54.1850  152.9300   26.7180 F   0  0  0  0  0  0  0  0  0  0  0  0
   54.4940  154.4560   25.1970 F   0  0  0  0  0  0  0  0  0  0  0  0
   52.6250  153.3550   25.2730 F   0  0  0  0  0  0  0  0  0  0  0  0
   50.7544  151.8536   28.6386 H   0  0  0  0  0  0  0  0  0  0  0  0
   50.7936  153.0759   27.3228 H   0  0  0  0  0  0  0  0  0  0  0  0
   51.9698  151.7183   27.3228 H   0  0  0  0  0  0  0  0  0  0  0  0
   52.0434  153.2840   29.8160 H   0  0  0  0  0  0  0  0  0  0  0  0
   53.3783  152.8082   28.6829 H   0  0  0  0  0  0  0  0  0  0  0  0
   51.5374  155.4613   30.0527 H   0  0  0  0  0  0  0  0  0  0  0  0
   47.6285  157.8664   30.5232 H   0  0  0  0  0  0  0  0  0  0  0  0
   46.4248  159.5066   31.9715 H   0  0  0  0  0  0  0  0  0  0  0  0
   47.6394  161.4787   32.9023 H   0  0  0  0  0  0  0  0  0  0  0  0
   50.9110  161.9460   33.0170 H   0  0  0  0  0  0  0  0  0  0  0  0
   54.1970  159.3730   30.3660 H   0  0  0  0  0  0  0  0  0  0  0  0
   52.5639  158.4084   27.0739 H   0  0  0  0  0  0  0  0  0  0  0  0
   53.4582  156.6148   25.6093 H   0  0  0  0  0  0  0  0  0  0  0  0
  1  2  1  0
  2  3  1  0
  3  4  2  0
  4  5  1  0
  5  6  1  0
  6  7  1  0
  7  8  1  0
  8  9  2  0
  9 10  1  0
 10 11  2  0
 11 12  1  0
 12 13  1  0
 12 14  2  0
 14 15  1  0
 15 16  2  0
 15 17  1  0
 17 18  1  0
  5 19  2  0
 19 20  1  0
 20 21  2  0
 21 22  1  0
 22 23  1  0
 22 24  1  0
 22 25  1  0
 21  3  1  0
 17  6  2  0
 14  8  1  0
  1 26  1  0
  1 27  1  0
  1 28  1  0
  2 29  1  0
  2 30  1  0
  4 31  1  0
  9 32  1  0
 10 33  1  0
 11 34  1  0
 13 35  1  0
 18 36  1  0
 19 37  1  0
 20 38  1  0
M  END
>  <meeko>  (5) 
{"is_sidechain": [false], "free_energy": -8.729, "intermolecular_energy": -11.046, "internal_energy": 0.081}

$$$$
cand_004_out
     RDKit          3D

 38 40  0  0  0  0  0  0  0  0999 V2000
   51.5670  152.1830   27.6650 C   0  0  0  0  0  0  0  0  0  0  0  0
   52.6200  152.9910   28.4110 C   0  0  0  0  0  0  0  0  0  0  0  0
   52.6030  154.4500   28.0060 C   0  0  0  0  0  0  0  0  0  0  0  0
   51.9520  155.3670   28.8580 C   0  0  0  0  0  0  0  0  0  0  0  0
   51.8690  156.7330   28.5490 C   0  0  0  0  0  0  0  0  0  0  0  0
   51.2070  157.6950   29.4530 C   0  0  0  0  0  0  0  0  0  0  0  0
   51.9950  158.8060   29.7310 O   0  0  0  0  0  0  0  0  0  0  0  0
   51.4990  159.7810   30.5590 C   0  0  0  0  0  0  0  0  0  0  0  0
   52.3300  160.8710   30.8230 C   0  0  0  0  0  0  0  0  0  0  0  0
   51.8850  161.8990   31.6570 C   0  0  0  0  0  0  0  0  0  0  0  0
   50.6110  161.8370   32.2270 C   0  0  0  0  0  0  0  0  0  0  0  0
   49.7850  160.7480   31.9620 C   0  0  0  0  0  0  0  0  0  0  0  0
   48.5510  160.7520   32.5520 O   0  0  0  0  0  0  0  0  0  0  0  0
   50.2300  159.7200   31.1280 C   0  0  0  0  0  0  0  0  0  0  0  0
   49.3940  158.5580   30.8240 C   0  0  0  0  0  0  0  0  0  0  0  0
   48.2590  158.4340   31.2810 O   0  0  0  0  0  0  0  0  0  0  0  0
   49.9620  157.5190   29.9350 C   0  0  0  0  0  0  0  0  0  0  0  0
   49.1590  156.4320   29.6420 O   0  0  0  0  0  0  0  0  0  0  0  0
   52.4680  157.1830   27.3680 C   0  0  0  0  0  0  0  0  0  0  0  0
   53.1150  156.2890   26.5100 C   0  0  0  0  0  0  0  0  0  0  0  0
   53.1870  154.9160   26.8090 C   0  0  0  0  0  0  0  0  0  0  0  0
   53.9050  153.9920   25.8460 C   0  0  0  0  0  0  0  0  0  0  0  0
   54.8310  154.6330   25.0810 F   0  0  0  0  0  0  0  0  0  0  0  0
   53.0530  153.3830   24.9740 F   0  0  0  0  0  0  0  0  0  0  0  0
   54.5810  152.9820   26.4640 F   0  0  0  0  0  0  0  0  0  0  0  0
   50.9103  151.6791   28.3894 H   0  0  0  0  0  0  0  0  0  0  0  0
   50.9682  152.8556   27.0333 H   0  0  0  0  0  0  0  0  0  0  0  0
   52.0617  151.4305   27.0333 H   0  0  0  0  0  0  0  0  0  0  0  0
   52.4242  152.9193   29.4911 H   0  0  0  0  0  0  0  0  0  0  0  0
   53.6082  152.5785   28.1592 H   0  0  0  0  0  0  0  0  0  0  0  0
   51.4970  155.0009   29.7902 H   0  0  0  0  0  0  0  0  0  0  0  0
   53.3334  160.9202   30.3750 H   0  0  0  0  0  0  0  0  0  0  0  0
   52.5386  162.7589   31.8654 H   0  0  0  0  0  0  0  0  0  0  0  0
   50.2612  162.6470   32.8839 H   0  0  0  0  0  0  0  0  0  0  0  0
   48.4770  160.7960   33.4850 H   0  0  0  0  0  0  0  0  0  0  0  0
   49.4530  155.7820   29.0330 H   0  0  0  0  0  0  0  0  0  0  0  0
   52.4296  158.2520   27.1115 H   0  0  0  0  0  0  0  0  0  0  0  0
   53.5759  156.6655   25.5849 H   0  0  0  0  0  0  0  0  0  0  0  0
  1  2  1  0
  2  3  1  0
  3  4  2  0
  4  5  1  0
  5  6  1  0
  6  7  1  0
  7  8  1  0
  8  9  2  0
  9 10  1  0
 10 11  2  0
 11 12  1  0
 12 13  1  0
 12 14  2  0
 14 15  1  0
 15 16  2  0
 15 17  1  0
 17 18  1  0
  5 19  2  0
 19 20  1  0
 20 21  2  0
 21 22  1  0
 22 23  1  0
 22 24  1  0
 22 25  1  0
 21  3  1  0
 17  6  2  0
 14  8  1  0
  1 26  1  0
  1 27  1  0
  1 28  1  0
  2 29  1  0
  2 30  1  0
  4 31  1  0
  9 32  1  0
 10 33  1  0
 11 34  1  0
 13 35  1  0
 18 36  1  0
 19 37  1  0
 20 38  1  0
M  END
>  <meeko>  (6) 
{"is_sidechain": [false], "free_energy": -8.338, "intermolecular_energy": -10.276, "internal_energy": -0.206}

$$$$
cand_004_out
     RDKit          3D

 38 40  0  0  0  0  0  0  0  0999 V2000
   47.9370  158.8880   30.0160 C   0  0  0  0  0  0  0  0  0  0  0  0
   48.8980  157.9590   30.7430 C   0  0  0  0  0  0  0  0  0  0  0  0
   50.2770  157.9720   30.1180 C   0  0  0  0  0  0  0  0  0  0  0  0
   50.6520  156.8750   29.3150 C   0  0  0  0  0  0  0  0  0  0  0  0
   51.9180  156.7940   28.7160 C   0  0  0  0  0  0  0  0  0  0  0  0
   52.3010  155.6550   27.8570 C   0  0  0  0  0  0  0  0  0  0  0  0
   51.7980  154.4420   28.3130 O   0  0  0  0  0  0  0  0  0  0  0  0
   52.0790  153.3000   27.6070 C   0  0  0  0  0  0  0  0  0  0  0  0
   51.5680  152.1020   28.1090 C   0  0  0  0  0  0  0  0  0  0  0  0
   51.8150  150.9030   27.4360 C   0  0  0  0  0  0  0  0  0  0  0  0
   52.5740  150.9020   26.2630 C   0  0  0  0  0  0  0  0  0  0  0  0
   53.0820  152.0980   25.7650 C   0  0  0  0  0  0  0  0  0  0  0  0
   53.8150  152.0250   24.6120 O   0  0  0  0  0  0  0  0  0  0  0  0
   52.8350  153.2980   26.4380 C   0  0  0  0  0  0  0  0  0  0  0  0
   53.3510  154.5770   25.9490 C   0  0  0  0  0  0  0  0  0  0  0  0
   54.0200  154.6590   24.9200 O   0  0  0  0  0  0  0  0  0  0  0  0
   53.0390  155.7890   26.7390 C   0  0  0  0  0  0  0  0  0  0  0  0
   53.5190  156.9940   26.2620 O   0  0  0  0  0  0  0  0  0  0  0  0
   52.8150  157.8480   28.9190 C   0  0  0  0  0  0  0  0  0  0  0  0
   52.4620  158.9420   29.7140 C   0  0  0  0  0  0  0  0  0  0  0  0
   51.1990  159.0200   30.3280 C   0  0  0  0  0  0  0  0  0  0  0  0
   50.8680  160.2320   31.1750 C   0  0  0  0  0  0  0  0  0  0  0  0
   50.1000  161.1460   30.5220 F   0  0  0  0  0  0  0  0  0  0  0  0
   51.9820  160.9000   31.5880 F   0  0  0  0  0  0  0  0  0  0  0  0
   50.1820  159.9270   32.3140 F   0  0  0  0  0  0  0  0  0  0  0  0
   47.3491  159.4563   30.7519 H   0  0  0  0  0  0  0  0  0  0  0  0
   48.5078  159.5854   29.3853 H   0  0  0  0  0  0  0  0  0  0  0  0
   47.2593  158.2939   29.3853 H   0  0  0  0  0  0  0  0  0  0  0  0
   48.9797  158.2815   31.7915 H   0  0  0  0  0  0  0  0  0  0  0  0
   48.5014  156.9354   30.6728 H   0  0  0  0  0  0  0  0  0  0  0  0
   49.9314  156.0597   29.1538 H   0  0  0  0  0  0  0  0  0  0  0  0
   50.9716  152.1020   29.0333 H   0  0  0  0  0  0  0  0  0  0  0  0
   51.4115  149.9586   27.8300 H   0  0  0  0  0  0  0  0  0  0  0  0
   52.7697  149.9575   25.7341 H   0  0  0  0  0  0  0  0  0  0  0  0
   53.9920  152.8010   24.1190 H   0  0  0  0  0  0  0  0  0  0  0  0
   54.3350  157.3320   26.5770 H   0  0  0  0  0  0  0  0  0  0  0  0
   53.8085  157.8155   28.4480 H   0  0  0  0  0  0  0  0  0  0  0  0
   53.1855  159.7572   29.8623 H   0  0  0  0  0  0  0  0  0  0  0  0
  1  2  1  0
  2  3  1  0
  3  4  2  0
  4  5  1  0
  5  6  1  0
  6  7  1  0
  7  8  1  0
  8  9  2  0
  9 10  1  0
 10 11  2  0
 11 12  1  0
 12 13  1  0
 12 14  2  0
 14 15  1  0
 15 16  2  0
 15 17  1  0
 17 18  1  0
  5 19  2  0
 19 20  1  0
 20 21  2  0
 21 22  1  0
 22 23  1  0
 22 24  1  0
 22 25  1  0
 21  3  1  0
 17  6  2  0
 14  8  1  0
  1 26  1  0
  1 27  1  0
  1 28  1  0
  2 29  1  0
  2 30  1  0
  4 31  1  0
  9 32  1  0
 10 33  1  0
 11 34  1  0
 13 35  1  0
 18 36  1  0
 19 37  1  0
 20 38  1  0
M  END
>  <meeko>  (7) 
{"is_sidechain": [false], "free_energy": -8.167, "intermolecular_energy": -10.277, "internal_energy": 0.006}

$$$$
