cand_013_out
     RDKit          3D

 50 53  0  0  0  0  0  0  0  0999 V2000
   54.2260  149.2570   24.6120 C   0  0  0  0  0  0  0  0  0  0  0  0
   53.9570  150.3010   25.5980 N   0  0  0  0  0  0  0  0  0  0  0  0
   54.6260  151.5660   25.2120 C   0  0  0  0  0  0  0  0  0  0  0  0
   54.3240  152.7200   26.1970 C   0  0  0  0  0  0  0  0  0  0  0  0
   52.8600  152.9210   26.3040 N   0  0  0  0  0  0  0  0  0  0  0  0
   52.5100  154.0410   27.0760 C   0  0  0  0  0  0  0  0  0  0  0  0
   51.9710  153.9170   28.3650 C   0  0  0  0  0  0  0  0  0  0  0  0
   51.6330  155.0430   29.1230 C   0  0  0  0  0  0  0  0  0  0  0  0
   51.8310  156.3300   28.6160 C   0  0  0  0  0  0  0  0  0  0  0  0
   51.4580  157.5370   29.3830 C   0  0  0  0  0  0  0  0  0  0  0  0
   50.1190  157.5470   29.7550 O   0  0  0  0  0  0  0  0  0  0  0  0
   49.6380  158.6140   30.4710 C   0  0  0  0  0  0  0  0  0  0  0  0
   48.2910  158.5770   30.8330 C   0  0  0  0  0  0  0  0  0  0  0  0
   47.7370  159.6320   31.5630 C   0  0  0  0  0  0  0  0  0  0  0  0
   48.5290  160.7220   31.9280 C   0  0  0  0  0  0  0  0  0  0  0  0
   49.8730  160.7560   31.5650 C   0  0  0  0  0  0  0  0  0  0  0  0
   50.5910  161.8540   31.9540 O   0  0  0  0  0  0  0  0  0  0  0  0
   50.4260  159.7000   30.8350 C   0  0  0  0  0  0  0  0  0  0  0  0
   51.8340  159.6970   30.4330 C   0  0  0  0  0  0  0  0  0  0  0  0
   52.5930  160.6220   30.7100 O   0  0  0  0  0  0  0  0  0  0  0  0
   52.3240  158.5270   29.6670 C   0  0  0  0  0  0  0  0  0  0  0  0
   53.6500  158.5410   29.2780 O   0  0  0  0  0  0  0  0  0  0  0  0
   52.3620  156.4570   27.3240 C   0  0  0  0  0  0  0  0  0  0  0  0
   52.7080  155.3290   26.5500 C   0  0  0  0  0  0  0  0  0  0  0  0
   53.2810  155.5170   25.1670 C   0  0  0  0  0  0  0  0  0  0  0  0
   53.0720  156.7790   24.6770 F   0  0  0  0  0  0  0  0  0  0  0  0
   52.7370  154.6870   24.2290 F   0  0  0  0  0  0  0  0  0  0  0  0
   54.6330  155.3400   25.1040 F   0  0  0  0  0  0  0  0  0  0  0  0
   52.1680  151.6760   26.7140 C   0  0  0  0  0  0  0  0  0  0  0  0
   52.4990  150.5390   25.7190 C   0  0  0  0  0  0  0  0  0  0  0  0
   54.4682  148.3172   25.1298 H   0  0  0  0  0  0  0  0  0  0  0  0
   53.3365  149.1098   23.9819 H   0  0  0  0  0  0  0  0  0  0  0  0
   55.0759  149.5580   23.9819 H   0  0  0  0  0  0  0  0  0  0  0  0
   54.3230  149.9860   26.4970 H   0  0  0  0  0  0  0  0  0  0  0  0
   55.7128  151.3975   25.1885 H   0  0  0  0  0  0  0  0  0  0  0  0
   54.2410  151.8600   24.2244 H   0  0  0  0  0  0  0  0  0  0  0  0
   54.7313  152.4700   27.1878 H   0  0  0  0  0  0  0  0  0  0  0  0
   54.7905  153.6445   25.8259 H   0  0  0  0  0  0  0  0  0  0  0  0
   51.8109  152.9144   28.7882 H   0  0  0  0  0  0  0  0  0  0  0  0
   51.2068  154.9140   30.1288 H   0  0  0  0  0  0  0  0  0  0  0  0
   47.6663  157.7189   30.5443 H   0  0  0  0  0  0  0  0  0  0  0  0
   46.6756  159.6035   31.8503 H   0  0  0  0  0  0  0  0  0  0  0  0
   48.0921  161.5528   32.5015 H   0  0  0  0  0  0  0  0  0  0  0  0
   51.3640  162.0980   31.4840 H   0  0  0  0  0  0  0  0  0  0  0  0
   53.8750  158.7200   28.3860 H   0  0  0  0  0  0  0  0  0  0  0  0
   52.5126  157.4621   26.9032 H   0  0  0  0  0  0  0  0  0  0  0  0
   52.5019  151.3878   27.7217 H   0  0  0  0  0  0  0  0  0  0  0  0
   51.0818  151.8494   26.7182 H   0  0  0  0  0  0  0  0  0  0  0  0
   52.0176  149.6133   26.0674 H   0  0  0  0  0  0  0  0  0  0  0  0
   52.1249  150.8398   24.7293 H   0  0  0  0  0  0  0  0  0  0  0  0
  1  2  1  0
  2  3  1  0
  3  4  1  0
  4  5  1  0
  5  6  1  0
  6  7  2  0
  7  8  1  0
  8  9  2  0
  9 10  1  0
 10 11  1  0
 11 12  1  0
 12 13  2  0
 13 14  1  0
 14 15  2  0
 15 16  1  0
 16 17  1  0
 16 18  2  0
 18 19  1  0
 19 20  2  0
 19 21  1  0
 21 22  1  0
  9 23  1  0
 23 24  2  0
 24 25  1  0
 25 26  1  0
 25 27  1  0
 25 28  1  0
  5 29  1  0
 29 30  1  0
 30  2  1  0
 24  6  1  0
 21 10  2  0
 18 12  1  0
  1 31  1  0
  1 32  1  0
  1 33  1  0
  2 34  1  0
  3 35  1  0
  3 36  1  0
  4 37  1  0
  4 38  1  0
  7 39  1  0
  8 40  1  0
 13 41  1  0
 14 42  1  0
 15 43  1  0
 17 44  1  0
 22 45  1  0
 23 46  1  0
 29 47  1  0
 29 48  1  0
 30 49  1  0
 30 50  1  0
M  CHG  1   2   1
M  END
>  <meeko>  (1) 
{"is_sidechain": [false], "free_energy": -11.283, "intermolecular_energy": -13.922, "internal_energy": 0.17}

$$$$
cand_013_out
     RDKit          3D

 50 53  0  0  0  0  0  0  0  0999 V2000
   54.4360  149.4450   24.6280 C   0  0  0  0  0  0  0  0  0  0  0  0
   54.0750  150.4420   25.6340 N   0  0  0  0  0  0  0  0  0  0  0  0
   54.7690  151.7240   25.3670 C   0  0  0  0  0  0  0  0  0  0  0  0
   54.3760  152.8320   26.3730 C   0  0  0  0  0  0  0  0  0  0  0  0
   52.9060  153.0260   26.3580 N   0  0  0  0  0  0  0  0  0  0  0  0
   52.4840  154.1090   27.1470 C   0  0  0  0  0  0  0  0  0  0  0  0
   51.9330  153.9300   28.4250 C   0  0  0  0  0  0  0  0  0  0  0  0
   51.5220  155.0190   29.1980 C   0  0  0  0  0  0  0  0  0  0  0  0
   51.6570  156.3250   28.7200 C   0  0  0  0  0  0  0  0  0  0  0  0
   51.2070  157.4930   29.5050 C   0  0  0  0  0  0  0  0  0  0  0  0
   52.1900  158.4680   29.6350 O   0  0  0  0  0  0  0  0  0  0  0  0
   51.9060  159.6060   30.3450 C   0  0  0  0  0  0  0  0  0  0  0  0
   52.9180  160.5620   30.4400 C   0  0  0  0  0  0  0  0  0  0  0  0
   52.6940  161.7450   31.1490 C   0  0  0  0  0  0  0  0  0  0  0  0
   51.4600  161.9710   31.7620 C   0  0  0  0  0  0  0  0  0  0  0  0
   50.4520  161.0160   31.6640 C   0  0  0  0  0  0  0  0  0  0  0  0
   49.2680  161.3010   32.2890 O   0  0  0  0  0  0  0  0  0  0  0  0
   50.6770  159.8330   30.9550 C   0  0  0  0  0  0  0  0  0  0  0  0
   49.6440  158.8030   30.8300 C   0  0  0  0  0  0  0  0  0  0  0  0
   48.5360  158.9240   31.3460 O   0  0  0  0  0  0  0  0  0  0  0  0
   49.9800  157.5880   30.0520 C   0  0  0  0  0  0  0  0  0  0  0  0
   49.0050  156.6140   29.9530 O   0  0  0  0  0  0  0  0  0  0  0  0
   52.2000  156.5080   27.4410 C   0  0  0  0  0  0  0  0  0  0  0  0
   52.6180  155.4160   26.6500 C   0  0  0  0  0  0  0  0  0  0  0  0
   53.2010  155.6640   25.2800 C   0  0  0  0  0  0  0  0  0  0  0  0
   52.9110  156.9150   24.8030 F   0  0  0  0  0  0  0  0  0  0  0  0
   52.7340  154.8110   24.3220 F   0  0  0  0  0  0  0  0  0  0  0  0
   54.5630  155.5840   25.2400 F   0  0  0  0  0  0  0  0  0  0  0  0
   52.1870  151.7630   26.6480 C   0  0  0  0  0  0  0  0  0  0  0  0
   52.6110  150.6730   25.6360 C   0  0  0  0  0  0  0  0  0  0  0  0
   54.7696  148.5237   25.1280 H   0  0  0  0  0  0  0  0  0  0  0  0
   53.5606  149.2247   23.9995 H   0  0  0  0  0  0  0  0  0  0  0  0
   55.2495  149.8363   23.9995 H   0  0  0  0  0  0  0  0  0  0  0  0
   54.3620  150.0870   26.5460 H   0  0  0  0  0  0  0  0  0  0  0  0
   55.8544  151.5576   25.4319 H   0  0  0  0  0  0  0  0  0  0  0  0
   54.4707  152.0626   24.3638 H   0  0  0  0  0  0  0  0  0  0  0  0
   54.6951  152.5375   27.3836 H   0  0  0  0  0  0  0  0  0  0  0  0
   54.8693  153.7729   26.0879 H   0  0  0  0  0  0  0  0  0  0  0  0
   51.8224  152.9118   28.8264 H   0  0  0  0  0  0  0  0  0  0  0  0
   51.0874  154.8463   30.1937 H   0  0  0  0  0  0  0  0  0  0  0  0
   53.8905  160.3846   29.9575 H   0  0  0  0  0  0  0  0  0  0  0  0
   53.4910  162.4994   31.2244 H   0  0  0  0  0  0  0  0  0  0  0  0
   51.2847  162.9019   32.3213 H   0  0  0  0  0  0  0  0  0  0  0  0
   49.2480  161.9140   32.9970 H   0  0  0  0  0  0  0  0  0  0  0  0
   48.1220  156.8540   29.7500 H   0  0  0  0  0  0  0  0  0  0  0  0
   52.3031  157.5284   27.0434 H   0  0  0  0  0  0  0  0  0  0  0  0
   52.4316  151.4296   27.6673 H   0  0  0  0  0  0  0  0  0  0  0  0
   51.1038  151.9347   26.5634 H   0  0  0  0  0  0  0  0  0  0  0  0
   52.1053  149.7319   25.8980 H   0  0  0  0  0  0  0  0  0  0  0  0
   52.3248  151.0186   24.6317 H   0  0  0  0  0  0  0  0  0  0  0  0
  1  2  1  0
  2  3  1  0
  3  4  1  0
  4  5  1  0
  5  6  1  0
  6  7  2  0
  7  8  1  0
  8  9  2  0
  9 10  1  0
 10 11  1  0
 11 12  1  0
 12 13  2  0
 13 14  1  0
 14 15  2  0
 15 16  1  0
 16 17  1  0
 16 18  2  0
 18 19  1  0
 19 20  2  0
 19 21  1  0
 21 22  1  0
  9 23  1  0
 23 24  2  0
 24 25  1  0
 25 26  1  0
 25 27  1  0
 25 28  1  0
  5 29  1  0
 29 30  1  0
 30  2  1  0
 24  6  1  0
 21 10  2  0
 18 12  1  0
  1 31  1  0
  1 32  1  0
  1 33  1  0
  2 34  1  0
  3 35  1  0
  3 36  1  0
  4 37  1  0
  4 38  1  0
  7 39  1  0
  8 40  1  0
 13 41  1  0
 14 42  1  0
 15 43  1  0
 17 44  1  0
 22 45  1  0
 23 46  1  0
 29 47  1  0
 29 48  1  0
 30 49  1  0
 30 50  1  0
M  CHG  1   2   1
M  END
>  <meeko>  (2) 
{"is_sidechain": [false], "free_energy": -9.278, "intermolecular_energy": -11.268, "internal_energy": -0.01}

$$$$
cand_013_out
     RDKit          3D

 50 53  0  0  0  0  0  0  0  0999 V2000
   54.2270  151.3630   23.8130 C   0  0  0  0  0  0  0  0  0  0  0  0
   53.6260  152.5480   24.4210 N   0  0  0  0  0  0  0  0  0  0  0  0
   52.7900  152.1680   25.5830 C   0  0  0  0  0  0  0  0  0  0  0  0
   52.1750  153.3950   26.2980 C   0  0  0  0  0  0  0  0  0  0  0  0
   53.2510  154.3250   26.7170 N   0  0  0  0  0  0  0  0  0  0  0  0
   52.7840  155.3990   27.4920 C   0  0  0  0  0  0  0  0  0  0  0  0
   52.8970  156.7300   27.0650 C   0  0  0  0  0  0  0  0  0  0  0  0
   52.4220  157.7870   27.8470 C   0  0  0  0  0  0  0  0  0  0  0  0
   51.8100  157.5430   29.0790 C   0  0  0  0  0  0  0  0  0  0  0  0
   51.3220  158.6420   29.9390 C   0  0  0  0  0  0  0  0  0  0  0  0
   49.9870  158.4950   30.2990 O   0  0  0  0  0  0  0  0  0  0  0  0
   49.4050  159.4490   31.0940 C   0  0  0  0  0  0  0  0  0  0  0  0
   48.0670  159.2540   31.4400 C   0  0  0  0  0  0  0  0  0  0  0  0
   47.4140  160.1890   32.2480 C   0  0  0  0  0  0  0  0  0  0  0  0
   48.0980  161.3150   32.7080 C   0  0  0  0  0  0  0  0  0  0  0  0
   49.4330  161.5060   32.3620 C   0  0  0  0  0  0  0  0  0  0  0  0
   50.0430  162.6310   32.8470 O   0  0  0  0  0  0  0  0  0  0  0  0
   50.0860  160.5710   31.5540 C   0  0  0  0  0  0  0  0  0  0  0  0
   51.4880  160.7350   31.1660 C   0  0  0  0  0  0  0  0  0  0  0  0
   52.1550  161.7020   31.5250 O   0  0  0  0  0  0  0  0  0  0  0  0
   52.0890  159.6840   30.3120 C   0  0  0  0  0  0  0  0  0  0  0  0
   53.4080  159.8560   29.9380 O   0  0  0  0  0  0  0  0  0  0  0  0
   51.7020  156.2150   29.5130 C   0  0  0  0  0  0  0  0  0  0  0  0
   52.1780  155.1390   28.7330 C   0  0  0  0  0  0  0  0  0  0  0  0
   52.0340  153.7250   29.2400 C   0  0  0  0  0  0  0  0  0  0  0  0
   51.5300  153.6700   30.5130 F   0  0  0  0  0  0  0  0  0  0  0  0
   53.2150  153.0430   29.3060 F   0  0  0  0  0  0  0  0  0  0  0  0
   51.1840  152.9590   28.4970 F   0  0  0  0  0  0  0  0  0  0  0  0
   54.0890  154.7410   25.5670 C   0  0  0  0  0  0  0  0  0  0  0  0
   54.6770  153.4940   24.8660 C   0  0  0  0  0  0  0  0  0  0  0  0
   54.5730  150.6808   24.6035 H   0  0  0  0  0  0  0  0  0  0  0  0
   53.4792  150.8518   23.1889 H   0  0  0  0  0  0  0  0  0  0  0  0
   55.0812  151.6643   23.1889 H   0  0  0  0  0  0  0  0  0  0  0  0
   53.0420  153.0000   23.7170 H   0  0  0  0  0  0  0  0  0  0  0  0
   51.9743  151.5183   25.2331 H   0  0  0  0  0  0  0  0  0  0  0  0
   53.4381  151.6505   26.3057 H   0  0  0  0  0  0  0  0  0  0  0  0
   51.4916  153.9139   25.6097 H   0  0  0  0  0  0  0  0  0  0  0  0
   51.6212  153.0572   27.1864 H   0  0  0  0  0  0  0  0  0  0  0  0
   53.3689  156.9467   26.0953 H   0  0  0  0  0  0  0  0  0  0  0  0
   52.5312  158.8213   27.4887 H   0  0  0  0  0  0  0  0  0  0  0  0
   47.5276  158.3665   31.0776 H   0  0  0  0  0  0  0  0  0  0  0  0
   46.3595  160.0371   32.5217 H   0  0  0  0  0  0  0  0  0  0  0  0
   47.5831  162.0508   33.3432 H   0  0  0  0  0  0  0  0  0  0  0  0
   49.7150  163.4780   32.6140 H   0  0  0  0  0  0  0  0  0  0  0  0
   54.0880  159.3940   30.3890 H   0  0  0  0  0  0  0  0  0  0  0  0
   51.2343  156.0056   30.4864 H   0  0  0  0  0  0  0  0  0  0  0  0
   53.4725  155.3049   24.8515 H   0  0  0  0  0  0  0  0  0  0  0  0
   54.9119  155.3748   25.9290 H   0  0  0  0  0  0  0  0  0  0  0  0
   55.2528  153.8211   23.9877 H   0  0  0  0  0  0  0  0  0  0  0  0
   55.3143  152.9696   25.5932 H   0  0  0  0  0  0  0  0  0  0  0  0
  1  2  1  0
  2  3  1  0
  3  4  1  0
  4  5  1  0
  5  6  1  0
  6  7  2  0
  7  8  1  0
  8  9  2  0
  9 10  1  0
 10 11  1  0
 11 12  1  0
 12 13  2  0
 13 14  1  0
 14 15  2  0
 15 16  1  0
 16 17  1  0
 16 18  2  0
 18 19  1  0
 19 20  2  0
 19 21  1  0
 21 22  1  0
  9 23  1  0
 23 24  2  0
 24 25  1  0
 25 26  1  0
 25 27  1  0
 25 28  1  0
  5 29  1  0
 29 30  1  0
 30  2  1  0
 24  6  1  0
 21 10  2  0
 18 12  1  0
  1 31  1  0
  1 32  1  0
  1 33  1  0
  2 34  1  0
  3 35  1  0
  3 36  1  0
  4 37  1  0
  4 38  1  0
  7 39  1  0
  8 40  1  0
 13 41  1  0
 14 42  1  0
 15 43  1  0
 17 44  1  0
 22 45  1  0
 23 46  1  0
 29 47  1  0
 29 48  1  0
 30 49  1  0
 30 50  1  0
M  CHG  1   2   1
M  END
>  <meeko>  (3) 
{"is_sidechain": [false], "free_energy": -8.907, "intermolecular_energy": -11.656, "internal_energy": 0.836}

$$$$
cand_013_out
     RDKit          3D

 50 53  0  0  0  0  0  0  0  0999 V2000
   47.6450  162.9140   34.2310 C   0  0  0  0  0  0  0  0  0  0  0  0
   48.0010  161.7540   33.4170 N   0  0  0  0  0  0  0  0  0  0  0  0
   48.2540  162.1610   32.0150 C   0  0  0  0  0  0  0  0  0  0  0  0
   48.6900  160.9750   31.1230 C   0  0  0  0  0  0  0  0  0  0  0  0
   49.8940  160.3280   31.6980 N   0  0  0  0  0  0  0  0  0  0  0  0
   50.4310  159.3260   30.8730 C   0  0  0  0  0  0  0  0  0  0  0  0
   49.7260  158.1520   30.5730 C   0  0  0  0  0  0  0  0  0  0  0  0
   50.2740  157.1670   29.7460 C   0  0  0  0  0  0  0  0  0  0  0  0
   51.5440  157.3310   29.1870 C   0  0  0  0  0  0  0  0  0  0  0  0
   52.1590  156.2950   28.3310 C   0  0  0  0  0  0  0  0  0  0  0  0
   52.7340  156.8180   27.1780 O   0  0  0  0  0  0  0  0  0  0  0  0
   53.3380  155.9630   26.2910 C   0  0  0  0  0  0  0  0  0  0  0  0
   53.9110  156.5330   25.1540 C   0  0  0  0  0  0  0  0  0  0  0  0
   54.5420  155.7180   24.2100 C   0  0  0  0  0  0  0  0  0  0  0  0
   54.5990  154.3370   24.4040 C   0  0  0  0  0  0  0  0  0  0  0  0
   54.0270  153.7720   25.5400 C   0  0  0  0  0  0  0  0  0  0  0  0
   54.1180  152.4130   25.6670 O   0  0  0  0  0  0  0  0  0  0  0  0
   53.3960  154.5870   26.4840 C   0  0  0  0  0  0  0  0  0  0  0  0
   52.7800  154.0330   27.6910 C   0  0  0  0  0  0  0  0  0  0  0  0
   52.7830  152.8280   27.9290 O   0  0  0  0  0  0  0  0  0  0  0  0
   52.1420  154.9830   28.6320 C   0  0  0  0  0  0  0  0  0  0  0  0
   51.5500  154.4480   29.7600 O   0  0  0  0  0  0  0  0  0  0  0  0
   52.2550  158.5000   29.4910 C   0  0  0  0  0  0  0  0  0  0  0  0
   51.7130  159.5010   30.3250 C   0  0  0  0  0  0  0  0  0  0  0  0
   52.5150  160.7450   30.6200 C   0  0  0  0  0  0  0  0  0  0  0  0
   51.9540  161.8740   30.0840 F   0  0  0  0  0  0  0  0  0  0  0  0
   53.7820  160.7140   30.1120 F   0  0  0  0  0  0  0  0  0  0  0  0
   52.6370  161.0180   31.9510 F   0  0  0  0  0  0  0  0  0  0  0  0
   49.6590  159.8880   33.0940 C   0  0  0  0  0  0  0  0  0  0  0  0
   49.2110  161.0910   33.9570 C   0  0  0  0  0  0  0  0  0  0  0  0
   47.7252  162.6528   35.2965 H   0  0  0  0  0  0  0  0  0  0  0  0
   48.3295  163.7448   34.0046 H   0  0  0  0  0  0  0  0  0  0  0  0
   46.6123  163.2178   34.0046 H   0  0  0  0  0  0  0  0  0  0  0  0
   47.2180  161.1000   33.4430 H   0  0  0  0  0  0  0  0  0  0  0  0
   47.3309  162.5929   31.6011 H   0  0  0  0  0  0  0  0  0  0  0  0
   49.0752  162.8928   32.0226 H   0  0  0  0  0  0  0  0  0  0  0  0
   47.8728  160.2408   31.0670 H   0  0  0  0  0  0  0  0  0  0  0  0
   48.9249  161.3469   30.1148 H   0  0  0  0  0  0  0  0  0  0  0  0
   48.7219  158.0029   30.9967 H   0  0  0  0  0  0  0  0  0  0  0  0
   49.6994  156.2535   29.5332 H   0  0  0  0  0  0  0  0  0  0  0  0
   53.8663  157.6214   25.0007 H   0  0  0  0  0  0  0  0  0  0  0  0
   54.9944  156.1657   23.3128 H   0  0  0  0  0  0  0  0  0  0  0  0
   55.0952  153.6962   23.6602 H   0  0  0  0  0  0  0  0  0  0  0  0
   54.0580  152.0160   26.5150 H   0  0  0  0  0  0  0  0  0  0  0  0
   51.2560  155.0130   30.4480 H   0  0  0  0  0  0  0  0  0  0  0  0
   53.2610  158.6407   29.0688 H   0  0  0  0  0  0  0  0  0  0  0  0
   48.8738  159.1178   33.1063 H   0  0  0  0  0  0  0  0  0  0  0  0
   50.5918  159.4748   33.5053 H   0  0  0  0  0  0  0  0  0  0  0  0
   48.9940  160.7343   34.9747 H   0  0  0  0  0  0  0  0  0  0  0  0
   50.0272  161.8285   33.9538 H   0  0  0  0  0  0  0  0  0  0  0  0
  1  2  1  0
  2  3  1  0
  3  4  1  0
  4  5  1  0
  5  6  1  0
  6  7  2  0
  7  8  1  0
  8  9  2  0
  9 10  1  0
 10 11  1  0
 11 12  1  0
 12 13  2  0
 13 14  1  0
 14 15  2  0
 15 16  1  0
 16 17  1  0
 16 18  2  0
 18 19  1  0
 19 20  2  0
 19 21  1  0
 21 22  1  0
  9 23  1  0
 23 24  2  0
 24 25  1  0
 25 26  1  0
 25 27  1  0
 25 28  1  0
  5 29  1  0
 29 30  1  0
 30  2  1  0
 24  6  1  0
 21 10  2  0
 18 12  1  0
  1 31  1  0
  1 32  1  0
  1 33  1  0
  2 34  1  0
  3 35  1  0
  3 36  1  0
  4 37  1  0
  4 38  1  0
  7 39  1  0
  8 40  1  0
 13 41  1  0
 14 42  1  0
 15 43  1  0
 17 44  1  0
 22 45  1  0
 23 46  1  0
 29 47  1  0
 29 48  1  0
 30 49  1  0
 30 50  1  0
M  CHG  1   2   1
M  END
>  <meeko>  (4) 
{"is_sidechain": [false], "free_energy": -8.418, "intermolecular_energy": -9.803, "internal_energy": -0.414}

$$$$
