cand_034_out
     RDKit          3D

 40 42  0  0  0  0  0  0  0  0999 V2000
   48.1900  161.3540   31.1880 C   0  0  0  0  0  0  0  0  0  0  0  0
   49.4120  160.7750   31.7560 N   0  0  0  0  0  0  0  0  0  0  0  0
   49.2860  160.4140   33.1760 C   0  0  0  0  0  0  0  0  0  0  0  0
   49.9610  159.7080   31.0130 C   0  0  0  0  0  0  0  0  0  0  0  0
   49.2490  158.5240   30.7650 C   0  0  0  0  0  0  0  0  0  0  0  0
   49.8220  157.4690   30.0450 C   0  0  0  0  0  0  0  0  0  0  0  0
   51.1240  157.5640   29.5500 C   0  0  0  0  0  0  0  0  0  0  0  0
   51.7640  156.4520   28.8150 C   0  0  0  0  0  0  0  0  0  0  0  0
   52.2970  156.8480   27.5930 O   0  0  0  0  0  0  0  0  0  0  0  0
   52.9170  155.9120   26.8050 C   0  0  0  0  0  0  0  0  0  0  0  0
   53.4450  156.3560   25.5920 C   0  0  0  0  0  0  0  0  0  0  0  0
   54.0880  155.4550   24.7410 C   0  0  0  0  0  0  0  0  0  0  0  0
   54.2030  154.1120   25.1020 C   0  0  0  0  0  0  0  0  0  0  0  0
   53.6740  153.6700   26.3130 C   0  0  0  0  0  0  0  0  0  0  0  0
   53.8210  152.3420   26.6050 O   0  0  0  0  0  0  0  0  0  0  0  0
   53.0310  154.5730   27.1650 C   0  0  0  0  0  0  0  0  0  0  0  0
   52.4600  154.1530   28.4450 C   0  0  0  0  0  0  0  0  0  0  0  0
   52.5150  152.9870   28.8300 O   0  0  0  0  0  0  0  0  0  0  0  0
   51.8030  155.1870   29.2750 C   0  0  0  0  0  0  0  0  0  0  0  0
   51.2530  154.7750   30.4760 O   0  0  0  0  0  0  0  0  0  0  0  0
   51.8450  158.7380   29.8070 C   0  0  0  0  0  0  0  0  0  0  0  0
   51.2760  159.8120   30.5220 C   0  0  0  0  0  0  0  0  0  0  0  0
   52.1000  161.0490   30.7690 C   0  0  0  0  0  0  0  0  0  0  0  0
   53.3210  161.0020   30.1530 F   0  0  0  0  0  0  0  0  0  0  0  0
   52.3780  161.2340   32.0920 F   0  0  0  0  0  0  0  0  0  0  0  0
   47.5216  161.6707   32.0022 H   0  0  0  0  0  0  0  0  0  0  0  0
   48.4506  162.2244   30.5679 H   0  0  0  0  0  0  0  0  0  0  0  0
   47.6814  160.6011   30.5679 H   0  0  0  0  0  0  0  0  0  0  0  0
   49.5846  161.2695   33.7997 H   0  0  0  0  0  0  0  0  0  0  0  0
   48.2416  160.1472   33.3952 H   0  0  0  0  0  0  0  0  0  0  0  0
   49.9376  159.5553   33.3952 H   0  0  0  0  0  0  0  0  0  0  0  0
   48.2212  158.4232   31.1436 H   0  0  0  0  0  0  0  0  0  0  0  0
   49.2389  156.5534   29.8670 H   0  0  0  0  0  0  0  0  0  0  0  0
   53.3547  157.4145   25.3066 H   0  0  0  0  0  0  0  0  0  0  0  0
   54.5045  155.8043   23.7847 H   0  0  0  0  0  0  0  0  0  0  0  0
   54.7106  153.4031   24.4314 H   0  0  0  0  0  0  0  0  0  0  0  0
   54.3950  152.0740   27.2950 H   0  0  0  0  0  0  0  0  0  0  0  0
   50.3860  154.4210   30.4950 H   0  0  0  0  0  0  0  0  0  0  0  0
   52.8792  158.8237   29.4423 H   0  0  0  0  0  0  0  0  0  0  0  0
   51.4789  161.8630   30.3669 H   0  0  0  0  0  0  0  0  0  0  0  0
  1  2  1  0
  2  3  1  0
  2  4  1  0
  4  5  2  0
  5  6  1  0
  6  7  2  0
  7  8  1  0
  8  9  1  0
  9 10  1  0
 10 11  2  0
 11 12  1  0
 12 13  2  0
 13 14  1  0
 14 15  1  0
 14 16  2  0
 16 17  1  0
 17 18  2  0
 17 19  1  0
 19 20  1  0
  7 21  1  0
 21 22  2  0
 22 23  1  0
 23 24  1  0
 23 25  1  0
 22  4  1  0
 19  8  2  0
 16 10  1  0
  1 26  1  0
  1 27  1  0
  1 28  1  0
  3 29  1  0
  3 30  1  0
  3 31  1  0
  5 32  1  0
  6 33  1  0
 11 34  1  0
 12 35  1  0
 13 36  1  0
 15 37  1  0
 20 38  1  0
 21 39  1  0
 23 40  1  0
M  END
>  <meeko>  (1) 
{"is_sidechain": [false], "free_energy": -10.347, "intermolecular_energy": -12.767, "internal_energy": -0.374}

$$$$
cand_034_out
     RDKit          3D

 40 42  0  0  0  0  0  0  0  0999 V2000
   54.3360  152.4840   26.3540 C   0  0  0  0  0  0  0  0  0  0  0  0
   52.9120  152.8320   26.3540 N   0  0  0  0  0  0  0  0  0  0  0  0
   52.0300  151.7010   26.6810 C   0  0  0  0  0  0  0  0  0  0  0  0
   52.5810  153.9660   27.1270 C   0  0  0  0  0  0  0  0  0  0  0  0
   52.0320  153.8600   28.4140 C   0  0  0  0  0  0  0  0  0  0  0  0
   51.6910  154.9990   29.1540 C   0  0  0  0  0  0  0  0  0  0  0  0
   51.8880  156.2790   28.6310 C   0  0  0  0  0  0  0  0  0  0  0  0
   51.5050  157.4970   29.3780 C   0  0  0  0  0  0  0  0  0  0  0  0
   50.1700  157.4970   29.7630 O   0  0  0  0  0  0  0  0  0  0  0  0
   49.6800  158.5710   30.4600 C   0  0  0  0  0  0  0  0  0  0  0  0
   48.3370  158.5240   30.8350 C   0  0  0  0  0  0  0  0  0  0  0  0
   47.7740  159.5860   31.5460 C   0  0  0  0  0  0  0  0  0  0  0  0
   48.5540  160.6940   31.8820 C   0  0  0  0  0  0  0  0  0  0  0  0
   49.8940  160.7400   31.5060 C   0  0  0  0  0  0  0  0  0  0  0  0
   50.6000  161.8550   31.8660 O   0  0  0  0  0  0  0  0  0  0  0  0
   50.4570  159.6760   30.7940 C   0  0  0  0  0  0  0  0  0  0  0  0
   51.8600  159.6830   30.3790 C   0  0  0  0  0  0  0  0  0  0  0  0
   52.6090  160.6250   30.6300 O   0  0  0  0  0  0  0  0  0  0  0  0
   52.3600  158.5050   29.6330 C   0  0  0  0  0  0  0  0  0  0  0  0
   53.6830  158.5300   29.2310 O   0  0  0  0  0  0  0  0  0  0  0  0
   52.4220  156.3900   27.3390 C   0  0  0  0  0  0  0  0  0  0  0  0
   52.7790  155.2520   26.5890 C   0  0  0  0  0  0  0  0  0  0  0  0
   53.3490  155.4330   25.2050 C   0  0  0  0  0  0  0  0  0  0  0  0
   54.7160  155.3790   25.1860 F   0  0  0  0  0  0  0  0  0  0  0  0
   53.0340  156.6470   24.6670 F   0  0  0  0  0  0  0  0  0  0  0  0
   54.6922  152.3969   27.3911 H   0  0  0  0  0  0  0  0  0  0  0  0
   54.4790  151.5245   25.8355 H   0  0  0  0  0  0  0  0  0  0  0  0
   54.9054  153.2694   25.8355 H   0  0  0  0  0  0  0  0  0  0  0  0
   51.9519  151.6009   27.7736 H   0  0  0  0  0  0  0  0  0  0  0  0
   51.0310  151.8805   26.2569 H   0  0  0  0  0  0  0  0  0  0  0  0
   52.4475  150.7759   26.2569 H   0  0  0  0  0  0  0  0  0  0  0  0
   51.8664  152.8637   28.8498 H   0  0  0  0  0  0  0  0  0  0  0  0
   51.2623  154.8840   30.1605 H   0  0  0  0  0  0  0  0  0  0  0  0
   47.7220  157.6511   30.5708 H   0  0  0  0  0  0  0  0  0  0  0  0
   46.7151  159.5494   31.8415 H   0  0  0  0  0  0  0  0  0  0  0  0
   48.1106  161.5298   32.4431 H   0  0  0  0  0  0  0  0  0  0  0  0
   51.4960  161.7770   32.1310 H   0  0  0  0  0  0  0  0  0  0  0  0
   53.9210  158.9570   28.4320 H   0  0  0  0  0  0  0  0  0  0  0  0
   52.5655  157.3888   26.9010 H   0  0  0  0  0  0  0  0  0  0  0  0
   52.9075  154.6070   24.6281 H   0  0  0  0  0  0  0  0  0  0  0  0
  1  2  1  0
  2  3  1  0
  2  4  1  0
  4  5  2  0
  5  6  1  0
  6  7  2  0
  7  8  1  0
  8  9  1  0
  9 10  1  0
 10 11  2  0
 11 12  1  0
 12 13  2  0
 13 14  1  0
 14 15  1  0
 14 16  2  0
 16 17  1  0
 17 18  2  0
 17 19  1  0
 19 20  1  0
  7 21  1  0
 21 22  2  0
 22 23  1  0
 23 24  1  0
 23 25  1  0
 22  4  1  0
 19  8  2  0
 16 10  1  0
  1 26  1  0
  1 27  1  0
  1 28  1  0
  3 29  1  0
  3 30  1  0
  3 31  1  0
  5 32  1  0
  6 33  1  0
 11 34  1  0
 12 35  1  0
 13 36  1  0
 15 37  1  0
 20 38  1  0
 21 39  1  0
 23 40  1  0
M  END
>  <meeko>  (2) 
{"is_sidechain": [false], "free_energy": -9.845, "intermolecular_energy": -12.332, "internal_energy": -0.19}

$$$$
cand_034_out
     RDKit          3D

 40 42  0  0  0  0  0  0  0  0999 V2000
   51.6430  161.0240   31.6420 C   0  0  0  0  0  0  0  0  0  0  0  0
   50.5660  160.2970   30.9620 N   0  0  0  0  0  0  0  0  0  0  0  0
   49.7560  161.1420   30.0710 C   0  0  0  0  0  0  0  0  0  0  0  0
   50.9740  159.1170   30.3020 C   0  0  0  0  0  0  0  0  0  0  0  0
   52.2380  158.9930   29.7050 C   0  0  0  0  0  0  0  0  0  0  0  0
   52.6130  157.8220   29.0360 C   0  0  0  0  0  0  0  0  0  0  0  0
   51.7370  156.7390   28.9420 C   0  0  0  0  0  0  0  0  0  0  0  0
   52.0960  155.5030   28.2130 C   0  0  0  0  0  0  0  0  0  0  0  0
   52.6490  155.7550   26.9620 O   0  0  0  0  0  0  0  0  0  0  0  0
   53.0230  154.6960   26.1760 C   0  0  0  0  0  0  0  0  0  0  0  0
   53.5810  154.9970   24.9330 C   0  0  0  0  0  0  0  0  0  0  0  0
   53.9840  153.9650   24.0830 C   0  0  0  0  0  0  0  0  0  0  0  0
   53.8260  152.6340   24.4740 C   0  0  0  0  0  0  0  0  0  0  0  0
   53.2680  152.3360   25.7150 C   0  0  0  0  0  0  0  0  0  0  0  0
   53.1420  151.0120   26.0350 O   0  0  0  0  0  0  0  0  0  0  0  0
   52.8660  153.3700   26.5660 C   0  0  0  0  0  0  0  0  0  0  0  0
   52.2740  153.1020   27.8770 C   0  0  0  0  0  0  0  0  0  0  0  0
   52.0970  151.9580   28.2900 O   0  0  0  0  0  0  0  0  0  0  0  0
   51.8860  154.2680   28.7050 C   0  0  0  0  0  0  0  0  0  0  0  0
   51.3130  154.0030   29.9350 O   0  0  0  0  0  0  0  0  0  0  0  0
   50.4680  156.8630   29.5240 C   0  0  0  0  0  0  0  0  0  0  0  0
   50.0810  158.0320   30.2090 C   0  0  0  0  0  0  0  0  0  0  0  0
   48.7040  158.1090   30.8140 C   0  0  0  0  0  0  0  0  0  0  0  0
   47.8340  158.8420   30.0540 F   0  0  0  0  0  0  0  0  0  0  0  0
   48.7030  158.7150   32.0360 F   0  0  0  0  0  0  0  0  0  0  0  0
   51.5137  160.9367   32.7309 H   0  0  0  0  0  0  0  0  0  0  0  0
   52.6140  160.5959   31.3526 H   0  0  0  0  0  0  0  0  0  0  0  0
   51.6090  162.0847   31.3526 H   0  0  0  0  0  0  0  0  0  0  0  0
   49.1194  161.8061   30.6741 H   0  0  0  0  0  0  0  0  0  0  0  0
   50.4198  161.7474   29.4363 H   0  0  0  0  0  0  0  0  0  0  0  0
   49.1231  160.5044   29.4363 H   0  0  0  0  0  0  0  0  0  0  0  0
   52.9473  159.8317   29.7639 H   0  0  0  0  0  0  0  0  0  0  0  0
   53.6110  157.7542   28.5783 H   0  0  0  0  0  0  0  0  0  0  0  0
   53.7032  156.0454   24.6232 H   0  0  0  0  0  0  0  0  0  0  0  0
   54.4266  154.2010   23.1040 H   0  0  0  0  0  0  0  0  0  0  0  0
   54.1418  151.8217   23.8028 H   0  0  0  0  0  0  0  0  0  0  0  0
   52.4520  150.7310   26.6030 H   0  0  0  0  0  0  0  0  0  0  0  0
   51.5180  154.5430   30.6720 H   0  0  0  0  0  0  0  0  0  0  0  0
   49.7569  156.0275   29.4441 H   0  0  0  0  0  0  0  0  0  0  0  0
   48.3896  157.0572   30.8834 H   0  0  0  0  0  0  0  0  0  0  0  0
  1  2  1  0
  2  3  1  0
  2  4  1  0
  4  5  2  0
  5  6  1  0
  6  7  2  0
  7  8  1  0
  8  9  1  0
  9 10  1  0
 10 11  2  0
 11 12  1  0
 12 13  2  0
 13 14  1  0
 14 15  1  0
 14 16  2  0
 16 17  1  0
 17 18  2  0
 17 19  1  0
 19 20  1  0
  7 21  1  0
 21 22  2  0
 22 23  1  0
 23 24  1  0
 23 25  1  0
 22  4  1  0
 19  8  2  0
 16 10  1  0
  1 26  1  0
  1 27  1  0
  1 28  1  0
  3 29  1  0
  3 30  1  0
  3 31  1  0
  5 32  1  0
  6 33  1  0
 11 34  1  0
 12 35  1  0
 13 36  1  0
 15 37  1  0
 20 38  1  0
 21 39  1  0
 23 40  1  0
M  END
>  <meeko>  (3) 
{"is_sidechain": [false], "free_energy": -9.729, "intermolecular_energy": -12.713, "internal_energy": 0.334}

$$$$
cand_034_out
     RDKit          3D

 40 42  0  0  0  0  0  0  0  0999 V2000
   54.7240  152.6580   26.4530 C   0  0  0  0  0  0  0  0  0  0  0  0
   53.3050  152.9530   26.2310 N   0  0  0  0  0  0  0  0  0  0  0  0
   52.4400  151.7660   26.2940 C   0  0  0  0  0  0  0  0  0  0  0  0
   52.7860  153.9950   27.0300 C   0  0  0  0  0  0  0  0  0  0  0  0
   52.2180  153.7590   28.2920 C   0  0  0  0  0  0  0  0  0  0  0  0
   51.6900  154.8050   29.0580 C   0  0  0  0  0  0  0  0  0  0  0  0
   51.7120  156.1190   28.5870 C   0  0  0  0  0  0  0  0  0  0  0  0
   51.1310  157.2370   29.3610 C   0  0  0  0  0  0  0  0  0  0  0  0
   52.0400  158.2620   29.5950 O   0  0  0  0  0  0  0  0  0  0  0  0
   51.6330  159.3610   30.3080 C   0  0  0  0  0  0  0  0  0  0  0  0
   52.5760  160.3690   30.5110 C   0  0  0  0  0  0  0  0  0  0  0  0
   52.2280  161.5150   31.2290 C   0  0  0  0  0  0  0  0  0  0  0  0
   50.9370  161.6520   31.7440 C   0  0  0  0  0  0  0  0  0  0  0  0
   49.9980  160.6440   31.5410 C   0  0  0  0  0  0  0  0  0  0  0  0
   48.7530  160.8420   32.0740 O   0  0  0  0  0  0  0  0  0  0  0  0
   50.3480  159.4980   30.8210 C   0  0  0  0  0  0  0  0  0  0  0  0
   49.3930  158.4140   30.5860 C   0  0  0  0  0  0  0  0  0  0  0  0
   48.2410  158.4580   31.0130 O   0  0  0  0  0  0  0  0  0  0  0  0
   49.8610  157.2450   29.8080 C   0  0  0  0  0  0  0  0  0  0  0  0
   48.9550  156.2200   29.6060 O   0  0  0  0  0  0  0  0  0  0  0  0
   52.2650  156.3590   27.3210 C   0  0  0  0  0  0  0  0  0  0  0  0
   52.8100  155.3160   26.5440 C   0  0  0  0  0  0  0  0  0  0  0  0
   53.3890  155.6340   25.1910 C   0  0  0  0  0  0  0  0  0  0  0  0
   54.7570  155.6730   25.1980 F   0  0  0  0  0  0  0  0  0  0  0  0
   53.0020  156.8590   24.7320 F   0  0  0  0  0  0  0  0  0  0  0  0
   54.9251  152.6162   27.5336 H   0  0  0  0  0  0  0  0  0  0  0  0
   54.9729  151.6889   25.9959 H   0  0  0  0  0  0  0  0  0  0  0  0
   55.3385  153.4476   25.9959 H   0  0  0  0  0  0  0  0  0  0  0  0
   52.2504  151.5059   27.3459 H   0  0  0  0  0  0  0  0  0  0  0  0
   51.4853  151.9809   25.7916 H   0  0  0  0  0  0  0  0  0  0  0  0
   52.9370  150.9230   25.7916 H   0  0  0  0  0  0  0  0  0  0  0  0
   52.1873  152.7326   28.6864 H   0  0  0  0  0  0  0  0  0  0  0  0
   51.2522  154.5888   30.0437 H   0  0  0  0  0  0  0  0  0  0  0  0
   53.5929  160.2611   30.1057 H   0  0  0  0  0  0  0  0  0  0  0  0
   52.9710  162.3102   31.3891 H   0  0  0  0  0  0  0  0  0  0  0  0
   50.6624  162.5549   32.3092 H   0  0  0  0  0  0  0  0  0  0  0  0
   48.4170  160.2460   32.7140 H   0  0  0  0  0  0  0  0  0  0  0  0
   48.9920  155.4500   30.1390 H   0  0  0  0  0  0  0  0  0  0  0  0
   52.2739  157.3850   26.9246 H   0  0  0  0  0  0  0  0  0  0  0  0
   53.0137  154.8239   24.5485 H   0  0  0  0  0  0  0  0  0  0  0  0
  1  2  1  0
  2  3  1  0
  2  4  1  0
  4  5  2  0
  5  6  1  0
  6  7  2  0
  7  8  1  0
  8  9  1  0
  9 10  1  0
 10 11  2  0
 11 12  1  0
 12 13  2  0
 13 14  1  0
 14 15  1  0
 14 16  2  0
 16 17  1  0
 17 18  2  0
 17 19  1  0
 19 20  1  0
  7 21  1  0
 21 22  2  0
 22 23  1  0
 23 24  1  0
 23 25  1  0
 22  4  1  0
 19  8  2  0
 16 10  1  0
  1 26  1  0
  1 27  1  0
  1 28  1  0
  3 29  1  0
  3 30  1  0
  3 31  1  0
  5 32  1  0
  6 33  1  0
 11 34  1  0
 12 35  1  0
 13 36  1  0
 15 37  1  0
 20 38  1  0
 21 39  1  0
 23 40  1  0
M  END
>  <meeko>  (4) 
{"is_sidechain": [false], "free_energy": -8.524, "intermolecular_energy": -10.515, "internal_energy": -0.377}

$$$$
cand_034_out
     RDKit          3D

 40 42  0  0  0  0  0  0  0  0999 V2000
   53.7160  153.5030   23.9480 C   0  0  0  0  0  0  0  0  0  0  0  0
   53.6320  153.1750   25.3750 N   0  0  0  0  0  0  0  0  0  0  0  0
   54.8590  152.5710   25.9140 C   0  0  0  0  0  0  0  0  0  0  0  0
   53.1880  154.2320   26.2000 C   0  0  0  0  0  0  0  0  0  0  0  0
   53.4300  155.5780   25.8850 C   0  0  0  0  0  0  0  0  0  0  0  0
   53.0000  156.6090   26.7290 C   0  0  0  0  0  0  0  0  0  0  0  0
   52.3150  156.3280   27.9130 C   0  0  0  0  0  0  0  0  0  0  0  0
   51.8790  157.3960   28.8380 C   0  0  0  0  0  0  0  0  0  0  0  0
   50.5350  157.3020   29.1770 O   0  0  0  0  0  0  0  0  0  0  0  0
   49.9970  158.2350   30.0260 C   0  0  0  0  0  0  0  0  0  0  0  0
   48.6460  158.0960   30.3460 C   0  0  0  0  0  0  0  0  0  0  0  0
   48.0360  159.0130   31.2050 C   0  0  0  0  0  0  0  0  0  0  0  0
   48.7760  160.0680   31.7420 C   0  0  0  0  0  0  0  0  0  0  0  0
   50.1240  160.2050   31.4200 C   0  0  0  0  0  0  0  0  0  0  0  0
   50.7890  161.2610   31.9810 O   0  0  0  0  0  0  0  0  0  0  0  0
   50.7340  159.2870   30.5610 C   0  0  0  0  0  0  0  0  0  0  0  0
   52.1470  159.3940   30.1960 C   0  0  0  0  0  0  0  0  0  0  0  0
   52.8630  160.2980   30.6220 O   0  0  0  0  0  0  0  0  0  0  0  0
   52.6990  158.3680   29.2820 C   0  0  0  0  0  0  0  0  0  0  0  0
   54.0310  158.4880   28.9310 O   0  0  0  0  0  0  0  0  0  0  0  0
   52.0840  154.9840   28.2390 C   0  0  0  0  0  0  0  0  0  0  0  0
   52.5020  153.9370   27.3930 C   0  0  0  0  0  0  0  0  0  0  0  0
   52.2270  152.5120   27.7960 C   0  0  0  0  0  0  0  0  0  0  0  0
   51.5160  151.8230   26.8500 F   0  0  0  0  0  0  0  0  0  0  0  0
   51.4770  152.4270   28.9330 F   0  0  0  0  0  0  0  0  0  0  0  0
   53.9873  154.5625   23.8307 H   0  0  0  0  0  0  0  0  0  0  0  0
   54.4819  152.8734   23.4715 H   0  0  0  0  0  0  0  0  0  0  0  0
   52.7418  153.3191   23.4715 H   0  0  0  0  0  0  0  0  0  0  0  0
   54.8239  152.5883   27.0133 H   0  0  0  0  0  0  0  0  0  0  0  0
   54.9390  151.5306   25.5660 H   0  0  0  0  0  0  0  0  0  0  0  0
   55.7323  153.1422   25.5660 H   0  0  0  0  0  0  0  0  0  0  0  0
   53.9673  155.8275   24.9581 H   0  0  0  0  0  0  0  0  0  0  0  0
   53.2045  157.6547   26.4557 H   0  0  0  0  0  0  0  0  0  0  0  0
   48.0622  157.2655   29.9224 H   0  0  0  0  0  0  0  0  0  0  0  0
   46.9712  158.9038   31.4587 H   0  0  0  0  0  0  0  0  0  0  0  0
   48.2951  160.7899   32.4184 H   0  0  0  0  0  0  0  0  0  0  0  0
   50.5820  162.1370   31.7200 H   0  0  0  0  0  0  0  0  0  0  0  0
   54.3980  159.3360   28.7760 H   0  0  0  0  0  0  0  0  0  0  0  0
   51.5641  154.7409   29.1774 H   0  0  0  0  0  0  0  0  0  0  0  0
   53.2293  152.0815   27.9377 H   0  0  0  0  0  0  0  0  0  0  0  0
  1  2  1  0
  2  3  1  0
  2  4  1  0
  4  5  2  0
  5  6  1  0
  6  7  2  0
  7  8  1  0
  8  9  1  0
  9 10  1  0
 10 11  2  0
 11 12  1  0
 12 13  2  0
 13 14  1  0
 14 15  1  0
 14 16  2  0
 16 17  1  0
 17 18  2  0
 17 19  1  0
 19 20  1  0
  7 21  1  0
 21 22  2  0
 22 23  1  0
 23 24  1  0
 23 25  1  0
 22  4  1  0
 19  8  2  0
 16 10  1  0
  1 26  1  0
  1 27  1  0
  1 28  1  0
  3 29  1  0
  3 30  1  0
  3 31  1  0
  5 32  1  0
  6 33  1  0
 11 34  1  0
 12 35  1  0
 13 36  1  0
 15 37  1  0
 20 38  1  0
 21 39  1  0
 23 40  1  0
M  END
>  <meeko>  (5) 
{"is_sidechain": [false], "free_energy": -8.122, "intermolecular_energy": -10.388, "internal_energy": -0.008}

$$$$
cand_034_out
     RDKit          3D

 40 42  0  0  0  0  0  0  0  0999 V2000
   53.8340  153.8870   24.1370 C   0  0  0  0  0  0  0  0  0  0  0  0
   53.7910  153.5200   25.5560 N   0  0  0  0  0  0  0  0  0  0  0  0
   55.0920  153.0980   26.0960 C   0  0  0  0  0  0  0  0  0  0  0  0
   53.1870  154.4800   26.3970 C   0  0  0  0  0  0  0  0  0  0  0  0
   53.3670  155.8590   26.2080 C   0  0  0  0  0  0  0  0  0  0  0  0
   52.7770  156.7940   27.0670 C   0  0  0  0  0  0  0  0  0  0  0  0
   51.9870  156.3800   28.1410 C   0  0  0  0  0  0  0  0  0  0  0  0
   51.3800  157.3450   29.0830 C   0  0  0  0  0  0  0  0  0  0  0  0
   52.2030  158.4330   29.3470 O   0  0  0  0  0  0  0  0  0  0  0  0
   51.7630  159.4040   30.2100 C   0  0  0  0  0  0  0  0  0  0  0  0
   52.6190  160.4830   30.4380 C   0  0  0  0  0  0  0  0  0  0  0  0
   52.2330  161.5060   31.3060 C   0  0  0  0  0  0  0  0  0  0  0  0
   50.9930  161.4500   31.9470 C   0  0  0  0  0  0  0  0  0  0  0  0
   50.1420  160.3720   31.7190 C   0  0  0  0  0  0  0  0  0  0  0  0
   48.9430  160.3800   32.3790 O   0  0  0  0  0  0  0  0  0  0  0  0
   50.5290  159.3480   30.8480 C   0  0  0  0  0  0  0  0  0  0  0  0
   49.6660  158.1970   30.5810 C   0  0  0  0  0  0  0  0  0  0  0  0
   48.5640  158.0730   31.1110 O   0  0  0  0  0  0  0  0  0  0  0  0
   50.1670  157.1690   29.6400 C   0  0  0  0  0  0  0  0  0  0  0  0
   49.3490  156.0780   29.4070 O   0  0  0  0  0  0  0  0  0  0  0  0
   51.8160  155.0030   28.3440 C   0  0  0  0  0  0  0  0  0  0  0  0
   52.3960  154.0530   27.4800 C   0  0  0  0  0  0  0  0  0  0  0  0
   52.1770  152.5860   27.7480 C   0  0  0  0  0  0  0  0  0  0  0  0
   51.4910  151.9620   26.7420 F   0  0  0  0  0  0  0  0  0  0  0  0
   51.4350  152.3660   28.8720 F   0  0  0  0  0  0  0  0  0  0  0  0
   53.9615  154.9756   24.0435 H   0  0  0  0  0  0  0  0  0  0  0  0
   54.6784  153.3758   23.6515 H   0  0  0  0  0  0  0  0  0  0  0  0
   52.8943  153.5849   23.6515 H   0  0  0  0  0  0  0  0  0  0  0  0
   55.0541  153.1103   27.1953 H   0  0  0  0  0  0  0  0  0  0  0  0
   55.3204  152.0797   25.7483 H   0  0  0  0  0  0  0  0  0  0  0  0
   55.8747  153.7884   25.7483 H   0  0  0  0  0  0  0  0  0  0  0  0
   53.9838  156.2122   25.3684 H   0  0  0  0  0  0  0  0  0  0  0  0
   52.9379  157.8682   26.8935 H   0  0  0  0  0  0  0  0  0  0  0  0
   53.5960  160.5271   29.9345 H   0  0  0  0  0  0  0  0  0  0  0  0
   52.9061  162.3573   31.4854 H   0  0  0  0  0  0  0  0  0  0  0  0
   50.6895  162.2564   32.6308 H   0  0  0  0  0  0  0  0  0  0  0  0
   48.1660  160.6560   31.9350 H   0  0  0  0  0  0  0  0  0  0  0  0
   49.0160  155.5820   30.1280 H   0  0  0  0  0  0  0  0  0  0  0  0
   51.2151  154.6564   29.1977 H   0  0  0  0  0  0  0  0  0  0  0  0
   53.1955  152.1830   27.8492 H   0  0  0  0  0  0  0  0  0  0  0  0
  1  2  1  0
  2  3  1  0
  2  4  1  0
  4  5  2  0
  5  6  1  0
  6  7  2  0
  7  8  1  0
  8  9  1  0
  9 10  1  0
 10 11  2  0
 11 12  1  0
 12 13  2  0
 13 14  1  0
 14 15  1  0
 14 16  2  0
 16 17  1  0
 17 18  2  0
 17 19  1  0
 19 20  1  0
  7 21  1  0
 21 22  2  0
 22 23  1  0
 23 24  1  0
 23 25  1  0
 22  4  1  0
 19  8  2  0
 16 10  1  0
  1 26  1  0
  1 27  1  0
  1 28  1  0
  3 29  1  0
  3 30  1  0
  3 31  1  0
  5 32  1  0
  6 33  1  0
 11 34  1  0
 12 35  1  0
 13 36  1  0
 15 37  1  0
 20 38  1  0
 21 39  1  0
 23 40  1  0
M  END
>  <meeko>  (6) 
{"is_sidechain": [false], "free_energy": -7.361, "intermolecular_energy": -9.467, "internal_energy": 0.011}

$$$$
