cand_029_out
     RDKit          3D

 50 53  0  0  0  0  0  0  0  0999 V2000
   54.4260  156.0680   24.8320 C   0  0  0  0  0  0  0  0  0  0  0  0
   53.2410  155.1130   24.8710 C   0  0  0  0  0  0  0  0  0  0  0  0
   52.7210  154.9110   26.2770 C   0  0  0  0  0  0  0  0  0  0  0  0
   52.4090  156.0440   27.0530 C   0  0  0  0  0  0  0  0  0  0  0  0
   51.9450  155.9270   28.3720 C   0  0  0  0  0  0  0  0  0  0  0  0
   51.6000  157.1410   29.1410 C   0  0  0  0  0  0  0  0  0  0  0  0
   50.2860  157.1390   29.5940 O   0  0  0  0  0  0  0  0  0  0  0  0
   49.8310  158.2090   30.3220 C   0  0  0  0  0  0  0  0  0  0  0  0
   48.5100  158.1580   30.7670 C   0  0  0  0  0  0  0  0  0  0  0  0
   47.9850  159.2160   31.5120 C   0  0  0  0  0  0  0  0  0  0  0  0
   48.7790  160.3250   31.8100 C   0  0  0  0  0  0  0  0  0  0  0  0
   50.0980  160.3730   31.3650 C   0  0  0  0  0  0  0  0  0  0  0  0
   50.8200  161.4880   31.6920 O   0  0  0  0  0  0  0  0  0  0  0  0
   50.6230  159.3130   30.6200 C   0  0  0  0  0  0  0  0  0  0  0  0
   52.0040  159.3240   30.1320 C   0  0  0  0  0  0  0  0  0  0  0  0
   52.7630  160.2660   30.3490 O   0  0  0  0  0  0  0  0  0  0  0  0
   52.4660  158.1490   29.3570 C   0  0  0  0  0  0  0  0  0  0  0  0
   53.7670  158.1770   28.8900 O   0  0  0  0  0  0  0  0  0  0  0  0
   51.7810  154.6450   28.9030 C   0  0  0  0  0  0  0  0  0  0  0  0
   52.0960  153.5120   28.1470 C   0  0  0  0  0  0  0  0  0  0  0  0
   52.5760  153.6250   26.8330 C   0  0  0  0  0  0  0  0  0  0  0  0
   52.8980  152.4910   26.0550 N   0  0  0  0  0  0  0  0  0  0  0  0
   54.3170  152.4280   25.6730 C   0  0  0  0  0  0  0  0  0  0  0  0
   54.5020  151.3140   24.6400 C   0  0  0  0  0  0  0  0  0  0  0  0
   53.9860  149.9790   25.1710 C   0  0  0  0  0  0  0  0  0  0  0  0
   52.5430  150.1060   25.6570 C   0  0  0  0  0  0  0  0  0  0  0  0
   52.3930  151.2490   26.6620 C   0  0  0  0  0  0  0  0  0  0  0  0
   54.7321  156.3147   25.8594 H   0  0  0  0  0  0  0  0  0  0  0  0
   55.2646  155.5903   24.3042 H   0  0  0  0  0  0  0  0  0  0  0  0
   54.1375  156.9890   24.3042 H   0  0  0  0  0  0  0  0  0  0  0  0
   52.4325  155.5250   24.2493 H   0  0  0  0  0  0  0  0  0  0  0  0
   53.5785  154.1376   24.4905 H   0  0  0  0  0  0  0  0  0  0  0  0
   52.5321  157.0452   26.6143 H   0  0  0  0  0  0  0  0  0  0  0  0
   47.8827  157.2856   30.5314 H   0  0  0  0  0  0  0  0  0  0  0  0
   46.9439  159.1756   31.8647 H   0  0  0  0  0  0  0  0  0  0  0  0
   48.3639  161.1590   32.3949 H   0  0  0  0  0  0  0  0  0  0  0  0
   50.4500  162.3390   31.5650 H   0  0  0  0  0  0  0  0  0  0  0  0
   54.2800  157.3930   28.8880 H   0  0  0  0  0  0  0  0  0  0  0  0
   51.3996  154.5258   29.9279 H   0  0  0  0  0  0  0  0  0  0  0  0
   51.9653  152.5137   28.5901 H   0  0  0  0  0  0  0  0  0  0  0  0
   54.6256  153.3901   25.2381 H   0  0  0  0  0  0  0  0  0  0  0  0
   54.9335  152.2205   26.5601 H   0  0  0  0  0  0  0  0  0  0  0  0
   53.9475  151.5756   23.7267 H   0  0  0  0  0  0  0  0  0  0  0  0
   55.5760  151.2123   24.4253 H   0  0  0  0  0  0  0  0  0  0  0  0
   54.0304  149.2301   24.3665 H   0  0  0  0  0  0  0  0  0  0  0  0
   54.6162  149.6708   26.0183 H   0  0  0  0  0  0  0  0  0  0  0  0
   51.8900  150.3003   24.7934 H   0  0  0  0  0  0  0  0  0  0  0  0
   52.2608  149.1668   26.1552 H   0  0  0  0  0  0  0  0  0  0  0  0
   51.3320  151.3720   26.9248 H   0  0  0  0  0  0  0  0  0  0  0  0
   52.9666  151.0207   27.5724 H   0  0  0  0  0  0  0  0  0  0  0  0
  1  2  1  0
  2  3  1  0
  3  4  2  0
  4  5  1  0
  5  6  1  0
  6  7  1  0
  7  8  1  0
  8  9  2  0
  9 10  1  0
 10 11  2  0
 11 12  1  0
 12 13  1  0
 12 14  2  0
 14 15  1  0
 15 16  2  0
 15 17  1  0
 17 18  1  0
  5 19  2  0
 19 20  1  0
 20 21  2  0
 21 22  1  0
 22 23  1  0
 23 24  1  0
 24 25  1  0
 25 26  1  0
 26 27  1  0
 21  3  1  0
 27 22  1  0
 17  6  2  0
 14  8  1  0
  1 28  1  0
  1 29  1  0
  1 30  1  0
  2 31  1  0
  2 32  1  0
  4 33  1  0
  9 34  1  0
 10 35  1  0
 11 36  1  0
 13 37  1  0
 18 38  1  0
 19 39  1  0
 20 40  1  0
 23 41  1  0
 23 42  1  0
 24 43  1  0
 24 44  1  0
 25 45  1  0
 25 46  1  0
 26 47  1  0
 26 48  1  0
 27 49  1  0
 27 50  1  0
M  END
>  <meeko>  (1) 
{"is_sidechain": [false], "free_energy": -11.036, "intermolecular_energy": -13.617, "internal_energy": -0.165}

$$$$
cand_029_out
     RDKit          3D

 50 53  0  0  0  0  0  0  0  0999 V2000
   52.7850  161.1690   31.6330 C   0  0  0  0  0  0  0  0  0  0  0  0
   52.2940  160.8620   30.2250 C   0  0  0  0  0  0  0  0  0  0  0  0
   51.5390  159.5530   30.1610 C   0  0  0  0  0  0  0  0  0  0  0  0
   52.0810  158.4950   29.4050 C   0  0  0  0  0  0  0  0  0  0  0  0
   51.4200  157.2640   29.2840 C   0  0  0  0  0  0  0  0  0  0  0  0
   52.0380  156.1700   28.5060 C   0  0  0  0  0  0  0  0  0  0  0  0
   52.5930  156.6060   27.3080 O   0  0  0  0  0  0  0  0  0  0  0  0
   53.1990  155.6920   26.4840 C   0  0  0  0  0  0  0  0  0  0  0  0
   53.7530  156.1760   25.2990 C   0  0  0  0  0  0  0  0  0  0  0  0
   54.3830  155.2980   24.4150 C   0  0  0  0  0  0  0  0  0  0  0  0
   54.4590  153.9370   24.7150 C   0  0  0  0  0  0  0  0  0  0  0  0
   53.9050  153.4560   25.9000 C   0  0  0  0  0  0  0  0  0  0  0  0
   54.0150  152.1120   26.1320 O   0  0  0  0  0  0  0  0  0  0  0  0
   53.2760  154.3360   26.7840 C   0  0  0  0  0  0  0  0  0  0  0  0
   52.6800  153.8720   28.0390 C   0  0  0  0  0  0  0  0  0  0  0  0
   52.7010  152.6890   28.3710 O   0  0  0  0  0  0  0  0  0  0  0  0
   52.0420  154.8860   28.9100 C   0  0  0  0  0  0  0  0  0  0  0  0
   51.4710  154.4340   30.0850 O   0  0  0  0  0  0  0  0  0  0  0  0
   50.2030  157.0990   29.9510 C   0  0  0  0  0  0  0  0  0  0  0  0
   49.6500  158.1440   30.6980 C   0  0  0  0  0  0  0  0  0  0  0  0
   50.2990  159.3830   30.8080 C   0  0  0  0  0  0  0  0  0  0  0  0
   49.7560  160.4470   31.5590 N   0  0  0  0  0  0  0  0  0  0  0  0
   48.5810  161.0680   30.9270 C   0  0  0  0  0  0  0  0  0  0  0  0
   48.2290  162.3500   31.6860 C   0  0  0  0  0  0  0  0  0  0  0  0
   48.0070  162.0670   33.1710 C   0  0  0  0  0  0  0  0  0  0  0  0
   49.2020  161.3270   33.7700 C   0  0  0  0  0  0  0  0  0  0  0  0
   49.5410  160.0720   32.9650 C   0  0  0  0  0  0  0  0  0  0  0  0
   52.0900  160.7344   32.3666 H   0  0  0  0  0  0  0  0  0  0  0  0
   53.7860  160.7357   31.7749 H   0  0  0  0  0  0  0  0  0  0  0  0
   52.8337  162.2587   31.7749 H   0  0  0  0  0  0  0  0  0  0  0  0
   51.6272  161.6730   29.8967 H   0  0  0  0  0  0  0  0  0  0  0  0
   53.1732  160.7795   29.5690 H   0  0  0  0  0  0  0  0  0  0  0  0
   53.0463  158.6379   28.8972 H   0  0  0  0  0  0  0  0  0  0  0  0
   53.6936  157.2483   25.0612 H   0  0  0  0  0  0  0  0  0  0  0  0
   54.8202  155.6795   23.4805 H   0  0  0  0  0  0  0  0  0  0  0  0
   54.9550  153.2456   24.0178 H   0  0  0  0  0  0  0  0  0  0  0  0
   54.8190  151.7560   26.4550 H   0  0  0  0  0  0  0  0  0  0  0  0
   52.0150  154.2240   30.8190 H   0  0  0  0  0  0  0  0  0  0  0  0
   49.6742  156.1365   29.8877 H   0  0  0  0  0  0  0  0  0  0  0  0
   48.6879  157.9916   31.2090 H   0  0  0  0  0  0  0  0  0  0  0  0
   48.8105  161.3106   29.8789 H   0  0  0  0  0  0  0  0  0  0  0  0
   47.7301  160.3716   30.9571 H   0  0  0  0  0  0  0  0  0  0  0  0
   49.0535  163.0699   31.5769 H   0  0  0  0  0  0  0  0  0  0  0  0
   47.2990  162.7605   31.2658 H   0  0  0  0  0  0  0  0  0  0  0  0
   47.8704  163.0202   33.7027 H   0  0  0  0  0  0  0  0  0  0  0  0
   47.1129  161.4353   33.2784 H   0  0  0  0  0  0  0  0  0  0  0  0
   50.0740  161.9975   33.7718 H   0  0  0  0  0  0  0  0  0  0  0  0
   48.9424  161.0218   34.7944 H   0  0  0  0  0  0  0  0  0  0  0  0
   50.4553  159.6117   33.3676 H   0  0  0  0  0  0  0  0  0  0  0  0
   48.7127  159.3516   33.0344 H   0  0  0  0  0  0  0  0  0  0  0  0
  1  2  1  0
  2  3  1  0
  3  4  2  0
  4  5  1  0
  5  6  1  0
  6  7  1  0
  7  8  1  0
  8  9  2  0
  9 10  1  0
 10 11  2  0
 11 12  1  0
 12 13  1  0
 12 14  2  0
 14 15  1  0
 15 16  2  0
 15 17  1  0
 17 18  1  0
  5 19  2  0
 19 20  1  0
 20 21  2  0
 21 22  1  0
 22 23  1  0
 23 24  1  0
 24 25  1  0
 25 26  1  0
 26 27  1  0
 21  3  1  0
 27 22  1  0
 17  6  2  0
 14  8  1  0
  1 28  1  0
  1 29  1  0
  1 30  1  0
  2 31  1  0
  2 32  1  0
  4 33  1  0
  9 34  1  0
 10 35  1  0
 11 36  1  0
 13 37  1  0
 18 38  1  0
 19 39  1  0
 20 40  1  0
 23 41  1  0
 23 42  1  0
 24 43  1  0
 24 44  1  0
 25 45  1  0
 25 46  1  0
 26 47  1  0
 26 48  1  0
 27 49  1  0
 27 50  1  0
M  END
>  <meeko>  (2) 
{"is_sidechain": [false], "free_energy": -10.82, "intermolecular_energy": -13.22, "internal_energy": -0.295}

$$$$
cand_029_out
     RDKit          3D

 50 53  0  0  0  0  0  0  0  0999 V2000
   53.9650  156.6840   25.2320 C   0  0  0  0  0  0  0  0  0  0  0  0
   53.3510  155.3000   25.3740 C   0  0  0  0  0  0  0  0  0  0  0  0
   52.8010  155.0630   26.7630 C   0  0  0  0  0  0  0  0  0  0  0  0
   52.2280  156.1460   27.4590 C   0  0  0  0  0  0  0  0  0  0  0  0
   51.7210  156.0000   28.7580 C   0  0  0  0  0  0  0  0  0  0  0  0
   51.1020  157.1550   29.4410 C   0  0  0  0  0  0  0  0  0  0  0  0
   52.0060  158.1780   29.7010 O   0  0  0  0  0  0  0  0  0  0  0  0
   51.5650  159.3120   30.3340 C   0  0  0  0  0  0  0  0  0  0  0  0
   52.5040  160.3170   30.5630 C   0  0  0  0  0  0  0  0  0  0  0  0
   52.1200  161.4960   31.2040 C   0  0  0  0  0  0  0  0  0  0  0  0
   50.7980  161.6700   31.6170 C   0  0  0  0  0  0  0  0  0  0  0  0
   49.8610  160.6650   31.3860 C   0  0  0  0  0  0  0  0  0  0  0  0
   48.5840  160.9010   31.8160 O   0  0  0  0  0  0  0  0  0  0  0  0
   50.2460  159.4860   30.7440 C   0  0  0  0  0  0  0  0  0  0  0  0
   49.2950  158.4040   30.4830 C   0  0  0  0  0  0  0  0  0  0  0  0
   48.1150  158.4800   30.8200 O   0  0  0  0  0  0  0  0  0  0  0  0
   49.8020  157.1970   29.7900 C   0  0  0  0  0  0  0  0  0  0  0  0
   48.8970  156.1770   29.5600 O   0  0  0  0  0  0  0  0  0  0  0  0
   51.7820  154.7360   29.3530 C   0  0  0  0  0  0  0  0  0  0  0  0
   52.3550  153.6550   28.6770 C   0  0  0  0  0  0  0  0  0  0  0  0
   52.8790  153.8000   27.3830 C   0  0  0  0  0  0  0  0  0  0  0  0
   53.4600  152.7190   26.6860 N   0  0  0  0  0  0  0  0  0  0  0  0
   52.4700  151.8000   26.1020 C   0  0  0  0  0  0  0  0  0  0  0  0
   53.1930  150.5510   25.5940 C   0  0  0  0  0  0  0  0  0  0  0  0
   54.2970  150.9180   24.6040 C   0  0  0  0  0  0  0  0  0  0  0  0
   55.2470  151.9540   25.2050 C   0  0  0  0  0  0  0  0  0  0  0  0
   54.4830  153.1700   25.7310 C   0  0  0  0  0  0  0  0  0  0  0  0
   54.1523  157.1062   26.2303 H   0  0  0  0  0  0  0  0  0  0  0  0
   54.9144  156.6092   24.6815 H   0  0  0  0  0  0  0  0  0  0  0  0
   53.2724  157.3377   24.6815 H   0  0  0  0  0  0  0  0  0  0  0  0
   52.5326  155.1983   24.6460 H   0  0  0  0  0  0  0  0  0  0  0  0
   54.1416  154.5575   25.1908 H   0  0  0  0  0  0  0  0  0  0  0  0
   52.1772  157.1305   26.9710 H   0  0  0  0  0  0  0  0  0  0  0  0
   53.5463  160.1809   30.2389 H   0  0  0  0  0  0  0  0  0  0  0  0
   52.8604  162.2893   31.3840 H   0  0  0  0  0  0  0  0  0  0  0  0
   50.4966  162.5986   32.1238 H   0  0  0  0  0  0  0  0  0  0  0  0
   48.2780  161.7810   31.9150 H   0  0  0  0  0  0  0  0  0  0  0  0
   48.2280  156.2820   28.9130 H   0  0  0  0  0  0  0  0  0  0  0  0
   51.3745  154.5908   30.3644 H   0  0  0  0  0  0  0  0  0  0  0  0
   52.3960  152.6718   29.1686 H   0  0  0  0  0  0  0  0  0  0  0  0
   51.7339  151.5147   26.8680 H   0  0  0  0  0  0  0  0  0  0  0  0
   51.9488  152.2939   25.2687 H   0  0  0  0  0  0  0  0  0  0  0  0
   53.6388  150.0214   26.4489 H   0  0  0  0  0  0  0  0  0  0  0  0
   52.4622  149.9096   25.0798 H   0  0  0  0  0  0  0  0  0  0  0  0
   54.8668  150.0125   24.3482 H   0  0  0  0  0  0  0  0  0  0  0  0
   53.8330  151.3474   23.7038 H   0  0  0  0  0  0  0  0  0  0  0  0
   55.8014  151.4925   26.0355 H   0  0  0  0  0  0  0  0  0  0  0  0
   55.9361  152.2914   24.4168 H   0  0  0  0  0  0  0  0  0  0  0  0
   55.1815  153.8541   26.2351 H   0  0  0  0  0  0  0  0  0  0  0  0
   54.0019  153.6962   24.8934 H   0  0  0  0  0  0  0  0  0  0  0  0
  1  2  1  0
  2  3  1  0
  3  4  2  0
  4  5  1  0
  5  6  1  0
  6  7  1  0
  7  8  1  0
  8  9  2  0
  9 10  1  0
 10 11  2  0
 11 12  1  0
 12 13  1  0
 12 14  2  0
 14 15  1  0
 15 16  2  0
 15 17  1  0
 17 18  1  0
  5 19  2  0
 19 20  1  0
 20 21  2  0
 21 22  1  0
 22 23  1  0
 23 24  1  0
 24 25  1  0
 25 26  1  0
 26 27  1  0
 21  3  1  0
 27 22  1  0
 17  6  2  0
 14  8  1  0
  1 28  1  0
  1 29  1  0
  1 30  1  0
  2 31  1  0
  2 32  1  0
  4 33  1  0
  9 34  1  0
 10 35  1  0
 11 36  1  0
 13 37  1  0
 18 38  1  0
 19 39  1  0
 20 40  1  0
 23 41  1  0
 23 42  1  0
 24 43  1  0
 24 44  1  0
 25 45  1  0
 25 46  1  0
 26 47  1  0
 26 48  1  0
 27 49  1  0
 27 50  1  0
M  END
>  <meeko>  (3) 
{"is_sidechain": [false], "free_energy": -9.699, "intermolecular_energy": -12.903, "internal_energy": 0.772}

$$$$
cand_029_out
     RDKit          3D

 50 53  0  0  0  0  0  0  0  0999 V2000
   51.4780  152.8260   28.8360 C   0  0  0  0  0  0  0  0  0  0  0  0
   52.8120  153.5550   28.8800 C   0  0  0  0  0  0  0  0  0  0  0  0
   52.7090  154.9610   28.3310 C   0  0  0  0  0  0  0  0  0  0  0  0
   52.1840  155.9740   29.1570 C   0  0  0  0  0  0  0  0  0  0  0  0
   52.0400  157.2930   28.7010 C   0  0  0  0  0  0  0  0  0  0  0  0
   51.5110  158.3320   29.6110 C   0  0  0  0  0  0  0  0  0  0  0  0
   50.1640  158.1570   29.9070 O   0  0  0  0  0  0  0  0  0  0  0  0
   49.5440  159.0520   30.7400 C   0  0  0  0  0  0  0  0  0  0  0  0
   48.1960  158.8300   31.0190 C   0  0  0  0  0  0  0  0  0  0  0  0
   47.5050  159.7060   31.8590 C   0  0  0  0  0  0  0  0  0  0  0  0
   48.1620  160.8040   32.4180 C   0  0  0  0  0  0  0  0  0  0  0  0
   49.5090  161.0230   32.1380 C   0  0  0  0  0  0  0  0  0  0  0  0
   50.0900  162.1170   32.7190 O   0  0  0  0  0  0  0  0  0  0  0  0
   50.1990  160.1460   31.2980 C   0  0  0  0  0  0  0  0  0  0  0  0
   51.6150  160.3400   30.9770 C   0  0  0  0  0  0  0  0  0  0  0  0
   52.2600  161.2850   31.4250 O   0  0  0  0  0  0  0  0  0  0  0  0
   52.2560  159.3500   30.0820 C   0  0  0  0  0  0  0  0  0  0  0  0
   53.5890  159.5510   29.7750 O   0  0  0  0  0  0  0  0  0  0  0  0
   52.4480  157.5910   27.3980 C   0  0  0  0  0  0  0  0  0  0  0  0
   52.9630  156.5930   26.5650 C   0  0  0  0  0  0  0  0  0  0  0  0
   53.0940  155.2690   27.0100 C   0  0  0  0  0  0  0  0  0  0  0  0
   53.6130  154.2500   26.1830 N   0  0  0  0  0  0  0  0  0  0  0  0
   52.6220  153.2210   25.8300 C   0  0  0  0  0  0  0  0  0  0  0  0
   53.3410  152.0530   25.1510 C   0  0  0  0  0  0  0  0  0  0  0  0
   54.1400  152.5280   23.9390 C   0  0  0  0  0  0  0  0  0  0  0  0
   55.0830  153.6680   24.3200 C   0  0  0  0  0  0  0  0  0  0  0  0
   54.3340  154.8000   25.0240 C   0  0  0  0  0  0  0  0  0  0  0  0
   51.1301  152.6359   29.8620 H   0  0  0  0  0  0  0  0  0  0  0  0
   50.7388  153.4456   28.3071 H   0  0  0  0  0  0  0  0  0  0  0  0
   51.6002  151.8693   28.3071 H   0  0  0  0  0  0  0  0  0  0  0  0
   53.1544  153.6058   29.9241 H   0  0  0  0  0  0  0  0  0  0  0  0
   53.5242  152.9975   28.2538 H   0  0  0  0  0  0  0  0  0  0  0  0
   51.8796  155.7250   30.1843 H   0  0  0  0  0  0  0  0  0  0  0  0
   47.6774  157.9659   30.5780 H   0  0  0  0  0  0  0  0  0  0  0  0
   46.4419  159.5308   32.0805 H   0  0  0  0  0  0  0  0  0  0  0  0
   47.6170  161.4948   33.0782 H   0  0  0  0  0  0  0  0  0  0  0  0
   50.7340  162.0050   33.3900 H   0  0  0  0  0  0  0  0  0  0  0  0
   54.2250  159.6000   30.4610 H   0  0  0  0  0  0  0  0  0  0  0  0
   52.3631  158.6219   27.0237 H   0  0  0  0  0  0  0  0  0  0  0  0
   53.2714  156.8510   25.5411 H   0  0  0  0  0  0  0  0  0  0  0  0
   52.1184  152.8653   26.7410 H   0  0  0  0  0  0  0  0  0  0  0  0
   51.8716  153.6450   25.1465 H   0  0  0  0  0  0  0  0  0  0  0  0
   54.0270  151.5853   25.8725 H   0  0  0  0  0  0  0  0  0  0  0  0
   52.5861  151.3293   24.8097 H   0  0  0  0  0  0  0  0  0  0  0  0
   54.7312  151.6879   23.5457 H   0  0  0  0  0  0  0  0  0  0  0  0
   53.4370  152.8937   23.1761 H   0  0  0  0  0  0  0  0  0  0  0  0
   55.8602  153.2793   24.9945 H   0  0  0  0  0  0  0  0  0  0  0  0
   55.5307  154.0694   23.3989 H   0  0  0  0  0  0  0  0  0  0  0  0
   55.0514  155.5616   25.3636 H   0  0  0  0  0  0  0  0  0  0  0  0
   53.6193  155.2622   24.3271 H   0  0  0  0  0  0  0  0  0  0  0  0
  1  2  1  0
  2  3  1  0
  3  4  2  0
  4  5  1  0
  5  6  1  0
  6  7  1  0
  7  8  1  0
  8  9  2  0
  9 10  1  0
 10 11  2  0
 11 12  1  0
 12 13  1  0
 12 14  2  0
 14 15  1  0
 15 16  2  0
 15 17  1  0
 17 18  1  0
  5 19  2  0
 19 20  1  0
 20 21  2  0
 21 22  1  0
 22 23  1  0
 23 24  1  0
 24 25  1  0
 25 26  1  0
 26 27  1  0
 21  3  1  0
 27 22  1  0
 17  6  2  0
 14  8  1  0
  1 28  1  0
  1 29  1  0
  1 30  1  0
  2 31  1  0
  2 32  1  0
  4 33  1  0
  9 34  1  0
 10 35  1  0
 11 36  1  0
 13 37  1  0
 18 38  1  0
 19 39  1  0
 20 40  1  0
 23 41  1  0
 23 42  1  0
 24 43  1  0
 24 44  1  0
 25 45  1  0
 25 46  1  0
 26 47  1  0
 26 48  1  0
 27 49  1  0
 27 50  1  0
M  END
>  <meeko>  (4) 
{"is_sidechain": [false], "free_energy": -9.29, "intermolecular_energy": -11.497, "internal_energy": -0.131}

$$$$
cand_029_out
     RDKit          3D

 50 53  0  0  0  0  0  0  0  0999 V2000
   47.4480  158.7450   29.9560 C   0  0  0  0  0  0  0  0  0  0  0  0
   48.4660  158.1660   30.9280 C   0  0  0  0  0  0  0  0  0  0  0  0
   49.8790  158.2700   30.3990 C   0  0  0  0  0  0  0  0  0  0  0  0
   50.4090  157.1910   29.6650 C   0  0  0  0  0  0  0  0  0  0  0  0
   51.7200  157.2140   29.1670 C   0  0  0  0  0  0  0  0  0  0  0  0
   52.2270  156.0730   28.3760 C   0  0  0  0  0  0  0  0  0  0  0  0
   52.8090  156.4630   27.1750 O   0  0  0  0  0  0  0  0  0  0  0  0
   53.3200  155.5020   26.3410 C   0  0  0  0  0  0  0  0  0  0  0  0
   53.9060  155.9400   25.1530 C   0  0  0  0  0  0  0  0  0  0  0  0
   54.4440  155.0140   24.2590 C   0  0  0  0  0  0  0  0  0  0  0  0
   54.3960  153.6490   24.5500 C   0  0  0  0  0  0  0  0  0  0  0  0
   53.8100  153.2140   25.7370 C   0  0  0  0  0  0  0  0  0  0  0  0
   53.7960  151.8640   25.9600 O   0  0  0  0  0  0  0  0  0  0  0  0
   53.2730  154.1420   26.6320 C   0  0  0  0  0  0  0  0  0  0  0  0
   52.6480  153.7280   27.8900 C   0  0  0  0  0  0  0  0  0  0  0  0
   52.5610  152.5450   28.2150 O   0  0  0  0  0  0  0  0  0  0  0  0
   52.1140  154.7910   28.7730 C   0  0  0  0  0  0  0  0  0  0  0  0
   51.5140  154.3870   29.9510 O   0  0  0  0  0  0  0  0  0  0  0  0
   52.4970  158.3510   29.4030 C   0  0  0  0  0  0  0  0  0  0  0  0
   51.9860  159.4260   30.1380 C   0  0  0  0  0  0  0  0  0  0  0  0
   50.6810  159.4010   30.6520 C   0  0  0  0  0  0  0  0  0  0  0  0
   50.1490  160.4770   31.3940 N   0  0  0  0  0  0  0  0  0  0  0  0
   49.0440  161.1690   30.7120 C   0  0  0  0  0  0  0  0  0  0  0  0
   48.7140  162.4520   31.4770 C   0  0  0  0  0  0  0  0  0  0  0  0
   48.3940  162.1530   32.9410 C   0  0  0  0  0  0  0  0  0  0  0  0
   49.5150  161.3420   33.5900 C   0  0  0  0  0  0  0  0  0  0  0  0
   49.8370  160.0870   32.7780 C   0  0  0  0  0  0  0  0  0  0  0  0
   46.6270  159.2119   30.5199 H   0  0  0  0  0  0  0  0  0  0  0  0
   47.9346  159.5015   29.3228 H   0  0  0  0  0  0  0  0  0  0  0  0
   47.0466  157.9401   29.3228 H   0  0  0  0  0  0  0  0  0  0  0  0
   48.4016  158.7157   31.8786 H   0  0  0  0  0  0  0  0  0  0  0  0
   48.2336  157.0999   31.0676 H   0  0  0  0  0  0  0  0  0  0  0  0
   49.7793  156.3087   29.4778 H   0  0  0  0  0  0  0  0  0  0  0  0
   53.9438  157.0147   24.9215 H   0  0  0  0  0  0  0  0  0  0  0  0
   54.9070  155.3597   23.3230 H   0  0  0  0  0  0  0  0  0  0  0  0
   54.8196  152.9193   23.8442 H   0  0  0  0  0  0  0  0  0  0  0  0
   52.9840  151.4220   26.1110 H   0  0  0  0  0  0  0  0  0  0  0  0
   51.3570  155.0090   30.6340 H   0  0  0  0  0  0  0  0  0  0  0  0
   53.5218  158.4014   29.0065 H   0  0  0  0  0  0  0  0  0  0  0  0
   52.6194  160.3075   30.3163 H   0  0  0  0  0  0  0  0  0  0  0  0
   49.3440  161.4193   29.6837 H   0  0  0  0  0  0  0  0  0  0  0  0
   48.1591  160.5164   30.6805 H   0  0  0  0  0  0  0  0  0  0  0  0
   49.5782  163.1308   31.4296 H   0  0  0  0  0  0  0  0  0  0  0  0
   47.8310  162.9171   31.0144 H   0  0  0  0  0  0  0  0  0  0  0  0
   48.2749  163.1019   33.4846 H   0  0  0  0  0  0  0  0  0  0  0  0
   47.4649  161.5657   32.9847 H   0  0  0  0  0  0  0  0  0  0  0  0
   50.4176  161.9674   33.6555 H   0  0  0  0  0  0  0  0  0  0  0  0
   49.1825  161.0309   34.5913 H   0  0  0  0  0  0  0  0  0  0  0  0
   50.7036  159.5740   33.2206 H   0  0  0  0  0  0  0  0  0  0  0  0
   48.9717  159.4079   32.7859 H   0  0  0  0  0  0  0  0  0  0  0  0
  1  2  1  0
  2  3  1  0
  3  4  2  0
  4  5  1  0
  5  6  1  0
  6  7  1  0
  7  8  1  0
  8  9  2  0
  9 10  1  0
 10 11  2  0
 11 12  1  0
 12 13  1  0
 12 14  2  0
 14 15  1  0
 15 16  2  0
 15 17  1  0
 17 18  1  0
  5 19  2  0
 19 20  1  0
 20 21  2  0
 21 22  1  0
 22 23  1  0
 23 24  1  0
 24 25  1  0
 25 26  1  0
 26 27  1  0
 21  3  1  0
 27 22  1  0
 17  6  2  0
 14  8  1  0
  1 28  1  0
  1 29  1  0
  1 30  1  0
  2 31  1  0
  2 32  1  0
  4 33  1  0
  9 34  1  0
 10 35  1  0
 11 36  1  0
 13 37  1  0
 18 38  1  0
 19 39  1  0
 20 40  1  0
 23 41  1  0
 23 42  1  0
 24 43  1  0
 24 44  1  0
 25 45  1  0
 25 46  1  0
 26 47  1  0
 26 48  1  0
 27 49  1  0
 27 50  1  0
M  END
>  <meeko>  (5) 
{"is_sidechain": [false], "free_energy": -9.261, "intermolecular_energy": -12.455, "internal_energy": 0.863}

$$$$
cand_029_out
     RDKit          3D

 50 53  0  0  0  0  0  0  0  0999 V2000
   51.5420  152.5320   28.5170 C   0  0  0  0  0  0  0  0  0  0  0  0
   52.8540  153.3020   28.5270 C   0  0  0  0  0  0  0  0  0  0  0  0
   52.6740  154.7380   28.0870 C   0  0  0  0  0  0  0  0  0  0  0  0
   52.0150  155.6340   28.9520 C   0  0  0  0  0  0  0  0  0  0  0  0
   51.7940  156.9720   28.5950 C   0  0  0  0  0  0  0  0  0  0  0  0
   51.1240  157.8860   29.5440 C   0  0  0  0  0  0  0  0  0  0  0  0
   51.9050  158.9870   29.8770 O   0  0  0  0  0  0  0  0  0  0  0  0
   51.4060  159.9170   30.7520 C   0  0  0  0  0  0  0  0  0  0  0  0
   52.2190  161.0110   31.0480 C   0  0  0  0  0  0  0  0  0  0  0  0
   51.7710  161.9930   31.9330 C   0  0  0  0  0  0  0  0  0  0  0  0
   50.5100  161.8800   32.5240 C   0  0  0  0  0  0  0  0  0  0  0  0
   49.7000  160.7870   32.2270 C   0  0  0  0  0  0  0  0  0  0  0  0
   48.4790  160.7390   32.8410 O   0  0  0  0  0  0  0  0  0  0  0  0
   50.1500  159.8050   31.3400 C   0  0  0  0  0  0  0  0  0  0  0  0
   49.3310  158.6390   31.0020 C   0  0  0  0  0  0  0  0  0  0  0  0
   48.2140  158.4670   31.4850 O   0  0  0  0  0  0  0  0  0  0  0  0
   49.8960  157.6590   30.0460 C   0  0  0  0  0  0  0  0  0  0  0  0
   49.1190  156.5560   29.7450 O   0  0  0  0  0  0  0  0  0  0  0  0
   52.2610  157.4100   27.3520 C   0  0  0  0  0  0  0  0  0  0  0  0
   52.9090  156.5290   26.4810 C   0  0  0  0  0  0  0  0  0  0  0  0
   53.1180  155.1860   26.8270 C   0  0  0  0  0  0  0  0  0  0  0  0
   53.7710  154.2840   25.9600 N   0  0  0  0  0  0  0  0  0  0  0  0
   52.9220  153.1590   25.5370 C   0  0  0  0  0  0  0  0  0  0  0  0
   53.7900  152.1270   24.8150 C   0  0  0  0  0  0  0  0  0  0  0  0
   54.5380  152.7590   23.6430 C   0  0  0  0  0  0  0  0  0  0  0  0
   55.3260  153.9870   24.0980 C   0  0  0  0  0  0  0  0  0  0  0  0
   54.4320  154.9780   24.8440 C   0  0  0  0  0  0  0  0  0  0  0  0
   51.2199  152.3430   29.5517 H   0  0  0  0  0  0  0  0  0  0  0  0
   50.7741  153.1227   27.9961 H   0  0  0  0  0  0  0  0  0  0  0  0
   51.6833  151.5735   27.9961 H   0  0  0  0  0  0  0  0  0  0  0  0
   53.2632  153.2925   29.5480 H   0  0  0  0  0  0  0  0  0  0  0  0
   53.5389  152.8137   27.8182 H   0  0  0  0  0  0  0  0  0  0  0  0
   51.6653  155.2752   29.9313 H   0  0  0  0  0  0  0  0  0  0  0  0
   53.2125  161.0998   30.5843 H   0  0  0  0  0  0  0  0  0  0  0  0
   52.4113  162.8567   32.1654 H   0  0  0  0  0  0  0  0  0  0  0  0
   50.1577  162.6531   33.2227 H   0  0  0  0  0  0  0  0  0  0  0  0
   48.2750  160.0370   33.4270 H   0  0  0  0  0  0  0  0  0  0  0  0
   48.2310  156.6700   29.4660 H   0  0  0  0  0  0  0  0  0  0  0  0
   52.1169  158.4596   27.0560 H   0  0  0  0  0  0  0  0  0  0  0  0
   53.2616  156.8961   25.5059 H   0  0  0  0  0  0  0  0  0  0  0  0
   52.4554  152.6965   26.4192 H   0  0  0  0  0  0  0  0  0  0  0  0
   52.1334  153.5210   24.8609 H   0  0  0  0  0  0  0  0  0  0  0  0
   54.5204  151.7123   25.5253 H   0  0  0  0  0  0  0  0  0  0  0  0
   53.1361  151.3335   24.4242 H   0  0  0  0  0  0  0  0  0  0  0  0
   55.2347  152.0204   23.2199 H   0  0  0  0  0  0  0  0  0  0  0  0
   53.8044  153.0727   22.8857 H   0  0  0  0  0  0  0  0  0  0  0  0
   56.1378  153.6640   24.7663 H   0  0  0  0  0  0  0  0  0  0  0  0
   55.7308  154.4887   23.2067 H   0  0  0  0  0  0  0  0  0  0  0  0
   55.0440  155.8043   25.2347 H   0  0  0  0  0  0  0  0  0  0  0  0
   53.6735  155.3823   24.1576 H   0  0  0  0  0  0  0  0  0  0  0  0
  1  2  1  0
  2  3  1  0
  3  4  2  0
  4  5  1  0
  5  6  1  0
  6  7  1  0
  7  8  1  0
  8  9  2  0
  9 10  1  0
 10 11  2  0
 11 12  1  0
 12 13  1  0
 12 14  2  0
 14 15  1  0
 15 16  2  0
 15 17  1  0
 17 18  1  0
  5 19  2  0
 19 20  1  0
 20 21  2  0
 21 22  1  0
 22 23  1  0
 23 24  1  0
 24 25  1  0
 25 26  1  0
 26 27  1  0
 21  3  1  0
 27 22  1  0
 17  6  2  0
 14  8  1  0
  1 28  1  0
  1 29  1  0
  1 30  1  0
  2 31  1  0
  2 32  1  0
  4 33  1  0
  9 34  1  0
 10 35  1  0
 11 36  1  0
 13 37  1  0
 18 38  1  0
 19 39  1  0
 20 40  1  0
 23 41  1  0
 23 42  1  0
 24 43  1  0
 24 44  1  0
 25 45  1  0
 25 46  1  0
 26 47  1  0
 26 48  1  0
 27 49  1  0
 27 50  1  0
M  END
>  <meeko>  (6) 
{"is_sidechain": [false], "free_energy": -8.515, "intermolecular_energy": -10.671, "internal_energy": 0.0}

$$$$
