cand_011_out
     RDKit          3D

 35 37  0  0  0  0  0  0  0  0999 V2000
   52.9180  152.5990   26.6700 C   0  0  0  0  0  0  0  0  0  0  0  0
   52.5480  153.8900   27.3510 C   0  0  0  0  0  0  0  0  0  0  0  0
   51.9380  153.8470   28.6130 C   0  0  0  0  0  0  0  0  0  0  0  0
   51.5850  155.0240   29.2770 C   0  0  0  0  0  0  0  0  0  0  0  0
   51.8270  156.2740   28.6990 C   0  0  0  0  0  0  0  0  0  0  0  0
   51.4620  157.5070   29.4290 C   0  0  0  0  0  0  0  0  0  0  0  0
   50.1340  157.5180   29.8390 O   0  0  0  0  0  0  0  0  0  0  0  0
   49.6630  158.6080   30.5280 C   0  0  0  0  0  0  0  0  0  0  0  0
   48.3290  158.5720   30.9340 C   0  0  0  0  0  0  0  0  0  0  0  0
   47.7860  159.6490   31.6390 C   0  0  0  0  0  0  0  0  0  0  0  0
   48.5780  160.7610   31.9370 C   0  0  0  0  0  0  0  0  0  0  0  0
   49.9090  160.7940   31.5310 C   0  0  0  0  0  0  0  0  0  0  0  0
   50.6260  161.9130   31.8540 O   0  0  0  0  0  0  0  0  0  0  0  0
   50.4520  159.7150   30.8260 C   0  0  0  0  0  0  0  0  0  0  0  0
   51.8460  159.7100   30.3810 C   0  0  0  0  0  0  0  0  0  0  0  0
   52.6040  160.6530   30.5970 O   0  0  0  0  0  0  0  0  0  0  0  0
   52.3260  158.5150   29.6490 C   0  0  0  0  0  0  0  0  0  0  0  0
   53.6400  158.5220   29.2210 O   0  0  0  0  0  0  0  0  0  0  0  0
   52.4530  156.3180   27.4440 C   0  0  0  0  0  0  0  0  0  0  0  0
   52.8180  155.1410   26.7570 C   0  0  0  0  0  0  0  0  0  0  0  0
   53.4820  155.2520   25.4020 C   0  0  0  0  0  0  0  0  0  0  0  0
   53.6740  156.5450   25.0170 F   0  0  0  0  0  0  0  0  0  0  0  0
   54.7120  154.6650   25.3440 F   0  0  0  0  0  0  0  0  0  0  0  0
   52.7540  154.6690   24.4080 F   0  0  0  0  0  0  0  0  0  0  0  0
   53.1373  151.8338   27.4291 H   0  0  0  0  0  0  0  0  0  0  0  0
   52.0801  152.2626   26.0417 H   0  0  0  0  0  0  0  0  0  0  0  0
   53.8069  152.7575   26.0417 H   0  0  0  0  0  0  0  0  0  0  0  0
   51.7351  152.8747   29.0856 H   0  0  0  0  0  0  0  0  0  0  0  0
   51.1104  154.9668   30.2677 H   0  0  0  0  0  0  0  0  0  0  0  0
   47.7054  157.6968   30.6994 H   0  0  0  0  0  0  0  0  0  0  0  0
   46.7342  159.6216   31.9598 H   0  0  0  0  0  0  0  0  0  0  0  0
   48.1502  161.6091   32.4917 H   0  0  0  0  0  0  0  0  0  0  0  0
   50.6580  162.6360   31.2590 H   0  0  0  0  0  0  0  0  0  0  0  0
   54.2660  157.9510   29.6200 H   0  0  0  0  0  0  0  0  0  0  0  0
   52.6645  157.2947   26.9842 H   0  0  0  0  0  0  0  0  0  0  0  0
  1  2  1  0
  2  3  2  0
  3  4  1  0
  4  5  2  0
  5  6  1  0
  6  7  1  0
  7  8  1  0
  8  9  2  0
  9 10  1  0
 10 11  2  0
 11 12  1  0
 12 13  1  0
 12 14  2  0
 14 15  1  0
 15 16  2  0
 15 17  1  0
 17 18  1  0
  5 19  1  0
 19 20  2  0
 20 21  1  0
 21 22  1  0
 21 23  1  0
 21 24  1  0
 20  2  1  0
 17  6  2  0
 14  8  1  0
  1 25  1  0
  1 26  1  0
  1 27  1  0
  3 28  1  0
  4 29  1  0
  9 30  1  0
 10 31  1  0
 11 32  1  0
 13 33  1  0
 18 34  1  0
 19 35  1  0
M  END
>  <meeko>  (1) 
{"is_sidechain": [false], "free_energy": -10.834, "intermolecular_energy": -12.734, "internal_energy": -0.194}

$$$$
cand_011_out
     RDKit          3D

 35 37  0  0  0  0  0  0  0  0999 V2000
   50.3320  161.3840   31.6240 C   0  0  0  0  0  0  0  0  0  0  0  0
   50.7170  160.1400   30.8690 C   0  0  0  0  0  0  0  0  0  0  0  0
   52.0490  159.9720   30.4630 C   0  0  0  0  0  0  0  0  0  0  0  0
   52.4440  158.8290   29.7640 C   0  0  0  0  0  0  0  0  0  0  0  0
   51.5220  157.8260   29.4490 C   0  0  0  0  0  0  0  0  0  0  0  0
   51.9680  156.6160   28.7260 C   0  0  0  0  0  0  0  0  0  0  0  0
   52.5430  156.9040   27.4940 O   0  0  0  0  0  0  0  0  0  0  0  0
   52.9990  155.8690   26.7170 C   0  0  0  0  0  0  0  0  0  0  0  0
   53.5830  156.2030   25.4950 C   0  0  0  0  0  0  0  0  0  0  0  0
   54.0680  155.1970   24.6560 C   0  0  0  0  0  0  0  0  0  0  0  0
   53.9680  153.8570   25.0390 C   0  0  0  0  0  0  0  0  0  0  0  0
   53.3850  153.5270   26.2600 C   0  0  0  0  0  0  0  0  0  0  0  0
   53.3180  152.1970   26.5720 O   0  0  0  0  0  0  0  0  0  0  0  0
   52.9010  154.5340   27.0990 C   0  0  0  0  0  0  0  0  0  0  0  0
   52.2820  154.2290   28.3900 C   0  0  0  0  0  0  0  0  0  0  0  0
   52.1500  153.0760   28.7940 O   0  0  0  0  0  0  0  0  0  0  0  0
   51.8090  155.3690   29.2080 C   0  0  0  0  0  0  0  0  0  0  0  0
   51.2130  155.0730   30.4200 O   0  0  0  0  0  0  0  0  0  0  0  0
   50.1940  157.9860   29.8700 C   0  0  0  0  0  0  0  0  0  0  0  0
   49.7740  159.1320   30.5770 C   0  0  0  0  0  0  0  0  0  0  0  0
   48.3260  159.2530   30.9980 C   0  0  0  0  0  0  0  0  0  0  0  0
   48.1150  158.8340   32.2770 F   0  0  0  0  0  0  0  0  0  0  0  0
   47.8420  160.5270   30.9440 F   0  0  0  0  0  0  0  0  0  0  0  0
   47.4860  158.5130   30.2190 F   0  0  0  0  0  0  0  0  0  0  0  0
   50.3920  161.1901   32.7051 H   0  0  0  0  0  0  0  0  0  0  0  0
   51.0193  162.2010   31.3593 H   0  0  0  0  0  0  0  0  0  0  0  0
   49.3033  161.6700   31.3593 H   0  0  0  0  0  0  0  0  0  0  0  0
   52.7911  160.7493   30.6978 H   0  0  0  0  0  0  0  0  0  0  0  0
   53.4943  158.7164   29.4572 H   0  0  0  0  0  0  0  0  0  0  0  0
   53.6615  157.2576   25.1924 H   0  0  0  0  0  0  0  0  0  0  0  0
   54.5292  155.4600   23.6926 H   0  0  0  0  0  0  0  0  0  0  0  0
   54.3488  153.0647   24.3778 H   0  0  0  0  0  0  0  0  0  0  0  0
   53.1120  151.5700   25.9070 H   0  0  0  0  0  0  0  0  0  0  0  0
   51.6120  155.3570   31.2190 H   0  0  0  0  0  0  0  0  0  0  0  0
   49.4611  157.1977   29.6431 H   0  0  0  0  0  0  0  0  0  0  0  0
  1  2  1  0
  2  3  2  0
  3  4  1  0
  4  5  2  0
  5  6  1  0
  6  7  1  0
  7  8  1  0
  8  9  2  0
  9 10  1  0
 10 11  2  0
 11 12  1  0
 12 13  1  0
 12 14  2  0
 14 15  1  0
 15 16  2  0
 15 17  1  0
 17 18  1  0
  5 19  1  0
 19 20  2  0
 20 21  1  0
 21 22  1  0
 21 23  1  0
 21 24  1  0
 20  2  1  0
 17  6  2  0
 14  8  1  0
  1 25  1  0
  1 26  1  0
  1 27  1  0
  3 28  1  0
  4 29  1  0
  9 30  1  0
 10 31  1  0
 11 32  1  0
 13 33  1  0
 18 34  1  0
 19 35  1  0
M  END
>  <meeko>  (2) 
{"is_sidechain": [false], "free_energy": -10.688, "intermolecular_energy": -12.697, "internal_energy": -0.06}

$$$$
cand_011_out
     RDKit          3D

 35 37  0  0  0  0  0  0  0  0999 V2000
   49.0110  160.2660   31.6560 C   0  0  0  0  0  0  0  0  0  0  0  0
   49.7770  159.2260   30.8820 C   0  0  0  0  0  0  0  0  0  0  0  0
   49.1500  158.0130   30.5620 C   0  0  0  0  0  0  0  0  0  0  0  0
   49.8270  157.0270   29.8420 C   0  0  0  0  0  0  0  0  0  0  0  0
   51.1470  157.2220   29.4240 C   0  0  0  0  0  0  0  0  0  0  0  0
   51.8380  156.1710   28.6470 C   0  0  0  0  0  0  0  0  0  0  0  0
   52.3550  156.6390   27.4440 O   0  0  0  0  0  0  0  0  0  0  0  0
   53.0200  155.7640   26.6240 C   0  0  0  0  0  0  0  0  0  0  0  0
   53.5360  156.2780   25.4340 C   0  0  0  0  0  0  0  0  0  0  0  0
   54.2240  155.4410   24.5530 C   0  0  0  0  0  0  0  0  0  0  0  0
   54.3960  154.0890   24.8620 C   0  0  0  0  0  0  0  0  0  0  0  0
   53.8800  153.5790   26.0500 C   0  0  0  0  0  0  0  0  0  0  0  0
   54.0830  152.2470   26.2900 O   0  0  0  0  0  0  0  0  0  0  0  0
   53.1920  154.4170   26.9320 C   0  0  0  0  0  0  0  0  0  0  0  0
   52.6350  153.9210   28.1910 C   0  0  0  0  0  0  0  0  0  0  0  0
   52.7370  152.7430   28.5300 O   0  0  0  0  0  0  0  0  0  0  0  0
   51.9320  154.8930   29.0580 C   0  0  0  0  0  0  0  0  0  0  0  0
   51.3970  154.4140   30.2390 O   0  0  0  0  0  0  0  0  0  0  0  0
   51.7690  158.4420   29.7300 C   0  0  0  0  0  0  0  0  0  0  0  0
   51.1030  159.4510   30.4550 C   0  0  0  0  0  0  0  0  0  0  0  0
   51.8280  160.7430   30.7620 C   0  0  0  0  0  0  0  0  0  0  0  0
   51.2250  161.8290   30.2020 F   0  0  0  0  0  0  0  0  0  0  0  0
   51.9170  161.0200   32.0950 F   0  0  0  0  0  0  0  0  0  0  0  0
   53.1120  160.7500   30.3040 F   0  0  0  0  0  0  0  0  0  0  0  0
   49.1406  160.0900   32.7341 H   0  0  0  0  0  0  0  0  0  0  0  0
   49.3896  161.2665   31.3997 H   0  0  0  0  0  0  0  0  0  0  0  0
   47.9432  160.2012   31.3997 H   0  0  0  0  0  0  0  0  0  0  0  0
   48.1125  157.8364   30.8821 H   0  0  0  0  0  0  0  0  0  0  0  0
   49.3151  156.0839   29.6002 H   0  0  0  0  0  0  0  0  0  0  0  0
   53.4009  157.3420   25.1899 H   0  0  0  0  0  0  0  0  0  0  0  0
   54.6310  155.8463   23.6149 H   0  0  0  0  0  0  0  0  0  0  0  0
   54.9378  153.4295   24.1681 H   0  0  0  0  0  0  0  0  0  0  0  0
   53.5340  151.7920   26.8980 H   0  0  0  0  0  0  0  0  0  0  0  0
   50.6010  154.7780   30.5750 H   0  0  0  0  0  0  0  0  0  0  0  0
   52.8025  158.6155   29.3957 H   0  0  0  0  0  0  0  0  0  0  0  0
  1  2  1  0
  2  3  2  0
  3  4  1  0
  4  5  2  0
  5  6  1  0
  6  7  1  0
  7  8  1  0
  8  9  2  0
  9 10  1  0
 10 11  2  0
 11 12  1  0
 12 13  1  0
 12 14  2  0
 14 15  1  0
 15 16  2  0
 15 17  1  0
 17 18  1  0
  5 19  1  0
 19 20  2  0
 20 21  1  0
 21 22  1  0
 21 23  1  0
 21 24  1  0
 20  2  1  0
 17  6  2  0
 14  8  1  0
  1 25  1  0
  1 26  1  0
  1 27  1  0
  3 28  1  0
  4 29  1  0
  9 30  1  0
 10 31  1  0
 11 32  1  0
 13 33  1  0
 18 34  1  0
 19 35  1  0
M  END
>  <meeko>  (3) 
{"is_sidechain": [false], "free_energy": -10.589, "intermolecular_energy": -12.436, "internal_energy": -0.205}

$$$$
cand_011_out
     RDKit          3D

 35 37  0  0  0  0  0  0  0  0999 V2000
   53.5940  152.6920   26.5390 C   0  0  0  0  0  0  0  0  0  0  0  0
   52.9550  153.8630   27.2360 C   0  0  0  0  0  0  0  0  0  0  0  0
   52.3980  153.6800   28.5100 C   0  0  0  0  0  0  0  0  0  0  0  0
   51.8010  154.7440   29.1890 C   0  0  0  0  0  0  0  0  0  0  0  0
   51.7410  156.0190   28.6150 C   0  0  0  0  0  0  0  0  0  0  0  0
   51.1200  157.1340   29.3610 C   0  0  0  0  0  0  0  0  0  0  0  0
   52.0140  158.1620   29.6390 O   0  0  0  0  0  0  0  0  0  0  0  0
   51.5660  159.2600   30.3290 C   0  0  0  0  0  0  0  0  0  0  0  0
   52.4920  160.2750   30.5750 C   0  0  0  0  0  0  0  0  0  0  0  0
   52.1020  161.4200   31.2730 C   0  0  0  0  0  0  0  0  0  0  0  0
   50.7870  161.5500   31.7250 C   0  0  0  0  0  0  0  0  0  0  0  0
   49.8650  160.5360   31.4780 C   0  0  0  0  0  0  0  0  0  0  0  0
   48.5950  160.7280   31.9500 O   0  0  0  0  0  0  0  0  0  0  0  0
   50.2560  159.3910   30.7790 C   0  0  0  0  0  0  0  0  0  0  0  0
   49.3180  158.3020   30.4990 C   0  0  0  0  0  0  0  0  0  0  0  0
   48.1470  158.3390   30.8700 O   0  0  0  0  0  0  0  0  0  0  0  0
   49.8300  157.1360   29.7440 C   0  0  0  0  0  0  0  0  0  0  0  0
   48.9420  156.1060   29.4950 O   0  0  0  0  0  0  0  0  0  0  0  0
   52.3130  156.2060   27.3490 C   0  0  0  0  0  0  0  0  0  0  0  0
   52.9210  155.1450   26.6460 C   0  0  0  0  0  0  0  0  0  0  0  0
   53.5140  155.4060   25.2790 C   0  0  0  0  0  0  0  0  0  0  0  0
   53.3620  156.7000   24.8800 F   0  0  0  0  0  0  0  0  0  0  0  0
   54.8520  155.1540   25.2030 F   0  0  0  0  0  0  0  0  0  0  0  0
   52.9460  154.6440   24.3020 F   0  0  0  0  0  0  0  0  0  0  0  0
   53.9797  151.9852   27.2884 H   0  0  0  0  0  0  0  0  0  0  0  0
   52.8462  152.1873   25.9096 H   0  0  0  0  0  0  0  0  0  0  0  0
   54.4230  153.0477   25.9096 H   0  0  0  0  0  0  0  0  0  0  0  0
   52.4319  152.6861   28.9801 H   0  0  0  0  0  0  0  0  0  0  0  0
   51.3722  154.5779   30.1883 H   0  0  0  0  0  0  0  0  0  0  0  0
   53.5280  160.1731   30.2194 H   0  0  0  0  0  0  0  0  0  0  0  0
   52.8313  162.2203   31.4670 H   0  0  0  0  0  0  0  0  0  0  0  0
   50.4801  162.4518   32.2751 H   0  0  0  0  0  0  0  0  0  0  0  0
   47.8630  160.6350   31.3730 H   0  0  0  0  0  0  0  0  0  0  0  0
   48.2110  156.2460   28.9260 H   0  0  0  0  0  0  0  0  0  0  0  0
   52.2870  157.2062   26.8919 H   0  0  0  0  0  0  0  0  0  0  0  0
  1  2  1  0
  2  3  2  0
  3  4  1  0
  4  5  2  0
  5  6  1  0
  6  7  1  0
  7  8  1  0
  8  9  2  0
  9 10  1  0
 10 11  2  0
 11 12  1  0
 12 13  1  0
 12 14  2  0
 14 15  1  0
 15 16  2  0
 15 17  1  0
 17 18  1  0
  5 19  1  0
 19 20  2  0
 20 21  1  0
 21 22  1  0
 21 23  1  0
 21 24  1  0
 20  2  1  0
 17  6  2  0
 14  8  1  0
  1 25  1  0
  1 26  1  0
  1 27  1  0
  3 28  1  0
  4 29  1  0
  9 30  1  0
 10 31  1  0
 11 32  1  0
 13 33  1  0
 18 34  1  0
 19 35  1  0
M  END
>  <meeko>  (4) 
{"is_sidechain": [false], "free_energy": -9.693, "intermolecular_energy": -11.3, "internal_energy": -0.288}

$$$$
cand_011_out
     RDKit          3D

 35 37  0  0  0  0  0  0  0  0999 V2000
   53.3680  154.2080   26.0700 C   0  0  0  0  0  0  0  0  0  0  0  0
   52.8680  155.2490   27.0360 C   0  0  0  0  0  0  0  0  0  0  0  0
   52.9660  156.6050   26.6920 C   0  0  0  0  0  0  0  0  0  0  0  0
   52.5090  157.5980   27.5600 C   0  0  0  0  0  0  0  0  0  0  0  0
   51.9450  157.2660   28.7960 C   0  0  0  0  0  0  0  0  0  0  0  0
   51.4510  158.3340   29.6910 C   0  0  0  0  0  0  0  0  0  0  0  0
   50.1060  158.1930   30.0110 O   0  0  0  0  0  0  0  0  0  0  0  0
   49.5200  159.1200   30.8360 C   0  0  0  0  0  0  0  0  0  0  0  0
   48.1720  158.9320   31.1430 C   0  0  0  0  0  0  0  0  0  0  0  0
   47.5140  159.8400   31.9770 C   0  0  0  0  0  0  0  0  0  0  0  0
   48.2050  160.9350   32.5010 C   0  0  0  0  0  0  0  0  0  0  0  0
   49.5500  161.1190   32.1930 C   0  0  0  0  0  0  0  0  0  0  0  0
   50.1640  162.2130   32.7400 O   0  0  0  0  0  0  0  0  0  0  0  0
   50.2080  160.2100   31.3600 C   0  0  0  0  0  0  0  0  0  0  0  0
   51.6200  160.3680   31.0110 C   0  0  0  0  0  0  0  0  0  0  0  0
   52.2930  161.3090   31.4260 O   0  0  0  0  0  0  0  0  0  0  0  0
   52.2250  159.3450   30.1280 C   0  0  0  0  0  0  0  0  0  0  0  0
   53.5560  159.5080   29.7920 O   0  0  0  0  0  0  0  0  0  0  0  0
   51.8310  155.9100   29.1330 C   0  0  0  0  0  0  0  0  0  0  0  0
   52.2850  154.8910   28.2700 C   0  0  0  0  0  0  0  0  0  0  0  0
   52.1430  153.4450   28.6930 C   0  0  0  0  0  0  0  0  0  0  0  0
   51.4990  153.3090   29.8860 F   0  0  0  0  0  0  0  0  0  0  0  0
   51.4420  152.6800   27.8080 F   0  0  0  0  0  0  0  0  0  0  0  0
   53.3440  152.8180   28.8420 F   0  0  0  0  0  0  0  0  0  0  0  0
   53.7779  153.3547   26.6302 H   0  0  0  0  0  0  0  0  0  0  0  0
   52.5361  153.8655   25.4370 H   0  0  0  0  0  0  0  0  0  0  0  0
   54.1553  154.6432   25.4370 H   0  0  0  0  0  0  0  0  0  0  0  0
   53.4086  156.8896   25.7260 H   0  0  0  0  0  0  0  0  0  0  0  0
   52.5935  158.6552   27.2682 H   0  0  0  0  0  0  0  0  0  0  0  0
   47.6279  158.0702   30.7291 H   0  0  0  0  0  0  0  0  0  0  0  0
   46.4516  159.6923   32.2209 H   0  0  0  0  0  0  0  0  0  0  0  0
   47.6871  161.6509   33.1561 H   0  0  0  0  0  0  0  0  0  0  0  0
   49.6500  162.8880   33.1380 H   0  0  0  0  0  0  0  0  0  0  0  0
   54.1960  159.6360   30.4640 H   0  0  0  0  0  0  0  0  0  0  0  0
   51.3757  155.6336   30.0954 H   0  0  0  0  0  0  0  0  0  0  0  0
  1  2  1  0
  2  3  2  0
  3  4  1  0
  4  5  2  0
  5  6  1  0
  6  7  1  0
  7  8  1  0
  8  9  2  0
  9 10  1  0
 10 11  2  0
 11 12  1  0
 12 13  1  0
 12 14  2  0
 14 15  1  0
 15 16  2  0
 15 17  1  0
 17 18  1  0
  5 19  1  0
 19 20  2  0
 20 21  1  0
 21 22  1  0
 21 23  1  0
 21 24  1  0
 20  2  1  0
 17  6  2  0
 14  8  1  0
  1 25  1  0
  1 26  1  0
  1 27  1  0
  3 28  1  0
  4 29  1  0
  9 30  1  0
 10 31  1  0
 11 32  1  0
 13 33  1  0
 18 34  1  0
 19 35  1  0
M  END
>  <meeko>  (5) 
{"is_sidechain": [false], "free_energy": -8.999, "intermolecular_energy": -10.527, "internal_energy": -0.245}

$$$$
cand_011_out
     RDKit          3D

 35 37  0  0  0  0  0  0  0  0999 V2000
   48.9480  158.2570   31.1870 C   0  0  0  0  0  0  0  0  0  0  0  0
   49.8060  157.4820   30.2230 C   0  0  0  0  0  0  0  0  0  0  0  0
   49.3900  156.2090   29.8080 C   0  0  0  0  0  0  0  0  0  0  0  0
   50.1570  155.4630   28.9120 C   0  0  0  0  0  0  0  0  0  0  0  0
   51.3610  155.9640   28.4070 C   0  0  0  0  0  0  0  0  0  0  0  0
   52.1470  155.1640   27.4440 C   0  0  0  0  0  0  0  0  0  0  0  0
   51.8620  153.8050   27.5100 O   0  0  0  0  0  0  0  0  0  0  0  0
   52.5240  152.9480   26.6690 C   0  0  0  0  0  0  0  0  0  0  0  0
   52.1970  151.5940   26.7580 C   0  0  0  0  0  0  0  0  0  0  0  0
   52.8350  150.6670   25.9300 C   0  0  0  0  0  0  0  0  0  0  0  0
   53.8000  151.0940   25.0150 C   0  0  0  0  0  0  0  0  0  0  0  0
   54.1250  152.4450   24.9280 C   0  0  0  0  0  0  0  0  0  0  0  0
   55.0790  152.7940   24.0120 O   0  0  0  0  0  0  0  0  0  0  0  0
   53.4850  153.3730   25.7560 C   0  0  0  0  0  0  0  0  0  0  0  0
   53.7970  154.8010   25.6970 C   0  0  0  0  0  0  0  0  0  0  0  0
   54.6400  155.2540   24.9240 O   0  0  0  0  0  0  0  0  0  0  0  0
   53.0570  155.7010   26.6110 C   0  0  0  0  0  0  0  0  0  0  0  0
   53.3660  157.0480   26.5580 O   0  0  0  0  0  0  0  0  0  0  0  0
   51.7690  157.2450   28.8080 C   0  0  0  0  0  0  0  0  0  0  0  0
   51.0090  158.0150   29.7120 C   0  0  0  0  0  0  0  0  0  0  0  0
   51.5050  159.3870   30.1150 C   0  0  0  0  0  0  0  0  0  0  0  0
   50.7900  160.3930   29.5380 F   0  0  0  0  0  0  0  0  0  0  0  0
   51.4480  159.6200   31.4580 F   0  0  0  0  0  0  0  0  0  0  0  0
   52.8040  159.6030   29.7640 F   0  0  0  0  0  0  0  0  0  0  0  0
   49.2319  158.0006   32.2184 H   0  0  0  0  0  0  0  0  0  0  0  0
   49.0946  159.3349   31.0235 H   0  0  0  0  0  0  0  0  0  0  0  0
   47.8906  158.0019   31.0235 H   0  0  0  0  0  0  0  0  0  0  0  0
   48.4474  155.7931   30.1934 H   0  0  0  0  0  0  0  0  0  0  0  0
   49.8098  154.4674   28.5987 H   0  0  0  0  0  0  0  0  0  0  0  0
   51.4378  151.2571   27.4792 H   0  0  0  0  0  0  0  0  0  0  0  0
   52.5771  149.5999   25.9988 H   0  0  0  0  0  0  0  0  0  0  0  0
   54.3027  150.3637   24.3638 H   0  0  0  0  0  0  0  0  0  0  0  0
   55.9480  152.9990   24.2960 H   0  0  0  0  0  0  0  0  0  0  0  0
   54.1640  157.3600   26.9370 H   0  0  0  0  0  0  0  0  0  0  0  0
   52.7058  157.6592   28.4069 H   0  0  0  0  0  0  0  0  0  0  0  0
  1  2  1  0
  2  3  2  0
  3  4  1  0
  4  5  2  0
  5  6  1  0
  6  7  1  0
  7  8  1  0
  8  9  2  0
  9 10  1  0
 10 11  2  0
 11 12  1  0
 12 13  1  0
 12 14  2  0
 14 15  1  0
 15 16  2  0
 15 17  1  0
 17 18  1  0
  5 19  1  0
 19 20  2  0
 20 21  1  0
 21 22  1  0
 21 23  1  0
 21 24  1  0
 20  2  1  0
 17  6  2  0
 14  8  1  0
  1 25  1  0
  1 26  1  0
  1 27  1  0
  3 28  1  0
  4 29  1  0
  9 30  1  0
 10 31  1  0
 11 32  1  0
 13 33  1  0
 18 34  1  0
 19 35  1  0
M  END
>  <meeko>  (6) 
{"is_sidechain": [false], "free_energy": -8.507, "intermolecular_energy": -10.396, "internal_energy": 0.202}

$$$$
cand_011_out
     RDKit          3D

 35 37  0  0  0  0  0  0  0  0999 V2000
   53.8870  154.2700   25.5780 C   0  0  0  0  0  0  0  0  0  0  0  0
   53.1940  155.1450   26.5880 C   0  0  0  0  0  0  0  0  0  0  0  0
   53.3160  156.5380   26.4850 C   0  0  0  0  0  0  0  0  0  0  0  0
   52.6840  157.3810   27.4010 C   0  0  0  0  0  0  0  0  0  0  0  0
   51.9150  156.8580   28.4460 C   0  0  0  0  0  0  0  0  0  0  0  0
   51.2400  157.7710   29.3930 C   0  0  0  0  0  0  0  0  0  0  0  0
   52.0010  158.8930   29.6990 O   0  0  0  0  0  0  0  0  0  0  0  0
   51.4900  159.8220   30.5690 C   0  0  0  0  0  0  0  0  0  0  0  0
   52.2800  160.9400   30.8380 C   0  0  0  0  0  0  0  0  0  0  0  0
   51.8200  161.9250   31.7150 C   0  0  0  0  0  0  0  0  0  0  0  0
   50.5700  161.7900   32.3240 C   0  0  0  0  0  0  0  0  0  0  0  0
   49.7830  160.6740   32.0540 C   0  0  0  0  0  0  0  0  0  0  0  0
   48.5710  160.6050   32.6860 O   0  0  0  0  0  0  0  0  0  0  0  0
   50.2440  159.6890   31.1750 C   0  0  0  0  0  0  0  0  0  0  0  0
   49.4490  158.5000   30.8650 C   0  0  0  0  0  0  0  0  0  0  0  0
   48.3430  158.3060   31.3660 O   0  0  0  0  0  0  0  0  0  0  0  0
   50.0240  157.5210   29.9150 C   0  0  0  0  0  0  0  0  0  0  0  0
   49.2730  156.3950   29.6360 O   0  0  0  0  0  0  0  0  0  0  0  0
   51.7780  155.4650   28.5400 C   0  0  0  0  0  0  0  0  0  0  0  0
   52.4080  154.5960   27.6240 C   0  0  0  0  0  0  0  0  0  0  0  0
   52.2310  153.1010   27.7810 C   0  0  0  0  0  0  0  0  0  0  0  0
   51.5410  152.7710   28.9090 F   0  0  0  0  0  0  0  0  0  0  0  0
   51.5530  152.5170   26.7520 F   0  0  0  0  0  0  0  0  0  0  0  0
   53.4170  152.4340   27.8600 F   0  0  0  0  0  0  0  0  0  0  0  0
   54.4878  153.5114   26.1010 H   0  0  0  0  0  0  0  0  0  0  0  0
   53.1357  153.7720   24.9475 H   0  0  0  0  0  0  0  0  0  0  0  0
   54.5439  154.8872   24.9475 H   0  0  0  0  0  0  0  0  0  0  0  0
   53.9171  156.9720   25.6724 H   0  0  0  0  0  0  0  0  0  0  0  0
   52.7922  158.4710   27.2996 H   0  0  0  0  0  0  0  0  0  0  0  0
   53.2648  161.0457   30.3596 H   0  0  0  0  0  0  0  0  0  0  0  0
   52.4421  162.8072   31.9262 H   0  0  0  0  0  0  0  0  0  0  0  0
   50.2081  162.5646   33.0161 H   0  0  0  0  0  0  0  0  0  0  0  0
   48.4410  161.0530   33.4980 H   0  0  0  0  0  0  0  0  0  0  0  0
   48.3590  156.4770   29.4470 H   0  0  0  0  0  0  0  0  0  0  0  0
   51.1643  155.0397   29.3477 H   0  0  0  0  0  0  0  0  0  0  0  0
  1  2  1  0
  2  3  2  0
  3  4  1  0
  4  5  2  0
  5  6  1  0
  6  7  1  0
  7  8  1  0
  8  9  2  0
  9 10  1  0
 10 11  2  0
 11 12  1  0
 12 13  1  0
 12 14  2  0
 14 15  1  0
 15 16  2  0
 15 17  1  0
 17 18  1  0
  5 19  1  0
 19 20  2  0
 20 21  1  0
 21 22  1  0
 21 23  1  0
 21 24  1  0
 20  2  1  0
 17  6  2  0
 14  8  1  0
  1 25  1  0
  1 26  1  0
  1 27  1  0
  3 28  1  0
  4 29  1  0
  9 30  1  0
 10 31  1  0
 11 32  1  0
 13 33  1  0
 18 34  1  0
 19 35  1  0
M  END
>  <meeko>  (7) 
{"is_sidechain": [false], "free_energy": -8.167, "intermolecular_energy": -9.794, "internal_energy": 0.001}

$$$$
