cand_055_out
     RDKit          3D

 41 43  0  0  0  0  0  0  0  0999 V2000
   48.6870  161.4920   33.6840 C   0  0  0  0  0  0  0  0  0  0  0  0
   50.0090  161.1300   33.0280 C   0  0  0  0  0  0  0  0  0  0  0  0
   49.9300  161.2550   31.5060 C   0  0  0  0  0  0  0  0  0  0  0  0
   50.4070  159.9980   30.8120 C   0  0  0  0  0  0  0  0  0  0  0  0
   51.7310  159.9560   30.3450 C   0  0  0  0  0  0  0  0  0  0  0  0
   52.2270  158.8280   29.6880 C   0  0  0  0  0  0  0  0  0  0  0  0
   51.4160  157.7080   29.4840 C   0  0  0  0  0  0  0  0  0  0  0  0
   51.9090  156.5090   28.7710 C   0  0  0  0  0  0  0  0  0  0  0  0
   52.4830  156.8110   27.5410 O   0  0  0  0  0  0  0  0  0  0  0  0
   52.9820  155.7900   26.7740 C   0  0  0  0  0  0  0  0  0  0  0  0
   53.5630  156.1400   25.5530 C   0  0  0  0  0  0  0  0  0  0  0  0
   54.0890  155.1490   24.7220 C   0  0  0  0  0  0  0  0  0  0  0  0
   54.0330  153.8080   25.1100 C   0  0  0  0  0  0  0  0  0  0  0  0
   53.4540  153.4620   26.3290 C   0  0  0  0  0  0  0  0  0  0  0  0
   53.4310  152.1320   26.6460 O   0  0  0  0  0  0  0  0  0  0  0  0
   52.9280  154.4550   27.1600 C   0  0  0  0  0  0  0  0  0  0  0  0
   52.3100  154.1340   28.4480 C   0  0  0  0  0  0  0  0  0  0  0  0
   52.2180  152.9780   28.8550 O   0  0  0  0  0  0  0  0  0  0  0  0
   51.7900  155.2600   29.2580 C   0  0  0  0  0  0  0  0  0  0  0  0
   51.1970  154.9440   30.4660 O   0  0  0  0  0  0  0  0  0  0  0  0
   50.0890  157.7550   29.9370 C   0  0  0  0  0  0  0  0  0  0  0  0
   49.5700  158.8870   30.5940 C   0  0  0  0  0  0  0  0  0  0  0  0
   48.1430  158.8600   31.0680 C   0  0  0  0  0  0  0  0  0  0  0  0
   48.7998  161.4611   34.7778 H   0  0  0  0  0  0  0  0  0  0  0  0
   48.3893  162.5047   33.3746 H   0  0  0  0  0  0  0  0  0  0  0  0
   47.9149  160.7722   33.3746 H   0  0  0  0  0  0  0  0  0  0  0  0
   50.7913  161.8066   33.4024 H   0  0  0  0  0  0  0  0  0  0  0  0
   50.2442  160.0848   33.2775 H   0  0  0  0  0  0  0  0  0  0  0  0
   48.8855  161.4457   31.2184 H   0  0  0  0  0  0  0  0  0  0  0  0
   50.5835  162.0842   31.1973 H   0  0  0  0  0  0  0  0  0  0  0  0
   52.3874  160.8251   30.4992 H   0  0  0  0  0  0  0  0  0  0  0  0
   53.2662  158.8208   29.3274 H   0  0  0  0  0  0  0  0  0  0  0  0
   53.6061  157.1955   25.2464 H   0  0  0  0  0  0  0  0  0  0  0  0
   54.5479  155.4243   23.7609 H   0  0  0  0  0  0  0  0  0  0  0  0
   54.4453  153.0269   24.4543 H   0  0  0  0  0  0  0  0  0  0  0  0
   53.1650  151.5020   26.0050 H   0  0  0  0  0  0  0  0  0  0  0  0
   51.6730  154.4520   31.1060 H   0  0  0  0  0  0  0  0  0  0  0  0
   49.4367  156.8843   29.7746 H   0  0  0  0  0  0  0  0  0  0  0  0
   48.1219  158.8596   32.1678 H   0  0  0  0  0  0  0  0  0  0  0  0
   47.6147  159.7483   30.6915 H   0  0  0  0  0  0  0  0  0  0  0  0
   47.6487  157.9523   30.6915 H   0  0  0  0  0  0  0  0  0  0  0  0
  1  2  1  0
  2  3  1  0
  3  4  1  0
  4  5  2  0
  5  6  1  0
  6  7  2  0
  7  8  1  0
  8  9  1  0
  9 10  1  0
 10 11  2  0
 11 12  1  0
 12 13  2  0
 13 14  1  0
 14 15  1  0
 14 16  2  0
 16 17  1  0
 17 18  2  0
 17 19  1  0
 19 20  1  0
  7 21  1  0
 21 22  2  0
 22 23  1  0
 22  4  1  0
 19  8  2  0
 16 10  1  0
  1 24  1  0
  1 25  1  0
  1 26  1  0
  2 27  1  0
  2 28  1  0
  3 29  1  0
  3 30  1  0
  5 31  1  0
  6 32  1  0
 11 33  1  0
 12 34  1  0
 13 35  1  0
 15 36  1  0
 20 37  1  0
 21 38  1  0
 23 39  1  0
 23 40  1  0
 23 41  1  0
M  END
>  <meeko>  (1) 
{"is_sidechain": [false], "free_energy": -10.853, "intermolecular_energy": -13.391, "internal_energy": -0.321}

$$$$
cand_055_out
     RDKit          3D

 41 43  0  0  0  0  0  0  0  0999 V2000
   48.4950  161.5710   33.9060 C   0  0  0  0  0  0  0  0  0  0  0  0
   49.2630  160.4900   33.1640 C   0  0  0  0  0  0  0  0  0  0  0  0
   49.4300  160.8410   31.6840 C   0  0  0  0  0  0  0  0  0  0  0  0
   50.0780  159.7150   30.9080 C   0  0  0  0  0  0  0  0  0  0  0  0
   49.3440  158.5340   30.7080 C   0  0  0  0  0  0  0  0  0  0  0  0
   49.8920  157.4560   30.0090 C   0  0  0  0  0  0  0  0  0  0  0  0
   51.1850  157.5300   29.4850 C   0  0  0  0  0  0  0  0  0  0  0  0
   51.7980  156.3950   28.7610 C   0  0  0  0  0  0  0  0  0  0  0  0
   52.3650  156.7700   27.5480 O   0  0  0  0  0  0  0  0  0  0  0  0
   52.9680  155.8140   26.7740 C   0  0  0  0  0  0  0  0  0  0  0  0
   53.5370  156.2380   25.5710 C   0  0  0  0  0  0  0  0  0  0  0  0
   54.1660  155.3140   24.7340 C   0  0  0  0  0  0  0  0  0  0  0  0
   54.2260  153.9670   25.0980 C   0  0  0  0  0  0  0  0  0  0  0  0
   53.6590  153.5470   26.2980 C   0  0  0  0  0  0  0  0  0  0  0  0
   53.7520  152.2140   26.5930 O   0  0  0  0  0  0  0  0  0  0  0  0
   53.0300  154.4720   27.1360 C   0  0  0  0  0  0  0  0  0  0  0  0
   52.4200  154.0720   28.4050 C   0  0  0  0  0  0  0  0  0  0  0  0
   52.4270  152.9050   28.7910 O   0  0  0  0  0  0  0  0  0  0  0  0
   51.7850  155.1310   29.2240 C   0  0  0  0  0  0  0  0  0  0  0  0
   51.2010  154.7390   30.4150 O   0  0  0  0  0  0  0  0  0  0  0  0
   51.9240  158.7030   29.6980 C   0  0  0  0  0  0  0  0  0  0  0  0
   51.3920  159.7960   30.4070 C   0  0  0  0  0  0  0  0  0  0  0  0
   52.2350  161.0290   30.5810 C   0  0  0  0  0  0  0  0  0  0  0  0
   48.6030  161.4190   34.9901 H   0  0  0  0  0  0  0  0  0  0  0  0
   48.8952  162.5584   33.6325 H   0  0  0  0  0  0  0  0  0  0  0  0
   47.4308  161.5181   33.6325 H   0  0  0  0  0  0  0  0  0  0  0  0
   50.2578  160.3802   33.6204 H   0  0  0  0  0  0  0  0  0  0  0  0
   48.6954  159.5505   33.2355 H   0  0  0  0  0  0  0  0  0  0  0  0
   48.4390  161.0461   31.2529 H   0  0  0  0  0  0  0  0  0  0  0  0
   50.0826  161.7237   31.6139 H   0  0  0  0  0  0  0  0  0  0  0  0
   48.3222  158.4570   31.1080 H   0  0  0  0  0  0  0  0  0  0  0  0
   49.2996  156.5396   29.8697 H   0  0  0  0  0  0  0  0  0  0  0  0
   53.4897  157.2986   25.2832 H   0  0  0  0  0  0  0  0  0  0  0  0
   54.6148  155.6475   23.7867 H   0  0  0  0  0  0  0  0  0  0  0  0
   54.7204  153.2393   24.4377 H   0  0  0  0  0  0  0  0  0  0  0  0
   54.3970  151.9130   27.2020 H   0  0  0  0  0  0  0  0  0  0  0  0
   51.3930  153.8960   30.7750 H   0  0  0  0  0  0  0  0  0  0  0  0
   52.9473  158.7704   29.3000 H   0  0  0  0  0  0  0  0  0  0  0  0
   52.3728  161.2306   31.6536 H   0  0  0  0  0  0  0  0  0  0  0  0
   53.2158  160.8723   30.1084 H   0  0  0  0  0  0  0  0  0  0  0  0
   51.7330  161.8861   30.1084 H   0  0  0  0  0  0  0  0  0  0  0  0
  1  2  1  0
  2  3  1  0
  3  4  1  0
  4  5  2  0
  5  6  1  0
  6  7  2  0
  7  8  1  0
  8  9  1  0
  9 10  1  0
 10 11  2  0
 11 12  1  0
 12 13  2  0
 13 14  1  0
 14 15  1  0
 14 16  2  0
 16 17  1  0
 17 18  2  0
 17 19  1  0
 19 20  1  0
  7 21  1  0
 21 22  2  0
 22 23  1  0
 22  4  1  0
 19  8  2  0
 16 10  1  0
  1 24  1  0
  1 25  1  0
  1 26  1  0
  2 27  1  0
  2 28  1  0
  3 29  1  0
  3 30  1  0
  5 31  1  0
  6 32  1  0
 11 33  1  0
 12 34  1  0
 13 35  1  0
 15 36  1  0
 20 37  1  0
 21 38  1  0
 23 39  1  0
 23 40  1  0
 23 41  1  0
M  END
>  <meeko>  (2) 
{"is_sidechain": [false], "free_energy": -10.849, "intermolecular_energy": -13.424, "internal_energy": -0.284}

$$$$
cand_055_out
     RDKit          3D

 41 43  0  0  0  0  0  0  0  0999 V2000
   54.3270  151.1440   24.7840 C   0  0  0  0  0  0  0  0  0  0  0  0
   54.1500  152.1500   25.9100 C   0  0  0  0  0  0  0  0  0  0  0  0
   52.6830  152.2660   26.3290 C   0  0  0  0  0  0  0  0  0  0  0  0
   52.4050  153.5650   27.0510 C   0  0  0  0  0  0  0  0  0  0  0  0
   51.9860  153.5080   28.3910 C   0  0  0  0  0  0  0  0  0  0  0  0
   51.7050  154.6740   29.1070 C   0  0  0  0  0  0  0  0  0  0  0  0
   51.8390  155.9290   28.5080 C   0  0  0  0  0  0  0  0  0  0  0  0
   51.5250  157.1770   29.2360 C   0  0  0  0  0  0  0  0  0  0  0  0
   50.2140  157.2180   29.6980 O   0  0  0  0  0  0  0  0  0  0  0  0
   49.7890  158.3210   30.3920 C   0  0  0  0  0  0  0  0  0  0  0  0
   48.4700  158.3130   30.8490 C   0  0  0  0  0  0  0  0  0  0  0  0
   47.9730  159.4060   31.5610 C   0  0  0  0  0  0  0  0  0  0  0  0
   48.7930  160.5080   31.8140 C   0  0  0  0  0  0  0  0  0  0  0  0
   50.1080  160.5130   31.3570 C   0  0  0  0  0  0  0  0  0  0  0  0
   50.8550  161.6240   31.6390 O   0  0  0  0  0  0  0  0  0  0  0  0
   50.6050  159.4180   30.6450 C   0  0  0  0  0  0  0  0  0  0  0  0
   51.9810  159.3840   30.1470 C   0  0  0  0  0  0  0  0  0  0  0  0
   52.7610  160.3180   30.3240 O   0  0  0  0  0  0  0  0  0  0  0  0
   52.4130  158.1740   29.4100 C   0  0  0  0  0  0  0  0  0  0  0  0
   53.7110  158.1580   28.9320 O   0  0  0  0  0  0  0  0  0  0  0  0
   52.2430  155.9860   27.1650 C   0  0  0  0  0  0  0  0  0  0  0  0
   52.5240  154.8220   26.4250 C   0  0  0  0  0  0  0  0  0  0  0  0
   52.9690  154.9600   24.9960 C   0  0  0  0  0  0  0  0  0  0  0  0
   54.5028  150.1449   25.2092 H   0  0  0  0  0  0  0  0  0  0  0  0
   53.4186  151.1240   24.1640 H   0  0  0  0  0  0  0  0  0  0  0  0
   55.1877  151.4353   24.1640 H   0  0  0  0  0  0  0  0  0  0  0  0
   54.7452  151.8259   26.7764 H   0  0  0  0  0  0  0  0  0  0  0  0
   54.4867  153.1339   25.5515 H   0  0  0  0  0  0  0  0  0  0  0  0
   52.0512  152.2164   25.4299 H   0  0  0  0  0  0  0  0  0  0  0  0
   52.4581  151.4380   27.0173 H   0  0  0  0  0  0  0  0  0  0  0  0
   51.8776  152.5304   28.8836 H   0  0  0  0  0  0  0  0  0  0  0  0
   51.3746  154.6033   30.1538 H   0  0  0  0  0  0  0  0  0  0  0  0
   47.8230  157.4464   30.6483 H   0  0  0  0  0  0  0  0  0  0  0  0
   46.9344  159.3994   31.9232 H   0  0  0  0  0  0  0  0  0  0  0  0
   48.4006  161.3702   32.3732 H   0  0  0  0  0  0  0  0  0  0  0  0
   50.6620  162.4380   31.2160 H   0  0  0  0  0  0  0  0  0  0  0  0
   54.0540  157.3830   28.5350 H   0  0  0  0  0  0  0  0  0  0  0  0
   52.3427  156.9670   26.6775 H   0  0  0  0  0  0  0  0  0  0  0  0
   54.0193  155.2857   24.9689 H   0  0  0  0  0  0  0  0  0  0  0  0
   52.8727  153.9898   24.4867 H   0  0  0  0  0  0  0  0  0  0  0  0
   52.3407  155.7055   24.4867 H   0  0  0  0  0  0  0  0  0  0  0  0
  1  2  1  0
  2  3  1  0
  3  4  1  0
  4  5  2  0
  5  6  1  0
  6  7  2  0
  7  8  1  0
  8  9  1  0
  9 10  1  0
 10 11  2  0
 11 12  1  0
 12 13  2  0
 13 14  1  0
 14 15  1  0
 14 16  2  0
 16 17  1  0
 17 18  2  0
 17 19  1  0
 19 20  1  0
  7 21  1  0
 21 22  2  0
 22 23  1  0
 22  4  1  0
 19  8  2  0
 16 10  1  0
  1 24  1  0
  1 25  1  0
  1 26  1  0
  2 27  1  0
  2 28  1  0
  3 29  1  0
  3 30  1  0
  5 31  1  0
  6 32  1  0
 11 33  1  0
 12 34  1  0
 13 35  1  0
 15 36  1  0
 20 37  1  0
 21 38  1  0
 23 39  1  0
 23 40  1  0
 23 41  1  0
M  END
>  <meeko>  (3) 
{"is_sidechain": [false], "free_energy": -10.006, "intermolecular_energy": -12.589, "internal_energy": -0.078}

$$$$
cand_055_out
     RDKit          3D

 41 43  0  0  0  0  0  0  0  0999 V2000
   47.2810  159.8090   31.5680 C   0  0  0  0  0  0  0  0  0  0  0  0
   48.1430  159.1030   30.5330 C   0  0  0  0  0  0  0  0  0  0  0  0
   49.2730  158.3120   31.1940 C   0  0  0  0  0  0  0  0  0  0  0  0
   50.0740  157.5230   30.1820 C   0  0  0  0  0  0  0  0  0  0  0  0
   49.5790  156.2750   29.7660 C   0  0  0  0  0  0  0  0  0  0  0  0
   50.2780  155.4960   28.8410 C   0  0  0  0  0  0  0  0  0  0  0  0
   51.4870  155.9420   28.3020 C   0  0  0  0  0  0  0  0  0  0  0  0
   52.2590  155.1260   27.3400 C   0  0  0  0  0  0  0  0  0  0  0  0
   51.9640  153.7700   27.4230 O   0  0  0  0  0  0  0  0  0  0  0  0
   52.6100  152.8980   26.5850 C   0  0  0  0  0  0  0  0  0  0  0  0
   52.2720  151.5480   26.6930 C   0  0  0  0  0  0  0  0  0  0  0  0
   52.8940  150.6070   25.8700 C   0  0  0  0  0  0  0  0  0  0  0  0
   53.8540  151.0140   24.9410 C   0  0  0  0  0  0  0  0  0  0  0  0
   54.1880  152.3620   24.8350 C   0  0  0  0  0  0  0  0  0  0  0  0
   55.1360  152.6920   23.9060 O   0  0  0  0  0  0  0  0  0  0  0  0
   53.5650  153.3040   25.6580 C   0  0  0  0  0  0  0  0  0  0  0  0
   53.8880  154.7290   25.5800 C   0  0  0  0  0  0  0  0  0  0  0  0
   54.7260  155.1640   24.7930 O   0  0  0  0  0  0  0  0  0  0  0  0
   53.1650  155.6470   26.4920 C   0  0  0  0  0  0  0  0  0  0  0  0
   53.4880  156.9900   26.4170 O   0  0  0  0  0  0  0  0  0  0  0  0
   51.9890  157.1810   28.7280 C   0  0  0  0  0  0  0  0  0  0  0  0
   51.3030  157.9770   29.6650 C   0  0  0  0  0  0  0  0  0  0  0  0
   51.8920  159.3020   30.0620 C   0  0  0  0  0  0  0  0  0  0  0  0
   47.6192  159.5320   32.5774 H   0  0  0  0  0  0  0  0  0  0  0  0
   47.3692  160.8977   31.4376 H   0  0  0  0  0  0  0  0  0  0  0  0
   46.2310  159.5080   31.4376 H   0  0  0  0  0  0  0  0  0  0  0  0
   47.5131  158.4115   29.9541 H   0  0  0  0  0  0  0  0  0  0  0  0
   48.5908  159.8646   29.8776 H   0  0  0  0  0  0  0  0  0  0  0  0
   49.9444  159.0141   31.7100 H   0  0  0  0  0  0  0  0  0  0  0  0
   48.8232  157.6012   31.9028 H   0  0  0  0  0  0  0  0  0  0  0  0
   48.6268  155.9062   30.1750 H   0  0  0  0  0  0  0  0  0  0  0  0
   49.8721  154.5209   28.5337 H   0  0  0  0  0  0  0  0  0  0  0  0
   51.5169  151.2260   27.4252 H   0  0  0  0  0  0  0  0  0  0  0  0
   52.6273  149.5431   25.9536 H   0  0  0  0  0  0  0  0  0  0  0  0
   54.3452  150.2718   24.2946 H   0  0  0  0  0  0  0  0  0  0  0  0
   55.8140  153.3020   24.1240 H   0  0  0  0  0  0  0  0  0  0  0  0
   54.0730  157.2940   25.7520 H   0  0  0  0  0  0  0  0  0  0  0  0
   52.9447  157.5403   28.3187 H   0  0  0  0  0  0  0  0  0  0  0  0
   51.9244  159.3749   31.1591 H   0  0  0  0  0  0  0  0  0  0  0  0
   52.9120  159.3855   29.6587 H   0  0  0  0  0  0  0  0  0  0  0  0
   51.2706  160.1151   29.6587 H   0  0  0  0  0  0  0  0  0  0  0  0
  1  2  1  0
  2  3  1  0
  3  4  1  0
  4  5  2  0
  5  6  1  0
  6  7  2  0
  7  8  1  0
  8  9  1  0
  9 10  1  0
 10 11  2  0
 11 12  1  0
 12 13  2  0
 13 14  1  0
 14 15  1  0
 14 16  2  0
 16 17  1  0
 17 18  2  0
 17 19  1  0
 19 20  1  0
  7 21  1  0
 21 22  2  0
 22 23  1  0
 22  4  1  0
 19  8  2  0
 16 10  1  0
  1 24  1  0
  1 25  1  0
  1 26  1  0
  2 27  1  0
  2 28  1  0
  3 29  1  0
  3 30  1  0
  5 31  1  0
  6 32  1  0
 11 33  1  0
 12 34  1  0
 13 35  1  0
 15 36  1  0
 20 37  1  0
 21 38  1  0
 23 39  1  0
 23 40  1  0
 23 41  1  0
M  END
>  <meeko>  (4) 
{"is_sidechain": [false], "free_energy": -9.037, "intermolecular_energy": -11.511, "internal_energy": 0.04}

$$$$
cand_055_out
     RDKit          3D

 41 43  0  0  0  0  0  0  0  0999 V2000
   53.3800  150.9840   25.5530 C   0  0  0  0  0  0  0  0  0  0  0  0
   52.6980  152.1330   26.2790 C   0  0  0  0  0  0  0  0  0  0  0  0
   53.6070  153.3600   26.3610 C   0  0  0  0  0  0  0  0  0  0  0  0
   52.9740  154.4770   27.1610 C   0  0  0  0  0  0  0  0  0  0  0  0
   52.2970  154.1470   28.3470 C   0  0  0  0  0  0  0  0  0  0  0  0
   51.6840  155.1330   29.1230 C   0  0  0  0  0  0  0  0  0  0  0  0
   51.7340  156.4760   28.7400 C   0  0  0  0  0  0  0  0  0  0  0  0
   51.0740  157.5370   29.5310 C   0  0  0  0  0  0  0  0  0  0  0  0
   51.9200  158.6010   29.8210 O   0  0  0  0  0  0  0  0  0  0  0  0
   51.4350  159.6550   30.5500 C   0  0  0  0  0  0  0  0  0  0  0  0
   52.3150  160.7080   30.8060 C   0  0  0  0  0  0  0  0  0  0  0  0
   51.8850  161.8120   31.5450 C   0  0  0  0  0  0  0  0  0  0  0  0
   50.5760  161.8640   32.0280 C   0  0  0  0  0  0  0  0  0  0  0  0
   49.6990  160.8130   31.7700 C   0  0  0  0  0  0  0  0  0  0  0  0
   48.4330  160.9270   32.2740 O   0  0  0  0  0  0  0  0  0  0  0  0
   50.1310  159.7080   31.0310 C   0  0  0  0  0  0  0  0  0  0  0  0
   49.2420  158.5820   30.7390 C   0  0  0  0  0  0  0  0  0  0  0  0
   48.0780  158.5520   31.1350 O   0  0  0  0  0  0  0  0  0  0  0  0
   49.7940  157.4630   29.9400 C   0  0  0  0  0  0  0  0  0  0  0  0
   48.9480  156.3990   29.6810 O   0  0  0  0  0  0  0  0  0  0  0  0
   52.3980  156.8040   27.5480 C   0  0  0  0  0  0  0  0  0  0  0  0
   53.0140  155.8230   26.7490 C   0  0  0  0  0  0  0  0  0  0  0  0
   53.7220  156.2500   25.4930 C   0  0  0  0  0  0  0  0  0  0  0  0
   53.7972  150.2812   26.2892 H   0  0  0  0  0  0  0  0  0  0  0  0
   52.6457  150.4614   24.9223 H   0  0  0  0  0  0  0  0  0  0  0  0
   54.1904  151.3783   24.9223 H   0  0  0  0  0  0  0  0  0  0  0  0
   51.7796  152.4036   25.7374 H   0  0  0  0  0  0  0  0  0  0  0  0
   52.4655  151.8057   27.3031 H   0  0  0  0  0  0  0  0  0  0  0  0
   54.5533  153.0704   26.8413 H   0  0  0  0  0  0  0  0  0  0  0  0
   53.7782  153.7271   25.3383 H   0  0  0  0  0  0  0  0  0  0  0  0
   52.2491  153.0963   28.6691 H   0  0  0  0  0  0  0  0  0  0  0  0
   51.1562  154.8495   30.0455 H   0  0  0  0  0  0  0  0  0  0  0  0
   53.3464  160.6681   30.4258 H   0  0  0  0  0  0  0  0  0  0  0  0
   52.5784  162.6417   31.7469 H   0  0  0  0  0  0  0  0  0  0  0  0
   50.2379  162.7333   32.6112 H   0  0  0  0  0  0  0  0  0  0  0  0
   47.9590  160.1610   32.5310 H   0  0  0  0  0  0  0  0  0  0  0  0
   48.4460  156.3830   28.8910 H   0  0  0  0  0  0  0  0  0  0  0  0
   52.4380  157.8562   27.2297 H   0  0  0  0  0  0  0  0  0  0  0  0
   54.6364  156.8015   25.7570 H   0  0  0  0  0  0  0  0  0  0  0  0
   53.9876  155.3613   24.9016 H   0  0  0  0  0  0  0  0  0  0  0  0
   53.0599  156.8995   24.9016 H   0  0  0  0  0  0  0  0  0  0  0  0
  1  2  1  0
  2  3  1  0
  3  4  1  0
  4  5  2  0
  5  6  1  0
  6  7  2  0
  7  8  1  0
  8  9  1  0
  9 10  1  0
 10 11  2  0
 11 12  1  0
 12 13  2  0
 13 14  1  0
 14 15  1  0
 14 16  2  0
 16 17  1  0
 17 18  2  0
 17 19  1  0
 19 20  1  0
  7 21  1  0
 21 22  2  0
 22 23  1  0
 22  4  1  0
 19  8  2  0
 16 10  1  0
  1 24  1  0
  1 25  1  0
  1 26  1  0
  2 27  1  0
  2 28  1  0
  3 29  1  0
  3 30  1  0
  5 31  1  0
  6 32  1  0
 11 33  1  0
 12 34  1  0
 13 35  1  0
 15 36  1  0
 20 37  1  0
 21 38  1  0
 23 39  1  0
 23 40  1  0
 23 41  1  0
M  END
>  <meeko>  (5) 
{"is_sidechain": [false], "free_energy": -9.035, "intermolecular_energy": -11.182, "internal_energy": -0.287}

$$$$
cand_055_out
     RDKit          3D

 41 43  0  0  0  0  0  0  0  0999 V2000
   54.1720  150.6710   24.9170 C   0  0  0  0  0  0  0  0  0  0  0  0
   53.3640  151.7270   25.6550 C   0  0  0  0  0  0  0  0  0  0  0  0
   53.8400  153.1380   25.3060 C   0  0  0  0  0  0  0  0  0  0  0  0
   53.2400  154.1780   26.2270 C   0  0  0  0  0  0  0  0  0  0  0  0
   52.4550  153.7390   27.3060 C   0  0  0  0  0  0  0  0  0  0  0  0
   51.8660  154.6510   28.1860 C   0  0  0  0  0  0  0  0  0  0  0  0
   52.0490  156.0260   28.0140 C   0  0  0  0  0  0  0  0  0  0  0  0
   51.4170  157.0140   28.9160 C   0  0  0  0  0  0  0  0  0  0  0  0
   52.2270  158.1180   29.1590 O   0  0  0  0  0  0  0  0  0  0  0  0
   51.7630  159.1130   29.9800 C   0  0  0  0  0  0  0  0  0  0  0  0
   52.6030  160.2090   30.1850 C   0  0  0  0  0  0  0  0  0  0  0  0
   52.1920  161.2570   31.0120 C   0  0  0  0  0  0  0  0  0  0  0  0
   50.9430  161.2080   31.6340 C   0  0  0  0  0  0  0  0  0  0  0  0
   50.1070  160.1140   31.4270 C   0  0  0  0  0  0  0  0  0  0  0  0
   48.8980  160.1300   32.0680 O   0  0  0  0  0  0  0  0  0  0  0  0
   50.5190  159.0660   30.5990 C   0  0  0  0  0  0  0  0  0  0  0  0
   49.6710  157.8970   30.3570 C   0  0  0  0  0  0  0  0  0  0  0  0
   48.5620  157.7790   30.8730 O   0  0  0  0  0  0  0  0  0  0  0  0
   50.1970  156.8450   29.4570 C   0  0  0  0  0  0  0  0  0  0  0  0
   49.3920  155.7400   29.2450 O   0  0  0  0  0  0  0  0  0  0  0  0
   52.8200  156.4650   26.9270 C   0  0  0  0  0  0  0  0  0  0  0  0
   53.4150  155.5610   26.0270 C   0  0  0  0  0  0  0  0  0  0  0  0
   54.2430  156.1030   24.8950 C   0  0  0  0  0  0  0  0  0  0  0  0
   54.6727  150.0167   25.6458 H   0  0  0  0  0  0  0  0  0  0  0  0
   53.5006  150.0705   24.2857 H   0  0  0  0  0  0  0  0  0  0  0  0
   54.9272  151.1620   24.2857 H   0  0  0  0  0  0  0  0  0  0  0  0
   52.3047  151.6272   25.3757 H   0  0  0  0  0  0  0  0  0  0  0  0
   53.4986  151.5735   26.7359 H   0  0  0  0  0  0  0  0  0  0  0  0
   54.9359  153.1756   25.3927 H   0  0  0  0  0  0  0  0  0  0  0  0
   53.5164  153.3635   24.2792 H   0  0  0  0  0  0  0  0  0  0  0  0
   52.3015  152.6608   27.4607 H   0  0  0  0  0  0  0  0  0  0  0  0
   51.2526  154.2833   29.0218 H   0  0  0  0  0  0  0  0  0  0  0  0
   53.5875  160.2473   29.6958 H   0  0  0  0  0  0  0  0  0  0  0  0
   52.8528  162.1215   31.1733 H   0  0  0  0  0  0  0  0  0  0  0  0
   50.6199  162.0324   32.2866 H   0  0  0  0  0  0  0  0  0  0  0  0
   48.6790  160.8420   32.6370 H   0  0  0  0  0  0  0  0  0  0  0  0
   48.5360  155.8480   28.8820 H   0  0  0  0  0  0  0  0  0  0  0  0
   52.9633  157.5448   26.7740 H   0  0  0  0  0  0  0  0  0  0  0  0
   55.0982  156.6628   25.3015 H   0  0  0  0  0  0  0  0  0  0  0  0
   54.6102  155.2699   24.2777 H   0  0  0  0  0  0  0  0  0  0  0  0
   53.6264  156.7728   24.2777 H   0  0  0  0  0  0  0  0  0  0  0  0
  1  2  1  0
  2  3  1  0
  3  4  1  0
  4  5  2  0
  5  6  1  0
  6  7  2  0
  7  8  1  0
  8  9  1  0
  9 10  1  0
 10 11  2  0
 11 12  1  0
 12 13  2  0
 13 14  1  0
 14 15  1  0
 14 16  2  0
 16 17  1  0
 17 18  2  0
 17 19  1  0
 19 20  1  0
  7 21  1  0
 21 22  2  0
 22 23  1  0
 22  4  1  0
 19  8  2  0
 16 10  1  0
  1 24  1  0
  1 25  1  0
  1 26  1  0
  2 27  1  0
  2 28  1  0
  3 29  1  0
  3 30  1  0
  5 31  1  0
  6 32  1  0
 11 33  1  0
 12 34  1  0
 13 35  1  0
 15 36  1  0
 20 37  1  0
 21 38  1  0
 23 39  1  0
 23 40  1  0
 23 41  1  0
M  END
>  <meeko>  (6) 
{"is_sidechain": [false], "free_energy": -8.39, "intermolecular_energy": -10.552, "internal_energy": -0.121}

$$$$
cand_055_out
     RDKit          3D

 41 43  0  0  0  0  0  0  0  0999 V2000
   51.5400  161.9910   30.7010 C   0  0  0  0  0  0  0  0  0  0  0  0
   51.9100  160.5670   31.0840 C   0  0  0  0  0  0  0  0  0  0  0  0
   50.7370  159.6090   30.8700 C   0  0  0  0  0  0  0  0  0  0  0  0
   51.1360  158.4070   30.0440 C   0  0  0  0  0  0  0  0  0  0  0  0
   52.4300  158.3710   29.4990 C   0  0  0  0  0  0  0  0  0  0  0  0
   52.8540  157.2920   28.7190 C   0  0  0  0  0  0  0  0  0  0  0  0
   51.9980  156.2160   28.4670 C   0  0  0  0  0  0  0  0  0  0  0  0
   52.4130  155.0730   27.6250 C   0  0  0  0  0  0  0  0  0  0  0  0
   53.1530  155.4610   26.5140 O   0  0  0  0  0  0  0  0  0  0  0  0
   53.6020  154.4980   25.6470 C   0  0  0  0  0  0  0  0  0  0  0  0
   54.3530  154.9310   24.5530 C   0  0  0  0  0  0  0  0  0  0  0  0
   54.8400  154.0020   23.6310 C   0  0  0  0  0  0  0  0  0  0  0  0
   54.5750  152.6420   23.8010 C   0  0  0  0  0  0  0  0  0  0  0  0
   53.8250  152.2130   24.8940 C   0  0  0  0  0  0  0  0  0  0  0  0
   53.6020  150.8670   24.9990 O   0  0  0  0  0  0  0  0  0  0  0  0
   53.3390  153.1430   25.8170 C   0  0  0  0  0  0  0  0  0  0  0  0
   52.5470  152.7340   26.9780 C   0  0  0  0  0  0  0  0  0  0  0  0
   52.2670  151.5570   27.1920 O   0  0  0  0  0  0  0  0  0  0  0  0
   52.0860  153.7970   27.9010 C   0  0  0  0  0  0  0  0  0  0  0  0
   51.3280  153.4000   28.9870 O   0  0  0  0  0  0  0  0  0  0  0  0
   50.7000  156.2580   28.9980 C   0  0  0  0  0  0  0  0  0  0  0  0
   50.2540  157.3410   29.7800 C   0  0  0  0  0  0  0  0  0  0  0  0
   48.8560  157.3090   30.3320 C   0  0  0  0  0  0  0  0  0  0  0  0
   51.3851  162.5873   31.6123 H   0  0  0  0  0  0  0  0  0  0  0  0
   52.3529  162.4339   30.1068 H   0  0  0  0  0  0  0  0  0  0  0  0
   50.6143  161.9821   30.1068 H   0  0  0  0  0  0  0  0  0  0  0  0
   52.7578  160.2386   30.4649 H   0  0  0  0  0  0  0  0  0  0  0  0
   52.1776  160.5538   32.1509 H   0  0  0  0  0  0  0  0  0  0  0  0
   50.3763  159.2635   31.8501 H   0  0  0  0  0  0  0  0  0  0  0  0
   49.9487  160.1504   30.3265 H   0  0  0  0  0  0  0  0  0  0  0  0
   53.1207  159.2057   29.6893 H   0  0  0  0  0  0  0  0  0  0  0  0
   53.8708  157.2893   28.2994 H   0  0  0  0  0  0  0  0  0  0  0  0
   54.5610  156.0026   24.4173 H   0  0  0  0  0  0  0  0  0  0  0  0
   55.4333  154.3424   22.7695 H   0  0  0  0  0  0  0  0  0  0  0  0
   54.9574  151.9107   23.0737 H   0  0  0  0  0  0  0  0  0  0  0  0
   54.3240  150.2700   24.9840 H   0  0  0  0  0  0  0  0  0  0  0  0
   50.6920  152.7190   28.8910 H   0  0  0  0  0  0  0  0  0  0  0  0
   50.0125  155.4229   28.7982 H   0  0  0  0  0  0  0  0  0  0  0  0
   48.8957  157.3099   31.4313 H   0  0  0  0  0  0  0  0  0  0  0  0
   48.3041  158.1948   29.9843 H   0  0  0  0  0  0  0  0  0  0  0  0
   48.3452  156.3989   29.9843 H   0  0  0  0  0  0  0  0  0  0  0  0
  1  2  1  0
  2  3  1  0
  3  4  1  0
  4  5  2  0
  5  6  1  0
  6  7  2  0
  7  8  1  0
  8  9  1  0
  9 10  1  0
 10 11  2  0
 11 12  1  0
 12 13  2  0
 13 14  1  0
 14 15  1  0
 14 16  2  0
 16 17  1  0
 17 18  2  0
 17 19  1  0
 19 20  1  0
  7 21  1  0
 21 22  2  0
 22 23  1  0
 22  4  1  0
 19  8  2  0
 16 10  1  0
  1 24  1  0
  1 25  1  0
  1 26  1  0
  2 27  1  0
  2 28  1  0
  3 29  1  0
  3 30  1  0
  5 31  1  0
  6 32  1  0
 11 33  1  0
 12 34  1  0
 13 35  1  0
 15 36  1  0
 20 37  1  0
 21 38  1  0
 23 39  1  0
 23 40  1  0
 23 41  1  0
M  END
>  <meeko>  (7) 
{"is_sidechain": [false], "free_energy": -8.345, "intermolecular_energy": -10.448, "internal_energy": -0.17}

$$$$
