cand_049_out
     RDKit          3D

 47 49  0  0  0  0  0  0  0  0999 V2000
   52.4420  161.3900   31.8200 C   0  0  0  0  0  0  0  0  0  0  0  0
   52.2370  161.0170   30.3590 C   0  0  0  0  0  0  0  0  0  0  0  0
   51.3740  159.7830   30.2090 C   0  0  0  0  0  0  0  0  0  0  0  0
   51.9320  158.6650   29.5550 C   0  0  0  0  0  0  0  0  0  0  0  0
   51.2260  157.4630   29.4040 C   0  0  0  0  0  0  0  0  0  0  0  0
   51.8450  156.3300   28.6820 C   0  0  0  0  0  0  0  0  0  0  0  0
   52.3930  156.7030   27.4600 O   0  0  0  0  0  0  0  0  0  0  0  0
   53.0000  155.7480   26.6870 C   0  0  0  0  0  0  0  0  0  0  0  0
   53.5240  156.1640   25.4620 C   0  0  0  0  0  0  0  0  0  0  0  0
   54.1570  155.2410   24.6260 C   0  0  0  0  0  0  0  0  0  0  0  0
   54.2670  153.9050   25.0150 C   0  0  0  0  0  0  0  0  0  0  0  0
   53.7440  153.4920   26.2370 C   0  0  0  0  0  0  0  0  0  0  0  0
   53.8870  152.1700   26.5560 O   0  0  0  0  0  0  0  0  0  0  0  0
   53.1100  154.4160   27.0730 C   0  0  0  0  0  0  0  0  0  0  0  0
   52.5450  154.0240   28.3660 C   0  0  0  0  0  0  0  0  0  0  0  0
   52.6090  152.8690   28.7800 O   0  0  0  0  0  0  0  0  0  0  0  0
   51.8880  155.0780   29.1730 C   0  0  0  0  0  0  0  0  0  0  0  0
   51.3710  154.6990   30.3990 O   0  0  0  0  0  0  0  0  0  0  0  0
   49.9280  157.3900   29.9150 C   0  0  0  0  0  0  0  0  0  0  0  0
   49.3610  158.4850   30.5720 C   0  0  0  0  0  0  0  0  0  0  0  0
   50.0670  159.6890   30.7280 C   0  0  0  0  0  0  0  0  0  0  0  0
   49.3800  160.8360   31.4420 C   0  0  0  0  0  0  0  0  0  0  0  0
   48.5370  160.4010   32.6580 C   0  0  0  0  0  0  0  0  0  0  0  0
   48.5050  161.4670   33.7550 C   0  0  0  0  0  0  0  0  0  0  0  0
   47.1070  160.0860   32.2070 C   0  0  0  0  0  0  0  0  0  0  0  0
   52.0118  160.6073   32.4621 H   0  0  0  0  0  0  0  0  0  0  0  0
   53.5183  161.4836   32.0270 H   0  0  0  0  0  0  0  0  0  0  0  0
   51.9441  162.3488   32.0270 H   0  0  0  0  0  0  0  0  0  0  0  0
   51.7498  161.8570   29.8422 H   0  0  0  0  0  0  0  0  0  0  0  0
   53.2222  160.8002   29.9203 H   0  0  0  0  0  0  0  0  0  0  0  0
   52.9525  158.7382   29.1509 H   0  0  0  0  0  0  0  0  0  0  0  0
   53.4386  157.2169   25.1554 H   0  0  0  0  0  0  0  0  0  0  0  0
   54.5693  155.5675   23.6599 H   0  0  0  0  0  0  0  0  0  0  0  0
   54.7665  153.1792   24.3564 H   0  0  0  0  0  0  0  0  0  0  0  0
   53.7610  151.5130   25.8990 H   0  0  0  0  0  0  0  0  0  0  0  0
   50.4430  154.6880   30.5330 H   0  0  0  0  0  0  0  0  0  0  0  0
   49.3475  156.4628   29.7992 H   0  0  0  0  0  0  0  0  0  0  0  0
   48.3409  158.4024   30.9753 H   0  0  0  0  0  0  0  0  0  0  0  0
   50.1513  161.5393   31.7892 H   0  0  0  0  0  0  0  0  0  0  0  0
   48.6866  161.2917   30.7198 H   0  0  0  0  0  0  0  0  0  0  0  0
   49.0102  159.5034   33.0827 H   0  0  0  0  0  0  0  0  0  0  0  0
   48.5196  160.9792   34.7408 H   0  0  0  0  0  0  0  0  0  0  0  0
   49.3839  162.1211   33.6564 H   0  0  0  0  0  0  0  0  0  0  0  0
   47.5884  162.0672   33.6564 H   0  0  0  0  0  0  0  0  0  0  0  0
   46.4667  159.9449   33.0902 H   0  0  0  0  0  0  0  0  0  0  0  0
   46.7206  160.9206   31.6035 H   0  0  0  0  0  0  0  0  0  0  0  0
   47.1071  159.1663   31.6035 H   0  0  0  0  0  0  0  0  0  0  0  0
  1  2  1  0
  2  3  1  0
  3  4  2  0
  4  5  1  0
  5  6  1  0
  6  7  1  0
  7  8  1  0
  8  9  2  0
  9 10  1  0
 10 11  2  0
 11 12  1  0
 12 13  1  0
 12 14  2  0
 14 15  1  0
 15 16  2  0
 15 17  1  0
 17 18  1  0
  5 19  2  0
 19 20  1  0
 20 21  2  0
 21 22  1  0
 22 23  1  0
 23 24  1  0
 23 25  1  0
 21  3  1  0
 17  6  2  0
 14  8  1  0
  1 26  1  0
  1 27  1  0
  1 28  1  0
  2 29  1  0
  2 30  1  0
  4 31  1  0
  9 32  1  0
 10 33  1  0
 11 34  1  0
 13 35  1  0
 18 36  1  0
 19 37  1  0
 20 38  1  0
 22 39  1  0
 22 40  1  0
 23 41  1  0
 24 42  1  0
 24 43  1  0
 24 44  1  0
 25 45  1  0
 25 46  1  0
 25 47  1  0
M  END
>  <meeko>  (1) 
{"is_sidechain": [false], "free_energy": -10.712, "intermolecular_energy": -13.844, "internal_energy": -0.017}

$$$$
cand_049_out
     RDKit          3D

 47 49  0  0  0  0  0  0  0  0999 V2000
   54.1900  155.9250   24.7780 C   0  0  0  0  0  0  0  0  0  0  0  0
   53.0650  154.9120   24.9400 C   0  0  0  0  0  0  0  0  0  0  0  0
   52.6560  154.7520   26.3870 C   0  0  0  0  0  0  0  0  0  0  0  0
   52.3160  155.9160   27.1070 C   0  0  0  0  0  0  0  0  0  0  0  0
   51.8860  155.8650   28.4410 C   0  0  0  0  0  0  0  0  0  0  0  0
   51.5690  157.1180   29.1620 C   0  0  0  0  0  0  0  0  0  0  0  0
   50.2660  157.1480   29.6450 O   0  0  0  0  0  0  0  0  0  0  0  0
   49.8390  158.2540   30.3330 C   0  0  0  0  0  0  0  0  0  0  0  0
   48.5200  158.2480   30.7870 C   0  0  0  0  0  0  0  0  0  0  0  0
   48.0220  159.3430   31.4980 C   0  0  0  0  0  0  0  0  0  0  0  0
   48.8430  160.4420   31.7550 C   0  0  0  0  0  0  0  0  0  0  0  0
   50.1600  160.4460   31.3010 C   0  0  0  0  0  0  0  0  0  0  0  0
   50.9090  161.5530   31.5880 O   0  0  0  0  0  0  0  0  0  0  0  0
   50.6570  159.3510   30.5900 C   0  0  0  0  0  0  0  0  0  0  0  0
   52.0340  159.3140   30.0940 C   0  0  0  0  0  0  0  0  0  0  0  0
   52.8190  160.2400   30.2870 O   0  0  0  0  0  0  0  0  0  0  0  0
   52.4610  158.1090   29.3450 C   0  0  0  0  0  0  0  0  0  0  0  0
   53.7680  158.0800   28.8950 O   0  0  0  0  0  0  0  0  0  0  0  0
   51.8060  154.6180   29.0640 C   0  0  0  0  0  0  0  0  0  0  0  0
   52.1340  153.4530   28.3650 C   0  0  0  0  0  0  0  0  0  0  0  0
   52.5610  153.5000   27.0270 C   0  0  0  0  0  0  0  0  0  0  0  0
   52.9090  152.1950   26.3390 C   0  0  0  0  0  0  0  0  0  0  0  0
   54.0740  152.3080   25.3350 C   0  0  0  0  0  0  0  0  0  0  0  0
   55.4330  152.4130   26.0320 C   0  0  0  0  0  0  0  0  0  0  0  0
   54.0700  151.0950   24.4010 C   0  0  0  0  0  0  0  0  0  0  0  0
   54.5429  156.2428   25.7702 H   0  0  0  0  0  0  0  0  0  0  0  0
   55.0209  155.4646   24.2234 H   0  0  0  0  0  0  0  0  0  0  0  0
   53.8189  156.7995   24.2234 H   0  0  0  0  0  0  0  0  0  0  0  0
   52.1944  155.2512   24.3595 H   0  0  0  0  0  0  0  0  0  0  0  0
   53.4273  153.9385   24.5779 H   0  0  0  0  0  0  0  0  0  0  0  0
   52.3903  156.8932   26.6074 H   0  0  0  0  0  0  0  0  0  0  0  0
   47.8724  157.3820   30.5855 H   0  0  0  0  0  0  0  0  0  0  0  0
   46.9817  159.3388   31.8555 H   0  0  0  0  0  0  0  0  0  0  0  0
   48.4508  161.3036   32.3151 H   0  0  0  0  0  0  0  0  0  0  0  0
   50.6180  162.1600   32.2410 H   0  0  0  0  0  0  0  0  0  0  0  0
   54.0060  157.5170   28.1850 H   0  0  0  0  0  0  0  0  0  0  0  0
   51.4823  154.5520   30.1132 H   0  0  0  0  0  0  0  0  0  0  0  0
   52.0564  152.4800   28.8723 H   0  0  0  0  0  0  0  0  0  0  0  0
   53.1862  151.4606   27.1096 H   0  0  0  0  0  0  0  0  0  0  0  0
   52.0215  151.8908   25.7647 H   0  0  0  0  0  0  0  0  0  0  0  0
   53.9236  153.2330   24.7590 H   0  0  0  0  0  0  0  0  0  0  0  0
   55.2877  152.4018   27.1223 H   0  0  0  0  0  0  0  0  0  0  0  0
   56.0631  151.5609   25.7373 H   0  0  0  0  0  0  0  0  0  0  0  0
   55.9247  153.3518   25.7373 H   0  0  0  0  0  0  0  0  0  0  0  0
   54.0670  150.1718   24.9990 H   0  0  0  0  0  0  0  0  0  0  0  0
   53.1719  151.1238   23.7664 H   0  0  0  0  0  0  0  0  0  0  0  0
   54.9682  151.1179   23.7664 H   0  0  0  0  0  0  0  0  0  0  0  0
  1  2  1  0
  2  3  1  0
  3  4  2  0
  4  5  1  0
  5  6  1  0
  6  7  1  0
  7  8  1  0
  8  9  2  0
  9 10  1  0
 10 11  2  0
 11 12  1  0
 12 13  1  0
 12 14  2  0
 14 15  1  0
 15 16  2  0
 15 17  1  0
 17 18  1  0
  5 19  2  0
 19 20  1  0
 20 21  2  0
 21 22  1  0
 22 23  1  0
 23 24  1  0
 23 25  1  0
 21  3  1  0
 17  6  2  0
 14  8  1  0
  1 26  1  0
  1 27  1  0
  1 28  1  0
  2 29  1  0
  2 30  1  0
  4 31  1  0
  9 32  1  0
 10 33  1  0
 11 34  1  0
 13 35  1  0
 18 36  1  0
 19 37  1  0
 20 38  1  0
 22 39  1  0
 22 40  1  0
 23 41  1  0
 24 42  1  0
 24 43  1  0
 24 44  1  0
 25 45  1  0
 25 46  1  0
 25 47  1  0
M  END
>  <meeko>  (2) 
{"is_sidechain": [false], "free_energy": -10.316, "intermolecular_energy": -13.27, "internal_energy": -0.078}

$$$$
cand_049_out
     RDKit          3D

 47 49  0  0  0  0  0  0  0  0999 V2000
   47.6370  158.9670   29.8750 C   0  0  0  0  0  0  0  0  0  0  0  0
   48.6410  158.6610   30.9790 C   0  0  0  0  0  0  0  0  0  0  0  0
   50.0530  158.5680   30.4460 C   0  0  0  0  0  0  0  0  0  0  0  0
   50.4150  157.4020   29.7400 C   0  0  0  0  0  0  0  0  0  0  0  0
   51.6870  157.2400   29.1740 C   0  0  0  0  0  0  0  0  0  0  0  0
   52.0270  155.9850   28.4700 C   0  0  0  0  0  0  0  0  0  0  0  0
   52.5590  156.2030   27.2040 O   0  0  0  0  0  0  0  0  0  0  0  0
   52.9180  155.1230   26.4400 C   0  0  0  0  0  0  0  0  0  0  0  0
   53.4350  155.3870   25.1710 C   0  0  0  0  0  0  0  0  0  0  0  0
   53.8230  154.3320   24.3430 C   0  0  0  0  0  0  0  0  0  0  0  0
   53.6940  153.0130   24.7830 C   0  0  0  0  0  0  0  0  0  0  0  0
   53.1780  152.7510   26.0490 C   0  0  0  0  0  0  0  0  0  0  0  0
   53.0800  151.4380   26.4170 O   0  0  0  0  0  0  0  0  0  0  0  0
   52.7900  153.8080   26.8780 C   0  0  0  0  0  0  0  0  0  0  0  0
   52.2430  153.5770   28.2160 C   0  0  0  0  0  0  0  0  0  0  0  0
   52.1060  152.4460   28.6760 O   0  0  0  0  0  0  0  0  0  0  0  0
   51.8550  154.7650   29.0110 C   0  0  0  0  0  0  0  0  0  0  0  0
   51.3530  154.5350   30.2800 O   0  0  0  0  0  0  0  0  0  0  0  0
   52.6160  158.2720   29.3300 C   0  0  0  0  0  0  0  0  0  0  0  0
   52.2750  159.4370   30.0200 C   0  0  0  0  0  0  0  0  0  0  0  0
   50.9990  159.6040   30.5850 C   0  0  0  0  0  0  0  0  0  0  0  0
   50.7070  160.8910   31.3290 C   0  0  0  0  0  0  0  0  0  0  0  0
   49.4190  160.8470   32.1760 C   0  0  0  0  0  0  0  0  0  0  0  0
   49.7120  160.7520   33.6750 C   0  0  0  0  0  0  0  0  0  0  0  0
   48.5750  162.0940   31.8960 C   0  0  0  0  0  0  0  0  0  0  0  0
   46.6764  159.2598   30.3238 H   0  0  0  0  0  0  0  0  0  0  0  0
   48.0167  159.7902   29.2520 H   0  0  0  0  0  0  0  0  0  0  0  0
   47.4930  158.0720   29.2520 H   0  0  0  0  0  0  0  0  0  0  0  0
   48.5969  159.4617   31.7319 H   0  0  0  0  0  0  0  0  0  0  0  0
   48.3778  157.6881   31.4196 H   0  0  0  0  0  0  0  0  0  0  0  0
   49.6761  156.5946   29.6301 H   0  0  0  0  0  0  0  0  0  0  0  0
   53.5368  156.4256   24.8233 H   0  0  0  0  0  0  0  0  0  0  0  0
   54.2308  154.5400   23.3428 H   0  0  0  0  0  0  0  0  0  0  0  0
   53.9997  152.1822   24.1301 H   0  0  0  0  0  0  0  0  0  0  0  0
   52.7560  151.2120   27.2670 H   0  0  0  0  0  0  0  0  0  0  0  0
   50.8370  153.7700   30.4470 H   0  0  0  0  0  0  0  0  0  0  0  0
   53.6252  158.1657   28.9054 H   0  0  0  0  0  0  0  0  0  0  0  0
   53.0197  160.2399   30.1234 H   0  0  0  0  0  0  0  0  0  0  0  0
   51.5539  161.1037   31.9980 H   0  0  0  0  0  0  0  0  0  0  0  0
   50.5615  161.6724   30.5686 H   0  0  0  0  0  0  0  0  0  0  0  0
   48.8666  159.9402   31.8885 H   0  0  0  0  0  0  0  0  0  0  0  0
   48.8159  161.0426   34.2429 H   0  0  0  0  0  0  0  0  0  0  0  0
   49.9884  159.7182   33.9298 H   0  0  0  0  0  0  0  0  0  0  0  0
   50.5424  161.4269   33.9298 H   0  0  0  0  0  0  0  0  0  0  0  0
   48.2667  162.5495   32.8486 H   0  0  0  0  0  0  0  0  0  0  0  0
   49.1699  162.8174   31.3192 H   0  0  0  0  0  0  0  0  0  0  0  0
   47.6823  161.8106   31.3192 H   0  0  0  0  0  0  0  0  0  0  0  0
  1  2  1  0
  2  3  1  0
  3  4  2  0
  4  5  1  0
  5  6  1  0
  6  7  1  0
  7  8  1  0
  8  9  2  0
  9 10  1  0
 10 11  2  0
 11 12  1  0
 12 13  1  0
 12 14  2  0
 14 15  1  0
 15 16  2  0
 15 17  1  0
 17 18  1  0
  5 19  2  0
 19 20  1  0
 20 21  2  0
 21 22  1  0
 22 23  1  0
 23 24  1  0
 23 25  1  0
 21  3  1  0
 17  6  2  0
 14  8  1  0
  1 26  1  0
  1 27  1  0
  1 28  1  0
  2 29  1  0
  2 30  1  0
  4 31  1  0
  9 32  1  0
 10 33  1  0
 11 34  1  0
 13 35  1  0
 18 36  1  0
 19 37  1  0
 20 38  1  0
 22 39  1  0
 22 40  1  0
 23 41  1  0
 24 42  1  0
 24 43  1  0
 24 44  1  0
 25 45  1  0
 25 46  1  0
 25 47  1  0
M  END
>  <meeko>  (3) 
{"is_sidechain": [false], "free_energy": -10.058, "intermolecular_energy": -13.527, "internal_energy": 0.512}

$$$$
cand_049_out
     RDKit          3D

 47 49  0  0  0  0  0  0  0  0999 V2000
   52.8400  155.9620   24.7090 C   0  0  0  0  0  0  0  0  0  0  0  0
   53.7580  155.9170   25.9230 C   0  0  0  0  0  0  0  0  0  0  0  0
   53.0040  155.5660   27.1860 C   0  0  0  0  0  0  0  0  0  0  0  0
   52.3140  156.6010   27.8500 C   0  0  0  0  0  0  0  0  0  0  0  0
   51.5530  156.3650   29.0050 C   0  0  0  0  0  0  0  0  0  0  0  0
   50.8730  157.4910   29.6810 C   0  0  0  0  0  0  0  0  0  0  0  0
   51.7370  158.5330   29.9960 O   0  0  0  0  0  0  0  0  0  0  0  0
   51.2370  159.6430   30.6270 C   0  0  0  0  0  0  0  0  0  0  0  0
   52.1420  160.6580   30.9370 C   0  0  0  0  0  0  0  0  0  0  0  0
   51.6970  161.8160   31.5790 C   0  0  0  0  0  0  0  0  0  0  0  0
   50.3480  161.9590   31.9090 C   0  0  0  0  0  0  0  0  0  0  0  0
   49.4470  160.9450   31.5990 C   0  0  0  0  0  0  0  0  0  0  0  0
   48.1410  161.1490   31.9500 O   0  0  0  0  0  0  0  0  0  0  0  0
   49.8920  159.7860   30.9580 C   0  0  0  0  0  0  0  0  0  0  0  0
   48.9780  158.6950   30.6140 C   0  0  0  0  0  0  0  0  0  0  0  0
   47.7770  158.7500   30.8660 O   0  0  0  0  0  0  0  0  0  0  0  0
   49.5530  157.5060   29.9420 C   0  0  0  0  0  0  0  0  0  0  0  0
   48.6770  156.4880   29.6090 O   0  0  0  0  0  0  0  0  0  0  0  0
   51.4950  155.0620   29.5040 C   0  0  0  0  0  0  0  0  0  0  0  0
   52.1670  154.0230   28.8570 C   0  0  0  0  0  0  0  0  0  0  0  0
   52.9270  154.2540   27.6970 C   0  0  0  0  0  0  0  0  0  0  0  0
   53.6360  153.0780   27.0580 C   0  0  0  0  0  0  0  0  0  0  0  0
   52.8630  152.4440   25.8830 C   0  0  0  0  0  0  0  0  0  0  0  0
   53.7540  152.2090   24.6610 C   0  0  0  0  0  0  0  0  0  0  0  0
   52.2450  151.1160   26.3290 C   0  0  0  0  0  0  0  0  0  0  0  0
   51.7931  156.0133   25.0427 H   0  0  0  0  0  0  0  0  0  0  0  0
   53.0758  156.8497   24.1037 H   0  0  0  0  0  0  0  0  0  0  0  0
   52.9879  155.0555   24.1037 H   0  0  0  0  0  0  0  0  0  0  0  0
   54.5374  155.1599   25.7519 H   0  0  0  0  0  0  0  0  0  0  0  0
   54.1987  156.9162   26.0550 H   0  0  0  0  0  0  0  0  0  0  0  0
   52.3741  157.6241   27.4505 H   0  0  0  0  0  0  0  0  0  0  0  0
   53.2048  160.5467   30.6762 H   0  0  0  0  0  0  0  0  0  0  0  0
   52.4104  162.6163   31.8249 H   0  0  0  0  0  0  0  0  0  0  0  0
   49.9980  162.8718   32.4133 H   0  0  0  0  0  0  0  0  0  0  0  0
   47.6220  160.4340   32.2640 H   0  0  0  0  0  0  0  0  0  0  0  0
   48.4280  155.8560   30.2540 H   0  0  0  0  0  0  0  0  0  0  0  0
   50.9148  154.8523   30.4147 H   0  0  0  0  0  0  0  0  0  0  0  0
   52.1004  153.0029   29.2632 H   0  0  0  0  0  0  0  0  0  0  0  0
   54.6114  153.4232   26.6846 H   0  0  0  0  0  0  0  0  0  0  0  0
   53.7301  152.3030   27.8329 H   0  0  0  0  0  0  0  0  0  0  0  0
   52.0744  153.1517   25.5877 H   0  0  0  0  0  0  0  0  0  0  0  0
   54.7681  151.9415   24.9927 H   0  0  0  0  0  0  0  0  0  0  0  0
   53.3381  151.3898   24.0560 H   0  0  0  0  0  0  0  0  0  0  0  0
   53.7962  153.1267   24.0560 H   0  0  0  0  0  0  0  0  0  0  0  0
   52.2245  151.0719   27.4279 H   0  0  0  0  0  0  0  0  0  0  0  0
   51.2190  151.0400   25.9397 H   0  0  0  0  0  0  0  0  0  0  0  0
   52.8476  150.2821   25.9397 H   0  0  0  0  0  0  0  0  0  0  0  0
  1  2  1  0
  2  3  1  0
  3  4  2  0
  4  5  1  0
  5  6  1  0
  6  7  1  0
  7  8  1  0
  8  9  2  0
  9 10  1  0
 10 11  2  0
 11 12  1  0
 12 13  1  0
 12 14  2  0
 14 15  1  0
 15 16  2  0
 15 17  1  0
 17 18  1  0
  5 19  2  0
 19 20  1  0
 20 21  2  0
 21 22  1  0
 22 23  1  0
 23 24  1  0
 23 25  1  0
 21  3  1  0
 17  6  2  0
 14  8  1  0
  1 26  1  0
  1 27  1  0
  1 28  1  0
  2 29  1  0
  2 30  1  0
  4 31  1  0
  9 32  1  0
 10 33  1  0
 11 34  1  0
 13 35  1  0
 18 36  1  0
 19 37  1  0
 20 38  1  0
 22 39  1  0
 22 40  1  0
 23 41  1  0
 24 42  1  0
 24 43  1  0
 24 44  1  0
 25 45  1  0
 25 46  1  0
 25 47  1  0
M  END
>  <meeko>  (4) 
{"is_sidechain": [false], "free_energy": -9.417, "intermolecular_energy": -11.317, "internal_energy": -0.87}

$$$$
cand_049_out
     RDKit          3D

 47 49  0  0  0  0  0  0  0  0999 V2000
   51.6040  152.4520   27.8000 C   0  0  0  0  0  0  0  0  0  0  0  0
   52.0770  153.4010   28.8930 C   0  0  0  0  0  0  0  0  0  0  0  0
   52.2570  154.8110   28.3760 C   0  0  0  0  0  0  0  0  0  0  0  0
   51.7800  155.8710   29.1750 C   0  0  0  0  0  0  0  0  0  0  0  0
   51.9370  157.2130   28.8000 C   0  0  0  0  0  0  0  0  0  0  0  0
   51.3920  158.2870   29.6590 C   0  0  0  0  0  0  0  0  0  0  0  0
   50.0510  158.0990   29.9730 O   0  0  0  0  0  0  0  0  0  0  0  0
   49.4200  159.0230   30.7650 C   0  0  0  0  0  0  0  0  0  0  0  0
   48.0700  158.8020   31.0430 C   0  0  0  0  0  0  0  0  0  0  0  0
   47.3670  159.7040   31.8460 C   0  0  0  0  0  0  0  0  0  0  0  0
   48.0140  160.8250   32.3700 C   0  0  0  0  0  0  0  0  0  0  0  0
   49.3610  161.0430   32.0910 C   0  0  0  0  0  0  0  0  0  0  0  0
   49.9320  162.1590   32.6370 O   0  0  0  0  0  0  0  0  0  0  0  0
   50.0630  160.1400   31.2880 C   0  0  0  0  0  0  0  0  0  0  0  0
   51.4790  160.3320   30.9700 C   0  0  0  0  0  0  0  0  0  0  0  0
   52.1180  161.2900   31.4000 O   0  0  0  0  0  0  0  0  0  0  0  0
   52.1290  159.3210   30.1040 C   0  0  0  0  0  0  0  0  0  0  0  0
   53.4710  159.5060   29.8220 O   0  0  0  0  0  0  0  0  0  0  0  0
   52.5780  157.4910   27.5910 C   0  0  0  0  0  0  0  0  0  0  0  0
   53.0620  156.4550   26.7880 C   0  0  0  0  0  0  0  0  0  0  0  0
   52.9100  155.1090   27.1630 C   0  0  0  0  0  0  0  0  0  0  0  0
   53.4520  154.0410   26.2350 C   0  0  0  0  0  0  0  0  0  0  0  0
   53.6700  154.5230   24.7860 C   0  0  0  0  0  0  0  0  0  0  0  0
   54.9240  155.3880   24.6440 C   0  0  0  0  0  0  0  0  0  0  0  0
   53.7720  153.3140   23.8510 C   0  0  0  0  0  0  0  0  0  0  0  0
   51.1581  151.5573   28.2590 H   0  0  0  0  0  0  0  0  0  0  0  0
   50.8523  152.9572   27.1758 H   0  0  0  0  0  0  0  0  0  0  0  0
   52.4600  152.1560   27.1758 H   0  0  0  0  0  0  0  0  0  0  0  0
   51.3319  153.4112   29.7022 H   0  0  0  0  0  0  0  0  0  0  0  0
   53.0519  153.0439   29.2564 H   0  0  0  0  0  0  0  0  0  0  0  0
   51.2694  155.6378   30.1210 H   0  0  0  0  0  0  0  0  0  0  0  0
   47.5602  157.9189   30.6304 H   0  0  0  0  0  0  0  0  0  0  0  0
   46.3031  159.5308   32.0655 H   0  0  0  0  0  0  0  0  0  0  0  0
   47.4606  161.5349   33.0023 H   0  0  0  0  0  0  0  0  0  0  0  0
   49.4480  162.9610   32.6770 H   0  0  0  0  0  0  0  0  0  0  0  0
   53.7290  160.0780   29.1260 H   0  0  0  0  0  0  0  0  0  0  0  0
   52.7030  158.5350   27.2678 H   0  0  0  0  0  0  0  0  0  0  0  0
   53.5719  156.6976   25.8440 H   0  0  0  0  0  0  0  0  0  0  0  0
   54.4168  153.6935   26.6331 H   0  0  0  0  0  0  0  0  0  0  0  0
   52.6983  153.2408   26.1950 H   0  0  0  0  0  0  0  0  0  0  0  0
   52.8055  155.1455   24.5119 H   0  0  0  0  0  0  0  0  0  0  0  0
   55.3037  155.6500   25.6426 H   0  0  0  0  0  0  0  0  0  0  0  0
   55.6949  154.8287   24.0937 H   0  0  0  0  0  0  0  0  0  0  0  0
   54.6749  156.3073   24.0937 H   0  0  0  0  0  0  0  0  0  0  0  0
   53.8496  152.3938   24.4487 H   0  0  0  0  0  0  0  0  0  0  0  0
   52.8748  153.2645   23.2164 H   0  0  0  0  0  0  0  0  0  0  0  0
   54.6648  153.4155   23.2164 H   0  0  0  0  0  0  0  0  0  0  0  0
  1  2  1  0
  2  3  1  0
  3  4  2  0
  4  5  1  0
  5  6  1  0
  6  7  1  0
  7  8  1  0
  8  9  2  0
  9 10  1  0
 10 11  2  0
 11 12  1  0
 12 13  1  0
 12 14  2  0
 14 15  1  0
 15 16  2  0
 15 17  1  0
 17 18  1  0
  5 19  2  0
 19 20  1  0
 20 21  2  0
 21 22  1  0
 22 23  1  0
 23 24  1  0
 23 25  1  0
 21  3  1  0
 17  6  2  0
 14  8  1  0
  1 26  1  0
  1 27  1  0
  1 28  1  0
  2 29  1  0
  2 30  1  0
  4 31  1  0
  9 32  1  0
 10 33  1  0
 11 34  1  0
 13 35  1  0
 18 36  1  0
 19 37  1  0
 20 38  1  0
 22 39  1  0
 22 40  1  0
 23 41  1  0
 24 42  1  0
 24 43  1  0
 24 44  1  0
 25 45  1  0
 25 46  1  0
 25 47  1  0
M  END
>  <meeko>  (5) 
{"is_sidechain": [false], "free_energy": -9.298, "intermolecular_energy": -12.522, "internal_energy": 0.489}

$$$$
cand_049_out
     RDKit          3D

 47 49  0  0  0  0  0  0  0  0999 V2000
   51.5990  152.3580   27.4280 C   0  0  0  0  0  0  0  0  0  0  0  0
   52.0780  153.1780   28.6180 C   0  0  0  0  0  0  0  0  0  0  0  0
   52.2350  154.6410   28.2670 C   0  0  0  0  0  0  0  0  0  0  0  0
   51.5830  155.5880   29.0850 C   0  0  0  0  0  0  0  0  0  0  0  0
   51.7020  156.9680   28.8640 C   0  0  0  0  0  0  0  0  0  0  0  0
   50.9750  157.9180   29.7330 C   0  0  0  0  0  0  0  0  0  0  0  0
   51.7490  159.0120   30.1030 O   0  0  0  0  0  0  0  0  0  0  0  0
   51.1960  159.9730   30.9090 C   0  0  0  0  0  0  0  0  0  0  0  0
   52.0130  161.0460   31.2670 C   0  0  0  0  0  0  0  0  0  0  0  0
   51.5120  162.0610   32.0860 C   0  0  0  0  0  0  0  0  0  0  0  0
   50.1940  162.0040   32.5440 C   0  0  0  0  0  0  0  0  0  0  0  0
   49.3800  160.9320   32.1850 C   0  0  0  0  0  0  0  0  0  0  0  0
   48.1010  160.9390   32.6680 O   0  0  0  0  0  0  0  0  0  0  0  0
   49.8830  159.9170   31.3670 C   0  0  0  0  0  0  0  0  0  0  0  0
   49.0620  158.7720   30.9660 C   0  0  0  0  0  0  0  0  0  0  0  0
   47.8920  158.6550   31.3230 O   0  0  0  0  0  0  0  0  0  0  0  0
   49.6920  157.7470   30.1030 C   0  0  0  0  0  0  0  0  0  0  0  0
   48.9020  156.6780   29.7200 O   0  0  0  0  0  0  0  0  0  0  0  0
   52.4860  157.4010   27.7920 C   0  0  0  0  0  0  0  0  0  0  0  0
   53.1430  156.4780   26.9750 C   0  0  0  0  0  0  0  0  0  0  0  0
   53.0300  155.0950   27.1960 C   0  0  0  0  0  0  0  0  0  0  0  0
   53.7640  154.1570   26.2590 C   0  0  0  0  0  0  0  0  0  0  0  0
   53.7590  154.6130   24.7860 C   0  0  0  0  0  0  0  0  0  0  0  0
   54.9200  155.5580   24.4670 C   0  0  0  0  0  0  0  0  0  0  0  0
   53.8270  153.3900   23.8670 C   0  0  0  0  0  0  0  0  0  0  0  0
   51.0748  151.4606   27.7883 H   0  0  0  0  0  0  0  0  0  0  0  0
   50.9126  152.9635   26.8180 H   0  0  0  0  0  0  0  0  0  0  0  0
   52.4636  152.0575   26.8180 H   0  0  0  0  0  0  0  0  0  0  0  0
   51.3451  153.0842   29.4329 H   0  0  0  0  0  0  0  0  0  0  0  0
   53.0619  152.7929   28.9241 H   0  0  0  0  0  0  0  0  0  0  0  0
   50.9627  155.2333   29.9213 H   0  0  0  0  0  0  0  0  0  0  0  0
   53.0506  161.0927   30.9047 H   0  0  0  0  0  0  0  0  0  0  0  0
   52.1564  162.9059   32.3703 H   0  0  0  0  0  0  0  0  0  0  0  0
   49.7992  162.8043   33.1872 H   0  0  0  0  0  0  0  0  0  0  0  0
   47.9490  160.9890   33.5920 H   0  0  0  0  0  0  0  0  0  0  0  0
   49.2990  155.9040   29.3680 H   0  0  0  0  0  0  0  0  0  0  0  0
   52.5868  158.4775   27.5896 H   0  0  0  0  0  0  0  0  0  0  0  0
   53.7617  156.8414   26.1413 H   0  0  0  0  0  0  0  0  0  0  0  0
   54.8089  154.0807   26.5941 H   0  0  0  0  0  0  0  0  0  0  0  0
   53.2365  153.1925   26.2958 H   0  0  0  0  0  0  0  0  0  0  0  0
   52.8237  155.1664   24.6158 H   0  0  0  0  0  0  0  0  0  0  0  0
   55.3658  155.9208   25.4049 H   0  0  0  0  0  0  0  0  0  0  0  0
   55.6813  155.0196   23.8834 H   0  0  0  0  0  0  0  0  0  0  0  0
   54.5473  156.4127   23.8834 H   0  0  0  0  0  0  0  0  0  0  0  0
   53.8778  152.4757   24.4765 H   0  0  0  0  0  0  0  0  0  0  0  0
   52.9292  153.3580   23.2322 H   0  0  0  0  0  0  0  0  0  0  0  0
   54.7228  153.4577   23.2322 H   0  0  0  0  0  0  0  0  0  0  0  0
  1  2  1  0
  2  3  1  0
  3  4  2  0
  4  5  1  0
  5  6  1  0
  6  7  1  0
  7  8  1  0
  8  9  2  0
  9 10  1  0
 10 11  2  0
 11 12  1  0
 12 13  1  0
 12 14  2  0
 14 15  1  0
 15 16  2  0
 15 17  1  0
 17 18  1  0
  5 19  2  0
 19 20  1  0
 20 21  2  0
 21 22  1  0
 22 23  1  0
 23 24  1  0
 23 25  1  0
 21  3  1  0
 17  6  2  0
 14  8  1  0
  1 26  1  0
  1 27  1  0
  1 28  1  0
  2 29  1  0
  2 30  1  0
  4 31  1  0
  9 32  1  0
 10 33  1  0
 11 34  1  0
 13 35  1  0
 18 36  1  0
 19 37  1  0
 20 38  1  0
 22 39  1  0
 22 40  1  0
 23 41  1  0
 24 42  1  0
 24 43  1  0
 24 44  1  0
 25 45  1  0
 25 46  1  0
 25 47  1  0
M  END
>  <meeko>  (6) 
{"is_sidechain": [false], "free_energy": -8.905, "intermolecular_energy": -11.751, "internal_energy": 0.226}

$$$$
cand_049_out
     RDKit          3D

 47 49  0  0  0  0  0  0  0  0999 V2000
   51.6730  160.3360   31.4650 C   0  0  0  0  0  0  0  0  0  0  0  0
   51.9040  159.8650   30.0360 C   0  0  0  0  0  0  0  0  0  0  0  0
   51.2910  158.5040   29.7870 C   0  0  0  0  0  0  0  0  0  0  0  0
   51.9610  157.6330   28.9030 C   0  0  0  0  0  0  0  0  0  0  0  0
   51.4930  156.3370   28.6400 C   0  0  0  0  0  0  0  0  0  0  0  0
   52.2160  155.4730   27.6820 C   0  0  0  0  0  0  0  0  0  0  0  0
   51.8370  154.1370   27.7680 O   0  0  0  0  0  0  0  0  0  0  0  0
   52.4300  153.2250   26.9340 C   0  0  0  0  0  0  0  0  0  0  0  0
   52.0300  151.8950   27.0640 C   0  0  0  0  0  0  0  0  0  0  0  0
   52.5940  150.9140   26.2440 C   0  0  0  0  0  0  0  0  0  0  0  0
   53.5560  151.2650   25.2950 C   0  0  0  0  0  0  0  0  0  0  0  0
   53.9530  152.5930   25.1660 C   0  0  0  0  0  0  0  0  0  0  0  0
   54.8980  152.8660   24.2170 O   0  0  0  0  0  0  0  0  0  0  0  0
   53.3890  153.5730   25.9880 C   0  0  0  0  0  0  0  0  0  0  0  0
   53.7790  154.9810   25.8870 C   0  0  0  0  0  0  0  0  0  0  0  0
   54.6130  155.3680   25.0710 O   0  0  0  0  0  0  0  0  0  0  0  0
   53.1270  155.9400   26.8080 C   0  0  0  0  0  0  0  0  0  0  0  0
   53.4920  157.2690   26.6940 O   0  0  0  0  0  0  0  0  0  0  0  0
   50.3220  155.9160   29.2740 C   0  0  0  0  0  0  0  0  0  0  0  0
   49.6470  156.7630   30.1570 C   0  0  0  0  0  0  0  0  0  0  0  0
   50.1160  158.0600   30.4250 C   0  0  0  0  0  0  0  0  0  0  0  0
   49.3230  158.9230   31.3860 C   0  0  0  0  0  0  0  0  0  0  0  0
   48.0890  159.5960   30.7510 C   0  0  0  0  0  0  0  0  0  0  0  0
   46.9340  159.7460   31.7440 C   0  0  0  0  0  0  0  0  0  0  0  0
   48.4760  160.9720   30.2040 C   0  0  0  0  0  0  0  0  0  0  0  0
   52.0461  159.5754   32.1666 H   0  0  0  0  0  0  0  0  0  0  0  0
   52.2094  161.2820   31.6305 H   0  0  0  0  0  0  0  0  0  0  0  0
   50.5966  160.4910   31.6305 H   0  0  0  0  0  0  0  0  0  0  0  0
   51.4520  160.5911   29.3443 H   0  0  0  0  0  0  0  0  0  0  0  0
   52.9890  159.7864   29.8730 H   0  0  0  0  0  0  0  0  0  0  0  0
   52.8781  157.9803   28.4048 H   0  0  0  0  0  0  0  0  0  0  0  0
   51.2714  151.6187   27.8112 H   0  0  0  0  0  0  0  0  0  0  0  0
   52.2799  149.8648   26.3463 H   0  0  0  0  0  0  0  0  0  0  0  0
   53.9999  150.4927   24.6497 H   0  0  0  0  0  0  0  0  0  0  0  0
   55.5610  152.2330   24.0180 H   0  0  0  0  0  0  0  0  0  0  0  0
   52.8760  157.9440   26.9030 H   0  0  0  0  0  0  0  0  0  0  0  0
   49.9274  154.9084   29.0765 H   0  0  0  0  0  0  0  0  0  0  0  0
   48.7311  156.4075   30.6517 H   0  0  0  0  0  0  0  0  0  0  0  0
   48.9820  158.2903   32.2187 H   0  0  0  0  0  0  0  0  0  0  0  0
   49.9926  159.7312   31.7155 H   0  0  0  0  0  0  0  0  0  0  0  0
   47.7427  158.9450   29.9347 H   0  0  0  0  0  0  0  0  0  0  0  0
   47.3245  159.6953   32.7711 H   0  0  0  0  0  0  0  0  0  0  0  0
   46.4394  160.7159   31.5873 H   0  0  0  0  0  0  0  0  0  0  0  0
   46.2080  158.9346   31.5873 H   0  0  0  0  0  0  0  0  0  0  0  0
   48.6691  161.6585   31.0415 H   0  0  0  0  0  0  0  0  0  0  0  0
   49.3831  160.8801   29.5887 H   0  0  0  0  0  0  0  0  0  0  0  0
   47.6539  161.3664   29.5887 H   0  0  0  0  0  0  0  0  0  0  0  0
  1  2  1  0
  2  3  1  0
  3  4  2  0
  4  5  1  0
  5  6  1  0
  6  7  1  0
  7  8  1  0
  8  9  2  0
  9 10  1  0
 10 11  2  0
 11 12  1  0
 12 13  1  0
 12 14  2  0
 14 15  1  0
 15 16  2  0
 15 17  1  0
 17 18  1  0
  5 19  2  0
 19 20  1  0
 20 21  2  0
 21 22  1  0
 22 23  1  0
 23 24  1  0
 23 25  1  0
 21  3  1  0
 17  6  2  0
 14  8  1  0
  1 26  1  0
  1 27  1  0
  1 28  1  0
  2 29  1  0
  2 30  1  0
  4 31  1  0
  9 32  1  0
 10 33  1  0
 11 34  1  0
 13 35  1  0
 18 36  1  0
 19 37  1  0
 20 38  1  0
 22 39  1  0
 22 40  1  0
 23 41  1  0
 24 42  1  0
 24 43  1  0
 24 44  1  0
 25 45  1  0
 25 46  1  0
 25 47  1  0
M  END
>  <meeko>  (7) 
{"is_sidechain": [false], "free_energy": -8.708, "intermolecular_energy": -11.936, "internal_energy": 0.664}

$$$$
cand_049_out
     RDKit          3D

 47 49  0  0  0  0  0  0  0  0999 V2000
   48.1330  157.8990   29.7070 C   0  0  0  0  0  0  0  0  0  0  0  0
   49.1080  156.8020   30.1150 C   0  0  0  0  0  0  0  0  0  0  0  0
   50.4960  157.0500   29.5660 C   0  0  0  0  0  0  0  0  0  0  0  0
   51.0070  156.1290   28.6290 C   0  0  0  0  0  0  0  0  0  0  0  0
   52.2660  156.2950   28.0340 C   0  0  0  0  0  0  0  0  0  0  0  0
   52.7690  155.2840   27.0790 C   0  0  0  0  0  0  0  0  0  0  0  0
   52.3400  153.9960   27.3800 O   0  0  0  0  0  0  0  0  0  0  0  0
   52.7340  152.9600   26.5740 C   0  0  0  0  0  0  0  0  0  0  0  0
   52.2920  151.6830   26.9220 C   0  0  0  0  0  0  0  0  0  0  0  0
   52.6550  150.5830   26.1420 C   0  0  0  0  0  0  0  0  0  0  0  0
   53.4600  150.7600   25.0150 C   0  0  0  0  0  0  0  0  0  0  0  0
   53.9000  152.0350   24.6700 C   0  0  0  0  0  0  0  0  0  0  0  0
   54.6850  152.1370   23.5540 O   0  0  0  0  0  0  0  0  0  0  0  0
   53.5370  153.1350   25.4510 C   0  0  0  0  0  0  0  0  0  0  0  0
   53.9780  154.4920   25.1240 C   0  0  0  0  0  0  0  0  0  0  0  0
   54.6820  154.7290   24.1450 O   0  0  0  0  0  0  0  0  0  0  0  0
   53.5430  155.5880   26.0210 C   0  0  0  0  0  0  0  0  0  0  0  0
   53.9550  156.8680   25.6940 O   0  0  0  0  0  0  0  0  0  0  0  0
   53.0280  157.4080   28.3980 C   0  0  0  0  0  0  0  0  0  0  0  0
   52.5360  158.3350   29.3200 C   0  0  0  0  0  0  0  0  0  0  0  0
   51.2730  158.1730   29.9150 C   0  0  0  0  0  0  0  0  0  0  0  0
   50.8130  159.2150   30.9150 C   0  0  0  0  0  0  0  0  0  0  0  0
   50.6800  160.6330   30.3240 C   0  0  0  0  0  0  0  0  0  0  0  0
   49.3460  161.2910   30.6870 C   0  0  0  0  0  0  0  0  0  0  0  0
   51.8350  161.5090   30.8190 C   0  0  0  0  0  0  0  0  0  0  0  0
   47.7138  158.3707   30.6080 H   0  0  0  0  0  0  0  0  0  0  0  0
   48.6619  158.6559   29.1092 H   0  0  0  0  0  0  0  0  0  0  0  0
   47.3193  157.4626   29.1092 H   0  0  0  0  0  0  0  0  0  0  0  0
   49.1612  156.7635   31.2130 H   0  0  0  0  0  0  0  0  0  0  0  0
   48.7428  155.8498   29.7028 H   0  0  0  0  0  0  0  0  0  0  0  0
   50.3996  155.2534   28.3562 H   0  0  0  0  0  0  0  0  0  0  0  0
   51.6581  151.5429   27.8100 H   0  0  0  0  0  0  0  0  0  0  0  0
   52.3064  149.5762   26.4157 H   0  0  0  0  0  0  0  0  0  0  0  0
   53.7461  149.8935   24.4007 H   0  0  0  0  0  0  0  0  0  0  0  0
   55.1070  151.3760   23.2070 H   0  0  0  0  0  0  0  0  0  0  0  0
   54.2180  157.4620   26.3690 H   0  0  0  0  0  0  0  0  0  0  0  0
   54.0239  157.5556   27.9548 H   0  0  0  0  0  0  0  0  0  0  0  0
   53.1491  159.2089   29.5855 H   0  0  0  0  0  0  0  0  0  0  0  0
   49.8315  158.9096   31.3065 H   0  0  0  0  0  0  0  0  0  0  0  0
   51.5831  159.2669   31.6988 H   0  0  0  0  0  0  0  0  0  0  0  0
   50.7160  160.5378   29.2287 H   0  0  0  0  0  0  0  0  0  0  0  0
   49.2471  161.3398   31.7815 H   0  0  0  0  0  0  0  0  0  0  0  0
   49.3136  162.3084   30.2702 H   0  0  0  0  0  0  0  0  0  0  0  0
   48.5190  160.6975   30.2702 H   0  0  0  0  0  0  0  0  0  0  0  0
   51.8444  161.5162   31.9189 H   0  0  0  0  0  0  0  0  0  0  0  0
   52.7877  161.1043   30.4468 H   0  0  0  0  0  0  0  0  0  0  0  0
   51.7022  162.5356   30.4468 H   0  0  0  0  0  0  0  0  0  0  0  0
  1  2  1  0
  2  3  1  0
  3  4  2  0
  4  5  1  0
  5  6  1  0
  6  7  1  0
  7  8  1  0
  8  9  2  0
  9 10  1  0
 10 11  2  0
 11 12  1  0
 12 13  1  0
 12 14  2  0
 14 15  1  0
 15 16  2  0
 15 17  1  0
 17 18  1  0
  5 19  2  0
 19 20  1  0
 20 21  2  0
 21 22  1  0
 22 23  1  0
 23 24  1  0
 23 25  1  0
 21  3  1  0
 17  6  2  0
 14  8  1  0
  1 26  1  0
  1 27  1  0
  1 28  1  0
  2 29  1  0
  2 30  1  0
  4 31  1  0
  9 32  1  0
 10 33  1  0
 11 34  1  0
 13 35  1  0
 18 36  1  0
 19 37  1  0
 20 38  1  0
 22 39  1  0
 22 40  1  0
 23 41  1  0
 24 42  1  0
 24 43  1  0
 24 44  1  0
 25 45  1  0
 25 46  1  0
 25 47  1  0
M  END
>  <meeko>  (8) 
{"is_sidechain": [false], "free_energy": -8.599, "intermolecular_energy": -10.878, "internal_energy": -0.251}

$$$$
