cand_010_out
     RDKit          3D

 35 37  0  0  0  0  0  0  0  0999 V2000
   52.4290  160.6420   30.6590 O   0  0  0  0  0  0  0  0  0  0  0  0
   51.6780  159.6990   30.4150 C   0  0  0  0  0  0  0  0  0  0  0  0
   52.1750  158.5140   29.6780 C   0  0  0  0  0  0  0  0  0  0  0  0
   53.5060  158.5190   29.3000 O   0  0  0  0  0  0  0  0  0  0  0  0
   51.3210  157.5030   29.4360 C   0  0  0  0  0  0  0  0  0  0  0  0
   51.7110  156.2690   28.7200 C   0  0  0  0  0  0  0  0  0  0  0  0
   51.5570  155.0050   29.2960 C   0  0  0  0  0  0  0  0  0  0  0  0
   51.9570  153.8530   28.6120 C   0  0  0  0  0  0  0  0  0  0  0  0
   52.5320  153.9360   27.3350 C   0  0  0  0  0  0  0  0  0  0  0  0
   52.9440  152.6670   26.6260 C   0  0  0  0  0  0  0  0  0  0  0  0
   54.2900  152.4430   26.6600 F   0  0  0  0  0  0  0  0  0  0  0  0
   52.6980  155.2050   26.7390 C   0  0  0  0  0  0  0  0  0  0  0  0
   53.3140  155.3540   25.3660 C   0  0  0  0  0  0  0  0  0  0  0  0
   54.6230  154.9800   25.3050 F   0  0  0  0  0  0  0  0  0  0  0  0
   52.6700  154.6070   24.4280 F   0  0  0  0  0  0  0  0  0  0  0  0
   53.2730  156.6370   24.9130 F   0  0  0  0  0  0  0  0  0  0  0  0
   52.2910  156.3560   27.4460 C   0  0  0  0  0  0  0  0  0  0  0  0
   49.9930  157.4940   29.8460 O   0  0  0  0  0  0  0  0  0  0  0  0
   49.5010  158.5810   30.5220 C   0  0  0  0  0  0  0  0  0  0  0  0
   48.1600  158.5350   30.9030 C   0  0  0  0  0  0  0  0  0  0  0  0
   47.5960  159.6090   31.5960 C   0  0  0  0  0  0  0  0  0  0  0  0
   48.3730  160.7260   31.9080 C   0  0  0  0  0  0  0  0  0  0  0  0
   49.7110  160.7690   31.5270 C   0  0  0  0  0  0  0  0  0  0  0  0
   50.4150  161.8920   31.8660 O   0  0  0  0  0  0  0  0  0  0  0  0
   50.2750  159.6950   30.8340 C   0  0  0  0  0  0  0  0  0  0  0  0
   53.7340  158.5010   28.3910 H   0  0  0  0  0  0  0  0  0  0  0  0
   51.1158  154.9154   30.2996 H   0  0  0  0  0  0  0  0  0  0  0  0
   51.8189  152.8679   29.0817 H   0  0  0  0  0  0  0  0  0  0  0  0
   52.4363  151.8178   27.1067 H   0  0  0  0  0  0  0  0  0  0  0  0
   52.6582  152.7762   25.5694 H   0  0  0  0  0  0  0  0  0  0  0  0
   52.4320  157.3456   26.9869 H   0  0  0  0  0  0  0  0  0  0  0  0
   47.5476  157.6546   30.6582 H   0  0  0  0  0  0  0  0  0  0  0  0
   46.5383  159.5744   31.8962 H   0  0  0  0  0  0  0  0  0  0  0  0
   47.9284  161.5710   32.4542 H   0  0  0  0  0  0  0  0  0  0  0  0
   50.9270  161.9050   32.6510 H   0  0  0  0  0  0  0  0  0  0  0  0
  1  2  2  0
  2  3  1  0
  3  4  1  0
  3  5  2  0
  5  6  1  0
  6  7  2  0
  7  8  1  0
  8  9  2  0
  9 10  1  0
 10 11  1  0
  9 12  1  0
 12 13  1  0
 13 14  1  0
 13 15  1  0
 13 16  1  0
 12 17  2  0
  5 18  1  0
 18 19  1  0
 19 20  2  0
 20 21  1  0
 21 22  2  0
 22 23  1  0
 23 24  1  0
 23 25  2  0
 25  2  1  0
 17  6  1  0
 25 19  1  0
  4 26  1  0
  7 27  1  0
  8 28  1  0
 10 29  1  0
 10 30  1  0
 17 31  1  0
 20 32  1  0
 21 33  1  0
 22 34  1  0
 24 35  1  0
M  END
>  <meeko>  (1) 
{"is_sidechain": [false], "free_energy": -11.19, "intermolecular_energy": -13.806, "internal_energy": -0.302}

$$$$
cand_010_out
     RDKit          3D

 35 37  0  0  0  0  0  0  0  0999 V2000
   52.1850  153.0820   28.8590 O   0  0  0  0  0  0  0  0  0  0  0  0
   52.2960  154.2320   28.4380 C   0  0  0  0  0  0  0  0  0  0  0  0
   51.8030  155.3770   29.2390 C   0  0  0  0  0  0  0  0  0  0  0  0
   51.2370  155.0900   30.4670 O   0  0  0  0  0  0  0  0  0  0  0  0
   51.9480  156.6190   28.7410 C   0  0  0  0  0  0  0  0  0  0  0  0
   51.5040  157.8340   29.4570 C   0  0  0  0  0  0  0  0  0  0  0  0
   52.4000  158.8480   29.8120 C   0  0  0  0  0  0  0  0  0  0  0  0
   51.9630  159.9760   30.5120 C   0  0  0  0  0  0  0  0  0  0  0  0
   50.6190  160.1160   30.8870 C   0  0  0  0  0  0  0  0  0  0  0  0
   50.1850  161.3540   31.6370 C   0  0  0  0  0  0  0  0  0  0  0  0
   50.0350  161.1480   32.9780 F   0  0  0  0  0  0  0  0  0  0  0  0
   49.7000  159.1010   30.5400 C   0  0  0  0  0  0  0  0  0  0  0  0
   48.2400  159.1980   30.9210 C   0  0  0  0  0  0  0  0  0  0  0  0
   47.7270  160.4560   30.8220 F   0  0  0  0  0  0  0  0  0  0  0  0
   47.4490  158.4120   30.1400 F   0  0  0  0  0  0  0  0  0  0  0  0
   48.0090  158.8020   32.2030 F   0  0  0  0  0  0  0  0  0  0  0  0
   50.1600  157.9680   29.8360 C   0  0  0  0  0  0  0  0  0  0  0  0
   52.5460  156.9000   27.5180 O   0  0  0  0  0  0  0  0  0  0  0  0
   53.0040  155.8600   26.7500 C   0  0  0  0  0  0  0  0  0  0  0  0
   53.5840  156.1870   25.5240 C   0  0  0  0  0  0  0  0  0  0  0  0
   54.0720  155.1760   24.6930 C   0  0  0  0  0  0  0  0  0  0  0  0
   53.9800  153.8400   25.0890 C   0  0  0  0  0  0  0  0  0  0  0  0
   53.4000  153.5160   26.3120 C   0  0  0  0  0  0  0  0  0  0  0  0
   53.3430  152.1890   26.6380 O   0  0  0  0  0  0  0  0  0  0  0  0
   52.9120  154.5280   27.1430 C   0  0  0  0  0  0  0  0  0  0  0  0
   51.6970  155.3020   31.2560 H   0  0  0  0  0  0  0  0  0  0  0  0
   53.4611  158.7564   29.5369 H   0  0  0  0  0  0  0  0  0  0  0  0
   52.6836  160.7652   30.7725 H   0  0  0  0  0  0  0  0  0  0  0  0
   50.9429  162.1370   31.4867 H   0  0  0  0  0  0  0  0  0  0  0  0
   49.2018  161.6473   31.2404 H   0  0  0  0  0  0  0  0  0  0  0  0
   49.4476  157.1706   29.5781 H   0  0  0  0  0  0  0  0  0  0  0  0
   53.6569  157.2394   25.2123 H   0  0  0  0  0  0  0  0  0  0  0  0
   54.5291  155.4323   23.7259 H   0  0  0  0  0  0  0  0  0  0  0  0
   54.3657  153.0442   24.4348 H   0  0  0  0  0  0  0  0  0  0  0  0
   53.9730  151.8240   27.2280 H   0  0  0  0  0  0  0  0  0  0  0  0
  1  2  2  0
  2  3  1  0
  3  4  1  0
  3  5  2  0
  5  6  1  0
  6  7  2  0
  7  8  1  0
  8  9  2  0
  9 10  1  0
 10 11  1  0
  9 12  1  0
 12 13  1  0
 13 14  1  0
 13 15  1  0
 13 16  1  0
 12 17  2  0
  5 18  1  0
 18 19  1  0
 19 20  2  0
 20 21  1  0
 21 22  2  0
 22 23  1  0
 23 24  1  0
 23 25  2  0
 25  2  1  0
 17  6  1  0
 25 19  1  0
  4 26  1  0
  7 27  1  0
  8 28  1  0
 10 29  1  0
 10 30  1  0
 17 31  1  0
 20 32  1  0
 21 33  1  0
 22 34  1  0
 24 35  1  0
M  END
>  <meeko>  (2) 
{"is_sidechain": [false], "free_energy": -11.139, "intermolecular_energy": -13.823, "internal_energy": -0.223}

$$$$
cand_010_out
     RDKit          3D

 35 37  0  0  0  0  0  0  0  0999 V2000
   52.8300  152.5880   28.3860 O   0  0  0  0  0  0  0  0  0  0  0  0
   52.6670  153.7660   28.0730 C   0  0  0  0  0  0  0  0  0  0  0  0
   51.8840  154.6730   28.9430 C   0  0  0  0  0  0  0  0  0  0  0  0
   51.3690  154.1380   30.1110 O   0  0  0  0  0  0  0  0  0  0  0  0
   51.7330  155.9550   28.5650 C   0  0  0  0  0  0  0  0  0  0  0  0
   50.9820  156.9500   29.3600 C   0  0  0  0  0  0  0  0  0  0  0  0
   49.6670  156.7190   29.7770 C   0  0  0  0  0  0  0  0  0  0  0  0
   48.9670  157.6850   30.5060 C   0  0  0  0  0  0  0  0  0  0  0  0
   49.5600  158.9140   30.8300 C   0  0  0  0  0  0  0  0  0  0  0  0
   48.7720  159.9290   31.6260 C   0  0  0  0  0  0  0  0  0  0  0  0
   48.9680  159.8280   32.9730 F   0  0  0  0  0  0  0  0  0  0  0  0
   50.8870  159.1660   30.4150 C   0  0  0  0  0  0  0  0  0  0  0  0
   51.5740  160.4740   30.7350 C   0  0  0  0  0  0  0  0  0  0  0  0
   51.6120  160.7680   32.0640 F   0  0  0  0  0  0  0  0  0  0  0  0
   52.8680  160.4940   30.3110 F   0  0  0  0  0  0  0  0  0  0  0  0
   50.9710  161.5380   30.1360 F   0  0  0  0  0  0  0  0  0  0  0  0
   51.5760  158.1810   29.6780 C   0  0  0  0  0  0  0  0  0  0  0  0
   52.2790  156.4920   27.4040 O   0  0  0  0  0  0  0  0  0  0  0  0
   53.0010  155.6740   26.5730 C   0  0  0  0  0  0  0  0  0  0  0  0
   53.5190  156.2500   25.4130 C   0  0  0  0  0  0  0  0  0  0  0  0
   54.2660  155.4730   24.5240 C   0  0  0  0  0  0  0  0  0  0  0  0
   54.4940  154.1230   24.7950 C   0  0  0  0  0  0  0  0  0  0  0  0
   53.9760  153.5500   25.9540 C   0  0  0  0  0  0  0  0  0  0  0  0
   54.2380  152.2230   26.1590 O   0  0  0  0  0  0  0  0  0  0  0  0
   53.2290  154.3280   26.8430 C   0  0  0  0  0  0  0  0  0  0  0  0
   50.4750  154.2970   30.3440 H   0  0  0  0  0  0  0  0  0  0  0  0
   49.1777  155.7657   29.5283 H   0  0  0  0  0  0  0  0  0  0  0  0
   47.9364  157.4782   30.8301 H   0  0  0  0  0  0  0  0  0  0  0  0
   49.0741  160.9364   31.3037 H   0  0  0  0  0  0  0  0  0  0  0  0
   47.7059  159.7357   31.4362 H   0  0  0  0  0  0  0  0  0  0  0  0
   52.6045  158.3825   29.3440 H   0  0  0  0  0  0  0  0  0  0  0  0
   53.3397  157.3139   25.1986 H   0  0  0  0  0  0  0  0  0  0  0  0
   54.6751  155.9260   23.6089 H   0  0  0  0  0  0  0  0  0  0  0  0
   55.0821  153.5123   24.0941 H   0  0  0  0  0  0  0  0  0  0  0  0
   54.3010  151.6410   25.4280 H   0  0  0  0  0  0  0  0  0  0  0  0
  1  2  2  0
  2  3  1  0
  3  4  1  0
  3  5  2  0
  5  6  1  0
  6  7  2  0
  7  8  1  0
  8  9  2  0
  9 10  1  0
 10 11  1  0
  9 12  1  0
 12 13  1  0
 13 14  1  0
 13 15  1  0
 13 16  1  0
 12 17  2  0
  5 18  1  0
 18 19  1  0
 19 20  2  0
 20 21  1  0
 21 22  2  0
 22 23  1  0
 23 24  1  0
 23 25  2  0
 25  2  1  0
 17  6  1  0
 25 19  1  0
  4 26  1  0
  7 27  1  0
  8 28  1  0
 10 29  1  0
 10 30  1  0
 17 31  1  0
 20 32  1  0
 21 33  1  0
 22 34  1  0
 24 35  1  0
M  END
>  <meeko>  (3) 
{"is_sidechain": [false], "free_energy": -10.6, "intermolecular_energy": -13.054, "internal_energy": -0.327}

$$$$
cand_010_out
     RDKit          3D

 35 37  0  0  0  0  0  0  0  0999 V2000
   48.0070  158.1370   30.7570 O   0  0  0  0  0  0  0  0  0  0  0  0
   49.1850  158.1250   30.4060 C   0  0  0  0  0  0  0  0  0  0  0  0
   49.7450  156.9550   29.6910 C   0  0  0  0  0  0  0  0  0  0  0  0
   48.8840  155.9040   29.4310 O   0  0  0  0  0  0  0  0  0  0  0  0
   51.0390  156.9860   29.3220 C   0  0  0  0  0  0  0  0  0  0  0  0
   51.6990  155.8810   28.5950 C   0  0  0  0  0  0  0  0  0  0  0  0
   51.7880  154.5940   29.1350 C   0  0  0  0  0  0  0  0  0  0  0  0
   52.4400  153.5710   28.4410 C   0  0  0  0  0  0  0  0  0  0  0  0
   53.0300  153.8080   27.1910 C   0  0  0  0  0  0  0  0  0  0  0  0
   53.7190  152.6730   26.4690 C   0  0  0  0  0  0  0  0  0  0  0  0
   52.9570  152.1210   25.4810 F   0  0  0  0  0  0  0  0  0  0  0  0
   52.9520  155.1030   26.6310 C   0  0  0  0  0  0  0  0  0  0  0  0
   53.5720  155.4170   25.2890 C   0  0  0  0  0  0  0  0  0  0  0  0
   54.8960  155.1040   25.2050 F   0  0  0  0  0  0  0  0  0  0  0  0
   52.9670  154.7450   24.2700 F   0  0  0  0  0  0  0  0  0  0  0  0
   53.4810  156.7370   24.9690 F   0  0  0  0  0  0  0  0  0  0  0  0
   52.2930  156.1240   27.3470 C   0  0  0  0  0  0  0  0  0  0  0  0
   51.8890  158.0600   29.5620 O   0  0  0  0  0  0  0  0  0  0  0  0
   51.4020  159.1540   30.2300 C   0  0  0  0  0  0  0  0  0  0  0  0
   52.2920  160.2020   30.4610 C   0  0  0  0  0  0  0  0  0  0  0  0
   51.8600  161.3470   31.1350 C   0  0  0  0  0  0  0  0  0  0  0  0
   50.5390  161.4420   31.5780 C   0  0  0  0  0  0  0  0  0  0  0  0
   49.6520  160.3940   31.3460 C   0  0  0  0  0  0  0  0  0  0  0  0
   48.3730  160.5540   31.8040 O   0  0  0  0  0  0  0  0  0  0  0  0
   50.0850  159.2490   30.6710 C   0  0  0  0  0  0  0  0  0  0  0  0
   48.3680  155.9050   28.6480 H   0  0  0  0  0  0  0  0  0  0  0  0
   51.3396  154.3845   30.1174 H   0  0  0  0  0  0  0  0  0  0  0  0
   52.4912  152.5646   28.8820 H   0  0  0  0  0  0  0  0  0  0  0  0
   54.6475  153.0566   26.0209 H   0  0  0  0  0  0  0  0  0  0  0  0
   53.9123  151.8842   27.2109 H   0  0  0  0  0  0  0  0  0  0  0  0
   52.2435  157.1352   26.9168 H   0  0  0  0  0  0  0  0  0  0  0  0
   53.3329  160.1275   30.1131 H   0  0  0  0  0  0  0  0  0  0  0  0
   52.5613  162.1747   31.3170 H   0  0  0  0  0  0  0  0  0  0  0  0
   50.1997  162.3434   32.1094 H   0  0  0  0  0  0  0  0  0  0  0  0
   47.7040  160.8620   31.2250 H   0  0  0  0  0  0  0  0  0  0  0  0
  1  2  2  0
  2  3  1  0
  3  4  1  0
  3  5  2  0
  5  6  1  0
  6  7  2  0
  7  8  1  0
  8  9  2  0
  9 10  1  0
 10 11  1  0
  9 12  1  0
 12 13  1  0
 13 14  1  0
 13 15  1  0
 13 16  1  0
 12 17  2  0
  5 18  1  0
 18 19  1  0
 19 20  2  0
 20 21  1  0
 21 22  2  0
 22 23  1  0
 23 24  1  0
 23 25  2  0
 25  2  1  0
 17  6  1  0
 25 19  1  0
  4 26  1  0
  7 27  1  0
  8 28  1  0
 10 29  1  0
 10 30  1  0
 17 31  1  0
 20 32  1  0
 21 33  1  0
 22 34  1  0
 24 35  1  0
M  END
>  <meeko>  (4) 
{"is_sidechain": [false], "free_energy": -9.562, "intermolecular_energy": -11.697, "internal_energy": -0.403}

$$$$
cand_010_out
     RDKit          3D

 35 37  0  0  0  0  0  0  0  0999 V2000
   51.9810  161.5300   31.5560 O   0  0  0  0  0  0  0  0  0  0  0  0
   51.3480  160.5610   31.1400 C   0  0  0  0  0  0  0  0  0  0  0  0
   51.9970  159.5640   30.2570 C   0  0  0  0  0  0  0  0  0  0  0  0
   53.3290  159.7680   29.9460 O   0  0  0  0  0  0  0  0  0  0  0  0
   51.2680  158.5170   29.8270 C   0  0  0  0  0  0  0  0  0  0  0  0
   51.8140  157.4560   28.9540 C   0  0  0  0  0  0  0  0  0  0  0  0
   52.5040  157.7570   27.7750 C   0  0  0  0  0  0  0  0  0  0  0  0
   52.9890  156.7380   26.9500 C   0  0  0  0  0  0  0  0  0  0  0  0
   52.7890  155.3880   27.2770 C   0  0  0  0  0  0  0  0  0  0  0  0
   53.3350  154.3160   26.3630 C   0  0  0  0  0  0  0  0  0  0  0  0
   52.4700  153.9620   25.3700 F   0  0  0  0  0  0  0  0  0  0  0  0
   52.0920  155.0660   28.4630 C   0  0  0  0  0  0  0  0  0  0  0  0
   51.8440  153.6290   28.8630 C   0  0  0  0  0  0  0  0  0  0  0  0
   51.2600  153.4890   30.0850 F   0  0  0  0  0  0  0  0  0  0  0  0
   51.0300  152.9820   27.9850 F   0  0  0  0  0  0  0  0  0  0  0  0
   52.9920  152.8980   28.9130 F   0  0  0  0  0  0  0  0  0  0  0  0
   51.6070  156.1080   29.2810 C   0  0  0  0  0  0  0  0  0  0  0  0
   49.9380  158.3040   30.1700 O   0  0  0  0  0  0  0  0  0  0  0  0
   49.3080  159.2150   30.9780 C   0  0  0  0  0  0  0  0  0  0  0  0
   47.9700  158.9700   31.2850 C   0  0  0  0  0  0  0  0  0  0  0  0
   47.2690  159.8580   32.1050 C   0  0  0  0  0  0  0  0  0  0  0  0
   47.9070  160.9900   32.6160 C   0  0  0  0  0  0  0  0  0  0  0  0
   49.2430  161.2330   32.3080 C   0  0  0  0  0  0  0  0  0  0  0  0
   49.8060  162.3590   32.8430 O   0  0  0  0  0  0  0  0  0  0  0  0
   49.9440  160.3440   31.4880 C   0  0  0  0  0  0  0  0  0  0  0  0
   53.9980  159.4510   30.5210 H   0  0  0  0  0  0  0  0  0  0  0  0
   52.6669  158.8079   27.4937 H   0  0  0  0  0  0  0  0  0  0  0  0
   53.5352  156.9981   26.0313 H   0  0  0  0  0  0  0  0  0  0  0  0
   54.2618  154.6887   25.9023 H   0  0  0  0  0  0  0  0  0  0  0  0
   53.5089  153.4208   26.9782 H   0  0  0  0  0  0  0  0  0  0  0  0
   51.0530  155.8571   30.1976 H   0  0  0  0  0  0  0  0  0  0  0  0
   47.4669  158.0786   30.8821 H   0  0  0  0  0  0  0  0  0  0  0  0
   46.2137  159.6651   32.3482 H   0  0  0  0  0  0  0  0  0  0  0  0
   47.3548  161.6891   33.2612 H   0  0  0  0  0  0  0  0  0  0  0  0
   49.7350  162.5260   33.7620 H   0  0  0  0  0  0  0  0  0  0  0  0
  1  2  2  0
  2  3  1  0
  3  4  1  0
  3  5  2  0
  5  6  1  0
  6  7  2  0
  7  8  1  0
  8  9  2  0
  9 10  1  0
 10 11  1  0
  9 12  1  0
 12 13  1  0
 13 14  1  0
 13 15  1  0
 13 16  1  0
 12 17  2  0
  5 18  1  0
 18 19  1  0
 19 20  2  0
 20 21  1  0
 21 22  2  0
 22 23  1  0
 23 24  1  0
 23 25  2  0
 25  2  1  0
 17  6  1  0
 25 19  1  0
  4 26  1  0
  7 27  1  0
  8 28  1  0
 10 29  1  0
 10 30  1  0
 17 31  1  0
 20 32  1  0
 21 33  1  0
 22 34  1  0
 24 35  1  0
M  END
>  <meeko>  (5) 
{"is_sidechain": [false], "free_energy": -9.326, "intermolecular_energy": -11.547, "internal_energy": -0.262}

$$$$
cand_010_out
     RDKit          3D

 35 37  0  0  0  0  0  0  0  0999 V2000
   53.0620  159.5190   29.5500 O   0  0  0  0  0  0  0  0  0  0  0  0
   52.3590  158.5320   29.3380 C   0  0  0  0  0  0  0  0  0  0  0  0
   52.8440  157.4390   28.4640 C   0  0  0  0  0  0  0  0  0  0  0  0
   54.1090  157.5780   27.9230 O   0  0  0  0  0  0  0  0  0  0  0  0
   52.0440  156.3760   28.2620 C   0  0  0  0  0  0  0  0  0  0  0  0
   52.4290  155.2230   27.4190 C   0  0  0  0  0  0  0  0  0  0  0  0
   51.9080  153.9450   27.6380 C   0  0  0  0  0  0  0  0  0  0  0  0
   52.3060  152.8640   26.8460 C   0  0  0  0  0  0  0  0  0  0  0  0
   53.2450  153.0300   25.8180 C   0  0  0  0  0  0  0  0  0  0  0  0
   53.6440  151.8380   24.9790 C   0  0  0  0  0  0  0  0  0  0  0  0
   54.8620  151.3240   25.3170 F   0  0  0  0  0  0  0  0  0  0  0  0
   53.7840  154.3150   25.5830 C   0  0  0  0  0  0  0  0  0  0  0  0
   54.8020  154.5520   24.4900 C   0  0  0  0  0  0  0  0  0  0  0  0
   54.5080  153.9250   23.3170 F   0  0  0  0  0  0  0  0  0  0  0  0
   54.9320  155.8720   24.1840 F   0  0  0  0  0  0  0  0  0  0  0  0
   56.0470  154.1260   24.8380 F   0  0  0  0  0  0  0  0  0  0  0  0
   53.3730  155.3920   26.3950 C   0  0  0  0  0  0  0  0  0  0  0  0
   50.7860  156.2310   28.8340 O   0  0  0  0  0  0  0  0  0  0  0  0
   50.3060  157.2310   29.6410 C   0  0  0  0  0  0  0  0  0  0  0  0
   49.0330  157.0510   30.1830 C   0  0  0  0  0  0  0  0  0  0  0  0
   48.4860  158.0300   31.0140 C   0  0  0  0  0  0  0  0  0  0  0  0
   49.2100  159.1890   31.3030 C   0  0  0  0  0  0  0  0  0  0  0  0
   50.4800  159.3660   30.7600 C   0  0  0  0  0  0  0  0  0  0  0  0
   51.1350  160.5230   31.0850 O   0  0  0  0  0  0  0  0  0  0  0  0
   51.0280  158.3860   29.9280 C   0  0  0  0  0  0  0  0  0  0  0  0
   54.2640  158.2120   27.2500 H   0  0  0  0  0  0  0  0  0  0  0  0
   51.1757  153.7877   28.4435 H   0  0  0  0  0  0  0  0  0  0  0  0
   51.8763  151.8686   27.0320 H   0  0  0  0  0  0  0  0  0  0  0  0
   52.8855  151.0516   25.1065 H   0  0  0  0  0  0  0  0  0  0  0  0
   53.7132  152.1817   23.9364 H   0  0  0  0  0  0  0  0  0  0  0  0
   53.8032  156.3894   26.2213 H   0  0  0  0  0  0  0  0  0  0  0  0
   48.4614  156.1390   29.9558 H   0  0  0  0  0  0  0  0  0  0  0  0
   47.4827  157.8885   31.4422 H   0  0  0  0  0  0  0  0  0  0  0  0
   48.7780  159.9600   31.9579 H   0  0  0  0  0  0  0  0  0  0  0  0
   50.7070  161.3490   30.9760 H   0  0  0  0  0  0  0  0  0  0  0  0
  1  2  2  0
  2  3  1  0
  3  4  1  0
  3  5  2  0
  5  6  1  0
  6  7  2  0
  7  8  1  0
  8  9  2  0
  9 10  1  0
 10 11  1  0
  9 12  1  0
 12 13  1  0
 13 14  1  0
 13 15  1  0
 13 16  1  0
 12 17  2  0
  5 18  1  0
 18 19  1  0
 19 20  2  0
 20 21  1  0
 21 22  2  0
 22 23  1  0
 23 24  1  0
 23 25  2  0
 25  2  1  0
 17  6  1  0
 25 19  1  0
  4 26  1  0
  7 27  1  0
  8 28  1  0
 10 29  1  0
 10 30  1  0
 17 31  1  0
 20 32  1  0
 21 33  1  0
 22 34  1  0
 24 35  1  0
M  END
>  <meeko>  (6) 
{"is_sidechain": [false], "free_energy": -8.64, "intermolecular_energy": -11.083, "internal_energy": 0.119}

$$$$
