cand_037_out
     RDKit          3D

 35 37  0  0  0  0  0  0  0  0999 V2000
   52.1620  161.0620   30.6210 C   0  0  0  0  0  0  0  0  0  0  0  0
   51.3210  159.8260   30.4500 C   0  0  0  0  0  0  0  0  0  0  0  0
   51.8610  158.7230   29.7630 C   0  0  0  0  0  0  0  0  0  0  0  0
   51.1260  157.5440   29.5690 C   0  0  0  0  0  0  0  0  0  0  0  0
   51.7250  156.4170   28.8230 C   0  0  0  0  0  0  0  0  0  0  0  0
   52.3050  156.8100   27.6220 O   0  0  0  0  0  0  0  0  0  0  0  0
   52.8990  155.8610   26.8310 C   0  0  0  0  0  0  0  0  0  0  0  0
   53.4560  156.2980   25.6270 C   0  0  0  0  0  0  0  0  0  0  0  0
   54.0770  155.3830   24.7750 C   0  0  0  0  0  0  0  0  0  0  0  0
   54.1440  154.0330   25.1250 C   0  0  0  0  0  0  0  0  0  0  0  0
   53.5880  153.5990   26.3260 C   0  0  0  0  0  0  0  0  0  0  0  0
   53.6890  152.2650   26.6070 O   0  0  0  0  0  0  0  0  0  0  0  0
   52.9650  154.5150   27.1780 C   0  0  0  0  0  0  0  0  0  0  0  0
   52.3680  154.1020   28.4490 C   0  0  0  0  0  0  0  0  0  0  0  0
   52.3920  152.9340   28.8300 O   0  0  0  0  0  0  0  0  0  0  0  0
   51.7240  155.1490   29.2770 C   0  0  0  0  0  0  0  0  0  0  0  0
   51.1760  154.7500   30.4820 O   0  0  0  0  0  0  0  0  0  0  0  0
   49.8170  157.4900   30.0570 C   0  0  0  0  0  0  0  0  0  0  0  0
   49.2610  158.5810   30.7320 C   0  0  0  0  0  0  0  0  0  0  0  0
   49.9960  159.7610   30.9260 C   0  0  0  0  0  0  0  0  0  0  0  0
   49.3610  160.9040   31.6760 C   0  0  0  0  0  0  0  0  0  0  0  0
   48.4410  161.5910   30.9410 F   0  0  0  0  0  0  0  0  0  0  0  0
   52.3006  161.2657   31.6930 H   0  0  0  0  0  0  0  0  0  0  0  0
   53.1426  160.9066   30.1475 H   0  0  0  0  0  0  0  0  0  0  0  0
   51.6575  161.9172   30.1475 H   0  0  0  0  0  0  0  0  0  0  0  0
   52.8856  158.7869   29.3680 H   0  0  0  0  0  0  0  0  0  0  0  0
   53.4054  157.3615   25.3506 H   0  0  0  0  0  0  0  0  0  0  0  0
   54.5145  155.7263   23.8259 H   0  0  0  0  0  0  0  0  0  0  0  0
   54.6351  153.3134   24.4534 H   0  0  0  0  0  0  0  0  0  0  0  0
   53.1970  151.6430   26.1080 H   0  0  0  0  0  0  0  0  0  0  0  0
   51.0120  153.8420   30.6430 H   0  0  0  0  0  0  0  0  0  0  0  0
   49.2180  156.5794   29.9083 H   0  0  0  0  0  0  0  0  0  0  0  0
   48.2326  158.5136   31.1166 H   0  0  0  0  0  0  0  0  0  0  0  0
   48.8620  160.5001   32.5693 H   0  0  0  0  0  0  0  0  0  0  0  0
   50.1647  161.6103   31.9313 H   0  0  0  0  0  0  0  0  0  0  0  0
  1  2  1  0
  2  3  2  0
  3  4  1  0
  4  5  1  0
  5  6  1  0
  6  7  1  0
  7  8  2  0
  8  9  1  0
  9 10  2  0
 10 11  1  0
 11 12  1  0
 11 13  2  0
 13 14  1  0
 14 15  2  0
 14 16  1  0
 16 17  1  0
  4 18  2  0
 18 19  1  0
 19 20  2  0
 20 21  1  0
 21 22  1  0
 20  2  1  0
 16  5  2  0
 13  7  1  0
  1 23  1  0
  1 24  1  0
  1 25  1  0
  3 26  1  0
  8 27  1  0
  9 28  1  0
 10 29  1  0
 12 30  1  0
 17 31  1  0
 18 32  1  0
 19 33  1  0
 21 34  1  0
 21 35  1  0
M  END
>  <meeko>  (1) 
{"is_sidechain": [false], "free_energy": -10.574, "intermolecular_energy": -12.428, "internal_energy": -0.198}

$$$$
cand_037_out
     RDKit          3D

 35 37  0  0  0  0  0  0  0  0999 V2000
   48.2250  158.8630   31.2720 C   0  0  0  0  0  0  0  0  0  0  0  0
   49.6320  158.9010   30.7390 C   0  0  0  0  0  0  0  0  0  0  0  0
   50.1170  157.7950   30.0170 C   0  0  0  0  0  0  0  0  0  0  0  0
   51.4190  157.7680   29.4970 C   0  0  0  0  0  0  0  0  0  0  0  0
   51.8950  156.5780   28.7610 C   0  0  0  0  0  0  0  0  0  0  0  0
   52.5040  156.8970   27.5530 O   0  0  0  0  0  0  0  0  0  0  0  0
   52.9930  155.8850   26.7680 C   0  0  0  0  0  0  0  0  0  0  0  0
   53.5840  156.2500   25.5560 C   0  0  0  0  0  0  0  0  0  0  0  0
   54.1030  155.2670   24.7120 C   0  0  0  0  0  0  0  0  0  0  0  0
   54.0340  153.9210   25.0760 C   0  0  0  0  0  0  0  0  0  0  0  0
   53.4450  153.5590   26.2850 C   0  0  0  0  0  0  0  0  0  0  0  0
   53.4110  152.2240   26.5800 O   0  0  0  0  0  0  0  0  0  0  0  0
   52.9240  154.5430   27.1300 C   0  0  0  0  0  0  0  0  0  0  0  0
   52.2970  154.2060   28.4090 C   0  0  0  0  0  0  0  0  0  0  0  0
   52.2040  153.0460   28.8030 O   0  0  0  0  0  0  0  0  0  0  0  0
   51.7690  155.3220   29.2290 C   0  0  0  0  0  0  0  0  0  0  0  0
   51.1910  154.9930   30.4410 O   0  0  0  0  0  0  0  0  0  0  0  0
   52.2500  158.8680   29.7320 C   0  0  0  0  0  0  0  0  0  0  0  0
   51.7880  159.9700   30.4580 C   0  0  0  0  0  0  0  0  0  0  0  0
   50.4850  159.9960   30.9780 C   0  0  0  0  0  0  0  0  0  0  0  0
   50.0250  161.2150   31.7380 C   0  0  0  0  0  0  0  0  0  0  0  0
   49.9890  161.0290   33.0890 F   0  0  0  0  0  0  0  0  0  0  0  0
   48.2494  158.8637   32.3717 H   0  0  0  0  0  0  0  0  0  0  0  0
   47.6744  159.7466   30.9169 H   0  0  0  0  0  0  0  0  0  0  0  0
   47.7229  157.9510   30.9169 H   0  0  0  0  0  0  0  0  0  0  0  0
   49.4578  156.9292   29.8563 H   0  0  0  0  0  0  0  0  0  0  0  0
   53.6402  157.3100   25.2674 H   0  0  0  0  0  0  0  0  0  0  0  0
   54.5678  155.5537   23.7571 H   0  0  0  0  0  0  0  0  0  0  0  0
   54.4440  153.1480   24.4093 H   0  0  0  0  0  0  0  0  0  0  0  0
   54.1570  151.8110   26.9680 H   0  0  0  0  0  0  0  0  0  0  0  0
   50.6640  155.6220   30.8940 H   0  0  0  0  0  0  0  0  0  0  0  0
   53.2783  158.8662   29.3414 H   0  0  0  0  0  0  0  0  0  0  0  0
   52.4553  160.8286   30.6238 H   0  0  0  0  0  0  0  0  0  0  0  0
   50.7143  162.0436   31.5183 H   0  0  0  0  0  0  0  0  0  0  0  0
   48.9970  161.4321   31.4124 H   0  0  0  0  0  0  0  0  0  0  0  0
  1  2  1  0
  2  3  2  0
  3  4  1  0
  4  5  1  0
  5  6  1  0
  6  7  1  0
  7  8  2  0
  8  9  1  0
  9 10  2  0
 10 11  1  0
 11 12  1  0
 11 13  2  0
 13 14  1  0
 14 15  2  0
 14 16  1  0
 16 17  1  0
  4 18  2  0
 18 19  1  0
 19 20  2  0
 20 21  1  0
 21 22  1  0
 20  2  1  0
 16  5  2  0
 13  7  1  0
  1 23  1  0
  1 24  1  0
  1 25  1  0
  3 26  1  0
  8 27  1  0
  9 28  1  0
 10 29  1  0
 12 30  1  0
 17 31  1  0
 18 32  1  0
 19 33  1  0
 21 34  1  0
 21 35  1  0
M  END
>  <meeko>  (2) 
{"is_sidechain": [false], "free_energy": -10.394, "intermolecular_energy": -12.27, "internal_energy": -0.146}

$$$$
cand_037_out
     RDKit          3D

 35 37  0  0  0  0  0  0  0  0999 V2000
   53.6040  155.3120   25.4250 C   0  0  0  0  0  0  0  0  0  0  0  0
   52.8900  155.1660   26.7410 C   0  0  0  0  0  0  0  0  0  0  0  0
   52.5020  156.3260   27.4380 C   0  0  0  0  0  0  0  0  0  0  0  0
   51.8360  156.2550   28.6710 C   0  0  0  0  0  0  0  0  0  0  0  0
   51.4640  157.4990   29.3790 C   0  0  0  0  0  0  0  0  0  0  0  0
   50.1410  157.5030   29.8050 O   0  0  0  0  0  0  0  0  0  0  0  0
   49.6640  158.5980   30.4780 C   0  0  0  0  0  0  0  0  0  0  0  0
   48.3250  158.5660   30.8730 C   0  0  0  0  0  0  0  0  0  0  0  0
   47.7770  159.6480   31.5640 C   0  0  0  0  0  0  0  0  0  0  0  0
   48.5650  160.7620   31.8600 C   0  0  0  0  0  0  0  0  0  0  0  0
   49.9000  160.7920   31.4660 C   0  0  0  0  0  0  0  0  0  0  0  0
   50.6150  161.9130   31.7880 O   0  0  0  0  0  0  0  0  0  0  0  0
   50.4490  159.7090   30.7730 C   0  0  0  0  0  0  0  0  0  0  0  0
   51.8470  159.7000   30.3390 C   0  0  0  0  0  0  0  0  0  0  0  0
   52.6050  160.6380   30.5680 O   0  0  0  0  0  0  0  0  0  0  0  0
   52.3280  158.5060   29.6050 C   0  0  0  0  0  0  0  0  0  0  0  0
   53.6540  158.5020   29.2120 O   0  0  0  0  0  0  0  0  0  0  0  0
   51.5800  154.9940   29.2160 C   0  0  0  0  0  0  0  0  0  0  0  0
   51.9690  153.8330   28.5420 C   0  0  0  0  0  0  0  0  0  0  0  0
   52.6360  153.9020   27.3090 C   0  0  0  0  0  0  0  0  0  0  0  0
   53.0190  152.6220   26.6100 C   0  0  0  0  0  0  0  0  0  0  0  0
   52.0490  151.6650   26.6640 F   0  0  0  0  0  0  0  0  0  0  0  0
   54.6669  155.5293   25.6067 H   0  0  0  0  0  0  0  0  0  0  0  0
   53.5135  154.3768   24.8530 H   0  0  0  0  0  0  0  0  0  0  0  0
   53.1537  156.1366   24.8530 H   0  0  0  0  0  0  0  0  0  0  0  0
   52.7264  157.3122   27.0054 H   0  0  0  0  0  0  0  0  0  0  0  0
   47.7029  157.6893   30.6399 H   0  0  0  0  0  0  0  0  0  0  0  0
   46.7224  159.6230   31.8759 H   0  0  0  0  0  0  0  0  0  0  0  0
   48.1317  161.6145   32.4036 H   0  0  0  0  0  0  0  0  0  0  0  0
   51.0050  161.9920   32.6370 H   0  0  0  0  0  0  0  0  0  0  0  0
   53.9120  158.9480   28.4290 H   0  0  0  0  0  0  0  0  0  0  0  0
   51.0669  154.9142   30.1857 H   0  0  0  0  0  0  0  0  0  0  0  0
   51.7491  152.8503   28.9846 H   0  0  0  0  0  0  0  0  0  0  0  0
   53.2259  152.8497   25.5539 H   0  0  0  0  0  0  0  0  0  0  0  0
   53.9016  152.2198   27.1289 H   0  0  0  0  0  0  0  0  0  0  0  0
  1  2  1  0
  2  3  2  0
  3  4  1  0
  4  5  1  0
  5  6  1  0
  6  7  1  0
  7  8  2  0
  8  9  1  0
  9 10  2  0
 10 11  1  0
 11 12  1  0
 11 13  2  0
 13 14  1  0
 14 15  2  0
 14 16  1  0
 16 17  1  0
  4 18  2  0
 18 19  1  0
 19 20  2  0
 20 21  1  0
 21 22  1  0
 20  2  1  0
 16  5  2  0
 13  7  1  0
  1 23  1  0
  1 24  1  0
  1 25  1  0
  3 26  1  0
  8 27  1  0
  9 28  1  0
 10 29  1  0
 12 30  1  0
 17 31  1  0
 18 32  1  0
 19 33  1  0
 21 34  1  0
 21 35  1  0
M  END
>  <meeko>  (3) 
{"is_sidechain": [false], "free_energy": -9.877, "intermolecular_energy": -11.688, "internal_energy": -0.119}

$$$$
cand_037_out
     RDKit          3D

 35 37  0  0  0  0  0  0  0  0999 V2000
   48.7220  158.4010   30.7830 C   0  0  0  0  0  0  0  0  0  0  0  0
   50.1050  158.2850   30.2010 C   0  0  0  0  0  0  0  0  0  0  0  0
   50.4550  157.1140   29.5050 C   0  0  0  0  0  0  0  0  0  0  0  0
   51.7290  156.9440   28.9430 C   0  0  0  0  0  0  0  0  0  0  0  0
   52.0620  155.6890   28.2370 C   0  0  0  0  0  0  0  0  0  0  0  0
   52.6100  155.9060   26.9770 O   0  0  0  0  0  0  0  0  0  0  0  0
   52.9670  154.8250   26.2130 C   0  0  0  0  0  0  0  0  0  0  0  0
   53.4990  155.0900   24.9500 C   0  0  0  0  0  0  0  0  0  0  0  0
   53.8840  154.0340   24.1220 C   0  0  0  0  0  0  0  0  0  0  0  0
   53.7380  152.7140   24.5550 C   0  0  0  0  0  0  0  0  0  0  0  0
   53.2070  152.4530   25.8150 C   0  0  0  0  0  0  0  0  0  0  0  0
   53.0920  151.1380   26.1770 O   0  0  0  0  0  0  0  0  0  0  0  0
   52.8200  153.5100   26.6440 C   0  0  0  0  0  0  0  0  0  0  0  0
   52.2580  153.2790   27.9760 C   0  0  0  0  0  0  0  0  0  0  0  0
   52.1040  152.1490   28.4300 O   0  0  0  0  0  0  0  0  0  0  0  0
   51.8730  154.4680   28.7720 C   0  0  0  0  0  0  0  0  0  0  0  0
   51.3560  154.2390   30.0340 O   0  0  0  0  0  0  0  0  0  0  0  0
   52.6690  157.9660   29.1090 C   0  0  0  0  0  0  0  0  0  0  0  0
   52.3410  159.1310   29.8070 C   0  0  0  0  0  0  0  0  0  0  0  0
   51.0660  159.3010   30.3710 C   0  0  0  0  0  0  0  0  0  0  0  0
   50.7530  160.5830   31.0990 C   0  0  0  0  0  0  0  0  0  0  0  0
   51.6190  160.8540   32.1160 F   0  0  0  0  0  0  0  0  0  0  0  0
   48.7847  158.3957   31.8812 H   0  0  0  0  0  0  0  0  0  0  0  0
   48.2603  159.3410   30.4466 H   0  0  0  0  0  0  0  0  0  0  0  0
   48.1101  157.5510   30.4466 H   0  0  0  0  0  0  0  0  0  0  0  0
   49.7108  156.3110   29.3986 H   0  0  0  0  0  0  0  0  0  0  0  0
   53.6147  156.1290   24.6077 H   0  0  0  0  0  0  0  0  0  0  0  0
   54.3032  154.2419   23.1265 H   0  0  0  0  0  0  0  0  0  0  0  0
   54.0419  151.8827   23.9018 H   0  0  0  0  0  0  0  0  0  0  0  0
   53.8230  150.5610   26.0820 H   0  0  0  0  0  0  0  0  0  0  0  0
   50.9630  153.4130   30.2350 H   0  0  0  0  0  0  0  0  0  0  0  0
   53.6777  157.8514   28.6854 H   0  0  0  0  0  0  0  0  0  0  0  0
   53.0924  159.9268   29.9164 H   0  0  0  0  0  0  0  0  0  0  0  0
   50.7925  161.4122   30.3773 H   0  0  0  0  0  0  0  0  0  0  0  0
   49.7544  160.4670   31.5455 H   0  0  0  0  0  0  0  0  0  0  0  0
  1  2  1  0
  2  3  2  0
  3  4  1  0
  4  5  1  0
  5  6  1  0
  6  7  1  0
  7  8  2  0
  8  9  1  0
  9 10  2  0
 10 11  1  0
 11 12  1  0
 11 13  2  0
 13 14  1  0
 14 15  2  0
 14 16  1  0
 16 17  1  0
  4 18  2  0
 18 19  1  0
 19 20  2  0
 20 21  1  0
 21 22  1  0
 20  2  1  0
 16  5  2  0
 13  7  1  0
  1 23  1  0
  1 24  1  0
  1 25  1  0
  3 26  1  0
  8 27  1  0
  9 28  1  0
 10 29  1  0
 12 30  1  0
 17 31  1  0
 18 32  1  0
 19 33  1  0
 21 34  1  0
 21 35  1  0
M  END
>  <meeko>  (4) 
{"is_sidechain": [false], "free_energy": -9.853, "intermolecular_energy": -11.63, "internal_energy": -0.15}

$$$$
cand_037_out
     RDKit          3D

 35 37  0  0  0  0  0  0  0  0999 V2000
   53.7560  155.8360   25.5640 C   0  0  0  0  0  0  0  0  0  0  0  0
   52.9950  155.4800   26.8120 C   0  0  0  0  0  0  0  0  0  0  0  0
   52.3870  156.5080   27.5550 C   0  0  0  0  0  0  0  0  0  0  0  0
   51.6660  156.2410   28.7290 C   0  0  0  0  0  0  0  0  0  0  0  0
   51.0600  157.3540   29.4910 C   0  0  0  0  0  0  0  0  0  0  0  0
   51.9550  158.3860   29.7440 O   0  0  0  0  0  0  0  0  0  0  0  0
   51.5230  159.4840   30.4430 C   0  0  0  0  0  0  0  0  0  0  0  0
   52.4600  160.4900   30.6880 C   0  0  0  0  0  0  0  0  0  0  0  0
   52.0830  161.6340   31.3930 C   0  0  0  0  0  0  0  0  0  0  0  0
   50.7720  161.7750   31.8520 C   0  0  0  0  0  0  0  0  0  0  0  0
   49.8390  160.7710   31.6070 C   0  0  0  0  0  0  0  0  0  0  0  0
   48.5740  160.9730   32.0840 O   0  0  0  0  0  0  0  0  0  0  0  0
   50.2160  159.6240   30.9020 C   0  0  0  0  0  0  0  0  0  0  0  0
   49.2680  158.5450   30.6230 C   0  0  0  0  0  0  0  0  0  0  0  0
   48.0960  158.5980   30.9880 O   0  0  0  0  0  0  0  0  0  0  0  0
   49.7690  157.3680   29.8750 C   0  0  0  0  0  0  0  0  0  0  0  0
   48.8620  156.3610   29.6050 O   0  0  0  0  0  0  0  0  0  0  0  0
   51.5790  154.9160   29.1680 C   0  0  0  0  0  0  0  0  0  0  0  0
   52.1870  153.8850   28.4470 C   0  0  0  0  0  0  0  0  0  0  0  0
   52.9090  154.1510   27.2730 C   0  0  0  0  0  0  0  0  0  0  0  0
   53.5320  153.0030   26.5190 C   0  0  0  0  0  0  0  0  0  0  0  0
   52.6160  152.1320   26.0070 F   0  0  0  0  0  0  0  0  0  0  0  0
   54.7207  156.2873   25.8390 H   0  0  0  0  0  0  0  0  0  0  0  0
   53.9324  154.9270   24.9703 H   0  0  0  0  0  0  0  0  0  0  0  0
   53.1713  156.5540   24.9703 H   0  0  0  0  0  0  0  0  0  0  0  0
   52.4790  157.5474   27.2070 H   0  0  0  0  0  0  0  0  0  0  0  0
   53.4930  160.3810   30.3261 H   0  0  0  0  0  0  0  0  0  0  0  0
   52.8206  162.4265   31.5875 H   0  0  0  0  0  0  0  0  0  0  0  0
   50.4766  162.6780   32.4064 H   0  0  0  0  0  0  0  0  0  0  0  0
   47.9600  160.2660   32.0990 H   0  0  0  0  0  0  0  0  0  0  0  0
   48.1260  156.2300   30.1700 H   0  0  0  0  0  0  0  0  0  0  0  0
   51.0264  154.6831   30.0902 H   0  0  0  0  0  0  0  0  0  0  0  0
   52.0984  152.8487   28.8050 H   0  0  0  0  0  0  0  0  0  0  0  0
   54.1262  153.4124   25.6888 H   0  0  0  0  0  0  0  0  0  0  0  0
   54.1503  152.4413   27.2346 H   0  0  0  0  0  0  0  0  0  0  0  0
  1  2  1  0
  2  3  2  0
  3  4  1  0
  4  5  1  0
  5  6  1  0
  6  7  1  0
  7  8  2  0
  8  9  1  0
  9 10  2  0
 10 11  1  0
 11 12  1  0
 11 13  2  0
 13 14  1  0
 14 15  2  0
 14 16  1  0
 16 17  1  0
  4 18  2  0
 18 19  1  0
 19 20  2  0
 20 21  1  0
 21 22  1  0
 20  2  1  0
 16  5  2  0
 13  7  1  0
  1 23  1  0
  1 24  1  0
  1 25  1  0
  3 26  1  0
  8 27  1  0
  9 28  1  0
 10 29  1  0
 12 30  1  0
 17 31  1  0
 18 32  1  0
 19 33  1  0
 21 34  1  0
 21 35  1  0
M  END
>  <meeko>  (5) 
{"is_sidechain": [false], "free_energy": -8.887, "intermolecular_energy": -10.433, "internal_energy": -0.211}

$$$$
cand_037_out
     RDKit          3D

 35 37  0  0  0  0  0  0  0  0999 V2000
   51.8280  159.3460   30.0500 C   0  0  0  0  0  0  0  0  0  0  0  0
   51.2660  158.0040   29.6680 C   0  0  0  0  0  0  0  0  0  0  0  0
   51.9790  157.2010   28.7570 C   0  0  0  0  0  0  0  0  0  0  0  0
   51.5060  155.9420   28.3590 C   0  0  0  0  0  0  0  0  0  0  0  0
   52.2760  155.1400   27.3840 C   0  0  0  0  0  0  0  0  0  0  0  0
   51.9680  153.7850   27.4370 O   0  0  0  0  0  0  0  0  0  0  0  0
   52.6110  152.9250   26.5840 C   0  0  0  0  0  0  0  0  0  0  0  0
   52.2820  151.5720   26.6800 C   0  0  0  0  0  0  0  0  0  0  0  0
   52.8990  150.6440   25.8400 C   0  0  0  0  0  0  0  0  0  0  0  0
   53.8440  151.0670   24.9020 C   0  0  0  0  0  0  0  0  0  0  0  0
   54.1700  152.4170   24.8070 C   0  0  0  0  0  0  0  0  0  0  0  0
   55.1020  152.7630   23.8670 O   0  0  0  0  0  0  0  0  0  0  0  0
   53.5530  153.3460   25.6490 C   0  0  0  0  0  0  0  0  0  0  0  0
   53.8670  154.7740   25.5830 C   0  0  0  0  0  0  0  0  0  0  0  0
   54.6810  155.2250   24.7800 O   0  0  0  0  0  0  0  0  0  0  0  0
   53.1630  155.6760   26.5250 C   0  0  0  0  0  0  0  0  0  0  0  0
   53.4570  157.0240   26.4440 O   0  0  0  0  0  0  0  0  0  0  0  0
   50.2830  155.4990   28.8720 C   0  0  0  0  0  0  0  0  0  0  0  0
   49.5570  156.2890   29.7680 C   0  0  0  0  0  0  0  0  0  0  0  0
   50.0290  157.5490   30.1670 C   0  0  0  0  0  0  0  0  0  0  0  0
   49.2210  158.3570   31.1510 C   0  0  0  0  0  0  0  0  0  0  0  0
   48.0610  158.8460   30.6260 F   0  0  0  0  0  0  0  0  0  0  0  0
   51.8633  159.4302   31.1462 H   0  0  0  0  0  0  0  0  0  0  0  0
   52.8443  159.4476   29.6416 H   0  0  0  0  0  0  0  0  0  0  0  0
   51.1874  160.1415   29.6416 H   0  0  0  0  0  0  0  0  0  0  0  0
   52.9307  157.5704   28.3473 H   0  0  0  0  0  0  0  0  0  0  0  0
   51.5371  151.2375   27.4170 H   0  0  0  0  0  0  0  0  0  0  0  0
   52.6408  149.5775   25.9166 H   0  0  0  0  0  0  0  0  0  0  0  0
   54.3294  150.3349   24.2399 H   0  0  0  0  0  0  0  0  0  0  0  0
   55.5460  152.0960   23.3810 H   0  0  0  0  0  0  0  0  0  0  0  0
   52.9470  157.5810   25.8890 H   0  0  0  0  0  0  0  0  0  0  0  0
   49.8881  154.5186   28.5673 H   0  0  0  0  0  0  0  0  0  0  0  0
   48.6013  155.9175   30.1663 H   0  0  0  0  0  0  0  0  0  0  0  0
   48.9722  157.7147   32.0087 H   0  0  0  0  0  0  0  0  0  0  0  0
   49.8351  159.2214   31.4437 H   0  0  0  0  0  0  0  0  0  0  0  0
  1  2  1  0
  2  3  2  0
  3  4  1  0
  4  5  1  0
  5  6  1  0
  6  7  1  0
  7  8  2  0
  8  9  1  0
  9 10  2  0
 10 11  1  0
 11 12  1  0
 11 13  2  0
 13 14  1  0
 14 15  2  0
 14 16  1  0
 16 17  1  0
  4 18  2  0
 18 19  1  0
 19 20  2  0
 20 21  1  0
 21 22  1  0
 20  2  1  0
 16  5  2  0
 13  7  1  0
  1 23  1  0
  1 24  1  0
  1 25  1  0
  3 26  1  0
  8 27  1  0
  9 28  1  0
 10 29  1  0
 12 30  1  0
 17 31  1  0
 18 32  1  0
 19 33  1  0
 21 34  1  0
 21 35  1  0
M  END
>  <meeko>  (6) 
{"is_sidechain": [false], "free_energy": -8.59, "intermolecular_energy": -10.476, "internal_energy": 0.18}

$$$$
cand_037_out
     RDKit          3D

 35 37  0  0  0  0  0  0  0  0999 V2000
   54.0440  156.3740   25.0620 C   0  0  0  0  0  0  0  0  0  0  0  0
   53.3480  155.8500   26.2890 C   0  0  0  0  0  0  0  0  0  0  0  0
   52.7170  156.7620   27.1560 C   0  0  0  0  0  0  0  0  0  0  0  0
   52.0540  156.3370   28.3170 C   0  0  0  0  0  0  0  0  0  0  0  0
   51.4210  157.3300   29.2100 C   0  0  0  0  0  0  0  0  0  0  0  0
   52.2220  158.4450   29.4320 O   0  0  0  0  0  0  0  0  0  0  0  0
   51.7550  159.4470   30.2430 C   0  0  0  0  0  0  0  0  0  0  0  0
   52.5980  160.5410   30.4490 C   0  0  0  0  0  0  0  0  0  0  0  0
   52.1830  161.5960   31.2630 C   0  0  0  0  0  0  0  0  0  0  0  0
   50.9260  161.5600   31.8700 C   0  0  0  0  0  0  0  0  0  0  0  0
   50.0860  160.4680   31.6630 C   0  0  0  0  0  0  0  0  0  0  0  0
   48.8700  160.4970   32.2870 O   0  0  0  0  0  0  0  0  0  0  0  0
   50.5030  159.4110   30.8490 C   0  0  0  0  0  0  0  0  0  0  0  0
   49.6520  158.2450   30.6050 C   0  0  0  0  0  0  0  0  0  0  0  0
   48.5320  158.1420   31.0970 O   0  0  0  0  0  0  0  0  0  0  0  0
   50.1900  157.1750   29.7320 C   0  0  0  0  0  0  0  0  0  0  0  0
   49.3730  156.0850   29.4970 O   0  0  0  0  0  0  0  0  0  0  0  0
   52.0500  154.9710   28.6160 C   0  0  0  0  0  0  0  0  0  0  0  0
   52.6820  154.0530   27.7720 C   0  0  0  0  0  0  0  0  0  0  0  0
   53.3460  154.4780   26.6100 C   0  0  0  0  0  0  0  0  0  0  0  0
   53.9960  153.4490   25.7210 C   0  0  0  0  0  0  0  0  0  0  0  0
   53.2210  153.0800   24.6620 F   0  0  0  0  0  0  0  0  0  0  0  0
   54.8892  157.0103   25.3634 H   0  0  0  0  0  0  0  0  0  0  0  0
   54.4160  155.5298   24.4628 H   0  0  0  0  0  0  0  0  0  0  0  0
   53.3356  156.9649   24.4628 H   0  0  0  0  0  0  0  0  0  0  0  0
   52.7445  157.8354   26.9170 H   0  0  0  0  0  0  0  0  0  0  0  0
   53.5879  160.5712   29.9703 H   0  0  0  0  0  0  0  0  0  0  0  0
   52.8473  162.4573   31.4267 H   0  0  0  0  0  0  0  0  0  0  0  0
   50.5995  162.3925   32.5106 H   0  0  0  0  0  0  0  0  0  0  0  0
   48.5900  159.7660   32.8020 H   0  0  0  0  0  0  0  0  0  0  0  0
   49.5370  155.2730   29.9360 H   0  0  0  0  0  0  0  0  0  0  0  0
   51.5439  154.6148   29.5254 H   0  0  0  0  0  0  0  0  0  0  0  0
   52.6588  152.9820   28.0219 H   0  0  0  0  0  0  0  0  0  0  0  0
   54.9375  153.8668   25.3350 H   0  0  0  0  0  0  0  0  0  0  0  0
   54.1595  152.5492   26.3323 H   0  0  0  0  0  0  0  0  0  0  0  0
  1  2  1  0
  2  3  2  0
  3  4  1  0
  4  5  1  0
  5  6  1  0
  6  7  1  0
  7  8  2  0
  8  9  1  0
  9 10  2  0
 10 11  1  0
 11 12  1  0
 11 13  2  0
 13 14  1  0
 14 15  2  0
 14 16  1  0
 16 17  1  0
  4 18  2  0
 18 19  1  0
 19 20  2  0
 20 21  1  0
 21 22  1  0
 20  2  1  0
 16  5  2  0
 13  7  1  0
  1 23  1  0
  1 24  1  0
  1 25  1  0
  3 26  1  0
  8 27  1  0
  9 28  1  0
 10 29  1  0
 12 30  1  0
 17 31  1  0
 18 32  1  0
 19 33  1  0
 21 34  1  0
 21 35  1  0
M  END
>  <meeko>  (7) 
{"is_sidechain": [false], "free_energy": -8.442, "intermolecular_energy": -9.962, "internal_energy": -0.159}

$$$$
cand_037_out
     RDKit          3D

 35 37  0  0  0  0  0  0  0  0999 V2000
   49.1790  156.6230   30.2010 C   0  0  0  0  0  0  0  0  0  0  0  0
   50.4900  156.8480   29.4970 C   0  0  0  0  0  0  0  0  0  0  0  0
   50.9730  155.8580   28.6220 C   0  0  0  0  0  0  0  0  0  0  0  0
   52.1900  156.0090   27.9400 C   0  0  0  0  0  0  0  0  0  0  0  0
   52.6700  154.9340   27.0450 C   0  0  0  0  0  0  0  0  0  0  0  0
   52.1920  153.6790   27.4020 O   0  0  0  0  0  0  0  0  0  0  0  0
   52.5600  152.5900   26.6540 C   0  0  0  0  0  0  0  0  0  0  0  0
   52.0670  151.3470   27.0570 C   0  0  0  0  0  0  0  0  0  0  0  0
   52.4030  150.1990   26.3380 C   0  0  0  0  0  0  0  0  0  0  0  0
   53.2290  150.2920   25.2160 C   0  0  0  0  0  0  0  0  0  0  0  0
   53.7190  151.5320   24.8150 C   0  0  0  0  0  0  0  0  0  0  0  0
   54.5220  151.5510   23.7080 O   0  0  0  0  0  0  0  0  0  0  0  0
   53.3840  152.6820   25.5360 C   0  0  0  0  0  0  0  0  0  0  0  0
   53.8760  154.0050   25.1490 C   0  0  0  0  0  0  0  0  0  0  0  0
   54.6010  154.1690   24.1710 O   0  0  0  0  0  0  0  0  0  0  0  0
   53.4690  155.1590   25.9850 C   0  0  0  0  0  0  0  0  0  0  0  0
   53.9290  156.4050   25.6020 O   0  0  0  0  0  0  0  0  0  0  0  0
   52.9380  157.1690   28.1640 C   0  0  0  0  0  0  0  0  0  0  0  0
   52.4770  158.1570   29.0380 C   0  0  0  0  0  0  0  0  0  0  0  0
   51.2610  158.0070   29.7220 C   0  0  0  0  0  0  0  0  0  0  0  0
   50.7960  159.1080   30.6410 C   0  0  0  0  0  0  0  0  0  0  0  0
   50.4710  160.2590   29.9860 F   0  0  0  0  0  0  0  0  0  0  0  0
   49.3377  156.6502   31.2891 H   0  0  0  0  0  0  0  0  0  0  0  0
   48.4686  157.4124   29.9142 H   0  0  0  0  0  0  0  0  0  0  0  0
   48.7724  155.6419   29.9142 H   0  0  0  0  0  0  0  0  0  0  0  0
   50.3821  154.9430   28.4687 H   0  0  0  0  0  0  0  0  0  0  0  0
   51.4149  151.2729   27.9398 H   0  0  0  0  0  0  0  0  0  0  0  0
   52.0165  149.2194   26.6557 H   0  0  0  0  0  0  0  0  0  0  0  0
   53.4923  149.3866   24.6495 H   0  0  0  0  0  0  0  0  0  0  0  0
   55.3490  151.9890   23.7370 H   0  0  0  0  0  0  0  0  0  0  0  0
   53.8800  157.1260   26.2000 H   0  0  0  0  0  0  0  0  0  0  0  0
   53.8993  157.3052   27.6468 H   0  0  0  0  0  0  0  0  0  0  0  0
   53.0765  159.0663   29.1922 H   0  0  0  0  0  0  0  0  0  0  0  0
   49.9087  158.7550   31.1869 H   0  0  0  0  0  0  0  0  0  0  0  0
   51.6327  159.3432   31.3153 H   0  0  0  0  0  0  0  0  0  0  0  0
  1  2  1  0
  2  3  2  0
  3  4  1  0
  4  5  1  0
  5  6  1  0
  6  7  1  0
  7  8  2  0
  8  9  1  0
  9 10  2  0
 10 11  1  0
 11 12  1  0
 11 13  2  0
 13 14  1  0
 14 15  2  0
 14 16  1  0
 16 17  1  0
  4 18  2  0
 18 19  1  0
 19 20  2  0
 20 21  1  0
 21 22  1  0
 20  2  1  0
 16  5  2  0
 13  7  1  0
  1 23  1  0
  1 24  1  0
  1 25  1  0
  3 26  1  0
  8 27  1  0
  9 28  1  0
 10 29  1  0
 12 30  1  0
 17 31  1  0
 18 32  1  0
 19 33  1  0
 21 34  1  0
 21 35  1  0
M  END
>  <meeko>  (8) 
{"is_sidechain": [false], "free_energy": -7.651, "intermolecular_energy": -9.237, "internal_energy": 0.046}

$$$$
