cand_014_out
     RDKit          3D

 35 37  0  0  0  0  0  0  0  0999 V2000
   50.0680  161.2180   31.5940 C   0  0  0  0  0  0  0  0  0  0  0  0
   50.5060  159.9680   30.8800 C   0  0  0  0  0  0  0  0  0  0  0  0
   51.8000  159.9090   30.3440 C   0  0  0  0  0  0  0  0  0  0  0  0
   52.2440  158.7720   29.6640 C   0  0  0  0  0  0  0  0  0  0  0  0
   51.4070  157.6630   29.5030 C   0  0  0  0  0  0  0  0  0  0  0  0
   51.8890  156.4770   28.7650 C   0  0  0  0  0  0  0  0  0  0  0  0
   52.4970  156.8000   27.5580 O   0  0  0  0  0  0  0  0  0  0  0  0
   52.9870  155.7880   26.7730 C   0  0  0  0  0  0  0  0  0  0  0  0
   53.5740  156.1540   25.5610 C   0  0  0  0  0  0  0  0  0  0  0  0
   54.0950  155.1730   24.7150 C   0  0  0  0  0  0  0  0  0  0  0  0
   54.0300  153.8260   25.0800 C   0  0  0  0  0  0  0  0  0  0  0  0
   53.4440  153.4640   26.2890 C   0  0  0  0  0  0  0  0  0  0  0  0
   53.4140  152.1290   26.5860 O   0  0  0  0  0  0  0  0  0  0  0  0
   52.9220  154.4450   27.1360 C   0  0  0  0  0  0  0  0  0  0  0  0
   52.2980  154.1070   28.4150 C   0  0  0  0  0  0  0  0  0  0  0  0
   52.2090  152.9470   28.8120 O   0  0  0  0  0  0  0  0  0  0  0  0
   51.7670  155.2210   29.2350 C   0  0  0  0  0  0  0  0  0  0  0  0
   51.1910  154.8940   30.4480 O   0  0  0  0  0  0  0  0  0  0  0  0
   50.1050  157.7300   30.0200 C   0  0  0  0  0  0  0  0  0  0  0  0
   49.6370  158.8710   30.7020 C   0  0  0  0  0  0  0  0  0  0  0  0
   48.2310  158.8670   31.2570 C   0  0  0  0  0  0  0  0  0  0  0  0
   47.4350  159.8390   30.7280 F   0  0  0  0  0  0  0  0  0  0  0  0
   48.1850  159.0590   32.6050 F   0  0  0  0  0  0  0  0  0  0  0  0
   50.1240  161.0582   32.6809 H   0  0  0  0  0  0  0  0  0  0  0  0
   50.7275  162.0518   31.3115 H   0  0  0  0  0  0  0  0  0  0  0  0
   49.0323  161.4578   31.3115 H   0  0  0  0  0  0  0  0  0  0  0  0
   52.4751  160.7696   30.4604 H   0  0  0  0  0  0  0  0  0  0  0  0
   53.2631  158.7488   29.2507 H   0  0  0  0  0  0  0  0  0  0  0  0
   53.6262  157.2142   25.2725 H   0  0  0  0  0  0  0  0  0  0  0  0
   54.5574  155.4612   23.7594 H   0  0  0  0  0  0  0  0  0  0  0  0
   54.4410  153.0536   24.4133 H   0  0  0  0  0  0  0  0  0  0  0  0
   53.4520  151.4950   25.8960 H   0  0  0  0  0  0  0  0  0  0  0  0
   50.3240  155.1860   30.6500 H   0  0  0  0  0  0  0  0  0  0  0  0
   49.4318  156.8698   29.8898 H   0  0  0  0  0  0  0  0  0  0  0  0
   47.8659  157.8661   30.9833 H   0  0  0  0  0  0  0  0  0  0  0  0
  1  2  1  0
  2  3  2  0
  3  4  1  0
  4  5  2  0
  5  6  1  0
  6  7  1  0
  7  8  1  0
  8  9  2  0
  9 10  1  0
 10 11  2  0
 11 12  1  0
 12 13  1  0
 12 14  2  0
 14 15  1  0
 15 16  2  0
 15 17  1  0
 17 18  1  0
  5 19  1  0
 19 20  2  0
 20 21  1  0
 21 22  1  0
 21 23  1  0
 20  2  1  0
 17  6  2  0
 14  8  1  0
  1 24  1  0
  1 25  1  0
  1 26  1  0
  3 27  1  0
  4 28  1  0
  9 29  1  0
 10 30  1  0
 11 31  1  0
 13 32  1  0
 18 33  1  0
 19 34  1  0
 21 35  1  0
M  END
>  <meeko>  (1) 
{"is_sidechain": [false], "free_energy": -10.877, "intermolecular_energy": -12.785, "internal_energy": -0.115}

$$$$
cand_014_out
     RDKit          3D

 35 37  0  0  0  0  0  0  0  0999 V2000
   49.0730  160.7340   31.7680 C   0  0  0  0  0  0  0  0  0  0  0  0
   49.7760  159.6500   30.9960 C   0  0  0  0  0  0  0  0  0  0  0  0
   49.0920  158.4570   30.7220 C   0  0  0  0  0  0  0  0  0  0  0  0
   49.7110  157.4210   30.0180 C   0  0  0  0  0  0  0  0  0  0  0  0
   51.0290  157.5500   29.5670 C   0  0  0  0  0  0  0  0  0  0  0  0
   51.6710  156.4350   28.8400 C   0  0  0  0  0  0  0  0  0  0  0  0
   52.2560  156.8340   27.6450 O   0  0  0  0  0  0  0  0  0  0  0  0
   52.8850  155.8930   26.8700 C   0  0  0  0  0  0  0  0  0  0  0  0
   53.4450  156.3310   25.6690 C   0  0  0  0  0  0  0  0  0  0  0  0
   54.1020  155.4250   24.8350 C   0  0  0  0  0  0  0  0  0  0  0  0
   54.2000  154.0810   25.2000 C   0  0  0  0  0  0  0  0  0  0  0  0
   53.6410  153.6460   26.3980 C   0  0  0  0  0  0  0  0  0  0  0  0
   53.7740  152.3170   26.6950 O   0  0  0  0  0  0  0  0  0  0  0  0
   52.9830  154.5520   27.2330 C   0  0  0  0  0  0  0  0  0  0  0  0
   52.3820  154.1360   28.5010 C   0  0  0  0  0  0  0  0  0  0  0  0
   52.4330  152.9740   28.8970 O   0  0  0  0  0  0  0  0  0  0  0  0
   51.6990  155.1740   29.3090 C   0  0  0  0  0  0  0  0  0  0  0  0
   51.1460  154.7740   30.5110 O   0  0  0  0  0  0  0  0  0  0  0  0
   51.7200  158.7340   29.8600 C   0  0  0  0  0  0  0  0  0  0  0  0
   51.1160  159.7870   30.5750 C   0  0  0  0  0  0  0  0  0  0  0  0
   51.9100  161.0470   30.8340 C   0  0  0  0  0  0  0  0  0  0  0  0
   53.0840  161.1010   30.1430 F   0  0  0  0  0  0  0  0  0  0  0  0
   52.2550  161.2050   32.1420 F   0  0  0  0  0  0  0  0  0  0  0  0
   49.1912  160.5518   32.8463 H   0  0  0  0  0  0  0  0  0  0  0  0
   49.5106  161.7099   31.5109 H   0  0  0  0  0  0  0  0  0  0  0  0
   48.0035  160.7325   31.5109 H   0  0  0  0  0  0  0  0  0  0  0  0
   48.0543  158.3351   31.0659 H   0  0  0  0  0  0  0  0  0  0  0  0
   49.1556  156.4932   29.8160 H   0  0  0  0  0  0  0  0  0  0  0  0
   53.3686  157.3896   25.3799 H   0  0  0  0  0  0  0  0  0  0  0  0
   54.5433  155.7705   23.8885 H   0  0  0  0  0  0  0  0  0  0  0  0
   54.7179  153.3675   24.5422 H   0  0  0  0  0  0  0  0  0  0  0  0
   54.5250  151.8430   26.3960 H   0  0  0  0  0  0  0  0  0  0  0  0
   51.5130  155.0740   31.3190 H   0  0  0  0  0  0  0  0  0  0  0  0
   52.7613  158.8438   29.5228 H   0  0  0  0  0  0  0  0  0  0  0  0
   51.2216  161.8391   30.5043 H   0  0  0  0  0  0  0  0  0  0  0  0
  1  2  1  0
  2  3  2  0
  3  4  1  0
  4  5  2  0
  5  6  1  0
  6  7  1  0
  7  8  1  0
  8  9  2  0
  9 10  1  0
 10 11  2  0
 11 12  1  0
 12 13  1  0
 12 14  2  0
 14 15  1  0
 15 16  2  0
 15 17  1  0
 17 18  1  0
  5 19  1  0
 19 20  2  0
 20 21  1  0
 21 22  1  0
 21 23  1  0
 20  2  1  0
 17  6  2  0
 14  8  1  0
  1 24  1  0
  1 25  1  0
  1 26  1  0
  3 27  1  0
  4 28  1  0
  9 29  1  0
 10 30  1  0
 11 31  1  0
 13 32  1  0
 18 33  1  0
 19 34  1  0
 21 35  1  0
M  END
>  <meeko>  (2) 
{"is_sidechain": [false], "free_energy": -10.601, "intermolecular_energy": -12.317, "internal_energy": -0.258}

$$$$
cand_014_out
     RDKit          3D

 35 37  0  0  0  0  0  0  0  0999 V2000
   52.9250  152.5050   26.7620 C   0  0  0  0  0  0  0  0  0  0  0  0
   52.5800  153.8130   27.4200 C   0  0  0  0  0  0  0  0  0  0  0  0
   51.9080  153.7990   28.6520 C   0  0  0  0  0  0  0  0  0  0  0  0
   51.5590  154.9900   29.2920 C   0  0  0  0  0  0  0  0  0  0  0  0
   51.8720  156.2280   28.7200 C   0  0  0  0  0  0  0  0  0  0  0  0
   51.4770  157.4760   29.4050 C   0  0  0  0  0  0  0  0  0  0  0  0
   50.1550  157.4660   29.8300 O   0  0  0  0  0  0  0  0  0  0  0  0
   49.6600  158.5690   30.4780 C   0  0  0  0  0  0  0  0  0  0  0  0
   48.3220  158.5260   30.8730 C   0  0  0  0  0  0  0  0  0  0  0  0
   47.7570  159.6140   31.5410 C   0  0  0  0  0  0  0  0  0  0  0  0
   48.5280  160.7460   31.8140 C   0  0  0  0  0  0  0  0  0  0  0  0
   49.8620  160.7870   31.4190 C   0  0  0  0  0  0  0  0  0  0  0  0
   50.5600  161.9250   31.7180 O   0  0  0  0  0  0  0  0  0  0  0  0
   50.4280  159.6980   30.7510 C   0  0  0  0  0  0  0  0  0  0  0  0
   51.8260  159.7010   30.3180 C   0  0  0  0  0  0  0  0  0  0  0  0
   52.5720  160.6550   30.5290 O   0  0  0  0  0  0  0  0  0  0  0  0
   52.3270  158.5000   29.6090 C   0  0  0  0  0  0  0  0  0  0  0  0
   53.6520  158.5060   29.2170 O   0  0  0  0  0  0  0  0  0  0  0  0
   52.5230  156.2420   27.4790 C   0  0  0  0  0  0  0  0  0  0  0  0
   52.8770  155.0520   26.8140 C   0  0  0  0  0  0  0  0  0  0  0  0
   53.6020  155.1390   25.4900 C   0  0  0  0  0  0  0  0  0  0  0  0
   53.9960  156.4050   25.1690 F   0  0  0  0  0  0  0  0  0  0  0  0
   52.8470  154.7200   24.4360 F   0  0  0  0  0  0  0  0  0  0  0  0
   53.1248  151.7475   27.5342 H   0  0  0  0  0  0  0  0  0  0  0  0
   52.0828  152.1764   26.1353 H   0  0  0  0  0  0  0  0  0  0  0  0
   53.8197  152.6346   26.1353 H   0  0  0  0  0  0  0  0  0  0  0  0
   51.6527  152.8367   29.1198 H   0  0  0  0  0  0  0  0  0  0  0  0
   51.0320  154.9546   30.2569 H   0  0  0  0  0  0  0  0  0  0  0  0
   47.7131  157.6355   30.6581 H   0  0  0  0  0  0  0  0  0  0  0  0
   46.7027  159.5795   31.8528 H   0  0  0  0  0  0  0  0  0  0  0  0
   48.0821  161.6031   32.3399 H   0  0  0  0  0  0  0  0  0  0  0  0
   50.8480  162.0800   32.5970 H   0  0  0  0  0  0  0  0  0  0  0  0
   54.2670  157.9340   29.6320 H   0  0  0  0  0  0  0  0  0  0  0  0
   52.7639  157.2083   27.0118 H   0  0  0  0  0  0  0  0  0  0  0  0
   54.4707  154.4824   25.6454 H   0  0  0  0  0  0  0  0  0  0  0  0
  1  2  1  0
  2  3  2  0
  3  4  1  0
  4  5  2  0
  5  6  1  0
  6  7  1  0
  7  8  1  0
  8  9  2  0
  9 10  1  0
 10 11  2  0
 11 12  1  0
 12 13  1  0
 12 14  2  0
 14 15  1  0
 15 16  2  0
 15 17  1  0
 17 18  1  0
  5 19  1  0
 19 20  2  0
 20 21  1  0
 21 22  1  0
 21 23  1  0
 20  2  1  0
 17  6  2  0
 14  8  1  0
  1 24  1  0
  1 25  1  0
  1 26  1  0
  3 27  1  0
  4 28  1  0
  9 29  1  0
 10 30  1  0
 11 31  1  0
 13 32  1  0
 18 33  1  0
 19 34  1  0
 21 35  1  0
M  END
>  <meeko>  (3) 
{"is_sidechain": [false], "free_energy": -10.591, "intermolecular_energy": -12.302, "internal_energy": -0.262}

$$$$
cand_014_out
     RDKit          3D

 35 37  0  0  0  0  0  0  0  0999 V2000
   53.3790  152.6710   26.7950 C   0  0  0  0  0  0  0  0  0  0  0  0
   52.8040  153.8840   27.4750 C   0  0  0  0  0  0  0  0  0  0  0  0
   52.1410  153.7270   28.7010 C   0  0  0  0  0  0  0  0  0  0  0  0
   51.5830  154.8240   29.3600 C   0  0  0  0  0  0  0  0  0  0  0  0
   51.6740  156.1090   28.8150 C   0  0  0  0  0  0  0  0  0  0  0  0
   51.0610  157.2540   29.5200 C   0  0  0  0  0  0  0  0  0  0  0  0
   51.9630  158.2800   29.7730 O   0  0  0  0  0  0  0  0  0  0  0  0
   51.5220  159.4020   30.4270 C   0  0  0  0  0  0  0  0  0  0  0  0
   52.4630  160.4010   30.6770 C   0  0  0  0  0  0  0  0  0  0  0  0
   52.0800  161.5710   31.3350 C   0  0  0  0  0  0  0  0  0  0  0  0
   50.7550  161.7430   31.7430 C   0  0  0  0  0  0  0  0  0  0  0  0
   49.8180  160.7450   31.4920 C   0  0  0  0  0  0  0  0  0  0  0  0
   48.5390  160.9780   31.9170 O   0  0  0  0  0  0  0  0  0  0  0  0
   50.2020  159.5740   30.8340 C   0  0  0  0  0  0  0  0  0  0  0  0
   49.2480  158.5010   30.5510 C   0  0  0  0  0  0  0  0  0  0  0  0
   48.0630  158.5800   30.8690 O   0  0  0  0  0  0  0  0  0  0  0  0
   49.7580  157.2960   29.8550 C   0  0  0  0  0  0  0  0  0  0  0  0
   48.8480  156.2940   29.5800 O   0  0  0  0  0  0  0  0  0  0  0  0
   52.3170  156.2630   27.5790 C   0  0  0  0  0  0  0  0  0  0  0  0
   52.8800  155.1680   26.8950 C   0  0  0  0  0  0  0  0  0  0  0  0
   53.5830  155.4090   25.5780 C   0  0  0  0  0  0  0  0  0  0  0  0
   53.9100  156.7160   25.3680 F   0  0  0  0  0  0  0  0  0  0  0  0
   52.8380  155.0470   24.4970 F   0  0  0  0  0  0  0  0  0  0  0  0
   53.7199  151.9520   27.5545 H   0  0  0  0  0  0  0  0  0  0  0  0
   52.6072  152.2025   26.1667 H   0  0  0  0  0  0  0  0  0  0  0  0
   54.2303  152.9719   26.1667 H   0  0  0  0  0  0  0  0  0  0  0  0
   52.0596  152.7258   29.1494 H   0  0  0  0  0  0  0  0  0  0  0  0
   51.0656  154.6760   30.3194 H   0  0  0  0  0  0  0  0  0  0  0  0
   53.5064  160.2668   30.3557 H   0  0  0  0  0  0  0  0  0  0  0  0
   52.8223  162.3584   31.5325 H   0  0  0  0  0  0  0  0  0  0  0  0
   50.4530  162.6650   32.2614 H   0  0  0  0  0  0  0  0  0  0  0  0
   47.9430  161.4540   31.3710 H   0  0  0  0  0  0  0  0  0  0  0  0
   48.8760  155.4890   30.0590 H   0  0  0  0  0  0  0  0  0  0  0  0
   52.3837  157.2656   27.1314 H   0  0  0  0  0  0  0  0  0  0  0  0
   54.4850  154.7859   25.6678 H   0  0  0  0  0  0  0  0  0  0  0  0
  1  2  1  0
  2  3  2  0
  3  4  1  0
  4  5  2  0
  5  6  1  0
  6  7  1  0
  7  8  1  0
  8  9  2  0
  9 10  1  0
 10 11  2  0
 11 12  1  0
 12 13  1  0
 12 14  2  0
 14 15  1  0
 15 16  2  0
 15 17  1  0
 17 18  1  0
  5 19  1  0
 19 20  2  0
 20 21  1  0
 21 22  1  0
 21 23  1  0
 20  2  1  0
 17  6  2  0
 14  8  1  0
  1 24  1  0
  1 25  1  0
  1 26  1  0
  3 27  1  0
  4 28  1  0
  9 29  1  0
 10 30  1  0
 11 31  1  0
 13 32  1  0
 18 33  1  0
 19 34  1  0
 21 35  1  0
M  END
>  <meeko>  (4) 
{"is_sidechain": [false], "free_energy": -9.491, "intermolecular_energy": -10.931, "internal_energy": -0.339}

$$$$
cand_014_out
     RDKit          3D

 35 37  0  0  0  0  0  0  0  0999 V2000
   53.4340  154.1240   26.1880 C   0  0  0  0  0  0  0  0  0  0  0  0
   52.8850  155.1760   27.1130 C   0  0  0  0  0  0  0  0  0  0  0  0
   52.9880  156.5260   26.7460 C   0  0  0  0  0  0  0  0  0  0  0  0
   52.5010  157.5350   27.5800 C   0  0  0  0  0  0  0  0  0  0  0  0
   51.8990  157.2230   28.8030 C   0  0  0  0  0  0  0  0  0  0  0  0
   51.4070  158.3070   29.6790 C   0  0  0  0  0  0  0  0  0  0  0  0
   50.0780  158.1430   30.0500 O   0  0  0  0  0  0  0  0  0  0  0  0
   49.4970  159.0840   30.8620 C   0  0  0  0  0  0  0  0  0  0  0  0
   48.1560  158.8910   31.1970 C   0  0  0  0  0  0  0  0  0  0  0  0
   47.5060  159.8100   32.0230 C   0  0  0  0  0  0  0  0  0  0  0  0
   48.1940  160.9210   32.5140 C   0  0  0  0  0  0  0  0  0  0  0  0
   49.5320  161.1110   32.1790 C   0  0  0  0  0  0  0  0  0  0  0  0
   50.1460  162.2180   32.6950 O   0  0  0  0  0  0  0  0  0  0  0  0
   50.1830  160.1920   31.3520 C   0  0  0  0  0  0  0  0  0  0  0  0
   51.5880  160.3540   30.9760 C   0  0  0  0  0  0  0  0  0  0  0  0
   52.2650  161.3000   31.3740 O   0  0  0  0  0  0  0  0  0  0  0  0
   52.1830  159.3280   30.0880 C   0  0  0  0  0  0  0  0  0  0  0  0
   53.5140  159.4830   29.7480 O   0  0  0  0  0  0  0  0  0  0  0  0
   51.8160  155.8760   29.1810 C   0  0  0  0  0  0  0  0  0  0  0  0
   52.3080  154.8440   28.3570 C   0  0  0  0  0  0  0  0  0  0  0  0
   52.1630  153.4100   28.8130 C   0  0  0  0  0  0  0  0  0  0  0  0
   51.4160  152.6440   27.9670 F   0  0  0  0  0  0  0  0  0  0  0  0
   51.5620  153.2910   30.0300 F   0  0  0  0  0  0  0  0  0  0  0  0
   53.8628  153.3024   26.7805 H   0  0  0  0  0  0  0  0  0  0  0  0
   52.6241  153.7347   25.5536 H   0  0  0  0  0  0  0  0  0  0  0  0
   54.2165  154.5658   25.5536 H   0  0  0  0  0  0  0  0  0  0  0  0
   53.4587  156.7936   25.7885 H   0  0  0  0  0  0  0  0  0  0  0  0
   52.5920  158.5869   27.2713 H   0  0  0  0  0  0  0  0  0  0  0  0
   47.6121  158.0163   30.8109 H   0  0  0  0  0  0  0  0  0  0  0  0
   46.4491  159.6582   32.2875 H   0  0  0  0  0  0  0  0  0  0  0  0
   47.6803  161.6446   33.1640 H   0  0  0  0  0  0  0  0  0  0  0  0
   50.2390  162.9900   32.1700 H   0  0  0  0  0  0  0  0  0  0  0  0
   54.1780  159.3980   30.4040 H   0  0  0  0  0  0  0  0  0  0  0  0
   51.3550  155.6176   30.1457 H   0  0  0  0  0  0  0  0  0  0  0  0
   53.2053  153.0602   28.8465 H   0  0  0  0  0  0  0  0  0  0  0  0
  1  2  1  0
  2  3  2  0
  3  4  1  0
  4  5  2  0
  5  6  1  0
  6  7  1  0
  7  8  1  0
  8  9  2  0
  9 10  1  0
 10 11  2  0
 11 12  1  0
 12 13  1  0
 12 14  2  0
 14 15  1  0
 15 16  2  0
 15 17  1  0
 17 18  1  0
  5 19  1  0
 19 20  2  0
 20 21  1  0
 21 22  1  0
 21 23  1  0
 20  2  1  0
 17  6  2  0
 14  8  1  0
  1 24  1  0
  1 25  1  0
  1 26  1  0
  3 27  1  0
  4 28  1  0
  9 29  1  0
 10 30  1  0
 11 31  1  0
 13 32  1  0
 18 33  1  0
 19 34  1  0
 21 35  1  0
M  END
>  <meeko>  (5) 
{"is_sidechain": [false], "free_energy": -8.931, "intermolecular_energy": -10.402, "internal_energy": -0.211}

$$$$
cand_014_out
     RDKit          3D

 35 37  0  0  0  0  0  0  0  0999 V2000
   53.9300  153.9790   25.5780 C   0  0  0  0  0  0  0  0  0  0  0  0
   53.2140  154.8740   26.5530 C   0  0  0  0  0  0  0  0  0  0  0  0
   53.3440  156.2650   26.4210 C   0  0  0  0  0  0  0  0  0  0  0  0
   52.7060  157.1320   27.3110 C   0  0  0  0  0  0  0  0  0  0  0  0
   51.9190  156.6340   28.3550 C   0  0  0  0  0  0  0  0  0  0  0  0
   51.2670  157.5670   29.2960 C   0  0  0  0  0  0  0  0  0  0  0  0
   52.0350  158.6940   29.5610 O   0  0  0  0  0  0  0  0  0  0  0  0
   51.5450  159.6410   30.4240 C   0  0  0  0  0  0  0  0  0  0  0  0
   52.3550  160.7480   30.6770 C   0  0  0  0  0  0  0  0  0  0  0  0
   51.9150  161.7510   31.5440 C   0  0  0  0  0  0  0  0  0  0  0  0
   50.6650  161.6470   32.1570 C   0  0  0  0  0  0  0  0  0  0  0  0
   49.8580  160.5410   31.9040 C   0  0  0  0  0  0  0  0  0  0  0  0
   48.6460  160.5030   32.5360 O   0  0  0  0  0  0  0  0  0  0  0  0
   50.2990  159.5380   31.0370 C   0  0  0  0  0  0  0  0  0  0  0  0
   49.4820  158.3590   30.7430 C   0  0  0  0  0  0  0  0  0  0  0  0
   48.3680  158.1990   31.2360 O   0  0  0  0  0  0  0  0  0  0  0  0
   50.0450  157.3490   29.8170 C   0  0  0  0  0  0  0  0  0  0  0  0
   49.2610  156.2460   29.5350 O   0  0  0  0  0  0  0  0  0  0  0  0
   51.8080  155.2440   28.5000 C   0  0  0  0  0  0  0  0  0  0  0  0
   52.4500  154.3530   27.6170 C   0  0  0  0  0  0  0  0  0  0  0  0
   52.2660  152.8650   27.8150 C   0  0  0  0  0  0  0  0  0  0  0  0
   51.5780  152.2640   26.8030 F   0  0  0  0  0  0  0  0  0  0  0  0
   51.5790  152.5550   28.9500 F   0  0  0  0  0  0  0  0  0  0  0  0
   54.5243  153.2362   26.1304 H   0  0  0  0  0  0  0  0  0  0  0  0
   53.1932  153.4622   24.9454 H   0  0  0  0  0  0  0  0  0  0  0  0
   54.5959  154.5844   24.9454 H   0  0  0  0  0  0  0  0  0  0  0  0
   53.9564  156.6780   25.6059 H   0  0  0  0  0  0  0  0  0  0  0  0
   52.8237  158.2189   27.1897 H   0  0  0  0  0  0  0  0  0  0  0  0
   53.3398  160.8311   30.1940 H   0  0  0  0  0  0  0  0  0  0  0  0
   52.5541  162.6237   31.7440 H   0  0  0  0  0  0  0  0  0  0  0  0
   50.3183  162.4376   32.8388 H   0  0  0  0  0  0  0  0  0  0  0  0
   47.8650  160.3430   32.0430 H   0  0  0  0  0  0  0  0  0  0  0  0
   49.6510  155.4720   29.1790 H   0  0  0  0  0  0  0  0  0  0  0  0
   51.2038  154.8382   29.3248 H   0  0  0  0  0  0  0  0  0  0  0  0
   53.3015  152.4967   27.8619 H   0  0  0  0  0  0  0  0  0  0  0  0
  1  2  1  0
  2  3  2  0
  3  4  1  0
  4  5  2  0
  5  6  1  0
  6  7  1  0
  7  8  1  0
  8  9  2  0
  9 10  1  0
 10 11  2  0
 11 12  1  0
 12 13  1  0
 12 14  2  0
 14 15  1  0
 15 16  2  0
 15 17  1  0
 17 18  1  0
  5 19  1  0
 19 20  2  0
 20 21  1  0
 21 22  1  0
 21 23  1  0
 20  2  1  0
 17  6  2  0
 14  8  1  0
  1 24  1  0
  1 25  1  0
  1 26  1  0
  3 27  1  0
  4 28  1  0
  9 29  1  0
 10 30  1  0
 11 31  1  0
 13 32  1  0
 18 33  1  0
 19 34  1  0
 21 35  1  0
M  END
>  <meeko>  (6) 
{"is_sidechain": [false], "free_energy": -8.507, "intermolecular_energy": -10.022, "internal_energy": -0.092}

$$$$
cand_014_out
     RDKit          3D

 35 37  0  0  0  0  0  0  0  0999 V2000
   49.1950  158.3750   31.2020 C   0  0  0  0  0  0  0  0  0  0  0  0
   50.0060  157.5960   30.2020 C   0  0  0  0  0  0  0  0  0  0  0  0
   49.6020  156.2970   29.8630 C   0  0  0  0  0  0  0  0  0  0  0  0
   50.3320  155.5340   28.9480 C   0  0  0  0  0  0  0  0  0  0  0  0
   51.4840  156.0500   28.3460 C   0  0  0  0  0  0  0  0  0  0  0  0
   52.2520  155.2200   27.3950 C   0  0  0  0  0  0  0  0  0  0  0  0
   51.9320  153.8700   27.4720 O   0  0  0  0  0  0  0  0  0  0  0  0
   52.5780  152.9890   26.6430 C   0  0  0  0  0  0  0  0  0  0  0  0
   52.2400  151.6400   26.7640 C   0  0  0  0  0  0  0  0  0  0  0  0
   52.8580  150.6910   25.9480 C   0  0  0  0  0  0  0  0  0  0  0  0
   53.8120  151.0890   25.0090 C   0  0  0  0  0  0  0  0  0  0  0  0
   54.1470  152.4350   24.8900 C   0  0  0  0  0  0  0  0  0  0  0  0
   55.0890  152.7560   23.9500 O   0  0  0  0  0  0  0  0  0  0  0  0
   53.5300  153.3850   25.7070 C   0  0  0  0  0  0  0  0  0  0  0  0
   53.8530  154.8090   25.6130 C   0  0  0  0  0  0  0  0  0  0  0  0
   54.6760  155.2400   24.8080 O   0  0  0  0  0  0  0  0  0  0  0  0
   53.1480  155.7340   26.5320 C   0  0  0  0  0  0  0  0  0  0  0  0
   53.4500  157.0780   26.4270 O   0  0  0  0  0  0  0  0  0  0  0  0
   51.9010  157.3400   28.7020 C   0  0  0  0  0  0  0  0  0  0  0  0
   51.1830  158.1220   29.6280 C   0  0  0  0  0  0  0  0  0  0  0  0
   51.6730  159.5160   29.9470 C   0  0  0  0  0  0  0  0  0  0  0  0
   51.8690  159.7310   31.2790 F   0  0  0  0  0  0  0  0  0  0  0  0
   50.8110  160.4930   29.5480 F   0  0  0  0  0  0  0  0  0  0  0  0
   49.4944  158.0874   32.2206 H   0  0  0  0  0  0  0  0  0  0  0  0
   49.3711  159.4512   31.0582 H   0  0  0  0  0  0  0  0  0  0  0  0
   48.1267  158.1558   31.0582 H   0  0  0  0  0  0  0  0  0  0  0  0
   48.6978  155.8726   30.3237 H   0  0  0  0  0  0  0  0  0  0  0  0
   49.9970  154.5164   28.6985 H   0  0  0  0  0  0  0  0  0  0  0  0
   51.4873  151.3251   27.5018 H   0  0  0  0  0  0  0  0  0  0  0  0
   52.5931  149.6278   26.0447 H   0  0  0  0  0  0  0  0  0  0  0  0
   54.2975  150.3409   24.3651 H   0  0  0  0  0  0  0  0  0  0  0  0
   55.7050  152.1090   23.6640 H   0  0  0  0  0  0  0  0  0  0  0  0
   53.8860  157.5180   27.1300 H   0  0  0  0  0  0  0  0  0  0  0  0
   52.8131  157.7527   28.2462 H   0  0  0  0  0  0  0  0  0  0  0  0
   52.6225  159.5715   29.3944 H   0  0  0  0  0  0  0  0  0  0  0  0
  1  2  1  0
  2  3  2  0
  3  4  1  0
  4  5  2  0
  5  6  1  0
  6  7  1  0
  7  8  1  0
  8  9  2  0
  9 10  1  0
 10 11  2  0
 11 12  1  0
 12 13  1  0
 12 14  2  0
 14 15  1  0
 15 16  2  0
 15 17  1  0
 17 18  1  0
  5 19  1  0
 19 20  2  0
 20 21  1  0
 21 22  1  0
 21 23  1  0
 20  2  1  0
 17  6  2  0
 14  8  1  0
  1 24  1  0
  1 25  1  0
  1 26  1  0
  3 27  1  0
  4 28  1  0
  9 29  1  0
 10 30  1  0
 11 31  1  0
 13 32  1  0
 18 33  1  0
 19 34  1  0
 21 35  1  0
M  END
>  <meeko>  (7) 
{"is_sidechain": [false], "free_energy": -8.506, "intermolecular_energy": -10.344, "internal_energy": 0.231}

$$$$
cand_014_out
     RDKit          3D

 35 37  0  0  0  0  0  0  0  0999 V2000
   50.8650  159.2980   30.8380 C   0  0  0  0  0  0  0  0  0  0  0  0
   51.3540  158.2590   29.8660 C   0  0  0  0  0  0  0  0  0  0  0  0
   52.6240  158.4100   29.2910 C   0  0  0  0  0  0  0  0  0  0  0  0
   53.1120  157.4750   28.3750 C   0  0  0  0  0  0  0  0  0  0  0  0
   52.3460  156.3630   28.0100 C   0  0  0  0  0  0  0  0  0  0  0  0
   52.8730  155.3960   27.0260 C   0  0  0  0  0  0  0  0  0  0  0  0
   52.4770  154.0890   27.2850 O   0  0  0  0  0  0  0  0  0  0  0  0
   52.9020  153.0900   26.4470 C   0  0  0  0  0  0  0  0  0  0  0  0
   52.4970  151.7910   26.7520 C   0  0  0  0  0  0  0  0  0  0  0  0
   52.8920  150.7280   25.9380 C   0  0  0  0  0  0  0  0  0  0  0  0
   53.6920  150.9640   24.8180 C   0  0  0  0  0  0  0  0  0  0  0  0
   54.0950  152.2610   24.5150 C   0  0  0  0  0  0  0  0  0  0  0  0
   54.8760  152.4220   23.4030 O   0  0  0  0  0  0  0  0  0  0  0  0
   53.7000  153.3250   25.3300 C   0  0  0  0  0  0  0  0  0  0  0  0
   54.1020  154.7030   25.0470 C   0  0  0  0  0  0  0  0  0  0  0  0
   54.7980  154.9940   24.0760 O   0  0  0  0  0  0  0  0  0  0  0  0
   53.6370  155.7580   25.9790 C   0  0  0  0  0  0  0  0  0  0  0  0
   54.0100  157.0580   25.6960 O   0  0  0  0  0  0  0  0  0  0  0  0
   51.0670  156.2250   28.5680 C   0  0  0  0  0  0  0  0  0  0  0  0
   50.5540  157.1610   29.4870 C   0  0  0  0  0  0  0  0  0  0  0  0
   49.1770  156.9360   30.0700 C   0  0  0  0  0  0  0  0  0  0  0  0
   48.5060  155.8980   29.4950 F   0  0  0  0  0  0  0  0  0  0  0  0
   48.3550  158.0140   29.9360 F   0  0  0  0  0  0  0  0  0  0  0  0
   51.0312  158.9450   31.8665 H   0  0  0  0  0  0  0  0  0  0  0  0
   51.4158  160.2368   30.6791 H   0  0  0  0  0  0  0  0  0  0  0  0
   49.7905  159.4719   30.6791 H   0  0  0  0  0  0  0  0  0  0  0  0
   53.2442  159.2762   29.5649 H   0  0  0  0  0  0  0  0  0  0  0  0
   54.1106  157.6149   27.9355 H   0  0  0  0  0  0  0  0  0  0  0  0
   51.8665  151.6040   27.6337 H   0  0  0  0  0  0  0  0  0  0  0  0
   52.5727  149.7033   26.1791 H   0  0  0  0  0  0  0  0  0  0  0  0
   54.0030  150.1263   24.1765 H   0  0  0  0  0  0  0  0  0  0  0  0
   54.6110  152.0460   22.5860 H   0  0  0  0  0  0  0  0  0  0  0  0
   54.8250  157.3920   26.0150 H   0  0  0  0  0  0  0  0  0  0  0  0
   50.4477  155.3626   28.2803 H   0  0  0  0  0  0  0  0  0  0  0  0
   49.3932  156.7273   31.1282 H   0  0  0  0  0  0  0  0  0  0  0  0
  1  2  1  0
  2  3  2  0
  3  4  1  0
  4  5  2  0
  5  6  1  0
  6  7  1  0
  7  8  1  0
  8  9  2  0
  9 10  1  0
 10 11  2  0
 11 12  1  0
 12 13  1  0
 12 14  2  0
 14 15  1  0
 15 16  2  0
 15 17  1  0
 17 18  1  0
  5 19  1  0
 19 20  2  0
 20 21  1  0
 21 22  1  0
 21 23  1  0
 20  2  1  0
 17  6  2  0
 14  8  1  0
  1 24  1  0
  1 25  1  0
  1 26  1  0
  3 27  1  0
  4 28  1  0
  9 29  1  0
 10 30  1  0
 11 31  1  0
 13 32  1  0
 18 33  1  0
 19 34  1  0
 21 35  1  0
M  END
>  <meeko>  (8) 
{"is_sidechain": [false], "free_energy": -7.902, "intermolecular_energy": -9.511, "internal_energy": 0.109}

$$$$
