cand_007_out
     RDKit          3D

 35 37  0  0  0  0  0  0  0  0999 V2000
   19.9680  -31.4650   35.1120 O   0  0  0  0  0  0  0  0  0  0  0  0
   20.0060  -31.6440   36.3280 C   0  0  0  0  0  0  0  0  0  0  0  0
   20.5500  -30.5980   37.2240 C   0  0  0  0  0  0  0  0  0  0  0  0
   21.0170  -29.4400   36.6290 O   0  0  0  0  0  0  0  0  0  0  0  0
   20.5750  -30.8350   38.5490 C   0  0  0  0  0  0  0  0  0  0  0  0
   21.1060  -29.8710   39.5350 C   0  0  0  0  0  0  0  0  0  0  0  0
   22.4090  -29.9690   40.0340 C   0  0  0  0  0  0  0  0  0  0  0  0
   22.8960  -29.0340   40.9500 C   0  0  0  0  0  0  0  0  0  0  0  0
   22.0940  -27.9670   41.3890 C   0  0  0  0  0  0  0  0  0  0  0  0
   22.6520  -26.9710   42.3820 C   0  0  0  0  0  0  0  0  0  0  0  0
   23.9200  -27.2830   42.7680 F   0  0  0  0  0  0  0  0  0  0  0  0
   22.7190  -25.7100   41.8710 F   0  0  0  0  0  0  0  0  0  0  0  0
   21.9260  -26.8690   43.5290 F   0  0  0  0  0  0  0  0  0  0  0  0
   20.7820  -27.8440   40.8820 C   0  0  0  0  0  0  0  0  0  0  0  0
   19.8690  -26.7200   41.3160 C   0  0  0  0  0  0  0  0  0  0  0  0
   19.2000  -26.9850   42.4750 F   0  0  0  0  0  0  0  0  0  0  0  0
   20.3070  -28.7990   39.9620 C   0  0  0  0  0  0  0  0  0  0  0  0
   20.1260  -32.0140   39.1330 O   0  0  0  0  0  0  0  0  0  0  0  0
   19.6120  -32.9990   38.3290 C   0  0  0  0  0  0  0  0  0  0  0  0
   19.1670  -34.1620   38.9590 C   0  0  0  0  0  0  0  0  0  0  0  0
   18.6320  -35.2050   38.1980 C   0  0  0  0  0  0  0  0  0  0  0  0
   18.5450  -35.0850   36.8100 C   0  0  0  0  0  0  0  0  0  0  0  0
   18.9900  -33.9240   36.1840 C   0  0  0  0  0  0  0  0  0  0  0  0
   18.8750  -33.8730   34.8220 O   0  0  0  0  0  0  0  0  0  0  0  0
   19.5240  -32.8800   36.9450 C   0  0  0  0  0  0  0  0  0  0  0  0
   20.4940  -28.9970   35.9890 H   0  0  0  0  0  0  0  0  0  0  0  0
   23.0579  -30.7924   39.7010 H   0  0  0  0  0  0  0  0  0  0  0  0
   23.9222  -29.1343   41.3333 H   0  0  0  0  0  0  0  0  0  0  0  0
   20.4757  -25.8142   41.4624 H   0  0  0  0  0  0  0  0  0  0  0  0
   19.1141  -26.5903   40.5265 H   0  0  0  0  0  0  0  0  0  0  0  0
   19.2844  -28.7022   39.5684 H   0  0  0  0  0  0  0  0  0  0  0  0
   19.2372  -34.2576   40.0526 H   0  0  0  0  0  0  0  0  0  0  0  0
   18.2791  -36.1215   38.6934 H   0  0  0  0  0  0  0  0  0  0  0  0
   18.1253  -35.9070   36.2115 H   0  0  0  0  0  0  0  0  0  0  0  0
   19.2560  -34.5470   34.2950 H   0  0  0  0  0  0  0  0  0  0  0  0
  1  2  2  0
  2  3  1  0
  3  4  1  0
  3  5  2  0
  5  6  1  0
  6  7  2  0
  7  8  1  0
  8  9  2  0
  9 10  1  0
 10 11  1  0
 10 12  1  0
 10 13  1  0
  9 14  1  0
 14 15  1  0
 15 16  1  0
 14 17  2  0
  5 18  1  0
 18 19  1  0
 19 20  2  0
 20 21  1  0
 21 22  2  0
 22 23  1  0
 23 24  1  0
 23 25  2  0
 25  2  1  0
 17  6  1  0
 25 19  1  0
  4 26  1  0
  7 27  1  0
  8 28  1  0
 15 29  1  0
 15 30  1  0
 17 31  1  0
 20 32  1  0
 21 33  1  0
 22 34  1  0
 24 35  1  0
M  END
>  <meeko>  (1) 
{"is_sidechain": [false], "free_energy": -9.648, "intermolecular_energy": -11.904, "internal_energy": -0.51}

$$$$
cand_007_out
     RDKit          3D

 35 37  0  0  0  0  0  0  0  0999 V2000
   20.9090  -30.3750   35.7860 O   0  0  0  0  0  0  0  0  0  0  0  0
   20.8030  -30.6430   36.9810 C   0  0  0  0  0  0  0  0  0  0  0  0
   21.4960  -29.8200   37.9980 C   0  0  0  0  0  0  0  0  0  0  0  0
   22.2660  -28.7660   37.5380 O   0  0  0  0  0  0  0  0  0  0  0  0
   21.3550  -30.1480   39.2960 C   0  0  0  0  0  0  0  0  0  0  0  0
   22.0110  -29.4080   40.3950 C   0  0  0  0  0  0  0  0  0  0  0  0
   23.1740  -29.8810   41.0110 C   0  0  0  0  0  0  0  0  0  0  0  0
   23.7870  -29.1540   42.0350 C   0  0  0  0  0  0  0  0  0  0  0  0
   23.2560  -27.9270   42.4670 C   0  0  0  0  0  0  0  0  0  0  0  0
   23.9440  -27.1630   43.5770 C   0  0  0  0  0  0  0  0  0  0  0  0
   24.9330  -27.8910   44.1670 F   0  0  0  0  0  0  0  0  0  0  0  0
   24.5400  -26.0220   43.1320 F   0  0  0  0  0  0  0  0  0  0  0  0
   23.1110  -26.7800   44.5830 F   0  0  0  0  0  0  0  0  0  0  0  0
   22.0910  -27.4280   41.8440 C   0  0  0  0  0  0  0  0  0  0  0  0
   21.4700  -26.1160   42.2640 C   0  0  0  0  0  0  0  0  0  0  0  0
   22.1120  -25.0260   41.7530 F   0  0  0  0  0  0  0  0  0  0  0  0
   21.4850  -28.1770   40.8170 C   0  0  0  0  0  0  0  0  0  0  0  0
   20.6000  -31.2260   39.7450 O   0  0  0  0  0  0  0  0  0  0  0  0
   19.9420  -32.0030   38.8260 C   0  0  0  0  0  0  0  0  0  0  0  0
   19.1900  -33.0690   39.3220 C   0  0  0  0  0  0  0  0  0  0  0  0
   18.4950  -33.8990   38.4400 C   0  0  0  0  0  0  0  0  0  0  0  0
   18.5530  -33.6660   37.0650 C   0  0  0  0  0  0  0  0  0  0  0  0
   19.3050  -32.6020   36.5730 C   0  0  0  0  0  0  0  0  0  0  0  0
   19.3180  -32.4310   35.2160 O   0  0  0  0  0  0  0  0  0  0  0  0
   20.0000  -31.7700   37.4560 C   0  0  0  0  0  0  0  0  0  0  0  0
   22.3990  -28.6500   36.6180 H   0  0  0  0  0  0  0  0  0  0  0  0
   23.6114  -30.8365   40.6857 H   0  0  0  0  0  0  0  0  0  0  0  0
   24.6979  -29.5478   42.5094 H   0  0  0  0  0  0  0  0  0  0  0  0
   20.4252  -26.0986   41.9203 H   0  0  0  0  0  0  0  0  0  0  0  0
   21.5475  -26.0553   43.3596 H   0  0  0  0  0  0  0  0  0  0  0  0
   20.5769  -27.7877   40.3335 H   0  0  0  0  0  0  0  0  0  0  0  0
   19.1449  -33.2549   40.4052 H   0  0  0  0  0  0  0  0  0  0  0  0
   17.9004  -34.7384   38.8297 H   0  0  0  0  0  0  0  0  0  0  0  0
   18.0059  -34.3214   36.3714 H   0  0  0  0  0  0  0  0  0  0  0  0
   18.5800  -32.0490   34.7850 H   0  0  0  0  0  0  0  0  0  0  0  0
  1  2  2  0
  2  3  1  0
  3  4  1  0
  3  5  2  0
  5  6  1  0
  6  7  2  0
  7  8  1  0
  8  9  2  0
  9 10  1  0
 10 11  1  0
 10 12  1  0
 10 13  1  0
  9 14  1  0
 14 15  1  0
 15 16  1  0
 14 17  2  0
  5 18  1  0
 18 19  1  0
 19 20  2  0
 20 21  1  0
 21 22  2  0
 22 23  1  0
 23 24  1  0
 23 25  2  0
 25  2  1  0
 17  6  1  0
 25 19  1  0
  4 26  1  0
  7 27  1  0
  8 28  1  0
 15 29  1  0
 15 30  1  0
 17 31  1  0
 20 32  1  0
 21 33  1  0
 22 34  1  0
 24 35  1  0
M  END
>  <meeko>  (2) 
{"is_sidechain": [false], "free_energy": -9.602, "intermolecular_energy": -11.866, "internal_energy": -0.491}

$$$$
cand_007_out
     RDKit          3D

 35 37  0  0  0  0  0  0  0  0999 V2000
   20.9610  -30.4860   35.8970 O   0  0  0  0  0  0  0  0  0  0  0  0
   20.7940  -30.6100   37.1090 C   0  0  0  0  0  0  0  0  0  0  0  0
   21.4470  -29.6760   38.0550 C   0  0  0  0  0  0  0  0  0  0  0  0
   22.2490  -28.6880   37.5130 O   0  0  0  0  0  0  0  0  0  0  0  0
   21.2400  -29.8480   39.3740 C   0  0  0  0  0  0  0  0  0  0  0  0
   21.8490  -28.9870   40.4090 C   0  0  0  0  0  0  0  0  0  0  0  0
   21.4040  -27.6800   40.6360 C   0  0  0  0  0  0  0  0  0  0  0  0
   21.9810  -26.8910   41.6340 C   0  0  0  0  0  0  0  0  0  0  0  0
   23.0200  -27.3900   42.4390 C   0  0  0  0  0  0  0  0  0  0  0  0
   23.6240  -26.5110   43.5110 C   0  0  0  0  0  0  0  0  0  0  0  0
   24.9220  -26.1930   43.2470 F   0  0  0  0  0  0  0  0  0  0  0  0
   22.9700  -25.3230   43.6390 F   0  0  0  0  0  0  0  0  0  0  0  0
   23.6220  -27.0720   44.7520 F   0  0  0  0  0  0  0  0  0  0  0  0
   23.4700  -28.7120   42.2320 C   0  0  0  0  0  0  0  0  0  0  0  0
   24.5840  -29.3070   43.0630 C   0  0  0  0  0  0  0  0  0  0  0  0
   25.3060  -30.2550   42.3990 F   0  0  0  0  0  0  0  0  0  0  0  0
   22.8780  -29.4910   41.2190 C   0  0  0  0  0  0  0  0  0  0  0  0
   20.4530  -30.8620   39.9090 O   0  0  0  0  0  0  0  0  0  0  0  0
   19.8320  -31.7390   39.0560 C   0  0  0  0  0  0  0  0  0  0  0  0
   19.0450  -32.7350   39.6370 C   0  0  0  0  0  0  0  0  0  0  0  0
   18.3840  -33.6610   38.8260 C   0  0  0  0  0  0  0  0  0  0  0  0
   18.5110  -33.5910   37.4380 C   0  0  0  0  0  0  0  0  0  0  0  0
   19.2970  -32.5960   36.8610 C   0  0  0  0  0  0  0  0  0  0  0  0
   19.3780  -32.5870   35.4960 O   0  0  0  0  0  0  0  0  0  0  0  0
   19.9570  -31.6700   37.6730 C   0  0  0  0  0  0  0  0  0  0  0  0
   21.8990  -27.8320   37.3600 H   0  0  0  0  0  0  0  0  0  0  0  0
   20.5899  -27.2688   40.0211 H   0  0  0  0  0  0  0  0  0  0  0  0
   21.6173  -25.8650   41.7922 H   0  0  0  0  0  0  0  0  0  0  0  0
   25.2649  -28.4975   43.3647 H   0  0  0  0  0  0  0  0  0  0  0  0
   24.1169  -29.8003   43.9282 H   0  0  0  0  0  0  0  0  0  0  0  0
   23.2311  -30.5204   41.0588 H   0  0  0  0  0  0  0  0  0  0  0  0
   18.9455  -32.7906   40.7311 H   0  0  0  0  0  0  0  0  0  0  0  0
   17.7629  -34.4460   39.2820 H   0  0  0  0  0  0  0  0  0  0  0  0
   17.9909  -34.3208   36.8001 H   0  0  0  0  0  0  0  0  0  0  0  0
   19.7130  -33.3330   35.0410 H   0  0  0  0  0  0  0  0  0  0  0  0
  1  2  2  0
  2  3  1  0
  3  4  1  0
  3  5  2  0
  5  6  1  0
  6  7  2  0
  7  8  1  0
  8  9  2  0
  9 10  1  0
 10 11  1  0
 10 12  1  0
 10 13  1  0
  9 14  1  0
 14 15  1  0
 15 16  1  0
 14 17  2  0
  5 18  1  0
 18 19  1  0
 19 20  2  0
 20 21  1  0
 21 22  2  0
 22 23  1  0
 23 24  1  0
 23 25  2  0
 25  2  1  0
 17  6  1  0
 25 19  1  0
  4 26  1  0
  7 27  1  0
  8 28  1  0
 15 29  1  0
 15 30  1  0
 17 31  1  0
 20 32  1  0
 21 33  1  0
 22 34  1  0
 24 35  1  0
M  END
>  <meeko>  (3) 
{"is_sidechain": [false], "free_energy": -9.558, "intermolecular_energy": -11.923, "internal_energy": -0.38}

$$$$
cand_007_out
     RDKit          3D

 35 37  0  0  0  0  0  0  0  0999 V2000
   18.6460  -33.9280   38.0330 O   0  0  0  0  0  0  0  0  0  0  0  0
   19.2990  -32.9290   37.7380 C   0  0  0  0  0  0  0  0  0  0  0  0
   19.7340  -31.9800   38.7890 C   0  0  0  0  0  0  0  0  0  0  0  0
   19.3590  -32.2650   40.0900 O   0  0  0  0  0  0  0  0  0  0  0  0
   20.4460  -30.8980   38.4230 C   0  0  0  0  0  0  0  0  0  0  0  0
   20.9210  -29.8780   39.3820 C   0  0  0  0  0  0  0  0  0  0  0  0
   22.1990  -29.9360   39.9470 C   0  0  0  0  0  0  0  0  0  0  0  0
   22.6330  -28.9490   40.8360 C   0  0  0  0  0  0  0  0  0  0  0  0
   21.8010  -27.8710   41.1810 C   0  0  0  0  0  0  0  0  0  0  0  0
   22.3010  -26.8190   42.1460 C   0  0  0  0  0  0  0  0  0  0  0  0
   23.5620  -27.0830   42.5890 F   0  0  0  0  0  0  0  0  0  0  0  0
   22.3590  -25.5810   41.5820 F   0  0  0  0  0  0  0  0  0  0  0  0
   21.5330  -26.6830   43.2620 F   0  0  0  0  0  0  0  0  0  0  0  0
   20.5130  -27.7900   40.6080 C   0  0  0  0  0  0  0  0  0  0  0  0
   19.5700  -26.6560   40.9390 C   0  0  0  0  0  0  0  0  0  0  0  0
   18.8990  -26.8380   42.1130 F   0  0  0  0  0  0  0  0  0  0  0  0
   20.0920  -28.7960   39.7160 C   0  0  0  0  0  0  0  0  0  0  0  0
   20.7940  -30.6080   37.1090 O   0  0  0  0  0  0  0  0  0  0  0  0
   20.4100  -31.4720   36.1150 C   0  0  0  0  0  0  0  0  0  0  0  0
   20.7890  -31.1460   34.8120 C   0  0  0  0  0  0  0  0  0  0  0  0
   20.4310  -31.9820   33.7530 C   0  0  0  0  0  0  0  0  0  0  0  0
   19.6940  -33.1420   33.9960 C   0  0  0  0  0  0  0  0  0  0  0  0
   19.3170  -33.4650   35.2970 C   0  0  0  0  0  0  0  0  0  0  0  0
   18.5960  -34.6160   35.4640 O   0  0  0  0  0  0  0  0  0  0  0  0
   19.6760  -32.6280   36.3570 C   0  0  0  0  0  0  0  0  0  0  0  0
   18.4580  -32.2020   40.3420 H   0  0  0  0  0  0  0  0  0  0  0  0
   22.8704  -30.7682   39.6886 H   0  0  0  0  0  0  0  0  0  0  0  0
   23.6406  -29.0172   41.2719 H   0  0  0  0  0  0  0  0  0  0  0  0
   20.1534  -25.7262   41.0107 H   0  0  0  0  0  0  0  0  0  0  0  0
   18.8183  -26.6125   40.1371 H   0  0  0  0  0  0  0  0  0  0  0  0
   19.0884  -28.7318   39.2702 H   0  0  0  0  0  0  0  0  0  0  0  0
   21.3691  -30.2314   34.6197 H   0  0  0  0  0  0  0  0  0  0  0  0
   20.7301  -31.7262   32.7258 H   0  0  0  0  0  0  0  0  0  0  0  0
   19.4114  -33.8001   33.1611 H   0  0  0  0  0  0  0  0  0  0  0  0
   17.6610  -34.5820   35.4960 H   0  0  0  0  0  0  0  0  0  0  0  0
  1  2  2  0
  2  3  1  0
  3  4  1  0
  3  5  2  0
  5  6  1  0
  6  7  2  0
  7  8  1  0
  8  9  2  0
  9 10  1  0
 10 11  1  0
 10 12  1  0
 10 13  1  0
  9 14  1  0
 14 15  1  0
 15 16  1  0
 14 17  2  0
  5 18  1  0
 18 19  1  0
 19 20  2  0
 20 21  1  0
 21 22  2  0
 22 23  1  0
 23 24  1  0
 23 25  2  0
 25  2  1  0
 17  6  1  0
 25 19  1  0
  4 26  1  0
  7 27  1  0
  8 28  1  0
 15 29  1  0
 15 30  1  0
 17 31  1  0
 20 32  1  0
 21 33  1  0
 22 34  1  0
 24 35  1  0
M  END
>  <meeko>  (4) 
{"is_sidechain": [false], "free_energy": -8.812, "intermolecular_energy": -10.862, "internal_energy": -0.521}

$$$$
cand_007_out
     RDKit          3D

 35 37  0  0  0  0  0  0  0  0999 V2000
   18.7220  -34.2920   37.6960 O   0  0  0  0  0  0  0  0  0  0  0  0
   19.2250  -33.2220   37.3590 C   0  0  0  0  0  0  0  0  0  0  0  0
   19.4600  -32.1560   38.3600 C   0  0  0  0  0  0  0  0  0  0  0  0
   19.0750  -32.4190   39.6620 O   0  0  0  0  0  0  0  0  0  0  0  0
   20.0110  -30.9980   37.9490 C   0  0  0  0  0  0  0  0  0  0  0  0
   20.2770  -29.8610   38.8560 C   0  0  0  0  0  0  0  0  0  0  0  0
   19.3700  -28.8070   39.0020 C   0  0  0  0  0  0  0  0  0  0  0  0
   19.6350  -27.7530   39.8800 C   0  0  0  0  0  0  0  0  0  0  0  0
   20.8140  -27.7270   40.6430 C   0  0  0  0  0  0  0  0  0  0  0  0
   21.0710  -26.5710   41.5850 C   0  0  0  0  0  0  0  0  0  0  0  0
   20.1140  -25.6060   41.4900 F   0  0  0  0  0  0  0  0  0  0  0  0
   21.0790  -26.9570   42.8910 F   0  0  0  0  0  0  0  0  0  0  0  0
   22.2600  -25.9410   41.3760 F   0  0  0  0  0  0  0  0  0  0  0  0
   21.7330  -28.7910   40.5180 C   0  0  0  0  0  0  0  0  0  0  0  0
   23.0210  -28.8210   41.3090 C   0  0  0  0  0  0  0  0  0  0  0  0
   23.5790  -30.0640   41.3860 F   0  0  0  0  0  0  0  0  0  0  0  0
   21.4510  -29.8430   39.6250 C   0  0  0  0  0  0  0  0  0  0  0  0
   20.3690  -30.7350   36.6320 O   0  0  0  0  0  0  0  0  0  0  0  0
   20.1690  -31.7060   35.6840 C   0  0  0  0  0  0  0  0  0  0  0  0
   20.5500  -31.4020   34.3760 C   0  0  0  0  0  0  0  0  0  0  0  0
   20.3740  -32.3460   33.3620 C   0  0  0  0  0  0  0  0  0  0  0  0
   19.8160  -33.5910   33.6550 C   0  0  0  0  0  0  0  0  0  0  0  0
   19.4360  -33.8920   34.9600 C   0  0  0  0  0  0  0  0  0  0  0  0
   18.8960  -35.1300   35.1760 O   0  0  0  0  0  0  0  0  0  0  0  0
   19.6130  -32.9470   35.9750 C   0  0  0  0  0  0  0  0  0  0  0  0
   19.2820  -31.8100   40.3440 H   0  0  0  0  0  0  0  0  0  0  0  0
   18.4372  -28.8076   38.4190 H   0  0  0  0  0  0  0  0  0  0  0  0
   18.9097  -26.9315   39.9751 H   0  0  0  0  0  0  0  0  0  0  0  0
   23.7420  -28.1439   40.8277 H   0  0  0  0  0  0  0  0  0  0  0  0
   22.7799  -28.5083   42.3357 H   0  0  0  0  0  0  0  0  0  0  0  0
   22.1686  -30.6710   39.5278 H   0  0  0  0  0  0  0  0  0  0  0  0
   20.9883  -30.4201   34.1442 H   0  0  0  0  0  0  0  0  0  0  0  0
   20.6755  -32.1079   32.3313 H   0  0  0  0  0  0  0  0  0  0  0  0
   19.6766  -34.3338   32.8557 H   0  0  0  0  0  0  0  0  0  0  0  0
   18.2330  -35.2450   35.8280 H   0  0  0  0  0  0  0  0  0  0  0  0
  1  2  2  0
  2  3  1  0
  3  4  1  0
  3  5  2  0
  5  6  1  0
  6  7  2  0
  7  8  1  0
  8  9  2  0
  9 10  1  0
 10 11  1  0
 10 12  1  0
 10 13  1  0
  9 14  1  0
 14 15  1  0
 15 16  1  0
 14 17  2  0
  5 18  1  0
 18 19  1  0
 19 20  2  0
 20 21  1  0
 21 22  2  0
 22 23  1  0
 23 24  1  0
 23 25  2  0
 25  2  1  0
 17  6  1  0
 25 19  1  0
  4 26  1  0
  7 27  1  0
  8 28  1  0
 15 29  1  0
 15 30  1  0
 17 31  1  0
 20 32  1  0
 21 33  1  0
 22 34  1  0
 24 35  1  0
M  END
>  <meeko>  (5) 
{"is_sidechain": [false], "free_energy": -8.761, "intermolecular_energy": -10.903, "internal_energy": -0.417}

$$$$
cand_007_out
     RDKit          3D

 35 37  0  0  0  0  0  0  0  0999 V2000
   20.4330  -25.2230   39.9950 O   0  0  0  0  0  0  0  0  0  0  0  0
   20.8350  -26.3710   40.1690 C   0  0  0  0  0  0  0  0  0  0  0  0
   20.3140  -27.4820   39.3380 C   0  0  0  0  0  0  0  0  0  0  0  0
   19.3600  -27.1640   38.3890 O   0  0  0  0  0  0  0  0  0  0  0  0
   20.7790  -28.7250   39.5620 C   0  0  0  0  0  0  0  0  0  0  0  0
   20.3220  -29.9090   38.8050 C   0  0  0  0  0  0  0  0  0  0  0  0
   20.7110  -30.1320   37.4800 C   0  0  0  0  0  0  0  0  0  0  0  0
   20.2830  -31.2700   36.7910 C   0  0  0  0  0  0  0  0  0  0  0  0
   19.4570  -32.2220   37.4120 C   0  0  0  0  0  0  0  0  0  0  0  0
   19.0110  -33.4430   36.6380 C   0  0  0  0  0  0  0  0  0  0  0  0
   17.6680  -33.6480   36.7270 F   0  0  0  0  0  0  0  0  0  0  0  0
   19.2840  -33.3450   35.3080 F   0  0  0  0  0  0  0  0  0  0  0  0
   19.5940  -34.6030   37.0530 F   0  0  0  0  0  0  0  0  0  0  0  0
   19.0690  -32.0200   38.7540 C   0  0  0  0  0  0  0  0  0  0  0  0
   18.1800  -33.0060   39.4770 C   0  0  0  0  0  0  0  0  0  0  0  0
   18.8490  -34.1070   39.9250 F   0  0  0  0  0  0  0  0  0  0  0  0
   19.5070  -30.8650   39.4310 C   0  0  0  0  0  0  0  0  0  0  0  0
   21.7190  -29.0360   40.5390 O   0  0  0  0  0  0  0  0  0  0  0  0
   22.2230  -28.0270   41.3190 C   0  0  0  0  0  0  0  0  0  0  0  0
   23.1700  -28.3840   42.2800 C   0  0  0  0  0  0  0  0  0  0  0  0
   23.7240  -27.4060   43.1090 C   0  0  0  0  0  0  0  0  0  0  0  0
   23.3310  -26.0730   42.9770 C   0  0  0  0  0  0  0  0  0  0  0  0
   22.3850  -25.7200   42.0180 C   0  0  0  0  0  0  0  0  0  0  0  0
   22.0460  -24.3970   41.9440 O   0  0  0  0  0  0  0  0  0  0  0  0
   21.8320  -26.6990   41.1880 C   0  0  0  0  0  0  0  0  0  0  0  0
   18.5480  -27.6320   38.3650 H   0  0  0  0  0  0  0  0  0  0  0  0
   21.3614  -29.4031   36.9744 H   0  0  0  0  0  0  0  0  0  0  0  0
   20.5972  -31.4226   35.7479 H   0  0  0  0  0  0  0  0  0  0  0  0
   17.7252  -32.4983   40.3404 H   0  0  0  0  0  0  0  0  0  0  0  0
   17.4253  -33.3539   38.7563 H   0  0  0  0  0  0  0  0  0  0  0  0
   19.2027  -30.7084   40.4764 H   0  0  0  0  0  0  0  0  0  0  0  0
   23.4797  -29.4343   42.3844 H   0  0  0  0  0  0  0  0  0  0  0  0
   24.4706  -27.6863   43.8666 H   0  0  0  0  0  0  0  0  0  0  0  0
   23.7679  -25.3027   43.6295 H   0  0  0  0  0  0  0  0  0  0  0  0
   22.7140  -23.7410   41.9350 H   0  0  0  0  0  0  0  0  0  0  0  0
  1  2  2  0
  2  3  1  0
  3  4  1  0
  3  5  2  0
  5  6  1  0
  6  7  2  0
  7  8  1  0
  8  9  2  0
  9 10  1  0
 10 11  1  0
 10 12  1  0
 10 13  1  0
  9 14  1  0
 14 15  1  0
 15 16  1  0
 14 17  2  0
  5 18  1  0
 18 19  1  0
 19 20  2  0
 20 21  1  0
 21 22  2  0
 22 23  1  0
 23 24  1  0
 23 25  2  0
 25  2  1  0
 17  6  1  0
 25 19  1  0
  4 26  1  0
  7 27  1  0
  8 28  1  0
 15 29  1  0
 15 30  1  0
 17 31  1  0
 20 32  1  0
 21 33  1  0
 22 34  1  0
 24 35  1  0
M  END
>  <meeko>  (6) 
{"is_sidechain": [false], "free_energy": -8.739, "intermolecular_energy": -10.839, "internal_energy": -0.453}

$$$$
cand_007_out
     RDKit          3D

 35 37  0  0  0  0  0  0  0  0999 V2000
   22.1290  -26.2080   42.8850 O   0  0  0  0  0  0  0  0  0  0  0  0
   22.4840  -27.2660   42.3690 C   0  0  0  0  0  0  0  0  0  0  0  0
   21.9080  -27.6990   41.0750 C   0  0  0  0  0  0  0  0  0  0  0  0
   20.9590  -26.8730   40.5000 O   0  0  0  0  0  0  0  0  0  0  0  0
   22.3220  -28.8650   40.5450 C   0  0  0  0  0  0  0  0  0  0  0  0
   21.8070  -29.4030   39.2680 C   0  0  0  0  0  0  0  0  0  0  0  0
   22.2360  -28.9050   38.0330 C   0  0  0  0  0  0  0  0  0  0  0  0
   21.7500  -29.4430   36.8390 C   0  0  0  0  0  0  0  0  0  0  0  0
   20.8260  -30.5010   36.8460 C   0  0  0  0  0  0  0  0  0  0  0  0
   20.3200  -31.0620   35.5350 C   0  0  0  0  0  0  0  0  0  0  0  0
   19.3570  -30.2770   34.9760 F   0  0  0  0  0  0  0  0  0  0  0  0
   21.3040  -31.1640   34.5980 F   0  0  0  0  0  0  0  0  0  0  0  0
   19.7750  -32.3050   35.6390 F   0  0  0  0  0  0  0  0  0  0  0  0
   20.3950  -31.0250   38.0840 C   0  0  0  0  0  0  0  0  0  0  0  0
   19.4010  -32.1610   38.1590 C   0  0  0  0  0  0  0  0  0  0  0  0
   19.8260  -33.2000   38.9350 F   0  0  0  0  0  0  0  0  0  0  0  0
   20.8930  -30.4670   39.2780 C   0  0  0  0  0  0  0  0  0  0  0  0
   23.2570  -29.7000   41.1460 O   0  0  0  0  0  0  0  0  0  0  0  0
   23.8120  -29.3220   42.3420 C   0  0  0  0  0  0  0  0  0  0  0  0
   24.7530  -30.1860   42.9050 C   0  0  0  0  0  0  0  0  0  0  0  0
   25.3560  -29.8620   44.1220 C   0  0  0  0  0  0  0  0  0  0  0  0
   25.0190  -28.6760   44.7760 C   0  0  0  0  0  0  0  0  0  0  0  0
   24.0800  -27.8150   44.2130 C   0  0  0  0  0  0  0  0  0  0  0  0
   23.7960  -26.6710   44.9070 O   0  0  0  0  0  0  0  0  0  0  0  0
   23.4760  -28.1400   42.9950 C   0  0  0  0  0  0  0  0  0  0  0  0
   20.7560  -26.9550   39.5890 H   0  0  0  0  0  0  0  0  0  0  0  0
   22.9639  -28.0809   38.0019 H   0  0  0  0  0  0  0  0  0  0  0  0
   22.0960  -29.0321   35.8791 H   0  0  0  0  0  0  0  0  0  0  0  0
   18.4601  -31.7745   38.5778 H   0  0  0  0  0  0  0  0  0  0  0  0
   19.2718  -32.5488   37.1377 H   0  0  0  0  0  0  0  0  0  0  0  0
   20.5566  -30.8760   40.2422 H   0  0  0  0  0  0  0  0  0  0  0  0
   25.0191  -31.1211   42.3904 H   0  0  0  0  0  0  0  0  0  0  0  0
   26.0976  -30.5424   44.5659 H   0  0  0  0  0  0  0  0  0  0  0  0
   25.4943  -28.4216   45.7348 H   0  0  0  0  0  0  0  0  0  0  0  0
   22.9090  -26.3850   44.9950 H   0  0  0  0  0  0  0  0  0  0  0  0
  1  2  2  0
  2  3  1  0
  3  4  1  0
  3  5  2  0
  5  6  1  0
  6  7  2  0
  7  8  1  0
  8  9  2  0
  9 10  1  0
 10 11  1  0
 10 12  1  0
 10 13  1  0
  9 14  1  0
 14 15  1  0
 15 16  1  0
 14 17  2  0
  5 18  1  0
 18 19  1  0
 19 20  2  0
 20 21  1  0
 21 22  2  0
 22 23  1  0
 23 24  1  0
 23 25  2  0
 25  2  1  0
 17  6  1  0
 25 19  1  0
  4 26  1  0
  7 27  1  0
  8 28  1  0
 15 29  1  0
 15 30  1  0
 17 31  1  0
 20 32  1  0
 21 33  1  0
 22 34  1  0
 24 35  1  0
M  END
>  <meeko>  (7) 
{"is_sidechain": [false], "free_energy": -8.486, "intermolecular_energy": -10.945, "internal_energy": -0.035}

$$$$
cand_007_out
     RDKit          3D

 35 37  0  0  0  0  0  0  0  0999 V2000
   19.6030  -25.9960   36.3070 O   0  0  0  0  0  0  0  0  0  0  0  0
   20.0510  -26.9310   36.9670 C   0  0  0  0  0  0  0  0  0  0  0  0
   20.5120  -26.7140   38.3580 C   0  0  0  0  0  0  0  0  0  0  0  0
   20.4270  -25.4270   38.8560 O   0  0  0  0  0  0  0  0  0  0  0  0
   20.9980  -27.7650   39.0460 C   0  0  0  0  0  0  0  0  0  0  0  0
   21.4980  -27.6640   40.4330 C   0  0  0  0  0  0  0  0  0  0  0  0
   20.9110  -26.8050   41.3680 C   0  0  0  0  0  0  0  0  0  0  0  0
   21.3880  -26.7420   42.6790 C   0  0  0  0  0  0  0  0  0  0  0  0
   22.4640  -27.5420   43.0960 C   0  0  0  0  0  0  0  0  0  0  0  0
   22.9570  -27.4510   44.5230 C   0  0  0  0  0  0  0  0  0  0  0  0
   22.3510  -26.4460   45.2140 F   0  0  0  0  0  0  0  0  0  0  0  0
   22.7120  -28.5880   45.2320 F   0  0  0  0  0  0  0  0  0  0  0  0
   24.2950  -27.2250   44.6320 F   0  0  0  0  0  0  0  0  0  0  0  0
   23.0580  -28.4270   42.1690 C   0  0  0  0  0  0  0  0  0  0  0  0
   24.2200  -29.3130   42.5540 C   0  0  0  0  0  0  0  0  0  0  0  0
   24.1800  -30.5430   41.9640 F   0  0  0  0  0  0  0  0  0  0  0  0
   22.5650  -28.4740   40.8500 C   0  0  0  0  0  0  0  0  0  0  0  0
   21.1030  -29.0500   38.5250 O   0  0  0  0  0  0  0  0  0  0  0  0
   20.6790  -29.2820   37.2420 C   0  0  0  0  0  0  0  0  0  0  0  0
   20.7950  -30.5880   36.7630 C   0  0  0  0  0  0  0  0  0  0  0  0
   20.3820  -30.8930   35.4640 C   0  0  0  0  0  0  0  0  0  0  0  0
   19.8540  -29.8930   34.6450 C   0  0  0  0  0  0  0  0  0  0  0  0
   19.7390  -28.5910   35.1250 C   0  0  0  0  0  0  0  0  0  0  0  0
   19.2140  -27.6620   34.2690 O   0  0  0  0  0  0  0  0  0  0  0  0
   20.1520  -28.2870   36.4250 C   0  0  0  0  0  0  0  0  0  0  0  0
   19.9920  -24.7610   38.3620 H   0  0  0  0  0  0  0  0  0  0  0  0
   20.0636  -26.1716   41.0670 H   0  0  0  0  0  0  0  0  0  0  0  0
   20.9137  -26.0554   43.3957 H   0  0  0  0  0  0  0  0  0  0  0  0
   25.1536  -28.8133   42.2564 H   0  0  0  0  0  0  0  0  0  0  0  0
   24.1627  -29.4712   43.6411 H   0  0  0  0  0  0  0  0  0  0  0  0
   23.0284  -29.1633   40.1288 H   0  0  0  0  0  0  0  0  0  0  0  0
   21.2112  -31.3761   37.4078 H   0  0  0  0  0  0  0  0  0  0  0  0
   20.4728  -31.9220   35.0859 H   0  0  0  0  0  0  0  0  0  0  0  0
   19.5293  -30.1334   33.6219 H   0  0  0  0  0  0  0  0  0  0  0  0
   19.7810  -27.0770   33.8070 H   0  0  0  0  0  0  0  0  0  0  0  0
  1  2  2  0
  2  3  1  0
  3  4  1  0
  3  5  2  0
  5  6  1  0
  6  7  2  0
  7  8  1  0
  8  9  2  0
  9 10  1  0
 10 11  1  0
 10 12  1  0
 10 13  1  0
  9 14  1  0
 14 15  1  0
 15 16  1  0
 14 17  2  0
  5 18  1  0
 18 19  1  0
 19 20  2  0
 20 21  1  0
 21 22  2  0
 22 23  1  0
 23 24  1  0
 23 25  2  0
 25  2  1  0
 17  6  1  0
 25 19  1  0
  4 26  1  0
  7 27  1  0
  8 28  1  0
 15 29  1  0
 15 30  1  0
 17 31  1  0
 20 32  1  0
 21 33  1  0
 22 34  1  0
 24 35  1  0
M  END
>  <meeko>  (8) 
{"is_sidechain": [false], "free_energy": -8.357, "intermolecular_energy": -10.806, "internal_energy": -0.015}

$$$$
cand_007_out
     RDKit          3D

 35 37  0  0  0  0  0  0  0  0999 V2000
   24.3370  -28.7560   43.6110 O   0  0  0  0  0  0  0  0  0  0  0  0
   23.4130  -28.3500   42.9100 C   0  0  0  0  0  0  0  0  0  0  0  0
   23.0770  -29.0350   41.6410 C   0  0  0  0  0  0  0  0  0  0  0  0
   23.8530  -30.1230   41.2880 O   0  0  0  0  0  0  0  0  0  0  0  0
   22.0590  -28.5560   40.9020 C   0  0  0  0  0  0  0  0  0  0  0  0
   21.6430  -29.1500   39.6130 C   0  0  0  0  0  0  0  0  0  0  0  0
   22.1400  -28.6820   38.3920 C   0  0  0  0  0  0  0  0  0  0  0  0
   21.7490  -29.2730   37.1880 C   0  0  0  0  0  0  0  0  0  0  0  0
   20.8520  -30.3540   37.1720 C   0  0  0  0  0  0  0  0  0  0  0  0
   20.4480  -30.9710   35.8510 C   0  0  0  0  0  0  0  0  0  0  0  0
   19.3870  -30.3310   35.2860 F   0  0  0  0  0  0  0  0  0  0  0  0
   21.4470  -30.9210   34.9260 F   0  0  0  0  0  0  0  0  0  0  0  0
   20.0890  -32.2810   35.9410 F   0  0  0  0  0  0  0  0  0  0  0  0
   20.3530  -30.8470   38.3970 C   0  0  0  0  0  0  0  0  0  0  0  0
   19.3840  -32.0060   38.4470 C   0  0  0  0  0  0  0  0  0  0  0  0
   19.7510  -32.9800   39.3290 F   0  0  0  0  0  0  0  0  0  0  0  0
   20.7560  -30.2370   39.6010 C   0  0  0  0  0  0  0  0  0  0  0  0
   21.3020  -27.4440   41.2540 O   0  0  0  0  0  0  0  0  0  0  0  0
   21.5870  -26.7930   42.4270 C   0  0  0  0  0  0  0  0  0  0  0  0
   20.7960  -25.6870   42.7440 C   0  0  0  0  0  0  0  0  0  0  0  0
   21.0330  -24.9780   43.9240 C   0  0  0  0  0  0  0  0  0  0  0  0
   22.0580  -25.3730   44.7850 C   0  0  0  0  0  0  0  0  0  0  0  0
   22.8460  -26.4770   44.4650 C   0  0  0  0  0  0  0  0  0  0  0  0
   23.8330  -26.8080   45.3520 O   0  0  0  0  0  0  0  0  0  0  0  0
   22.6080  -27.1860   43.2850 C   0  0  0  0  0  0  0  0  0  0  0  0
   24.1070  -30.7490   41.9380 H   0  0  0  0  0  0  0  0  0  0  0  0
   22.8467  -27.8391   38.3797 H   0  0  0  0  0  0  0  0  0  0  0  0
   22.1492  -28.8864   36.2391 H   0  0  0  0  0  0  0  0  0  0  0  0
   18.3961  -31.6224   38.7420 H   0  0  0  0  0  0  0  0  0  0  0  0
   19.3703  -32.4620   37.4460 H   0  0  0  0  0  0  0  0  0  0  0  0
   20.3659  -30.6221   40.5547 H   0  0  0  0  0  0  0  0  0  0  0  0
   19.9880  -25.3747   42.0661 H   0  0  0  0  0  0  0  0  0  0  0  0
   20.4105  -24.1066   44.1752 H   0  0  0  0  0  0  0  0  0  0  0  0
   22.2435  -24.8141   45.7141 H   0  0  0  0  0  0  0  0  0  0  0  0
   24.0600  -26.2180   46.0430 H   0  0  0  0  0  0  0  0  0  0  0  0
  1  2  2  0
  2  3  1  0
  3  4  1  0
  3  5  2  0
  5  6  1  0
  6  7  2  0
  7  8  1  0
  8  9  2  0
  9 10  1  0
 10 11  1  0
 10 12  1  0
 10 13  1  0
  9 14  1  0
 14 15  1  0
 15 16  1  0
 14 17  2  0
  5 18  1  0
 18 19  1  0
 19 20  2  0
 20 21  1  0
 21 22  2  0
 22 23  1  0
 23 24  1  0
 23 25  2  0
 25  2  1  0
 17  6  1  0
 25 19  1  0
  4 26  1  0
  7 27  1  0
  8 28  1  0
 15 29  1  0
 15 30  1  0
 17 31  1  0
 20 32  1  0
 21 33  1  0
 22 34  1  0
 24 35  1  0
M  END
>  <meeko>  (9) 
{"is_sidechain": [false], "free_energy": -8.346, "intermolecular_energy": -10.662, "internal_energy": -0.145}

$$$$
