cand_044_out
     RDKit          3D

 41 43  0  0  0  0  0  0  0  0999 V2000
   22.4630  -25.5520   45.0530 C   0  0  0  0  0  0  0  0  0  0  0  0
   23.2350  -26.8580   44.9510 C   0  0  0  0  0  0  0  0  0  0  0  0
   24.0920  -26.9030   43.6840 C   0  0  0  0  0  0  0  0  0  0  0  0
   23.4500  -27.7390   42.5980 C   0  0  0  0  0  0  0  0  0  0  0  0
   22.4260  -27.1600   41.8310 C   0  0  0  0  0  0  0  0  0  0  0  0
   21.7800  -27.8830   40.8260 C   0  0  0  0  0  0  0  0  0  0  0  0
   22.1300  -29.2100   40.5640 C   0  0  0  0  0  0  0  0  0  0  0  0
   21.4800  -29.9910   39.4890 C   0  0  0  0  0  0  0  0  0  0  0  0
   20.6340  -30.9810   39.9780 O   0  0  0  0  0  0  0  0  0  0  0  0
   19.9620  -31.7770   39.0870 C   0  0  0  0  0  0  0  0  0  0  0  0
   19.1320  -32.7640   39.6210 C   0  0  0  0  0  0  0  0  0  0  0  0
   18.4170  -33.6090   38.7680 C   0  0  0  0  0  0  0  0  0  0  0  0
   18.5320  -33.4680   37.3850 C   0  0  0  0  0  0  0  0  0  0  0  0
   19.3620  -32.4820   36.8550 C   0  0  0  0  0  0  0  0  0  0  0  0
   19.4280  -32.3980   35.4900 O   0  0  0  0  0  0  0  0  0  0  0  0
   20.0760  -31.6370   37.7070 C   0  0  0  0  0  0  0  0  0  0  0  0
   20.9570  -30.5880   37.1920 C   0  0  0  0  0  0  0  0  0  0  0  0
   21.1060  -30.3960   35.9870 O   0  0  0  0  0  0  0  0  0  0  0  0
   21.6740  -29.7490   38.1800 C   0  0  0  0  0  0  0  0  0  0  0  0
   22.4910  -28.7510   37.6820 O   0  0  0  0  0  0  0  0  0  0  0  0
   23.1570  -29.7890   41.3260 C   0  0  0  0  0  0  0  0  0  0  0  0
   23.8200  -29.0770   42.3470 C   0  0  0  0  0  0  0  0  0  0  0  0
   24.9250  -29.7650   43.1140 C   0  0  0  0  0  0  0  0  0  0  0  0
   24.4660  -30.5710   44.1130 F   0  0  0  0  0  0  0  0  0  0  0  0
   25.7110  -30.5670   42.3380 F   0  0  0  0  0  0  0  0  0  0  0  0
   22.3122  -25.2970   46.1124 H   0  0  0  0  0  0  0  0  0  0  0  0
   23.0323  -24.7501   44.5602 H   0  0  0  0  0  0  0  0  0  0  0  0
   21.4860  -25.6642   44.5602 H   0  0  0  0  0  0  0  0  0  0  0  0
   23.8897  -26.9562   45.8295 H   0  0  0  0  0  0  0  0  0  0  0  0
   22.5113  -27.6853   44.9088 H   0  0  0  0  0  0  0  0  0  0  0  0
   24.2278  -25.8775   43.3099 H   0  0  0  0  0  0  0  0  0  0  0  0
   25.0578  -27.3622   43.9417 H   0  0  0  0  0  0  0  0  0  0  0  0
   22.1277  -26.1192   42.0252 H   0  0  0  0  0  0  0  0  0  0  0  0
   20.9870  -27.4025   40.2342 H   0  0  0  0  0  0  0  0  0  0  0  0
   19.0409  -32.8765   40.7114 H   0  0  0  0  0  0  0  0  0  0  0  0
   17.7623  -34.3868   39.1880 H   0  0  0  0  0  0  0  0  0  0  0  0
   17.9688  -34.1336   36.7143 H   0  0  0  0  0  0  0  0  0  0  0  0
   20.0840  -32.8760   35.0230 H   0  0  0  0  0  0  0  0  0  0  0  0
   23.3570  -28.6420   38.0190 H   0  0  0  0  0  0  0  0  0  0  0  0
   23.4532  -30.8283   41.1208 H   0  0  0  0  0  0  0  0  0  0  0  0
   25.5011  -28.9184   43.5158 H   0  0  0  0  0  0  0  0  0  0  0  0
  1  2  1  0
  2  3  1  0
  3  4  1  0
  4  5  2  0
  5  6  1  0
  6  7  2  0
  7  8  1  0
  8  9  1  0
  9 10  1  0
 10 11  2  0
 11 12  1  0
 12 13  2  0
 13 14  1  0
 14 15  1  0
 14 16  2  0
 16 17  1  0
 17 18  2  0
 17 19  1  0
 19 20  1  0
  7 21  1  0
 21 22  2  0
 22 23  1  0
 23 24  1  0
 23 25  1  0
 22  4  1  0
 19  8  2  0
 16 10  1  0
  1 26  1  0
  1 27  1  0
  1 28  1  0
  2 29  1  0
  2 30  1  0
  3 31  1  0
  3 32  1  0
  5 33  1  0
  6 34  1  0
 11 35  1  0
 12 36  1  0
 13 37  1  0
 15 38  1  0
 20 39  1  0
 21 40  1  0
 23 41  1  0
M  END
>  <meeko>  (1) 
{"is_sidechain": [false], "free_energy": -9.534, "intermolecular_energy": -12.32, "internal_energy": -0.762}

$$$$
cand_044_out
     RDKit          3D

 41 43  0  0  0  0  0  0  0  0999 V2000
   24.2450  -26.2130   43.7850 C   0  0  0  0  0  0  0  0  0  0  0  0
   23.4810  -27.3200   43.0750 C   0  0  0  0  0  0  0  0  0  0  0  0
   22.3730  -26.7520   42.1860 C   0  0  0  0  0  0  0  0  0  0  0  0
   21.8350  -27.7890   41.2230 C   0  0  0  0  0  0  0  0  0  0  0  0
   22.6980  -28.8130   40.8000 C   0  0  0  0  0  0  0  0  0  0  0  0
   22.2700  -29.7920   39.9000 C   0  0  0  0  0  0  0  0  0  0  0  0
   20.9710  -29.7690   39.3860 C   0  0  0  0  0  0  0  0  0  0  0  0
   20.4840  -30.8060   38.4510 C   0  0  0  0  0  0  0  0  0  0  0  0
   20.0390  -31.9530   39.1000 O   0  0  0  0  0  0  0  0  0  0  0  0
   19.5550  -32.9940   38.3500 C   0  0  0  0  0  0  0  0  0  0  0  0
   19.1290  -34.1280   39.0430 C   0  0  0  0  0  0  0  0  0  0  0  0
   18.6240  -35.2240   38.3400 C   0  0  0  0  0  0  0  0  0  0  0  0
   18.5450  -35.1860   36.9470 C   0  0  0  0  0  0  0  0  0  0  0  0
   18.9710  -34.0520   36.2580 C   0  0  0  0  0  0  0  0  0  0  0  0
   18.8650  -34.0810   34.8940 O   0  0  0  0  0  0  0  0  0  0  0  0
   19.4750  -32.9570   36.9620 C   0  0  0  0  0  0  0  0  0  0  0  0
   19.9320  -31.7460   36.2780 C   0  0  0  0  0  0  0  0  0  0  0  0
   19.8890  -31.6330   35.0550 O   0  0  0  0  0  0  0  0  0  0  0  0
   20.4550  -30.6420   37.1160 C   0  0  0  0  0  0  0  0  0  0  0  0
   20.8690  -29.4970   36.4590 O   0  0  0  0  0  0  0  0  0  0  0  0
   20.1060  -28.7500   39.8110 C   0  0  0  0  0  0  0  0  0  0  0  0
   20.5190  -27.7520   40.7180 C   0  0  0  0  0  0  0  0  0  0  0  0
   19.5240  -26.6950   41.1400 C   0  0  0  0  0  0  0  0  0  0  0  0
   18.4250  -26.6380   40.3360 F   0  0  0  0  0  0  0  0  0  0  0  0
   19.0370  -26.8770   42.4030 F   0  0  0  0  0  0  0  0  0  0  0  0
   24.1542  -26.3446   44.8733 H   0  0  0  0  0  0  0  0  0  0  0  0
   25.3059  -26.2571   43.4976 H   0  0  0  0  0  0  0  0  0  0  0  0
   23.8275  -25.2367   43.4976 H   0  0  0  0  0  0  0  0  0  0  0  0
   24.1812  -27.8948   42.4510 H   0  0  0  0  0  0  0  0  0  0  0  0
   23.0176  -27.9644   43.8366 H   0  0  0  0  0  0  0  0  0  0  0  0
   21.5501  -26.3992   42.8250 H   0  0  0  0  0  0  0  0  0  0  0  0
   22.7985  -25.9269   41.5960 H   0  0  0  0  0  0  0  0  0  0  0  0
   23.7284  -28.8447   41.1838 H   0  0  0  0  0  0  0  0  0  0  0  0
   22.9629  -30.5892   39.5928 H   0  0  0  0  0  0  0  0  0  0  0  0
   19.1909  -34.1585   40.1408 H   0  0  0  0  0  0  0  0  0  0  0  0
   18.2880  -36.1185   38.8849 H   0  0  0  0  0  0  0  0  0  0  0  0
   18.1472  -36.0496   36.3940 H   0  0  0  0  0  0  0  0  0  0  0  0
   18.0430  -33.8900   34.4840 H   0  0  0  0  0  0  0  0  0  0  0  0
   20.6160  -29.3490   35.5700 H   0  0  0  0  0  0  0  0  0  0  0  0
   19.0759  -28.7286   39.4258 H   0  0  0  0  0  0  0  0  0  0  0  0
   20.1149  -25.7695   41.0749 H   0  0  0  0  0  0  0  0  0  0  0  0
  1  2  1  0
  2  3  1  0
  3  4  1  0
  4  5  2  0
  5  6  1  0
  6  7  2  0
  7  8  1  0
  8  9  1  0
  9 10  1  0
 10 11  2  0
 11 12  1  0
 12 13  2  0
 13 14  1  0
 14 15  1  0
 14 16  2  0
 16 17  1  0
 17 18  2  0
 17 19  1  0
 19 20  1  0
  7 21  1  0
 21 22  2  0
 22 23  1  0
 23 24  1  0
 23 25  1  0
 22  4  1  0
 19  8  2  0
 16 10  1  0
  1 26  1  0
  1 27  1  0
  1 28  1  0
  2 29  1  0
  2 30  1  0
  3 31  1  0
  3 32  1  0
  5 33  1  0
  6 34  1  0
 11 35  1  0
 12 36  1  0
 13 37  1  0
 15 38  1  0
 20 39  1  0
 21 40  1  0
 23 41  1  0
M  END
>  <meeko>  (2) 
{"is_sidechain": [false], "free_energy": -9.49, "intermolecular_energy": -12.256, "internal_energy": -0.771}

$$$$
cand_044_out
     RDKit          3D

 41 43  0  0  0  0  0  0  0  0999 V2000
   20.1370  -33.0070   33.9330 C   0  0  0  0  0  0  0  0  0  0  0  0
   20.1660  -31.8230   34.8870 C   0  0  0  0  0  0  0  0  0  0  0  0
   19.7140  -32.2270   36.2920 C   0  0  0  0  0  0  0  0  0  0  0  0
   20.1480  -31.2200   37.3350 C   0  0  0  0  0  0  0  0  0  0  0  0
   21.0660  -30.2270   36.9580 C   0  0  0  0  0  0  0  0  0  0  0  0
   21.5200  -29.2780   37.8770 C   0  0  0  0  0  0  0  0  0  0  0  0
   21.0790  -29.3010   39.2030 C   0  0  0  0  0  0  0  0  0  0  0  0
   21.5250  -28.2940   40.1910 C   0  0  0  0  0  0  0  0  0  0  0  0
   22.4170  -28.8110   41.1240 O   0  0  0  0  0  0  0  0  0  0  0  0
   22.9140  -27.9820   42.0960 C   0  0  0  0  0  0  0  0  0  0  0  0
   23.7980  -28.5450   43.0170 C   0  0  0  0  0  0  0  0  0  0  0  0
   24.3420  -27.7560   44.0330 C   0  0  0  0  0  0  0  0  0  0  0  0
   24.0040  -26.4050   44.1270 C   0  0  0  0  0  0  0  0  0  0  0  0
   23.1210  -25.8450   43.2060 C   0  0  0  0  0  0  0  0  0  0  0  0
   22.8330  -24.5160   43.3550 O   0  0  0  0  0  0  0  0  0  0  0  0
   22.5770  -26.6350   42.1910 C   0  0  0  0  0  0  0  0  0  0  0  0
   21.6480  -26.0870   41.2010 C   0  0  0  0  0  0  0  0  0  0  0  0
   21.3060  -24.9060   41.2140 O   0  0  0  0  0  0  0  0  0  0  0  0
   21.1240  -27.0100   40.1680 C   0  0  0  0  0  0  0  0  0  0  0  0
   20.2580  -26.4760   39.2300 O   0  0  0  0  0  0  0  0  0  0  0  0
   20.1580  -30.2900   39.5800 C   0  0  0  0  0  0  0  0  0  0  0  0
   19.6890  -31.2580   38.6680 C   0  0  0  0  0  0  0  0  0  0  0  0
   18.6850  -32.2820   39.1470 C   0  0  0  0  0  0  0  0  0  0  0  0
   19.1730  -33.0970   40.1240 F   0  0  0  0  0  0  0  0  0  0  0  0
   17.5510  -31.7320   39.6690 F   0  0  0  0  0  0  0  0  0  0  0  0
   20.1141  -33.9428   34.5106 H   0  0  0  0  0  0  0  0  0  0  0  0
   19.2401  -32.9453   33.2992 H   0  0  0  0  0  0  0  0  0  0  0  0
   21.0358  -32.9893   33.2992 H   0  0  0  0  0  0  0  0  0  0  0  0
   21.1925  -31.4312   34.9401 H   0  0  0  0  0  0  0  0  0  0  0  0
   19.4746  -31.0560   34.5080 H   0  0  0  0  0  0  0  0  0  0  0  0
   18.6166  -32.3020   36.3049 H   0  0  0  0  0  0  0  0  0  0  0  0
   20.1800  -33.1931   36.5358 H   0  0  0  0  0  0  0  0  0  0  0  0
   21.4339  -30.1957   35.9218 H   0  0  0  0  0  0  0  0  0  0  0  0
   22.2321  -28.5045   37.5536 H   0  0  0  0  0  0  0  0  0  0  0  0
   24.0662  -29.6092   42.9430 H   0  0  0  0  0  0  0  0  0  0  0  0
   25.0378  -28.1999   44.7602 H   0  0  0  0  0  0  0  0  0  0  0  0
   24.4338  -25.7837   44.9265 H   0  0  0  0  0  0  0  0  0  0  0  0
   23.4400  -23.9510   43.7920 H   0  0  0  0  0  0  0  0  0  0  0  0
   20.2770  -25.5590   39.0440 H   0  0  0  0  0  0  0  0  0  0  0  0
   19.7912  -30.3109   40.6168 H   0  0  0  0  0  0  0  0  0  0  0  0
   18.4614  -32.8470   38.2301 H   0  0  0  0  0  0  0  0  0  0  0  0
  1  2  1  0
  2  3  1  0
  3  4  1  0
  4  5  2  0
  5  6  1  0
  6  7  2  0
  7  8  1  0
  8  9  1  0
  9 10  1  0
 10 11  2  0
 11 12  1  0
 12 13  2  0
 13 14  1  0
 14 15  1  0
 14 16  2  0
 16 17  1  0
 17 18  2  0
 17 19  1  0
 19 20  1  0
  7 21  1  0
 21 22  2  0
 22 23  1  0
 23 24  1  0
 23 25  1  0
 22  4  1  0
 19  8  2  0
 16 10  1  0
  1 26  1  0
  1 27  1  0
  1 28  1  0
  2 29  1  0
  2 30  1  0
  3 31  1  0
  3 32  1  0
  5 33  1  0
  6 34  1  0
 11 35  1  0
 12 36  1  0
 13 37  1  0
 15 38  1  0
 20 39  1  0
 21 40  1  0
 23 41  1  0
M  END
>  <meeko>  (3) 
{"is_sidechain": [false], "free_energy": -9.052, "intermolecular_energy": -11.758, "internal_energy": -0.702}

$$$$
cand_044_out
     RDKit          3D

 41 43  0  0  0  0  0  0  0  0999 V2000
   21.3630  -25.1550   43.8530 C   0  0  0  0  0  0  0  0  0  0  0  0
   20.5300  -25.7690   42.7390 C   0  0  0  0  0  0  0  0  0  0  0  0
   21.3300  -25.8790   41.4390 C   0  0  0  0  0  0  0  0  0  0  0  0
   21.0200  -27.1590   40.6930 C   0  0  0  0  0  0  0  0  0  0  0  0
   19.8870  -27.1870   39.8630 C   0  0  0  0  0  0  0  0  0  0  0  0
   19.5360  -28.3420   39.1610 C   0  0  0  0  0  0  0  0  0  0  0  0
   20.2990  -29.5070   39.2760 C   0  0  0  0  0  0  0  0  0  0  0  0
   19.9630  -30.7360   38.5250 C   0  0  0  0  0  0  0  0  0  0  0  0
   19.5170  -31.7660   39.3470 O   0  0  0  0  0  0  0  0  0  0  0  0
   19.1670  -32.9640   38.7780 C   0  0  0  0  0  0  0  0  0  0  0  0
   18.7340  -33.9720   39.6410 C   0  0  0  0  0  0  0  0  0  0  0  0
   18.3610  -35.2150   39.1270 C   0  0  0  0  0  0  0  0  0  0  0  0
   18.4200  -35.4510   37.7520 C   0  0  0  0  0  0  0  0  0  0  0  0
   18.8510  -34.4430   36.8930 C   0  0  0  0  0  0  0  0  0  0  0  0
   18.8840  -34.7400   35.5580 O   0  0  0  0  0  0  0  0  0  0  0  0
   19.2240  -33.1990   37.4080 C   0  0  0  0  0  0  0  0  0  0  0  0
   19.6820  -32.1120   36.5410 C   0  0  0  0  0  0  0  0  0  0  0  0
   19.7560  -32.2400   35.3210 O   0  0  0  0  0  0  0  0  0  0  0  0
   20.0600  -30.8340   37.1870 C   0  0  0  0  0  0  0  0  0  0  0  0
   20.4760  -29.8090   36.3560 O   0  0  0  0  0  0  0  0  0  0  0  0
   21.4340  -29.4800   40.1010 C   0  0  0  0  0  0  0  0  0  0  0  0
   21.8040  -28.3250   40.8200 C   0  0  0  0  0  0  0  0  0  0  0  0
   23.0490  -28.3690   41.6770 C   0  0  0  0  0  0  0  0  0  0  0  0
   22.7890  -28.2590   43.0090 F   0  0  0  0  0  0  0  0  0  0  0  0
   23.7630  -29.5250   41.5430 F   0  0  0  0  0  0  0  0  0  0  0  0
   20.9522  -25.4578   44.8275 H   0  0  0  0  0  0  0  0  0  0  0  0
   22.4026  -25.5045   43.7687 H   0  0  0  0  0  0  0  0  0  0  0  0
   21.3368  -24.0585   43.7687 H   0  0  0  0  0  0  0  0  0  0  0  0
   20.2068  -26.7745   43.0464 H   0  0  0  0  0  0  0  0  0  0  0  0
   19.6619  -25.1184   42.5572 H   0  0  0  0  0  0  0  0  0  0  0  0
   21.0815  -25.0227   40.7948 H   0  0  0  0  0  0  0  0  0  0  0  0
   22.3996  -25.8843   41.6959 H   0  0  0  0  0  0  0  0  0  0  0  0
   19.2661  -26.2843   39.7644 H   0  0  0  0  0  0  0  0  0  0  0  0
   18.6491  -28.3346   38.5103 H   0  0  0  0  0  0  0  0  0  0  0  0
   18.6868  -33.7871   40.7243 H   0  0  0  0  0  0  0  0  0  0  0  0
   18.0200  -36.0101   39.8064 H   0  0  0  0  0  0  0  0  0  0  0  0
   18.1266  -36.4312   37.3480 H   0  0  0  0  0  0  0  0  0  0  0  0
   18.3020  -35.3870   35.2080 H   0  0  0  0  0  0  0  0  0  0  0  0
   20.4740  -29.9290   35.4270 H   0  0  0  0  0  0  0  0  0  0  0  0
   22.0524  -30.3855   40.1892 H   0  0  0  0  0  0  0  0  0  0  0  0
   23.6244  -27.5062   41.3101 H   0  0  0  0  0  0  0  0  0  0  0  0
  1  2  1  0
  2  3  1  0
  3  4  1  0
  4  5  2  0
  5  6  1  0
  6  7  2  0
  7  8  1  0
  8  9  1  0
  9 10  1  0
 10 11  2  0
 11 12  1  0
 12 13  2  0
 13 14  1  0
 14 15  1  0
 14 16  2  0
 16 17  1  0
 17 18  2  0
 17 19  1  0
 19 20  1  0
  7 21  1  0
 21 22  2  0
 22 23  1  0
 23 24  1  0
 23 25  1  0
 22  4  1  0
 19  8  2  0
 16 10  1  0
  1 26  1  0
  1 27  1  0
  1 28  1  0
  2 29  1  0
  2 30  1  0
  3 31  1  0
  3 32  1  0
  5 33  1  0
  6 34  1  0
 11 35  1  0
 12 36  1  0
 13 37  1  0
 15 38  1  0
 20 39  1  0
 21 40  1  0
 23 41  1  0
M  END
>  <meeko>  (4) 
{"is_sidechain": [false], "free_energy": -8.855, "intermolecular_energy": -11.403, "internal_energy": -0.802}

$$$$
cand_044_out
     RDKit          3D

 41 43  0  0  0  0  0  0  0  0999 V2000
   24.1670  -26.3690   43.7360 C   0  0  0  0  0  0  0  0  0  0  0  0
   23.3790  -27.4690   43.0420 C   0  0  0  0  0  0  0  0  0  0  0  0
   22.2950  -26.8890   42.1310 C   0  0  0  0  0  0  0  0  0  0  0  0
   21.7660  -27.9210   41.1570 C   0  0  0  0  0  0  0  0  0  0  0  0
   22.6200  -28.9650   40.7670 C   0  0  0  0  0  0  0  0  0  0  0  0
   22.2000  -29.9390   39.8590 C   0  0  0  0  0  0  0  0  0  0  0  0
   20.9180  -29.8920   39.3040 C   0  0  0  0  0  0  0  0  0  0  0  0
   20.4390  -30.9240   38.3590 C   0  0  0  0  0  0  0  0  0  0  0  0
   20.7600  -30.6350   37.0360 O   0  0  0  0  0  0  0  0  0  0  0  0
   20.3780  -31.5140   36.0550 C   0  0  0  0  0  0  0  0  0  0  0  0
   20.7130  -31.1800   34.7420 C   0  0  0  0  0  0  0  0  0  0  0  0
   20.3550  -32.0310   33.6940 C   0  0  0  0  0  0  0  0  0  0  0  0
   19.6650  -33.2150   33.9590 C   0  0  0  0  0  0  0  0  0  0  0  0
   19.3330  -33.5460   35.2710 C   0  0  0  0  0  0  0  0  0  0  0  0
   18.6570  -34.7210   35.4590 O   0  0  0  0  0  0  0  0  0  0  0  0
   19.6910  -32.6940   36.3180 C   0  0  0  0  0  0  0  0  0  0  0  0
   19.3630  -33.0040   37.7100 C   0  0  0  0  0  0  0  0  0  0  0  0
   18.7620  -34.0300   38.0250 O   0  0  0  0  0  0  0  0  0  0  0  0
   19.7830  -32.0330   38.7460 C   0  0  0  0  0  0  0  0  0  0  0  0
   19.4810  -32.3450   40.0590 O   0  0  0  0  0  0  0  0  0  0  0  0
   20.0620  -28.8520   39.6960 C   0  0  0  0  0  0  0  0  0  0  0  0
   20.4670  -27.8570   40.6100 C   0  0  0  0  0  0  0  0  0  0  0  0
   19.4830  -26.7770   40.9950 C   0  0  0  0  0  0  0  0  0  0  0  0
   18.3970  -26.7220   40.1740 F   0  0  0  0  0  0  0  0  0  0  0  0
   18.9760  -26.9240   42.2540 F   0  0  0  0  0  0  0  0  0  0  0  0
   24.0814  -26.4885   44.8261 H   0  0  0  0  0  0  0  0  0  0  0  0
   25.2249  -26.4344   43.4419 H   0  0  0  0  0  0  0  0  0  0  0  0
   23.7647  -25.3884   43.4419 H   0  0  0  0  0  0  0  0  0  0  0  0
   24.0684  -28.0758   42.4366 H   0  0  0  0  0  0  0  0  0  0  0  0
   22.8913  -28.0844   43.8123 H   0  0  0  0  0  0  0  0  0  0  0  0
   21.4630  -26.5276   42.7533 H   0  0  0  0  0  0  0  0  0  0  0  0
   22.7405  -26.0680   41.5501 H   0  0  0  0  0  0  0  0  0  0  0  0
   23.6367  -29.0164   41.1837 H   0  0  0  0  0  0  0  0  0  0  0  0
   22.8853  -30.7520   39.5774 H   0  0  0  0  0  0  0  0  0  0  0  0
   21.2582  -30.2478   34.5328 H   0  0  0  0  0  0  0  0  0  0  0  0
   20.6171  -31.7678   32.6586 H   0  0  0  0  0  0  0  0  0  0  0  0
   19.3839  -33.8855   33.1335 H   0  0  0  0  0  0  0  0  0  0  0  0
   19.0950  -35.5390   35.3290 H   0  0  0  0  0  0  0  0  0  0  0  0
   20.1320  -32.7290   40.6110 H   0  0  0  0  0  0  0  0  0  0  0  0
   19.0452  -28.8113   39.2783 H   0  0  0  0  0  0  0  0  0  0  0  0
   20.0883  -25.8616   40.9191 H   0  0  0  0  0  0  0  0  0  0  0  0
  1  2  1  0
  2  3  1  0
  3  4  1  0
  4  5  2  0
  5  6  1  0
  6  7  2  0
  7  8  1  0
  8  9  1  0
  9 10  1  0
 10 11  2  0
 11 12  1  0
 12 13  2  0
 13 14  1  0
 14 15  1  0
 14 16  2  0
 16 17  1  0
 17 18  2  0
 17 19  1  0
 19 20  1  0
  7 21  1  0
 21 22  2  0
 22 23  1  0
 23 24  1  0
 23 25  1  0
 22  4  1  0
 19  8  2  0
 16 10  1  0
  1 26  1  0
  1 27  1  0
  1 28  1  0
  2 29  1  0
  2 30  1  0
  3 31  1  0
  3 32  1  0
  5 33  1  0
  6 34  1  0
 11 35  1  0
 12 36  1  0
 13 37  1  0
 15 38  1  0
 20 39  1  0
 21 40  1  0
 23 41  1  0
M  END
>  <meeko>  (5) 
{"is_sidechain": [false], "free_energy": -8.842, "intermolecular_energy": -11.419, "internal_energy": -0.769}

$$$$
cand_044_out
     RDKit          3D

 41 43  0  0  0  0  0  0  0  0999 V2000
   20.4500  -31.9420   33.6010 C   0  0  0  0  0  0  0  0  0  0  0  0
   20.6880  -31.0480   34.8080 C   0  0  0  0  0  0  0  0  0  0  0  0
   20.0470  -31.6300   36.0690 C   0  0  0  0  0  0  0  0  0  0  0  0
   20.5060  -30.9100   37.3190 C   0  0  0  0  0  0  0  0  0  0  0  0
   21.3340  -29.7850   37.1710 C   0  0  0  0  0  0  0  0  0  0  0  0
   21.8080  -29.0860   38.2830 C   0  0  0  0  0  0  0  0  0  0  0  0
   21.4770  -29.4980   39.5770 C   0  0  0  0  0  0  0  0  0  0  0  0
   21.9440  -28.7620   40.7730 C   0  0  0  0  0  0  0  0  0  0  0  0
   21.1190  -27.6910   41.1040 O   0  0  0  0  0  0  0  0  0  0  0  0
   21.4340  -26.9260   42.1970 C   0  0  0  0  0  0  0  0  0  0  0  0
   20.5850  -25.8570   42.4870 C   0  0  0  0  0  0  0  0  0  0  0  0
   20.8480  -25.0370   43.5860 C   0  0  0  0  0  0  0  0  0  0  0  0
   21.9570  -25.2860   44.3960 C   0  0  0  0  0  0  0  0  0  0  0  0
   22.8030  -26.3540   44.1050 C   0  0  0  0  0  0  0  0  0  0  0  0
   23.8710  -26.5420   44.9390 O   0  0  0  0  0  0  0  0  0  0  0  0
   22.5390  -27.1730   43.0050 C   0  0  0  0  0  0  0  0  0  0  0  0
   23.4010  -28.3060   42.6640 C   0  0  0  0  0  0  0  0  0  0  0  0
   24.3930  -28.5940   43.3310 O   0  0  0  0  0  0  0  0  0  0  0  0
   23.0380  -29.1100   41.4740 C   0  0  0  0  0  0  0  0  0  0  0  0
   23.8510  -30.1870   41.1710 O   0  0  0  0  0  0  0  0  0  0  0  0
   20.6460  -30.6180   39.7280 C   0  0  0  0  0  0  0  0  0  0  0  0
   20.1590  -31.3380   38.6170 C   0  0  0  0  0  0  0  0  0  0  0  0
   19.2560  -32.5260   38.8590 C   0  0  0  0  0  0  0  0  0  0  0  0
   19.8900  -33.7230   38.7070 F   0  0  0  0  0  0  0  0  0  0  0  0
   18.7220  -32.5590   40.1150 F   0  0  0  0  0  0  0  0  0  0  0  0
   20.1809  -32.9530   33.9409 H   0  0  0  0  0  0  0  0  0  0  0  0
   19.6306  -31.5288   32.9945 H   0  0  0  0  0  0  0  0  0  0  0  0
   21.3664  -31.9909   32.9945 H   0  0  0  0  0  0  0  0  0  0  0  0
   21.7712  -30.9476   34.9709 H   0  0  0  0  0  0  0  0  0  0  0  0
   20.2307  -30.0677   34.6082 H   0  0  0  0  0  0  0  0  0  0  0  0
   18.9539  -31.5386   35.9870 H   0  0  0  0  0  0  0  0  0  0  0  0
   20.3516  -32.6838   36.1511 H   0  0  0  0  0  0  0  0  0  0  0  0
   21.6138  -29.4489   36.1617 H   0  0  0  0  0  0  0  0  0  0  0  0
   22.4479  -28.2029   38.1393 H   0  0  0  0  0  0  0  0  0  0  0  0
   19.7096  -25.6607   41.8505 H   0  0  0  0  0  0  0  0  0  0  0  0
   20.1800  -24.1933   43.8139 H   0  0  0  0  0  0  0  0  0  0  0  0
   22.1627  -24.6403   45.2624 H   0  0  0  0  0  0  0  0  0  0  0  0
   24.4520  -25.8300   45.1230 H   0  0  0  0  0  0  0  0  0  0  0  0
   24.3670  -30.1800   40.3900 H   0  0  0  0  0  0  0  0  0  0  0  0
   20.3664  -30.9438   40.7407 H   0  0  0  0  0  0  0  0  0  0  0  0
   18.4709  -32.3898   38.1007 H   0  0  0  0  0  0  0  0  0  0  0  0
  1  2  1  0
  2  3  1  0
  3  4  1  0
  4  5  2  0
  5  6  1  0
  6  7  2  0
  7  8  1  0
  8  9  1  0
  9 10  1  0
 10 11  2  0
 11 12  1  0
 12 13  2  0
 13 14  1  0
 14 15  1  0
 14 16  2  0
 16 17  1  0
 17 18  2  0
 17 19  1  0
 19 20  1  0
  7 21  1  0
 21 22  2  0
 22 23  1  0
 23 24  1  0
 23 25  1  0
 22  4  1  0
 19  8  2  0
 16 10  1  0
  1 26  1  0
  1 27  1  0
  1 28  1  0
  2 29  1  0
  2 30  1  0
  3 31  1  0
  3 32  1  0
  5 33  1  0
  6 34  1  0
 11 35  1  0
 12 36  1  0
 13 37  1  0
 15 38  1  0
 20 39  1  0
 21 40  1  0
 23 41  1  0
M  END
>  <meeko>  (6) 
{"is_sidechain": [false], "free_energy": -8.602, "intermolecular_energy": -11.115, "internal_energy": -0.764}

$$$$
cand_044_out
     RDKit          3D

 41 43  0  0  0  0  0  0  0  0999 V2000
   19.9900  -24.1790   46.5790 C   0  0  0  0  0  0  0  0  0  0  0  0
   20.4970  -24.0630   45.1500 C   0  0  0  0  0  0  0  0  0  0  0  0
   21.6990  -24.9780   44.9080 C   0  0  0  0  0  0  0  0  0  0  0  0
   21.5350  -25.8040   43.6500 C   0  0  0  0  0  0  0  0  0  0  0  0
   20.3090  -25.7390   42.9680 C   0  0  0  0  0  0  0  0  0  0  0  0
   20.0860  -26.4890   41.8120 C   0  0  0  0  0  0  0  0  0  0  0  0
   21.0780  -27.3350   41.3080 C   0  0  0  0  0  0  0  0  0  0  0  0
   20.8780  -28.1220   40.0710 C   0  0  0  0  0  0  0  0  0  0  0  0
   20.4930  -29.4350   40.3230 O   0  0  0  0  0  0  0  0  0  0  0  0
   20.2680  -30.2750   39.2630 C   0  0  0  0  0  0  0  0  0  0  0  0
   19.8930  -31.5850   39.5620 C   0  0  0  0  0  0  0  0  0  0  0  0
   19.6480  -32.4930   38.5290 C   0  0  0  0  0  0  0  0  0  0  0  0
   19.7770  -32.0900   37.1990 C   0  0  0  0  0  0  0  0  0  0  0  0
   20.1510  -30.7810   36.9030 C   0  0  0  0  0  0  0  0  0  0  0  0
   20.2570  -30.4530   35.5790 O   0  0  0  0  0  0  0  0  0  0  0  0
   20.3960  -29.8750   37.9370 C   0  0  0  0  0  0  0  0  0  0  0  0
   20.7890  -28.4900   37.6710 C   0  0  0  0  0  0  0  0  0  0  0  0
   20.9170  -28.0580   36.5270 O   0  0  0  0  0  0  0  0  0  0  0  0
   21.0310  -27.6090   38.8370 C   0  0  0  0  0  0  0  0  0  0  0  0
   21.3870  -26.3000   38.5720 O   0  0  0  0  0  0  0  0  0  0  0  0
   22.3060  -27.3970   41.9840 C   0  0  0  0  0  0  0  0  0  0  0  0
   22.5490  -26.6490   43.1550 C   0  0  0  0  0  0  0  0  0  0  0  0
   23.9030  -26.7580   43.8190 C   0  0  0  0  0  0  0  0  0  0  0  0
   24.5640  -27.9090   43.5080 F   0  0  0  0  0  0  0  0  0  0  0  0
   24.7580  -25.7490   43.4830 F   0  0  0  0  0  0  0  0  0  0  0  0
   20.8178  -23.9896   47.2782 H   0  0  0  0  0  0  0  0  0  0  0  0
   19.1924  -23.4401   46.7462 H   0  0  0  0  0  0  0  0  0  0  0  0
   19.5931  -25.1912   46.7462 H   0  0  0  0  0  0  0  0  0  0  0  0
   19.6883  -24.3443   44.4594 H   0  0  0  0  0  0  0  0  0  0  0  0
   20.8132  -23.0235   44.9782 H   0  0  0  0  0  0  0  0  0  0  0  0
   22.6034  -24.3592   44.8119 H   0  0  0  0  0  0  0  0  0  0  0  0
   21.7796  -25.6679   45.7609 H   0  0  0  0  0  0  0  0  0  0  0  0
   19.5110  -25.0861   43.3512 H   0  0  0  0  0  0  0  0  0  0  0  0
   19.1195  -26.4135   41.2922 H   0  0  0  0  0  0  0  0  0  0  0  0
   19.7903  -31.9027   40.6101 H   0  0  0  0  0  0  0  0  0  0  0  0
   19.3532  -33.5264   38.7640 H   0  0  0  0  0  0  0  0  0  0  0  0
   19.5837  -32.8049   36.3856 H   0  0  0  0  0  0  0  0  0  0  0  0
   19.8460  -30.9890   34.9290 H   0  0  0  0  0  0  0  0  0  0  0  0
   22.1610  -25.9380   38.9550 H   0  0  0  0  0  0  0  0  0  0  0  0
   23.1012  -28.0469   41.5899 H   0  0  0  0  0  0  0  0  0  0  0  0
   23.6501  -26.7196   44.8888 H   0  0  0  0  0  0  0  0  0  0  0  0
  1  2  1  0
  2  3  1  0
  3  4  1  0
  4  5  2  0
  5  6  1  0
  6  7  2  0
  7  8  1  0
  8  9  1  0
  9 10  1  0
 10 11  2  0
 11 12  1  0
 12 13  2  0
 13 14  1  0
 14 15  1  0
 14 16  2  0
 16 17  1  0
 17 18  2  0
 17 19  1  0
 19 20  1  0
  7 21  1  0
 21 22  2  0
 22 23  1  0
 23 24  1  0
 23 25  1  0
 22  4  1  0
 19  8  2  0
 16 10  1  0
  1 26  1  0
  1 27  1  0
  1 28  1  0
  2 29  1  0
  2 30  1  0
  3 31  1  0
  3 32  1  0
  5 33  1  0
  6 34  1  0
 11 35  1  0
 12 36  1  0
 13 37  1  0
 15 38  1  0
 20 39  1  0
 21 40  1  0
 23 41  1  0
M  END
>  <meeko>  (7) 
{"is_sidechain": [false], "free_energy": -8.507, "intermolecular_energy": -10.977, "internal_energy": -0.778}

$$$$
cand_044_out
     RDKit          3D

 41 43  0  0  0  0  0  0  0  0999 V2000
   18.8860  -35.3670   36.9690 C   0  0  0  0  0  0  0  0  0  0  0  0
   18.5860  -33.9650   37.4760 C   0  0  0  0  0  0  0  0  0  0  0  0
   19.2950  -32.9030   36.6330 C   0  0  0  0  0  0  0  0  0  0  0  0
   19.8390  -31.7760   37.4860 C   0  0  0  0  0  0  0  0  0  0  0  0
   19.8510  -31.9460   38.8800 C   0  0  0  0  0  0  0  0  0  0  0  0
   20.3230  -30.9390   39.7250 C   0  0  0  0  0  0  0  0  0  0  0  0
   20.7850  -29.7280   39.2030 C   0  0  0  0  0  0  0  0  0  0  0  0
   21.3130  -28.6540   40.0720 C   0  0  0  0  0  0  0  0  0  0  0  0
   22.2700  -29.1110   40.9730 O   0  0  0  0  0  0  0  0  0  0  0  0
   22.8470  -28.2160   41.8370 C   0  0  0  0  0  0  0  0  0  0  0  0
   23.7940  -28.7190   42.7300 C   0  0  0  0  0  0  0  0  0  0  0  0
   24.4210  -27.8610   43.6370 C   0  0  0  0  0  0  0  0  0  0  0  0
   24.1010  -26.5030   43.6510 C   0  0  0  0  0  0  0  0  0  0  0  0
   23.1560  -26.0030   42.7580 C   0  0  0  0  0  0  0  0  0  0  0  0
   22.8910  -24.6630   42.8250 O   0  0  0  0  0  0  0  0  0  0  0  0
   22.5300  -26.8620   41.8520 C   0  0  0  0  0  0  0  0  0  0  0  0
   21.5320  -26.3780   40.8960 C   0  0  0  0  0  0  0  0  0  0  0  0
   21.2020  -25.1950   40.8420 O   0  0  0  0  0  0  0  0  0  0  0  0
   20.9220  -27.3700   39.9800 C   0  0  0  0  0  0  0  0  0  0  0  0
   19.9930  -26.8980   39.0720 O   0  0  0  0  0  0  0  0  0  0  0  0
   20.7780  -29.5590   37.8100 C   0  0  0  0  0  0  0  0  0  0  0  0
   20.3040  -30.5620   36.9400 C   0  0  0  0  0  0  0  0  0  0  0  0
   20.3420  -30.3120   35.4500 C   0  0  0  0  0  0  0  0  0  0  0  0
   20.6460  -29.0230   35.1290 F   0  0  0  0  0  0  0  0  0  0  0  0
   21.2640  -31.0740   34.7910 F   0  0  0  0  0  0  0  0  0  0  0  0
   19.0307  -36.0431   37.8245 H   0  0  0  0  0  0  0  0  0  0  0  0
   18.0439  -35.7239   36.3579 H   0  0  0  0  0  0  0  0  0  0  0  0
   19.8004  -35.3481   36.3579 H   0  0  0  0  0  0  0  0  0  0  0  0
   17.5006  -33.7924   37.4301 H   0  0  0  0  0  0  0  0  0  0  0  0
   18.9504  -33.8857   38.5109 H   0  0  0  0  0  0  0  0  0  0  0  0
   20.1292  -33.3755   36.0937 H   0  0  0  0  0  0  0  0  0  0  0  0
   18.5610  -32.4772   35.9330 H   0  0  0  0  0  0  0  0  0  0  0  0
   19.4827  -32.8875   39.3134 H   0  0  0  0  0  0  0  0  0  0  0  0
   20.3311  -31.1010   40.8130 H   0  0  0  0  0  0  0  0  0  0  0  0
   24.0465  -29.7896   42.7198 H   0  0  0  0  0  0  0  0  0  0  0  0
   25.1679  -28.2566   44.3410 H   0  0  0  0  0  0  0  0  0  0  0  0
   24.5942  -25.8282   44.3661 H   0  0  0  0  0  0  0  0  0  0  0  0
   22.3180  -24.3310   43.4890 H   0  0  0  0  0  0  0  0  0  0  0  0
   19.4610  -26.1590   39.2870 H   0  0  0  0  0  0  0  0  0  0  0  0
   21.1532  -28.6166   37.3845 H   0  0  0  0  0  0  0  0  0  0  0  0
   19.3202  -30.5724   35.1366 H   0  0  0  0  0  0  0  0  0  0  0  0
  1  2  1  0
  2  3  1  0
  3  4  1  0
  4  5  2  0
  5  6  1  0
  6  7  2  0
  7  8  1  0
  8  9  1  0
  9 10  1  0
 10 11  2  0
 11 12  1  0
 12 13  2  0
 13 14  1  0
 14 15  1  0
 14 16  2  0
 16 17  1  0
 17 18  2  0
 17 19  1  0
 19 20  1  0
  7 21  1  0
 21 22  2  0
 22 23  1  0
 23 24  1  0
 23 25  1  0
 22  4  1  0
 19  8  2  0
 16 10  1  0
  1 26  1  0
  1 27  1  0
  1 28  1  0
  2 29  1  0
  2 30  1  0
  3 31  1  0
  3 32  1  0
  5 33  1  0
  6 34  1  0
 11 35  1  0
 12 36  1  0
 13 37  1  0
 15 38  1  0
 20 39  1  0
 21 40  1  0
 23 41  1  0
M  END
>  <meeko>  (8) 
{"is_sidechain": [false], "free_energy": -8.382, "intermolecular_energy": -11.116, "internal_energy": -0.478}

$$$$
cand_044_out
     RDKit          3D

 41 43  0  0  0  0  0  0  0  0999 V2000
   21.4010  -24.9540   42.0680 C   0  0  0  0  0  0  0  0  0  0  0  0
   21.8370  -26.3600   41.6870 C   0  0  0  0  0  0  0  0  0  0  0  0
   20.6540  -27.3310   41.6910 C   0  0  0  0  0  0  0  0  0  0  0  0
   20.5460  -28.0930   40.3870 C   0  0  0  0  0  0  0  0  0  0  0  0
   21.5150  -29.0700   40.1070 C   0  0  0  0  0  0  0  0  0  0  0  0
   21.4830  -29.7960   38.9140 C   0  0  0  0  0  0  0  0  0  0  0  0
   20.4880  -29.5600   37.9620 C   0  0  0  0  0  0  0  0  0  0  0  0
   20.4150  -30.3310   36.7020 C   0  0  0  0  0  0  0  0  0  0  0  0
   20.0340  -31.6540   36.9000 O   0  0  0  0  0  0  0  0  0  0  0  0
   19.9220  -32.4820   35.8130 C   0  0  0  0  0  0  0  0  0  0  0  0
   19.5460  -33.8030   36.0590 C   0  0  0  0  0  0  0  0  0  0  0  0
   19.4130  -34.6990   34.9960 C   0  0  0  0  0  0  0  0  0  0  0  0
   19.6540  -34.2740   33.6880 C   0  0  0  0  0  0  0  0  0  0  0  0
   20.0280  -32.9550   33.4450 C   0  0  0  0  0  0  0  0  0  0  0  0
   20.2480  -32.6050   32.1410 O   0  0  0  0  0  0  0  0  0  0  0  0
   20.1610  -32.0600   34.5090 C   0  0  0  0  0  0  0  0  0  0  0  0
   20.5510  -30.6640   34.2980 C   0  0  0  0  0  0  0  0  0  0  0  0
   20.7750  -30.2130   33.1760 O   0  0  0  0  0  0  0  0  0  0  0  0
   20.6700  -29.7980   35.4930 C   0  0  0  0  0  0  0  0  0  0  0  0
   21.0240  -28.4780   35.2800 O   0  0  0  0  0  0  0  0  0  0  0  0
   19.5150  -28.5880   38.2430 C   0  0  0  0  0  0  0  0  0  0  0  0
   19.5320  -27.8420   39.4400 C   0  0  0  0  0  0  0  0  0  0  0  0
   18.4410  -26.8230   39.6770 C   0  0  0  0  0  0  0  0  0  0  0  0
   18.8610  -25.5370   39.5110 F   0  0  0  0  0  0  0  0  0  0  0  0
   17.3720  -26.9630   38.8400 F   0  0  0  0  0  0  0  0  0  0  0  0
   21.3728  -24.8632   43.1639 H   0  0  0  0  0  0  0  0  0  0  0  0
   22.1152  -24.2248   41.6579 H   0  0  0  0  0  0  0  0  0  0  0  0
   20.3995  -24.7569   41.6579 H   0  0  0  0  0  0  0  0  0  0  0  0
   22.2782  -26.3374   40.6796 H   0  0  0  0  0  0  0  0  0  0  0  0
   22.5728  -26.7072   42.4273 H   0  0  0  0  0  0  0  0  0  0  0  0
   20.7863  -28.0497   42.5132 H   0  0  0  0  0  0  0  0  0  0  0  0
   19.7321  -26.7453   41.8215 H   0  0  0  0  0  0  0  0  0  0  0  0
   22.3122  -29.2668   40.8390 H   0  0  0  0  0  0  0  0  0  0  0  0
   22.2492  -30.5615   38.7221 H   0  0  0  0  0  0  0  0  0  0  0  0
   19.3546  -34.1383   37.0890 H   0  0  0  0  0  0  0  0  0  0  0  0
   19.1180  -35.7409   35.1895 H   0  0  0  0  0  0  0  0  0  0  0  0
   19.5486  -34.9799   32.8510 H   0  0  0  0  0  0  0  0  0  0  0  0
   19.9510  -33.1640   31.4490 H   0  0  0  0  0  0  0  0  0  0  0  0
   20.5390  -27.7900   35.6910 H   0  0  0  0  0  0  0  0  0  0  0  0
   18.7168  -28.4029   37.5091 H   0  0  0  0  0  0  0  0  0  0  0  0
   18.1524  -27.0181   40.7204 H   0  0  0  0  0  0  0  0  0  0  0  0
  1  2  1  0
  2  3  1  0
  3  4  1  0
  4  5  2  0
  5  6  1  0
  6  7  2  0
  7  8  1  0
  8  9  1  0
  9 10  1  0
 10 11  2  0
 11 12  1  0
 12 13  2  0
 13 14  1  0
 14 15  1  0
 14 16  2  0
 16 17  1  0
 17 18  2  0
 17 19  1  0
 19 20  1  0
  7 21  1  0
 21 22  2  0
 22 23  1  0
 23 24  1  0
 23 25  1  0
 22  4  1  0
 19  8  2  0
 16 10  1  0
  1 26  1  0
  1 27  1  0
  1 28  1  0
  2 29  1  0
  2 30  1  0
  3 31  1  0
  3 32  1  0
  5 33  1  0
  6 34  1  0
 11 35  1  0
 12 36  1  0
 13 37  1  0
 15 38  1  0
 20 39  1  0
 21 40  1  0
 23 41  1  0
M  END
>  <meeko>  (9) 
{"is_sidechain": [false], "free_energy": -7.881, "intermolecular_energy": -10.102, "internal_energy": -0.844}

$$$$
