cand_036_out
     RDKit          3D

 35 37  0  0  0  0  0  0  0  0999 V2000
   22.4170  -26.7990   42.2750 C   0  0  0  0  0  0  0  0  0  0  0  0
   21.9020  -27.8160   41.2930 C   0  0  0  0  0  0  0  0  0  0  0  0
   22.7540  -28.8370   40.8510 C   0  0  0  0  0  0  0  0  0  0  0  0
   22.3100  -29.7970   39.9390 C   0  0  0  0  0  0  0  0  0  0  0  0
   21.0050  -29.7590   39.4390 C   0  0  0  0  0  0  0  0  0  0  0  0
   20.5020  -30.7790   38.4950 C   0  0  0  0  0  0  0  0  0  0  0  0
   20.0430  -31.9250   39.1320 O   0  0  0  0  0  0  0  0  0  0  0  0
   19.5480  -32.9550   38.3730 C   0  0  0  0  0  0  0  0  0  0  0  0
   19.1120  -34.0920   39.0540 C   0  0  0  0  0  0  0  0  0  0  0  0
   18.5950  -35.1760   38.3400 C   0  0  0  0  0  0  0  0  0  0  0  0
   18.5130  -35.1210   36.9470 C   0  0  0  0  0  0  0  0  0  0  0  0
   18.9490  -33.9840   36.2700 C   0  0  0  0  0  0  0  0  0  0  0  0
   18.8400  -33.9980   34.9070 O   0  0  0  0  0  0  0  0  0  0  0  0
   19.4670  -32.9010   36.9850 C   0  0  0  0  0  0  0  0  0  0  0  0
   19.9360  -31.6880   36.3130 C   0  0  0  0  0  0  0  0  0  0  0  0
   19.8900  -31.5630   35.0910 O   0  0  0  0  0  0  0  0  0  0  0  0
   20.4750  -30.6000   37.1610 C   0  0  0  0  0  0  0  0  0  0  0  0
   20.9020  -29.4540   36.5170 O   0  0  0  0  0  0  0  0  0  0  0  0
   20.1500  -28.7410   39.8910 C   0  0  0  0  0  0  0  0  0  0  0  0
   20.5810  -27.7680   40.8090 C   0  0  0  0  0  0  0  0  0  0  0  0
   19.6220  -26.6960   41.2510 C   0  0  0  0  0  0  0  0  0  0  0  0
   22.2367  -27.1550   43.3001 H   0  0  0  0  0  0  0  0  0  0  0  0
   23.4967  -26.6550   42.1214 H   0  0  0  0  0  0  0  0  0  0  0  0
   21.8941  -25.8435   42.1214 H   0  0  0  0  0  0  0  0  0  0  0  0
   23.7865  -28.8830   41.2275 H   0  0  0  0  0  0  0  0  0  0  0  0
   22.9951  -30.5923   39.6102 H   0  0  0  0  0  0  0  0  0  0  0  0
   19.1752  -34.1349   40.1513 H   0  0  0  0  0  0  0  0  0  0  0  0
   18.2522  -36.0736   38.8756 H   0  0  0  0  0  0  0  0  0  0  0  0
   18.1048  -35.9740   36.3851 H   0  0  0  0  0  0  0  0  0  0  0  0
   18.6940  -33.1980   34.4400 H   0  0  0  0  0  0  0  0  0  0  0  0
   20.2850  -28.9130   36.0650 H   0  0  0  0  0  0  0  0  0  0  0  0
   19.1162  -28.7041   39.5169 H   0  0  0  0  0  0  0  0  0  0  0  0
   19.5914  -26.6618   42.3500 H   0  0  0  0  0  0  0  0  0  0  0  0
   19.9561  -25.7224   40.8630 H   0  0  0  0  0  0  0  0  0  0  0  0
   18.6174  -26.9201   40.8630 H   0  0  0  0  0  0  0  0  0  0  0  0
  1  2  1  0
  2  3  2  0
  3  4  1  0
  4  5  2  0
  5  6  1  0
  6  7  1  0
  7  8  1  0
  8  9  2  0
  9 10  1  0
 10 11  2  0
 11 12  1  0
 12 13  1  0
 12 14  2  0
 14 15  1  0
 15 16  2  0
 15 17  1  0
 17 18  1  0
  5 19  1  0
 19 20  2  0
 20 21  1  0
 20  2  1  0
 17  6  2  0
 14  8  1  0
  1 22  1  0
  1 23  1  0
  1 24  1  0
  3 25  1  0
  4 26  1  0
  9 27  1  0
 10 28  1  0
 11 29  1  0
 13 30  1  0
 18 31  1  0
 19 32  1  0
 21 33  1  0
 21 34  1  0
 21 35  1  0
M  END
>  <meeko>  (1) 
{"is_sidechain": [false], "free_energy": -9.17, "intermolecular_energy": -10.242, "internal_energy": -0.32}

$$$$
cand_036_out
     RDKit          3D

 35 37  0  0  0  0  0  0  0  0999 V2000
   23.9840  -27.0200   43.5790 C   0  0  0  0  0  0  0  0  0  0  0  0
   23.3210  -27.8280   42.4970 C   0  0  0  0  0  0  0  0  0  0  0  0
   22.2620  -27.2670   41.7710 C   0  0  0  0  0  0  0  0  0  0  0  0
   21.6220  -27.9880   40.7610 C   0  0  0  0  0  0  0  0  0  0  0  0
   22.0190  -29.2940   40.4540 C   0  0  0  0  0  0  0  0  0  0  0  0
   21.3760  -30.0690   39.3710 C   0  0  0  0  0  0  0  0  0  0  0  0
   20.5720  -31.0970   39.8480 O   0  0  0  0  0  0  0  0  0  0  0  0
   19.9140  -31.8980   38.9490 C   0  0  0  0  0  0  0  0  0  0  0  0
   19.1300  -32.9270   39.4720 C   0  0  0  0  0  0  0  0  0  0  0  0
   18.4320  -33.7770   38.6110 C   0  0  0  0  0  0  0  0  0  0  0  0
   18.5180  -33.5970   37.2290 C   0  0  0  0  0  0  0  0  0  0  0  0
   19.3010  -32.5680   36.7100 C   0  0  0  0  0  0  0  0  0  0  0  0
   19.3410  -32.4490   35.3480 O   0  0  0  0  0  0  0  0  0  0  0  0
   20.0000  -31.7190   37.5720 C   0  0  0  0  0  0  0  0  0  0  0  0
   20.8340  -30.6270   37.0690 C   0  0  0  0  0  0  0  0  0  0  0  0
   20.9550  -30.4010   35.8660 O   0  0  0  0  0  0  0  0  0  0  0  0
   21.5400  -29.7880   38.0650 C   0  0  0  0  0  0  0  0  0  0  0  0
   22.3140  -28.7520   37.5790 O   0  0  0  0  0  0  0  0  0  0  0  0
   23.0860  -29.8510   41.1760 C   0  0  0  0  0  0  0  0  0  0  0  0
   23.7410  -29.1370   42.1940 C   0  0  0  0  0  0  0  0  0  0  0  0
   24.8730  -29.7900   42.9390 C   0  0  0  0  0  0  0  0  0  0  0  0
   23.6724  -27.3997   44.5633 H   0  0  0  0  0  0  0  0  0  0  0  0
   25.0765  -27.1045   43.4824 H   0  0  0  0  0  0  0  0  0  0  0  0
   23.6879  -25.9650   43.4824 H   0  0  0  0  0  0  0  0  0  0  0  0
   21.9300  -26.2436   42.0001 H   0  0  0  0  0  0  0  0  0  0  0  0
   20.7968  -27.5242   40.2007 H   0  0  0  0  0  0  0  0  0  0  0  0
   19.0617  -33.0686   40.5607 H   0  0  0  0  0  0  0  0  0  0  0  0
   17.8140  -34.5889   39.0220 H   0  0  0  0  0  0  0  0  0  0  0  0
   17.9684  -34.2666   36.5511 H   0  0  0  0  0  0  0  0  0  0  0  0
   20.1390  -32.6120   34.8860 H   0  0  0  0  0  0  0  0  0  0  0  0
   23.0740  -28.4730   38.0510 H   0  0  0  0  0  0  0  0  0  0  0  0
   23.4181  -30.8725   40.9390 H   0  0  0  0  0  0  0  0  0  0  0  0
   24.7040  -29.6925   44.0216 H   0  0  0  0  0  0  0  0  0  0  0  0
   24.9226  -30.8555   42.6701 H   0  0  0  0  0  0  0  0  0  0  0  0
   25.8202  -29.2995   42.6701 H   0  0  0  0  0  0  0  0  0  0  0  0
  1  2  1  0
  2  3  2  0
  3  4  1  0
  4  5  2  0
  5  6  1  0
  6  7  1  0
  7  8  1  0
  8  9  2  0
  9 10  1  0
 10 11  2  0
 11 12  1  0
 12 13  1  0
 12 14  2  0
 14 15  1  0
 15 16  2  0
 15 17  1  0
 17 18  1  0
  5 19  1  0
 19 20  2  0
 20 21  1  0
 20  2  1  0
 17  6  2  0
 14  8  1  0
  1 22  1  0
  1 23  1  0
  1 24  1  0
  3 25  1  0
  4 26  1  0
  9 27  1  0
 10 28  1  0
 11 29  1  0
 13 30  1  0
 18 31  1  0
 19 32  1  0
 21 33  1  0
 21 34  1  0
 21 35  1  0
M  END
>  <meeko>  (2) 
{"is_sidechain": [false], "free_energy": -9.163, "intermolecular_energy": -10.297, "internal_energy": -0.257}

$$$$
cand_036_out
     RDKit          3D

 35 37  0  0  0  0  0  0  0  0999 V2000
   23.8730  -27.1050   43.5900 C   0  0  0  0  0  0  0  0  0  0  0  0
   23.2190  -27.8610   42.4670 C   0  0  0  0  0  0  0  0  0  0  0  0
   23.7550  -29.0920   42.0630 C   0  0  0  0  0  0  0  0  0  0  0  0
   23.1750  -29.8210   41.0230 C   0  0  0  0  0  0  0  0  0  0  0  0
   22.0460  -29.3370   40.3530 C   0  0  0  0  0  0  0  0  0  0  0  0
   21.3970  -30.1020   39.2680 C   0  0  0  0  0  0  0  0  0  0  0  0
   20.6110  -31.1460   39.7400 O   0  0  0  0  0  0  0  0  0  0  0  0
   19.9490  -31.9400   38.8370 C   0  0  0  0  0  0  0  0  0  0  0  0
   19.1830  -32.9850   39.3540 C   0  0  0  0  0  0  0  0  0  0  0  0
   18.4820  -33.8290   38.4890 C   0  0  0  0  0  0  0  0  0  0  0  0
   18.5470  -33.6270   37.1090 C   0  0  0  0  0  0  0  0  0  0  0  0
   19.3120  -32.5820   36.5960 C   0  0  0  0  0  0  0  0  0  0  0  0
   19.3310  -32.4410   35.2350 O   0  0  0  0  0  0  0  0  0  0  0  0
   20.0140  -31.7390   37.4620 C   0  0  0  0  0  0  0  0  0  0  0  0
   20.8300  -30.6300   36.9640 C   0  0  0  0  0  0  0  0  0  0  0  0
   20.9310  -30.3840   35.7640 O   0  0  0  0  0  0  0  0  0  0  0  0
   21.5400  -29.8000   37.9640 C   0  0  0  0  0  0  0  0  0  0  0  0
   22.2960  -28.7480   37.4840 O   0  0  0  0  0  0  0  0  0  0  0  0
   21.5050  -28.1090   40.7660 C   0  0  0  0  0  0  0  0  0  0  0  0
   22.0760  -27.3640   41.8120 C   0  0  0  0  0  0  0  0  0  0  0  0
   21.4570  -26.0500   42.2040 C   0  0  0  0  0  0  0  0  0  0  0  0
   23.5257  -27.5065   44.5534 H   0  0  0  0  0  0  0  0  0  0  0  0
   24.9652  -27.2153   43.5191 H   0  0  0  0  0  0  0  0  0  0  0  0
   23.6067  -26.0401   43.5191 H   0  0  0  0  0  0  0  0  0  0  0  0
   24.6452  -29.4891   42.5727 H   0  0  0  0  0  0  0  0  0  0  0  0
   23.6106  -30.7868   40.7270 H   0  0  0  0  0  0  0  0  0  0  0  0
   19.1310  -33.1443   40.4412 H   0  0  0  0  0  0  0  0  0  0  0  0
   17.8782  -34.6536   38.8957 H   0  0  0  0  0  0  0  0  0  0  0  0
   17.9952  -34.2918   36.4282 H   0  0  0  0  0  0  0  0  0  0  0  0
   18.6030  -32.7340   34.7230 H   0  0  0  0  0  0  0  0  0  0  0  0
   22.7160  -28.1610   38.0820 H   0  0  0  0  0  0  0  0  0  0  0  0
   20.6106  -27.7197   40.2575 H   0  0  0  0  0  0  0  0  0  0  0  0
   21.4213  -25.9742   43.3008 H   0  0  0  0  0  0  0  0  0  0  0  0
   22.0611  -25.2248   41.7989 H   0  0  0  0  0  0  0  0  0  0  0  0
   20.4361  -25.9903   41.7989 H   0  0  0  0  0  0  0  0  0  0  0  0
  1  2  1  0
  2  3  2  0
  3  4  1  0
  4  5  2  0
  5  6  1  0
  6  7  1  0
  7  8  1  0
  8  9  2  0
  9 10  1  0
 10 11  2  0
 11 12  1  0
 12 13  1  0
 12 14  2  0
 14 15  1  0
 15 16  2  0
 15 17  1  0
 17 18  1  0
  5 19  1  0
 19 20  2  0
 20 21  1  0
 20  2  1  0
 17  6  2  0
 14  8  1  0
  1 22  1  0
  1 23  1  0
  1 24  1  0
  3 25  1  0
  4 26  1  0
  9 27  1  0
 10 28  1  0
 11 29  1  0
 13 30  1  0
 18 31  1  0
 19 32  1  0
 21 33  1  0
 21 34  1  0
 21 35  1  0
M  END
>  <meeko>  (3) 
{"is_sidechain": [false], "free_energy": -9.082, "intermolecular_energy": -10.167, "internal_energy": -0.296}

$$$$
cand_036_out
     RDKit          3D

 35 37  0  0  0  0  0  0  0  0999 V2000
   19.6920  -32.3650   36.4350 C   0  0  0  0  0  0  0  0  0  0  0  0
   20.1820  -31.3540   37.4350 C   0  0  0  0  0  0  0  0  0  0  0  0
   20.8910  -30.2320   36.9860 C   0  0  0  0  0  0  0  0  0  0  0  0
   21.3620  -29.2740   37.8870 C   0  0  0  0  0  0  0  0  0  0  0  0
   21.1420  -29.4150   39.2610 C   0  0  0  0  0  0  0  0  0  0  0  0
   21.6060  -28.4010   40.2320 C   0  0  0  0  0  0  0  0  0  0  0  0
   22.4990  -28.9160   41.1640 O   0  0  0  0  0  0  0  0  0  0  0  0
   23.0090  -28.0820   42.1260 C   0  0  0  0  0  0  0  0  0  0  0  0
   23.8890  -28.6450   43.0510 C   0  0  0  0  0  0  0  0  0  0  0  0
   24.4470  -27.8500   44.0550 C   0  0  0  0  0  0  0  0  0  0  0  0
   24.1250  -26.4940   44.1340 C   0  0  0  0  0  0  0  0  0  0  0  0
   23.2460  -25.9350   43.2090 C   0  0  0  0  0  0  0  0  0  0  0  0
   22.9740  -24.6010   43.3440 O   0  0  0  0  0  0  0  0  0  0  0  0
   22.6880  -26.7310   42.2050 C   0  0  0  0  0  0  0  0  0  0  0  0
   21.7600  -26.1830   41.2140 C   0  0  0  0  0  0  0  0  0  0  0  0
   21.4330  -24.9980   41.2140 O   0  0  0  0  0  0  0  0  0  0  0  0
   21.2180  -27.1130   40.1960 C   0  0  0  0  0  0  0  0  0  0  0  0
   20.3540  -26.5820   39.2580 O   0  0  0  0  0  0  0  0  0  0  0  0
   20.4230  -30.5340   39.7070 C   0  0  0  0  0  0  0  0  0  0  0  0
   19.9410  -31.5070   38.8140 C   0  0  0  0  0  0  0  0  0  0  0  0
   19.1840  -32.6900   39.3510 C   0  0  0  0  0  0  0  0  0  0  0  0
   19.2718  -33.2320   36.9659 H   0  0  0  0  0  0  0  0  0  0  0  0
   18.9147  -31.9095   35.8039 H   0  0  0  0  0  0  0  0  0  0  0  0
   20.5311  -32.6929   35.8039 H   0  0  0  0  0  0  0  0  0  0  0  0
   21.0792  -30.1038   35.9098 H   0  0  0  0  0  0  0  0  0  0  0  0
   21.9123  -28.3986   37.5115 H   0  0  0  0  0  0  0  0  0  0  0  0
   24.1430  -29.7135   42.9897 H   0  0  0  0  0  0  0  0  0  0  0  0
   25.1411  -28.2931   44.7843 H   0  0  0  0  0  0  0  0  0  0  0  0
   24.5643  -25.8683   44.9249 H   0  0  0  0  0  0  0  0  0  0  0  0
   23.0150  -24.0360   42.5970 H   0  0  0  0  0  0  0  0  0  0  0  0
   20.6890  -26.2430   38.4510 H   0  0  0  0  0  0  0  0  0  0  0  0
   20.2313  -30.6532   40.7836 H   0  0  0  0  0  0  0  0  0  0  0  0
   19.1990  -32.6665   40.4506 H   0  0  0  0  0  0  0  0  0  0  0  0
   18.1431  -32.6504   38.9976 H   0  0  0  0  0  0  0  0  0  0  0  0
   19.6561  -33.6186   38.9976 H   0  0  0  0  0  0  0  0  0  0  0  0
  1  2  1  0
  2  3  2  0
  3  4  1  0
  4  5  2  0
  5  6  1  0
  6  7  1  0
  7  8  1  0
  8  9  2  0
  9 10  1  0
 10 11  2  0
 11 12  1  0
 12 13  1  0
 12 14  2  0
 14 15  1  0
 15 16  2  0
 15 17  1  0
 17 18  1  0
  5 19  1  0
 19 20  2  0
 20 21  1  0
 20  2  1  0
 17  6  2  0
 14  8  1  0
  1 22  1  0
  1 23  1  0
  1 24  1  0
  3 25  1  0
  4 26  1  0
  9 27  1  0
 10 28  1  0
 11 29  1  0
 13 30  1  0
 18 31  1  0
 19 32  1  0
 21 33  1  0
 21 34  1  0
 21 35  1  0
M  END
>  <meeko>  (4) 
{"is_sidechain": [false], "free_energy": -8.598, "intermolecular_energy": -9.761, "internal_energy": -0.162}

$$$$
cand_036_out
     RDKit          3D

 35 37  0  0  0  0  0  0  0  0999 V2000
   20.9390  -26.4370   41.5330 C   0  0  0  0  0  0  0  0  0  0  0  0
   20.6860  -27.6190   40.6380 C   0  0  0  0  0  0  0  0  0  0  0  0
   19.4990  -27.6770   39.8950 C   0  0  0  0  0  0  0  0  0  0  0  0
   19.2310  -28.7600   39.0550 C   0  0  0  0  0  0  0  0  0  0  0  0
   20.1390  -29.8180   38.9400 C   0  0  0  0  0  0  0  0  0  0  0  0
   19.8910  -30.9620   38.0370 C   0  0  0  0  0  0  0  0  0  0  0  0
   20.2890  -30.7130   36.7290 O   0  0  0  0  0  0  0  0  0  0  0  0
   20.1160  -31.6920   35.7840 C   0  0  0  0  0  0  0  0  0  0  0  0
   20.5150  -31.3940   34.4810 C   0  0  0  0  0  0  0  0  0  0  0  0
   20.3680  -32.3480   33.4710 C   0  0  0  0  0  0  0  0  0  0  0  0
   19.8240  -33.6000   33.7660 C   0  0  0  0  0  0  0  0  0  0  0  0
   19.4270  -33.8950   35.0680 C   0  0  0  0  0  0  0  0  0  0  0  0
   18.9020  -35.1400   35.2860 O   0  0  0  0  0  0  0  0  0  0  0  0
   19.5730  -32.9400   36.0770 C   0  0  0  0  0  0  0  0  0  0  0  0
   19.1680  -33.2090   37.4580 C   0  0  0  0  0  0  0  0  0  0  0  0
   18.6870  -34.2890   37.7960 O   0  0  0  0  0  0  0  0  0  0  0  0
   19.3580  -32.1260   38.4510 C   0  0  0  0  0  0  0  0  0  0  0  0
   18.9850  -32.3970   39.7540 O   0  0  0  0  0  0  0  0  0  0  0  0
   21.3320  -29.7530   39.6780 C   0  0  0  0  0  0  0  0  0  0  0  0
   21.6170  -28.6700   40.5270 C   0  0  0  0  0  0  0  0  0  0  0  0
   22.9070  -28.6600   41.2990 C   0  0  0  0  0  0  0  0  0  0  0  0
   20.8715  -26.7523   42.5847 H   0  0  0  0  0  0  0  0  0  0  0  0
   21.9435  -26.0351   41.3344 H   0  0  0  0  0  0  0  0  0  0  0  0
   20.1870  -25.6591   41.3344 H   0  0  0  0  0  0  0  0  0  0  0  0
   18.7686  -26.8584   39.9746 H   0  0  0  0  0  0  0  0  0  0  0  0
   18.2952  -28.7814   38.4772 H   0  0  0  0  0  0  0  0  0  0  0  0
   20.9451  -30.4085   34.2489 H   0  0  0  0  0  0  0  0  0  0  0  0
   20.6809  -32.1129   32.4430 H   0  0  0  0  0  0  0  0  0  0  0  0
   19.7093  -34.3519   32.9713 H   0  0  0  0  0  0  0  0  0  0  0  0
   18.9930  -35.5460   36.1250 H   0  0  0  0  0  0  0  0  0  0  0  0
   18.2900  -31.9090   40.1530 H   0  0  0  0  0  0  0  0  0  0  0  0
   22.0622  -30.5709   39.5892 H   0  0  0  0  0  0  0  0  0  0  0  0
   22.6891  -28.6617   42.3772 H   0  0  0  0  0  0  0  0  0  0  0  0
   23.4949  -29.5536   41.0423 H   0  0  0  0  0  0  0  0  0  0  0  0
   23.4809  -27.7574   41.0423 H   0  0  0  0  0  0  0  0  0  0  0  0
  1  2  1  0
  2  3  2  0
  3  4  1  0
  4  5  2  0
  5  6  1  0
  6  7  1  0
  7  8  1  0
  8  9  2  0
  9 10  1  0
 10 11  2  0
 11 12  1  0
 12 13  1  0
 12 14  2  0
 14 15  1  0
 15 16  2  0
 15 17  1  0
 17 18  1  0
  5 19  1  0
 19 20  2  0
 20 21  1  0
 20  2  1  0
 17  6  2  0
 14  8  1  0
  1 22  1  0
  1 23  1  0
  1 24  1  0
  3 25  1  0
  4 26  1  0
  9 27  1  0
 10 28  1  0
 11 29  1  0
 13 30  1  0
 18 31  1  0
 19 32  1  0
 21 33  1  0
 21 34  1  0
 21 35  1  0
M  END
>  <meeko>  (5) 
{"is_sidechain": [false], "free_energy": -8.583, "intermolecular_energy": -9.586, "internal_energy": -0.321}

$$$$
cand_036_out
     RDKit          3D

 35 37  0  0  0  0  0  0  0  0999 V2000
   20.0120  -30.8760   35.4760 C   0  0  0  0  0  0  0  0  0  0  0  0
   20.5780  -30.3760   36.7780 C   0  0  0  0  0  0  0  0  0  0  0  0
   21.4070  -29.2470   36.7780 C   0  0  0  0  0  0  0  0  0  0  0  0
   21.9500  -28.7560   37.9680 C   0  0  0  0  0  0  0  0  0  0  0  0
   21.6840  -29.3850   39.1880 C   0  0  0  0  0  0  0  0  0  0  0  0
   22.2240  -28.8700   40.4640 C   0  0  0  0  0  0  0  0  0  0  0  0
   23.1770  -29.7110   41.0260 O   0  0  0  0  0  0  0  0  0  0  0  0
   23.7620  -29.3540   42.2140 C   0  0  0  0  0  0  0  0  0  0  0  0
   24.7020  -30.2350   42.7490 C   0  0  0  0  0  0  0  0  0  0  0  0
   25.3360  -29.9300   43.9560 C   0  0  0  0  0  0  0  0  0  0  0  0
   25.0310  -28.7430   44.6260 C   0  0  0  0  0  0  0  0  0  0  0  0
   24.0920  -27.8650   44.0890 C   0  0  0  0  0  0  0  0  0  0  0  0
   23.8400  -26.7220   44.7970 O   0  0  0  0  0  0  0  0  0  0  0  0
   23.4570  -28.1720   42.8820 C   0  0  0  0  0  0  0  0  0  0  0  0
   22.4650  -27.2770   42.2840 C   0  0  0  0  0  0  0  0  0  0  0  0
   22.1480  -26.2120   42.8110 O   0  0  0  0  0  0  0  0  0  0  0  0
   21.8450  -27.6980   41.0070 C   0  0  0  0  0  0  0  0  0  0  0  0
   20.9190  -26.8390   40.4450 O   0  0  0  0  0  0  0  0  0  0  0  0
   20.8450  -30.5110   39.1870 C   0  0  0  0  0  0  0  0  0  0  0  0
   20.2890  -31.0160   37.9990 C   0  0  0  0  0  0  0  0  0  0  0  0
   19.4040  -32.2300   38.0580 C   0  0  0  0  0  0  0  0  0  0  0  0
   19.2018  -31.5917   35.6792 H   0  0  0  0  0  0  0  0  0  0  0  0
   19.6157  -30.0277   34.8986 H   0  0  0  0  0  0  0  0  0  0  0  0
   20.8049  -31.3740   34.8986 H   0  0  0  0  0  0  0  0  0  0  0  0
   21.6336  -28.7401   35.8284 H   0  0  0  0  0  0  0  0  0  0  0  0
   22.5940  -27.8645   37.9448 H   0  0  0  0  0  0  0  0  0  0  0  0
   24.9439  -31.1692   42.2209 H   0  0  0  0  0  0  0  0  0  0  0  0
   26.0760  -30.6253   44.3790 H   0  0  0  0  0  0  0  0  0  0  0  0
   25.5311  -28.5019   45.5756 H   0  0  0  0  0  0  0  0  0  0  0  0
   23.4460  -25.9850   44.3730 H   0  0  0  0  0  0  0  0  0  0  0  0
   20.0460  -26.8040   40.7840 H   0  0  0  0  0  0  0  0  0  0  0  0
   20.6171  -31.0105   40.1402 H   0  0  0  0  0  0  0  0  0  0  0  0
   19.2121  -32.4932   39.1087 H   0  0  0  0  0  0  0  0  0  0  0  0
   18.4504  -32.0134   37.5542 H   0  0  0  0  0  0  0  0  0  0  0  0
   19.9019  -33.0716   37.5542 H   0  0  0  0  0  0  0  0  0  0  0  0
  1  2  1  0
  2  3  2  0
  3  4  1  0
  4  5  2  0
  5  6  1  0
  6  7  1  0
  7  8  1  0
  8  9  2  0
  9 10  1  0
 10 11  2  0
 11 12  1  0
 12 13  1  0
 12 14  2  0
 14 15  1  0
 15 16  2  0
 15 17  1  0
 17 18  1  0
  5 19  1  0
 19 20  2  0
 20 21  1  0
 20  2  1  0
 17  6  2  0
 14  8  1  0
  1 22  1  0
  1 23  1  0
  1 24  1  0
  3 25  1  0
  4 26  1  0
  9 27  1  0
 10 28  1  0
 11 29  1  0
 13 30  1  0
 18 31  1  0
 19 32  1  0
 21 33  1  0
 21 34  1  0
 21 35  1  0
M  END
>  <meeko>  (6) 
{"is_sidechain": [false], "free_energy": -8.426, "intermolecular_energy": -9.499, "internal_energy": -0.233}

$$$$
cand_036_out
     RDKit          3D

 35 37  0  0  0  0  0  0  0  0999 V2000
   22.4620  -25.6060   44.9980 C   0  0  0  0  0  0  0  0  0  0  0  0
   22.1320  -26.3540   43.7360 C   0  0  0  0  0  0  0  0  0  0  0  0
   20.9170  -26.1020   43.0840 C   0  0  0  0  0  0  0  0  0  0  0  0
   20.5770  -26.7790   41.9110 C   0  0  0  0  0  0  0  0  0  0  0  0
   21.4400  -27.7310   41.3600 C   0  0  0  0  0  0  0  0  0  0  0  0
   21.1170  -28.4420   40.1040 C   0  0  0  0  0  0  0  0  0  0  0  0
   20.6760  -29.7420   40.3180 O   0  0  0  0  0  0  0  0  0  0  0  0
   20.3410  -30.5170   39.2370 C   0  0  0  0  0  0  0  0  0  0  0  0
   19.9180  -31.8210   39.4970 C   0  0  0  0  0  0  0  0  0  0  0  0
   19.5600  -32.6610   38.4410 C   0  0  0  0  0  0  0  0  0  0  0  0
   19.6240  -32.1970   37.1250 C   0  0  0  0  0  0  0  0  0  0  0  0
   20.0460  -30.8950   36.8680 C   0  0  0  0  0  0  0  0  0  0  0  0
   20.0860  -30.5060   35.5570 O   0  0  0  0  0  0  0  0  0  0  0  0
   20.4060  -30.0550   37.9260 C   0  0  0  0  0  0  0  0  0  0  0  0
   20.8550  -28.6800   37.7000 C   0  0  0  0  0  0  0  0  0  0  0  0
   20.9320  -28.1980   36.5710 O   0  0  0  0  0  0  0  0  0  0  0  0
   21.2200  -27.8750   38.8880 C   0  0  0  0  0  0  0  0  0  0  0  0
   21.6300  -26.5740   38.6630 O   0  0  0  0  0  0  0  0  0  0  0  0
   22.6610  -27.9760   42.0080 C   0  0  0  0  0  0  0  0  0  0  0  0
   23.0180  -27.3020   43.1890 C   0  0  0  0  0  0  0  0  0  0  0  0
   24.3370  -27.6120   43.8440 C   0  0  0  0  0  0  0  0  0  0  0  0
   22.1911  -26.2200   45.8696 H   0  0  0  0  0  0  0  0  0  0  0  0
   23.5399  -25.3880   45.0238 H   0  0  0  0  0  0  0  0  0  0  0  0
   21.8964  -24.6629   45.0238 H   0  0  0  0  0  0  0  0  0  0  0  0
   20.2211  -25.3600   43.5025 H   0  0  0  0  0  0  0  0  0  0  0  0
   19.6197  -26.5609   41.4150 H   0  0  0  0  0  0  0  0  0  0  0  0
   19.8667  -32.1868   40.5331 H   0  0  0  0  0  0  0  0  0  0  0  0
   19.2272  -33.6893   38.6455 H   0  0  0  0  0  0  0  0  0  0  0  0
   19.3415  -32.8589   36.2931 H   0  0  0  0  0  0  0  0  0  0  0  0
   19.4310  -30.8060   34.9590 H   0  0  0  0  0  0  0  0  0  0  0  0
   22.3840  -26.4060   38.1330 H   0  0  0  0  0  0  0  0  0  0  0  0
   23.3560  -28.7140   41.5809 H   0  0  0  0  0  0  0  0  0  0  0  0
   24.2190  -27.5843   44.9373 H   0  0  0  0  0  0  0  0  0  0  0  0
   24.6726  -28.6135   43.5367 H   0  0  0  0  0  0  0  0  0  0  0  0
   25.0836  -26.8648   43.5367 H   0  0  0  0  0  0  0  0  0  0  0  0
  1  2  1  0
  2  3  2  0
  3  4  1  0
  4  5  2  0
  5  6  1  0
  6  7  1  0
  7  8  1  0
  8  9  2  0
  9 10  1  0
 10 11  2  0
 11 12  1  0
 12 13  1  0
 12 14  2  0
 14 15  1  0
 15 16  2  0
 15 17  1  0
 17 18  1  0
  5 19  1  0
 19 20  2  0
 20 21  1  0
 20  2  1  0
 17  6  2  0
 14  8  1  0
  1 22  1  0
  1 23  1  0
  1 24  1  0
  3 25  1  0
  4 26  1  0
  9 27  1  0
 10 28  1  0
 11 29  1  0
 13 30  1  0
 18 31  1  0
 19 32  1  0
 21 33  1  0
 21 34  1  0
 21 35  1  0
M  END
>  <meeko>  (7) 
{"is_sidechain": [false], "free_energy": -8.403, "intermolecular_energy": -9.415, "internal_energy": -0.29}

$$$$
cand_036_out
     RDKit          3D

 35 37  0  0  0  0  0  0  0  0999 V2000
   20.3260  -31.0910   35.9930 C   0  0  0  0  0  0  0  0  0  0  0  0
   20.7720  -30.4650   37.2860 C   0  0  0  0  0  0  0  0  0  0  0  0
   21.5670  -29.3110   37.2530 C   0  0  0  0  0  0  0  0  0  0  0  0
   21.9990  -28.7040   38.4340 C   0  0  0  0  0  0  0  0  0  0  0  0
   21.6560  -29.2370   39.6800 C   0  0  0  0  0  0  0  0  0  0  0  0
   22.0780  -28.5990   40.9440 C   0  0  0  0  0  0  0  0  0  0  0  0
   21.2720  -27.5240   41.3010 O   0  0  0  0  0  0  0  0  0  0  0  0
   21.5520  -26.8390   42.4560 C   0  0  0  0  0  0  0  0  0  0  0  0
   20.7260  -25.7580   42.7680 C   0  0  0  0  0  0  0  0  0  0  0  0
   20.9550  -25.0190   43.9310 C   0  0  0  0  0  0  0  0  0  0  0  0
   22.0090  -25.3610   44.7810 C   0  0  0  0  0  0  0  0  0  0  0  0
   22.8310  -26.4410   44.4670 C   0  0  0  0  0  0  0  0  0  0  0  0
   23.8450  -26.7200   45.3430 O   0  0  0  0  0  0  0  0  0  0  0  0
   22.6020  -27.1790   43.3030 C   0  0  0  0  0  0  0  0  0  0  0  0
   23.4430  -28.3200   42.9360 C   0  0  0  0  0  0  0  0  0  0  0  0
   24.3850  -28.6850   43.6360 O   0  0  0  0  0  0  0  0  0  0  0  0
   23.1200  -29.0310   41.6770 C   0  0  0  0  0  0  0  0  0  0  0  0
   23.9120  -30.1150   41.3480 O   0  0  0  0  0  0  0  0  0  0  0  0
   20.8520  -30.3880   39.7110 C   0  0  0  0  0  0  0  0  0  0  0  0
   20.4070  -31.0100   38.5310 C   0  0  0  0  0  0  0  0  0  0  0  0
   19.5550  -32.2460   38.6270 C   0  0  0  0  0  0  0  0  0  0  0  0
   19.7000  -31.9696   36.2078 H   0  0  0  0  0  0  0  0  0  0  0  0
   19.7444  -30.3594   35.4128 H   0  0  0  0  0  0  0  0  0  0  0  0
   21.2074  -31.4017   35.4128 H   0  0  0  0  0  0  0  0  0  0  0  0
   21.8544  -28.8777   36.2837 H   0  0  0  0  0  0  0  0  0  0  0  0
   22.6168  -27.7953   38.3833 H   0  0  0  0  0  0  0  0  0  0  0  0
   19.8957  -25.4883   42.0988 H   0  0  0  0  0  0  0  0  0  0  0  0
   20.3046  -24.1669   44.1776 H   0  0  0  0  0  0  0  0  0  0  0  0
   22.1898  -24.7788   45.6966 H   0  0  0  0  0  0  0  0  0  0  0  0
   23.8530  -26.3250   46.1920 H   0  0  0  0  0  0  0  0  0  0  0  0
   24.5080  -30.0580   40.6260 H   0  0  0  0  0  0  0  0  0  0  0  0
   20.5630  -30.8139   40.6832 H   0  0  0  0  0  0  0  0  0  0  0  0
   19.3849  -32.4928   39.6854 H   0  0  0  0  0  0  0  0  0  0  0  0
   18.5891  -32.0648   38.1329 H   0  0  0  0  0  0  0  0  0  0  0  0
   20.0680  -33.0843   38.1329 H   0  0  0  0  0  0  0  0  0  0  0  0
  1  2  1  0
  2  3  2  0
  3  4  1  0
  4  5  2  0
  5  6  1  0
  6  7  1  0
  7  8  1  0
  8  9  2  0
  9 10  1  0
 10 11  2  0
 11 12  1  0
 12 13  1  0
 12 14  2  0
 14 15  1  0
 15 16  2  0
 15 17  1  0
 17 18  1  0
  5 19  1  0
 19 20  2  0
 20 21  1  0
 20  2  1  0
 17  6  2  0
 14  8  1  0
  1 22  1  0
  1 23  1  0
  1 24  1  0
  3 25  1  0
  4 26  1  0
  9 27  1  0
 10 28  1  0
 11 29  1  0
 13 30  1  0
 18 31  1  0
 19 32  1  0
 21 33  1  0
 21 34  1  0
 21 35  1  0
M  END
>  <meeko>  (8) 
{"is_sidechain": [false], "free_energy": -8.385, "intermolecular_energy": -9.376, "internal_energy": -0.309}

$$$$
cand_036_out
     RDKit          3D

 35 37  0  0  0  0  0  0  0  0999 V2000
   19.2190  -33.5660   36.0170 C   0  0  0  0  0  0  0  0  0  0  0  0
   19.6160  -32.3550   36.8150 C   0  0  0  0  0  0  0  0  0  0  0  0
   19.3600  -32.3250   38.1930 C   0  0  0  0  0  0  0  0  0  0  0  0
   19.7150  -31.2170   38.9650 C   0  0  0  0  0  0  0  0  0  0  0  0
   20.3290  -30.1050   38.3800 C   0  0  0  0  0  0  0  0  0  0  0  0
   20.7390  -28.9310   39.1800 C   0  0  0  0  0  0  0  0  0  0  0  0
   21.6450  -29.2520   40.1840 O   0  0  0  0  0  0  0  0  0  0  0  0
   22.1090  -28.2540   41.0030 C   0  0  0  0  0  0  0  0  0  0  0  0
   23.0050  -28.6230   42.0070 C   0  0  0  0  0  0  0  0  0  0  0  0
   23.5180  -27.6560   42.8740 C   0  0  0  0  0  0  0  0  0  0  0  0
   23.1350  -26.3200   42.7360 C   0  0  0  0  0  0  0  0  0  0  0  0
   22.2410  -25.9540   41.7330 C   0  0  0  0  0  0  0  0  0  0  0  0
   21.9080  -24.6290   41.6550 O   0  0  0  0  0  0  0  0  0  0  0  0
   21.7270  -26.9230   40.8670 C   0  0  0  0  0  0  0  0  0  0  0  0
   20.7850  -26.5810   39.8000 C   0  0  0  0  0  0  0  0  0  0  0  0
   20.4060  -25.4270   39.6120 O   0  0  0  0  0  0  0  0  0  0  0  0
   20.2940  -27.6830   38.9400 C   0  0  0  0  0  0  0  0  0  0  0  0
   19.4160  -27.3470   37.9280 O   0  0  0  0  0  0  0  0  0  0  0  0
   20.5940  -30.1400   37.0020 C   0  0  0  0  0  0  0  0  0  0  0  0
   20.2440  -31.2490   36.2110 C   0  0  0  0  0  0  0  0  0  0  0  0
   20.5450  -31.2260   34.7370 C   0  0  0  0  0  0  0  0  0  0  0  0
   18.9507  -34.3843   36.7014 H   0  0  0  0  0  0  0  0  0  0  0  0
   18.3545  -33.3200   35.3829 H   0  0  0  0  0  0  0  0  0  0  0  0
   20.0614  -33.8796   35.3829 H   0  0  0  0  0  0  0  0  0  0  0  0
   18.8726  -33.1865   38.6728 H   0  0  0  0  0  0  0  0  0  0  0  0
   19.5094  -31.2188   40.0456 H   0  0  0  0  0  0  0  0  0  0  0  0
   23.3071  -29.6751   42.1155 H   0  0  0  0  0  0  0  0  0  0  0  0
   24.2240  -27.9466   43.6659 H   0  0  0  0  0  0  0  0  0  0  0  0
   23.5390  -25.5579   43.4187 H   0  0  0  0  0  0  0  0  0  0  0  0
   22.1360  -24.1330   40.8930 H   0  0  0  0  0  0  0  0  0  0  0  0
   19.7440  -27.0510   37.1020 H   0  0  0  0  0  0  0  0  0  0  0  0
   21.0878  -29.2784   36.5289 H   0  0  0  0  0  0  0  0  0  0  0  0
   21.6314  -31.1430   34.5859 H   0  0  0  0  0  0  0  0  0  0  0  0
   20.1803  -32.1546   34.2737 H   0  0  0  0  0  0  0  0  0  0  0  0
   20.0434  -30.3636   34.2737 H   0  0  0  0  0  0  0  0  0  0  0  0
  1  2  1  0
  2  3  2  0
  3  4  1  0
  4  5  2  0
  5  6  1  0
  6  7  1  0
  7  8  1  0
  8  9  2  0
  9 10  1  0
 10 11  2  0
 11 12  1  0
 12 13  1  0
 12 14  2  0
 14 15  1  0
 15 16  2  0
 15 17  1  0
 17 18  1  0
  5 19  1  0
 19 20  2  0
 20 21  1  0
 20  2  1  0
 17  6  2  0
 14  8  1  0
  1 22  1  0
  1 23  1  0
  1 24  1  0
  3 25  1  0
  4 26  1  0
  9 27  1  0
 10 28  1  0
 11 29  1  0
 13 30  1  0
 18 31  1  0
 19 32  1  0
 21 33  1  0
 21 34  1  0
 21 35  1  0
M  END
>  <meeko>  (9) 
{"is_sidechain": [false], "free_energy": -7.979, "intermolecular_energy": -9.085, "internal_energy": -0.146}

$$$$
