cand_025_out
     RDKit          3D

 53 56  0  0  0  0  0  0  0  0999 V2000
   23.3080  -29.5450   41.2000 C   0  0  0  0  0  0  0  0  0  0  0  0
   22.4880  -28.2630   41.1900 C   0  0  0  0  0  0  0  0  0  0  0  0
   21.2070  -28.4160   40.4010 C   0  0  0  0  0  0  0  0  0  0  0  0
   21.0390  -29.5660   39.6020 C   0  0  0  0  0  0  0  0  0  0  0  0
   19.8810  -29.7660   38.8400 C   0  0  0  0  0  0  0  0  0  0  0  0
   19.7090  -30.9570   37.9810 C   0  0  0  0  0  0  0  0  0  0  0  0
   20.1300  -30.7450   36.6740 O   0  0  0  0  0  0  0  0  0  0  0  0
   20.0270  -31.7710   35.7690 C   0  0  0  0  0  0  0  0  0  0  0  0
   20.4760  -31.5200   34.4730 C   0  0  0  0  0  0  0  0  0  0  0  0
   20.3980  -32.5210   33.5010 C   0  0  0  0  0  0  0  0  0  0  0  0
   19.8710  -33.7720   33.8280 C   0  0  0  0  0  0  0  0  0  0  0  0
   19.4240  -34.0200   35.1230 C   0  0  0  0  0  0  0  0  0  0  0  0
   18.9190  -35.2670   35.3740 O   0  0  0  0  0  0  0  0  0  0  0  0
   19.5020  -33.0190   36.0940 C   0  0  0  0  0  0  0  0  0  0  0  0
   19.0440  -33.2370   37.4670 C   0  0  0  0  0  0  0  0  0  0  0  0
   18.5620  -34.3090   37.8280 O   0  0  0  0  0  0  0  0  0  0  0  0
   19.1780  -32.1130   38.4210 C   0  0  0  0  0  0  0  0  0  0  0  0
   18.7300  -32.3270   39.7110 O   0  0  0  0  0  0  0  0  0  0  0  0
   18.8890  -28.7800   38.8720 C   0  0  0  0  0  0  0  0  0  0  0  0
   19.0470  -27.6320   39.6540 C   0  0  0  0  0  0  0  0  0  0  0  0
   20.2030  -27.4270   40.4220 C   0  0  0  0  0  0  0  0  0  0  0  0
   20.3800  -26.2800   41.2190 N   0  0  0  0  0  0  0  0  0  0  0  0
   20.0450  -25.0100   40.5390 C   0  0  0  0  0  0  0  0  0  0  0  0
   20.4050  -23.8170   41.4560 C   0  0  0  0  0  0  0  0  0  0  0  0
   19.7210  -23.8860   42.7690 N   0  0  0  0  0  0  0  0  0  0  0  0
   20.1300  -22.7730   43.6220 C   0  0  0  0  0  0  0  0  0  0  0  0
   20.0410  -25.1820   43.4150 C   0  0  0  0  0  0  0  0  0  0  0  0
   19.6890  -26.3970   42.5230 C   0  0  0  0  0  0  0  0  0  0  0  0
   23.5019  -29.8481   42.2395 H   0  0  0  0  0  0  0  0  0  0  0  0
   22.7508  -30.3407   40.6839 H   0  0  0  0  0  0  0  0  0  0  0  0
   24.2640  -29.3728   40.6839 H   0  0  0  0  0  0  0  0  0  0  0  0
   22.2367  -27.9941   42.2266 H   0  0  0  0  0  0  0  0  0  0  0  0
   23.0908  -27.4779   40.7102 H   0  0  0  0  0  0  0  0  0  0  0  0
   21.8361  -30.3236   39.5767 H   0  0  0  0  0  0  0  0  0  0  0  0
   20.8914  -30.5345   34.2158 H   0  0  0  0  0  0  0  0  0  0  0  0
   20.7518  -32.3234   32.4783 H   0  0  0  0  0  0  0  0  0  0  0  0
   19.8091  -34.5605   33.0635 H   0  0  0  0  0  0  0  0  0  0  0  0
   18.9020  -35.9110   34.6930 H   0  0  0  0  0  0  0  0  0  0  0  0
   17.9120  -32.7590   39.8580 H   0  0  0  0  0  0  0  0  0  0  0  0
   17.9742  -28.9095   38.2750 H   0  0  0  0  0  0  0  0  0  0  0  0
   18.2494  -26.8747   39.6674 H   0  0  0  0  0  0  0  0  0  0  0  0
   20.6154  -24.9357   39.6014 H   0  0  0  0  0  0  0  0  0  0  0  0
   18.9676  -24.9879   40.3185 H   0  0  0  0  0  0  0  0  0  0  0  0
   21.4921  -23.8161   41.6238 H   0  0  0  0  0  0  0  0  0  0  0  0
   20.0735  -22.8963   40.9536 H   0  0  0  0  0  0  0  0  0  0  0  0
   18.7130  -23.8190   42.6290 H   0  0  0  0  0  0  0  0  0  0  0  0
   20.0238  -23.0621   44.6780 H   0  0  0  0  0  0  0  0  0  0  0  0
   21.1801  -22.5192   43.4152 H   0  0  0  0  0  0  0  0  0  0  0  0
   19.4941  -21.8996   43.4152 H   0  0  0  0  0  0  0  0  0  0  0  0
   21.1181  -25.2083   43.6365 H   0  0  0  0  0  0  0  0  0  0  0  0
   19.4356  -25.2554   44.3305 H   0  0  0  0  0  0  0  0  0  0  0  0
   20.0091  -27.3225   43.0240 H   0  0  0  0  0  0  0  0  0  0  0  0
   18.6020  -26.4220   42.3565 H   0  0  0  0  0  0  0  0  0  0  0  0
  1  2  1  0
  2  3  1  0
  3  4  2  0
  4  5  1  0
  5  6  1  0
  6  7  1  0
  7  8  1  0
  8  9  2  0
  9 10  1  0
 10 11  2  0
 11 12  1  0
 12 13  1  0
 12 14  2  0
 14 15  1  0
 15 16  2  0
 15 17  1  0
 17 18  1  0
  5 19  2  0
 19 20  1  0
 20 21  2  0
 21 22  1  0
 22 23  1  0
 23 24  1  0
 24 25  1  0
 25 26  1  0
 25 27  1  0
 27 28  1  0
 21  3  1  0
 28 22  1  0
 17  6  2  0
 14  8  1  0
  1 29  1  0
  1 30  1  0
  1 31  1  0
  2 32  1  0
  2 33  1  0
  4 34  1  0
  9 35  1  0
 10 36  1  0
 11 37  1  0
 13 38  1  0
 18 39  1  0
 19 40  1  0
 20 41  1  0
 23 42  1  0
 23 43  1  0
 24 44  1  0
 24 45  1  0
 25 46  1  0
 26 47  1  0
 26 48  1  0
 26 49  1  0
 27 50  1  0
 27 51  1  0
 28 52  1  0
 28 53  1  0
M  CHG  1  25   1
M  END
>  <meeko>  (1) 
{"is_sidechain": [false], "free_energy": -9.317, "intermolecular_energy": -11.495, "internal_energy": -0.694}

$$$$
cand_025_out
     RDKit          3D

 53 56  0  0  0  0  0  0  0  0999 V2000
   23.6460  -29.6280   41.6250 C   0  0  0  0  0  0  0  0  0  0  0  0
   22.9550  -28.2730   41.5890 C   0  0  0  0  0  0  0  0  0  0  0  0
   21.6490  -28.3230   40.8280 C   0  0  0  0  0  0  0  0  0  0  0  0
   21.3640  -29.4630   40.0500 C   0  0  0  0  0  0  0  0  0  0  0  0
   20.1770  -29.5700   39.3140 C   0  0  0  0  0  0  0  0  0  0  0  0
   19.8830  -30.7520   38.4760 C   0  0  0  0  0  0  0  0  0  0  0  0
   19.5170  -31.8660   39.2220 O   0  0  0  0  0  0  0  0  0  0  0  0
   19.2160  -33.0330   38.5680 C   0  0  0  0  0  0  0  0  0  0  0  0
   18.8380  -34.1210   39.3550 C   0  0  0  0  0  0  0  0  0  0  0  0
   18.5200  -35.3410   38.7520 C   0  0  0  0  0  0  0  0  0  0  0  0
   18.5790  -35.4700   37.3630 C   0  0  0  0  0  0  0  0  0  0  0  0
   18.9560  -34.3820   36.5800 C   0  0  0  0  0  0  0  0  0  0  0  0
   18.9940  -34.5790   35.2260 O   0  0  0  0  0  0  0  0  0  0  0  0
   19.2740  -33.1630   37.1830 C   0  0  0  0  0  0  0  0  0  0  0  0
   19.6750  -31.9950   36.3970 C   0  0  0  0  0  0  0  0  0  0  0  0
   19.7570  -32.0340   35.1710 O   0  0  0  0  0  0  0  0  0  0  0  0
   19.9840  -30.7470   37.1330 C   0  0  0  0  0  0  0  0  0  0  0  0
   20.3730  -29.6550   36.3820 O   0  0  0  0  0  0  0  0  0  0  0  0
   19.2760  -28.5010   39.3510 C   0  0  0  0  0  0  0  0  0  0  0  0
   19.5500  -27.3610   40.1130 C   0  0  0  0  0  0  0  0  0  0  0  0
   20.7360  -27.2490   40.8550 C   0  0  0  0  0  0  0  0  0  0  0  0
   21.0290  -26.1120   41.6320 N   0  0  0  0  0  0  0  0  0  0  0  0
   20.4240  -24.8590   41.1290 C   0  0  0  0  0  0  0  0  0  0  0  0
   20.9210  -23.6630   41.9750 C   0  0  0  0  0  0  0  0  0  0  0  0
   20.6250  -23.8280   43.4180 N   0  0  0  0  0  0  0  0  0  0  0  0
   21.1590  -22.7050   44.1850 C   0  0  0  0  0  0  0  0  0  0  0  0
   21.2090  -25.1070   43.8900 C   0  0  0  0  0  0  0  0  0  0  0  0
   20.7280  -26.3240   43.0650 C   0  0  0  0  0  0  0  0  0  0  0  0
   23.8014  -29.9327   42.6705 H   0  0  0  0  0  0  0  0  0  0  0  0
   23.0180  -30.3735   41.1153 H   0  0  0  0  0  0  0  0  0  0  0  0
   24.6182  -29.5575   41.1153 H   0  0  0  0  0  0  0  0  0  0  0  0
   22.7526  -27.9501   42.6209 H   0  0  0  0  0  0  0  0  0  0  0  0
   23.6214  -27.5654   41.0740 H   0  0  0  0  0  0  0  0  0  0  0  0
   22.0908  -30.2882   40.0200 H   0  0  0  0  0  0  0  0  0  0  0  0
   18.7903  -34.0188   40.4492 H   0  0  0  0  0  0  0  0  0  0  0  0
   18.2231  -36.1999   39.3719 H   0  0  0  0  0  0  0  0  0  0  0  0
   18.3280  -36.4298   36.8879 H   0  0  0  0  0  0  0  0  0  0  0  0
   19.2870  -33.8910   34.6610 H   0  0  0  0  0  0  0  0  0  0  0  0
   21.0510  -29.7430   35.7410 H   0  0  0  0  0  0  0  0  0  0  0  0
   18.3411  -28.5576   38.7741 H   0  0  0  0  0  0  0  0  0  0  0  0
   18.8222  -26.5364   40.1312 H   0  0  0  0  0  0  0  0  0  0  0  0
   20.7138  -24.7092   40.0785 H   0  0  0  0  0  0  0  0  0  0  0  0
   19.3287  -24.9278   41.2041 H   0  0  0  0  0  0  0  0  0  0  0  0
   22.0093  -23.5678   41.8465 H   0  0  0  0  0  0  0  0  0  0  0  0
   20.3929  -22.7635   41.6257 H   0  0  0  0  0  0  0  0  0  0  0  0
   19.6140  -23.8480   43.5550 H   0  0  0  0  0  0  0  0  0  0  0  0
   21.0592  -22.9149   45.2602 H   0  0  0  0  0  0  0  0  0  0  0  0
   22.2210  -22.5630   43.9362 H   0  0  0  0  0  0  0  0  0  0  0  0
   20.5988  -21.7916   43.9362 H   0  0  0  0  0  0  0  0  0  0  0  0
   22.3046  -25.0422   43.8154 H   0  0  0  0  0  0  0  0  0  0  0  0
   20.8800  -25.2590   44.9286 H   0  0  0  0  0  0  0  0  0  0  0  0
   21.2444  -27.2296   43.4160 H   0  0  0  0  0  0  0  0  0  0  0  0
   19.6419  -26.4418   43.1932 H   0  0  0  0  0  0  0  0  0  0  0  0
  1  2  1  0
  2  3  1  0
  3  4  2  0
  4  5  1  0
  5  6  1  0
  6  7  1  0
  7  8  1  0
  8  9  2  0
  9 10  1  0
 10 11  2  0
 11 12  1  0
 12 13  1  0
 12 14  2  0
 14 15  1  0
 15 16  2  0
 15 17  1  0
 17 18  1  0
  5 19  2  0
 19 20  1  0
 20 21  2  0
 21 22  1  0
 22 23  1  0
 23 24  1  0
 24 25  1  0
 25 26  1  0
 25 27  1  0
 27 28  1  0
 21  3  1  0
 28 22  1  0
 17  6  2  0
 14  8  1  0
  1 29  1  0
  1 30  1  0
  1 31  1  0
  2 32  1  0
  2 33  1  0
  4 34  1  0
  9 35  1  0
 10 36  1  0
 11 37  1  0
 13 38  1  0
 18 39  1  0
 19 40  1  0
 20 41  1  0
 23 42  1  0
 23 43  1  0
 24 44  1  0
 24 45  1  0
 25 46  1  0
 26 47  1  0
 26 48  1  0
 26 49  1  0
 27 50  1  0
 27 51  1  0
 28 52  1  0
 28 53  1  0
M  CHG  1  25   1
M  END
>  <meeko>  (2) 
{"is_sidechain": [false], "free_energy": -9.106, "intermolecular_energy": -11.476, "internal_energy": -0.454}

$$$$
cand_025_out
     RDKit          3D

 53 56  0  0  0  0  0  0  0  0999 V2000
   17.1590  -26.8360   38.2950 C   0  0  0  0  0  0  0  0  0  0  0  0
   18.2370  -26.5460   39.3290 C   0  0  0  0  0  0  0  0  0  0  0  0
   19.2330  -27.6790   39.4410 C   0  0  0  0  0  0  0  0  0  0  0  0
   19.0670  -28.8090   38.6150 C   0  0  0  0  0  0  0  0  0  0  0  0
   19.9470  -29.8960   38.6740 C   0  0  0  0  0  0  0  0  0  0  0  0
   19.7640  -31.0940   37.8290 C   0  0  0  0  0  0  0  0  0  0  0  0
   20.1600  -30.8930   36.5120 O   0  0  0  0  0  0  0  0  0  0  0  0
   20.0450  -31.9260   35.6180 C   0  0  0  0  0  0  0  0  0  0  0  0
   20.4690  -31.6850   34.3120 C   0  0  0  0  0  0  0  0  0  0  0  0
   20.3770  -32.6950   33.3500 C   0  0  0  0  0  0  0  0  0  0  0  0
   19.8610  -33.9450   33.6980 C   0  0  0  0  0  0  0  0  0  0  0  0
   19.4390  -34.1840   35.0030 C   0  0  0  0  0  0  0  0  0  0  0  0
   18.9440  -35.4300   35.2740 O   0  0  0  0  0  0  0  0  0  0  0  0
   19.5320  -33.1730   35.9630 C   0  0  0  0  0  0  0  0  0  0  0  0
   19.1000  -33.3820   37.3460 C   0  0  0  0  0  0  0  0  0  0  0  0
   18.6290  -34.4530   37.7250 O   0  0  0  0  0  0  0  0  0  0  0  0
   19.2470  -32.2500   38.2890 C   0  0  0  0  0  0  0  0  0  0  0  0
   18.8240  -32.4540   39.5880 O   0  0  0  0  0  0  0  0  0  0  0  0
   20.9990  -29.8470   39.5950 C   0  0  0  0  0  0  0  0  0  0  0  0
   21.1710  -28.7350   40.4260 C   0  0  0  0  0  0  0  0  0  0  0  0
   20.2940  -27.6410   40.3690 C   0  0  0  0  0  0  0  0  0  0  0  0
   20.4520  -26.5110   41.1940 N   0  0  0  0  0  0  0  0  0  0  0  0
   19.6970  -26.5750   42.4640 C   0  0  0  0  0  0  0  0  0  0  0  0
   19.8350  -25.2320   43.2200 C   0  0  0  0  0  0  0  0  0  0  0  0
   21.2480  -24.8730   43.4850 N   0  0  0  0  0  0  0  0  0  0  0  0
   21.3340  -23.5760   44.1510 C   0  0  0  0  0  0  0  0  0  0  0  0
   21.9920  -24.8520   42.2030 C   0  0  0  0  0  0  0  0  0  0  0  0
   21.8770  -26.1840   41.4230 C   0  0  0  0  0  0  0  0  0  0  0  0
   16.2187  -27.0890   38.8067 H   0  0  0  0  0  0  0  0  0  0  0  0
   17.0062  -25.9470   37.6654 H   0  0  0  0  0  0  0  0  0  0  0  0
   17.4728  -27.6817   37.6654 H   0  0  0  0  0  0  0  0  0  0  0  0
   18.7720  -25.6302   39.0373 H   0  0  0  0  0  0  0  0  0  0  0  0
   17.7472  -26.4258   40.3066 H   0  0  0  0  0  0  0  0  0  0  0  0
   18.2256  -28.8374   37.9070 H   0  0  0  0  0  0  0  0  0  0  0  0
   20.8759  -30.7003   34.0386 H   0  0  0  0  0  0  0  0  0  0  0  0
   20.7110  -32.5052   32.3193 H   0  0  0  0  0  0  0  0  0  0  0  0
   19.7880  -34.7403   32.9416 H   0  0  0  0  0  0  0  0  0  0  0  0
   18.7430  -35.6720   36.1570 H   0  0  0  0  0  0  0  0  0  0  0  0
   19.1470  -33.1850   40.0770 H   0  0  0  0  0  0  0  0  0  0  0  0
   21.6989  -30.6926   39.6665 H   0  0  0  0  0  0  0  0  0  0  0  0
   22.0096  -28.7178   41.1376 H   0  0  0  0  0  0  0  0  0  0  0  0
   18.6353  -26.7664   42.2491 H   0  0  0  0  0  0  0  0  0  0  0  0
   20.0996  -27.3872   43.0870 H   0  0  0  0  0  0  0  0  0  0  0  0
   19.3768  -24.4370   42.6134 H   0  0  0  0  0  0  0  0  0  0  0  0
   19.3300  -25.3415   44.1911 H   0  0  0  0  0  0  0  0  0  0  0  0
   21.6630  -25.5710   44.1040 H   0  0  0  0  0  0  0  0  0  0  0  0
   21.3243  -23.7223   45.2412 H   0  0  0  0  0  0  0  0  0  0  0  0
   22.2674  -23.0739   43.8567 H   0  0  0  0  0  0  0  0  0  0  0  0
   20.4751  -22.9550   43.8567 H   0  0  0  0  0  0  0  0  0  0  0  0
   21.5907  -24.0417   41.5766 H   0  0  0  0  0  0  0  0  0  0  0  0
   23.0551  -24.6960   42.4386 H   0  0  0  0  0  0  0  0  0  0  0  0
   22.3889  -26.0851   40.4544 H   0  0  0  0  0  0  0  0  0  0  0  0
   22.3441  -26.9890   42.0093 H   0  0  0  0  0  0  0  0  0  0  0  0
  1  2  1  0
  2  3  1  0
  3  4  2  0
  4  5  1  0
  5  6  1  0
  6  7  1  0
  7  8  1  0
  8  9  2  0
  9 10  1  0
 10 11  2  0
 11 12  1  0
 12 13  1  0
 12 14  2  0
 14 15  1  0
 15 16  2  0
 15 17  1  0
 17 18  1  0
  5 19  2  0
 19 20  1  0
 20 21  2  0
 21 22  1  0
 22 23  1  0
 23 24  1  0
 24 25  1  0
 25 26  1  0
 25 27  1  0
 27 28  1  0
 21  3  1  0
 28 22  1  0
 17  6  2  0
 14  8  1  0
  1 29  1  0
  1 30  1  0
  1 31  1  0
  2 32  1  0
  2 33  1  0
  4 34  1  0
  9 35  1  0
 10 36  1  0
 11 37  1  0
 13 38  1  0
 18 39  1  0
 19 40  1  0
 20 41  1  0
 23 42  1  0
 23 43  1  0
 24 44  1  0
 24 45  1  0
 25 46  1  0
 26 47  1  0
 26 48  1  0
 26 49  1  0
 27 50  1  0
 27 51  1  0
 28 52  1  0
 28 53  1  0
M  CHG  1  25   1
M  END
>  <meeko>  (3) 
{"is_sidechain": [false], "free_energy": -8.957, "intermolecular_energy": -11.171, "internal_energy": -0.574}

$$$$
cand_025_out
     RDKit          3D

 53 56  0  0  0  0  0  0  0  0999 V2000
   23.7050  -28.6920   42.6710 C   0  0  0  0  0  0  0  0  0  0  0  0
   23.1550  -27.2860   42.4910 C   0  0  0  0  0  0  0  0  0  0  0  0
   21.8880  -27.2760   41.6640 C   0  0  0  0  0  0  0  0  0  0  0  0
   21.6590  -28.3360   40.7640 C   0  0  0  0  0  0  0  0  0  0  0  0
   20.5120  -28.3840   39.9640 C   0  0  0  0  0  0  0  0  0  0  0  0
   20.2790  -29.4800   39.0000 C   0  0  0  0  0  0  0  0  0  0  0  0
   19.5840  -30.5490   39.5540 O   0  0  0  0  0  0  0  0  0  0  0  0
   19.2990  -31.6360   38.7670 C   0  0  0  0  0  0  0  0  0  0  0  0
   18.5870  -32.6780   39.3600 C   0  0  0  0  0  0  0  0  0  0  0  0
   18.2660  -33.8160   38.6140 C   0  0  0  0  0  0  0  0  0  0  0  0
   18.6570  -33.9080   37.2770 C   0  0  0  0  0  0  0  0  0  0  0  0
   19.3670  -32.8660   36.6880 C   0  0  0  0  0  0  0  0  0  0  0  0
   19.7190  -33.0230   35.3750 O   0  0  0  0  0  0  0  0  0  0  0  0
   19.6880  -31.7290   37.4340 C   0  0  0  0  0  0  0  0  0  0  0  0
   20.4330  -30.6100   36.8530 C   0  0  0  0  0  0  0  0  0  0  0  0
   20.8180  -30.6220   35.6860 O   0  0  0  0  0  0  0  0  0  0  0  0
   20.7160  -29.4480   37.7260 C   0  0  0  0  0  0  0  0  0  0  0  0
   21.4310  -28.4040   37.1710 O   0  0  0  0  0  0  0  0  0  0  0  0
   19.5920  -27.3350   40.0620 C   0  0  0  0  0  0  0  0  0  0  0  0
   19.8100  -26.2740   40.9450 C   0  0  0  0  0  0  0  0  0  0  0  0
   20.9560  -26.2210   41.7520 C   0  0  0  0  0  0  0  0  0  0  0  0
   21.1920  -25.1640   42.6510 N   0  0  0  0  0  0  0  0  0  0  0  0
   21.0310  -23.8170   42.0610 C   0  0  0  0  0  0  0  0  0  0  0  0
   21.4450  -22.7420   43.0940 C   0  0  0  0  0  0  0  0  0  0  0  0
   20.6730  -22.8410   44.3550 N   0  0  0  0  0  0  0  0  0  0  0  0
   21.1320  -21.8450   45.3200 C   0  0  0  0  0  0  0  0  0  0  0  0
   20.8190  -24.2090   44.9080 C   0  0  0  0  0  0  0  0  0  0  0  0
   20.4090  -25.3080   43.8990 C   0  0  0  0  0  0  0  0  0  0  0  0
   23.7929  -28.9167   43.7442 H   0  0  0  0  0  0  0  0  0  0  0  0
   23.0236  -29.4154   42.1995 H   0  0  0  0  0  0  0  0  0  0  0  0
   24.6964  -28.7610   42.1995 H   0  0  0  0  0  0  0  0  0  0  0  0
   22.9362  -26.8605   43.4815 H   0  0  0  0  0  0  0  0  0  0  0  0
   23.9122  -26.6896   41.9609 H   0  0  0  0  0  0  0  0  0  0  0  0
   22.4001  -29.1454   40.6886 H   0  0  0  0  0  0  0  0  0  0  0  0
   18.2783  -32.6047   40.4133 H   0  0  0  0  0  0  0  0  0  0  0  0
   17.7051  -34.6392   39.0807 H   0  0  0  0  0  0  0  0  0  0  0  0
   18.4042  -34.8031   36.6897 H   0  0  0  0  0  0  0  0  0  0  0  0
   19.9560  -33.8700   35.0510 H   0  0  0  0  0  0  0  0  0  0  0  0
   22.1620  -28.0400   37.6300 H   0  0  0  0  0  0  0  0  0  0  0  0
   18.6868  -27.3453   39.4371 H   0  0  0  0  0  0  0  0  0  0  0  0
   19.0681  -25.4643   41.0084 H   0  0  0  0  0  0  0  0  0  0  0  0
   21.6677  -23.7305   41.1682 H   0  0  0  0  0  0  0  0  0  0  0  0
   19.9782  -23.6659   41.7802 H   0  0  0  0  0  0  0  0  0  0  0  0
   22.5136  -22.8662   43.3237 H   0  0  0  0  0  0  0  0  0  0  0  0
   21.2388  -21.7561   42.6519 H   0  0  0  0  0  0  0  0  0  0  0  0
   19.6870  -22.6580   44.1620 H   0  0  0  0  0  0  0  0  0  0  0  0
   20.9605  -22.2172   46.3408 H   0  0  0  0  0  0  0  0  0  0  0  0
   22.2063  -21.6598   45.1729 H   0  0  0  0  0  0  0  0  0  0  0  0
   20.5749  -20.9080   45.1729 H   0  0  0  0  0  0  0  0  0  0  0  0
   21.8710  -24.3644   45.1894 H   0  0  0  0  0  0  0  0  0  0  0  0
   20.1493  -24.2893   45.7769 H   0  0  0  0  0  0  0  0  0  0  0  0
   20.6026  -26.2975   44.3388 H   0  0  0  0  0  0  0  0  0  0  0  0
   19.3383  -25.2065   43.6684 H   0  0  0  0  0  0  0  0  0  0  0  0
  1  2  1  0
  2  3  1  0
  3  4  2  0
  4  5  1  0
  5  6  1  0
  6  7  1  0
  7  8  1  0
  8  9  2  0
  9 10  1  0
 10 11  2  0
 11 12  1  0
 12 13  1  0
 12 14  2  0
 14 15  1  0
 15 16  2  0
 15 17  1  0
 17 18  1  0
  5 19  2  0
 19 20  1  0
 20 21  2  0
 21 22  1  0
 22 23  1  0
 23 24  1  0
 24 25  1  0
 25 26  1  0
 25 27  1  0
 27 28  1  0
 21  3  1  0
 28 22  1  0
 17  6  2  0
 14  8  1  0
  1 29  1  0
  1 30  1  0
  1 31  1  0
  2 32  1  0
  2 33  1  0
  4 34  1  0
  9 35  1  0
 10 36  1  0
 11 37  1  0
 13 38  1  0
 18 39  1  0
 19 40  1  0
 20 41  1  0
 23 42  1  0
 23 43  1  0
 24 44  1  0
 24 45  1  0
 25 46  1  0
 26 47  1  0
 26 48  1  0
 26 49  1  0
 27 50  1  0
 27 51  1  0
 28 52  1  0
 28 53  1  0
M  CHG  1  25   1
M  END
>  <meeko>  (4) 
{"is_sidechain": [false], "free_energy": -8.868, "intermolecular_energy": -10.929, "internal_energy": -0.706}

$$$$
cand_025_out
     RDKit          3D

 53 56  0  0  0  0  0  0  0  0999 V2000
   19.4460  -32.4490   39.5400 C   0  0  0  0  0  0  0  0  0  0  0  0
   19.3360  -31.6150   38.2720 C   0  0  0  0  0  0  0  0  0  0  0  0
   20.2410  -30.4030   38.3120 C   0  0  0  0  0  0  0  0  0  0  0  0
   20.6910  -29.9370   39.5630 C   0  0  0  0  0  0  0  0  0  0  0  0
   21.5230  -28.8160   39.6720 C   0  0  0  0  0  0  0  0  0  0  0  0
   21.9780  -28.3070   40.9830 C   0  0  0  0  0  0  0  0  0  0  0  0
   21.2340  -27.2200   41.4290 O   0  0  0  0  0  0  0  0  0  0  0  0
   21.5500  -26.6490   42.6340 C   0  0  0  0  0  0  0  0  0  0  0  0
   20.7680  -25.5720   43.0500 C   0  0  0  0  0  0  0  0  0  0  0  0
   21.0370  -24.9430   44.2680 C   0  0  0  0  0  0  0  0  0  0  0  0
   22.0900  -25.3920   45.0690 C   0  0  0  0  0  0  0  0  0  0  0  0
   22.8690  -26.4670   44.6520 C   0  0  0  0  0  0  0  0  0  0  0  0
   23.8830  -26.8550   45.4850 O   0  0  0  0  0  0  0  0  0  0  0  0
   22.5990  -27.0960   43.4340 C   0  0  0  0  0  0  0  0  0  0  0  0
   23.3930  -28.2300   42.9580 C   0  0  0  0  0  0  0  0  0  0  0  0
   24.3390  -28.6770   43.6040 O   0  0  0  0  0  0  0  0  0  0  0  0
   23.0190  -28.8310   41.6570 C   0  0  0  0  0  0  0  0  0  0  0  0
   23.7840  -29.8920   41.2120 O   0  0  0  0  0  0  0  0  0  0  0  0
   21.8890  -28.1470   38.4990 C   0  0  0  0  0  0  0  0  0  0  0  0
   21.4430  -28.5950   37.2520 C   0  0  0  0  0  0  0  0  0  0  0  0
   20.6120  -29.7190   37.1360 C   0  0  0  0  0  0  0  0  0  0  0  0
   20.1560  -30.1890   35.8900 N   0  0  0  0  0  0  0  0  0  0  0  0
   19.8270  -29.1200   34.9210 C   0  0  0  0  0  0  0  0  0  0  0  0
   19.2110  -29.7440   33.6460 C   0  0  0  0  0  0  0  0  0  0  0  0
   20.1060  -30.7450   33.0170 N   0  0  0  0  0  0  0  0  0  0  0  0
   19.4640  -31.3470   31.8500 C   0  0  0  0  0  0  0  0  0  0  0  0
   20.4510  -31.7840   34.0160 C   0  0  0  0  0  0  0  0  0  0  0  0
   21.0730  -31.1920   35.3030 C   0  0  0  0  0  0  0  0  0  0  0  0
   19.3595  -31.7932   40.4189 H   0  0  0  0  0  0  0  0  0  0  0  0
   18.6386  -33.1958   39.5589 H   0  0  0  0  0  0  0  0  0  0  0  0
   20.4194  -32.9609   39.5589 H   0  0  0  0  0  0  0  0  0  0  0  0
   19.6159  -32.2393   37.4106 H   0  0  0  0  0  0  0  0  0  0  0  0
   18.2978  -31.2618   38.1859 H   0  0  0  0  0  0  0  0  0  0  0  0
   20.3813  -30.4665   40.4761 H   0  0  0  0  0  0  0  0  0  0  0  0
   19.9394  -25.2178   42.4192 H   0  0  0  0  0  0  0  0  0  0  0  0
   20.4196  -24.0940   44.5965 H   0  0  0  0  0  0  0  0  0  0  0  0
   22.3029  -24.8965   46.0277 H   0  0  0  0  0  0  0  0  0  0  0  0
   23.7160  -26.9830   46.3980 H   0  0  0  0  0  0  0  0  0  0  0  0
   24.5340  -29.7370   40.6720 H   0  0  0  0  0  0  0  0  0  0  0  0
   22.5349  -27.2586   38.5586 H   0  0  0  0  0  0  0  0  0  0  0  0
   21.7498  -28.0553   36.3439 H   0  0  0  0  0  0  0  0  0  0  0  0
   19.1043  -28.4254   35.3741 H   0  0  0  0  0  0  0  0  0  0  0  0
   20.7446  -28.5755   34.6535 H   0  0  0  0  0  0  0  0  0  0  0  0
   18.2648  -30.2361   33.9153 H   0  0  0  0  0  0  0  0  0  0  0  0
   19.0516  -28.9335   32.9196 H   0  0  0  0  0  0  0  0  0  0  0  0
   20.9590  -30.2820   32.7010 H   0  0  0  0  0  0  0  0  0  0  0  0
   18.6989  -32.0644   32.1817 H   0  0  0  0  0  0  0  0  0  0  0  0
   18.9906  -30.5597   31.2450 H   0  0  0  0  0  0  0  0  0  0  0  0
   20.2193  -31.8700   31.2450 H   0  0  0  0  0  0  0  0  0  0  0  0
   19.5351  -32.3298   34.2867 H   0  0  0  0  0  0  0  0  0  0  0  0
   21.2003  -32.4476   33.5598 H   0  0  0  0  0  0  0  0  0  0  0  0
   21.2443  -31.9994   36.0302 H   0  0  0  0  0  0  0  0  0  0  0  0
   22.0285  -30.7074   35.0539 H   0  0  0  0  0  0  0  0  0  0  0  0
  1  2  1  0
  2  3  1  0
  3  4  2  0
  4  5  1  0
  5  6  1  0
  6  7  1  0
  7  8  1  0
  8  9  2  0
  9 10  1  0
 10 11  2  0
 11 12  1  0
 12 13  1  0
 12 14  2  0
 14 15  1  0
 15 16  2  0
 15 17  1  0
 17 18  1  0
  5 19  2  0
 19 20  1  0
 20 21  2  0
 21 22  1  0
 22 23  1  0
 23 24  1  0
 24 25  1  0
 25 26  1  0
 25 27  1  0
 27 28  1  0
 21  3  1  0
 28 22  1  0
 17  6  2  0
 14  8  1  0
  1 29  1  0
  1 30  1  0
  1 31  1  0
  2 32  1  0
  2 33  1  0
  4 34  1  0
  9 35  1  0
 10 36  1  0
 11 37  1  0
 13 38  1  0
 18 39  1  0
 19 40  1  0
 20 41  1  0
 23 42  1  0
 23 43  1  0
 24 44  1  0
 24 45  1  0
 25 46  1  0
 26 47  1  0
 26 48  1  0
 26 49  1  0
 27 50  1  0
 27 51  1  0
 28 52  1  0
 28 53  1  0
M  CHG  1  25   1
M  END
>  <meeko>  (5) 
{"is_sidechain": [false], "free_energy": -8.821, "intermolecular_energy": -10.966, "internal_energy": -0.611}

$$$$
cand_025_out
     RDKit          3D

 53 56  0  0  0  0  0  0  0  0999 V2000
   17.6370  -26.2170   38.0860 C   0  0  0  0  0  0  0  0  0  0  0  0
   18.2990  -26.2990   39.4530 C   0  0  0  0  0  0  0  0  0  0  0  0
   19.3180  -27.4150   39.5220 C   0  0  0  0  0  0  0  0  0  0  0  0
   19.1730  -28.5170   38.6550 C   0  0  0  0  0  0  0  0  0  0  0  0
   20.0760  -29.5880   38.6730 C   0  0  0  0  0  0  0  0  0  0  0  0
   19.9150  -30.7580   37.7850 C   0  0  0  0  0  0  0  0  0  0  0  0
   19.4630  -31.8880   38.4560 O   0  0  0  0  0  0  0  0  0  0  0  0
   19.2700  -33.0470   37.7490 C   0  0  0  0  0  0  0  0  0  0  0  0
   18.8010  -34.1520   38.4590 C   0  0  0  0  0  0  0  0  0  0  0  0
   18.5840  -35.3640   37.7990 C   0  0  0  0  0  0  0  0  0  0  0  0
   18.8370  -35.4700   36.4300 C   0  0  0  0  0  0  0  0  0  0  0  0
   19.3050  -34.3660   35.7230 C   0  0  0  0  0  0  0  0  0  0  0  0
   19.5310  -34.5390   34.3850 O   0  0  0  0  0  0  0  0  0  0  0  0
   19.5210  -33.1530   36.3840 C   0  0  0  0  0  0  0  0  0  0  0  0
   20.0120  -31.9680   35.6790 C   0  0  0  0  0  0  0  0  0  0  0  0
   20.2640  -31.9850   34.4760 O   0  0  0  0  0  0  0  0  0  0  0  0
   20.2000  -30.7300   36.4690 C   0  0  0  0  0  0  0  0  0  0  0  0
   20.6770  -29.6210   35.7960 O   0  0  0  0  0  0  0  0  0  0  0  0
   21.1280  -29.5510   39.5940 C   0  0  0  0  0  0  0  0  0  0  0  0
   21.2790  -28.4670   40.4640 C   0  0  0  0  0  0  0  0  0  0  0  0
   20.3800  -27.3900   40.4490 C   0  0  0  0  0  0  0  0  0  0  0  0
   20.5170  -26.2870   41.3140 N   0  0  0  0  0  0  0  0  0  0  0  0
   19.7610  -26.4110   42.5800 C   0  0  0  0  0  0  0  0  0  0  0  0
   19.8740  -25.0940   43.3850 C   0  0  0  0  0  0  0  0  0  0  0  0
   21.2810  -24.7210   43.6660 N   0  0  0  0  0  0  0  0  0  0  0  0
   21.3430  -23.4470   44.3780 C   0  0  0  0  0  0  0  0  0  0  0  0
   22.0260  -24.6400   42.3870 C   0  0  0  0  0  0  0  0  0  0  0  0
   21.9350  -25.9440   41.5590 C   0  0  0  0  0  0  0  0  0  0  0  0
   16.5524  -26.0827   38.2113 H   0  0  0  0  0  0  0  0  0  0  0  0
   18.0503  -25.3632   37.5291 H   0  0  0  0  0  0  0  0  0  0  0  0
   17.8295  -27.1459   37.5291 H   0  0  0  0  0  0  0  0  0  0  0  0
   18.8034  -25.3439   39.6614 H   0  0  0  0  0  0  0  0  0  0  0  0
   17.5167  -26.5061   40.1980 H   0  0  0  0  0  0  0  0  0  0  0  0
   18.3309  -28.5365   37.9476 H   0  0  0  0  0  0  0  0  0  0  0  0
   18.6021  -34.0693   39.5377 H   0  0  0  0  0  0  0  0  0  0  0  0
   18.2135  -36.2356   38.3584 H   0  0  0  0  0  0  0  0  0  0  0  0
   18.6667  -36.4247   35.9108 H   0  0  0  0  0  0  0  0  0  0  0  0
   19.0130  -35.1490   33.8980 H   0  0  0  0  0  0  0  0  0  0  0  0
   21.5020  -29.6590   35.3540 H   0  0  0  0  0  0  0  0  0  0  0  0
   21.8448  -30.3844   39.6343 H   0  0  0  0  0  0  0  0  0  0  0  0
   22.1190  -28.4584   41.1741 H   0  0  0  0  0  0  0  0  0  0  0  0
   18.7032  -26.6133   42.3561 H   0  0  0  0  0  0  0  0  0  0  0  0
   20.1771  -27.2382   43.1738 H   0  0  0  0  0  0  0  0  0  0  0  0
   19.4031  -24.2853   42.8068 H   0  0  0  0  0  0  0  0  0  0  0  0
   19.3690  -25.2471   44.3502 H   0  0  0  0  0  0  0  0  0  0  0  0
   21.7060  -25.4330   44.2600 H   0  0  0  0  0  0  0  0  0  0  0  0
   21.3340  -23.6321   45.4623 H   0  0  0  0  0  0  0  0  0  0  0  0
   22.2679  -22.9184   44.1039 H   0  0  0  0  0  0  0  0  0  0  0  0
   20.4738  -22.8311   44.1039 H   0  0  0  0  0  0  0  0  0  0  0  0
   21.6113  -23.8144   41.7899 H   0  0  0  0  0  0  0  0  0  0  0  0
   23.0859  -24.4741   42.6300 H   0  0  0  0  0  0  0  0  0  0  0  0
   22.4473  -25.8011   40.5961 H   0  0  0  0  0  0  0  0  0  0  0  0
   22.4141  -26.7617   42.1174 H   0  0  0  0  0  0  0  0  0  0  0  0
  1  2  1  0
  2  3  1  0
  3  4  2  0
  4  5  1  0
  5  6  1  0
  6  7  1  0
  7  8  1  0
  8  9  2  0
  9 10  1  0
 10 11  2  0
 11 12  1  0
 12 13  1  0
 12 14  2  0
 14 15  1  0
 15 16  2  0
 15 17  1  0
 17 18  1  0
  5 19  2  0
 19 20  1  0
 20 21  2  0
 21 22  1  0
 22 23  1  0
 23 24  1  0
 24 25  1  0
 25 26  1  0
 25 27  1  0
 27 28  1  0
 21  3  1  0
 28 22  1  0
 17  6  2  0
 14  8  1  0
  1 29  1  0
  1 30  1  0
  1 31  1  0
  2 32  1  0
  2 33  1  0
  4 34  1  0
  9 35  1  0
 10 36  1  0
 11 37  1  0
 13 38  1  0
 18 39  1  0
 19 40  1  0
 20 41  1  0
 23 42  1  0
 23 43  1  0
 24 44  1  0
 24 45  1  0
 25 46  1  0
 26 47  1  0
 26 48  1  0
 26 49  1  0
 27 50  1  0
 27 51  1  0
 28 52  1  0
 28 53  1  0
M  CHG  1  25   1
M  END
>  <meeko>  (6) 
{"is_sidechain": [false], "free_energy": -8.747, "intermolecular_energy": -10.913, "internal_energy": -0.573}

$$$$
cand_025_out
     RDKit          3D

 53 56  0  0  0  0  0  0  0  0999 V2000
   24.3190  -27.0670   43.8670 C   0  0  0  0  0  0  0  0  0  0  0  0
   23.7840  -25.7670   43.2850 C   0  0  0  0  0  0  0  0  0  0  0  0
   22.3880  -25.9310   42.7250 C   0  0  0  0  0  0  0  0  0  0  0  0
   22.1940  -26.8060   41.6370 C   0  0  0  0  0  0  0  0  0  0  0  0
   20.9300  -26.9970   41.0660 C   0  0  0  0  0  0  0  0  0  0  0  0
   20.7250  -27.8950   39.9090 C   0  0  0  0  0  0  0  0  0  0  0  0
   20.4520  -29.2050   40.2840 O   0  0  0  0  0  0  0  0  0  0  0  0
   20.2390  -30.1440   39.3080 C   0  0  0  0  0  0  0  0  0  0  0  0
   19.9530  -31.4430   39.7290 C   0  0  0  0  0  0  0  0  0  0  0  0
   19.7270  -32.4480   38.7850 C   0  0  0  0  0  0  0  0  0  0  0  0
   19.7880  -32.1530   37.4220 C   0  0  0  0  0  0  0  0  0  0  0  0
   20.0730  -30.8560   37.0040 C   0  0  0  0  0  0  0  0  0  0  0  0
   20.1180  -30.6380   35.6540 O   0  0  0  0  0  0  0  0  0  0  0  0
   20.2980  -29.8510   37.9480 C   0  0  0  0  0  0  0  0  0  0  0  0
   20.6010  -28.4750   37.5520 C   0  0  0  0  0  0  0  0  0  0  0  0
   20.6790  -28.1410   36.3720 O   0  0  0  0  0  0  0  0  0  0  0  0
   20.8160  -27.4830   38.6310 C   0  0  0  0  0  0  0  0  0  0  0  0
   21.1140  -26.1900   38.2450 O   0  0  0  0  0  0  0  0  0  0  0  0
   19.8510  -26.2780   41.5900 C   0  0  0  0  0  0  0  0  0  0  0  0
   20.0310  -25.4000   42.6640 C   0  0  0  0  0  0  0  0  0  0  0  0
   21.2950  -25.2070   43.2420 C   0  0  0  0  0  0  0  0  0  0  0  0
   21.4960  -24.3310   44.3270 N   0  0  0  0  0  0  0  0  0  0  0  0
   20.7810  -23.0420   44.2070 C   0  0  0  0  0  0  0  0  0  0  0  0
   21.1820  -22.1130   45.3780 C   0  0  0  0  0  0  0  0  0  0  0  0
   20.9140  -22.7240   46.7020 N   0  0  0  0  0  0  0  0  0  0  0  0
   21.3560  -21.8380   47.7770 C   0  0  0  0  0  0  0  0  0  0  0  0
   21.6090  -24.0310   46.7840 C   0  0  0  0  0  0  0  0  0  0  0  0
   21.2270  -24.9850   45.6270 C   0  0  0  0  0  0  0  0  0  0  0  0
   24.2970  -27.0134   44.9655 H   0  0  0  0  0  0  0  0  0  0  0  0
   23.6929  -27.9055   43.5281 H   0  0  0  0  0  0  0  0  0  0  0  0
   25.3540  -27.2219   43.5281 H   0  0  0  0  0  0  0  0  0  0  0  0
   23.7616  -25.0051   44.0781 H   0  0  0  0  0  0  0  0  0  0  0  0
   24.4477  -25.4638   42.4619 H   0  0  0  0  0  0  0  0  0  0  0  0
   23.0564  -27.3519   41.2267 H   0  0  0  0  0  0  0  0  0  0  0  0
   19.9055  -31.6757   40.8030 H   0  0  0  0  0  0  0  0  0  0  0  0
   19.5009  -33.4723   39.1161 H   0  0  0  0  0  0  0  0  0  0  0  0
   19.6111  -32.9445   36.6789 H   0  0  0  0  0  0  0  0  0  0  0  0
   20.9410  -30.6400   35.2060 H   0  0  0  0  0  0  0  0  0  0  0  0
   21.9140  -26.0070   37.7940 H   0  0  0  0  0  0  0  0  0  0  0  0
   18.8496  -26.4043   41.1527 H   0  0  0  0  0  0  0  0  0  0  0  0
   19.1655  -24.8506   43.0629 H   0  0  0  0  0  0  0  0  0  0  0  0
   21.0471  -22.5636   43.2529 H   0  0  0  0  0  0  0  0  0  0  0  0
   19.6964  -23.2223   44.2396 H   0  0  0  0  0  0  0  0  0  0  0  0
   22.2570  -21.8926   45.3018 H   0  0  0  0  0  0  0  0  0  0  0  0
   20.5764  -21.1979   45.3024 H   0  0  0  0  0  0  0  0  0  0  0  0
   19.9090  -22.8680   46.8090 H   0  0  0  0  0  0  0  0  0  0  0  0
   21.1264  -22.2983   48.7493 H   0  0  0  0  0  0  0  0  0  0  0  0
   22.4408  -21.6754   47.6954 H   0  0  0  0  0  0  0  0  0  0  0  0
   20.8335  -20.8735   47.6954 H   0  0  0  0  0  0  0  0  0  0  0  0
   22.6943  -23.8550   46.7510 H   0  0  0  0  0  0  0  0  0  0  0  0
   21.3028  -24.5113   47.7251 H   0  0  0  0  0  0  0  0  0  0  0  0
   21.8228  -25.9067   45.7021 H   0  0  0  0  0  0  0  0  0  0  0  0
   20.1565  -25.2284   45.6960 H   0  0  0  0  0  0  0  0  0  0  0  0
  1  2  1  0
  2  3  1  0
  3  4  2  0
  4  5  1  0
  5  6  1  0
  6  7  1  0
  7  8  1  0
  8  9  2  0
  9 10  1  0
 10 11  2  0
 11 12  1  0
 12 13  1  0
 12 14  2  0
 14 15  1  0
 15 16  2  0
 15 17  1  0
 17 18  1  0
  5 19  2  0
 19 20  1  0
 20 21  2  0
 21 22  1  0
 22 23  1  0
 23 24  1  0
 24 25  1  0
 25 26  1  0
 25 27  1  0
 27 28  1  0
 21  3  1  0
 28 22  1  0
 17  6  2  0
 14  8  1  0
  1 29  1  0
  1 30  1  0
  1 31  1  0
  2 32  1  0
  2 33  1  0
  4 34  1  0
  9 35  1  0
 10 36  1  0
 11 37  1  0
 13 38  1  0
 18 39  1  0
 19 40  1  0
 20 41  1  0
 23 42  1  0
 23 43  1  0
 24 44  1  0
 24 45  1  0
 25 46  1  0
 26 47  1  0
 26 48  1  0
 26 49  1  0
 27 50  1  0
 27 51  1  0
 28 52  1  0
 28 53  1  0
M  CHG  1  25   1
M  END
>  <meeko>  (7) 
{"is_sidechain": [false], "free_energy": -8.461, "intermolecular_energy": -10.438, "internal_energy": -0.696}

$$$$
cand_025_out
     RDKit          3D

 53 56  0  0  0  0  0  0  0  0999 V2000
   19.3080  -26.7530   36.1830 C   0  0  0  0  0  0  0  0  0  0  0  0
   19.3720  -28.2650   36.0290 C   0  0  0  0  0  0  0  0  0  0  0  0
   19.9250  -28.9370   37.2660 C   0  0  0  0  0  0  0  0  0  0  0  0
   20.1480  -28.1550   38.4180 C   0  0  0  0  0  0  0  0  0  0  0  0
   20.6660  -28.7120   39.5930 C   0  0  0  0  0  0  0  0  0  0  0  0
   20.9250  -27.8920   40.7960 C   0  0  0  0  0  0  0  0  0  0  0  0
   22.1440  -28.1860   41.3970 O   0  0  0  0  0  0  0  0  0  0  0  0
   22.5110  -27.4970   42.5240 C   0  0  0  0  0  0  0  0  0  0  0  0
   23.7480  -27.8130   43.0860 C   0  0  0  0  0  0  0  0  0  0  0  0
   24.1830  -27.1490   44.2360 C   0  0  0  0  0  0  0  0  0  0  0  0
   23.3780  -26.1700   44.8230 C   0  0  0  0  0  0  0  0  0  0  0  0
   22.1440  -25.8570   44.2610 C   0  0  0  0  0  0  0  0  0  0  0  0
   21.4080  -24.8890   44.8880 O   0  0  0  0  0  0  0  0  0  0  0  0
   21.7110  -26.5200   43.1110 C   0  0  0  0  0  0  0  0  0  0  0  0
   20.4200  -26.2210   42.4870 C   0  0  0  0  0  0  0  0  0  0  0  0
   19.6550  -25.3780   42.9510 O   0  0  0  0  0  0  0  0  0  0  0  0
   20.0580  -26.9760   41.2660 C   0  0  0  0  0  0  0  0  0  0  0  0
   18.8320  -26.6940   40.6940 O   0  0  0  0  0  0  0  0  0  0  0  0
   20.9800  -30.0750   39.5980 C   0  0  0  0  0  0  0  0  0  0  0  0
   20.7700  -30.8600   38.4600 C   0  0  0  0  0  0  0  0  0  0  0  0
   20.2490  -30.3090   37.2800 C   0  0  0  0  0  0  0  0  0  0  0  0
   20.0270  -31.0830   36.1250 N   0  0  0  0  0  0  0  0  0  0  0  0
   21.0800  -30.9540   35.0950 C   0  0  0  0  0  0  0  0  0  0  0  0
   20.6660  -31.7350   33.8250 C   0  0  0  0  0  0  0  0  0  0  0  0
   20.3990  -33.1660   34.1030 N   0  0  0  0  0  0  0  0  0  0  0  0
   19.9590  -33.8530   32.8910 C   0  0  0  0  0  0  0  0  0  0  0  0
   19.3690  -33.2710   35.1640 C   0  0  0  0  0  0  0  0  0  0  0  0
   19.7550  -32.5010   36.4500 C   0  0  0  0  0  0  0  0  0  0  0  0
   19.2970  -26.4934   37.2519 H   0  0  0  0  0  0  0  0  0  0  0  0
   20.1877  -26.2981   35.7042 H   0  0  0  0  0  0  0  0  0  0  0  0
   18.3930  -26.3741   35.7042 H   0  0  0  0  0  0  0  0  0  0  0  0
   18.3574  -28.6462   35.8411 H   0  0  0  0  0  0  0  0  0  0  0  0
   20.0443  -28.4931   35.1888 H   0  0  0  0  0  0  0  0  0  0  0  0
   19.9092  -27.0815   38.3927 H   0  0  0  0  0  0  0  0  0  0  0  0
   24.3810  -28.5849   42.6239 H   0  0  0  0  0  0  0  0  0  0  0  0
   25.1589  -27.3972   44.6788 H   0  0  0  0  0  0  0  0  0  0  0  0
   23.7191  -25.6470   45.7286 H   0  0  0  0  0  0  0  0  0  0  0  0
   21.5260  -23.9870   44.6580 H   0  0  0  0  0  0  0  0  0  0  0  0
   18.6920  -25.8730   40.2660 H   0  0  0  0  0  0  0  0  0  0  0  0
   21.3965  -30.5342   40.5067 H   0  0  0  0  0  0  0  0  0  0  0  0
   21.0184  -31.9311   38.4908 H   0  0  0  0  0  0  0  0  0  0  0  0
   21.2167  -29.8920   34.8428 H   0  0  0  0  0  0  0  0  0  0  0  0
   22.0228  -31.3656   35.4845 H   0  0  0  0  0  0  0  0  0  0  0  0
   19.7540  -31.2794   33.4118 H   0  0  0  0  0  0  0  0  0  0  0  0
   21.5019  -31.6824   33.1119 H   0  0  0  0  0  0  0  0  0  0  0  0
   21.2590  -33.6140   34.4220 H   0  0  0  0  0  0  0  0  0  0  0  0
   19.3846  -34.7499   33.1659 H   0  0  0  0  0  0  0  0  0  0  0  0
   19.3243  -33.1788   32.2973 H   0  0  0  0  0  0  0  0  0  0  0  0
   20.8369  -34.1476   32.2973 H   0  0  0  0  0  0  0  0  0  0  0  0
   18.4238  -32.8609   34.7787 H   0  0  0  0  0  0  0  0  0  0  0  0
   19.2730  -34.3341   35.4296 H   0  0  0  0  0  0  0  0  0  0  0  0
   18.9266  -32.5575   37.1716 H   0  0  0  0  0  0  0  0  0  0  0  0
   20.6585  -32.9527   36.8854 H   0  0  0  0  0  0  0  0  0  0  0  0
  1  2  1  0
  2  3  1  0
  3  4  2  0
  4  5  1  0
  5  6  1  0
  6  7  1  0
  7  8  1  0
  8  9  2  0
  9 10  1  0
 10 11  2  0
 11 12  1  0
 12 13  1  0
 12 14  2  0
 14 15  1  0
 15 16  2  0
 15 17  1  0
 17 18  1  0
  5 19  2  0
 19 20  1  0
 20 21  2  0
 21 22  1  0
 22 23  1  0
 23 24  1  0
 24 25  1  0
 25 26  1  0
 25 27  1  0
 27 28  1  0
 21  3  1  0
 28 22  1  0
 17  6  2  0
 14  8  1  0
  1 29  1  0
  1 30  1  0
  1 31  1  0
  2 32  1  0
  2 33  1  0
  4 34  1  0
  9 35  1  0
 10 36  1  0
 11 37  1  0
 13 38  1  0
 18 39  1  0
 19 40  1  0
 20 41  1  0
 23 42  1  0
 23 43  1  0
 24 44  1  0
 24 45  1  0
 25 46  1  0
 26 47  1  0
 26 48  1  0
 26 49  1  0
 27 50  1  0
 27 51  1  0
 28 52  1  0
 28 53  1  0
M  CHG  1  25   1
M  END
>  <meeko>  (8) 
{"is_sidechain": [false], "free_energy": -8.201, "intermolecular_energy": -10.613, "internal_energy": -0.199}

$$$$
cand_025_out
     RDKit          3D

 53 56  0  0  0  0  0  0  0  0999 V2000
   17.3300  -27.1460   38.2290 C   0  0  0  0  0  0  0  0  0  0  0  0
   17.9600  -28.3610   38.8940 C   0  0  0  0  0  0  0  0  0  0  0  0
   19.3810  -28.0910   39.3380 C   0  0  0  0  0  0  0  0  0  0  0  0
   19.5940  -27.4890   40.5950 C   0  0  0  0  0  0  0  0  0  0  0  0
   20.8820  -27.2030   41.0620 C   0  0  0  0  0  0  0  0  0  0  0  0
   21.1110  -26.5490   42.3680 C   0  0  0  0  0  0  0  0  0  0  0  0
   20.1570  -25.5820   42.6630 O   0  0  0  0  0  0  0  0  0  0  0  0
   20.2490  -24.8960   43.8470 C   0  0  0  0  0  0  0  0  0  0  0  0
   19.2630  -23.9460   44.1090 C   0  0  0  0  0  0  0  0  0  0  0  0
   19.2990  -23.2120   45.2960 C   0  0  0  0  0  0  0  0  0  0  0  0
   20.3230  -23.4280   46.2210 C   0  0  0  0  0  0  0  0  0  0  0  0
   21.3070  -24.3770   45.9570 C   0  0  0  0  0  0  0  0  0  0  0  0
   22.2800  -24.5380   46.9050 O   0  0  0  0  0  0  0  0  0  0  0  0
   21.2690  -25.1120   44.7700 C   0  0  0  0  0  0  0  0  0  0  0  0
   22.2830  -26.1190   44.4530 C   0  0  0  0  0  0  0  0  0  0  0  0
   23.2190  -26.3610   45.2140 O   0  0  0  0  0  0  0  0  0  0  0  0
   22.1490  -26.8490   43.1720 C   0  0  0  0  0  0  0  0  0  0  0  0
   23.1190  -27.7880   42.8780 O   0  0  0  0  0  0  0  0  0  0  0  0
   21.9690  -27.5140   40.2390 C   0  0  0  0  0  0  0  0  0  0  0  0
   21.7720  -28.1040   38.9870 C   0  0  0  0  0  0  0  0  0  0  0  0
   20.4830  -28.3950   38.5140 C   0  0  0  0  0  0  0  0  0  0  0  0
   20.2630  -28.9940   37.2580 N   0  0  0  0  0  0  0  0  0  0  0  0
   20.4760  -28.0890   36.1080 C   0  0  0  0  0  0  0  0  0  0  0  0
   20.0760  -28.8070   34.7980 C   0  0  0  0  0  0  0  0  0  0  0  0
   20.8220  -30.0720   34.5950 N   0  0  0  0  0  0  0  0  0  0  0  0
   20.3750  -30.7440   33.3780 C   0  0  0  0  0  0  0  0  0  0  0  0
   20.6240  -30.9470   35.7760 C   0  0  0  0  0  0  0  0  0  0  0  0
   21.0190  -30.2570   37.1040 C   0  0  0  0  0  0  0  0  0  0  0  0
   16.9696  -26.4509   39.0016 H   0  0  0  0  0  0  0  0  0  0  0  0
   18.0798  -26.6410   37.6024 H   0  0  0  0  0  0  0  0  0  0  0  0
   16.4852  -27.4678   37.6024 H   0  0  0  0  0  0  0  0  0  0  0  0
   17.3593  -28.6359   39.7735 H   0  0  0  0  0  0  0  0  0  0  0  0
   17.9836  -29.1775   38.1573 H   0  0  0  0  0  0  0  0  0  0  0  0
   18.7270  -27.2381   41.2238 H   0  0  0  0  0  0  0  0  0  0  0  0
   18.4567  -23.7747   43.3806 H   0  0  0  0  0  0  0  0  0  0  0  0
   18.5204  -22.4630   45.5029 H   0  0  0  0  0  0  0  0  0  0  0  0
   20.3520  -22.8495   47.1562 H   0  0  0  0  0  0  0  0  0  0  0  0
   22.3020  -25.3160   47.4270 H   0  0  0  0  0  0  0  0  0  0  0  0
   23.9810  -27.5120   42.6380 H   0  0  0  0  0  0  0  0  0  0  0  0
   22.9907  -27.2919   40.5807 H   0  0  0  0  0  0  0  0  0  0  0  0
   22.6437  -28.3447   38.3607 H   0  0  0  0  0  0  0  0  0  0  0  0
   19.8591  -27.1870   36.2335 H   0  0  0  0  0  0  0  0  0  0  0  0
   21.5380  -27.8066   36.0588 H   0  0  0  0  0  0  0  0  0  0  0  0
   19.0002  -29.0335   34.8339 H   0  0  0  0  0  0  0  0  0  0  0  0
   20.3197  -28.1365   33.9607 H   0  0  0  0  0  0  0  0  0  0  0  0
   21.8160  -29.8640   34.4920 H   0  0  0  0  0  0  0  0  0  0  0  0
   19.7841  -31.6324   33.6456 H   0  0  0  0  0  0  0  0  0  0  0  0
   19.7543  -30.0555   32.7858 H   0  0  0  0  0  0  0  0  0  0  0  0
   21.2499  -31.0503   32.7858 H   0  0  0  0  0  0  0  0  0  0  0  0
   19.5627  -31.2313   35.8293 H   0  0  0  0  0  0  0  0  0  0  0  0
   21.2748  -31.8251   35.6516 H   0  0  0  0  0  0  0  0  0  0  0  0
   20.7874  -30.9260   37.9459 H   0  0  0  0  0  0  0  0  0  0  0  0
   22.0964  -30.0357   37.0914 H   0  0  0  0  0  0  0  0  0  0  0  0
  1  2  1  0
  2  3  1  0
  3  4  2  0
  4  5  1  0
  5  6  1  0
  6  7  1  0
  7  8  1  0
  8  9  2  0
  9 10  1  0
 10 11  2  0
 11 12  1  0
 12 13  1  0
 12 14  2  0
 14 15  1  0
 15 16  2  0
 15 17  1  0
 17 18  1  0
  5 19  2  0
 19 20  1  0
 20 21  2  0
 21 22  1  0
 22 23  1  0
 23 24  1  0
 24 25  1  0
 25 26  1  0
 25 27  1  0
 27 28  1  0
 21  3  1  0
 28 22  1  0
 17  6  2  0
 14  8  1  0
  1 29  1  0
  1 30  1  0
  1 31  1  0
  2 32  1  0
  2 33  1  0
  4 34  1  0
  9 35  1  0
 10 36  1  0
 11 37  1  0
 13 38  1  0
 18 39  1  0
 19 40  1  0
 20 41  1  0
 23 42  1  0
 23 43  1  0
 24 44  1  0
 24 45  1  0
 25 46  1  0
 26 47  1  0
 26 48  1  0
 26 49  1  0
 27 50  1  0
 27 51  1  0
 28 52  1  0
 28 53  1  0
M  CHG  1  25   1
M  END
>  <meeko>  (9) 
{"is_sidechain": [false], "free_energy": -8.177, "intermolecular_energy": -10.468, "internal_energy": -0.315}

$$$$
