cand_013_out
     RDKit          3D

 50 53  0  0  0  0  0  0  0  0999 V2000
   20.9800  -21.7100   45.1420 C   0  0  0  0  0  0  0  0  0  0  0  0
   20.5400  -22.7130   44.1740 N   0  0  0  0  0  0  0  0  0  0  0  0
   21.4160  -22.6980   42.9780 C   0  0  0  0  0  0  0  0  0  0  0  0
   21.0260  -23.7820   41.9450 C   0  0  0  0  0  0  0  0  0  0  0  0
   21.0480  -25.1190   42.5850 N   0  0  0  0  0  0  0  0  0  0  0  0
   20.8360  -26.1710   41.6780 C   0  0  0  0  0  0  0  0  0  0  0  0
   19.7810  -26.1560   40.7540 C   0  0  0  0  0  0  0  0  0  0  0  0
   19.5880  -27.2090   39.8550 C   0  0  0  0  0  0  0  0  0  0  0  0
   20.4520  -28.3070   39.8470 C   0  0  0  0  0  0  0  0  0  0  0  0
   20.2560  -29.4470   38.9270 C   0  0  0  0  0  0  0  0  0  0  0  0
   19.5060  -30.4730   39.4890 O   0  0  0  0  0  0  0  0  0  0  0  0
   19.2510  -31.5950   38.7430 C   0  0  0  0  0  0  0  0  0  0  0  0
   18.4850  -32.5950   39.3430 C   0  0  0  0  0  0  0  0  0  0  0  0
   18.1890  -33.7640   38.6370 C   0  0  0  0  0  0  0  0  0  0  0  0
   18.6610  -33.9330   37.3340 C   0  0  0  0  0  0  0  0  0  0  0  0
   19.4250  -32.9330   36.7370 C   0  0  0  0  0  0  0  0  0  0  0  0
   19.8550  -33.1640   35.4590 O   0  0  0  0  0  0  0  0  0  0  0  0
   19.7200  -31.7640   37.4440 C   0  0  0  0  0  0  0  0  0  0  0  0
   20.5210  -30.6900   36.8540 C   0  0  0  0  0  0  0  0  0  0  0  0
   20.9770  -30.7670   35.7160 O   0  0  0  0  0  0  0  0  0  0  0  0
   20.7720  -29.4890   37.6840 C   0  0  0  0  0  0  0  0  0  0  0  0
   21.5430  -28.4870   37.1240 O   0  0  0  0  0  0  0  0  0  0  0  0
   21.5030  -28.3290   40.7750 C   0  0  0  0  0  0  0  0  0  0  0  0
   21.7080  -27.2720   41.6880 C   0  0  0  0  0  0  0  0  0  0  0  0
   22.8570  -27.3390   42.6640 C   0  0  0  0  0  0  0  0  0  0  0  0
   23.7410  -28.3430   42.3690 F   0  0  0  0  0  0  0  0  0  0  0  0
   22.4710  -27.5840   43.9500 F   0  0  0  0  0  0  0  0  0  0  0  0
   23.6170  -26.2060   42.6960 F   0  0  0  0  0  0  0  0  0  0  0  0
   20.1590  -25.1680   43.7710 C   0  0  0  0  0  0  0  0  0  0  0  0
   20.5640  -24.0650   44.7780 C   0  0  0  0  0  0  0  0  0  0  0  0
   20.8145  -22.0873   46.1619 H   0  0  0  0  0  0  0  0  0  0  0  0
   22.0508  -21.5047   44.9963 H   0  0  0  0  0  0  0  0  0  0  0  0
   20.4058  -20.7831   44.9963 H   0  0  0  0  0  0  0  0  0  0  0  0
   19.5860  -22.4840   43.8950 H   0  0  0  0  0  0  0  0  0  0  0  0
   21.3418  -21.7107   42.4986 H   0  0  0  0  0  0  0  0  0  0  0  0
   22.4425  -22.9087   43.3126 H   0  0  0  0  0  0  0  0  0  0  0  0
   20.0147  -23.5763   41.5644 H   0  0  0  0  0  0  0  0  0  0  0  0
   21.7461  -23.7662   41.1136 H   0  0  0  0  0  0  0  0  0  0  0  0
   19.0919  -25.2988   40.7363 H   0  0  0  0  0  0  0  0  0  0  0  0
   18.7473  -27.1728   39.1466 H   0  0  0  0  0  0  0  0  0  0  0  0
   18.1146  -32.4633   40.3704 H   0  0  0  0  0  0  0  0  0  0  0  0
   17.5834  -34.5520   39.1084 H   0  0  0  0  0  0  0  0  0  0  0  0
   18.4299  -34.8546   36.7796 H   0  0  0  0  0  0  0  0  0  0  0  0
   20.6480  -32.7680   35.1530 H   0  0  0  0  0  0  0  0  0  0  0  0
   21.2970  -28.1100   36.3030 H   0  0  0  0  0  0  0  0  0  0  0  0
   22.1851  -29.1918   40.7920 H   0  0  0  0  0  0  0  0  0  0  0  0
   19.1181  -25.0078   43.4536 H   0  0  0  0  0  0  0  0  0  0  0  0
   20.2530  -26.1518   44.2539 H   0  0  0  0  0  0  0  0  0  0  0  0
   19.8631  -24.0858   45.6256 H   0  0  0  0  0  0  0  0  0  0  0  0
   21.5950  -24.2692   45.1026 H   0  0  0  0  0  0  0  0  0  0  0  0
  1  2  1  0
  2  3  1  0
  3  4  1  0
  4  5  1  0
  5  6  1  0
  6  7  2  0
  7  8  1  0
  8  9  2  0
  9 10  1  0
 10 11  1  0
 11 12  1  0
 12 13  2  0
 13 14  1  0
 14 15  2  0
 15 16  1  0
 16 17  1  0
 16 18  2  0
 18 19  1  0
 19 20  2  0
 19 21  1  0
 21 22  1  0
  9 23  1  0
 23 24  2  0
 24 25  1  0
 25 26  1  0
 25 27  1  0
 25 28  1  0
  5 29  1  0
 29 30  1  0
 30  2  1  0
 24  6  1  0
 21 10  2  0
 18 12  1  0
  1 31  1  0
  1 32  1  0
  1 33  1  0
  2 34  1  0
  3 35  1  0
  3 36  1  0
  4 37  1  0
  4 38  1  0
  7 39  1  0
  8 40  1  0
 13 41  1  0
 14 42  1  0
 15 43  1  0
 17 44  1  0
 22 45  1  0
 23 46  1  0
 29 47  1  0
 29 48  1  0
 30 49  1  0
 30 50  1  0
M  CHG  1   2   1
M  END
>  <meeko>  (1) 
{"is_sidechain": [false], "free_energy": -9.537, "intermolecular_energy": -11.767, "internal_energy": -0.716}

$$$$
cand_013_out
     RDKit          3D

 50 53  0  0  0  0  0  0  0  0999 V2000
   19.8840  -22.6130   43.5350 C   0  0  0  0  0  0  0  0  0  0  0  0
   19.4920  -23.7440   42.6970 N   0  0  0  0  0  0  0  0  0  0  0  0
   20.2020  -23.6980   41.3970 C   0  0  0  0  0  0  0  0  0  0  0  0
   19.8630  -24.9080   40.4940 C   0  0  0  0  0  0  0  0  0  0  0  0
   20.1700  -26.1710   41.2070 N   0  0  0  0  0  0  0  0  0  0  0  0
   20.0170  -27.3120   40.4020 C   0  0  0  0  0  0  0  0  0  0  0  0
   18.8840  -27.5090   39.5980 C   0  0  0  0  0  0  0  0  0  0  0  0
   18.7490  -28.6480   38.7990 C   0  0  0  0  0  0  0  0  0  0  0  0
   19.7500  -29.6240   38.7740 C   0  0  0  0  0  0  0  0  0  0  0  0
   19.6220  -30.8500   37.9600 C   0  0  0  0  0  0  0  0  0  0  0  0
   20.0570  -30.6770   36.6510 O   0  0  0  0  0  0  0  0  0  0  0  0
   19.9900  -31.7380   35.7840 C   0  0  0  0  0  0  0  0  0  0  0  0
   20.4480  -31.5220   34.4830 C   0  0  0  0  0  0  0  0  0  0  0  0
   20.4080  -32.5620   33.5500 C   0  0  0  0  0  0  0  0  0  0  0  0
   19.9110  -33.8130   33.9170 C   0  0  0  0  0  0  0  0  0  0  0  0
   19.4550  -34.0250   35.2150 C   0  0  0  0  0  0  0  0  0  0  0  0
   18.9800  -35.2750   35.5080 O   0  0  0  0  0  0  0  0  0  0  0  0
   19.4950  -32.9860   36.1490 C   0  0  0  0  0  0  0  0  0  0  0  0
   19.0250  -33.1670   37.5230 C   0  0  0  0  0  0  0  0  0  0  0  0
   18.5680  -34.2350   37.9200 O   0  0  0  0  0  0  0  0  0  0  0  0
   19.1170  -32.0040   38.4360 C   0  0  0  0  0  0  0  0  0  0  0  0
   18.6560  -32.1800   39.7270 O   0  0  0  0  0  0  0  0  0  0  0  0
   20.8790  -29.4340   39.5820 C   0  0  0  0  0  0  0  0  0  0  0  0
   21.0270  -28.2880   40.3930 C   0  0  0  0  0  0  0  0  0  0  0  0
   22.2640  -28.1260   41.2430 C   0  0  0  0  0  0  0  0  0  0  0  0
   21.9980  -28.2180   42.5830 F   0  0  0  0  0  0  0  0  0  0  0  0
   22.8770  -26.9160   41.0930 F   0  0  0  0  0  0  0  0  0  0  0  0
   23.2170  -29.0750   41.0120 F   0  0  0  0  0  0  0  0  0  0  0  0
   19.4510  -26.2530   42.5010 C   0  0  0  0  0  0  0  0  0  0  0  0
   19.7990  -25.0250   43.3750 C   0  0  0  0  0  0  0  0  0  0  0  0
   19.7876  -22.8912   44.5949 H   0  0  0  0  0  0  0  0  0  0  0  0
   20.9284  -22.3423   43.3205 H   0  0  0  0  0  0  0  0  0  0  0  0
   19.2311  -21.7541   43.3205 H   0  0  0  0  0  0  0  0  0  0  0  0
   18.4870  -23.6810   42.5340 H   0  0  0  0  0  0  0  0  0  0  0  0
   19.9166  -22.7747   40.8716 H   0  0  0  0  0  0  0  0  0  0  0  0
   21.2818  -23.7277   41.6045 H   0  0  0  0  0  0  0  0  0  0  0  0
   18.7934  -24.8841   40.2384 H   0  0  0  0  0  0  0  0  0  0  0  0
   20.4659  -24.8547   39.5755 H   0  0  0  0  0  0  0  0  0  0  0  0
   18.0860  -26.7519   39.5964 H   0  0  0  0  0  0  0  0  0  0  0  0
   17.8464  -28.7778   38.1838 H   0  0  0  0  0  0  0  0  0  0  0  0
   20.8394  -30.5358   34.1929 H   0  0  0  0  0  0  0  0  0  0  0  0
   20.7690  -32.3939   32.5246 H   0  0  0  0  0  0  0  0  0  0  0  0
   19.8796  -34.6305   33.1817 H   0  0  0  0  0  0  0  0  0  0  0  0
   18.6140  -35.8070   34.8280 H   0  0  0  0  0  0  0  0  0  0  0  0
   18.1990  -31.4860   40.1600 H   0  0  0  0  0  0  0  0  0  0  0  0
   21.6706  -30.1978   39.5844 H   0  0  0  0  0  0  0  0  0  0  0  0
   18.3670  -26.2732   42.3154 H   0  0  0  0  0  0  0  0  0  0  0  0
   19.7552  -27.1700   43.0270 H   0  0  0  0  0  0  0  0  0  0  0  0
   19.2182  -25.0792   44.3076 H   0  0  0  0  0  0  0  0  0  0  0  0
   20.8809  -25.0493   43.5720 H   0  0  0  0  0  0  0  0  0  0  0  0
  1  2  1  0
  2  3  1  0
  3  4  1  0
  4  5  1  0
  5  6  1  0
  6  7  2  0
  7  8  1  0
  8  9  2  0
  9 10  1  0
 10 11  1  0
 11 12  1  0
 12 13  2  0
 13 14  1  0
 14 15  2  0
 15 16  1  0
 16 17  1  0
 16 18  2  0
 18 19  1  0
 19 20  2  0
 19 21  1  0
 21 22  1  0
  9 23  1  0
 23 24  2  0
 24 25  1  0
 25 26  1  0
 25 27  1  0
 25 28  1  0
  5 29  1  0
 29 30  1  0
 30  2  1  0
 24  6  1  0
 21 10  2  0
 18 12  1  0
  1 31  1  0
  1 32  1  0
  1 33  1  0
  2 34  1  0
  3 35  1  0
  3 36  1  0
  4 37  1  0
  4 38  1  0
  7 39  1  0
  8 40  1  0
 13 41  1  0
 14 42  1  0
 15 43  1  0
 17 44  1  0
 22 45  1  0
 23 46  1  0
 29 47  1  0
 29 48  1  0
 30 49  1  0
 30 50  1  0
M  CHG  1   2   1
M  END
>  <meeko>  (2) 
{"is_sidechain": [false], "free_energy": -9.332, "intermolecular_energy": -11.579, "internal_energy": -0.65}

$$$$
cand_013_out
     RDKit          3D

 50 53  0  0  0  0  0  0  0  0999 V2000
   21.2960  -23.4930   44.0790 C   0  0  0  0  0  0  0  0  0  0  0  0
   21.2410  -24.7990   43.4260 N   0  0  0  0  0  0  0  0  0  0  0  0
   19.8360  -25.1920   43.1670 C   0  0  0  0  0  0  0  0  0  0  0  0
   19.7260  -26.5450   42.4250 C   0  0  0  0  0  0  0  0  0  0  0  0
   20.4880  -26.4860   41.1550 N   0  0  0  0  0  0  0  0  0  0  0  0
   20.3260  -27.6310   40.3580 C   0  0  0  0  0  0  0  0  0  0  0  0
   21.0610  -28.8050   40.5830 C   0  0  0  0  0  0  0  0  0  0  0  0
   20.8840  -29.9370   39.7830 C   0  0  0  0  0  0  0  0  0  0  0  0
   19.9570  -29.9340   38.7360 C   0  0  0  0  0  0  0  0  0  0  0  0
   19.7680  -31.1070   37.8580 C   0  0  0  0  0  0  0  0  0  0  0  0
   20.1820  -30.8760   36.5510 O   0  0  0  0  0  0  0  0  0  0  0  0
   20.0580  -31.8830   35.6280 C   0  0  0  0  0  0  0  0  0  0  0  0
   20.4970  -31.6100   34.3320 C   0  0  0  0  0  0  0  0  0  0  0  0
   20.3990  -32.5930   33.3430 C   0  0  0  0  0  0  0  0  0  0  0  0
   19.8630  -33.8450   33.6510 C   0  0  0  0  0  0  0  0  0  0  0  0
   19.4270  -34.1140   34.9450 C   0  0  0  0  0  0  0  0  0  0  0  0
   18.9120  -35.3600   35.1780 O   0  0  0  0  0  0  0  0  0  0  0  0
   19.5250  -33.1310   35.9340 C   0  0  0  0  0  0  0  0  0  0  0  0
   19.0770  -33.3720   37.3070 C   0  0  0  0  0  0  0  0  0  0  0  0
   18.5880  -34.4440   37.6540 O   0  0  0  0  0  0  0  0  0  0  0  0
   19.2300  -32.2670   38.2810 C   0  0  0  0  0  0  0  0  0  0  0  0
   18.7900  -32.4990   39.5700 O   0  0  0  0  0  0  0  0  0  0  0  0
   19.2270  -28.7600   38.5040 C   0  0  0  0  0  0  0  0  0  0  0  0
   19.3970  -27.6100   39.3040 C   0  0  0  0  0  0  0  0  0  0  0  0
   18.5830  -26.3710   39.0180 C   0  0  0  0  0  0  0  0  0  0  0  0
   17.7880  -26.5080   37.9110 F   0  0  0  0  0  0  0  0  0  0  0  0
   19.3400  -25.2640   38.7660 F   0  0  0  0  0  0  0  0  0  0  0  0
   17.7250  -26.0340   40.0230 F   0  0  0  0  0  0  0  0  0  0  0  0
   21.9060  -26.1190   41.3880 C   0  0  0  0  0  0  0  0  0  0  0  0
   21.9820  -24.7710   42.1430 C   0  0  0  0  0  0  0  0  0  0  0  0
   21.2903  -23.6283   45.1706 H   0  0  0  0  0  0  0  0  0  0  0  0
   22.2169  -22.9715   43.7790 H   0  0  0  0  0  0  0  0  0  0  0  0
   20.4222  -22.8960   43.7790 H   0  0  0  0  0  0  0  0  0  0  0  0
   21.6720  -25.4810   44.0500 H   0  0  0  0  0  0  0  0  0  0  0  0
   19.3095  -25.2737   44.1294 H   0  0  0  0  0  0  0  0  0  0  0  0
   19.3865  -24.4209   42.5240 H   0  0  0  0  0  0  0  0  0  0  0  0
   20.1364  -27.3439   43.0601 H   0  0  0  0  0  0  0  0  0  0  0  0
   18.6686  -26.7526   42.2041 H   0  0  0  0  0  0  0  0  0  0  0  0
   21.7909  -28.8348   41.4054 H   0  0  0  0  0  0  0  0  0  0  0  0
   21.4804  -30.8403   39.9790 H   0  0  0  0  0  0  0  0  0  0  0  0
   20.9192  -30.6237   34.0892 H   0  0  0  0  0  0  0  0  0  0  0  0
   20.7446  -32.3799   32.3207 H   0  0  0  0  0  0  0  0  0  0  0  0
   19.7855  -34.6177   32.8719 H   0  0  0  0  0  0  0  0  0  0  0  0
   19.3060  -35.9170   35.8210 H   0  0  0  0  0  0  0  0  0  0  0  0
   19.1840  -32.0450   40.2890 H   0  0  0  0  0  0  0  0  0  0  0  0
   18.5026  -28.7345   37.6766 H   0  0  0  0  0  0  0  0  0  0  0  0
   22.3917  -26.9019   41.9890 H   0  0  0  0  0  0  0  0  0  0  0  0
   22.4195  -26.0222   40.4200 H   0  0  0  0  0  0  0  0  0  0  0  0
   23.0376  -24.5411   42.3498 H   0  0  0  0  0  0  0  0  0  0  0  0
   21.5194  -24.0032   41.5054 H   0  0  0  0  0  0  0  0  0  0  0  0
  1  2  1  0
  2  3  1  0
  3  4  1  0
  4  5  1  0
  5  6  1  0
  6  7  2  0
  7  8  1  0
  8  9  2  0
  9 10  1  0
 10 11  1  0
 11 12  1  0
 12 13  2  0
 13 14  1  0
 14 15  2  0
 15 16  1  0
 16 17  1  0
 16 18  2  0
 18 19  1  0
 19 20  2  0
 19 21  1  0
 21 22  1  0
  9 23  1  0
 23 24  2  0
 24 25  1  0
 25 26  1  0
 25 27  1  0
 25 28  1  0
  5 29  1  0
 29 30  1  0
 30  2  1  0
 24  6  1  0
 21 10  2  0
 18 12  1  0
  1 31  1  0
  1 32  1  0
  1 33  1  0
  2 34  1  0
  3 35  1  0
  3 36  1  0
  4 37  1  0
  4 38  1  0
  7 39  1  0
  8 40  1  0
 13 41  1  0
 14 42  1  0
 15 43  1  0
 17 44  1  0
 22 45  1  0
 23 46  1  0
 29 47  1  0
 29 48  1  0
 30 49  1  0
 30 50  1  0
M  CHG  1   2   1
M  END
>  <meeko>  (3) 
{"is_sidechain": [false], "free_energy": -9.05, "intermolecular_energy": -11.278, "internal_energy": -0.605}

$$$$
cand_013_out
     RDKit          3D

 50 53  0  0  0  0  0  0  0  0999 V2000
   21.2720  -23.4220   44.3060 C   0  0  0  0  0  0  0  0  0  0  0  0
   21.2270  -24.7040   43.6070 N   0  0  0  0  0  0  0  0  0  0  0  0
   19.8310  -25.0550   43.2530 C   0  0  0  0  0  0  0  0  0  0  0  0
   19.7350  -26.3800   42.4600 C   0  0  0  0  0  0  0  0  0  0  0  0
   20.5720  -26.2970   41.2390 N   0  0  0  0  0  0  0  0  0  0  0  0
   20.4320  -27.4120   40.3960 C   0  0  0  0  0  0  0  0  0  0  0  0
   21.1390  -28.6040   40.6130 C   0  0  0  0  0  0  0  0  0  0  0  0
   20.9840  -29.7050   39.7670 C   0  0  0  0  0  0  0  0  0  0  0  0
   20.1080  -29.6510   38.6790 C   0  0  0  0  0  0  0  0  0  0  0  0
   19.9440  -30.7910   37.7520 C   0  0  0  0  0  0  0  0  0  0  0  0
   19.4780  -31.9380   38.3850 O   0  0  0  0  0  0  0  0  0  0  0  0
   19.2840  -33.0740   37.6400 C   0  0  0  0  0  0  0  0  0  0  0  0
   18.8050  -34.1980   38.3130 C   0  0  0  0  0  0  0  0  0  0  0  0
   18.5860  -35.3870   37.6130 C   0  0  0  0  0  0  0  0  0  0  0  0
   18.8460  -35.4520   36.2440 C   0  0  0  0  0  0  0  0  0  0  0  0
   19.3230  -34.3280   35.5750 C   0  0  0  0  0  0  0  0  0  0  0  0
   19.5580  -34.4610   34.2330 O   0  0  0  0  0  0  0  0  0  0  0  0
   19.5430  -33.1380   36.2750 C   0  0  0  0  0  0  0  0  0  0  0  0
   20.0450  -31.9350   35.6100 C   0  0  0  0  0  0  0  0  0  0  0  0
   20.3040  -31.9140   34.4090 O   0  0  0  0  0  0  0  0  0  0  0  0
   20.2370  -30.7240   36.4400 C   0  0  0  0  0  0  0  0  0  0  0  0
   20.7270  -29.5980   35.8060 O   0  0  0  0  0  0  0  0  0  0  0  0
   19.4050  -28.4590   38.4540 C   0  0  0  0  0  0  0  0  0  0  0  0
   19.5530  -27.3400   39.3020 C   0  0  0  0  0  0  0  0  0  0  0  0
   18.7710  -26.0800   39.0220 C   0  0  0  0  0  0  0  0  0  0  0  0
   18.1040  -26.1290   37.8270 F   0  0  0  0  0  0  0  0  0  0  0  0
   19.5460  -24.9600   38.9410 F   0  0  0  0  0  0  0  0  0  0  0  0
   17.8040  -25.8170   39.9480 F   0  0  0  0  0  0  0  0  0  0  0  0
   21.9810  -25.9720   41.5670 C   0  0  0  0  0  0  0  0  0  0  0  0
   22.0420  -24.6520   42.3710 C   0  0  0  0  0  0  0  0  0  0  0  0
   21.2659  -23.5962   45.3921 H   0  0  0  0  0  0  0  0  0  0  0  0
   22.1896  -22.8838   44.0261 H   0  0  0  0  0  0  0  0  0  0  0  0
   20.3944  -22.8208   44.0261 H   0  0  0  0  0  0  0  0  0  0  0  0
   21.6050  -25.4160   44.2310 H   0  0  0  0  0  0  0  0  0  0  0  0
   19.2469  -25.1556   44.1797 H   0  0  0  0  0  0  0  0  0  0  0  0
   19.4376  -24.2528   42.6114 H   0  0  0  0  0  0  0  0  0  0  0  0
   20.0896  -27.2090   43.0900 H   0  0  0  0  0  0  0  0  0  0  0  0
   18.6881  -26.5551   42.1712 H   0  0  0  0  0  0  0  0  0  0  0  0
   21.8294  -28.6733   41.4665 H   0  0  0  0  0  0  0  0  0  0  0  0
   21.5573  -30.6239   39.9591 H   0  0  0  0  0  0  0  0  0  0  0  0
   18.6001  -34.1483   39.3926 H   0  0  0  0  0  0  0  0  0  0  0  0
   18.2077  -36.2739   38.1425 H   0  0  0  0  0  0  0  0  0  0  0  0
   18.6745  -36.3892   35.6943 H   0  0  0  0  0  0  0  0  0  0  0  0
   20.0700  -33.8180   33.7810 H   0  0  0  0  0  0  0  0  0  0  0  0
   21.0160  -28.8630   36.3120 H   0  0  0  0  0  0  0  0  0  0  0  0
   18.7209  -28.3940   37.5951 H   0  0  0  0  0  0  0  0  0  0  0  0
   22.4128  -26.7858   42.1681 H   0  0  0  0  0  0  0  0  0  0  0  0
   22.5529  -25.8555   40.6346 H   0  0  0  0  0  0  0  0  0  0  0  0
   23.0885  -24.4543   42.6462 H   0  0  0  0  0  0  0  0  0  0  0  0
   21.6342  -23.8530   41.7344 H   0  0  0  0  0  0  0  0  0  0  0  0
  1  2  1  0
  2  3  1  0
  3  4  1  0
  4  5  1  0
  5  6  1  0
  6  7  2  0
  7  8  1  0
  8  9  2  0
  9 10  1  0
 10 11  1  0
 11 12  1  0
 12 13  2  0
 13 14  1  0
 14 15  2  0
 15 16  1  0
 16 17  1  0
 16 18  2  0
 18 19  1  0
 19 20  2  0
 19 21  1  0
 21 22  1  0
  9 23  1  0
 23 24  2  0
 24 25  1  0
 25 26  1  0
 25 27  1  0
 25 28  1  0
  5 29  1  0
 29 30  1  0
 30  2  1  0
 24  6  1  0
 21 10  2  0
 18 12  1  0
  1 31  1  0
  1 32  1  0
  1 33  1  0
  2 34  1  0
  3 35  1  0
  3 36  1  0
  4 37  1  0
  4 38  1  0
  7 39  1  0
  8 40  1  0
 13 41  1  0
 14 42  1  0
 15 43  1  0
 17 44  1  0
 22 45  1  0
 23 46  1  0
 29 47  1  0
 29 48  1  0
 30 49  1  0
 30 50  1  0
M  CHG  1   2   1
M  END
>  <meeko>  (4) 
{"is_sidechain": [false], "free_energy": -8.965, "intermolecular_energy": -11.273, "internal_energy": -0.504}

$$$$
cand_013_out
     RDKit          3D

 50 53  0  0  0  0  0  0  0  0999 V2000
   21.4020  -22.3190   48.2870 C   0  0  0  0  0  0  0  0  0  0  0  0
   20.9490  -23.0850   47.1290 N   0  0  0  0  0  0  0  0  0  0  0  0
   21.4850  -22.5010   45.8770 C   0  0  0  0  0  0  0  0  0  0  0  0
   21.0790  -23.3120   44.6230 C   0  0  0  0  0  0  0  0  0  0  0  0
   21.5210  -24.7190   44.7690 N   0  0  0  0  0  0  0  0  0  0  0  0
   21.3090  -25.4880   43.6120 C   0  0  0  0  0  0  0  0  0  0  0  0
   20.1020  -25.4420   42.8990 C   0  0  0  0  0  0  0  0  0  0  0  0
   19.9090  -26.2100   41.7470 C   0  0  0  0  0  0  0  0  0  0  0  0
   20.9230  -27.0450   41.2680 C   0  0  0  0  0  0  0  0  0  0  0  0
   20.7380  -27.8880   40.0690 C   0  0  0  0  0  0  0  0  0  0  0  0
   20.4480  -29.2120   40.3790 O   0  0  0  0  0  0  0  0  0  0  0  0
   20.2560  -30.1070   39.3580 C   0  0  0  0  0  0  0  0  0  0  0  0
   19.9570  -31.4220   39.7150 C   0  0  0  0  0  0  0  0  0  0  0  0
   19.7490  -32.3830   38.7220 C   0  0  0  0  0  0  0  0  0  0  0  0
   19.8410  -32.0290   37.3750 C   0  0  0  0  0  0  0  0  0  0  0  0
   20.1390  -30.7160   37.0220 C   0  0  0  0  0  0  0  0  0  0  0  0
   20.2150  -30.4380   35.6840 O   0  0  0  0  0  0  0  0  0  0  0  0
   20.3470  -29.7550   38.0150 C   0  0  0  0  0  0  0  0  0  0  0  0
   20.6640  -28.3640   37.6860 C   0  0  0  0  0  0  0  0  0  0  0  0
   20.7690  -27.9770   36.5250 O   0  0  0  0  0  0  0  0  0  0  0  0
   20.8590  -27.4220   38.8120 C   0  0  0  0  0  0  0  0  0  0  0  0
   21.1740  -26.1150   38.4910 O   0  0  0  0  0  0  0  0  0  0  0  0
   22.1270  -27.1000   41.9830 C   0  0  0  0  0  0  0  0  0  0  0  0
   22.3340  -26.3290   43.1480 C   0  0  0  0  0  0  0  0  0  0  0  0
   23.6510  -26.4180   43.8810 C   0  0  0  0  0  0  0  0  0  0  0  0
   24.4920  -27.3550   43.3410 F   0  0  0  0  0  0  0  0  0  0  0  0
   23.5250  -26.7800   45.1910 F   0  0  0  0  0  0  0  0  0  0  0  0
   24.3680  -25.2580   43.8660 F   0  0  0  0  0  0  0  0  0  0  0  0
   20.9780  -25.3360   46.0020 C   0  0  0  0  0  0  0  0  0  0  0  0
   21.3880  -24.4960   47.2350 C   0  0  0  0  0  0  0  0  0  0  0  0
   21.0971  -22.8345   49.2097 H   0  0  0  0  0  0  0  0  0  0  0  0
   22.4981  -22.2300   48.2618 H   0  0  0  0  0  0  0  0  0  0  0  0
   20.9520  -21.3156   48.2618 H   0  0  0  0  0  0  0  0  0  0  0  0
   19.9290  -23.0500   47.1080 H   0  0  0  0  0  0  0  0  0  0  0  0
   21.1008  -21.4755   45.7734 H   0  0  0  0  0  0  0  0  0  0  0  0
   22.5828  -22.5169   45.9442 H   0  0  0  0  0  0  0  0  0  0  0  0
   19.9854  -23.2830   44.5079 H   0  0  0  0  0  0  0  0  0  0  0  0
   21.5574  -22.8717   43.7357 H   0  0  0  0  0  0  0  0  0  0  0  0
   19.2911  -24.7886   43.2534 H   0  0  0  0  0  0  0  0  0  0  0  0
   18.9494  -26.1568   41.2118 H   0  0  0  0  0  0  0  0  0  0  0  0
   19.8851  -31.7020   40.7763 H   0  0  0  0  0  0  0  0  0  0  0  0
   19.5124  -33.4200   39.0023 H   0  0  0  0  0  0  0  0  0  0  0  0
   19.6783  -32.7862   36.5939 H   0  0  0  0  0  0  0  0  0  0  0  0
   19.4330  -30.4000   35.1680 H   0  0  0  0  0  0  0  0  0  0  0  0
   21.8000  -25.6440   39.0050 H   0  0  0  0  0  0  0  0  0  0  0  0
   22.9315  -27.7607   41.6277 H   0  0  0  0  0  0  0  0  0  0  0  0
   19.8807  -25.3768   45.9368 H   0  0  0  0  0  0  0  0  0  0  0  0
   21.3821  -26.3538   46.1062 H   0  0  0  0  0  0  0  0  0  0  0  0
   20.9333  -24.9409   48.1324 H   0  0  0  0  0  0  0  0  0  0  0  0
   22.4864  -24.5017   47.2943 H   0  0  0  0  0  0  0  0  0  0  0  0
  1  2  1  0
  2  3  1  0
  3  4  1  0
  4  5  1  0
  5  6  1  0
  6  7  2  0
  7  8  1  0
  8  9  2  0
  9 10  1  0
 10 11  1  0
 11 12  1  0
 12 13  2  0
 13 14  1  0
 14 15  2  0
 15 16  1  0
 16 17  1  0
 16 18  2  0
 18 19  1  0
 19 20  2  0
 19 21  1  0
 21 22  1  0
  9 23  1  0
 23 24  2  0
 24 25  1  0
 25 26  1  0
 25 27  1  0
 25 28  1  0
  5 29  1  0
 29 30  1  0
 30  2  1  0
 24  6  1  0
 21 10  2  0
 18 12  1  0
  1 31  1  0
  1 32  1  0
  1 33  1  0
  2 34  1  0
  3 35  1  0
  3 36  1  0
  4 37  1  0
  4 38  1  0
  7 39  1  0
  8 40  1  0
 13 41  1  0
 14 42  1  0
 15 43  1  0
 17 44  1  0
 22 45  1  0
 23 46  1  0
 29 47  1  0
 29 48  1  0
 30 49  1  0
 30 50  1  0
M  CHG  1   2   1
M  END
>  <meeko>  (5) 
{"is_sidechain": [false], "free_energy": -8.691, "intermolecular_energy": -10.855, "internal_energy": -0.584}

$$$$
cand_013_out
     RDKit          3D

 50 53  0  0  0  0  0  0  0  0999 V2000
   20.6930  -22.3790   44.7620 C   0  0  0  0  0  0  0  0  0  0  0  0
   20.3530  -23.2770   43.6600 N   0  0  0  0  0  0  0  0  0  0  0  0
   21.5220  -23.4760   42.7720 C   0  0  0  0  0  0  0  0  0  0  0  0
   21.2290  -24.4660   41.6190 C   0  0  0  0  0  0  0  0  0  0  0  0
   20.7740  -25.7630   42.1730 N   0  0  0  0  0  0  0  0  0  0  0  0
   20.6170  -26.7580   41.1940 C   0  0  0  0  0  0  0  0  0  0  0  0
   19.5670  -26.7280   40.2640 C   0  0  0  0  0  0  0  0  0  0  0  0
   19.4290  -27.7240   39.2930 C   0  0  0  0  0  0  0  0  0  0  0  0
   20.3430  -28.7790   39.2170 C   0  0  0  0  0  0  0  0  0  0  0  0
   20.2060  -29.8590   38.2180 C   0  0  0  0  0  0  0  0  0  0  0  0
   20.4650  -29.4320   36.9200 O   0  0  0  0  0  0  0  0  0  0  0  0
   20.3700  -30.3350   35.8930 C   0  0  0  0  0  0  0  0  0  0  0  0
   20.6500  -29.8650   34.6090 C   0  0  0  0  0  0  0  0  0  0  0  0
   20.5720  -30.7340   33.5170 C   0  0  0  0  0  0  0  0  0  0  0  0
   20.2140  -32.0690   33.7100 C   0  0  0  0  0  0  0  0  0  0  0  0
   19.9360  -32.5350   34.9920 C   0  0  0  0  0  0  0  0  0  0  0  0
   19.5900  -33.8540   35.1090 O   0  0  0  0  0  0  0  0  0  0  0  0
   20.0140  -31.6660   36.0840 C   0  0  0  0  0  0  0  0  0  0  0  0
   19.7280  -32.1150   37.4470 C   0  0  0  0  0  0  0  0  0  0  0  0
   19.4000  -33.2720   37.6970 O   0  0  0  0  0  0  0  0  0  0  0  0
   19.8460  -31.1170   38.5350 C   0  0  0  0  0  0  0  0  0  0  0  0
   19.5580  -31.5470   39.8170 O   0  0  0  0  0  0  0  0  0  0  0  0
   21.3880  -28.8160   40.1500 C   0  0  0  0  0  0  0  0  0  0  0  0
   21.5390  -27.8170   41.1350 C   0  0  0  0  0  0  0  0  0  0  0  0
   22.6840  -27.8970   42.1150 C   0  0  0  0  0  0  0  0  0  0  0  0
   22.2620  -28.0590   43.4070 F   0  0  0  0  0  0  0  0  0  0  0  0
   23.4620  -26.7760   42.1420 F   0  0  0  0  0  0  0  0  0  0  0  0
   23.5260  -28.9480   41.8900 F   0  0  0  0  0  0  0  0  0  0  0  0
   19.5880  -25.5950   43.0470 C   0  0  0  0  0  0  0  0  0  0  0  0
   19.9070  -24.5920   44.1790 C   0  0  0  0  0  0  0  0  0  0  0  0
   20.5014  -22.8850   45.7197 H   0  0  0  0  0  0  0  0  0  0  0  0
   21.7567  -22.1061   44.6978 H   0  0  0  0  0  0  0  0  0  0  0  0
   20.0768  -21.4701   44.6978 H   0  0  0  0  0  0  0  0  0  0  0  0
   19.5940  -22.8490   43.1290 H   0  0  0  0  0  0  0  0  0  0  0  0
   21.8059  -22.5052   42.3397 H   0  0  0  0  0  0  0  0  0  0  0  0
   22.3344  -23.9015   43.3794 H   0  0  0  0  0  0  0  0  0  0  0  0
   20.4431  -24.0499   40.9715 H   0  0  0  0  0  0  0  0  0  0  0  0
   22.1472  -24.6235   41.0340 H   0  0  0  0  0  0  0  0  0  0  0  0
   18.8383  -25.9048   40.2996 H   0  0  0  0  0  0  0  0  0  0  0  0
   18.5920  -27.6771   38.5808 H   0  0  0  0  0  0  0  0  0  0  0  0
   20.9315  -28.8126   34.4567 H   0  0  0  0  0  0  0  0  0  0  0  0
   20.7930  -30.3653   32.5045 H   0  0  0  0  0  0  0  0  0  0  0  0
   20.1516  -32.7522   32.8502 H   0  0  0  0  0  0  0  0  0  0  0  0
   19.1790  -34.1620   35.8930 H   0  0  0  0  0  0  0  0  0  0  0  0
   19.1190  -30.9750   40.4160 H   0  0  0  0  0  0  0  0  0  0  0  0
   22.1094  -29.6456   40.1135 H   0  0  0  0  0  0  0  0  0  0  0  0
   18.7457  -25.2155   42.4500 H   0  0  0  0  0  0  0  0  0  0  0  0
   19.3226  -26.5670   43.4883 H   0  0  0  0  0  0  0  0  0  0  0  0
   19.0012  -24.4437   44.7852 H   0  0  0  0  0  0  0  0  0  0  0  0
   20.7285  -25.0123   44.7778 H   0  0  0  0  0  0  0  0  0  0  0  0
  1  2  1  0
  2  3  1  0
  3  4  1  0
  4  5  1  0
  5  6  1  0
  6  7  2  0
  7  8  1  0
  8  9  2  0
  9 10  1  0
 10 11  1  0
 11 12  1  0
 12 13  2  0
 13 14  1  0
 14 15  2  0
 15 16  1  0
 16 17  1  0
 16 18  2  0
 18 19  1  0
 19 20  2  0
 19 21  1  0
 21 22  1  0
  9 23  1  0
 23 24  2  0
 24 25  1  0
 25 26  1  0
 25 27  1  0
 25 28  1  0
  5 29  1  0
 29 30  1  0
 30  2  1  0
 24  6  1  0
 21 10  2  0
 18 12  1  0
  1 31  1  0
  1 32  1  0
  1 33  1  0
  2 34  1  0
  3 35  1  0
  3 36  1  0
  4 37  1  0
  4 38  1  0
  7 39  1  0
  8 40  1  0
 13 41  1  0
 14 42  1  0
 15 43  1  0
 17 44  1  0
 22 45  1  0
 23 46  1  0
 29 47  1  0
 29 48  1  0
 30 49  1  0
 30 50  1  0
M  CHG  1   2   1
M  END
>  <meeko>  (6) 
{"is_sidechain": [false], "free_energy": -8.546, "intermolecular_energy": -10.64, "internal_energy": -0.62}

$$$$
cand_013_out
     RDKit          3D

 50 53  0  0  0  0  0  0  0  0999 V2000
   16.1600  -20.5460   36.9340 C   0  0  0  0  0  0  0  0  0  0  0  0
   17.1250  -21.1190   37.8690 N   0  0  0  0  0  0  0  0  0  0  0  0
   16.4640  -22.0960   38.7650 C   0  0  0  0  0  0  0  0  0  0  0  0
   17.4570  -22.7740   39.7390 C   0  0  0  0  0  0  0  0  0  0  0  0
   18.5450  -23.4280   38.9740 N   0  0  0  0  0  0  0  0  0  0  0  0
   19.4140  -24.1800   39.7820 C   0  0  0  0  0  0  0  0  0  0  0  0
   20.0090  -23.6460   40.9350 C   0  0  0  0  0  0  0  0  0  0  0  0
   20.8670  -24.4110   41.7300 C   0  0  0  0  0  0  0  0  0  0  0  0
   21.1520  -25.7390   41.4000 C   0  0  0  0  0  0  0  0  0  0  0  0
   22.0770  -26.5620   42.2070 C   0  0  0  0  0  0  0  0  0  0  0  0
   22.4650  -27.7300   41.5590 O   0  0  0  0  0  0  0  0  0  0  0  0
   23.3210  -28.5890   42.1990 C   0  0  0  0  0  0  0  0  0  0  0  0
   23.6940  -29.7430   41.5070 C   0  0  0  0  0  0  0  0  0  0  0  0
   24.5640  -30.6610   42.1020 C   0  0  0  0  0  0  0  0  0  0  0  0
   25.0590  -30.4250   43.3860 C   0  0  0  0  0  0  0  0  0  0  0  0
   24.6860  -29.2730   44.0730 C   0  0  0  0  0  0  0  0  0  0  0  0
   25.2070  -29.1060   45.3270 O   0  0  0  0  0  0  0  0  0  0  0  0
   23.8160  -28.3560   43.4780 C   0  0  0  0  0  0  0  0  0  0  0  0
   23.3980  -27.1330   44.1670 C   0  0  0  0  0  0  0  0  0  0  0  0
   23.7850  -26.8590   45.3000 O   0  0  0  0  0  0  0  0  0  0  0  0
   22.4780  -26.2220   43.4460 C   0  0  0  0  0  0  0  0  0  0  0  0
   22.0770  -25.0790   44.1110 O   0  0  0  0  0  0  0  0  0  0  0  0
   20.5660  -26.2730   40.2440 C   0  0  0  0  0  0  0  0  0  0  0  0
   19.6980  -25.5110   39.4330 C   0  0  0  0  0  0  0  0  0  0  0  0
   19.0870  -26.1320   38.2000 C   0  0  0  0  0  0  0  0  0  0  0  0
   19.3430  -27.4740   38.1050 F   0  0  0  0  0  0  0  0  0  0  0  0
   19.5560  -25.6070   37.0310 F   0  0  0  0  0  0  0  0  0  0  0  0
   17.7270  -26.0340   38.1520 F   0  0  0  0  0  0  0  0  0  0  0  0
   19.2410  -22.4650   38.0870 C   0  0  0  0  0  0  0  0  0  0  0  0
   18.2220  -21.7950   37.1370 C   0  0  0  0  0  0  0  0  0  0  0  0
   15.3470  -20.0632   37.4961 H   0  0  0  0  0  0  0  0  0  0  0  0
   16.6617  -19.7994   36.3009 H   0  0  0  0  0  0  0  0  0  0  0  0
   15.7446  -21.3439   36.3009 H   0  0  0  0  0  0  0  0  0  0  0  0
   17.5120  -20.3570   38.4270 H   0  0  0  0  0  0  0  0  0  0  0  0
   15.6958  -21.5720   39.3527 H   0  0  0  0  0  0  0  0  0  0  0  0
   16.0245  -22.8831   38.1346 H   0  0  0  0  0  0  0  0  0  0  0  0
   17.8871  -22.0148   40.4088 H   0  0  0  0  0  0  0  0  0  0  0  0
   16.9236  -23.5321   40.3312 H   0  0  0  0  0  0  0  0  0  0  0  0
   19.7960  -22.6048   41.2188 H   0  0  0  0  0  0  0  0  0  0  0  0
   21.3230  -23.9631   42.6252 H   0  0  0  0  0  0  0  0  0  0  0  0
   23.3039  -29.9293   40.4955 H   0  0  0  0  0  0  0  0  0  0  0  0
   24.8590  -31.5704   41.5580 H   0  0  0  0  0  0  0  0  0  0  0  0
   25.7428  -31.1483   43.8542 H   0  0  0  0  0  0  0  0  0  0  0  0
   25.9980  -29.5480   45.5680 H   0  0  0  0  0  0  0  0  0  0  0  0
   22.6740  -24.3640   44.2170 H   0  0  0  0  0  0  0  0  0  0  0  0
   20.7884  -27.3126   39.9617 H   0  0  0  0  0  0  0  0  0  0  0  0
   19.7311  -21.6936   38.6991 H   0  0  0  0  0  0  0  0  0  0  0  0
   19.9947  -23.0005   37.4910 H   0  0  0  0  0  0  0  0  0  0  0  0
   18.7488  -21.0494   36.5233 H   0  0  0  0  0  0  0  0  0  0  0  0
   17.7735  -22.5847   36.5163 H   0  0  0  0  0  0  0  0  0  0  0  0
  1  2  1  0
  2  3  1  0
  3  4  1  0
  4  5  1  0
  5  6  1  0
  6  7  2  0
  7  8  1  0
  8  9  2  0
  9 10  1  0
 10 11  1  0
 11 12  1  0
 12 13  2  0
 13 14  1  0
 14 15  2  0
 15 16  1  0
 16 17  1  0
 16 18  2  0
 18 19  1  0
 19 20  2  0
 19 21  1  0
 21 22  1  0
  9 23  1  0
 23 24  2  0
 24 25  1  0
 25 26  1  0
 25 27  1  0
 25 28  1  0
  5 29  1  0
 29 30  1  0
 30  2  1  0
 24  6  1  0
 21 10  2  0
 18 12  1  0
  1 31  1  0
  1 32  1  0
  1 33  1  0
  2 34  1  0
  3 35  1  0
  3 36  1  0
  4 37  1  0
  4 38  1  0
  7 39  1  0
  8 40  1  0
 13 41  1  0
 14 42  1  0
 15 43  1  0
 17 44  1  0
 22 45  1  0
 23 46  1  0
 29 47  1  0
 29 48  1  0
 30 49  1  0
 30 50  1  0
M  CHG  1   2   1
M  END
>  <meeko>  (7) 
{"is_sidechain": [false], "free_energy": -8.191, "intermolecular_energy": -10.683, "internal_energy": -0.139}

$$$$
cand_013_out
     RDKit          3D

 50 53  0  0  0  0  0  0  0  0999 V2000
   18.6990  -17.4700   46.1640 C   0  0  0  0  0  0  0  0  0  0  0  0
   19.2330  -18.5840   45.3840 N   0  0  0  0  0  0  0  0  0  0  0  0
   20.5260  -19.0400   45.9480 C   0  0  0  0  0  0  0  0  0  0  0  0
   21.1060  -20.2570   45.1900 C   0  0  0  0  0  0  0  0  0  0  0  0
   20.1230  -21.3660   45.1890 N   0  0  0  0  0  0  0  0  0  0  0  0
   20.6290  -22.5550   44.6370 C   0  0  0  0  0  0  0  0  0  0  0  0
   21.1710  -22.6030   43.3440 C   0  0  0  0  0  0  0  0  0  0  0  0
   21.6750  -23.7930   42.8110 C   0  0  0  0  0  0  0  0  0  0  0  0
   21.6590  -24.9730   43.5610 C   0  0  0  0  0  0  0  0  0  0  0  0
   22.1600  -26.2510   43.0140 C   0  0  0  0  0  0  0  0  0  0  0  0
   23.1500  -26.8250   43.8040 O   0  0  0  0  0  0  0  0  0  0  0  0
   23.7070  -28.0150   43.4090 C   0  0  0  0  0  0  0  0  0  0  0  0
   24.6880  -28.5600   44.2380 C   0  0  0  0  0  0  0  0  0  0  0  0
   25.2960  -29.7710   43.8940 C   0  0  0  0  0  0  0  0  0  0  0  0
   24.9230  -30.4330   42.7230 C   0  0  0  0  0  0  0  0  0  0  0  0
   23.9430  -29.8870   41.8990 C   0  0  0  0  0  0  0  0  0  0  0  0
   23.6260  -30.5870   40.7670 O   0  0  0  0  0  0  0  0  0  0  0  0
   23.3350  -28.6760   42.2430 C   0  0  0  0  0  0  0  0  0  0  0  0
   22.3020  -28.0670   41.4030 C   0  0  0  0  0  0  0  0  0  0  0  0
   21.9250  -28.5850   40.3550 O   0  0  0  0  0  0  0  0  0  0  0  0
   21.7160  -26.7860   41.8610 C   0  0  0  0  0  0  0  0  0  0  0  0
   20.7540  -26.2100   41.0530 O   0  0  0  0  0  0  0  0  0  0  0  0
   21.1110  -24.9300   44.8500 C   0  0  0  0  0  0  0  0  0  0  0  0
   20.5990  -23.7350   45.3990 C   0  0  0  0  0  0  0  0  0  0  0  0
   20.0230  -23.7380   46.7940 C   0  0  0  0  0  0  0  0  0  0  0  0
   20.2150  -24.9300   47.4400 F   0  0  0  0  0  0  0  0  0  0  0  0
   18.6740  -23.5360   46.8310 F   0  0  0  0  0  0  0  0  0  0  0  0
   20.5780  -22.8030   47.6190 F   0  0  0  0  0  0  0  0  0  0  0  0
   18.8270  -20.9430   44.6060 C   0  0  0  0  0  0  0  0  0  0  0  0
   18.2790  -19.7180   45.3750 C   0  0  0  0  0  0  0  0  0  0  0  0
   18.8043  -17.6897   47.2367 H   0  0  0  0  0  0  0  0  0  0  0  0
   19.2552  -16.5525   45.9213 H   0  0  0  0  0  0  0  0  0  0  0  0
   17.6354  -17.3290   45.9213 H   0  0  0  0  0  0  0  0  0  0  0  0
   19.3780  -18.2580   44.4280 H   0  0  0  0  0  0  0  0  0  0  0  0
   21.2477  -18.2118   45.8905 H   0  0  0  0  0  0  0  0  0  0  0  0
   20.3468  -19.3485   46.9885 H   0  0  0  0  0  0  0  0  0  0  0  0
   21.3303  -19.9675   44.1527 H   0  0  0  0  0  0  0  0  0  0  0  0
   22.0271  -20.5900   45.6907 H   0  0  0  0  0  0  0  0  0  0  0  0
   21.2000  -21.6859   42.7374 H   0  0  0  0  0  0  0  0  0  0  0  0
   22.0882  -23.8012   41.7916 H   0  0  0  0  0  0  0  0  0  0  0  0
   24.9824  -28.0379   45.1604 H   0  0  0  0  0  0  0  0  0  0  0  0
   26.0691  -30.2026   44.5467 H   0  0  0  0  0  0  0  0  0  0  0  0
   25.4029  -31.3849   42.4518 H   0  0  0  0  0  0  0  0  0  0  0  0
   24.0560  -31.4000   40.5830 H   0  0  0  0  0  0  0  0  0  0  0  0
   20.6800  -26.4680   40.1560 H   0  0  0  0  0  0  0  0  0  0  0  0
   21.0791  -25.8517   45.4495 H   0  0  0  0  0  0  0  0  0  0  0  0
   18.9726  -20.6750   43.5491 H   0  0  0  0  0  0  0  0  0  0  0  0
   18.1072  -21.7712   44.6837 H   0  0  0  0  0  0  0  0  0  0  0  0
   17.3444  -19.3897   44.8967 H   0  0  0  0  0  0  0  0  0  0  0  0
   18.1118  -20.0241   46.4182 H   0  0  0  0  0  0  0  0  0  0  0  0
  1  2  1  0
  2  3  1  0
  3  4  1  0
  4  5  1  0
  5  6  1  0
  6  7  2  0
  7  8  1  0
  8  9  2  0
  9 10  1  0
 10 11  1  0
 11 12  1  0
 12 13  2  0
 13 14  1  0
 14 15  2  0
 15 16  1  0
 16 17  1  0
 16 18  2  0
 18 19  1  0
 19 20  2  0
 19 21  1  0
 21 22  1  0
  9 23  1  0
 23 24  2  0
 24 25  1  0
 25 26  1  0
 25 27  1  0
 25 28  1  0
  5 29  1  0
 29 30  1  0
 30  2  1  0
 24  6  1  0
 21 10  2  0
 18 12  1  0
  1 31  1  0
  1 32  1  0
  1 33  1  0
  2 34  1  0
  3 35  1  0
  3 36  1  0
  4 37  1  0
  4 38  1  0
  7 39  1  0
  8 40  1  0
 13 41  1  0
 14 42  1  0
 15 43  1  0
 17 44  1  0
 22 45  1  0
 23 46  1  0
 29 47  1  0
 29 48  1  0
 30 49  1  0
 30 50  1  0
M  CHG  1   2   1
M  END
>  <meeko>  (8) 
{"is_sidechain": [false], "free_energy": -8.154, "intermolecular_energy": -10.216, "internal_energy": -0.561}

$$$$
cand_013_out
     RDKit          3D

 50 53  0  0  0  0  0  0  0  0999 V2000
   18.5090  -17.5070   46.3700 C   0  0  0  0  0  0  0  0  0  0  0  0
   19.1200  -18.6000   45.6170 N   0  0  0  0  0  0  0  0  0  0  0  0
   20.3580  -19.0640   46.2860 C   0  0  0  0  0  0  0  0  0  0  0  0
   21.0130  -20.2600   45.5560 C   0  0  0  0  0  0  0  0  0  0  0  0
   20.0410  -21.3730   45.4410 N   0  0  0  0  0  0  0  0  0  0  0  0
   20.6030  -22.5460   44.9100 C   0  0  0  0  0  0  0  0  0  0  0  0
   21.1630  -22.5880   43.6250 C   0  0  0  0  0  0  0  0  0  0  0  0
   21.7220  -23.7620   43.1140 C   0  0  0  0  0  0  0  0  0  0  0  0
   21.7460  -24.9320   43.8770 C   0  0  0  0  0  0  0  0  0  0  0  0
   22.3060  -26.1950   43.3530 C   0  0  0  0  0  0  0  0  0  0  0  0
   21.7220  -26.5890   42.1540 O   0  0  0  0  0  0  0  0  0  0  0  0
   22.1470  -27.7480   41.5580 C   0  0  0  0  0  0  0  0  0  0  0  0
   21.5420  -28.0980   40.3500 C   0  0  0  0  0  0  0  0  0  0  0  0
   21.9290  -29.2680   39.6910 C   0  0  0  0  0  0  0  0  0  0  0  0
   22.9190  -30.0850   40.2390 C   0  0  0  0  0  0  0  0  0  0  0  0
   23.5220  -29.7330   41.4430 C   0  0  0  0  0  0  0  0  0  0  0  0
   24.4840  -30.5790   41.9240 O   0  0  0  0  0  0  0  0  0  0  0  0
   23.1350  -28.5630   42.1030 C   0  0  0  0  0  0  0  0  0  0  0  0
   23.7420  -28.1580   43.3710 C   0  0  0  0  0  0  0  0  0  0  0  0
   24.6140  -28.8270   43.9200 O   0  0  0  0  0  0  0  0  0  0  0  0
   23.2650  -26.8970   43.9860 C   0  0  0  0  0  0  0  0  0  0  0  0
   23.8330  -26.5310   45.1920 O   0  0  0  0  0  0  0  0  0  0  0  0
   21.1790  -24.8970   45.1590 C   0  0  0  0  0  0  0  0  0  0  0  0
   20.6110  -23.7170   45.6870 C   0  0  0  0  0  0  0  0  0  0  0  0
   20.0180  -23.7270   47.0740 C   0  0  0  0  0  0  0  0  0  0  0  0
   20.1700  -24.9340   47.7030 F   0  0  0  0  0  0  0  0  0  0  0  0
   18.6740  -23.4910   47.0980 F   0  0  0  0  0  0  0  0  0  0  0  0
   20.5870  -22.8210   47.9210 F   0  0  0  0  0  0  0  0  0  0  0  0
   18.8010  -20.9420   44.7520 C   0  0  0  0  0  0  0  0  0  0  0  0
   18.1780  -19.7380   45.4960 C   0  0  0  0  0  0  0  0  0  0  0  0
   18.6165  -17.6992   47.4477 H   0  0  0  0  0  0  0  0  0  0  0  0
   19.0092  -16.5612   46.1146 H   0  0  0  0  0  0  0  0  0  0  0  0
   17.4413  -17.4377   46.1146 H   0  0  0  0  0  0  0  0  0  0  0  0
   19.3490  -18.2510   44.6870 H   0  0  0  0  0  0  0  0  0  0  0  0
   21.0767  -18.2317   46.3147 H   0  0  0  0  0  0  0  0  0  0  0  0
   20.0859  -19.3984   47.2980 H   0  0  0  0  0  0  0  0  0  0  0  0
   21.3283  -19.9454   44.5502 H   0  0  0  0  0  0  0  0  0  0  0  0
   21.8877  -20.6002   46.1298 H   0  0  0  0  0  0  0  0  0  0  0  0
   21.1621  -21.6781   43.0068 H   0  0  0  0  0  0  0  0  0  0  0  0
   22.1479  -23.7651   42.0998 H   0  0  0  0  0  0  0  0  0  0  0  0
   20.7620  -27.4542   39.9174 H   0  0  0  0  0  0  0  0  0  0  0  0
   21.4527  -29.5454   38.7391 H   0  0  0  0  0  0  0  0  0  0  0  0
   23.2224  -31.0061   39.7199 H   0  0  0  0  0  0  0  0  0  0  0  0
   25.3700  -30.4970   41.6290 H   0  0  0  0  0  0  0  0  0  0  0  0
   24.6910  -26.1530   45.2100 H   0  0  0  0  0  0  0  0  0  0  0  0
   21.1766  -25.8123   45.7691 H   0  0  0  0  0  0  0  0  0  0  0  0
   19.0405  -20.6486   43.7193 H   0  0  0  0  0  0  0  0  0  0  0  0
   18.0823  -21.7748   44.7443 H   0  0  0  0  0  0  0  0  0  0  0  0
   17.2882  -19.4028   44.9429 H   0  0  0  0  0  0  0  0  0  0  0  0
   17.9194  -20.0691   46.5126 H   0  0  0  0  0  0  0  0  0  0  0  0
  1  2  1  0
  2  3  1  0
  3  4  1  0
  4  5  1  0
  5  6  1  0
  6  7  2  0
  7  8  1  0
  8  9  2  0
  9 10  1  0
 10 11  1  0
 11 12  1  0
 12 13  2  0
 13 14  1  0
 14 15  2  0
 15 16  1  0
 16 17  1  0
 16 18  2  0
 18 19  1  0
 19 20  2  0
 19 21  1  0
 21 22  1  0
  9 23  1  0
 23 24  2  0
 24 25  1  0
 25 26  1  0
 25 27  1  0
 25 28  1  0
  5 29  1  0
 29 30  1  0
 30  2  1  0
 24  6  1  0
 21 10  2  0
 18 12  1  0
  1 31  1  0
  1 32  1  0
  1 33  1  0
  2 34  1  0
  3 35  1  0
  3 36  1  0
  4 37  1  0
  4 38  1  0
  7 39  1  0
  8 40  1  0
 13 41  1  0
 14 42  1  0
 15 43  1  0
 17 44  1  0
 22 45  1  0
 23 46  1  0
 29 47  1  0
 29 48  1  0
 30 49  1  0
 30 50  1  0
M  CHG  1   2   1
M  END
>  <meeko>  (9) 
{"is_sidechain": [false], "free_energy": -8.064, "intermolecular_energy": -10.116, "internal_energy": -0.55}

$$$$
