cand_042_out
     RDKit          3D

 38 40  0  0  0  0  0  0  0  0999 V2000
   23.1720  -26.8800   44.8470 C   0  0  0  0  0  0  0  0  0  0  0  0
   24.0980  -27.0690   43.6540 C   0  0  0  0  0  0  0  0  0  0  0  0
   23.4450  -27.8710   42.5510 C   0  0  0  0  0  0  0  0  0  0  0  0
   22.3880  -27.2860   41.8360 C   0  0  0  0  0  0  0  0  0  0  0  0
   21.7380  -27.9800   40.8130 C   0  0  0  0  0  0  0  0  0  0  0  0
   22.1290  -29.2770   40.4720 C   0  0  0  0  0  0  0  0  0  0  0  0
   21.4440  -30.0450   39.4100 C   0  0  0  0  0  0  0  0  0  0  0  0
   20.6450  -31.0660   39.9110 O   0  0  0  0  0  0  0  0  0  0  0  0
   19.9510  -31.8570   39.0330 C   0  0  0  0  0  0  0  0  0  0  0  0
   19.1500  -32.8600   39.5800 C   0  0  0  0  0  0  0  0  0  0  0  0
   18.4170  -33.7020   38.7410 C   0  0  0  0  0  0  0  0  0  0  0  0
   18.4860  -33.5430   37.3550 C   0  0  0  0  0  0  0  0  0  0  0  0
   19.2860  -32.5400   36.8120 C   0  0  0  0  0  0  0  0  0  0  0  0
   19.3080  -32.4400   35.4470 O   0  0  0  0  0  0  0  0  0  0  0  0
   20.0180  -31.6970   37.6520 C   0  0  0  0  0  0  0  0  0  0  0  0
   20.8710  -30.6320   37.1220 C   0  0  0  0  0  0  0  0  0  0  0  0
   20.9890  -30.4330   35.9140 O   0  0  0  0  0  0  0  0  0  0  0  0
   21.5990  -29.7890   38.0980 C   0  0  0  0  0  0  0  0  0  0  0  0
   22.4110  -28.7940   37.5840 O   0  0  0  0  0  0  0  0  0  0  0  0
   23.1760  -29.8690   41.1970 C   0  0  0  0  0  0  0  0  0  0  0  0
   23.8360  -29.1870   42.2360 C   0  0  0  0  0  0  0  0  0  0  0  0
   24.9610  -29.8770   42.9570 C   0  0  0  0  0  0  0  0  0  0  0  0
   23.7454  -26.9970   45.7784 H   0  0  0  0  0  0  0  0  0  0  0  0
   22.7303  -25.8732   44.8124 H   0  0  0  0  0  0  0  0  0  0  0  0
   22.3711  -27.6332   44.8124 H   0  0  0  0  0  0  0  0  0  0  0  0
   24.3738  -26.0803   43.2585 H   0  0  0  0  0  0  0  0  0  0  0  0
   24.9848  -27.6223   43.9968 H   0  0  0  0  0  0  0  0  0  0  0  0
   22.0664  -26.2641   42.0856 H   0  0  0  0  0  0  0  0  0  0  0  0
   20.9099  -27.5005   40.2704 H   0  0  0  0  0  0  0  0  0  0  0  0
   19.0959  -32.9874   40.6713 H   0  0  0  0  0  0  0  0  0  0  0  0
   17.7843  -34.4917   39.1723 H   0  0  0  0  0  0  0  0  0  0  0  0
   17.9104  -34.2078   36.6942 H   0  0  0  0  0  0  0  0  0  0  0  0
   19.0740  -33.1780   34.9200 H   0  0  0  0  0  0  0  0  0  0  0  0
   22.1230  -28.2840   36.8540 H   0  0  0  0  0  0  0  0  0  0  0  0
   23.4886  -30.8933   40.9459 H   0  0  0  0  0  0  0  0  0  0  0  0
   24.8114  -29.7853   44.0429 H   0  0  0  0  0  0  0  0  0  0  0  0
   24.9776  -30.9408   42.6777 H   0  0  0  0  0  0  0  0  0  0  0  0
   25.9168  -29.4096   42.6777 H   0  0  0  0  0  0  0  0  0  0  0  0
  1  2  1  0
  2  3  1  0
  3  4  2  0
  4  5  1  0
  5  6  2  0
  6  7  1  0
  7  8  1  0
  8  9  1  0
  9 10  2  0
 10 11  1  0
 11 12  2  0
 12 13  1  0
 13 14  1  0
 13 15  2  0
 15 16  1  0
 16 17  2  0
 16 18  1  0
 18 19  1  0
  6 20  1  0
 20 21  2  0
 21 22  1  0
 21  3  1  0
 18  7  2  0
 15  9  1  0
  1 23  1  0
  1 24  1  0
  1 25  1  0
  2 26  1  0
  2 27  1  0
  4 28  1  0
  5 29  1  0
 10 30  1  0
 11 31  1  0
 12 32  1  0
 14 33  1  0
 19 34  1  0
 20 35  1  0
 22 36  1  0
 22 37  1  0
 22 38  1  0
M  END
>  <meeko>  (1) 
{"is_sidechain": [false], "free_energy": -9.386, "intermolecular_energy": -11.032, "internal_energy": -0.441}

$$$$
cand_042_out
     RDKit          3D

 38 40  0  0  0  0  0  0  0  0999 V2000
   23.4650  -27.3280   43.1150 C   0  0  0  0  0  0  0  0  0  0  0  0
   22.3400  -26.7740   42.2540 C   0  0  0  0  0  0  0  0  0  0  0  0
   21.8050  -27.8060   41.2870 C   0  0  0  0  0  0  0  0  0  0  0  0
   22.6680  -28.8260   40.8550 C   0  0  0  0  0  0  0  0  0  0  0  0
   22.2350  -29.8020   39.9540 C   0  0  0  0  0  0  0  0  0  0  0  0
   20.9260  -29.7910   39.4650 C   0  0  0  0  0  0  0  0  0  0  0  0
   20.4490  -30.7970   38.4920 C   0  0  0  0  0  0  0  0  0  0  0  0
   20.0140  -31.9700   39.0980 O   0  0  0  0  0  0  0  0  0  0  0  0
   19.5450  -32.9890   38.3100 C   0  0  0  0  0  0  0  0  0  0  0  0
   19.1060  -34.1430   38.9610 C   0  0  0  0  0  0  0  0  0  0  0  0
   18.6160  -35.2190   38.2170 C   0  0  0  0  0  0  0  0  0  0  0  0
   18.5660  -35.1420   36.8240 C   0  0  0  0  0  0  0  0  0  0  0  0
   19.0040  -33.9890   36.1770 C   0  0  0  0  0  0  0  0  0  0  0  0
   18.9290  -33.9810   34.8110 O   0  0  0  0  0  0  0  0  0  0  0  0
   19.4930  -32.9120   36.9220 C   0  0  0  0  0  0  0  0  0  0  0  0
   19.9640  -31.6840   36.2820 C   0  0  0  0  0  0  0  0  0  0  0  0
   19.9580  -31.5430   35.0600 O   0  0  0  0  0  0  0  0  0  0  0  0
   20.4560  -30.5990   37.1610 C   0  0  0  0  0  0  0  0  0  0  0  0
   20.9100  -29.4470   36.5440 O   0  0  0  0  0  0  0  0  0  0  0  0
   20.0680  -28.7620   39.8850 C   0  0  0  0  0  0  0  0  0  0  0  0
   20.4900  -27.7660   40.7850 C   0  0  0  0  0  0  0  0  0  0  0  0
   19.5100  -26.7060   41.2050 C   0  0  0  0  0  0  0  0  0  0  0  0
   23.2095  -27.2022   44.1775 H   0  0  0  0  0  0  0  0  0  0  0  0
   23.6027  -28.3970   42.8951 H   0  0  0  0  0  0  0  0  0  0  0  0
   24.3963  -26.7855   42.8951 H   0  0  0  0  0  0  0  0  0  0  0  0
   21.5209  -26.4436   42.9097 H   0  0  0  0  0  0  0  0  0  0  0  0
   22.7431  -25.9356   41.6670 H   0  0  0  0  0  0  0  0  0  0  0  0
   23.7010  -28.8571   41.2318 H   0  0  0  0  0  0  0  0  0  0  0  0
   22.9319  -30.5874   39.6261 H   0  0  0  0  0  0  0  0  0  0  0  0
   19.1458  -34.2051   40.0585 H   0  0  0  0  0  0  0  0  0  0  0  0
   18.2690  -36.1283   38.7295 H   0  0  0  0  0  0  0  0  0  0  0  0
   18.1815  -35.9902   36.2386 H   0  0  0  0  0  0  0  0  0  0  0  0
   19.2690  -33.2550   34.3270 H   0  0  0  0  0  0  0  0  0  0  0  0
   21.6640  -29.0030   36.8760 H   0  0  0  0  0  0  0  0  0  0  0  0
   19.0380  -28.7337   39.5000 H   0  0  0  0  0  0  0  0  0  0  0  0
   19.4677  -26.6602   42.3032 H   0  0  0  0  0  0  0  0  0  0  0  0
   19.8321  -25.7314   40.8095 H   0  0  0  0  0  0  0  0  0  0  0  0
   18.5132  -26.9508   40.8095 H   0  0  0  0  0  0  0  0  0  0  0  0
  1  2  1  0
  2  3  1  0
  3  4  2  0
  4  5  1  0
  5  6  2  0
  6  7  1  0
  7  8  1  0
  8  9  1  0
  9 10  2  0
 10 11  1  0
 11 12  2  0
 12 13  1  0
 13 14  1  0
 13 15  2  0
 15 16  1  0
 16 17  2  0
 16 18  1  0
 18 19  1  0
  6 20  1  0
 20 21  2  0
 21 22  1  0
 21  3  1  0
 18  7  2  0
 15  9  1  0
  1 23  1  0
  1 24  1  0
  1 25  1  0
  2 26  1  0
  2 27  1  0
  4 28  1  0
  5 29  1  0
 10 30  1  0
 11 31  1  0
 12 32  1  0
 14 33  1  0
 19 34  1  0
 20 35  1  0
 22 36  1  0
 22 37  1  0
 22 38  1  0
M  END
>  <meeko>  (2) 
{"is_sidechain": [false], "free_energy": -9.182, "intermolecular_energy": -10.78, "internal_energy": -0.453}

$$$$
cand_042_out
     RDKit          3D

 38 40  0  0  0  0  0  0  0  0999 V2000
   20.1160  -31.9980   35.0150 C   0  0  0  0  0  0  0  0  0  0  0  0
   19.6910  -32.3670   36.4280 C   0  0  0  0  0  0  0  0  0  0  0  0
   20.1530  -31.3460   37.4430 C   0  0  0  0  0  0  0  0  0  0  0  0
   20.8230  -30.2010   36.9820 C   0  0  0  0  0  0  0  0  0  0  0  0
   21.2830  -29.2280   37.8710 C   0  0  0  0  0  0  0  0  0  0  0  0
   21.0830  -29.3680   39.2470 C   0  0  0  0  0  0  0  0  0  0  0  0
   21.5800  -28.3650   40.2130 C   0  0  0  0  0  0  0  0  0  0  0  0
   22.4550  -28.9040   41.1490 O   0  0  0  0  0  0  0  0  0  0  0  0
   22.9920  -28.0820   42.1060 C   0  0  0  0  0  0  0  0  0  0  0  0
   23.8770  -28.6620   43.0160 C   0  0  0  0  0  0  0  0  0  0  0  0
   24.4590  -27.8810   44.0170 C   0  0  0  0  0  0  0  0  0  0  0  0
   24.1560  -26.5200   44.1090 C   0  0  0  0  0  0  0  0  0  0  0  0
   23.2730  -25.9450   43.1990 C   0  0  0  0  0  0  0  0  0  0  0  0
   23.0190  -24.6080   43.3460 O   0  0  0  0  0  0  0  0  0  0  0  0
   22.6910  -26.7260   42.1960 C   0  0  0  0  0  0  0  0  0  0  0  0
   21.7590  -26.1610   41.2210 C   0  0  0  0  0  0  0  0  0  0  0  0
   21.4370  -24.9740   41.2410 O   0  0  0  0  0  0  0  0  0  0  0  0
   21.2040  -27.0730   40.1950 C   0  0  0  0  0  0  0  0  0  0  0  0
   20.3140  -26.5290   39.2860 O   0  0  0  0  0  0  0  0  0  0  0  0
   20.4270  -30.5200   39.7110 C   0  0  0  0  0  0  0  0  0  0  0  0
   19.9650  -31.5140   38.8290 C   0  0  0  0  0  0  0  0  0  0  0  0
   19.2550  -32.7130   39.3960 C   0  0  0  0  0  0  0  0  0  0  0  0
   20.9460  -31.2774   35.0581 H   0  0  0  0  0  0  0  0  0  0  0  0
   20.4435  -32.9031   34.4825 H   0  0  0  0  0  0  0  0  0  0  0  0
   19.2659  -31.5467   34.4825 H   0  0  0  0  0  0  0  0  0  0  0  0
   18.5935  -32.4315   36.4634 H   0  0  0  0  0  0  0  0  0  0  0  0
   20.1545  -33.3319   36.6813 H   0  0  0  0  0  0  0  0  0  0  0  0
   20.9880  -30.0687   35.9025 H   0  0  0  0  0  0  0  0  0  0  0  0
   21.8082  -28.3421   37.4845 H   0  0  0  0  0  0  0  0  0  0  0  0
   24.1160  -29.7334   42.9449 H   0  0  0  0  0  0  0  0  0  0  0  0
   25.1569  -28.3379   44.7340 H   0  0  0  0  0  0  0  0  0  0  0  0
   24.6136  -25.9049   44.8978 H   0  0  0  0  0  0  0  0  0  0  0  0
   23.6570  -24.0520   43.7490 H   0  0  0  0  0  0  0  0  0  0  0  0
   19.8570  -25.7390   39.4930 H   0  0  0  0  0  0  0  0  0  0  0  0
   20.2704  -30.6484   40.7922 H   0  0  0  0  0  0  0  0  0  0  0  0
   19.2811  -32.6689   40.4948 H   0  0  0  0  0  0  0  0  0  0  0  0
   18.2096  -32.7158   39.0539 H   0  0  0  0  0  0  0  0  0  0  0  0
   19.7552  -33.6310   39.0539 H   0  0  0  0  0  0  0  0  0  0  0  0
  1  2  1  0
  2  3  1  0
  3  4  2  0
  4  5  1  0
  5  6  2  0
  6  7  1  0
  7  8  1  0
  8  9  1  0
  9 10  2  0
 10 11  1  0
 11 12  2  0
 12 13  1  0
 13 14  1  0
 13 15  2  0
 15 16  1  0
 16 17  2  0
 16 18  1  0
 18 19  1  0
  6 20  1  0
 20 21  2  0
 21 22  1  0
 21  3  1  0
 18  7  2  0
 15  9  1  0
  1 23  1  0
  1 24  1  0
  1 25  1  0
  2 26  1  0
  2 27  1  0
  4 28  1  0
  5 29  1  0
 10 30  1  0
 11 31  1  0
 12 32  1  0
 14 33  1  0
 19 34  1  0
 20 35  1  0
 22 36  1  0
 22 37  1  0
 22 38  1  0
M  END
>  <meeko>  (3) 
{"is_sidechain": [false], "free_energy": -8.608, "intermolecular_energy": -10.247, "internal_energy": -0.311}

$$$$
cand_042_out
     RDKit          3D

 38 40  0  0  0  0  0  0  0  0999 V2000
   20.8060  -31.1350   34.4480 C   0  0  0  0  0  0  0  0  0  0  0  0
   19.8760  -31.3480   35.6320 C   0  0  0  0  0  0  0  0  0  0  0  0
   20.4560  -30.7930   36.9150 C   0  0  0  0  0  0  0  0  0  0  0  0
   21.3490  -29.7130   36.8320 C   0  0  0  0  0  0  0  0  0  0  0  0
   21.9250  -29.1650   37.9790 C   0  0  0  0  0  0  0  0  0  0  0  0
   21.6210  -29.6750   39.2440 C   0  0  0  0  0  0  0  0  0  0  0  0
   22.2340  -29.1300   40.4740 C   0  0  0  0  0  0  0  0  0  0  0  0
   23.1960  -29.9730   41.0180 O   0  0  0  0  0  0  0  0  0  0  0  0
   23.8440  -29.5880   42.1620 C   0  0  0  0  0  0  0  0  0  0  0  0
   24.8120  -30.4580   42.6660 C   0  0  0  0  0  0  0  0  0  0  0  0
   25.5100  -30.1270   43.8300 C   0  0  0  0  0  0  0  0  0  0  0  0
   25.2400  -28.9260   44.4900 C   0  0  0  0  0  0  0  0  0  0  0  0
   24.2740  -28.0600   43.9850 C   0  0  0  0  0  0  0  0  0  0  0  0
   24.0580  -26.9020   44.6820 O   0  0  0  0  0  0  0  0  0  0  0  0
   23.5760  -28.3910   42.8200 C   0  0  0  0  0  0  0  0  0  0  0  0
   22.5540  -27.5090   42.2570 C   0  0  0  0  0  0  0  0  0  0  0  0
   22.2550  -26.4390   42.7840 O   0  0  0  0  0  0  0  0  0  0  0  0
   21.8790  -27.9500   41.0140 C   0  0  0  0  0  0  0  0  0  0  0  0
   20.9060  -27.1130   40.4980 O   0  0  0  0  0  0  0  0  0  0  0  0
   20.7400  -30.7650   39.3260 C   0  0  0  0  0  0  0  0  0  0  0  0
   20.1570  -31.3360   38.1800 C   0  0  0  0  0  0  0  0  0  0  0  0
   19.2070  -32.4900   38.3470 C   0  0  0  0  0  0  0  0  0  0  0  0
   21.8174  -30.9034   34.8132 H   0  0  0  0  0  0  0  0  0  0  0  0
   20.8372  -32.0493   33.8371 H   0  0  0  0  0  0  0  0  0  0  0  0
   20.4362  -30.2983   33.8371 H   0  0  0  0  0  0  0  0  0  0  0  0
   18.9196  -30.8445   35.4275 H   0  0  0  0  0  0  0  0  0  0  0  0
   19.7352  -32.4310   35.7631 H   0  0  0  0  0  0  0  0  0  0  0  0
   21.5988  -29.2919   35.8470 H   0  0  0  0  0  0  0  0  0  0  0  0
   22.6260  -28.3224   37.8863 H   0  0  0  0  0  0  0  0  0  0  0  0
   25.0253  -31.4040   42.1468 H   0  0  0  0  0  0  0  0  0  0  0  0
   26.2729  -30.8128   44.2271 H   0  0  0  0  0  0  0  0  0  0  0  0
   25.7893  -28.6650   45.4066 H   0  0  0  0  0  0  0  0  0  0  0  0
   24.3780  -26.0880   44.3480 H   0  0  0  0  0  0  0  0  0  0  0  0
   21.0240  -26.1850   40.5230 H   0  0  0  0  0  0  0  0  0  0  0  0
   20.4988  -31.1843   40.3139 H   0  0  0  0  0  0  0  0  0  0  0  0
   19.0486  -32.6824   39.4184 H   0  0  0  0  0  0  0  0  0  0  0  0
   18.2454  -32.2450   37.8724 H   0  0  0  0  0  0  0  0  0  0  0  0
   19.6322  -33.3866   37.8724 H   0  0  0  0  0  0  0  0  0  0  0  0
  1  2  1  0
  2  3  1  0
  3  4  2  0
  4  5  1  0
  5  6  2  0
  6  7  1  0
  7  8  1  0
  8  9  1  0
  9 10  2  0
 10 11  1  0
 11 12  2  0
 12 13  1  0
 13 14  1  0
 13 15  2  0
 15 16  1  0
 16 17  2  0
 16 18  1  0
 18 19  1  0
  6 20  1  0
 20 21  2  0
 21 22  1  0
 21  3  1  0
 18  7  2  0
 15  9  1  0
  1 23  1  0
  1 24  1  0
  1 25  1  0
  2 26  1  0
  2 27  1  0
  4 28  1  0
  5 29  1  0
 10 30  1  0
 11 31  1  0
 12 32  1  0
 14 33  1  0
 19 34  1  0
 20 35  1  0
 22 36  1  0
 22 37  1  0
 22 38  1  0
M  END
>  <meeko>  (4) 
{"is_sidechain": [false], "free_energy": -8.599, "intermolecular_energy": -10.124, "internal_energy": -0.424}

$$$$
cand_042_out
     RDKit          3D

 38 40  0  0  0  0  0  0  0  0999 V2000
   19.7440  -26.5160   42.4890 C   0  0  0  0  0  0  0  0  0  0  0  0
   20.7200  -26.5170   41.3220 C   0  0  0  0  0  0  0  0  0  0  0  0
   20.5390  -27.7280   40.4340 C   0  0  0  0  0  0  0  0  0  0  0  0
   19.3680  -27.8240   39.6650 C   0  0  0  0  0  0  0  0  0  0  0  0
   19.1390  -28.9230   38.8340 C   0  0  0  0  0  0  0  0  0  0  0  0
   20.0760  -29.9550   38.7430 C   0  0  0  0  0  0  0  0  0  0  0  0
   19.8490  -31.1420   37.8910 C   0  0  0  0  0  0  0  0  0  0  0  0
   20.1910  -30.9250   36.5610 O   0  0  0  0  0  0  0  0  0  0  0  0
   20.0300  -31.9450   35.6600 C   0  0  0  0  0  0  0  0  0  0  0  0
   20.3990  -31.6890   34.3390 C   0  0  0  0  0  0  0  0  0  0  0  0
   20.2590  -32.6850   33.3700 C   0  0  0  0  0  0  0  0  0  0  0  0
   19.7500  -33.9370   33.7210 C   0  0  0  0  0  0  0  0  0  0  0  0
   19.3820  -34.1900   35.0400 C   0  0  0  0  0  0  0  0  0  0  0  0
   18.8900  -35.4370   35.3150 O   0  0  0  0  0  0  0  0  0  0  0  0
   19.5230  -33.1940   36.0100 C   0  0  0  0  0  0  0  0  0  0  0  0
   19.1490  -33.4180   37.4060 C   0  0  0  0  0  0  0  0  0  0  0  0
   18.6870  -34.4910   37.7920 O   0  0  0  0  0  0  0  0  0  0  0  0
   19.3450  -32.3000   38.3560 C   0  0  0  0  0  0  0  0  0  0  0  0
   18.9760  -32.5200   39.6710 O   0  0  0  0  0  0  0  0  0  0  0  0
   21.2400  -29.8680   39.5240 C   0  0  0  0  0  0  0  0  0  0  0  0
   21.4830  -28.7720   40.3730 C   0  0  0  0  0  0  0  0  0  0  0  0
   22.7610  -28.7380   41.1660 C   0  0  0  0  0  0  0  0  0  0  0  0
   20.3043  -26.5166   43.4356 H   0  0  0  0  0  0  0  0  0  0  0  0
   19.1119  -25.6172   42.4376 H   0  0  0  0  0  0  0  0  0  0  0  0
   19.1101  -27.4135   42.4376 H   0  0  0  0  0  0  0  0  0  0  0  0
   20.5577  -25.6092   40.7223 H   0  0  0  0  0  0  0  0  0  0  0  0
   21.7403  -26.5454   41.7320 H   0  0  0  0  0  0  0  0  0  0  0  0
   18.6187  -27.0204   39.7179 H   0  0  0  0  0  0  0  0  0  0  0  0
   18.2114  -28.9764   38.2452 H   0  0  0  0  0  0  0  0  0  0  0  0
   20.8000  -30.7032   34.0609 H   0  0  0  0  0  0  0  0  0  0  0  0
   20.5502  -32.4829   32.3287 H   0  0  0  0  0  0  0  0  0  0  0  0
   19.6400  -34.7213   32.9576 H   0  0  0  0  0  0  0  0  0  0  0  0
   18.6360  -35.6580   36.1900 H   0  0  0  0  0  0  0  0  0  0  0  0
   18.9870  -33.3880   40.0220 H   0  0  0  0  0  0  0  0  0  0  0  0
   21.9819  -30.6784   39.4707 H   0  0  0  0  0  0  0  0  0  0  0  0
   22.5260  -28.7443   42.2406 H   0  0  0  0  0  0  0  0  0  0  0  0
   23.3696  -29.6203   40.9186 H   0  0  0  0  0  0  0  0  0  0  0  0
   23.3218  -27.8246   40.9186 H   0  0  0  0  0  0  0  0  0  0  0  0
  1  2  1  0
  2  3  1  0
  3  4  2  0
  4  5  1  0
  5  6  2  0
  6  7  1  0
  7  8  1  0
  8  9  1  0
  9 10  2  0
 10 11  1  0
 11 12  2  0
 12 13  1  0
 13 14  1  0
 13 15  2  0
 15 16  1  0
 16 17  2  0
 16 18  1  0
 18 19  1  0
  6 20  1  0
 20 21  2  0
 21 22  1  0
 21  3  1  0
 18  7  2  0
 15  9  1  0
  1 23  1  0
  1 24  1  0
  1 25  1  0
  2 26  1  0
  2 27  1  0
  4 28  1  0
  5 29  1  0
 10 30  1  0
 11 31  1  0
 12 32  1  0
 14 33  1  0
 19 34  1  0
 20 35  1  0
 22 36  1  0
 22 37  1  0
 22 38  1  0
M  END
>  <meeko>  (5) 
{"is_sidechain": [false], "free_energy": -8.577, "intermolecular_energy": -10.053, "internal_energy": -0.469}

$$$$
cand_042_out
     RDKit          3D

 38 40  0  0  0  0  0  0  0  0999 V2000
   21.5450  -24.6500   45.4530 C   0  0  0  0  0  0  0  0  0  0  0  0
   22.5310  -25.7690   45.1530 C   0  0  0  0  0  0  0  0  0  0  0  0
   22.2170  -26.4660   43.8480 C   0  0  0  0  0  0  0  0  0  0  0  0
   21.0090  -26.1580   43.2000 C   0  0  0  0  0  0  0  0  0  0  0  0
   20.6580  -26.7760   41.9980 C   0  0  0  0  0  0  0  0  0  0  0  0
   21.5060  -27.7150   41.4050 C   0  0  0  0  0  0  0  0  0  0  0  0
   21.1490  -28.4030   40.1460 C   0  0  0  0  0  0  0  0  0  0  0  0
   20.7360  -29.7150   40.3450 O   0  0  0  0  0  0  0  0  0  0  0  0
   20.3750  -30.4690   39.2580 C   0  0  0  0  0  0  0  0  0  0  0  0
   19.9530  -31.7760   39.5050 C   0  0  0  0  0  0  0  0  0  0  0  0
   19.5720  -32.5980   38.4420 C   0  0  0  0  0  0  0  0  0  0  0  0
   19.6140  -32.1140   37.1330 C   0  0  0  0  0  0  0  0  0  0  0  0
   20.0340  -30.8090   36.8900 C   0  0  0  0  0  0  0  0  0  0  0  0
   20.0520  -30.4000   35.5840 O   0  0  0  0  0  0  0  0  0  0  0  0
   20.4150  -29.9860   37.9530 C   0  0  0  0  0  0  0  0  0  0  0  0
   20.8630  -28.6100   37.7410 C   0  0  0  0  0  0  0  0  0  0  0  0
   20.9330  -28.1140   36.6180 O   0  0  0  0  0  0  0  0  0  0  0  0
   21.2360  -27.8190   38.9360 C   0  0  0  0  0  0  0  0  0  0  0  0
   21.6700  -26.5240   38.7220 O   0  0  0  0  0  0  0  0  0  0  0  0
   22.7060  -28.0350   42.0600 C   0  0  0  0  0  0  0  0  0  0  0  0
   23.0710  -27.4280   43.2760 C   0  0  0  0  0  0  0  0  0  0  0  0
   24.3810  -27.8070   43.9110 C   0  0  0  0  0  0  0  0  0  0  0  0
   21.4426  -24.5337   46.5420 H   0  0  0  0  0  0  0  0  0  0  0  0
   21.9136  -23.7098   45.0169 H   0  0  0  0  0  0  0  0  0  0  0  0
   20.5659  -24.8973   45.0169 H   0  0  0  0  0  0  0  0  0  0  0  0
   23.5437  -25.3436   45.0937 H   0  0  0  0  0  0  0  0  0  0  0  0
   22.4581  -26.5118   45.9611 H   0  0  0  0  0  0  0  0  0  0  0  0
   20.3287  -25.4180   43.6468 H   0  0  0  0  0  0  0  0  0  0  0  0
   19.7042  -26.5210   41.5130 H   0  0  0  0  0  0  0  0  0  0  0  0
   19.9204  -32.1585   40.5358 H   0  0  0  0  0  0  0  0  0  0  0  0
   19.2384  -33.6280   38.6363 H   0  0  0  0  0  0  0  0  0  0  0  0
   19.3160  -32.7622   36.2957 H   0  0  0  0  0  0  0  0  0  0  0  0
   19.5320  -30.8480   34.9460 H   0  0  0  0  0  0  0  0  0  0  0  0
   21.9120  -26.2470   37.8610 H   0  0  0  0  0  0  0  0  0  0  0  0
   23.3789  -28.7802   41.6106 H   0  0  0  0  0  0  0  0  0  0  0  0
   24.2798  -27.7777   45.0059 H   0  0  0  0  0  0  0  0  0  0  0  0
   24.6610  -28.8230   43.5957 H   0  0  0  0  0  0  0  0  0  0  0  0
   25.1602  -27.0974   43.5957 H   0  0  0  0  0  0  0  0  0  0  0  0
  1  2  1  0
  2  3  1  0
  3  4  2  0
  4  5  1  0
  5  6  2  0
  6  7  1  0
  7  8  1  0
  8  9  1  0
  9 10  2  0
 10 11  1  0
 11 12  2  0
 12 13  1  0
 13 14  1  0
 13 15  2  0
 15 16  1  0
 16 17  2  0
 16 18  1  0
 18 19  1  0
  6 20  1  0
 20 21  2  0
 21 22  1  0
 21  3  1  0
 18  7  2  0
 15  9  1  0
  1 23  1  0
  1 24  1  0
  1 25  1  0
  2 26  1  0
  2 27  1  0
  4 28  1  0
  5 29  1  0
 10 30  1  0
 11 31  1  0
 12 32  1  0
 14 33  1  0
 19 34  1  0
 20 35  1  0
 22 36  1  0
 22 37  1  0
 22 38  1  0
M  END
>  <meeko>  (6) 
{"is_sidechain": [false], "free_energy": -8.386, "intermolecular_energy": -9.865, "internal_energy": -0.432}

$$$$
cand_042_out
     RDKit          3D

 38 40  0  0  0  0  0  0  0  0999 V2000
   20.8090  -30.8970   34.7970 C   0  0  0  0  0  0  0  0  0  0  0  0
   20.0750  -31.4320   36.0170 C   0  0  0  0  0  0  0  0  0  0  0  0
   20.5260  -30.7530   37.2920 C   0  0  0  0  0  0  0  0  0  0  0  0
   21.2870  -29.5780   37.1890 C   0  0  0  0  0  0  0  0  0  0  0  0
   21.7410  -28.9120   38.3300 C   0  0  0  0  0  0  0  0  0  0  0  0
   21.4430  -29.3980   39.6050 C   0  0  0  0  0  0  0  0  0  0  0  0
   21.9310  -28.7260   40.8290 C   0  0  0  0  0  0  0  0  0  0  0  0
   21.1430  -27.6450   41.2040 O   0  0  0  0  0  0  0  0  0  0  0  0
   21.4840  -26.9320   42.3230 C   0  0  0  0  0  0  0  0  0  0  0  0
   20.6560  -25.8630   42.6700 C   0  0  0  0  0  0  0  0  0  0  0  0
   20.9470  -25.0940   43.7990 C   0  0  0  0  0  0  0  0  0  0  0  0
   22.0650  -25.3930   44.5810 C   0  0  0  0  0  0  0  0  0  0  0  0
   22.8890  -26.4610   44.2330 C   0  0  0  0  0  0  0  0  0  0  0  0
   23.9670  -26.6970   45.0410 O   0  0  0  0  0  0  0  0  0  0  0  0
   22.5970  -27.2310   43.1030 C   0  0  0  0  0  0  0  0  0  0  0  0
   23.4360  -28.3590   42.7020 C   0  0  0  0  0  0  0  0  0  0  0  0
   24.4410  -28.6810   43.3350 O   0  0  0  0  0  0  0  0  0  0  0  0
   23.0350  -29.1150   41.4940 C   0  0  0  0  0  0  0  0  0  0  0  0
   23.8430  -30.1730   41.1170 O   0  0  0  0  0  0  0  0  0  0  0  0
   20.6960  -30.5820   39.7080 C   0  0  0  0  0  0  0  0  0  0  0  0
   20.2370  -31.2700   38.5700 C   0  0  0  0  0  0  0  0  0  0  0  0
   19.4250  -32.5220   38.7570 C   0  0  0  0  0  0  0  0  0  0  0  0
   21.6582  -30.2780   35.1222 H   0  0  0  0  0  0  0  0  0  0  0  0
   21.1789  -31.7388   34.1932 H   0  0  0  0  0  0  0  0  0  0  0  0
   20.1208  -30.2872   34.1932 H   0  0  0  0  0  0  0  0  0  0  0  0
   18.9963  -31.2611   35.8859 H   0  0  0  0  0  0  0  0  0  0  0  0
   20.2996  -32.5052   36.1055 H   0  0  0  0  0  0  0  0  0  0  0  0
   21.5296  -29.1754   36.1945 H   0  0  0  0  0  0  0  0  0  0  0  0
   22.3394  -27.9952   38.2231 H   0  0  0  0  0  0  0  0  0  0  0  0
   19.7753  -25.6265   42.0549 H   0  0  0  0  0  0  0  0  0  0  0  0
   20.2947  -24.2516   44.0727 H   0  0  0  0  0  0  0  0  0  0  0  0
   22.2943  -24.7866   45.4696 H   0  0  0  0  0  0  0  0  0  0  0  0
   24.4380  -27.5040   44.9700 H   0  0  0  0  0  0  0  0  0  0  0  0
   23.5100  -31.0480   41.1380 H   0  0  0  0  0  0  0  0  0  0  0  0
   20.4632  -30.9827   40.7056 H   0  0  0  0  0  0  0  0  0  0  0  0
   19.2972  -32.7190   39.8316 H   0  0  0  0  0  0  0  0  0  0  0  0
   18.4384  -32.3926   38.2881 H   0  0  0  0  0  0  0  0  0  0  0  0
   19.9455  -33.3701   38.2881 H   0  0  0  0  0  0  0  0  0  0  0  0
  1  2  1  0
  2  3  1  0
  3  4  2  0
  4  5  1  0
  5  6  2  0
  6  7  1  0
  7  8  1  0
  8  9  1  0
  9 10  2  0
 10 11  1  0
 11 12  2  0
 12 13  1  0
 13 14  1  0
 13 15  2  0
 15 16  1  0
 16 17  2  0
 16 18  1  0
 18 19  1  0
  6 20  1  0
 20 21  2  0
 21 22  1  0
 21  3  1  0
 18  7  2  0
 15  9  1  0
  1 23  1  0
  1 24  1  0
  1 25  1  0
  2 26  1  0
  2 27  1  0
  4 28  1  0
  5 29  1  0
 10 30  1  0
 11 31  1  0
 12 32  1  0
 14 33  1  0
 19 34  1  0
 20 35  1  0
 22 36  1  0
 22 37  1  0
 22 38  1  0
M  END
>  <meeko>  (7) 
{"is_sidechain": [false], "free_energy": -8.299, "intermolecular_energy": -9.75, "internal_energy": -0.445}

$$$$
cand_042_out
     RDKit          3D

 38 40  0  0  0  0  0  0  0  0999 V2000
   23.1210  -26.4610   45.0240 C   0  0  0  0  0  0  0  0  0  0  0  0
   22.9530  -27.8820   44.5070 C   0  0  0  0  0  0  0  0  0  0  0  0
   22.5080  -27.9110   43.0620 C   0  0  0  0  0  0  0  0  0  0  0  0
   21.4350  -27.0910   42.6770 C   0  0  0  0  0  0  0  0  0  0  0  0
   20.9730  -27.0810   41.3590 C   0  0  0  0  0  0  0  0  0  0  0  0
   21.5730  -27.8860   40.3860 C   0  0  0  0  0  0  0  0  0  0  0  0
   21.0890  -27.9130   38.9900 C   0  0  0  0  0  0  0  0  0  0  0  0
   21.1950  -29.1700   38.4060 O   0  0  0  0  0  0  0  0  0  0  0  0
   20.7800  -29.3360   37.1100 C   0  0  0  0  0  0  0  0  0  0  0  0
   20.8920  -30.6180   36.5680 C   0  0  0  0  0  0  0  0  0  0  0  0
   20.4880  -30.8550   35.2520 C   0  0  0  0  0  0  0  0  0  0  0  0
   19.9750  -29.8130   34.4780 C   0  0  0  0  0  0  0  0  0  0  0  0
   19.8650  -28.5350   35.0210 C   0  0  0  0  0  0  0  0  0  0  0  0
   19.3550  -27.5610   34.2070 O   0  0  0  0  0  0  0  0  0  0  0  0
   20.2680  -28.2980   36.3380 C   0  0  0  0  0  0  0  0  0  0  0  0
   20.1690  -26.9710   36.9470 C   0  0  0  0  0  0  0  0  0  0  0  0
   19.7350  -26.0010   36.3270 O   0  0  0  0  0  0  0  0  0  0  0  0
   20.6160  -26.8270   38.3510 C   0  0  0  0  0  0  0  0  0  0  0  0
   20.5290  -25.5650   38.9120 O   0  0  0  0  0  0  0  0  0  0  0  0
   22.6360  -28.7170   40.7750 C   0  0  0  0  0  0  0  0  0  0  0  0
   23.1090  -28.7460   42.1000 C   0  0  0  0  0  0  0  0  0  0  0  0
   24.2640  -29.6480   42.4380 C   0  0  0  0  0  0  0  0  0  0  0  0
   23.1201  -26.4685   46.1240 H   0  0  0  0  0  0  0  0  0  0  0  0
   24.0741  -26.0490   44.6609 H   0  0  0  0  0  0  0  0  0  0  0  0
   22.2902  -25.8381   44.6609 H   0  0  0  0  0  0  0  0  0  0  0  0
   23.9158  -28.4070   44.5925 H   0  0  0  0  0  0  0  0  0  0  0  0
   22.1763  -28.3735   45.1113 H   0  0  0  0  0  0  0  0  0  0  0  0
   20.9507  -26.4464   43.4253 H   0  0  0  0  0  0  0  0  0  0  0  0
   20.1280  -26.4328   41.0835 H   0  0  0  0  0  0  0  0  0  0  0  0
   21.2977  -31.4398   37.1763 H   0  0  0  0  0  0  0  0  0  0  0  0
   20.5744  -31.8650   34.8248 H   0  0  0  0  0  0  0  0  0  0  0  0
   19.6582  -30.0006   33.4414 H   0  0  0  0  0  0  0  0  0  0  0  0
   19.5160  -27.5890   33.2850 H   0  0  0  0  0  0  0  0  0  0  0  0
   21.0430  -25.3510   39.6640 H   0  0  0  0  0  0  0  0  0  0  0  0
   23.1122  -29.3633   40.0230 H   0  0  0  0  0  0  0  0  0  0  0  0
   24.3619  -29.7244   43.5310 H   0  0  0  0  0  0  0  0  0  0  0  0
   24.0846  -30.6475   42.0151 H   0  0  0  0  0  0  0  0  0  0  0  0
   25.1902  -29.2318   42.0151 H   0  0  0  0  0  0  0  0  0  0  0  0
  1  2  1  0
  2  3  1  0
  3  4  2  0
  4  5  1  0
  5  6  2  0
  6  7  1  0
  7  8  1  0
  8  9  1  0
  9 10  2  0
 10 11  1  0
 11 12  2  0
 12 13  1  0
 13 14  1  0
 13 15  2  0
 15 16  1  0
 16 17  2  0
 16 18  1  0
 18 19  1  0
  6 20  1  0
 20 21  2  0
 21 22  1  0
 21  3  1  0
 18  7  2  0
 15  9  1  0
  1 23  1  0
  1 24  1  0
  1 25  1  0
  2 26  1  0
  2 27  1  0
  4 28  1  0
  5 29  1  0
 10 30  1  0
 11 31  1  0
 12 32  1  0
 14 33  1  0
 19 34  1  0
 20 35  1  0
 22 36  1  0
 22 37  1  0
 22 38  1  0
M  END
>  <meeko>  (8) 
{"is_sidechain": [false], "free_energy": -7.851, "intermolecular_energy": -9.603, "internal_energy": -0.066}

$$$$
cand_042_out
     RDKit          3D

 38 40  0  0  0  0  0  0  0  0999 V2000
   19.6920  -33.8850   34.8600 C   0  0  0  0  0  0  0  0  0  0  0  0
   18.9500  -33.9250   36.1870 C   0  0  0  0  0  0  0  0  0  0  0  0
   19.3870  -32.8130   37.1140 C   0  0  0  0  0  0  0  0  0  0  0  0
   19.9810  -31.6710   36.5540 C   0  0  0  0  0  0  0  0  0  0  0  0
   20.4150  -30.6150   37.3580 C   0  0  0  0  0  0  0  0  0  0  0  0
   20.2630  -30.6680   38.7460 C   0  0  0  0  0  0  0  0  0  0  0  0
   20.7350  -29.5760   39.6250 C   0  0  0  0  0  0  0  0  0  0  0  0
   19.8030  -28.5540   39.7650 O   0  0  0  0  0  0  0  0  0  0  0  0
   20.1140  -27.4780   40.5540 C   0  0  0  0  0  0  0  0  0  0  0  0
   19.1430  -26.4820   40.6780 C   0  0  0  0  0  0  0  0  0  0  0  0
   19.3960  -25.3570   41.4670 C   0  0  0  0  0  0  0  0  0  0  0  0
   20.6180  -25.2270   42.1300 C   0  0  0  0  0  0  0  0  0  0  0  0
   21.5840  -26.2220   42.0050 C   0  0  0  0  0  0  0  0  0  0  0  0
   22.7590  -26.0300   42.6800 O   0  0  0  0  0  0  0  0  0  0  0  0
   21.3310  -27.3480   41.2160 C   0  0  0  0  0  0  0  0  0  0  0  0
   22.3190  -28.4160   41.0580 C   0  0  0  0  0  0  0  0  0  0  0  0
   23.4200  -28.3700   41.6040 O   0  0  0  0  0  0  0  0  0  0  0  0
   21.9490  -29.5700   40.2070 C   0  0  0  0  0  0  0  0  0  0  0  0
   22.8950  -30.5670   40.0540 O   0  0  0  0  0  0  0  0  0  0  0  0
   19.6840  -31.8170   39.3090 C   0  0  0  0  0  0  0  0  0  0  0  0
   19.2490  -32.8930   38.5140 C   0  0  0  0  0  0  0  0  0  0  0  0
   18.6210  -34.0840   39.1850 C   0  0  0  0  0  0  0  0  0  0  0  0
   20.7745  -33.8266   35.0468 H   0  0  0  0  0  0  0  0  0  0  0  0
   19.4675  -34.7966   34.2867 H   0  0  0  0  0  0  0  0  0  0  0  0
   19.3708  -33.0029   34.2867 H   0  0  0  0  0  0  0  0  0  0  0  0
   17.8718  -33.8236   35.9942 H   0  0  0  0  0  0  0  0  0  0  0  0
   19.1784  -34.8839   36.6753 H   0  0  0  0  0  0  0  0  0  0  0  0
   20.1067  -31.6069   35.4631 H   0  0  0  0  0  0  0  0  0  0  0  0
   20.8810  -29.7331   36.8943 H   0  0  0  0  0  0  0  0  0  0  0  0
   18.1804  -26.5830   40.1553 H   0  0  0  0  0  0  0  0  0  0  0  0
   18.6313  -24.5725   41.5660 H   0  0  0  0  0  0  0  0  0  0  0  0
   20.8171  -24.3403   42.7498 H   0  0  0  0  0  0  0  0  0  0  0  0
   23.4310  -26.6820   42.6450 H   0  0  0  0  0  0  0  0  0  0  0  0
   23.6180  -30.4410   39.4730 H   0  0  0  0  0  0  0  0  0  0  0  0
   19.5675  -31.8772   40.4012 H   0  0  0  0  0  0  0  0  0  0  0  0
   18.6837  -33.9651   40.2768 H   0  0  0  0  0  0  0  0  0  0  0  0
   17.5656  -34.1600   38.8844 H   0  0  0  0  0  0  0  0  0  0  0  0
   19.1545  -34.9978   38.8844 H   0  0  0  0  0  0  0  0  0  0  0  0
  1  2  1  0
  2  3  1  0
  3  4  2  0
  4  5  1  0
  5  6  2  0
  6  7  1  0
  7  8  1  0
  8  9  1  0
  9 10  2  0
 10 11  1  0
 11 12  2  0
 12 13  1  0
 13 14  1  0
 13 15  2  0
 15 16  1  0
 16 17  2  0
 16 18  1  0
 18 19  1  0
  6 20  1  0
 20 21  2  0
 21 22  1  0
 21  3  1  0
 18  7  2  0
 15  9  1  0
  1 23  1  0
  1 24  1  0
  1 25  1  0
  2 26  1  0
  2 27  1  0
  4 28  1  0
  5 29  1  0
 10 30  1  0
 11 31  1  0
 12 32  1  0
 14 33  1  0
 19 34  1  0
 20 35  1  0
 22 36  1  0
 22 37  1  0
 22 38  1  0
M  END
>  <meeko>  (9) 
{"is_sidechain": [false], "free_energy": -7.774, "intermolecular_energy": -9.123, "internal_energy": -0.455}

$$$$
