cand_052_out
     RDKit          3D

 44 46  0  0  0  0  0  0  0  0999 V2000
   24.7600  -28.7660   44.1560 C   0  0  0  0  0  0  0  0  0  0  0  0
   24.2380  -27.3730   43.8440 C   0  0  0  0  0  0  0  0  0  0  0  0
   22.7260  -27.3790   43.6170 C   0  0  0  0  0  0  0  0  0  0  0  0
   22.3650  -26.7500   42.2690 C   0  0  0  0  0  0  0  0  0  0  0  0
   21.8250  -27.7770   41.2970 C   0  0  0  0  0  0  0  0  0  0  0  0
   22.6900  -28.7850   40.8410 C   0  0  0  0  0  0  0  0  0  0  0  0
   22.2520  -29.7560   39.9380 C   0  0  0  0  0  0  0  0  0  0  0  0
   20.9360  -29.7500   39.4670 C   0  0  0  0  0  0  0  0  0  0  0  0
   20.4530  -30.7510   38.4930 C   0  0  0  0  0  0  0  0  0  0  0  0
   20.0240  -31.9280   39.0970 O   0  0  0  0  0  0  0  0  0  0  0  0
   19.5490  -32.9440   38.3090 C   0  0  0  0  0  0  0  0  0  0  0  0
   19.1170  -34.1010   38.9580 C   0  0  0  0  0  0  0  0  0  0  0  0
   18.6220  -35.1750   38.2130 C   0  0  0  0  0  0  0  0  0  0  0  0
   18.5620  -35.0920   36.8200 C   0  0  0  0  0  0  0  0  0  0  0  0
   18.9940  -33.9350   36.1750 C   0  0  0  0  0  0  0  0  0  0  0  0
   18.9080  -33.9210   34.8100 O   0  0  0  0  0  0  0  0  0  0  0  0
   19.4880  -32.8620   36.9210 C   0  0  0  0  0  0  0  0  0  0  0  0
   19.9520  -31.6290   36.2830 C   0  0  0  0  0  0  0  0  0  0  0  0
   19.9370  -31.4820   35.0620 O   0  0  0  0  0  0  0  0  0  0  0  0
   20.4500  -30.5470   37.1640 C   0  0  0  0  0  0  0  0  0  0  0  0
   20.8990  -29.3920   36.5490 O   0  0  0  0  0  0  0  0  0  0  0  0
   20.0760  -28.7350   39.9120 C   0  0  0  0  0  0  0  0  0  0  0  0
   20.5020  -27.7440   40.8160 C   0  0  0  0  0  0  0  0  0  0  0  0
   19.5190  -26.6960   41.2630 C   0  0  0  0  0  0  0  0  0  0  0  0
   24.8112  -28.9027   45.2463 H   0  0  0  0  0  0  0  0  0  0  0  0
   24.0822  -29.5169   43.7238 H   0  0  0  0  0  0  0  0  0  0  0  0
   25.7643  -28.8866   43.7238 H   0  0  0  0  0  0  0  0  0  0  0  0
   24.4701  -26.7070   44.6881 H   0  0  0  0  0  0  0  0  0  0  0  0
   24.7240  -27.0208   42.9222 H   0  0  0  0  0  0  0  0  0  0  0  0
   22.3646  -28.4178   43.6363 H   0  0  0  0  0  0  0  0  0  0  0  0
   22.2522  -26.7880   44.4146 H   0  0  0  0  0  0  0  0  0  0  0  0
   21.6004  -25.9758   42.4305 H   0  0  0  0  0  0  0  0  0  0  0  0
   23.2797  -26.3177   41.8371 H   0  0  0  0  0  0  0  0  0  0  0  0
   23.7292  -28.8101   41.2009 H   0  0  0  0  0  0  0  0  0  0  0  0
   22.9498  -30.5336   39.5938 H   0  0  0  0  0  0  0  0  0  0  0  0
   19.1659  -34.1679   40.0549 H   0  0  0  0  0  0  0  0  0  0  0  0
   18.2793  -36.0867   38.7243 H   0  0  0  0  0  0  0  0  0  0  0  0
   18.1746  -35.9381   36.2335 H   0  0  0  0  0  0  0  0  0  0  0  0
   18.4510  -34.6050   34.3620 H   0  0  0  0  0  0  0  0  0  0  0  0
   21.7610  -29.3610   36.1840 H   0  0  0  0  0  0  0  0  0  0  0  0
   19.0396  -28.7130   39.5441 H   0  0  0  0  0  0  0  0  0  0  0  0
   19.4902  -26.6653   42.3622 H   0  0  0  0  0  0  0  0  0  0  0  0
   19.8292  -25.7138   40.8768 H   0  0  0  0  0  0  0  0  0  0  0  0
   18.5190  -26.9427   40.8768 H   0  0  0  0  0  0  0  0  0  0  0  0
  1  2  1  0
  2  3  1  0
  3  4  1  0
  4  5  1  0
  5  6  2  0
  6  7  1  0
  7  8  2  0
  8  9  1  0
  9 10  1  0
 10 11  1  0
 11 12  2  0
 12 13  1  0
 13 14  2  0
 14 15  1  0
 15 16  1  0
 15 17  2  0
 17 18  1  0
 18 19  2  0
 18 20  1  0
 20 21  1  0
  8 22  1  0
 22 23  2  0
 23 24  1  0
 23  5  1  0
 20  9  2  0
 17 11  1  0
  1 25  1  0
  1 26  1  0
  1 27  1  0
  2 28  1  0
  2 29  1  0
  3 30  1  0
  3 31  1  0
  4 32  1  0
  4 33  1  0
  6 34  1  0
  7 35  1  0
 12 36  1  0
 13 37  1  0
 14 38  1  0
 16 39  1  0
 21 40  1  0
 22 41  1  0
 24 42  1  0
 24 43  1  0
 24 44  1  0
M  END
>  <meeko>  (1) 
{"is_sidechain": [false], "free_energy": -9.417, "intermolecular_energy": -12.169, "internal_energy": -0.739}

$$$$
cand_052_out
     RDKit          3D

 44 46  0  0  0  0  0  0  0  0999 V2000
   24.2090  -26.4930   43.8550 C   0  0  0  0  0  0  0  0  0  0  0  0
   22.8210  -26.6630   44.4530 C   0  0  0  0  0  0  0  0  0  0  0  0
   21.8000  -27.0700   43.3910 C   0  0  0  0  0  0  0  0  0  0  0  0
   22.3440  -26.8350   41.9790 C   0  0  0  0  0  0  0  0  0  0  0  0
   21.8870  -27.9100   41.0160 C   0  0  0  0  0  0  0  0  0  0  0  0
   20.7300  -27.6780   40.2570 C   0  0  0  0  0  0  0  0  0  0  0  0
   20.2540  -28.6350   39.3580 C   0  0  0  0  0  0  0  0  0  0  0  0
   20.9240  -29.8500   39.1880 C   0  0  0  0  0  0  0  0  0  0  0  0
   20.4300  -30.8890   38.2610 C   0  0  0  0  0  0  0  0  0  0  0  0
   20.0130  -32.0430   38.9170 O   0  0  0  0  0  0  0  0  0  0  0  0
   19.5290  -33.0900   38.1760 C   0  0  0  0  0  0  0  0  0  0  0  0
   19.1100  -34.2210   38.8760 C   0  0  0  0  0  0  0  0  0  0  0  0
   18.6080  -35.3250   38.1810 C   0  0  0  0  0  0  0  0  0  0  0  0
   18.5270  -35.2960   36.7870 C   0  0  0  0  0  0  0  0  0  0  0  0
   18.9470  -34.1650   36.0910 C   0  0  0  0  0  0  0  0  0  0  0  0
   18.8410  -34.2050   34.7280 O   0  0  0  0  0  0  0  0  0  0  0  0
   19.4480  -33.0620   36.7870 C   0  0  0  0  0  0  0  0  0  0  0  0
   19.8990  -31.8540   36.0940 C   0  0  0  0  0  0  0  0  0  0  0  0
   19.8660  -31.7550   34.8690 O   0  0  0  0  0  0  0  0  0  0  0  0
   20.4060  -30.7370   36.9250 C   0  0  0  0  0  0  0  0  0  0  0  0
   20.8430  -29.6060   36.2590 O   0  0  0  0  0  0  0  0  0  0  0  0
   22.0730  -30.0870   39.9580 C   0  0  0  0  0  0  0  0  0  0  0  0
   22.5620  -29.1380   40.8740 C   0  0  0  0  0  0  0  0  0  0  0  0
   23.8110  -29.4550   41.6520 C   0  0  0  0  0  0  0  0  0  0  0  0
   24.9484  -26.4024   44.6644 H   0  0  0  0  0  0  0  0  0  0  0  0
   24.4504  -27.3683   43.2340 H   0  0  0  0  0  0  0  0  0  0  0  0
   24.2321  -25.5853   43.2340 H   0  0  0  0  0  0  0  0  0  0  0  0
   22.8590  -27.4414   45.2293 H   0  0  0  0  0  0  0  0  0  0  0  0
   22.5088  -25.6988   44.8806 H   0  0  0  0  0  0  0  0  0  0  0  0
   21.5638  -28.1376   43.5112 H   0  0  0  0  0  0  0  0  0  0  0  0
   20.8974  -26.4552   43.5227 H   0  0  0  0  0  0  0  0  0  0  0  0
   21.9884  -25.8586   41.6180 H   0  0  0  0  0  0  0  0  0  0  0  0
   23.4427  -26.8619   42.0263 H   0  0  0  0  0  0  0  0  0  0  0  0
   20.1891  -26.7271   40.3718 H   0  0  0  0  0  0  0  0  0  0  0  0
   19.3422  -28.4305   38.7776 H   0  0  0  0  0  0  0  0  0  0  0  0
   19.1745  -34.2443   39.9739 H   0  0  0  0  0  0  0  0  0  0  0  0
   18.2765  -36.2173   38.7324 H   0  0  0  0  0  0  0  0  0  0  0  0
   18.1322  -36.1648   36.2398 H   0  0  0  0  0  0  0  0  0  0  0  0
   18.2530  -33.6240   34.2870 H   0  0  0  0  0  0  0  0  0  0  0  0
   21.7610  -29.4550   36.1460 H   0  0  0  0  0  0  0  0  0  0  0  0
   22.6064  -31.0420   39.8420 H   0  0  0  0  0  0  0  0  0  0  0  0
   23.5957  -29.4004   42.7293 H   0  0  0  0  0  0  0  0  0  0  0  0
   24.1541  -30.4687   41.3976 H   0  0  0  0  0  0  0  0  0  0  0  0
   24.5960  -28.7276   41.3976 H   0  0  0  0  0  0  0  0  0  0  0  0
  1  2  1  0
  2  3  1  0
  3  4  1  0
  4  5  1  0
  5  6  2  0
  6  7  1  0
  7  8  2  0
  8  9  1  0
  9 10  1  0
 10 11  1  0
 11 12  2  0
 12 13  1  0
 13 14  2  0
 14 15  1  0
 15 16  1  0
 15 17  2  0
 17 18  1  0
 18 19  2  0
 18 20  1  0
 20 21  1  0
  8 22  1  0
 22 23  2  0
 23 24  1  0
 23  5  1  0
 20  9  2  0
 17 11  1  0
  1 25  1  0
  1 26  1  0
  1 27  1  0
  2 28  1  0
  2 29  1  0
  3 30  1  0
  3 31  1  0
  4 32  1  0
  4 33  1  0
  6 34  1  0
  7 35  1  0
 12 36  1  0
 13 37  1  0
 14 38  1  0
 16 39  1  0
 21 40  1  0
 22 41  1  0
 24 42  1  0
 24 43  1  0
 24 44  1  0
M  END
>  <meeko>  (2) 
{"is_sidechain": [false], "free_energy": -9.084, "intermolecular_energy": -11.786, "internal_energy": -0.692}

$$$$
cand_052_out
     RDKit          3D

 44 46  0  0  0  0  0  0  0  0999 V2000
   21.6000  -24.6040   45.4330 C   0  0  0  0  0  0  0  0  0  0  0  0
   22.5710  -25.7640   45.2810 C   0  0  0  0  0  0  0  0  0  0  0  0
   23.2680  -25.7360   43.9210 C   0  0  0  0  0  0  0  0  0  0  0  0
   24.0260  -27.0410   43.6590 C   0  0  0  0  0  0  0  0  0  0  0  0
   23.3850  -27.8490   42.5520 C   0  0  0  0  0  0  0  0  0  0  0  0
   22.3200  -27.2770   41.8390 C   0  0  0  0  0  0  0  0  0  0  0  0
   21.6820  -27.9770   40.8120 C   0  0  0  0  0  0  0  0  0  0  0  0
   22.0940  -29.2670   40.4650 C   0  0  0  0  0  0  0  0  0  0  0  0
   21.4230  -30.0390   39.3980 C   0  0  0  0  0  0  0  0  0  0  0  0
   20.6420  -31.0770   39.8940 O   0  0  0  0  0  0  0  0  0  0  0  0
   19.9600  -31.8750   39.0110 C   0  0  0  0  0  0  0  0  0  0  0  0
   19.1790  -32.8950   39.5540 C   0  0  0  0  0  0  0  0  0  0  0  0
   18.4590  -33.7460   38.7090 C   0  0  0  0  0  0  0  0  0  0  0  0
   18.5240  -33.5770   37.3250 C   0  0  0  0  0  0  0  0  0  0  0  0
   19.3060  -32.5570   36.7870 C   0  0  0  0  0  0  0  0  0  0  0  0
   19.3250  -32.4480   35.4230 O   0  0  0  0  0  0  0  0  0  0  0  0
   20.0240  -31.7070   37.6320 C   0  0  0  0  0  0  0  0  0  0  0  0
   20.8570  -30.6230   37.1070 C   0  0  0  0  0  0  0  0  0  0  0  0
   20.9710  -30.4150   35.9010 O   0  0  0  0  0  0  0  0  0  0  0  0
   21.5720  -29.7730   38.0880 C   0  0  0  0  0  0  0  0  0  0  0  0
   22.3670  -28.7610   37.5810 O   0  0  0  0  0  0  0  0  0  0  0  0
   23.1500  -29.8440   41.1870 C   0  0  0  0  0  0  0  0  0  0  0  0
   23.7990  -29.1560   42.2300 C   0  0  0  0  0  0  0  0  0  0  0  0
   24.9350  -29.8320   42.9490 C   0  0  0  0  0  0  0  0  0  0  0  0
   21.4324  -24.4038   46.5016 H   0  0  0  0  0  0  0  0  0  0  0  0
   22.0213  -23.7080   44.9537 H   0  0  0  0  0  0  0  0  0  0  0  0
   20.6438  -24.8610   44.9537 H   0  0  0  0  0  0  0  0  0  0  0  0
   23.3310  -25.7002   46.0736 H   0  0  0  0  0  0  0  0  0  0  0  0
   22.0026  -26.7026   45.3584 H   0  0  0  0  0  0  0  0  0  0  0  0
   22.5127  -25.5957   43.1337 H   0  0  0  0  0  0  0  0  0  0  0  0
   23.9910  -24.9070   43.9176 H   0  0  0  0  0  0  0  0  0  0  0  0
   25.0603  -26.8008   43.3717 H   0  0  0  0  0  0  0  0  0  0  0  0
   24.0016  -27.6421   44.5799 H   0  0  0  0  0  0  0  0  0  0  0  0
   21.9823  -26.2614   42.0928 H   0  0  0  0  0  0  0  0  0  0  0  0
   20.8469  -27.5083   40.2708 H   0  0  0  0  0  0  0  0  0  0  0  0
   19.1293  -33.0300   40.6446 H   0  0  0  0  0  0  0  0  0  0  0  0
   17.8407  -34.5495   39.1358 H   0  0  0  0  0  0  0  0  0  0  0  0
   17.9592  -34.2475   36.6606 H   0  0  0  0  0  0  0  0  0  0  0  0
   20.1390  -32.3420   34.9730 H   0  0  0  0  0  0  0  0  0  0  0  0
   22.6450  -28.7890   36.6860 H   0  0  0  0  0  0  0  0  0  0  0  0
   23.4798  -30.8617   40.9311 H   0  0  0  0  0  0  0  0  0  0  0  0
   24.7860  -29.7433   44.0352 H   0  0  0  0  0  0  0  0  0  0  0  0
   24.9654  -30.8952   42.6687 H   0  0  0  0  0  0  0  0  0  0  0  0
   25.8840  -29.3516   42.6687 H   0  0  0  0  0  0  0  0  0  0  0  0
  1  2  1  0
  2  3  1  0
  3  4  1  0
  4  5  1  0
  5  6  2  0
  6  7  1  0
  7  8  2  0
  8  9  1  0
  9 10  1  0
 10 11  1  0
 11 12  2  0
 12 13  1  0
 13 14  2  0
 14 15  1  0
 15 16  1  0
 15 17  2  0
 17 18  1  0
 18 19  2  0
 18 20  1  0
 20 21  1  0
  8 22  1  0
 22 23  2  0
 23 24  1  0
 23  5  1  0
 20  9  2  0
 17 11  1  0
  1 25  1  0
  1 26  1  0
  1 27  1  0
  2 28  1  0
  2 29  1  0
  3 30  1  0
  3 31  1  0
  4 32  1  0
  4 33  1  0
  6 34  1  0
  7 35  1  0
 12 36  1  0
 13 37  1  0
 14 38  1  0
 16 39  1  0
 21 40  1  0
 22 41  1  0
 24 42  1  0
 24 43  1  0
 24 44  1  0
M  END
>  <meeko>  (3) 
{"is_sidechain": [false], "free_energy": -9.052, "intermolecular_energy": -11.815, "internal_energy": -0.622}

$$$$
cand_052_out
     RDKit          3D

 44 46  0  0  0  0  0  0  0  0999 V2000
   22.3710  -25.5290   45.1370 C   0  0  0  0  0  0  0  0  0  0  0  0
   21.4270  -24.6280   44.3570 C   0  0  0  0  0  0  0  0  0  0  0  0
   21.7060  -24.6890   42.8550 C   0  0  0  0  0  0  0  0  0  0  0  0
   22.8090  -25.7020   42.5370 C   0  0  0  0  0  0  0  0  0  0  0  0
   22.3120  -26.8080   41.6310 C   0  0  0  0  0  0  0  0  0  0  0  0
   21.3290  -26.4990   40.6790 C   0  0  0  0  0  0  0  0  0  0  0  0
   20.8230  -27.4780   39.8200 C   0  0  0  0  0  0  0  0  0  0  0  0
   21.2900  -28.7940   39.8870 C   0  0  0  0  0  0  0  0  0  0  0  0
   20.7570  -29.8550   39.0070 C   0  0  0  0  0  0  0  0  0  0  0  0
   20.0890  -30.8520   39.7090 O   0  0  0  0  0  0  0  0  0  0  0  0
   19.5420  -31.9000   39.0140 C   0  0  0  0  0  0  0  0  0  0  0  0
   18.8690  -32.8710   39.7570 C   0  0  0  0  0  0  0  0  0  0  0  0
   18.2900  -33.9660   39.1100 C   0  0  0  0  0  0  0  0  0  0  0  0
   18.3850  -34.0900   37.7230 C   0  0  0  0  0  0  0  0  0  0  0  0
   19.0580  -33.1200   36.9840 C   0  0  0  0  0  0  0  0  0  0  0  0
   19.1140  -33.3040   35.6290 O   0  0  0  0  0  0  0  0  0  0  0  0
   19.6360  -32.0250   37.6310 C   0  0  0  0  0  0  0  0  0  0  0  0
   20.3510  -30.9830   36.8920 C   0  0  0  0  0  0  0  0  0  0  0  0
   20.4830  -31.0250   35.6700 O   0  0  0  0  0  0  0  0  0  0  0  0
   20.9210  -29.8590   37.6710 C   0  0  0  0  0  0  0  0  0  0  0  0
   21.6060  -28.8880   36.9640 O   0  0  0  0  0  0  0  0  0  0  0  0
   22.2630  -29.1060   40.8490 C   0  0  0  0  0  0  0  0  0  0  0  0
   22.7770  -28.1340   41.7260 C   0  0  0  0  0  0  0  0  0  0  0  0
   23.8310  -28.5380   42.7210 C   0  0  0  0  0  0  0  0  0  0  0  0
   22.2138  -25.3789   46.2153 H   0  0  0  0  0  0  0  0  0  0  0  0
   22.1710  -26.5797   44.8800 H   0  0  0  0  0  0  0  0  0  0  0  0
   23.4112  -25.2803   44.8800 H   0  0  0  0  0  0  0  0  0  0  0  0
   20.3916  -24.9503   44.5414 H   0  0  0  0  0  0  0  0  0  0  0  0
   21.5813  -23.5925   44.6945 H   0  0  0  0  0  0  0  0  0  0  0  0
   20.7853  -24.9848   42.3308 H   0  0  0  0  0  0  0  0  0  0  0  0
   22.0397  -23.6951   42.5223 H   0  0  0  0  0  0  0  0  0  0  0  0
   23.6393  -25.1798   42.0390 H   0  0  0  0  0  0  0  0  0  0  0  0
   23.1386  -26.1568   43.4828 H   0  0  0  0  0  0  0  0  0  0  0  0
   20.9502  -25.4687   40.6076 H   0  0  0  0  0  0  0  0  0  0  0  0
   20.0501  -27.2108   39.0843 H   0  0  0  0  0  0  0  0  0  0  0  0
   18.7944  -32.7745   40.8502 H   0  0  0  0  0  0  0  0  0  0  0  0
   17.7586  -34.7313   39.6947 H   0  0  0  0  0  0  0  0  0  0  0  0
   17.9291  -34.9523   37.2144 H   0  0  0  0  0  0  0  0  0  0  0  0
   18.4770  -33.8420   35.2030 H   0  0  0  0  0  0  0  0  0  0  0  0
   21.4900  -27.9830   37.1790 H   0  0  0  0  0  0  0  0  0  0  0  0
   22.6339  -30.1392   40.9190 H   0  0  0  0  0  0  0  0  0  0  0  0
   23.4475  -28.3910   43.7414 H   0  0  0  0  0  0  0  0  0  0  0  0
   24.0866  -29.5978   42.5745 H   0  0  0  0  0  0  0  0  0  0  0  0
   24.7295  -27.9205   42.5745 H   0  0  0  0  0  0  0  0  0  0  0  0
  1  2  1  0
  2  3  1  0
  3  4  1  0
  4  5  1  0
  5  6  2  0
  6  7  1  0
  7  8  2  0
  8  9  1  0
  9 10  1  0
 10 11  1  0
 11 12  2  0
 12 13  1  0
 13 14  2  0
 14 15  1  0
 15 16  1  0
 15 17  2  0
 17 18  1  0
 18 19  2  0
 18 20  1  0
 20 21  1  0
  8 22  1  0
 22 23  2  0
 23 24  1  0
 23  5  1  0
 20  9  2  0
 17 11  1  0
  1 25  1  0
  1 26  1  0
  1 27  1  0
  2 28  1  0
  2 29  1  0
  3 30  1  0
  3 31  1  0
  4 32  1  0
  4 33  1  0
  6 34  1  0
  7 35  1  0
 12 36  1  0
 13 37  1  0
 14 38  1  0
 16 39  1  0
 21 40  1  0
 22 41  1  0
 24 42  1  0
 24 43  1  0
 24 44  1  0
M  END
>  <meeko>  (4) 
{"is_sidechain": [false], "free_energy": -8.7, "intermolecular_energy": -11.269, "internal_energy": -0.713}

$$$$
cand_052_out
     RDKit          3D

 44 46  0  0  0  0  0  0  0  0999 V2000
   24.6470  -28.8460   44.2150 C   0  0  0  0  0  0  0  0  0  0  0  0
   24.0850  -27.4490   44.0070 C   0  0  0  0  0  0  0  0  0  0  0  0
   22.6020  -27.4910   43.6370 C   0  0  0  0  0  0  0  0  0  0  0  0
   22.3600  -26.8850   42.2520 C   0  0  0  0  0  0  0  0  0  0  0  0
   21.8280  -27.9120   41.2760 C   0  0  0  0  0  0  0  0  0  0  0  0
   22.6720  -28.9660   40.8890 C   0  0  0  0  0  0  0  0  0  0  0  0
   22.2410  -29.9390   39.9850 C   0  0  0  0  0  0  0  0  0  0  0  0
   20.9530  -29.8910   39.4450 C   0  0  0  0  0  0  0  0  0  0  0  0
   20.4790  -30.8940   38.4690 C   0  0  0  0  0  0  0  0  0  0  0  0
   20.8270  -30.5800   37.1600 O   0  0  0  0  0  0  0  0  0  0  0  0
   20.4510  -31.4290   36.1510 C   0  0  0  0  0  0  0  0  0  0  0  0
   20.8340  -31.0810   34.8550 C   0  0  0  0  0  0  0  0  0  0  0  0
   20.4810  -31.9020   33.7800 C   0  0  0  0  0  0  0  0  0  0  0  0
   19.7440  -33.0670   34.0020 C   0  0  0  0  0  0  0  0  0  0  0  0
   19.3630  -33.4110   35.2970 C   0  0  0  0  0  0  0  0  0  0  0  0
   18.6430  -34.5650   35.4420 O   0  0  0  0  0  0  0  0  0  0  0  0
   19.7170  -32.5900   36.3710 C   0  0  0  0  0  0  0  0  0  0  0  0
   19.3370  -32.9150   37.7470 C   0  0  0  0  0  0  0  0  0  0  0  0
   18.6830  -33.9200   38.0220 O   0  0  0  0  0  0  0  0  0  0  0  0
   19.7690  -31.9840   38.8150 C   0  0  0  0  0  0  0  0  0  0  0  0
   19.3920  -32.2930   40.1090 O   0  0  0  0  0  0  0  0  0  0  0  0
   20.1140  -28.8300   39.8200 C   0  0  0  0  0  0  0  0  0  0  0  0
   20.5350  -27.8360   40.7240 C   0  0  0  0  0  0  0  0  0  0  0  0
   19.5750  -26.7380   41.0940 C   0  0  0  0  0  0  0  0  0  0  0  0
   24.7296  -29.0513   45.2925 H   0  0  0  0  0  0  0  0  0  0  0  0
   23.9758  -29.5840   43.7515 H   0  0  0  0  0  0  0  0  0  0  0  0
   25.6423  -28.9136   43.7515 H   0  0  0  0  0  0  0  0  0  0  0  0
   24.2053  -26.8733   44.9365 H   0  0  0  0  0  0  0  0  0  0  0  0
   24.6339  -26.9758   43.1795 H   0  0  0  0  0  0  0  0  0  0  0  0
   22.2620  -28.5371   43.6354 H   0  0  0  0  0  0  0  0  0  0  0  0
   22.0412  -26.9023   44.3778 H   0  0  0  0  0  0  0  0  0  0  0  0
   21.6291  -26.0680   42.3433 H   0  0  0  0  0  0  0  0  0  0  0  0
   23.3214  -26.5133   41.8680 H   0  0  0  0  0  0  0  0  0  0  0  0
   23.6887  -29.0258   41.3047 H   0  0  0  0  0  0  0  0  0  0  0  0
   22.9227  -30.7521   39.6948 H   0  0  0  0  0  0  0  0  0  0  0  0
   21.4127  -30.1621   34.6796 H   0  0  0  0  0  0  0  0  0  0  0  0
   20.7842  -31.6300   32.7582 H   0  0  0  0  0  0  0  0  0  0  0  0
   19.4648  -33.7120   33.1558 H   0  0  0  0  0  0  0  0  0  0  0  0
   18.9970  -35.3790   35.1450 H   0  0  0  0  0  0  0  0  0  0  0  0
   18.6230  -31.9040   40.4780 H   0  0  0  0  0  0  0  0  0  0  0  0
   19.1005  -28.7736   39.3963 H   0  0  0  0  0  0  0  0  0  0  0  0
   19.5089  -26.6624   42.1894 H   0  0  0  0  0  0  0  0  0  0  0  0
   19.9333  -25.7833   40.6815 H   0  0  0  0  0  0  0  0  0  0  0  0
   18.5810  -26.9656   40.6815 H   0  0  0  0  0  0  0  0  0  0  0  0
  1  2  1  0
  2  3  1  0
  3  4  1  0
  4  5  1  0
  5  6  2  0
  6  7  1  0
  7  8  2  0
  8  9  1  0
  9 10  1  0
 10 11  1  0
 11 12  2  0
 12 13  1  0
 13 14  2  0
 14 15  1  0
 15 16  1  0
 15 17  2  0
 17 18  1  0
 18 19  2  0
 18 20  1  0
 20 21  1  0
  8 22  1  0
 22 23  2  0
 23 24  1  0
 23  5  1  0
 20  9  2  0
 17 11  1  0
  1 25  1  0
  1 26  1  0
  1 27  1  0
  2 28  1  0
  2 29  1  0
  3 30  1  0
  3 31  1  0
  4 32  1  0
  4 33  1  0
  6 34  1  0
  7 35  1  0
 12 36  1  0
 13 37  1  0
 14 38  1  0
 16 39  1  0
 21 40  1  0
 22 41  1  0
 24 42  1  0
 24 43  1  0
 24 44  1  0
M  END
>  <meeko>  (5) 
{"is_sidechain": [false], "free_energy": -8.669, "intermolecular_energy": -11.177, "internal_energy": -0.766}

$$$$
cand_052_out
     RDKit          3D

 44 46  0  0  0  0  0  0  0  0999 V2000
   19.6580  -34.4700   34.7770 C   0  0  0  0  0  0  0  0  0  0  0  0
   20.0590  -33.2040   34.0390 C   0  0  0  0  0  0  0  0  0  0  0  0
   20.0730  -31.9920   34.9710 C   0  0  0  0  0  0  0  0  0  0  0  0
   19.6690  -32.3840   36.3950 C   0  0  0  0  0  0  0  0  0  0  0  0
   20.1310  -31.3610   37.4110 C   0  0  0  0  0  0  0  0  0  0  0  0
   20.8020  -30.2180   36.9500 C   0  0  0  0  0  0  0  0  0  0  0  0
   21.2600  -29.2430   37.8390 C   0  0  0  0  0  0  0  0  0  0  0  0
   21.0560  -29.3800   39.2150 C   0  0  0  0  0  0  0  0  0  0  0  0
   21.5500  -28.3760   40.1800 C   0  0  0  0  0  0  0  0  0  0  0  0
   22.4470  -28.9070   41.0990 O   0  0  0  0  0  0  0  0  0  0  0  0
   22.9860  -28.0830   42.0540 C   0  0  0  0  0  0  0  0  0  0  0  0
   23.8920  -28.6550   42.9460 C   0  0  0  0  0  0  0  0  0  0  0  0
   24.4760  -27.8710   43.9450 C   0  0  0  0  0  0  0  0  0  0  0  0
   24.1530  -26.5170   44.0500 C   0  0  0  0  0  0  0  0  0  0  0  0
   23.2470  -25.9490   43.1570 C   0  0  0  0  0  0  0  0  0  0  0  0
   22.9750  -24.6170   43.3180 O   0  0  0  0  0  0  0  0  0  0  0  0
   22.6640  -26.7330   42.1590 C   0  0  0  0  0  0  0  0  0  0  0  0
   21.7080  -26.1760   41.2010 C   0  0  0  0  0  0  0  0  0  0  0  0
   21.3680  -24.9940   41.2330 O   0  0  0  0  0  0  0  0  0  0  0  0
   21.1530  -27.0900   40.1750 C   0  0  0  0  0  0  0  0  0  0  0  0
   20.2410  -26.5550   39.2840 O   0  0  0  0  0  0  0  0  0  0  0  0
   20.3970  -30.5300   39.6770 C   0  0  0  0  0  0  0  0  0  0  0  0
   19.9360  -31.5260   38.7960 C   0  0  0  0  0  0  0  0  0  0  0  0
   19.2230  -32.7240   39.3630 C   0  0  0  0  0  0  0  0  0  0  0  0
   19.7133  -34.2953   35.8616 H   0  0  0  0  0  0  0  0  0  0  0  0
   18.6289  -34.7445   34.5019 H   0  0  0  0  0  0  0  0  0  0  0  0
   20.3414  -35.2869   34.5019 H   0  0  0  0  0  0  0  0  0  0  0  0
   21.0649  -33.3407   33.6155 H   0  0  0  0  0  0  0  0  0  0  0  0
   19.3210  -33.0195   33.2444 H   0  0  0  0  0  0  0  0  0  0  0  0
   21.0869  -31.5657   34.9901 H   0  0  0  0  0  0  0  0  0  0  0  0
   19.3493  -31.2543   34.5941 H   0  0  0  0  0  0  0  0  0  0  0  0
   18.5732  -32.4657   36.4447 H   0  0  0  0  0  0  0  0  0  0  0  0
   20.1478  -33.3449   36.6345 H   0  0  0  0  0  0  0  0  0  0  0  0
   20.9700  -30.0878   35.8707 H   0  0  0  0  0  0  0  0  0  0  0  0
   21.7867  -28.3581   37.4523 H   0  0  0  0  0  0  0  0  0  0  0  0
   24.1469  -29.7219   42.8637 H   0  0  0  0  0  0  0  0  0  0  0  0
   25.1909  -28.3215   44.6492 H   0  0  0  0  0  0  0  0  0  0  0  0
   24.6128  -25.8999   44.8360 H   0  0  0  0  0  0  0  0  0  0  0  0
   22.0890  -24.3150   43.3040 H   0  0  0  0  0  0  0  0  0  0  0  0
   19.8550  -25.7190   39.4550 H   0  0  0  0  0  0  0  0  0  0  0  0
   20.2364  -30.6563   40.7579 H   0  0  0  0  0  0  0  0  0  0  0  0
   19.2491  -32.6801   40.4618 H   0  0  0  0  0  0  0  0  0  0  0  0
   18.1776  -32.7244   39.0208 H   0  0  0  0  0  0  0  0  0  0  0  0
   19.7212  -33.6431   39.0208 H   0  0  0  0  0  0  0  0  0  0  0  0
  1  2  1  0
  2  3  1  0
  3  4  1  0
  4  5  1  0
  5  6  2  0
  6  7  1  0
  7  8  2  0
  8  9  1  0
  9 10  1  0
 10 11  1  0
 11 12  2  0
 12 13  1  0
 13 14  2  0
 14 15  1  0
 15 16  1  0
 15 17  2  0
 17 18  1  0
 18 19  2  0
 18 20  1  0
 20 21  1  0
  8 22  1  0
 22 23  2  0
 23 24  1  0
 23  5  1  0
 20  9  2  0
 17 11  1  0
  1 25  1  0
  1 26  1  0
  1 27  1  0
  2 28  1  0
  2 29  1  0
  3 30  1  0
  3 31  1  0
  4 32  1  0
  4 33  1  0
  6 34  1  0
  7 35  1  0
 12 36  1  0
 13 37  1  0
 14 38  1  0
 16 39  1  0
 21 40  1  0
 22 41  1  0
 24 42  1  0
 24 43  1  0
 24 44  1  0
M  END
>  <meeko>  (6) 
{"is_sidechain": [false], "free_energy": -8.669, "intermolecular_energy": -11.415, "internal_energy": -0.528}

$$$$
cand_052_out
     RDKit          3D

 44 46  0  0  0  0  0  0  0  0999 V2000
   21.0800  -24.6870   47.5420 C   0  0  0  0  0  0  0  0  0  0  0  0
   20.3520  -24.1810   46.3060 C   0  0  0  0  0  0  0  0  0  0  0  0
   21.2940  -24.0700   45.1070 C   0  0  0  0  0  0  0  0  0  0  0  0
   22.2060  -25.2950   45.0030 C   0  0  0  0  0  0  0  0  0  0  0  0
   21.9440  -26.0830   43.7370 C   0  0  0  0  0  0  0  0  0  0  0  0
   20.7230  -25.8920   43.0720 C   0  0  0  0  0  0  0  0  0  0  0  0
   20.4200  -26.5950   41.9050 C   0  0  0  0  0  0  0  0  0  0  0  0
   21.3320  -27.5070   41.3650 C   0  0  0  0  0  0  0  0  0  0  0  0
   21.0280  -28.2830   40.1440 C   0  0  0  0  0  0  0  0  0  0  0  0
   20.6370  -29.5890   40.4180 O   0  0  0  0  0  0  0  0  0  0  0  0
   20.3230  -30.4210   39.3730 C   0  0  0  0  0  0  0  0  0  0  0  0
   19.9230  -31.7170   39.6950 C   0  0  0  0  0  0  0  0  0  0  0  0
   19.5910  -32.6170   38.6780 C   0  0  0  0  0  0  0  0  0  0  0  0
   19.6620  -32.2190   37.3420 C   0  0  0  0  0  0  0  0  0  0  0  0
   20.0620  -30.9230   37.0240 C   0  0  0  0  0  0  0  0  0  0  0  0
   20.1100  -30.6000   35.6950 O   0  0  0  0  0  0  0  0  0  0  0  0
   20.3930  -30.0240   38.0420 C   0  0  0  0  0  0  0  0  0  0  0  0
   20.8190  -28.6540   37.7510 C   0  0  0  0  0  0  0  0  0  0  0  0
   20.9120  -28.2320   36.6000 O   0  0  0  0  0  0  0  0  0  0  0  0
   21.1390  -27.7780   38.9020 C   0  0  0  0  0  0  0  0  0  0  0  0
   21.5530  -26.4900   38.6150 O   0  0  0  0  0  0  0  0  0  0  0  0
   22.5470  -27.7090   42.0370 C   0  0  0  0  0  0  0  0  0  0  0  0
   22.8650  -27.0140   43.2190 C   0  0  0  0  0  0  0  0  0  0  0  0
   24.1950  -27.2690   43.8760 C   0  0  0  0  0  0  0  0  0  0  0  0
   20.5635  -24.3280   48.4444 H   0  0  0  0  0  0  0  0  0  0  0  0
   21.0889  -25.7870   47.5377 H   0  0  0  0  0  0  0  0  0  0  0  0
   22.1141  -24.3120   47.5377 H   0  0  0  0  0  0  0  0  0  0  0  0
   19.5394  -24.8799   46.0586 H   0  0  0  0  0  0  0  0  0  0  0  0
   19.9538  -23.1795   46.5259 H   0  0  0  0  0  0  0  0  0  0  0  0
   20.6959  -23.9891   44.1873 H   0  0  0  0  0  0  0  0  0  0  0  0
   21.9236  -23.1779   45.2406 H   0  0  0  0  0  0  0  0  0  0  0  0
   23.2538  -24.9603   45.0040 H   0  0  0  0  0  0  0  0  0  0  0  0
   22.0001  -25.9495   45.8628 H   0  0  0  0  0  0  0  0  0  0  0  0
   19.9926  -25.1763   43.4773 H   0  0  0  0  0  0  0  0  0  0  0  0
   19.4542  -26.4300   41.4051 H   0  0  0  0  0  0  0  0  0  0  0  0
   19.8687  -32.0311   40.7478 H   0  0  0  0  0  0  0  0  0  0  0  0
   19.2736  -33.6394   38.9308 H   0  0  0  0  0  0  0  0  0  0  0  0
   19.4025  -32.9275   36.5416 H   0  0  0  0  0  0  0  0  0  0  0  0
   20.4440  -29.7670   35.4270 H   0  0  0  0  0  0  0  0  0  0  0  0
   21.9770  -26.3050   37.8000 H   0  0  0  0  0  0  0  0  0  0  0  0
   23.2707  -28.4300   41.6291 H   0  0  0  0  0  0  0  0  0  0  0  0
   24.0744  -27.2459   44.9691 H   0  0  0  0  0  0  0  0  0  0  0  0
   24.5722  -28.2558   43.5695 H   0  0  0  0  0  0  0  0  0  0  0  0
   24.9104  -26.4917   43.5695 H   0  0  0  0  0  0  0  0  0  0  0  0
  1  2  1  0
  2  3  1  0
  3  4  1  0
  4  5  1  0
  5  6  2  0
  6  7  1  0
  7  8  2  0
  8  9  1  0
  9 10  1  0
 10 11  1  0
 11 12  2  0
 12 13  1  0
 13 14  2  0
 14 15  1  0
 15 16  1  0
 15 17  2  0
 17 18  1  0
 18 19  2  0
 18 20  1  0
 20 21  1  0
  8 22  1  0
 22 23  2  0
 23 24  1  0
 23  5  1  0
 20  9  2  0
 17 11  1  0
  1 25  1  0
  1 26  1  0
  1 27  1  0
  2 28  1  0
  2 29  1  0
  3 30  1  0
  3 31  1  0
  4 32  1  0
  4 33  1  0
  6 34  1  0
  7 35  1  0
 12 36  1  0
 13 37  1  0
 14 38  1  0
 16 39  1  0
 21 40  1  0
 22 41  1  0
 24 42  1  0
 24 43  1  0
 24 44  1  0
M  END
>  <meeko>  (7) 
{"is_sidechain": [false], "free_energy": -8.173, "intermolecular_energy": -10.646, "internal_energy": -0.655}

$$$$
cand_052_out
     RDKit          3D

 44 46  0  0  0  0  0  0  0  0999 V2000
   20.0950  -32.9000   33.8150 C   0  0  0  0  0  0  0  0  0  0  0  0
   20.3400  -31.4270   33.5320 C   0  0  0  0  0  0  0  0  0  0  0  0
   20.6800  -30.6600   34.8100 C   0  0  0  0  0  0  0  0  0  0  0  0
   20.1280  -31.3720   36.0470 C   0  0  0  0  0  0  0  0  0  0  0  0
   20.5600  -30.6890   37.3270 C   0  0  0  0  0  0  0  0  0  0  0  0
   21.3460  -29.5300   37.2330 C   0  0  0  0  0  0  0  0  0  0  0  0
   21.7830  -28.8600   38.3780 C   0  0  0  0  0  0  0  0  0  0  0  0
   21.4430  -29.3280   39.6510 C   0  0  0  0  0  0  0  0  0  0  0  0
   21.9110  -28.6530   40.8790 C   0  0  0  0  0  0  0  0  0  0  0  0
   21.1090  -27.5770   41.2420 O   0  0  0  0  0  0  0  0  0  0  0  0
   21.4290  -26.8600   42.3670 C   0  0  0  0  0  0  0  0  0  0  0  0
   20.5890  -25.7980   42.7010 C   0  0  0  0  0  0  0  0  0  0  0  0
   20.8590  -25.0250   43.8340 C   0  0  0  0  0  0  0  0  0  0  0  0
   21.9690  -25.3140   44.6290 C   0  0  0  0  0  0  0  0  0  0  0  0
   22.8060  -26.3750   44.2920 C   0  0  0  0  0  0  0  0  0  0  0  0
   23.8760  -26.6020   45.1150 O   0  0  0  0  0  0  0  0  0  0  0  0
   22.5350  -27.1470   43.1600 C   0  0  0  0  0  0  0  0  0  0  0  0
   23.3890  -28.2710   42.7710 C   0  0  0  0  0  0  0  0  0  0  0  0
   24.3880  -28.5830   43.4170 O   0  0  0  0  0  0  0  0  0  0  0  0
   23.0100  -29.0320   41.5580 C   0  0  0  0  0  0  0  0  0  0  0  0
   23.8310  -30.0820   41.1920 O   0  0  0  0  0  0  0  0  0  0  0  0
   20.6700  -30.4950   39.7450 C   0  0  0  0  0  0  0  0  0  0  0  0
   20.2270  -31.1860   38.6020 C   0  0  0  0  0  0  0  0  0  0  0  0
   19.3860  -32.4210   38.7800 C   0  0  0  0  0  0  0  0  0  0  0  0
   20.0676  -33.0649   34.9022 H   0  0  0  0  0  0  0  0  0  0  0  0
   19.1341  -33.2033   33.3738 H   0  0  0  0  0  0  0  0  0  0  0  0
   20.9060  -33.4980   33.3738 H   0  0  0  0  0  0  0  0  0  0  0  0
   21.1777  -31.3333   32.8253 H   0  0  0  0  0  0  0  0  0  0  0  0
   19.4198  -30.9994   33.1073 H   0  0  0  0  0  0  0  0  0  0  0  0
   21.7734  -30.5801   34.9002 H   0  0  0  0  0  0  0  0  0  0  0  0
   20.2215  -29.6620   34.7493 H   0  0  0  0  0  0  0  0  0  0  0  0
   19.0291  -31.3728   35.9969 H   0  0  0  0  0  0  0  0  0  0  0  0
   20.5235  -32.3984   36.0563 H   0  0  0  0  0  0  0  0  0  0  0  0
   21.6224  -29.1429   36.2412 H   0  0  0  0  0  0  0  0  0  0  0  0
   22.4007  -27.9554   38.2773 H   0  0  0  0  0  0  0  0  0  0  0  0
   19.7150  -25.5689   42.0736 H   0  0  0  0  0  0  0  0  0  0  0  0
   20.1960  -24.1883   44.0991 H   0  0  0  0  0  0  0  0  0  0  0  0
   22.1824  -24.7051   45.5199 H   0  0  0  0  0  0  0  0  0  0  0  0
   24.5160  -25.9310   45.2480 H   0  0  0  0  0  0  0  0  0  0  0  0
   24.3220  -30.5410   41.8450 H   0  0  0  0  0  0  0  0  0  0  0  0
   20.4028  -30.8806   40.7399 H   0  0  0  0  0  0  0  0  0  0  0  0
   19.2501  -32.6205   39.8532 H   0  0  0  0  0  0  0  0  0  0  0  0
   18.4042  -32.2671   38.3085 H   0  0  0  0  0  0  0  0  0  0  0  0
   19.8889  -33.2782   38.3085 H   0  0  0  0  0  0  0  0  0  0  0  0
  1  2  1  0
  2  3  1  0
  3  4  1  0
  4  5  1  0
  5  6  2  0
  6  7  1  0
  7  8  2  0
  8  9  1  0
  9 10  1  0
 10 11  1  0
 11 12  2  0
 12 13  1  0
 13 14  2  0
 14 15  1  0
 15 16  1  0
 15 17  2  0
 17 18  1  0
 18 19  2  0
 18 20  1  0
 20 21  1  0
  8 22  1  0
 22 23  2  0
 23 24  1  0
 23  5  1  0
 20  9  2  0
 17 11  1  0
  1 25  1  0
  1 26  1  0
  1 27  1  0
  2 28  1  0
  2 29  1  0
  3 30  1  0
  3 31  1  0
  4 32  1  0
  4 33  1  0
  6 34  1  0
  7 35  1  0
 12 36  1  0
 13 37  1  0
 14 38  1  0
 16 39  1  0
 21 40  1  0
 22 41  1  0
 24 42  1  0
 24 43  1  0
 24 44  1  0
M  END
>  <meeko>  (8) 
{"is_sidechain": [false], "free_energy": -8.1, "intermolecular_energy": -10.575, "internal_energy": -0.632}

$$$$
cand_052_out
     RDKit          3D

 44 46  0  0  0  0  0  0  0  0999 V2000
   23.8480  -26.1070   43.8890 C   0  0  0  0  0  0  0  0  0  0  0  0
   22.8840  -26.0370   42.7150 C   0  0  0  0  0  0  0  0  0  0  0  0
   22.2780  -27.4060   42.4050 C   0  0  0  0  0  0  0  0  0  0  0  0
   20.8650  -27.2690   41.8320 C   0  0  0  0  0  0  0  0  0  0  0  0
   20.7090  -28.0360   40.5360 C   0  0  0  0  0  0  0  0  0  0  0  0
   21.6830  -28.9910   40.2040 C   0  0  0  0  0  0  0  0  0  0  0  0
   21.5980  -29.7240   39.0180 C   0  0  0  0  0  0  0  0  0  0  0  0
   20.5350  -29.5260   38.1320 C   0  0  0  0  0  0  0  0  0  0  0  0
   20.4330  -30.2710   36.8590 C   0  0  0  0  0  0  0  0  0  0  0  0
   20.0410  -31.5930   37.0380 O   0  0  0  0  0  0  0  0  0  0  0  0
   19.9050  -32.4000   35.9370 C   0  0  0  0  0  0  0  0  0  0  0  0
   19.4960  -33.7140   36.1620 C   0  0  0  0  0  0  0  0  0  0  0  0
   19.3400  -34.5900   35.0840 C   0  0  0  0  0  0  0  0  0  0  0  0
   19.5950  -34.1500   33.7830 C   0  0  0  0  0  0  0  0  0  0  0  0
   20.0030  -32.8370   33.5620 C   0  0  0  0  0  0  0  0  0  0  0  0
   20.2360  -32.4730   32.2640 O   0  0  0  0  0  0  0  0  0  0  0  0
   20.1580  -31.9620   34.6410 C   0  0  0  0  0  0  0  0  0  0  0  0
   20.5860  -30.5750   34.4520 C   0  0  0  0  0  0  0  0  0  0  0  0
   20.8350  -30.1160   33.3390 O   0  0  0  0  0  0  0  0  0  0  0  0
   20.7120  -29.7270   35.6600 C   0  0  0  0  0  0  0  0  0  0  0  0
   21.1300  -28.4220   35.4720 O   0  0  0  0  0  0  0  0  0  0  0  0
   19.5690  -28.5620   38.4570 C   0  0  0  0  0  0  0  0  0  0  0  0
   19.6430  -27.8090   39.6440 C   0  0  0  0  0  0  0  0  0  0  0  0
   18.5610  -26.8040   39.9350 C   0  0  0  0  0  0  0  0  0  0  0  0
   23.2819  -26.0659   44.8312 H   0  0  0  0  0  0  0  0  0  0  0  0
   24.4147  -27.0487   43.8425 H   0  0  0  0  0  0  0  0  0  0  0  0
   24.5448  -25.2571   43.8425 H   0  0  0  0  0  0  0  0  0  0  0  0
   22.0736  -25.3345   42.9594 H   0  0  0  0  0  0  0  0  0  0  0  0
   23.4423  -25.6983   41.8298 H   0  0  0  0  0  0  0  0  0  0  0  0
   22.9143  -27.9222   41.6711 H   0  0  0  0  0  0  0  0  0  0  0  0
   22.2201  -27.9813   43.3408 H   0  0  0  0  0  0  0  0  0  0  0  0
   20.1436  -27.6583   42.5656 H   0  0  0  0  0  0  0  0  0  0  0  0
   20.6810  -26.2045   41.6245 H   0  0  0  0  0  0  0  0  0  0  0  0
   22.5263  -29.1648   40.8886 H   0  0  0  0  0  0  0  0  0  0  0  0
   22.3754  -30.4646   38.7788 H   0  0  0  0  0  0  0  0  0  0  0  0
   19.2964  -34.0608   37.1866 H   0  0  0  0  0  0  0  0  0  0  0  0
   19.0163  -35.6264   35.2603 H   0  0  0  0  0  0  0  0  0  0  0  0
   19.4737  -34.8395   32.9345 H   0  0  0  0  0  0  0  0  0  0  0  0
   20.5630  -31.6180   32.0680 H   0  0  0  0  0  0  0  0  0  0  0  0
   22.0100  -28.1780   35.6790 H   0  0  0  0  0  0  0  0  0  0  0  0
   18.7310  -28.3899   37.7655 H   0  0  0  0  0  0  0  0  0  0  0  0
   18.4443  -26.6956   41.0234 H   0  0  0  0  0  0  0  0  0  0  0  0
   18.8352  -25.8329   39.4971 H   0  0  0  0  0  0  0  0  0  0  0  0
   17.6127  -27.1490   39.4971 H   0  0  0  0  0  0  0  0  0  0  0  0
  1  2  1  0
  2  3  1  0
  3  4  1  0
  4  5  1  0
  5  6  2  0
  6  7  1  0
  7  8  2  0
  8  9  1  0
  9 10  1  0
 10 11  1  0
 11 12  2  0
 12 13  1  0
 13 14  2  0
 14 15  1  0
 15 16  1  0
 15 17  2  0
 17 18  1  0
 18 19  2  0
 18 20  1  0
 20 21  1  0
  8 22  1  0
 22 23  2  0
 23 24  1  0
 23  5  1  0
 20  9  2  0
 17 11  1  0
  1 25  1  0
  1 26  1  0
  1 27  1  0
  2 28  1  0
  2 29  1  0
  3 30  1  0
  3 31  1  0
  4 32  1  0
  4 33  1  0
  6 34  1  0
  7 35  1  0
 12 36  1  0
 13 37  1  0
 14 38  1  0
 16 39  1  0
 21 40  1  0
 22 41  1  0
 24 42  1  0
 24 43  1  0
 24 44  1  0
M  END
>  <meeko>  (9) 
{"is_sidechain": [false], "free_energy": -8.054, "intermolecular_energy": -10.585, "internal_energy": -0.563}

$$$$
