cand_054_out
     RDKit          3D

 46 48  0  0  0  0  0  0  0  0999 V2000
   20.0610  -24.9370   43.7820 C   0  0  0  0  0  0  0  0  0  0  0  0
   19.8030  -25.9960   42.7200 C   0  0  0  0  0  0  0  0  0  0  0  0
   20.7890  -25.9150   41.6230 N   0  0  0  0  0  0  0  0  0  0  0  0
   20.2880  -25.2820   40.3860 C   0  0  0  0  0  0  0  0  0  0  0  0
   18.7790  -25.0990   40.4660 C   0  0  0  0  0  0  0  0  0  0  0  0
   21.4000  -27.1610   41.3210 C   0  0  0  0  0  0  0  0  0  0  0  0
   20.8320  -28.0660   40.4040 C   0  0  0  0  0  0  0  0  0  0  0  0
   21.4510  -29.2860   40.0940 C   0  0  0  0  0  0  0  0  0  0  0  0
   20.8420  -30.2490   39.1520 C   0  0  0  0  0  0  0  0  0  0  0  0
   20.1900  -31.2950   39.7950 O   0  0  0  0  0  0  0  0  0  0  0  0
   19.5780  -32.2610   39.0390 C   0  0  0  0  0  0  0  0  0  0  0  0
   18.9240  -33.2840   39.7270 C   0  0  0  0  0  0  0  0  0  0  0  0
   18.2820  -34.3010   39.0160 C   0  0  0  0  0  0  0  0  0  0  0  0
   18.2960  -34.2950   37.6190 C   0  0  0  0  0  0  0  0  0  0  0  0
   18.9510  -33.2730   36.9370 C   0  0  0  0  0  0  0  0  0  0  0  0
   18.9250  -33.3290   35.5690 O   0  0  0  0  0  0  0  0  0  0  0  0
   19.5920  -32.2550   37.6480 C   0  0  0  0  0  0  0  0  0  0  0  0
   20.2900  -31.1630   36.9690 C   0  0  0  0  0  0  0  0  0  0  0  0
   20.3530  -31.0920   35.7430 O   0  0  0  0  0  0  0  0  0  0  0  0
   20.9310  -30.1300   37.8140 C   0  0  0  0  0  0  0  0  0  0  0  0
   21.5990  -29.1100   37.1620 O   0  0  0  0  0  0  0  0  0  0  0  0
   22.6580  -29.6040   40.7290 C   0  0  0  0  0  0  0  0  0  0  0  0
   23.2420  -28.7140   41.6330 C   0  0  0  0  0  0  0  0  0  0  0  0
   22.6290  -27.4900   41.9300 C   0  0  0  0  0  0  0  0  0  0  0  0
   23.2840  -26.5470   42.9030 C   0  0  0  0  0  0  0  0  0  0  0  0
   19.9519  -25.3850   44.7807 H   0  0  0  0  0  0  0  0  0  0  0  0
   21.0814  -24.5428   43.6665 H   0  0  0  0  0  0  0  0  0  0  0  0
   19.3362  -24.1177   43.6665 H   0  0  0  0  0  0  0  0  0  0  0  0
   19.8665  -26.9910   43.1847 H   0  0  0  0  0  0  0  0  0  0  0  0
   18.8021  -25.8239   42.2974 H   0  0  0  0  0  0  0  0  0  0  0  0
   20.7674  -24.3000   40.2600 H   0  0  0  0  0  0  0  0  0  0  0  0
   20.5273  -25.9282   39.5286 H   0  0  0  0  0  0  0  0  0  0  0  0
   18.4696  -25.0615   41.5209 H   0  0  0  0  0  0  0  0  0  0  0  0
   18.4966  -24.1600   39.9674 H   0  0  0  0  0  0  0  0  0  0  0  0
   18.2803  -25.9433   39.9674 H   0  0  0  0  0  0  0  0  0  0  0  0
   19.8788  -27.8098   39.9184 H   0  0  0  0  0  0  0  0  0  0  0  0
   18.9140  -33.2896   40.8269 H   0  0  0  0  0  0  0  0  0  0  0  0
   17.7649  -35.1074   39.5568 H   0  0  0  0  0  0  0  0  0  0  0  0
   17.7907  -35.0958   37.0592 H   0  0  0  0  0  0  0  0  0  0  0  0
   19.1540  -32.5720   35.0650 H   0  0  0  0  0  0  0  0  0  0  0  0
   22.1310  -28.5110   37.6480 H   0  0  0  0  0  0  0  0  0  0  0  0
   23.1506  -30.5637   40.5137 H   0  0  0  0  0  0  0  0  0  0  0  0
   24.1940  -28.9771   42.1172 H   0  0  0  0  0  0  0  0  0  0  0  0
   23.0611  -26.8679   43.9313 H   0  0  0  0  0  0  0  0  0  0  0  0
   24.3725  -26.5543   42.7445 H   0  0  0  0  0  0  0  0  0  0  0  0
   22.8972  -25.5295   42.7445 H   0  0  0  0  0  0  0  0  0  0  0  0
  1  2  1  0
  2  3  1  0
  3  4  1  0
  4  5  1  0
  3  6  1  0
  6  7  2  0
  7  8  1  0
  8  9  1  0
  9 10  1  0
 10 11  1  0
 11 12  2  0
 12 13  1  0
 13 14  2  0
 14 15  1  0
 15 16  1  0
 15 17  2  0
 17 18  1  0
 18 19  2  0
 18 20  1  0
 20 21  1  0
  8 22  2  0
 22 23  1  0
 23 24  2  0
 24 25  1  0
 24  6  1  0
 20  9  2  0
 17 11  1  0
  1 26  1  0
  1 27  1  0
  1 28  1  0
  2 29  1  0
  2 30  1  0
  4 31  1  0
  4 32  1  0
  5 33  1  0
  5 34  1  0
  5 35  1  0
  7 36  1  0
 12 37  1  0
 13 38  1  0
 14 39  1  0
 16 40  1  0
 21 41  1  0
 22 42  1  0
 23 43  1  0
 25 44  1  0
 25 45  1  0
 25 46  1  0
M  END
>  <meeko>  (1) 
{"is_sidechain": [false], "free_energy": -8.622, "intermolecular_energy": -11.143, "internal_energy": -0.72}

$$$$
cand_054_out
     RDKit          3D

 46 48  0  0  0  0  0  0  0  0999 V2000
   24.4570  -30.4190   43.6100 C   0  0  0  0  0  0  0  0  0  0  0  0
   24.4710  -29.4170   42.4640 C   0  0  0  0  0  0  0  0  0  0  0  0
   23.5850  -28.2680   42.7390 N   0  0  0  0  0  0  0  0  0  0  0  0
   22.8810  -28.3270   44.0350 C   0  0  0  0  0  0  0  0  0  0  0  0
   23.4680  -27.3050   44.9990 C   0  0  0  0  0  0  0  0  0  0  0  0
   22.6600  -28.0060   41.6930 C   0  0  0  0  0  0  0  0  0  0  0  0
   22.1590  -29.0300   40.8680 C   0  0  0  0  0  0  0  0  0  0  0  0
   21.2300  -28.7680   39.8500 C   0  0  0  0  0  0  0  0  0  0  0  0
   20.7230  -29.8400   38.9660 C   0  0  0  0  0  0  0  0  0  0  0  0
   20.0680  -30.8490   39.6640 O   0  0  0  0  0  0  0  0  0  0  0  0
   19.5470  -31.9070   38.9660 C   0  0  0  0  0  0  0  0  0  0  0  0
   18.8860  -32.8890   39.7040 C   0  0  0  0  0  0  0  0  0  0  0  0
   18.3330  -33.9950   39.0540 C   0  0  0  0  0  0  0  0  0  0  0  0
   18.4430  -34.1190   37.6670 C   0  0  0  0  0  0  0  0  0  0  0  0
   19.1040  -33.1380   36.9340 C   0  0  0  0  0  0  0  0  0  0  0  0
   19.1750  -33.3220   35.5800 O   0  0  0  0  0  0  0  0  0  0  0  0
   19.6560  -32.0310   37.5840 C   0  0  0  0  0  0  0  0  0  0  0  0
   20.3580  -30.9770   36.8500 C   0  0  0  0  0  0  0  0  0  0  0  0
   20.5020  -31.0180   35.6300 O   0  0  0  0  0  0  0  0  0  0  0  0
   20.9000  -29.8430   37.6320 C   0  0  0  0  0  0  0  0  0  0  0  0
   21.5730  -28.8590   36.9290 O   0  0  0  0  0  0  0  0  0  0  0  0
   20.8090  -27.4470   39.6530 C   0  0  0  0  0  0  0  0  0  0  0  0
   21.2880  -26.4190   40.4690 C   0  0  0  0  0  0  0  0  0  0  0  0
   22.2050  -26.6860   41.4930 C   0  0  0  0  0  0  0  0  0  0  0  0
   22.6980  -25.5600   42.3610 C   0  0  0  0  0  0  0  0  0  0  0  0
   24.4645  -29.8797   44.5687 H   0  0  0  0  0  0  0  0  0  0  0  0
   23.5501  -31.0381   43.5447 H   0  0  0  0  0  0  0  0  0  0  0  0
   25.3462  -31.0632   43.5447 H   0  0  0  0  0  0  0  0  0  0  0  0
   25.4984  -29.0503   42.3223 H   0  0  0  0  0  0  0  0  0  0  0  0
   24.1077  -29.9239   41.5578 H   0  0  0  0  0  0  0  0  0  0  0  0
   21.8142  -28.1088   43.8793 H   0  0  0  0  0  0  0  0  0  0  0  0
   22.9998  -29.3335   44.4626 H   0  0  0  0  0  0  0  0  0  0  0  0
   23.2823  -27.6283   46.0339 H   0  0  0  0  0  0  0  0  0  0  0  0
   24.5517  -27.2215   44.8298 H   0  0  0  0  0  0  0  0  0  0  0  0
   22.9941  -26.3269   44.8298 H   0  0  0  0  0  0  0  0  0  0  0  0
   22.5047  -30.0624   41.0254 H   0  0  0  0  0  0  0  0  0  0  0  0
   18.8003  -32.7926   40.7964 H   0  0  0  0  0  0  0  0  0  0  0  0
   17.8104  -34.7691   39.6351 H   0  0  0  0  0  0  0  0  0  0  0  0
   18.0081  -34.9902   37.1553 H   0  0  0  0  0  0  0  0  0  0  0  0
   19.6340  -34.0620   35.2300 H   0  0  0  0  0  0  0  0  0  0  0  0
   21.7970  -28.9960   36.0310 H   0  0  0  0  0  0  0  0  0  0  0  0
   20.0948  -27.2167   38.8487 H   0  0  0  0  0  0  0  0  0  0  0  0
   20.9408  -25.3882   40.3052 H   0  0  0  0  0  0  0  0  0  0  0  0
   22.5782  -25.8336   43.4197 H   0  0  0  0  0  0  0  0  0  0  0  0
   23.7608  -25.3718   42.1489 H   0  0  0  0  0  0  0  0  0  0  0  0
   22.1154  -24.6514   42.1489 H   0  0  0  0  0  0  0  0  0  0  0  0
  1  2  1  0
  2  3  1  0
  3  4  1  0
  4  5  1  0
  3  6  1  0
  6  7  2  0
  7  8  1  0
  8  9  1  0
  9 10  1  0
 10 11  1  0
 11 12  2  0
 12 13  1  0
 13 14  2  0
 14 15  1  0
 15 16  1  0
 15 17  2  0
 17 18  1  0
 18 19  2  0
 18 20  1  0
 20 21  1  0
  8 22  2  0
 22 23  1  0
 23 24  2  0
 24 25  1  0
 24  6  1  0
 20  9  2  0
 17 11  1  0
  1 26  1  0
  1 27  1  0
  1 28  1  0
  2 29  1  0
  2 30  1  0
  4 31  1  0
  4 32  1  0
  5 33  1  0
  5 34  1  0
  5 35  1  0
  7 36  1  0
 12 37  1  0
 13 38  1  0
 14 39  1  0
 16 40  1  0
 21 41  1  0
 22 42  1  0
 23 43  1  0
 25 44  1  0
 25 45  1  0
 25 46  1  0
M  END
>  <meeko>  (2) 
{"is_sidechain": [false], "free_energy": -8.224, "intermolecular_energy": -11.265, "internal_energy": -0.084}

$$$$
cand_054_out
     RDKit          3D

 46 48  0  0  0  0  0  0  0  0999 V2000
   18.5850  -33.5670   40.0860 C   0  0  0  0  0  0  0  0  0  0  0  0
   18.2850  -32.3210   39.2630 C   0  0  0  0  0  0  0  0  0  0  0  0
   19.0620  -32.3020   38.0070 N   0  0  0  0  0  0  0  0  0  0  0  0
   19.6610  -33.5990   37.6310 C   0  0  0  0  0  0  0  0  0  0  0  0
   18.7010  -34.3830   36.7470 C   0  0  0  0  0  0  0  0  0  0  0  0
   20.0480  -31.2810   37.9690 C   0  0  0  0  0  0  0  0  0  0  0  0
   20.6340  -30.7660   39.1410 C   0  0  0  0  0  0  0  0  0  0  0  0
   21.6220  -29.7710   39.0960 C   0  0  0  0  0  0  0  0  0  0  0  0
   22.2180  -29.2120   40.3280 C   0  0  0  0  0  0  0  0  0  0  0  0
   23.1620  -30.0570   40.9010 O   0  0  0  0  0  0  0  0  0  0  0  0
   23.7950  -29.6610   42.0510 C   0  0  0  0  0  0  0  0  0  0  0  0
   24.7450  -30.5330   42.5830 C   0  0  0  0  0  0  0  0  0  0  0  0
   25.4260  -30.1910   43.7540 C   0  0  0  0  0  0  0  0  0  0  0  0
   25.1530  -28.9790   44.3930 C   0  0  0  0  0  0  0  0  0  0  0  0
   24.2040  -28.1120   43.8600 C   0  0  0  0  0  0  0  0  0  0  0  0
   23.9870  -26.9420   44.5360 O   0  0  0  0  0  0  0  0  0  0  0  0
   23.5250  -28.4540   42.6870 C   0  0  0  0  0  0  0  0  0  0  0  0
   22.5200  -27.5710   42.0940 C   0  0  0  0  0  0  0  0  0  0  0  0
   22.2200  -26.4910   42.6010 O   0  0  0  0  0  0  0  0  0  0  0  0
   21.8630  -28.0220   40.8460 C   0  0  0  0  0  0  0  0  0  0  0  0
   20.9050  -27.1850   40.3010 O   0  0  0  0  0  0  0  0  0  0  0  0
   22.0170  -29.2790   37.8460 C   0  0  0  0  0  0  0  0  0  0  0  0
   21.4550  -29.7840   36.6720 C   0  0  0  0  0  0  0  0  0  0  0  0
   20.4790  -30.7870   36.7200 C   0  0  0  0  0  0  0  0  0  0  0  0
   19.8960  -31.3190   35.4380 C   0  0  0  0  0  0  0  0  0  0  0  0
   18.5260  -33.3221   41.1568 H   0  0  0  0  0  0  0  0  0  0  0  0
   17.8496  -34.3496   39.8478 H   0  0  0  0  0  0  0  0  0  0  0  0
   19.5960  -33.9291   39.8478 H   0  0  0  0  0  0  0  0  0  0  0  0
   17.2123  -32.3028   39.0201 H   0  0  0  0  0  0  0  0  0  0  0  0
   18.5670  -31.4390   39.8567 H   0  0  0  0  0  0  0  0  0  0  0  0
   20.5978  -33.4215   37.0825 H   0  0  0  0  0  0  0  0  0  0  0  0
   19.8649  -34.1789   38.5432 H   0  0  0  0  0  0  0  0  0  0  0  0
   18.0034  -34.9527   37.3784 H   0  0  0  0  0  0  0  0  0  0  0  0
   18.1349  -33.6857   36.1119 H   0  0  0  0  0  0  0  0  0  0  0  0
   19.2711  -35.0770   36.1119 H   0  0  0  0  0  0  0  0  0  0  0  0
   20.3087  -31.1540   40.1175 H   0  0  0  0  0  0  0  0  0  0  0  0
   24.9577  -31.4885   42.0813 H   0  0  0  0  0  0  0  0  0  0  0  0
   26.1775  -30.8763   44.1730 H   0  0  0  0  0  0  0  0  0  0  0  0
   25.6875  -28.7105   45.3162 H   0  0  0  0  0  0  0  0  0  0  0  0
   23.6670  -26.1880   44.0790 H   0  0  0  0  0  0  0  0  0  0  0  0
   21.1630  -26.3850   39.8890 H   0  0  0  0  0  0  0  0  0  0  0  0
   22.7778  -28.4866   37.7884 H   0  0  0  0  0  0  0  0  0  0  0  0
   21.7824  -29.3897   35.6987 H   0  0  0  0  0  0  0  0  0  0  0  0
   19.1016  -32.0439   35.6695 H   0  0  0  0  0  0  0  0  0  0  0  0
   19.4748  -30.4875   34.8539 H   0  0  0  0  0  0  0  0  0  0  0  0
   20.6856  -31.8144   34.8539 H   0  0  0  0  0  0  0  0  0  0  0  0
  1  2  1  0
  2  3  1  0
  3  4  1  0
  4  5  1  0
  3  6  1  0
  6  7  2  0
  7  8  1  0
  8  9  1  0
  9 10  1  0
 10 11  1  0
 11 12  2  0
 12 13  1  0
 13 14  2  0
 14 15  1  0
 15 16  1  0
 15 17  2  0
 17 18  1  0
 18 19  2  0
 18 20  1  0
 20 21  1  0
  8 22  2  0
 22 23  1  0
 23 24  2  0
 24 25  1  0
 24  6  1  0
 20  9  2  0
 17 11  1  0
  1 26  1  0
  1 27  1  0
  1 28  1  0
  2 29  1  0
  2 30  1  0
  4 31  1  0
  4 32  1  0
  5 33  1  0
  5 34  1  0
  5 35  1  0
  7 36  1  0
 12 37  1  0
 13 38  1  0
 14 39  1  0
 16 40  1  0
 21 41  1  0
 22 42  1  0
 23 43  1  0
 25 44  1  0
 25 45  1  0
 25 46  1  0
M  END
>  <meeko>  (3) 
{"is_sidechain": [false], "free_energy": -8.137, "intermolecular_energy": -10.964, "internal_energy": -0.271}

$$$$
cand_054_out
     RDKit          3D

 46 48  0  0  0  0  0  0  0  0999 V2000
   18.2750  -24.6260   40.7640 C   0  0  0  0  0  0  0  0  0  0  0  0
   18.4130  -25.8300   39.8430 C   0  0  0  0  0  0  0  0  0  0  0  0
   19.7730  -25.9220   39.2720 N   0  0  0  0  0  0  0  0  0  0  0  0
   19.8740  -25.5340   37.8510 C   0  0  0  0  0  0  0  0  0  0  0  0
   18.4860  -25.4370   37.2340 C   0  0  0  0  0  0  0  0  0  0  0  0
   20.3870  -27.1860   39.4770 C   0  0  0  0  0  0  0  0  0  0  0  0
   19.9950  -28.3300   38.7570 C   0  0  0  0  0  0  0  0  0  0  0  0
   20.6200  -29.5720   38.9500 C   0  0  0  0  0  0  0  0  0  0  0  0
   20.1910  -30.7790   38.2120 C   0  0  0  0  0  0  0  0  0  0  0  0
   19.7410  -31.7920   39.0520 O   0  0  0  0  0  0  0  0  0  0  0  0
   19.3120  -32.9710   38.4980 C   0  0  0  0  0  0  0  0  0  0  0  0
   18.8550  -33.9540   39.3760 C   0  0  0  0  0  0  0  0  0  0  0  0
   18.4050  -35.1790   38.8770 C   0  0  0  0  0  0  0  0  0  0  0  0
   18.4130  -35.4200   37.5010 C   0  0  0  0  0  0  0  0  0  0  0  0
   18.8700  -34.4370   36.6280 C   0  0  0  0  0  0  0  0  0  0  0  0
   18.8510  -34.7390   35.2940 O   0  0  0  0  0  0  0  0  0  0  0  0
   19.3190  -33.2110   37.1270 C   0  0  0  0  0  0  0  0  0  0  0  0
   19.8060  -32.1510   36.2440 C   0  0  0  0  0  0  0  0  0  0  0  0
   19.8510  -32.2900   35.0230 O   0  0  0  0  0  0  0  0  0  0  0  0
   20.2530  -30.8870   36.8720 C   0  0  0  0  0  0  0  0  0  0  0  0
   20.7230  -29.8970   36.0280 O   0  0  0  0  0  0  0  0  0  0  0  0
   21.6490  -29.6620   39.8950 C   0  0  0  0  0  0  0  0  0  0  0  0
   22.0590  -28.5360   40.6110 C   0  0  0  0  0  0  0  0  0  0  0  0
   21.4420  -27.2950   40.4070 C   0  0  0  0  0  0  0  0  0  0  0  0
   21.9090  -26.0960   41.1870 C   0  0  0  0  0  0  0  0  0  0  0  0
   18.3132  -24.9594   41.8116 H   0  0  0  0  0  0  0  0  0  0  0  0
   19.0983  -23.9220   40.5730 H   0  0  0  0  0  0  0  0  0  0  0  0
   17.3137  -24.1265   40.5730 H   0  0  0  0  0  0  0  0  0  0  0  0
   18.2036  -26.7448   40.4168 H   0  0  0  0  0  0  0  0  0  0  0  0
   17.6981  -25.7149   39.0150 H   0  0  0  0  0  0  0  0  0  0  0  0
   20.3745  -24.5574   37.7755 H   0  0  0  0  0  0  0  0  0  0  0  0
   20.4551  -26.2959   37.3108 H   0  0  0  0  0  0  0  0  0  0  0  0
   17.7322  -25.3843   38.0334 H   0  0  0  0  0  0  0  0  0  0  0  0
   18.4239  -24.5323   36.6113 H   0  0  0  0  0  0  0  0  0  0  0  0
   18.2987  -26.3242   36.6113 H   0  0  0  0  0  0  0  0  0  0  0  0
   19.1783  -28.2488   38.0246 H   0  0  0  0  0  0  0  0  0  0  0  0
   18.8489  -33.7650   40.4596 H   0  0  0  0  0  0  0  0  0  0  0  0
   18.0440  -35.9546   39.5685 H   0  0  0  0  0  0  0  0  0  0  0  0
   18.0589  -36.3846   37.1083 H   0  0  0  0  0  0  0  0  0  0  0  0
   19.4830  -35.3330   34.9380 H   0  0  0  0  0  0  0  0  0  0  0  0
   21.0290  -29.0860   36.3820 H   0  0  0  0  0  0  0  0  0  0  0  0
   22.1395  -30.6300   40.0752 H   0  0  0  0  0  0  0  0  0  0  0  0
   22.8752  -28.6241   41.3431 H   0  0  0  0  0  0  0  0  0  0  0  0
   21.8277  -26.3048   42.2639 H   0  0  0  0  0  0  0  0  0  0  0  0
   22.9573  -25.8793   40.9336 H   0  0  0  0  0  0  0  0  0  0  0  0
   21.2835  -25.2274   40.9336 H   0  0  0  0  0  0  0  0  0  0  0  0
  1  2  1  0
  2  3  1  0
  3  4  1  0
  4  5  1  0
  3  6  1  0
  6  7  2  0
  7  8  1  0
  8  9  1  0
  9 10  1  0
 10 11  1  0
 11 12  2  0
 12 13  1  0
 13 14  2  0
 14 15  1  0
 15 16  1  0
 15 17  2  0
 17 18  1  0
 18 19  2  0
 18 20  1  0
 20 21  1  0
  8 22  2  0
 22 23  1  0
 23 24  2  0
 24 25  1  0
 24  6  1  0
 20  9  2  0
 17 11  1  0
  1 26  1  0
  1 27  1  0
  1 28  1  0
  2 29  1  0
  2 30  1  0
  4 31  1  0
  4 32  1  0
  5 33  1  0
  5 34  1  0
  5 35  1  0
  7 36  1  0
 12 37  1  0
 13 38  1  0
 14 39  1  0
 16 40  1  0
 21 41  1  0
 22 42  1  0
 23 43  1  0
 25 44  1  0
 25 45  1  0
 25 46  1  0
M  END
>  <meeko>  (4) 
{"is_sidechain": [false], "free_energy": -8.121, "intermolecular_energy": -10.509, "internal_energy": -0.707}

$$$$
cand_054_out
     RDKit          3D

 46 48  0  0  0  0  0  0  0  0999 V2000
   19.6700  -24.3830   44.4130 C   0  0  0  0  0  0  0  0  0  0  0  0
   19.5000  -25.2760   43.1920 C   0  0  0  0  0  0  0  0  0  0  0  0
   20.5970  -25.0810   42.2220 N   0  0  0  0  0  0  0  0  0  0  0  0
   20.2100  -24.3730   40.9850 C   0  0  0  0  0  0  0  0  0  0  0  0
   18.6950  -24.2540   40.9010 C   0  0  0  0  0  0  0  0  0  0  0  0
   21.2870  -26.2810   41.9010 C   0  0  0  0  0  0  0  0  0  0  0  0
   20.8520  -27.1380   40.8720 C   0  0  0  0  0  0  0  0  0  0  0  0
   21.5480  -28.3110   40.5470 C   0  0  0  0  0  0  0  0  0  0  0  0
   21.0770  -29.2240   39.4830 C   0  0  0  0  0  0  0  0  0  0  0  0
   20.5480  -30.4080   39.9850 O   0  0  0  0  0  0  0  0  0  0  0  0
   20.0720  -31.3470   39.1060 C   0  0  0  0  0  0  0  0  0  0  0  0
   19.5380  -32.5140   39.6530 C   0  0  0  0  0  0  0  0  0  0  0  0
   19.0370  -33.5110   38.8130 C   0  0  0  0  0  0  0  0  0  0  0  0
   19.0730  -33.3420   37.4270 C   0  0  0  0  0  0  0  0  0  0  0  0
   19.6090  -32.1770   36.8840 C   0  0  0  0  0  0  0  0  0  0  0  0
   19.6130  -32.0770   35.5190 O   0  0  0  0  0  0  0  0  0  0  0  0
   20.1080  -31.1790   37.7250 C   0  0  0  0  0  0  0  0  0  0  0  0
   20.6780  -29.9390   37.1960 C   0  0  0  0  0  0  0  0  0  0  0  0
   20.7520  -29.7200   35.9880 O   0  0  0  0  0  0  0  0  0  0  0  0
   21.1730  -28.9420   38.1710 C   0  0  0  0  0  0  0  0  0  0  0  0
   21.7220  -27.7800   37.6590 O   0  0  0  0  0  0  0  0  0  0  0  0
   22.6970  -28.6320   41.2800 C   0  0  0  0  0  0  0  0  0  0  0  0
   23.1490  -27.7890   42.2980 C   0  0  0  0  0  0  0  0  0  0  0  0
   22.4590  -26.6110   42.6120 C   0  0  0  0  0  0  0  0  0  0  0  0
   22.9740  -25.7180   43.7080 C   0  0  0  0  0  0  0  0  0  0  0  0
   19.5554  -24.9851   45.3264 H   0  0  0  0  0  0  0  0  0  0  0  0
   20.6710  -23.9273   44.3974 H   0  0  0  0  0  0  0  0  0  0  0  0
   18.9064  -23.5913   44.3974 H   0  0  0  0  0  0  0  0  0  0  0  0
   19.4921  -26.3271   43.5162 H   0  0  0  0  0  0  0  0  0  0  0  0
   18.5527  -25.0110   42.6997 H   0  0  0  0  0  0  0  0  0  0  0  0
   20.6541  -23.3666   40.9880 H   0  0  0  0  0  0  0  0  0  0  0  0
   20.5746  -24.9412   40.1166 H   0  0  0  0  0  0  0  0  0  0  0  0
   18.2730  -24.2208   41.9163 H   0  0  0  0  0  0  0  0  0  0  0  0
   18.4289  -23.3322   40.3630 H   0  0  0  0  0  0  0  0  0  0  0  0
   18.2882  -25.1230   40.3630 H   0  0  0  0  0  0  0  0  0  0  0  0
   19.9429  -26.8807   40.3087 H   0  0  0  0  0  0  0  0  0  0  0  0
   19.5116  -32.6487   40.7444 H   0  0  0  0  0  0  0  0  0  0  0  0
   18.6136  -34.4304   39.2435 H   0  0  0  0  0  0  0  0  0  0  0  0
   18.6787  -34.1276   36.7656 H   0  0  0  0  0  0  0  0  0  0  0  0
   19.7890  -32.8330   34.9940 H   0  0  0  0  0  0  0  0  0  0  0  0
   21.7040  -27.6200   36.7360 H   0  0  0  0  0  0  0  0  0  0  0  0
   23.2485  -29.5561   41.0522 H   0  0  0  0  0  0  0  0  0  0  0  0
   24.0572  -28.0532   42.8595 H   0  0  0  0  0  0  0  0  0  0  0  0
   22.7221  -26.1548   44.6856 H   0  0  0  0  0  0  0  0  0  0  0  0
   24.0662  -25.6219   43.6198 H   0  0  0  0  0  0  0  0  0  0  0  0
   22.5102  -24.7245   43.6198 H   0  0  0  0  0  0  0  0  0  0  0  0
  1  2  1  0
  2  3  1  0
  3  4  1  0
  4  5  1  0
  3  6  1  0
  6  7  2  0
  7  8  1  0
  8  9  1  0
  9 10  1  0
 10 11  1  0
 11 12  2  0
 12 13  1  0
 13 14  2  0
 14 15  1  0
 15 16  1  0
 15 17  2  0
 17 18  1  0
 18 19  2  0
 18 20  1  0
 20 21  1  0
  8 22  2  0
 22 23  1  0
 23 24  2  0
 24 25  1  0
 24  6  1  0
 20  9  2  0
 17 11  1  0
  1 26  1  0
  1 27  1  0
  1 28  1  0
  2 29  1  0
  2 30  1  0
  4 31  1  0
  4 32  1  0
  5 33  1  0
  5 34  1  0
  5 35  1  0
  7 36  1  0
 12 37  1  0
 13 38  1  0
 14 39  1  0
 16 40  1  0
 21 41  1  0
 22 42  1  0
 23 43  1  0
 25 44  1  0
 25 45  1  0
 25 46  1  0
M  END
>  <meeko>  (5) 
{"is_sidechain": [false], "free_energy": -7.916, "intermolecular_energy": -10.247, "internal_energy": -0.704}

$$$$
cand_054_out
     RDKit          3D

 46 48  0  0  0  0  0  0  0  0999 V2000
   18.5450  -24.7180   40.8480 C   0  0  0  0  0  0  0  0  0  0  0  0
   18.5810  -25.8610   39.8420 C   0  0  0  0  0  0  0  0  0  0  0  0
   19.9130  -25.9890   39.2160 N   0  0  0  0  0  0  0  0  0  0  0  0
   19.9700  -25.5850   37.7970 C   0  0  0  0  0  0  0  0  0  0  0  0
   18.5710  -25.2760   37.2830 C   0  0  0  0  0  0  0  0  0  0  0  0
   20.4920  -27.2760   39.3810 C   0  0  0  0  0  0  0  0  0  0  0  0
   20.1240  -28.3680   38.5710 C   0  0  0  0  0  0  0  0  0  0  0  0
   20.7140  -29.6310   38.7250 C   0  0  0  0  0  0  0  0  0  0  0  0
   20.3100  -30.7830   37.8910 C   0  0  0  0  0  0  0  0  0  0  0  0
   20.6510  -30.6260   36.5520 O   0  0  0  0  0  0  0  0  0  0  0  0
   20.3340  -31.6230   35.6660 C   0  0  0  0  0  0  0  0  0  0  0  0
   20.7070  -31.4300   34.3360 C   0  0  0  0  0  0  0  0  0  0  0  0
   20.4130  -32.4060   33.3810 C   0  0  0  0  0  0  0  0  0  0  0  0
   19.7440  -33.5740   33.7570 C   0  0  0  0  0  0  0  0  0  0  0  0
   19.3720  -33.7620   35.0850 C   0  0  0  0  0  0  0  0  0  0  0  0
   18.7200  -34.9280   35.3840 O   0  0  0  0  0  0  0  0  0  0  0  0
   19.6680  -32.7860   36.0400 C   0  0  0  0  0  0  0  0  0  0  0  0
   19.2950  -32.9450   37.4460 C   0  0  0  0  0  0  0  0  0  0  0  0
   18.6990  -33.9410   37.8530 O   0  0  0  0  0  0  0  0  0  0  0  0
   19.6610  -31.8560   38.3790 C   0  0  0  0  0  0  0  0  0  0  0  0
   19.2920  -32.0120   39.7040 O   0  0  0  0  0  0  0  0  0  0  0  0
   21.6830  -29.7990   39.7210 C   0  0  0  0  0  0  0  0  0  0  0  0
   22.0680  -28.7250   40.5280 C   0  0  0  0  0  0  0  0  0  0  0  0
   21.4870  -27.4620   40.3620 C   0  0  0  0  0  0  0  0  0  0  0  0
   21.9260  -26.3210   41.2400 C   0  0  0  0  0  0  0  0  0  0  0  0
   18.5579  -25.1275   41.8689 H   0  0  0  0  0  0  0  0  0  0  0  0
   19.4233  -24.0722   40.7008 H   0  0  0  0  0  0  0  0  0  0  0  0
   17.6279  -24.1288   40.7008 H   0  0  0  0  0  0  0  0  0  0  0  0
   18.3374  -26.8006   40.3595 H   0  0  0  0  0  0  0  0  0  0  0  0
   17.8468  -25.6481   39.0511 H   0  0  0  0  0  0  0  0  0  0  0  0
   20.5995  -24.6882   37.6993 H   0  0  0  0  0  0  0  0  0  0  0  0
   20.3964  -26.4087   37.2056 H   0  0  0  0  0  0  0  0  0  0  0  0
   17.8920  -25.1260   38.1354 H   0  0  0  0  0  0  0  0  0  0  0  0
   18.5987  -24.3623   36.6711 H   0  0  0  0  0  0  0  0  0  0  0  0
   18.2113  -26.1163   36.6711 H   0  0  0  0  0  0  0  0  0  0  0  0
   19.3543  -28.2266   37.7980 H   0  0  0  0  0  0  0  0  0  0  0  0
   21.2322  -30.5101   34.0394 H   0  0  0  0  0  0  0  0  0  0  0  0
   20.7083  -32.2552   32.3322 H   0  0  0  0  0  0  0  0  0  0  0  0
   19.5120  -34.3428   33.0053 H   0  0  0  0  0  0  0  0  0  0  0  0
   18.0450  -35.2470   34.8160 H   0  0  0  0  0  0  0  0  0  0  0  0
   19.9200  -31.8730   40.3850 H   0  0  0  0  0  0  0  0  0  0  0  0
   22.1458  -30.7857   39.8699 H   0  0  0  0  0  0  0  0  0  0  0  0
   22.8356  -28.8735   41.3018 H   0  0  0  0  0  0  0  0  0  0  0  0
   21.8157  -26.6077   42.2962 H   0  0  0  0  0  0  0  0  0  0  0  0
   22.9798  -26.0832   41.0327 H   0  0  0  0  0  0  0  0  0  0  0  0
   21.3033  -25.4382   41.0327 H   0  0  0  0  0  0  0  0  0  0  0  0
  1  2  1  0
  2  3  1  0
  3  4  1  0
  4  5  1  0
  3  6  1  0
  6  7  2  0
  7  8  1  0
  8  9  1  0
  9 10  1  0
 10 11  1  0
 11 12  2  0
 12 13  1  0
 13 14  2  0
 14 15  1  0
 15 16  1  0
 15 17  2  0
 17 18  1  0
 18 19  2  0
 18 20  1  0
 20 21  1  0
  8 22  2  0
 22 23  1  0
 23 24  2  0
 24 25  1  0
 24  6  1  0
 20  9  2  0
 17 11  1  0
  1 26  1  0
  1 27  1  0
  1 28  1  0
  2 29  1  0
  2 30  1  0
  4 31  1  0
  4 32  1  0
  5 33  1  0
  5 34  1  0
  5 35  1  0
  7 36  1  0
 12 37  1  0
 13 38  1  0
 14 39  1  0
 16 40  1  0
 21 41  1  0
 22 42  1  0
 23 43  1  0
 25 44  1  0
 25 45  1  0
 25 46  1  0
M  END
>  <meeko>  (6) 
{"is_sidechain": [false], "free_energy": -7.771, "intermolecular_energy": -10.034, "internal_energy": -0.729}

$$$$
cand_054_out
     RDKit          3D

 46 48  0  0  0  0  0  0  0  0999 V2000
   22.6350  -22.1060   48.2660 C   0  0  0  0  0  0  0  0  0  0  0  0
   21.8980  -23.4350   48.1710 C   0  0  0  0  0  0  0  0  0  0  0  0
   20.7070  -23.3320   47.3030 N   0  0  0  0  0  0  0  0  0  0  0  0
   19.5800  -24.2020   47.6970 C   0  0  0  0  0  0  0  0  0  0  0  0
   19.9840  -25.0870   48.8680 C   0  0  0  0  0  0  0  0  0  0  0  0
   20.9970  -23.5050   45.9240 C   0  0  0  0  0  0  0  0  0  0  0  0
   21.5150  -24.7120   45.4170 C   0  0  0  0  0  0  0  0  0  0  0  0
   21.7810  -24.8830   44.0500 C   0  0  0  0  0  0  0  0  0  0  0  0
   22.3490  -26.1420   43.5210 C   0  0  0  0  0  0  0  0  0  0  0  0
   21.7800  -26.5240   42.3110 O   0  0  0  0  0  0  0  0  0  0  0  0
   22.2150  -27.6750   41.7070 C   0  0  0  0  0  0  0  0  0  0  0  0
   21.6270  -28.0120   40.4880 C   0  0  0  0  0  0  0  0  0  0  0  0
   22.0250  -29.1740   39.8210 C   0  0  0  0  0  0  0  0  0  0  0  0
   23.0070  -29.9970   40.3750 C   0  0  0  0  0  0  0  0  0  0  0  0
   23.5910  -29.6580   41.5920 C   0  0  0  0  0  0  0  0  0  0  0  0
   24.5470  -30.5090   42.0770 O   0  0  0  0  0  0  0  0  0  0  0  0
   23.1950  -28.4960   42.2580 C   0  0  0  0  0  0  0  0  0  0  0  0
   23.7830  -28.1030   43.5390 C   0  0  0  0  0  0  0  0  0  0  0  0
   24.6480  -28.7790   44.0930 O   0  0  0  0  0  0  0  0  0  0  0  0
   23.2990  -26.8490   44.1590 C   0  0  0  0  0  0  0  0  0  0  0  0
   23.8540  -26.4940   45.3760 O   0  0  0  0  0  0  0  0  0  0  0  0
   21.5310  -23.8140   43.1820 C   0  0  0  0  0  0  0  0  0  0  0  0
   21.0070  -22.6120   43.6650 C   0  0  0  0  0  0  0  0  0  0  0  0
   20.7310  -22.4490   45.0280 C   0  0  0  0  0  0  0  0  0  0  0  0
   20.1600  -21.1470   45.5200 C   0  0  0  0  0  0  0  0  0  0  0  0
   22.7811  -21.8426   49.3239 H   0  0  0  0  0  0  0  0  0  0  0  0
   23.6136  -22.1932   47.7713 H   0  0  0  0  0  0  0  0  0  0  0  0
   22.0427  -21.3221   47.7713 H   0  0  0  0  0  0  0  0  0  0  0  0
   22.5788  -24.1925   47.7555 H   0  0  0  0  0  0  0  0  0  0  0  0
   21.5661  -23.7189   49.1806 H   0  0  0  0  0  0  0  0  0  0  0  0
   18.7243  -23.5770   47.9921 H   0  0  0  0  0  0  0  0  0  0  0  0
   19.3030  -24.8391   46.8442 H   0  0  0  0  0  0  0  0  0  0  0  0
   19.7500  -24.5745   49.8128 H   0  0  0  0  0  0  0  0  0  0  0  0
   19.4299  -26.0360   48.8187 H   0  0  0  0  0  0  0  0  0  0  0  0
   21.0640  -25.2900   48.8187 H   0  0  0  0  0  0  0  0  0  0  0  0
   21.7163  -25.5420   46.1102 H   0  0  0  0  0  0  0  0  0  0  0  0
   20.8516  -27.3646   40.0524 H   0  0  0  0  0  0  0  0  0  0  0  0
   21.5639  -29.4403   38.8585 H   0  0  0  0  0  0  0  0  0  0  0  0
   23.3188  -30.9122   39.8504 H   0  0  0  0  0  0  0  0  0  0  0  0
   24.4020  -31.4360   42.0620 H   0  0  0  0  0  0  0  0  0  0  0  0
   24.7400  -26.7250   45.5720 H   0  0  0  0  0  0  0  0  0  0  0  0
   21.7491  -23.9210   42.1092 H   0  0  0  0  0  0  0  0  0  0  0  0
   20.8092  -21.7851   42.9670 H   0  0  0  0  0  0  0  0  0  0  0  0
   20.1571  -21.1403   46.6200 H   0  0  0  0  0  0  0  0  0  0  0  0
   20.7752  -20.3136   45.1499 H   0  0  0  0  0  0  0  0  0  0  0  0
   19.1302  -21.0351   45.1499 H   0  0  0  0  0  0  0  0  0  0  0  0
  1  2  1  0
  2  3  1  0
  3  4  1  0
  4  5  1  0
  3  6  1  0
  6  7  2  0
  7  8  1  0
  8  9  1  0
  9 10  1  0
 10 11  1  0
 11 12  2  0
 12 13  1  0
 13 14  2  0
 14 15  1  0
 15 16  1  0
 15 17  2  0
 17 18  1  0
 18 19  2  0
 18 20  1  0
 20 21  1  0
  8 22  2  0
 22 23  1  0
 23 24  2  0
 24 25  1  0
 24  6  1  0
 20  9  2  0
 17 11  1  0
  1 26  1  0
  1 27  1  0
  1 28  1  0
  2 29  1  0
  2 30  1  0
  4 31  1  0
  4 32  1  0
  5 33  1  0
  5 34  1  0
  5 35  1  0
  7 36  1  0
 12 37  1  0
 13 38  1  0
 14 39  1  0
 16 40  1  0
 21 41  1  0
 22 42  1  0
 23 43  1  0
 25 44  1  0
 25 45  1  0
 25 46  1  0
M  END
>  <meeko>  (7) 
{"is_sidechain": [false], "free_energy": -7.565, "intermolecular_energy": -9.914, "internal_energy": -0.583}

$$$$
cand_054_out
     RDKit          3D

 46 48  0  0  0  0  0  0  0  0999 V2000
   20.7860  -31.5440   33.7340 C   0  0  0  0  0  0  0  0  0  0  0  0
   21.1430  -30.6120   34.8830 C   0  0  0  0  0  0  0  0  0  0  0  0
   19.9560  -30.2800   35.6990 N   0  0  0  0  0  0  0  0  0  0  0  0
   19.3970  -28.9350   35.4560 C   0  0  0  0  0  0  0  0  0  0  0  0
   20.4650  -28.0210   34.8710 C   0  0  0  0  0  0  0  0  0  0  0  0
   20.1540  -30.4820   37.0910 C   0  0  0  0  0  0  0  0  0  0  0  0
   20.6490  -29.4640   37.9290 C   0  0  0  0  0  0  0  0  0  0  0  0
   20.8220  -29.6640   39.3060 C   0  0  0  0  0  0  0  0  0  0  0  0
   21.3670  -28.6030   40.1810 C   0  0  0  0  0  0  0  0  0  0  0  0
   22.2990  -29.0840   41.0940 O   0  0  0  0  0  0  0  0  0  0  0  0
   22.8860  -28.2060   41.9680 C   0  0  0  0  0  0  0  0  0  0  0  0
   23.8260  -28.7280   42.8560 C   0  0  0  0  0  0  0  0  0  0  0  0
   24.4600  -27.8870   43.7740 C   0  0  0  0  0  0  0  0  0  0  0  0
   24.1500  -26.5250   43.8050 C   0  0  0  0  0  0  0  0  0  0  0  0
   23.2110  -26.0070   42.9180 C   0  0  0  0  0  0  0  0  0  0  0  0
   22.9560  -24.6660   43.0030 O   0  0  0  0  0  0  0  0  0  0  0  0
   22.5790  -26.8490   41.9990 C   0  0  0  0  0  0  0  0  0  0  0  0
   21.5860  -26.3450   41.0490 C   0  0  0  0  0  0  0  0  0  0  0  0
   21.2560  -25.1600   41.0190 O   0  0  0  0  0  0  0  0  0  0  0  0
   20.9800  -27.3170   40.1110 C   0  0  0  0  0  0  0  0  0  0  0  0
   20.0330  -26.8310   39.2270 O   0  0  0  0  0  0  0  0  0  0  0  0
   20.5020  -30.9150   39.8460 C   0  0  0  0  0  0  0  0  0  0  0  0
   19.9990  -31.9330   39.0320 C   0  0  0  0  0  0  0  0  0  0  0  0
   19.8150  -31.7270   37.6590 C   0  0  0  0  0  0  0  0  0  0  0  0
   19.2650  -32.8390   36.8080 C   0  0  0  0  0  0  0  0  0  0  0  0
   20.4199  -32.4997   34.1373 H   0  0  0  0  0  0  0  0  0  0  0  0
   20.0013  -31.0817   33.1171 H   0  0  0  0  0  0  0  0  0  0  0  0
   21.6787  -31.7242   33.1171 H   0  0  0  0  0  0  0  0  0  0  0  0
   21.8908  -31.1033   35.5229 H   0  0  0  0  0  0  0  0  0  0  0  0
   21.5431  -29.6790   34.4595 H   0  0  0  0  0  0  0  0  0  0  0  0
   18.5577  -29.0123   34.7492 H   0  0  0  0  0  0  0  0  0  0  0  0
   19.0464  -28.5137   36.4097 H   0  0  0  0  0  0  0  0  0  0  0  0
   21.0249  -27.5418   35.6876 H   0  0  0  0  0  0  0  0  0  0  0  0
   21.1548  -28.6128   34.2514 H   0  0  0  0  0  0  0  0  0  0  0  0
   19.9868  -27.2481   34.2514 H   0  0  0  0  0  0  0  0  0  0  0  0
   20.9063  -28.4877   37.4924 H   0  0  0  0  0  0  0  0  0  0  0  0
   24.0681  -29.8008   42.8337 H   0  0  0  0  0  0  0  0  0  0  0  0
   25.2037  -28.2974   44.4728 H   0  0  0  0  0  0  0  0  0  0  0  0
   24.6473  -25.8632   44.5293 H   0  0  0  0  0  0  0  0  0  0  0  0
   22.3440  -24.3430   43.6360 H   0  0  0  0  0  0  0  0  0  0  0  0
   19.2280  -27.2930   39.1020 H   0  0  0  0  0  0  0  0  0  0  0  0
   20.6478  -31.0983   40.9208 H   0  0  0  0  0  0  0  0  0  0  0  0
   19.7446  -32.9074   39.4745 H   0  0  0  0  0  0  0  0  0  0  0  0
   18.8709  -33.6359   37.4558 H   0  0  0  0  0  0  0  0  0  0  0  0
   18.4559  -32.4489   36.1730 H   0  0  0  0  0  0  0  0  0  0  0  0
   20.0660  -33.2453   36.1730 H   0  0  0  0  0  0  0  0  0  0  0  0
  1  2  1  0
  2  3  1  0
  3  4  1  0
  4  5  1  0
  3  6  1  0
  6  7  2  0
  7  8  1  0
  8  9  1  0
  9 10  1  0
 10 11  1  0
 11 12  2  0
 12 13  1  0
 13 14  2  0
 14 15  1  0
 15 16  1  0
 15 17  2  0
 17 18  1  0
 18 19  2  0
 18 20  1  0
 20 21  1  0
  8 22  2  0
 22 23  1  0
 23 24  2  0
 24 25  1  0
 24  6  1  0
 20  9  2  0
 17 11  1  0
  1 26  1  0
  1 27  1  0
  1 28  1  0
  2 29  1  0
  2 30  1  0
  4 31  1  0
  4 32  1  0
  5 33  1  0
  5 34  1  0
  5 35  1  0
  7 36  1  0
 12 37  1  0
 13 38  1  0
 14 39  1  0
 16 40  1  0
 21 41  1  0
 22 42  1  0
 23 43  1  0
 25 44  1  0
 25 45  1  0
 25 46  1  0
M  END
>  <meeko>  (8) 
{"is_sidechain": [false], "free_energy": -7.549, "intermolecular_energy": -10.167, "internal_energy": -0.309}

$$$$
cand_054_out
     RDKit          3D

 46 48  0  0  0  0  0  0  0  0999 V2000
   22.6700  -21.9700   48.1310 C   0  0  0  0  0  0  0  0  0  0  0  0
   21.9660  -23.3120   47.9820 C   0  0  0  0  0  0  0  0  0  0  0  0
   20.7600  -23.1990   47.1360 N   0  0  0  0  0  0  0  0  0  0  0  0
   19.6480  -24.0890   47.5260 C   0  0  0  0  0  0  0  0  0  0  0  0
   20.0580  -24.9540   48.7090 C   0  0  0  0  0  0  0  0  0  0  0  0
   21.0290  -23.3330   45.7480 C   0  0  0  0  0  0  0  0  0  0  0  0
   21.4440  -24.5550   45.1840 C   0  0  0  0  0  0  0  0  0  0  0  0
   21.6880  -24.6870   43.8090 C   0  0  0  0  0  0  0  0  0  0  0  0
   22.1490  -25.9630   43.2210 C   0  0  0  0  0  0  0  0  0  0  0  0
   23.1320  -26.5840   43.9830 O   0  0  0  0  0  0  0  0  0  0  0  0
   23.6490  -27.7790   43.5530 C   0  0  0  0  0  0  0  0  0  0  0  0
   24.6230  -28.3730   44.3560 C   0  0  0  0  0  0  0  0  0  0  0  0
   25.1920  -29.5910   43.9740 C   0  0  0  0  0  0  0  0  0  0  0  0
   24.7880  -30.2110   42.7890 C   0  0  0  0  0  0  0  0  0  0  0  0
   23.8170  -29.6150   41.9910 C   0  0  0  0  0  0  0  0  0  0  0  0
   23.4680  -30.2760   40.8450 O   0  0  0  0  0  0  0  0  0  0  0  0
   23.2470  -28.3970   42.3740 C   0  0  0  0  0  0  0  0  0  0  0  0
   22.2230  -27.7370   41.5630 C   0  0  0  0  0  0  0  0  0  0  0  0
   21.8200  -28.2170   40.5050 O   0  0  0  0  0  0  0  0  0  0  0  0
   21.6770  -26.4540   42.0610 C   0  0  0  0  0  0  0  0  0  0  0  0
   20.7190  -25.8330   41.2800 O   0  0  0  0  0  0  0  0  0  0  0  0
   21.5240  -23.5630   42.9910 C   0  0  0  0  0  0  0  0  0  0  0  0
   21.1030  -22.3450   43.5300 C   0  0  0  0  0  0  0  0  0  0  0  0
   20.8470  -22.2210   44.9020 C   0  0  0  0  0  0  0  0  0  0  0  0
   20.3880  -20.8980   45.4550 C   0  0  0  0  0  0  0  0  0  0  0  0
   22.7924  -21.7367   49.1990 H   0  0  0  0  0  0  0  0  0  0  0  0
   23.6584  -22.0192   47.6508 H   0  0  0  0  0  0  0  0  0  0  0  0
   22.0677  -21.1847   47.6508 H   0  0  0  0  0  0  0  0  0  0  0  0
   22.6599  -24.0306   47.5214 H   0  0  0  0  0  0  0  0  0  0  0  0
   21.6564  -23.6525   48.9811 H   0  0  0  0  0  0  0  0  0  0  0  0
   18.7760  -23.4798   47.8061 H   0  0  0  0  0  0  0  0  0  0  0  0
   19.3938  -24.7397   46.6763 H   0  0  0  0  0  0  0  0  0  0  0  0
   19.8115  -24.4339   49.6464 H   0  0  0  0  0  0  0  0  0  0  0  0
   19.5179  -25.9114   48.6679 H   0  0  0  0  0  0  0  0  0  0  0  0
   21.1410  -25.1420   48.6679 H   0  0  0  0  0  0  0  0  0  0  0  0
   21.5803  -25.4284   45.8386 H   0  0  0  0  0  0  0  0  0  0  0  0
   24.9425  -27.8837   45.2879 H   0  0  0  0  0  0  0  0  0  0  0  0
   25.9586  -30.0619   44.6069 H   0  0  0  0  0  0  0  0  0  0  0  0
   25.2370  -31.1689   42.4876 H   0  0  0  0  0  0  0  0  0  0  0  0
   23.1630  -29.7950   40.0990 H   0  0  0  0  0  0  0  0  0  0  0  0
   20.8920  -24.9920   40.9070 H   0  0  0  0  0  0  0  0  0  0  0  0
   21.7287  -23.6396   41.9129 H   0  0  0  0  0  0  0  0  0  0  0  0
   20.9711  -21.4744   42.8707 H   0  0  0  0  0  0  0  0  0  0  0  0
   20.4011  -20.9357   46.5543 H   0  0  0  0  0  0  0  0  0  0  0  0
   21.0623  -20.1015   45.1074 H   0  0  0  0  0  0  0  0  0  0  0  0
   19.3653  -20.6902   45.1074 H   0  0  0  0  0  0  0  0  0  0  0  0
  1  2  1  0
  2  3  1  0
  3  4  1  0
  4  5  1  0
  3  6  1  0
  6  7  2  0
  7  8  1  0
  8  9  1  0
  9 10  1  0
 10 11  1  0
 11 12  2  0
 12 13  1  0
 13 14  2  0
 14 15  1  0
 15 16  1  0
 15 17  2  0
 17 18  1  0
 18 19  2  0
 18 20  1  0
 20 21  1  0
  8 22  2  0
 22 23  1  0
 23 24  2  0
 24 25  1  0
 24  6  1  0
 20  9  2  0
 17 11  1  0
  1 26  1  0
  1 27  1  0
  1 28  1  0
  2 29  1  0
  2 30  1  0
  4 31  1  0
  4 32  1  0
  5 33  1  0
  5 34  1  0
  5 35  1  0
  7 36  1  0
 12 37  1  0
 13 38  1  0
 14 39  1  0
 16 40  1  0
 21 41  1  0
 22 42  1  0
 23 43  1  0
 25 44  1  0
 25 45  1  0
 25 46  1  0
M  END
>  <meeko>  (9) 
{"is_sidechain": [false], "free_energy": -7.501, "intermolecular_energy": -9.829, "internal_energy": -0.585}

$$$$
