cand_021_out
     RDKit          3D

 36 38  0  0  0  0  0  0  0  0999 V2000
   25.1440  -30.9670   43.0880 C   0  0  0  0  0  0  0  0  0  0  0  0
   24.8970  -29.6510   43.1160 C   0  0  0  0  0  0  0  0  0  0  0  0
   23.7980  -29.0350   42.3610 C   0  0  0  0  0  0  0  0  0  0  0  0
   23.1770  -29.7680   41.3350 C   0  0  0  0  0  0  0  0  0  0  0  0
   22.1170  -29.2320   40.5890 C   0  0  0  0  0  0  0  0  0  0  0  0
   21.4500  -30.0070   39.5230 C   0  0  0  0  0  0  0  0  0  0  0  0
   20.6200  -31.0050   40.0180 O   0  0  0  0  0  0  0  0  0  0  0  0
   19.9390  -31.8010   39.1320 C   0  0  0  0  0  0  0  0  0  0  0  0
   19.1290  -32.8010   39.6720 C   0  0  0  0  0  0  0  0  0  0  0  0
   18.4070  -33.6460   38.8250 C   0  0  0  0  0  0  0  0  0  0  0  0
   18.4950  -33.4890   37.4400 C   0  0  0  0  0  0  0  0  0  0  0  0
   19.3040  -32.4900   36.9040 C   0  0  0  0  0  0  0  0  0  0  0  0
   19.3430  -32.3930   35.5410 O   0  0  0  0  0  0  0  0  0  0  0  0
   20.0260  -31.6470   37.7520 C   0  0  0  0  0  0  0  0  0  0  0  0
   20.8880  -30.5850   37.2300 C   0  0  0  0  0  0  0  0  0  0  0  0
   21.0120  -30.3790   36.0240 O   0  0  0  0  0  0  0  0  0  0  0  0
   21.6170  -29.7500   38.2120 C   0  0  0  0  0  0  0  0  0  0  0  0
   22.4180  -28.7410   37.7100 O   0  0  0  0  0  0  0  0  0  0  0  0
   21.6650  -27.9460   40.9040 C   0  0  0  0  0  0  0  0  0  0  0  0
   22.2690  -27.2080   41.9250 C   0  0  0  0  0  0  0  0  0  0  0  0
   23.3400  -27.7390   42.6640 C   0  0  0  0  0  0  0  0  0  0  0  0
   23.9830  -26.9090   43.7470 C   0  0  0  0  0  0  0  0  0  0  0  0
   23.1100  -26.5670   44.7370 F   0  0  0  0  0  0  0  0  0  0  0  0
   24.4910  -25.7260   43.2910 F   0  0  0  0  0  0  0  0  0  0  0  0
   25.9794  -31.3823   43.6708 H   0  0  0  0  0  0  0  0  0  0  0  0
   24.5115  -31.6326   42.4822 H   0  0  0  0  0  0  0  0  0  0  0  0
   25.5432  -29.0055   43.7291 H   0  0  0  0  0  0  0  0  0  0  0  0
   23.5305  -30.7855   41.1119 H   0  0  0  0  0  0  0  0  0  0  0  0
   19.0590  -32.9239   40.7629 H   0  0  0  0  0  0  0  0  0  0  0  0
   17.7690  -34.4352   39.2493 H   0  0  0  0  0  0  0  0  0  0  0  0
   17.9260  -34.1536   36.7733 H   0  0  0  0  0  0  0  0  0  0  0  0
   19.8920  -31.7530   35.1310 H   0  0  0  0  0  0  0  0  0  0  0  0
   22.7240  -28.0600   38.2770 H   0  0  0  0  0  0  0  0  0  0  0  0
   20.8253  -27.5114   40.3419 H   0  0  0  0  0  0  0  0  0  0  0  0
   21.9010  -26.1969   42.1537 H   0  0  0  0  0  0  0  0  0  0  0  0
   24.7841  -27.5626   44.1227 H   0  0  0  0  0  0  0  0  0  0  0  0
  1  2  2  0
  2  3  1  0
  3  4  2  0
  4  5  1  0
  5  6  1  0
  6  7  1  0
  7  8  1  0
  8  9  2  0
  9 10  1  0
 10 11  2  0
 11 12  1  0
 12 13  1  0
 12 14  2  0
 14 15  1  0
 15 16  2  0
 15 17  1  0
 17 18  1  0
  5 19  2  0
 19 20  1  0
 20 21  2  0
 21 22  1  0
 22 23  1  0
 22 24  1  0
 21  3  1  0
 17  6  2  0
 14  8  1  0
  1 25  1  0
  1 26  1  0
  2 27  1  0
  4 28  1  0
  9 29  1  0
 10 30  1  0
 11 31  1  0
 13 32  1  0
 18 33  1  0
 19 34  1  0
 20 35  1  0
 22 36  1  0
M  END
>  <meeko>  (1) 
{"is_sidechain": [false], "free_energy": -9.671, "intermolecular_energy": -11.933, "internal_energy": -0.609}

$$$$
cand_021_out
     RDKit          3D

 36 38  0  0  0  0  0  0  0  0999 V2000
   20.1120  -26.0950   42.7150 C   0  0  0  0  0  0  0  0  0  0  0  0
   21.3720  -26.1750   42.2700 C   0  0  0  0  0  0  0  0  0  0  0  0
   21.9830  -27.4410   41.8440 C   0  0  0  0  0  0  0  0  0  0  0  0
   21.3790  -28.1790   40.8110 C   0  0  0  0  0  0  0  0  0  0  0  0
   21.9240  -29.3890   40.3580 C   0  0  0  0  0  0  0  0  0  0  0  0
   21.3020  -30.1580   39.2600 C   0  0  0  0  0  0  0  0  0  0  0  0
   20.5300  -31.2210   39.7130 O   0  0  0  0  0  0  0  0  0  0  0  0
   19.8960  -32.0180   38.7940 C   0  0  0  0  0  0  0  0  0  0  0  0
   19.1450  -33.0840   39.2920 C   0  0  0  0  0  0  0  0  0  0  0  0
   18.4720  -33.9330   38.4090 C   0  0  0  0  0  0  0  0  0  0  0  0
   18.5510  -33.7170   37.0330 C   0  0  0  0  0  0  0  0  0  0  0  0
   19.3020  -32.6520   36.5390 C   0  0  0  0  0  0  0  0  0  0  0  0
   19.3360  -32.4980   35.1810 O   0  0  0  0  0  0  0  0  0  0  0  0
   19.9750  -31.8040   37.4220 C   0  0  0  0  0  0  0  0  0  0  0  0
   20.7740  -30.6740   36.9450 C   0  0  0  0  0  0  0  0  0  0  0  0
   20.8870  -30.4130   35.7490 O   0  0  0  0  0  0  0  0  0  0  0  0
   21.4550  -29.8390   37.9610 C   0  0  0  0  0  0  0  0  0  0  0  0
   22.1960  -28.7660   37.5030 O   0  0  0  0  0  0  0  0  0  0  0  0
   23.1110  -29.8450   40.9430 C   0  0  0  0  0  0  0  0  0  0  0  0
   23.7260  -29.1180   41.9660 C   0  0  0  0  0  0  0  0  0  0  0  0
   23.1720  -27.9130   42.4300 C   0  0  0  0  0  0  0  0  0  0  0  0
   23.8510  -27.1630   43.5500 C   0  0  0  0  0  0  0  0  0  0  0  0
   24.5530  -26.0810   43.1100 F   0  0  0  0  0  0  0  0  0  0  0  0
   24.7530  -27.9220   44.2400 F   0  0  0  0  0  0  0  0  0  0  0  0
   19.6981  -25.1235   43.0231 H   0  0  0  0  0  0  0  0  0  0  0  0
   19.4905  -27.0008   42.7726 H   0  0  0  0  0  0  0  0  0  0  0  0
   21.9740  -25.2557   42.2214 H   0  0  0  0  0  0  0  0  0  0  0  0
   20.4571  -27.7982   40.3472 H   0  0  0  0  0  0  0  0  0  0  0  0
   19.0830  -33.2555   40.3768 H   0  0  0  0  0  0  0  0  0  0  0  0
   17.8790  -34.7730   38.7997 H   0  0  0  0  0  0  0  0  0  0  0  0
   18.0214  -34.3862   36.3390 H   0  0  0  0  0  0  0  0  0  0  0  0
   20.0890  -32.7750   34.6950 H   0  0  0  0  0  0  0  0  0  0  0  0
   22.7640  -28.3040   38.0880 H   0  0  0  0  0  0  0  0  0  0  0  0
   23.5642  -30.7847   40.5942 H   0  0  0  0  0  0  0  0  0  0  0  0
   24.6572  -29.4946   42.4144 H   0  0  0  0  0  0  0  0  0  0  0  0
   23.0128  -26.8643   44.1967 H   0  0  0  0  0  0  0  0  0  0  0  0
  1  2  2  0
  2  3  1  0
  3  4  2  0
  4  5  1  0
  5  6  1  0
  6  7  1  0
  7  8  1  0
  8  9  2  0
  9 10  1  0
 10 11  2  0
 11 12  1  0
 12 13  1  0
 12 14  2  0
 14 15  1  0
 15 16  2  0
 15 17  1  0
 17 18  1  0
  5 19  2  0
 19 20  1  0
 20 21  2  0
 21 22  1  0
 22 23  1  0
 22 24  1  0
 21  3  1  0
 17  6  2  0
 14  8  1  0
  1 25  1  0
  1 26  1  0
  2 27  1  0
  4 28  1  0
  9 29  1  0
 10 30  1  0
 11 31  1  0
 13 32  1  0
 18 33  1  0
 19 34  1  0
 20 35  1  0
 22 36  1  0
M  END
>  <meeko>  (2) 
{"is_sidechain": [false], "free_energy": -9.46, "intermolecular_energy": -11.623, "internal_energy": -0.658}

$$$$
cand_021_out
     RDKit          3D

 36 38  0  0  0  0  0  0  0  0999 V2000
   18.7910  -33.1680   39.8160 C   0  0  0  0  0  0  0  0  0  0  0  0
   18.5420  -32.1250   39.0140 C   0  0  0  0  0  0  0  0  0  0  0  0
   19.5820  -31.1710   38.6090 C   0  0  0  0  0  0  0  0  0  0  0  0
   20.0470  -30.2270   39.5430 C   0  0  0  0  0  0  0  0  0  0  0  0
   21.0440  -29.2980   39.2120 C   0  0  0  0  0  0  0  0  0  0  0  0
   21.5480  -28.3180   40.1960 C   0  0  0  0  0  0  0  0  0  0  0  0
   22.4370  -28.8750   41.1080 O   0  0  0  0  0  0  0  0  0  0  0  0
   22.9800  -28.0720   42.0790 C   0  0  0  0  0  0  0  0  0  0  0  0
   23.8550  -28.6750   42.9830 C   0  0  0  0  0  0  0  0  0  0  0  0
   24.4440  -27.9130   43.9960 C   0  0  0  0  0  0  0  0  0  0  0  0
   24.1580  -26.5510   44.1030 C   0  0  0  0  0  0  0  0  0  0  0  0
   23.2830  -25.9520   43.1990 C   0  0  0  0  0  0  0  0  0  0  0  0
   23.0480  -24.6150   43.3620 O   0  0  0  0  0  0  0  0  0  0  0  0
   22.6940  -26.7140   42.1880 C   0  0  0  0  0  0  0  0  0  0  0  0
   21.7710  -26.1240   41.2170 C   0  0  0  0  0  0  0  0  0  0  0  0
   21.4740  -24.9310   41.2410 O   0  0  0  0  0  0  0  0  0  0  0  0
   21.1940  -27.0200   40.1890 C   0  0  0  0  0  0  0  0  0  0  0  0
   20.3330  -26.4510   39.2680 O   0  0  0  0  0  0  0  0  0  0  0  0
   21.5970  -29.3430   37.9270 C   0  0  0  0  0  0  0  0  0  0  0  0
   21.1500  -30.2790   36.9910 C   0  0  0  0  0  0  0  0  0  0  0  0
   20.1400  -31.2010   37.3170 C   0  0  0  0  0  0  0  0  0  0  0  0
   19.6660  -32.1860   36.2770 C   0  0  0  0  0  0  0  0  0  0  0  0
   19.8930  -33.4810   36.6350 F   0  0  0  0  0  0  0  0  0  0  0  0
   20.2820  -32.0340   35.0680 F   0  0  0  0  0  0  0  0  0  0  0  0
   17.9783  -33.8560   40.0918 H   0  0  0  0  0  0  0  0  0  0  0  0
   19.8083  -33.3368   40.1990 H   0  0  0  0  0  0  0  0  0  0  0  0
   17.5169  -31.9769   38.6436 H   0  0  0  0  0  0  0  0  0  0  0  0
   19.6186  -30.2175   40.5561 H   0  0  0  0  0  0  0  0  0  0  0  0
   24.0810  -29.7482   42.8987 H   0  0  0  0  0  0  0  0  0  0  0  0
   25.1337  -28.3872   44.7097 H   0  0  0  0  0  0  0  0  0  0  0  0
   24.6226  -25.9515   44.8997 H   0  0  0  0  0  0  0  0  0  0  0  0
   23.4630  -24.1470   44.0610 H   0  0  0  0  0  0  0  0  0  0  0  0
   20.0020  -26.9640   38.5570 H   0  0  0  0  0  0  0  0  0  0  0  0
   22.3917  -28.6342   37.6512 H   0  0  0  0  0  0  0  0  0  0  0  0
   21.5945  -30.2947   35.9849 H   0  0  0  0  0  0  0  0  0  0  0  0
   18.5900  -31.9710   36.2002 H   0  0  0  0  0  0  0  0  0  0  0  0
  1  2  2  0
  2  3  1  0
  3  4  2  0
  4  5  1  0
  5  6  1  0
  6  7  1  0
  7  8  1  0
  8  9  2  0
  9 10  1  0
 10 11  2  0
 11 12  1  0
 12 13  1  0
 12 14  2  0
 14 15  1  0
 15 16  2  0
 15 17  1  0
 17 18  1  0
  5 19  2  0
 19 20  1  0
 20 21  2  0
 21 22  1  0
 22 23  1  0
 22 24  1  0
 21  3  1  0
 17  6  2  0
 14  8  1  0
  1 25  1  0
  1 26  1  0
  2 27  1  0
  4 28  1  0
  9 29  1  0
 10 30  1  0
 11 31  1  0
 13 32  1  0
 18 33  1  0
 19 34  1  0
 20 35  1  0
 22 36  1  0
M  END
>  <meeko>  (3) 
{"is_sidechain": [false], "free_energy": -8.888, "intermolecular_energy": -10.978, "internal_energy": -0.597}

$$$$
cand_021_out
     RDKit          3D

 36 38  0  0  0  0  0  0  0  0999 V2000
   24.4210  -29.1270   43.9230 C   0  0  0  0  0  0  0  0  0  0  0  0
   24.2200  -28.0450   43.1620 C   0  0  0  0  0  0  0  0  0  0  0  0
   22.9470  -27.7810   42.4790 C   0  0  0  0  0  0  0  0  0  0  0  0
   22.5660  -28.6000   41.4000 C   0  0  0  0  0  0  0  0  0  0  0  0
   21.3570  -28.3990   40.7180 C   0  0  0  0  0  0  0  0  0  0  0  0
   20.9460  -29.2680   39.5970 C   0  0  0  0  0  0  0  0  0  0  0  0
   20.4110  -30.4790   40.0200 O   0  0  0  0  0  0  0  0  0  0  0  0
   19.9890  -31.3830   39.0770 C   0  0  0  0  0  0  0  0  0  0  0  0
   19.4740  -32.5930   39.5450 C   0  0  0  0  0  0  0  0  0  0  0  0
   19.0250  -33.5550   38.6370 C   0  0  0  0  0  0  0  0  0  0  0  0
   19.0910  -33.3080   37.2650 C   0  0  0  0  0  0  0  0  0  0  0  0
   19.6060  -32.1000   36.8010 C   0  0  0  0  0  0  0  0  0  0  0  0
   19.6410  -31.9240   35.4450 O   0  0  0  0  0  0  0  0  0  0  0  0
   20.0560  -31.1380   37.7090 C   0  0  0  0  0  0  0  0  0  0  0  0
   20.6030  -29.8560   37.2640 C   0  0  0  0  0  0  0  0  0  0  0  0
   20.6880  -29.5610   36.0730 O   0  0  0  0  0  0  0  0  0  0  0  0
   21.0600  -28.9070   38.3050 C   0  0  0  0  0  0  0  0  0  0  0  0
   21.5620  -27.6930   37.8760 O   0  0  0  0  0  0  0  0  0  0  0  0
   20.5110  -27.3720   41.1510 C   0  0  0  0  0  0  0  0  0  0  0  0
   20.8730  -26.5550   42.2250 C   0  0  0  0  0  0  0  0  0  0  0  0
   22.0910  -26.7470   42.9000 C   0  0  0  0  0  0  0  0  0  0  0  0
   22.4610  -25.8340   44.0430 C   0  0  0  0  0  0  0  0  0  0  0  0
   22.3390  -26.4370   45.2590 F   0  0  0  0  0  0  0  0  0  0  0  0
   21.6820  -24.7150   44.1170 F   0  0  0  0  0  0  0  0  0  0  0  0
   25.3930  -29.2809   44.4145 H   0  0  0  0  0  0  0  0  0  0  0  0
   23.6143  -29.8627   44.0571 H   0  0  0  0  0  0  0  0  0  0  0  0
   25.0419  -27.3237   43.0431 H   0  0  0  0  0  0  0  0  0  0  0  0
   23.2317  -29.4167   41.0841 H   0  0  0  0  0  0  0  0  0  0  0  0
   19.4218  -32.7886   40.6262 H   0  0  0  0  0  0  0  0  0  0  0  0
   18.6187  -34.5090   39.0041 H   0  0  0  0  0  0  0  0  0  0  0  0
   18.7368  -34.0663   36.5511 H   0  0  0  0  0  0  0  0  0  0  0  0
   19.5400  -32.6610   34.8740 H   0  0  0  0  0  0  0  0  0  0  0  0
   21.0160  -26.9310   37.8800 H   0  0  0  0  0  0  0  0  0  0  0  0
   19.5509  -27.2062   40.6405 H   0  0  0  0  0  0  0  0  0  0  0  0
   20.1955  -25.7504   42.5468 H   0  0  0  0  0  0  0  0  0  0  0  0
   23.5065  -25.5706   43.8247 H   0  0  0  0  0  0  0  0  0  0  0  0
  1  2  2  0
  2  3  1  0
  3  4  2  0
  4  5  1  0
  5  6  1  0
  6  7  1  0
  7  8  1  0
  8  9  2  0
  9 10  1  0
 10 11  2  0
 11 12  1  0
 12 13  1  0
 12 14  2  0
 14 15  1  0
 15 16  2  0
 15 17  1  0
 17 18  1  0
  5 19  2  0
 19 20  1  0
 20 21  2  0
 21 22  1  0
 22 23  1  0
 22 24  1  0
 21  3  1  0
 17  6  2  0
 14  8  1  0
  1 25  1  0
  1 26  1  0
  2 27  1  0
  4 28  1  0
  9 29  1  0
 10 30  1  0
 11 31  1  0
 13 32  1  0
 18 33  1  0
 19 34  1  0
 20 35  1  0
 22 36  1  0
M  END
>  <meeko>  (4) 
{"is_sidechain": [false], "free_energy": -8.789, "intermolecular_energy": -10.764, "internal_energy": -0.689}

$$$$
cand_021_out
     RDKit          3D

 36 38  0  0  0  0  0  0  0  0999 V2000
   23.6700  -29.9160   41.6240 C   0  0  0  0  0  0  0  0  0  0  0  0
   23.0220  -28.7790   41.3390 C   0  0  0  0  0  0  0  0  0  0  0  0
   21.7810  -28.7500   40.5550 C   0  0  0  0  0  0  0  0  0  0  0  0
   21.5060  -29.8070   39.6680 C   0  0  0  0  0  0  0  0  0  0  0  0
   20.3320  -29.8340   38.9020 C   0  0  0  0  0  0  0  0  0  0  0  0
   20.0310  -30.9520   37.9840 C   0  0  0  0  0  0  0  0  0  0  0  0
   20.4370  -30.7040   36.6780 O   0  0  0  0  0  0  0  0  0  0  0  0
   20.2160  -31.6630   35.7220 C   0  0  0  0  0  0  0  0  0  0  0  0
   20.6240  -31.3660   34.4210 C   0  0  0  0  0  0  0  0  0  0  0  0
   20.4300  -32.3000   33.4000 C   0  0  0  0  0  0  0  0  0  0  0  0
   19.8290  -33.5280   33.6800 C   0  0  0  0  0  0  0  0  0  0  0  0
   19.4220  -33.8220   34.9800 C   0  0  0  0  0  0  0  0  0  0  0  0
   18.8400  -35.0430   35.1840 O   0  0  0  0  0  0  0  0  0  0  0  0
   19.6150  -32.8870   36.0000 C   0  0  0  0  0  0  0  0  0  0  0  0
   19.2030  -33.1550   37.3790 C   0  0  0  0  0  0  0  0  0  0  0  0
   18.6740  -34.2160   37.7070 O   0  0  0  0  0  0  0  0  0  0  0  0
   19.4460  -32.0960   38.3850 C   0  0  0  0  0  0  0  0  0  0  0  0
   19.0660  -32.3640   39.6870 O   0  0  0  0  0  0  0  0  0  0  0  0
   19.4120  -28.7900   39.0540 C   0  0  0  0  0  0  0  0  0  0  0  0
   19.6690  -27.7370   39.9360 C   0  0  0  0  0  0  0  0  0  0  0  0
   20.8520  -27.7020   40.6930 C   0  0  0  0  0  0  0  0  0  0  0  0
   21.1090  -26.5400   41.6220 C   0  0  0  0  0  0  0  0  0  0  0  0
   20.3650  -26.6020   42.7620 F   0  0  0  0  0  0  0  0  0  0  0  0
   20.8130  -25.3280   41.0650 F   0  0  0  0  0  0  0  0  0  0  0  0
   24.5971  -29.8873   42.2153 H   0  0  0  0  0  0  0  0  0  0  0  0
   23.2751  -30.8785   41.2668 H   0  0  0  0  0  0  0  0  0  0  0  0
   23.4362  -27.8288   41.7071 H   0  0  0  0  0  0  0  0  0  0  0  0
   22.2286  -30.6310   39.5734 H   0  0  0  0  0  0  0  0  0  0  0  0
   21.0976  -30.3982   34.1996 H   0  0  0  0  0  0  0  0  0  0  0  0
   20.7514  -32.0670   32.3741 H   0  0  0  0  0  0  0  0  0  0  0  0
   19.6768  -34.2628   32.8757 H   0  0  0  0  0  0  0  0  0  0  0  0
   18.5010  -35.5280   34.4570 H   0  0  0  0  0  0  0  0  0  0  0  0
   19.5620  -32.0150   40.4010 H   0  0  0  0  0  0  0  0  0  0  0  0
   18.4777  -28.7986   38.4735 H   0  0  0  0  0  0  0  0  0  0  0  0
   18.9349  -26.9243   40.0390 H   0  0  0  0  0  0  0  0  0  0  0  0
   22.1846  -26.6229   41.8370 H   0  0  0  0  0  0  0  0  0  0  0  0
  1  2  2  0
  2  3  1  0
  3  4  2  0
  4  5  1  0
  5  6  1  0
  6  7  1  0
  7  8  1  0
  8  9  2  0
  9 10  1  0
 10 11  2  0
 11 12  1  0
 12 13  1  0
 12 14  2  0
 14 15  1  0
 15 16  2  0
 15 17  1  0
 17 18  1  0
  5 19  2  0
 19 20  1  0
 20 21  2  0
 21 22  1  0
 22 23  1  0
 22 24  1  0
 21  3  1  0
 17  6  2  0
 14  8  1  0
  1 25  1  0
  1 26  1  0
  2 27  1  0
  4 28  1  0
  9 29  1  0
 10 30  1  0
 11 31  1  0
 13 32  1  0
 18 33  1  0
 19 34  1  0
 20 35  1  0
 22 36  1  0
M  END
>  <meeko>  (5) 
{"is_sidechain": [false], "free_energy": -8.683, "intermolecular_energy": -10.661, "internal_energy": -0.662}

$$$$
cand_021_out
     RDKit          3D

 36 38  0  0  0  0  0  0  0  0999 V2000
   19.2380  -32.7520   39.6440 C   0  0  0  0  0  0  0  0  0  0  0  0
   19.5800  -32.1570   38.4940 C   0  0  0  0  0  0  0  0  0  0  0  0
   20.3800  -30.9270   38.4450 C   0  0  0  0  0  0  0  0  0  0  0  0
   20.7870  -30.3260   39.6510 C   0  0  0  0  0  0  0  0  0  0  0  0
   21.5600  -29.1560   39.6620 C   0  0  0  0  0  0  0  0  0  0  0  0
   22.0050  -28.5340   40.9260 C   0  0  0  0  0  0  0  0  0  0  0  0
   21.1980  -27.4730   41.3200 O   0  0  0  0  0  0  0  0  0  0  0  0
   21.5020  -26.8040   42.4790 C   0  0  0  0  0  0  0  0  0  0  0  0
   20.6750  -25.7360   42.8290 C   0  0  0  0  0  0  0  0  0  0  0  0
   20.9280  -25.0140   43.9990 C   0  0  0  0  0  0  0  0  0  0  0  0
   22.0050  -25.3610   44.8160 C   0  0  0  0  0  0  0  0  0  0  0  0
   22.8280  -26.4280   44.4640 C   0  0  0  0  0  0  0  0  0  0  0  0
   23.8640  -26.7130   45.3100 O   0  0  0  0  0  0  0  0  0  0  0  0
   22.5760  -27.1490   43.2940 C   0  0  0  0  0  0  0  0  0  0  0  0
   23.4150  -28.2770   42.8880 C   0  0  0  0  0  0  0  0  0  0  0  0
   24.3780  -28.6480   43.5580 O   0  0  0  0  0  0  0  0  0  0  0  0
   23.0680  -28.9700   41.6270 C   0  0  0  0  0  0  0  0  0  0  0  0
   23.8590  -30.0430   41.2580 O   0  0  0  0  0  0  0  0  0  0  0  0
   21.9480  -28.6010   38.4370 C   0  0  0  0  0  0  0  0  0  0  0  0
   21.5560  -29.1900   37.2320 C   0  0  0  0  0  0  0  0  0  0  0  0
   20.7700  -30.3550   37.2200 C   0  0  0  0  0  0  0  0  0  0  0  0
   20.3470  -30.9550   35.9010 C   0  0  0  0  0  0  0  0  0  0  0  0
   21.3930  -31.1430   35.0480 F   0  0  0  0  0  0  0  0  0  0  0  0
   19.4580  -30.1780   35.2140 F   0  0  0  0  0  0  0  0  0  0  0  0
   18.6369  -33.6731   39.6292 H   0  0  0  0  0  0  0  0  0  0  0  0
   19.5582  -32.3196   40.6034 H   0  0  0  0  0  0  0  0  0  0  0  0
   19.2479  -32.6083   37.5474 H   0  0  0  0  0  0  0  0  0  0  0  0
   20.4921  -30.7844   40.6064 H   0  0  0  0  0  0  0  0  0  0  0  0
   19.8257  -25.4628   42.1856 H   0  0  0  0  0  0  0  0  0  0  0  0
   20.2774  -24.1714   44.2761 H   0  0  0  0  0  0  0  0  0  0  0  0
   22.2035  -24.7926   45.7366 H   0  0  0  0  0  0  0  0  0  0  0  0
   24.7400  -26.4700   45.0780 H   0  0  0  0  0  0  0  0  0  0  0  0
   24.7400  -29.8990   40.9720 H   0  0  0  0  0  0  0  0  0  0  0  0
   22.5676  -27.6922   38.4227 H   0  0  0  0  0  0  0  0  0  0  0  0
   21.8669  -28.7356   36.2797 H   0  0  0  0  0  0  0  0  0  0  0  0
   19.8889  -31.9108   36.1953 H   0  0  0  0  0  0  0  0  0  0  0  0
  1  2  2  0
  2  3  1  0
  3  4  2  0
  4  5  1  0
  5  6  1  0
  6  7  1  0
  7  8  1  0
  8  9  2  0
  9 10  1  0
 10 11  2  0
 11 12  1  0
 12 13  1  0
 12 14  2  0
 14 15  1  0
 15 16  2  0
 15 17  1  0
 17 18  1  0
  5 19  2  0
 19 20  1  0
 20 21  2  0
 21 22  1  0
 22 23  1  0
 22 24  1  0
 21  3  1  0
 17  6  2  0
 14  8  1  0
  1 25  1  0
  1 26  1  0
  2 27  1  0
  4 28  1  0
  9 29  1  0
 10 30  1  0
 11 31  1  0
 13 32  1  0
 18 33  1  0
 19 34  1  0
 20 35  1  0
 22 36  1  0
M  END
>  <meeko>  (6) 
{"is_sidechain": [false], "free_energy": -8.675, "intermolecular_energy": -10.664, "internal_energy": -0.649}

$$$$
cand_021_out
     RDKit          3D

 36 38  0  0  0  0  0  0  0  0999 V2000
   19.1230  -25.8790   40.2550 C   0  0  0  0  0  0  0  0  0  0  0  0
   19.5370  -26.8450   41.0850 C   0  0  0  0  0  0  0  0  0  0  0  0
   20.4670  -27.9030   40.6690 C   0  0  0  0  0  0  0  0  0  0  0  0
   20.0250  -28.8870   39.7650 C   0  0  0  0  0  0  0  0  0  0  0  0
   20.8730  -29.9140   39.3280 C   0  0  0  0  0  0  0  0  0  0  0  0
   20.4180  -30.9380   38.3650 C   0  0  0  0  0  0  0  0  0  0  0  0
   20.7600  -30.6360   37.0520 O   0  0  0  0  0  0  0  0  0  0  0  0
   20.3950  -31.5050   36.0550 C   0  0  0  0  0  0  0  0  0  0  0  0
   20.7450  -31.1550   34.7500 C   0  0  0  0  0  0  0  0  0  0  0  0
   20.4040  -31.9970   33.6890 C   0  0  0  0  0  0  0  0  0  0  0  0
   19.7170  -33.1870   33.9320 C   0  0  0  0  0  0  0  0  0  0  0  0
   19.3690  -33.5340   35.2360 C   0  0  0  0  0  0  0  0  0  0  0  0
   18.6970  -34.7130   35.4030 O   0  0  0  0  0  0  0  0  0  0  0  0
   19.7080  -32.6910   36.2970 C   0  0  0  0  0  0  0  0  0  0  0  0
   19.3630  -33.0180   37.6810 C   0  0  0  0  0  0  0  0  0  0  0  0
   18.7640  -34.0500   37.9780 O   0  0  0  0  0  0  0  0  0  0  0  0
   19.7610  -32.0540   38.7320 C   0  0  0  0  0  0  0  0  0  0  0  0
   19.4430  -32.3770   40.0380 O   0  0  0  0  0  0  0  0  0  0  0  0
   22.1930  -29.9310   39.7920 C   0  0  0  0  0  0  0  0  0  0  0  0
   22.6480  -28.9570   40.6840 C   0  0  0  0  0  0  0  0  0  0  0  0
   21.7940  -27.9360   41.1340 C   0  0  0  0  0  0  0  0  0  0  0  0
   22.3110  -26.9100   42.1140 C   0  0  0  0  0  0  0  0  0  0  0  0
   22.5760  -25.7080   41.5280 F   0  0  0  0  0  0  0  0  0  0  0  0
   23.4780  -27.2810   42.7190 F   0  0  0  0  0  0  0  0  0  0  0  0
   18.4253  -25.1077   40.6132 H   0  0  0  0  0  0  0  0  0  0  0  0
   19.4807  -25.8568   39.2150 H   0  0  0  0  0  0  0  0  0  0  0  0
   19.1655  -26.8461   42.1204 H   0  0  0  0  0  0  0  0  0  0  0  0
   18.9905  -28.8493   39.3929 H   0  0  0  0  0  0  0  0  0  0  0  0
   21.2882  -30.2181   34.5575 H   0  0  0  0  0  0  0  0  0  0  0  0
   20.6776  -31.7215   32.6598 H   0  0  0  0  0  0  0  0  0  0  0  0
   19.4506  -33.8500   33.0957 H   0  0  0  0  0  0  0  0  0  0  0  0
   17.9160  -34.8820   34.9110 H   0  0  0  0  0  0  0  0  0  0  0  0
   20.0800  -32.2710   40.7170 H   0  0  0  0  0  0  0  0  0  0  0  0
   22.8797  -30.7197   39.4507 H   0  0  0  0  0  0  0  0  0  0  0  0
   23.6887  -28.9898   41.0388 H   0  0  0  0  0  0  0  0  0  0  0  0
   21.4956  -26.8300   42.8480 H   0  0  0  0  0  0  0  0  0  0  0  0
  1  2  2  0
  2  3  1  0
  3  4  2  0
  4  5  1  0
  5  6  1  0
  6  7  1  0
  7  8  1  0
  8  9  2  0
  9 10  1  0
 10 11  2  0
 11 12  1  0
 12 13  1  0
 12 14  2  0
 14 15  1  0
 15 16  2  0
 15 17  1  0
 17 18  1  0
  5 19  2  0
 19 20  1  0
 20 21  2  0
 21 22  1  0
 22 23  1  0
 22 24  1  0
 21  3  1  0
 17  6  2  0
 14  8  1  0
  1 25  1  0
  1 26  1  0
  2 27  1  0
  4 28  1  0
  9 29  1  0
 10 30  1  0
 11 31  1  0
 13 32  1  0
 18 33  1  0
 19 34  1  0
 20 35  1  0
 22 36  1  0
M  END
>  <meeko>  (7) 
{"is_sidechain": [false], "free_energy": -8.563, "intermolecular_energy": -10.454, "internal_energy": -0.72}

$$$$
cand_021_out
     RDKit          3D

 36 38  0  0  0  0  0  0  0  0999 V2000
   20.1410  -30.2470   34.7090 C   0  0  0  0  0  0  0  0  0  0  0  0
   20.1520  -31.3580   35.4550 C   0  0  0  0  0  0  0  0  0  0  0  0
   20.1090  -31.3280   36.9230 C   0  0  0  0  0  0  0  0  0  0  0  0
   20.5210  -30.1640   37.5960 C   0  0  0  0  0  0  0  0  0  0  0  0
   20.4920  -30.0780   38.9960 C   0  0  0  0  0  0  0  0  0  0  0  0
   20.9060  -28.8500   39.7050 C   0  0  0  0  0  0  0  0  0  0  0  0
   21.8570  -29.0890   40.6890 O   0  0  0  0  0  0  0  0  0  0  0  0
   22.3280  -28.0320   41.4260 C   0  0  0  0  0  0  0  0  0  0  0  0
   23.2710  -28.3180   42.4150 C   0  0  0  0  0  0  0  0  0  0  0  0
   23.7920  -27.2870   43.2000 C   0  0  0  0  0  0  0  0  0  0  0  0
   23.3720  -25.9710   42.9960 C   0  0  0  0  0  0  0  0  0  0  0  0
   22.4310  -25.6880   42.0080 C   0  0  0  0  0  0  0  0  0  0  0  0
   22.0640  -24.3790   41.8620 O   0  0  0  0  0  0  0  0  0  0  0  0
   21.9090  -26.7200   41.2240 C   0  0  0  0  0  0  0  0  0  0  0  0
   20.9200  -26.4660   40.1760 C   0  0  0  0  0  0  0  0  0  0  0  0
   20.5050  -25.3350   39.9310 O   0  0  0  0  0  0  0  0  0  0  0  0
   20.4230  -27.6300   39.4070 C   0  0  0  0  0  0  0  0  0  0  0  0
   19.4990  -27.3780   38.4100 O   0  0  0  0  0  0  0  0  0  0  0  0
   20.0150  -31.1760   39.7210 C   0  0  0  0  0  0  0  0  0  0  0  0
   19.5960  -32.3360   39.0650 C   0  0  0  0  0  0  0  0  0  0  0  0
   19.6390  -32.4280   37.6640 C   0  0  0  0  0  0  0  0  0  0  0  0
   19.1980  -33.7040   36.9870 C   0  0  0  0  0  0  0  0  0  0  0  0
   17.8600  -33.7290   36.7310 F   0  0  0  0  0  0  0  0  0  0  0  0
   19.4440  -34.8230   37.7300 F   0  0  0  0  0  0  0  0  0  0  0  0
   20.1746  -30.3208   33.6120 H   0  0  0  0  0  0  0  0  0  0  0  0
   20.0983  -29.2600   35.1928 H   0  0  0  0  0  0  0  0  0  0  0  0
   20.1950  -32.3334   34.9483 H   0  0  0  0  0  0  0  0  0  0  0  0
   20.8740  -29.3015   37.0116 H   0  0  0  0  0  0  0  0  0  0  0  0
   23.6033  -29.3542   42.5758 H   0  0  0  0  0  0  0  0  0  0  0  0
   24.5342  -27.5120   43.9801 H   0  0  0  0  0  0  0  0  0  0  0  0
   23.7832  -25.1593   43.6141 H   0  0  0  0  0  0  0  0  0  0  0  0
   22.6730  -23.6950   42.0690 H   0  0  0  0  0  0  0  0  0  0  0  0
   19.4600  -26.5320   38.0080 H   0  0  0  0  0  0  0  0  0  0  0  0
   19.9695  -31.1250   40.8189 H   0  0  0  0  0  0  0  0  0  0  0  0
   19.2274  -33.1890   39.6536 H   0  0  0  0  0  0  0  0  0  0  0  0
   19.7869  -33.7122   36.0579 H   0  0  0  0  0  0  0  0  0  0  0  0
  1  2  2  0
  2  3  1  0
  3  4  2  0
  4  5  1  0
  5  6  1  0
  6  7  1  0
  7  8  1  0
  8  9  2  0
  9 10  1  0
 10 11  2  0
 11 12  1  0
 12 13  1  0
 12 14  2  0
 14 15  1  0
 15 16  2  0
 15 17  1  0
 17 18  1  0
  5 19  2  0
 19 20  1  0
 20 21  2  0
 21 22  1  0
 22 23  1  0
 22 24  1  0
 21  3  1  0
 17  6  2  0
 14  8  1  0
  1 25  1  0
  1 26  1  0
  2 27  1  0
  4 28  1  0
  9 29  1  0
 10 30  1  0
 11 31  1  0
 13 32  1  0
 18 33  1  0
 19 34  1  0
 20 35  1  0
 22 36  1  0
M  END
>  <meeko>  (8) 
{"is_sidechain": [false], "free_energy": -8.358, "intermolecular_energy": -10.5, "internal_energy": -0.421}

$$$$
cand_021_out
     RDKit          3D

 36 38  0  0  0  0  0  0  0  0999 V2000
   23.5090  -25.7570   43.7040 C   0  0  0  0  0  0  0  0  0  0  0  0
   23.0260  -26.9980   43.8420 C   0  0  0  0  0  0  0  0  0  0  0  0
   23.0700  -27.9910   42.7610 C   0  0  0  0  0  0  0  0  0  0  0  0
   22.3730  -27.7350   41.5670 C   0  0  0  0  0  0  0  0  0  0  0  0
   22.3890  -28.6450   40.5000 C   0  0  0  0  0  0  0  0  0  0  0  0
   21.6730  -28.3700   39.2370 C   0  0  0  0  0  0  0  0  0  0  0  0
   21.5330  -29.4980   38.4370 O   0  0  0  0  0  0  0  0  0  0  0  0
   20.8870  -29.3810   37.2330 C   0  0  0  0  0  0  0  0  0  0  0  0
   20.7830  -30.5350   36.4550 C   0  0  0  0  0  0  0  0  0  0  0  0
   20.1350  -30.4840   35.2180 C   0  0  0  0  0  0  0  0  0  0  0  0
   19.5920  -29.2830   34.7610 C   0  0  0  0  0  0  0  0  0  0  0  0
   19.6970  -28.1320   35.5390 C   0  0  0  0  0  0  0  0  0  0  0  0
   19.1430  -26.9900   35.0310 O   0  0  0  0  0  0  0  0  0  0  0  0
   20.3460  -28.1830   36.7760 C   0  0  0  0  0  0  0  0  0  0  0  0
   20.4780  -26.9980   37.6250 C   0  0  0  0  0  0  0  0  0  0  0  0
   20.0200  -25.9050   37.2960 O   0  0  0  0  0  0  0  0  0  0  0  0
   21.1910  -27.1550   38.9140 C   0  0  0  0  0  0  0  0  0  0  0  0
   21.2990  -26.0340   39.7160 O   0  0  0  0  0  0  0  0  0  0  0  0
   23.1410  -29.8170   40.6340 C   0  0  0  0  0  0  0  0  0  0  0  0
   23.8440  -30.0820   41.8120 C   0  0  0  0  0  0  0  0  0  0  0  0
   23.8170  -29.1780   42.8880 C   0  0  0  0  0  0  0  0  0  0  0  0
   24.5700  -29.5030   44.1540 C   0  0  0  0  0  0  0  0  0  0  0  0
   25.7310  -28.7980   44.2730 F   0  0  0  0  0  0  0  0  0  0  0  0
   24.9370  -30.8160   44.2430 F   0  0  0  0  0  0  0  0  0  0  0  0
   23.4529  -25.0485   44.5436 H   0  0  0  0  0  0  0  0  0  0  0  0
   23.9619  -25.4459   42.7511 H   0  0  0  0  0  0  0  0  0  0  0  0
   22.5778  -27.2856   44.8045 H   0  0  0  0  0  0  0  0  0  0  0  0
   21.8023  -26.7999   41.4676 H   0  0  0  0  0  0  0  0  0  0  0  0
   21.2102  -31.4827   36.8148 H   0  0  0  0  0  0  0  0  0  0  0  0
   20.0529  -31.3926   34.6034 H   0  0  0  0  0  0  0  0  0  0  0  0
   19.0815  -29.2448   33.7874 H   0  0  0  0  0  0  0  0  0  0  0  0
   19.4650  -26.1520   35.3010 H   0  0  0  0  0  0  0  0  0  0  0  0
   21.1690  -26.1050   40.6410 H   0  0  0  0  0  0  0  0  0  0  0  0
   23.1792  -30.5372   39.8035 H   0  0  0  0  0  0  0  0  0  0  0  0
   24.4267  -31.0110   41.8986 H   0  0  0  0  0  0  0  0  0  0  0  0
   23.8538  -29.2394   44.9462 H   0  0  0  0  0  0  0  0  0  0  0  0
  1  2  2  0
  2  3  1  0
  3  4  2  0
  4  5  1  0
  5  6  1  0
  6  7  1  0
  7  8  1  0
  8  9  2  0
  9 10  1  0
 10 11  2  0
 11 12  1  0
 12 13  1  0
 12 14  2  0
 14 15  1  0
 15 16  2  0
 15 17  1  0
 17 18  1  0
  5 19  2  0
 19 20  1  0
 20 21  2  0
 21 22  1  0
 22 23  1  0
 22 24  1  0
 21  3  1  0
 17  6  2  0
 14  8  1  0
  1 25  1  0
  1 26  1  0
  2 27  1  0
  4 28  1  0
  9 29  1  0
 10 30  1  0
 11 31  1  0
 13 32  1  0
 18 33  1  0
 19 34  1  0
 20 35  1  0
 22 36  1  0
M  END
>  <meeko>  (9) 
{"is_sidechain": [false], "free_energy": -8.171, "intermolecular_energy": -10.611, "internal_energy": -0.08}

$$$$
