cand_053_out
     RDKit          3D

 44 46  0  0  0  0  0  0  0  0999 V2000
   22.3000  -25.3490   45.1250 C   0  0  0  0  0  0  0  0  0  0  0  0
   23.0390  -26.6560   44.8840 C   0  0  0  0  0  0  0  0  0  0  0  0
   23.8380  -26.6130   43.5800 C   0  0  0  0  0  0  0  0  0  0  0  0
   23.2430  -27.5230   42.5270 C   0  0  0  0  0  0  0  0  0  0  0  0
   22.2040  -27.0170   41.7260 C   0  0  0  0  0  0  0  0  0  0  0  0
   21.6180  -27.7970   40.7270 C   0  0  0  0  0  0  0  0  0  0  0  0
   22.0570  -29.1030   40.4910 C   0  0  0  0  0  0  0  0  0  0  0  0
   21.4030  -29.9230   39.4490 C   0  0  0  0  0  0  0  0  0  0  0  0
   20.6150  -30.9390   39.9780 O   0  0  0  0  0  0  0  0  0  0  0  0
   19.9500  -31.7780   39.1210 C   0  0  0  0  0  0  0  0  0  0  0  0
   19.1840  -32.7930   39.6950 C   0  0  0  0  0  0  0  0  0  0  0  0
   18.4790  -33.6810   38.8790 C   0  0  0  0  0  0  0  0  0  0  0  0
   18.5410  -33.5530   37.4890 C   0  0  0  0  0  0  0  0  0  0  0  0
   19.3070  -32.5390   36.9200 C   0  0  0  0  0  0  0  0  0  0  0  0
   19.3230  -32.4710   35.5530 O   0  0  0  0  0  0  0  0  0  0  0  0
   20.0120  -31.6520   37.7370 C   0  0  0  0  0  0  0  0  0  0  0  0
   20.8280  -30.5730   37.1790 C   0  0  0  0  0  0  0  0  0  0  0  0
   20.9260  -30.3910   35.9670 O   0  0  0  0  0  0  0  0  0  0  0  0
   21.5430  -29.6920   38.1310 C   0  0  0  0  0  0  0  0  0  0  0  0
   22.3000  -28.6670   37.5920 O   0  0  0  0  0  0  0  0  0  0  0  0
   23.0900  -29.6100   41.2910 C   0  0  0  0  0  0  0  0  0  0  0  0
   23.7010  -28.8360   42.3000 C   0  0  0  0  0  0  0  0  0  0  0  0
   24.8040  -29.4760   43.1120 C   0  0  0  0  0  0  0  0  0  0  0  0
   24.7280  -30.9950   43.0780 C   0  0  0  0  0  0  0  0  0  0  0  0
   22.2027  -25.1769   46.2071 H   0  0  0  0  0  0  0  0  0  0  0  0
   22.8632  -24.5203   44.6711 H   0  0  0  0  0  0  0  0  0  0  0  0
   21.2995  -25.4044   44.6711 H   0  0  0  0  0  0  0  0  0  0  0  0
   23.7295  -26.8364   45.7211 H   0  0  0  0  0  0  0  0  0  0  0  0
   22.2970  -27.4646   44.8090 H   0  0  0  0  0  0  0  0  0  0  0  0
   23.8417  -25.5813   43.1984 H   0  0  0  0  0  0  0  0  0  0  0  0
   24.8602  -26.9588   43.7933 H   0  0  0  0  0  0  0  0  0  0  0  0
   21.8468  -25.9895   41.8891 H   0  0  0  0  0  0  0  0  0  0  0  0
   20.8020  -27.3792   40.1191 H   0  0  0  0  0  0  0  0  0  0  0  0
   19.1352  -32.8939   40.7893 H   0  0  0  0  0  0  0  0  0  0  0  0
   17.8748  -34.4814   39.3310 H   0  0  0  0  0  0  0  0  0  0  0  0
   17.9860  -34.2517   36.8457 H   0  0  0  0  0  0  0  0  0  0  0  0
   18.5500  -32.2170   35.0880 H   0  0  0  0  0  0  0  0  0  0  0  0
   22.9720  -28.2620   38.1050 H   0  0  0  0  0  0  0  0  0  0  0  0
   23.4345  -30.6418   41.1274 H   0  0  0  0  0  0  0  0  0  0  0  0
   25.7751  -29.1597   42.7035 H   0  0  0  0  0  0  0  0  0  0  0  0
   24.6880  -29.1531   44.1571 H   0  0  0  0  0  0  0  0  0  0  0  0
   24.7085  -31.3843   44.1066 H   0  0  0  0  0  0  0  0  0  0  0  0
   23.8132  -31.3047   42.5514 H   0  0  0  0  0  0  0  0  0  0  0  0
   25.6073  -31.3944   42.5514 H   0  0  0  0  0  0  0  0  0  0  0  0
  1  2  1  0
  2  3  1  0
  3  4  1  0
  4  5  2  0
  5  6  1  0
  6  7  2  0
  7  8  1  0
  8  9  1  0
  9 10  1  0
 10 11  2  0
 11 12  1  0
 12 13  2  0
 13 14  1  0
 14 15  1  0
 14 16  2  0
 16 17  1  0
 17 18  2  0
 17 19  1  0
 19 20  1  0
  7 21  1  0
 21 22  2  0
 22 23  1  0
 23 24  1  0
 22  4  1  0
 19  8  2  0
 16 10  1  0
  1 25  1  0
  1 26  1  0
  1 27  1  0
  2 28  1  0
  2 29  1  0
  3 30  1  0
  3 31  1  0
  5 32  1  0
  6 33  1  0
 11 34  1  0
 12 35  1  0
 13 36  1  0
 15 37  1  0
 20 38  1  0
 21 39  1  0
 23 40  1  0
 23 41  1  0
 24 42  1  0
 24 43  1  0
 24 44  1  0
M  END
>  <meeko>  (1) 
{"is_sidechain": [false], "free_energy": -9.362, "intermolecular_energy": -12.098, "internal_energy": -0.705}

$$$$
cand_053_out
     RDKit          3D

 44 46  0  0  0  0  0  0  0  0999 V2000
   23.0830  -28.3160   44.9740 C   0  0  0  0  0  0  0  0  0  0  0  0
   24.1730  -27.7280   44.0920 C   0  0  0  0  0  0  0  0  0  0  0  0
   23.5790  -26.8970   42.9530 C   0  0  0  0  0  0  0  0  0  0  0  0
   22.8500  -27.7640   41.9480 C   0  0  0  0  0  0  0  0  0  0  0  0
   23.4270  -28.9980   41.5980 C   0  0  0  0  0  0  0  0  0  0  0  0
   22.8030  -29.8540   40.6880 C   0  0  0  0  0  0  0  0  0  0  0  0
   21.5800  -29.5080   40.1060 C   0  0  0  0  0  0  0  0  0  0  0  0
   20.9510  -30.4140   39.1220 C   0  0  0  0  0  0  0  0  0  0  0  0
   20.2510  -31.4570   39.7180 O   0  0  0  0  0  0  0  0  0  0  0  0
   19.6180  -32.3750   38.9180 C   0  0  0  0  0  0  0  0  0  0  0  0
   18.9420  -33.4130   39.5590 C   0  0  0  0  0  0  0  0  0  0  0  0
   18.2740  -34.3800   38.8040 C   0  0  0  0  0  0  0  0  0  0  0  0
   18.2820  -34.3070   37.4090 C   0  0  0  0  0  0  0  0  0  0  0  0
   18.9580  -33.2690   36.7730 C   0  0  0  0  0  0  0  0  0  0  0  0
   18.9260  -33.2580   35.4050 O   0  0  0  0  0  0  0  0  0  0  0  0
   19.6270  -32.3030   37.5290 C   0  0  0  0  0  0  0  0  0  0  0  0
   20.3490  -31.1960   36.9010 C   0  0  0  0  0  0  0  0  0  0  0  0
   20.3950  -31.0590   35.6790 O   0  0  0  0  0  0  0  0  0  0  0  0
   21.0320  -30.2300   37.7910 C   0  0  0  0  0  0  0  0  0  0  0  0
   21.7000  -29.1800   37.1860 O   0  0  0  0  0  0  0  0  0  0  0  0
   21.0060  -28.2770   40.4510 C   0  0  0  0  0  0  0  0  0  0  0  0
   21.6160  -27.4020   41.3740 C   0  0  0  0  0  0  0  0  0  0  0  0
   20.9180  -26.0950   41.6770 C   0  0  0  0  0  0  0  0  0  0  0  0
   19.6790  -26.2970   42.5360 C   0  0  0  0  0  0  0  0  0  0  0  0
   23.3496  -28.1722   46.0315 H   0  0  0  0  0  0  0  0  0  0  0  0
   22.1290  -27.8101   44.7643 H   0  0  0  0  0  0  0  0  0  0  0  0
   22.9818  -29.3911   44.7643 H   0  0  0  0  0  0  0  0  0  0  0  0
   24.8213  -27.0844   44.7047 H   0  0  0  0  0  0  0  0  0  0  0  0
   24.7490  -28.5562   43.6535 H   0  0  0  0  0  0  0  0  0  0  0  0
   22.8711  -26.1684   43.3750 H   0  0  0  0  0  0  0  0  0  0  0  0
   24.4044  -26.3891   42.4327 H   0  0  0  0  0  0  0  0  0  0  0  0
   24.3859  -29.2938   42.0486 H   0  0  0  0  0  0  0  0  0  0  0  0
   23.2789  -30.8106   40.4264 H   0  0  0  0  0  0  0  0  0  0  0  0
   18.9349  -33.4701   40.6575 H   0  0  0  0  0  0  0  0  0  0  0  0
   17.7412  -35.1996   39.3084 H   0  0  0  0  0  0  0  0  0  0  0  0
   17.7554  -35.0679   36.8142 H   0  0  0  0  0  0  0  0  0  0  0  0
   18.9560  -32.4430   34.9430 H   0  0  0  0  0  0  0  0  0  0  0  0
   21.2590  -28.3670   37.0400 H   0  0  0  0  0  0  0  0  0  0  0  0
   20.0518  -27.9845   39.9885 H   0  0  0  0  0  0  0  0  0  0  0  0
   21.6169  -25.4346   42.2113 H   0  0  0  0  0  0  0  0  0  0  0  0
   20.6010  -25.6496   40.7225 H   0  0  0  0  0  0  0  0  0  0  0  0
   19.9584  -26.2515   43.5990 H   0  0  0  0  0  0  0  0  0  0  0  0
   18.9468  -25.5064   42.3151 H   0  0  0  0  0  0  0  0  0  0  0  0
   19.2358  -27.2793   42.3151 H   0  0  0  0  0  0  0  0  0  0  0  0
  1  2  1  0
  2  3  1  0
  3  4  1  0
  4  5  2  0
  5  6  1  0
  6  7  2  0
  7  8  1  0
  8  9  1  0
  9 10  1  0
 10 11  2  0
 11 12  1  0
 12 13  2  0
 13 14  1  0
 14 15  1  0
 14 16  2  0
 16 17  1  0
 17 18  2  0
 17 19  1  0
 19 20  1  0
  7 21  1  0
 21 22  2  0
 22 23  1  0
 23 24  1  0
 22  4  1  0
 19  8  2  0
 16 10  1  0
  1 25  1  0
  1 26  1  0
  1 27  1  0
  2 28  1  0
  2 29  1  0
  3 30  1  0
  3 31  1  0
  5 32  1  0
  6 33  1  0
 11 34  1  0
 12 35  1  0
 13 36  1  0
 15 37  1  0
 20 38  1  0
 21 39  1  0
 23 40  1  0
 23 41  1  0
 24 42  1  0
 24 43  1  0
 24 44  1  0
M  END
>  <meeko>  (2) 
{"is_sidechain": [false], "free_energy": -9.271, "intermolecular_energy": -11.895, "internal_energy": -0.791}

$$$$
cand_053_out
     RDKit          3D

 44 46  0  0  0  0  0  0  0  0999 V2000
   20.3740  -32.4060   33.5520 C   0  0  0  0  0  0  0  0  0  0  0  0
   20.3740  -31.3250   34.6220 C   0  0  0  0  0  0  0  0  0  0  0  0
   19.9400  -31.8840   35.9780 C   0  0  0  0  0  0  0  0  0  0  0  0
   20.3670  -30.9850   37.1190 C   0  0  0  0  0  0  0  0  0  0  0  0
   20.9270  -29.7360   36.8000 C   0  0  0  0  0  0  0  0  0  0  0  0
   21.3310  -28.8500   37.8010 C   0  0  0  0  0  0  0  0  0  0  0  0
   21.1790  -29.1810   39.1510 C   0  0  0  0  0  0  0  0  0  0  0  0
   21.6410  -28.2430   40.1960 C   0  0  0  0  0  0  0  0  0  0  0  0
   22.5290  -28.8270   41.0920 O   0  0  0  0  0  0  0  0  0  0  0  0
   23.0360  -28.0680   42.1150 C   0  0  0  0  0  0  0  0  0  0  0  0
   23.9110  -28.7000   42.9990 C   0  0  0  0  0  0  0  0  0  0  0  0
   24.4660  -27.9830   44.0630 C   0  0  0  0  0  0  0  0  0  0  0  0
   24.1460  -26.6350   44.2400 C   0  0  0  0  0  0  0  0  0  0  0  0
   23.2720  -26.0080   43.3560 C   0  0  0  0  0  0  0  0  0  0  0  0
   23.0020  -24.6870   43.5880 O   0  0  0  0  0  0  0  0  0  0  0  0
   22.7170  -26.7260   42.2930 C   0  0  0  0  0  0  0  0  0  0  0  0
   21.7950  -26.1050   41.3420 C   0  0  0  0  0  0  0  0  0  0  0  0
   21.4710  -24.9210   41.4270 O   0  0  0  0  0  0  0  0  0  0  0  0
   21.2560  -26.9550   40.2550 C   0  0  0  0  0  0  0  0  0  0  0  0
   20.3960  -26.3530   39.3540 O   0  0  0  0  0  0  0  0  0  0  0  0
   20.6240  -30.4270   39.4700 C   0  0  0  0  0  0  0  0  0  0  0  0
   20.2020  -31.3330   38.4740 C   0  0  0  0  0  0  0  0  0  0  0  0
   19.6190  -32.6540   38.9200 C   0  0  0  0  0  0  0  0  0  0  0  0
   18.1720  -32.5160   39.3680 C   0  0  0  0  0  0  0  0  0  0  0  0
   21.4111  -32.6666   33.2941 H   0  0  0  0  0  0  0  0  0  0  0  0
   19.8555  -33.2984   33.9324 H   0  0  0  0  0  0  0  0  0  0  0  0
   19.8555  -32.0348   32.6557 H   0  0  0  0  0  0  0  0  0  0  0  0
   21.3892  -30.9115   34.7134 H   0  0  0  0  0  0  0  0  0  0  0  0
   19.6600  -30.5428   34.3247 H   0  0  0  0  0  0  0  0  0  0  0  0
   18.8441  -31.9785   35.9900 H   0  0  0  0  0  0  0  0  0  0  0  0
   20.4226  -32.8630   36.1148 H   0  0  0  0  0  0  0  0  0  0  0  0
   21.0491  -29.4517   35.7444 H   0  0  0  0  0  0  0  0  0  0  0  0
   21.7734  -27.8816   37.5246 H   0  0  0  0  0  0  0  0  0  0  0  0
   24.1639  -29.7613   42.8589 H   0  0  0  0  0  0  0  0  0  0  0  0
   25.1551  -28.4807   44.7612 H   0  0  0  0  0  0  0  0  0  0  0  0
   24.5836  -26.0699   45.0761 H   0  0  0  0  0  0  0  0  0  0  0  0
   22.1340  -24.4200   43.8210 H   0  0  0  0  0  0  0  0  0  0  0  0
   20.5190  -25.4550   39.1170 H   0  0  0  0  0  0  0  0  0  0  0  0
   20.5139  -30.7073   40.5280 H   0  0  0  0  0  0  0  0  0  0  0  0
   19.6648  -33.3638   38.0809 H   0  0  0  0  0  0  0  0  0  0  0  0
   20.2074  -33.0129   39.7773 H   0  0  0  0  0  0  0  0  0  0  0  0
   18.1273  -32.5117   40.4671 H   0  0  0  0  0  0  0  0  0  0  0  0
   17.7564  -31.5741   38.9805 H   0  0  0  0  0  0  0  0  0  0  0  0
   17.5859  -33.3623   38.9805 H   0  0  0  0  0  0  0  0  0  0  0  0
  1  2  1  0
  2  3  1  0
  3  4  1  0
  4  5  2  0
  5  6  1  0
  6  7  2  0
  7  8  1  0
  8  9  1  0
  9 10  1  0
 10 11  2  0
 11 12  1  0
 12 13  2  0
 13 14  1  0
 14 15  1  0
 14 16  2  0
 16 17  1  0
 17 18  2  0
 17 19  1  0
 19 20  1  0
  7 21  1  0
 21 22  2  0
 22 23  1  0
 23 24  1  0
 22  4  1  0
 19  8  2  0
 16 10  1  0
  1 25  1  0
  1 26  1  0
  1 27  1  0
  2 28  1  0
  2 29  1  0
  3 30  1  0
  3 31  1  0
  5 32  1  0
  6 33  1  0
 11 34  1  0
 12 35  1  0
 13 36  1  0
 15 37  1  0
 20 38  1  0
 21 39  1  0
 23 40  1  0
 23 41  1  0
 24 42  1  0
 24 43  1  0
 24 44  1  0
M  END
>  <meeko>  (3) 
{"is_sidechain": [false], "free_energy": -8.695, "intermolecular_energy": -11.458, "internal_energy": -0.482}

$$$$
cand_053_out
     RDKit          3D

 44 46  0  0  0  0  0  0  0  0999 V2000
   24.1490  -26.5940   43.6050 C   0  0  0  0  0  0  0  0  0  0  0  0
   23.0880  -27.5490   43.0790 C   0  0  0  0  0  0  0  0  0  0  0  0
   22.2250  -26.8850   42.0050 C   0  0  0  0  0  0  0  0  0  0  0  0
   21.6890  -27.8950   41.0130 C   0  0  0  0  0  0  0  0  0  0  0  0
   22.5390  -28.9390   40.6090 C   0  0  0  0  0  0  0  0  0  0  0  0
   22.1070  -29.9140   39.7070 C   0  0  0  0  0  0  0  0  0  0  0  0
   20.8090  -29.8810   39.1890 C   0  0  0  0  0  0  0  0  0  0  0  0
   20.3790  -30.9030   38.2120 C   0  0  0  0  0  0  0  0  0  0  0  0
   20.7360  -30.5860   36.9060 O   0  0  0  0  0  0  0  0  0  0  0  0
   20.3980  -31.4510   35.8960 C   0  0  0  0  0  0  0  0  0  0  0  0
   20.7620  -31.0840   34.6000 C   0  0  0  0  0  0  0  0  0  0  0  0
   20.4500  -31.9210   33.5250 C   0  0  0  0  0  0  0  0  0  0  0  0
   19.7740  -33.1230   33.7480 C   0  0  0  0  0  0  0  0  0  0  0  0
   19.4120  -33.4850   35.0430 C   0  0  0  0  0  0  0  0  0  0  0  0
   18.7530  -34.6750   35.1900 O   0  0  0  0  0  0  0  0  0  0  0  0
   19.7240  -32.6470   36.1170 C   0  0  0  0  0  0  0  0  0  0  0  0
   19.3620  -32.9910   37.4930 C   0  0  0  0  0  0  0  0  0  0  0  0
   18.7740  -34.0350   37.7700 O   0  0  0  0  0  0  0  0  0  0  0  0
   19.7320  -32.0310   38.5580 C   0  0  0  0  0  0  0  0  0  0  0  0
   19.3960  -32.3720   39.8560 O   0  0  0  0  0  0  0  0  0  0  0  0
   19.9620  -28.8380   39.5880 C   0  0  0  0  0  0  0  0  0  0  0  0
   20.3770  -27.8490   40.5040 C   0  0  0  0  0  0  0  0  0  0  0  0
   19.3890  -26.7630   40.8680 C   0  0  0  0  0  0  0  0  0  0  0  0
   19.4260  -25.6060   39.8810 C   0  0  0  0  0  0  0  0  0  0  0  0
   24.1382  -26.6037   44.7049 H   0  0  0  0  0  0  0  0  0  0  0  0
   25.1388  -26.9114   43.2452 H   0  0  0  0  0  0  0  0  0  0  0  0
   23.9371  -25.5763   43.2452 H   0  0  0  0  0  0  0  0  0  0  0  0
   23.5828  -28.4310   42.6462 H   0  0  0  0  0  0  0  0  0  0  0  0
   22.4368  -27.8395   43.9166 H   0  0  0  0  0  0  0  0  0  0  0  0
   21.3780  -26.3788   42.4911 H   0  0  0  0  0  0  0  0  0  0  0  0
   22.8524  -26.1664   41.4572 H   0  0  0  0  0  0  0  0  0  0  0  0
   23.5620  -28.9890   41.0101 H   0  0  0  0  0  0  0  0  0  0  0  0
   22.7951  -30.7159   39.4012 H   0  0  0  0  0  0  0  0  0  0  0  0
   21.2938  -30.1372   34.4245 H   0  0  0  0  0  0  0  0  0  0  0  0
   20.7369  -31.6331   32.5028 H   0  0  0  0  0  0  0  0  0  0  0  0
   19.5282  -33.7822   32.9024 H   0  0  0  0  0  0  0  0  0  0  0  0
   19.2130  -35.4300   35.5020 H   0  0  0  0  0  0  0  0  0  0  0  0
   19.6050  -33.2240   40.1850 H   0  0  0  0  0  0  0  0  0  0  0  0
   18.9438  -28.7893   39.1747 H   0  0  0  0  0  0  0  0  0  0  0  0
   18.3761  -27.1919   40.8748 H   0  0  0  0  0  0  0  0  0  0  0  0
   19.6622  -26.3731   41.8596 H   0  0  0  0  0  0  0  0  0  0  0  0
   19.4564  -24.6546   40.4323 H   0  0  0  0  0  0  0  0  0  0  0  0
   20.3219  -25.6921   39.2485 H   0  0  0  0  0  0  0  0  0  0  0  0
   18.5265  -25.6347   39.2485 H   0  0  0  0  0  0  0  0  0  0  0  0
  1  2  1  0
  2  3  1  0
  3  4  1  0
  4  5  2  0
  5  6  1  0
  6  7  2  0
  7  8  1  0
  8  9  1  0
  9 10  1  0
 10 11  2  0
 11 12  1  0
 12 13  2  0
 13 14  1  0
 14 15  1  0
 14 16  2  0
 16 17  1  0
 17 18  2  0
 17 19  1  0
 19 20  1  0
  7 21  1  0
 21 22  2  0
 22 23  1  0
 23 24  1  0
 22  4  1  0
 19  8  2  0
 16 10  1  0
  1 25  1  0
  1 26  1  0
  1 27  1  0
  2 28  1  0
  2 29  1  0
  3 30  1  0
  3 31  1  0
  5 32  1  0
  6 33  1  0
 11 34  1  0
 12 35  1  0
 13 36  1  0
 15 37  1  0
 20 38  1  0
 21 39  1  0
 23 40  1  0
 23 41  1  0
 24 42  1  0
 24 43  1  0
 24 44  1  0
M  END
>  <meeko>  (4) 
{"is_sidechain": [false], "free_energy": -8.553, "intermolecular_energy": -11.016, "internal_energy": -0.742}

$$$$
cand_053_out
     RDKit          3D

 44 46  0  0  0  0  0  0  0  0999 V2000
   20.8210  -24.3940   46.5650 C   0  0  0  0  0  0  0  0  0  0  0  0
   21.6000  -24.4260   45.2590 C   0  0  0  0  0  0  0  0  0  0  0  0
   22.4480  -25.6940   45.1470 C   0  0  0  0  0  0  0  0  0  0  0  0
   22.1810  -26.4340   43.8530 C   0  0  0  0  0  0  0  0  0  0  0  0
   20.9590  -26.2010   43.1990 C   0  0  0  0  0  0  0  0  0  0  0  0
   20.6520  -26.8390   41.9950 C   0  0  0  0  0  0  0  0  0  0  0  0
   21.5600  -27.7210   41.4030 C   0  0  0  0  0  0  0  0  0  0  0  0
   21.2040  -28.4100   40.1450 C   0  0  0  0  0  0  0  0  0  0  0  0
   20.7640  -29.7140   40.3490 O   0  0  0  0  0  0  0  0  0  0  0  0
   20.4010  -30.4690   39.2630 C   0  0  0  0  0  0  0  0  0  0  0  0
   19.9810  -31.7760   39.5130 C   0  0  0  0  0  0  0  0  0  0  0  0
   19.5950  -32.5990   38.4520 C   0  0  0  0  0  0  0  0  0  0  0  0
   19.6300  -32.1150   37.1430 C   0  0  0  0  0  0  0  0  0  0  0  0
   20.0500  -30.8100   36.8970 C   0  0  0  0  0  0  0  0  0  0  0  0
   20.0590  -30.4000   35.5920 O   0  0  0  0  0  0  0  0  0  0  0  0
   20.4360  -29.9880   37.9590 C   0  0  0  0  0  0  0  0  0  0  0  0
   20.8840  -28.6110   37.7440 C   0  0  0  0  0  0  0  0  0  0  0  0
   20.9340  -28.1110   36.6210 O   0  0  0  0  0  0  0  0  0  0  0  0
   21.2800  -27.8260   38.9350 C   0  0  0  0  0  0  0  0  0  0  0  0
   21.6890  -26.5210   38.7210 O   0  0  0  0  0  0  0  0  0  0  0  0
   22.7780  -27.9570   42.0560 C   0  0  0  0  0  0  0  0  0  0  0  0
   23.1100  -27.3170   43.2680 C   0  0  0  0  0  0  0  0  0  0  0  0
   24.4470  -27.6410   43.8970 C   0  0  0  0  0  0  0  0  0  0  0  0
   24.5960  -29.1290   44.1800 C   0  0  0  0  0  0  0  0  0  0  0  0
   21.5229  -24.4228   47.4114 H   0  0  0  0  0  0  0  0  0  0  0  0
   20.2252  -23.4706   46.6140 H   0  0  0  0  0  0  0  0  0  0  0  0
   20.1515  -25.2654   46.6140 H   0  0  0  0  0  0  0  0  0  0  0  0
   20.8912  -24.3939   44.4184 H   0  0  0  0  0  0  0  0  0  0  0  0
   22.2727  -23.5560   45.2353 H   0  0  0  0  0  0  0  0  0  0  0  0
   23.5116  -25.4161   45.1858 H   0  0  0  0  0  0  0  0  0  0  0  0
   22.1834  -26.3584   45.9828 H   0  0  0  0  0  0  0  0  0  0  0  0
   20.2323  -25.5046   43.6427 H   0  0  0  0  0  0  0  0  0  0  0  0
   19.6851  -26.6451   41.5076 H   0  0  0  0  0  0  0  0  0  0  0  0
   19.9539  -32.1579   40.5442 H   0  0  0  0  0  0  0  0  0  0  0  0
   19.2632  -33.6292   38.6482 H   0  0  0  0  0  0  0  0  0  0  0  0
   19.3265  -32.7630   36.3075 H   0  0  0  0  0  0  0  0  0  0  0  0
   19.7490  -30.9740   34.9190 H   0  0  0  0  0  0  0  0  0  0  0  0
   21.0650  -25.8240   38.7580 H   0  0  0  0  0  0  0  0  0  0  0  0
   23.4953  -28.6617   41.6101 H   0  0  0  0  0  0  0  0  0  0  0  0
   25.2479  -27.3276   43.2111 H   0  0  0  0  0  0  0  0  0  0  0  0
   24.5120  -27.1039   44.8548 H   0  0  0  0  0  0  0  0  0  0  0  0
   24.6127  -29.2956   45.2672 H   0  0  0  0  0  0  0  0  0  0  0  0
   23.7478  -29.6729   43.7387 H   0  0  0  0  0  0  0  0  0  0  0  0
   25.5352  -29.4939   43.7387 H   0  0  0  0  0  0  0  0  0  0  0  0
  1  2  1  0
  2  3  1  0
  3  4  1  0
  4  5  2  0
  5  6  1  0
  6  7  2  0
  7  8  1  0
  8  9  1  0
  9 10  1  0
 10 11  2  0
 11 12  1  0
 12 13  2  0
 13 14  1  0
 14 15  1  0
 14 16  2  0
 16 17  1  0
 17 18  2  0
 17 19  1  0
 19 20  1  0
  7 21  1  0
 21 22  2  0
 22 23  1  0
 23 24  1  0
 22  4  1  0
 19  8  2  0
 16 10  1  0
  1 25  1  0
  1 26  1  0
  1 27  1  0
  2 28  1  0
  2 29  1  0
  3 30  1  0
  3 31  1  0
  5 32  1  0
  6 33  1  0
 11 34  1  0
 12 35  1  0
 13 36  1  0
 15 37  1  0
 20 38  1  0
 21 39  1  0
 23 40  1  0
 23 41  1  0
 24 42  1  0
 24 43  1  0
 24 44  1  0
M  END
>  <meeko>  (5) 
{"is_sidechain": [false], "free_energy": -8.507, "intermolecular_energy": -10.974, "internal_energy": -0.723}

$$$$
cand_053_out
     RDKit          3D

 44 46  0  0  0  0  0  0  0  0999 V2000
   20.2070  -31.0800   33.4280 C   0  0  0  0  0  0  0  0  0  0  0  0
   20.9370  -30.8340   34.7390 C   0  0  0  0  0  0  0  0  0  0  0  0
   20.1330  -31.3560   35.9310 C   0  0  0  0  0  0  0  0  0  0  0  0
   20.5830  -30.7250   37.2310 C   0  0  0  0  0  0  0  0  0  0  0  0
   21.3280  -29.5350   37.1650 C   0  0  0  0  0  0  0  0  0  0  0  0
   21.7650  -28.8910   38.3240 C   0  0  0  0  0  0  0  0  0  0  0  0
   21.4630  -29.4110   39.5860 C   0  0  0  0  0  0  0  0  0  0  0  0
   21.9610  -28.7320   40.8010 C   0  0  0  0  0  0  0  0  0  0  0  0
   21.1620  -27.6610   41.1860 O   0  0  0  0  0  0  0  0  0  0  0  0
   21.5110  -26.9400   42.3000 C   0  0  0  0  0  0  0  0  0  0  0  0
   20.6890  -25.8650   42.6400 C   0  0  0  0  0  0  0  0  0  0  0  0
   20.9850  -25.0900   43.7650 C   0  0  0  0  0  0  0  0  0  0  0  0
   22.1020  -25.3920   44.5480 C   0  0  0  0  0  0  0  0  0  0  0  0
   22.9190  -26.4660   44.2050 C   0  0  0  0  0  0  0  0  0  0  0  0
   23.9960  -26.7060   45.0150 O   0  0  0  0  0  0  0  0  0  0  0  0
   22.6230  -27.2400   43.0800 C   0  0  0  0  0  0  0  0  0  0  0  0
   23.4550  -28.3770   42.6850 C   0  0  0  0  0  0  0  0  0  0  0  0
   24.4490  -28.7090   43.3280 O   0  0  0  0  0  0  0  0  0  0  0  0
   23.0590  -29.1270   41.4710 C   0  0  0  0  0  0  0  0  0  0  0  0
   23.8460  -30.2080   41.1150 O   0  0  0  0  0  0  0  0  0  0  0  0
   20.7240  -30.6000   39.6540 C   0  0  0  0  0  0  0  0  0  0  0  0
   20.2670  -31.2610   38.4950 C   0  0  0  0  0  0  0  0  0  0  0  0
   19.4800  -32.5400   38.6740 C   0  0  0  0  0  0  0  0  0  0  0  0
   18.1800  -32.3080   39.4290 C   0  0  0  0  0  0  0  0  0  0  0  0
   19.1836  -31.4249   33.6373 H   0  0  0  0  0  0  0  0  0  0  0  0
   20.1678  -30.1454   32.8492 H   0  0  0  0  0  0  0  0  0  0  0  0
   20.7415  -31.8477   32.8492 H   0  0  0  0  0  0  0  0  0  0  0  0
   21.9088  -31.3485   34.7097 H   0  0  0  0  0  0  0  0  0  0  0  0
   21.0736  -29.7494   34.8614 H   0  0  0  0  0  0  0  0  0  0  0  0
   19.0694  -31.1245   35.7721 H   0  0  0  0  0  0  0  0  0  0  0  0
   20.2943  -32.4417   36.0036 H   0  0  0  0  0  0  0  0  0  0  0  0
   21.5710  -29.1035   36.1828 H   0  0  0  0  0  0  0  0  0  0  0  0
   22.3530  -27.9649   38.2434 H   0  0  0  0  0  0  0  0  0  0  0  0
   19.8093  -25.6278   42.0236 H   0  0  0  0  0  0  0  0  0  0  0  0
   20.3382  -24.2419   44.0340 H   0  0  0  0  0  0  0  0  0  0  0  0
   22.3355  -24.7826   45.4335 H   0  0  0  0  0  0  0  0  0  0  0  0
   24.4950  -27.4920   44.9100 H   0  0  0  0  0  0  0  0  0  0  0  0
   24.1020  -30.3260   40.2220 H   0  0  0  0  0  0  0  0  0  0  0  0
   20.4938  -31.0301   40.6399 H   0  0  0  0  0  0  0  0  0  0  0  0
   19.2457  -32.9546   37.6824 H   0  0  0  0  0  0  0  0  0  0  0  0
   20.0945  -33.2377   39.2618 H   0  0  0  0  0  0  0  0  0  0  0  0
   18.3734  -32.3425   40.5113 H   0  0  0  0  0  0  0  0  0  0  0  0
   17.7711  -31.3227   39.1608 H   0  0  0  0  0  0  0  0  0  0  0  0
   17.4555  -33.0910   39.1608 H   0  0  0  0  0  0  0  0  0  0  0  0
  1  2  1  0
  2  3  1  0
  3  4  1  0
  4  5  2  0
  5  6  1  0
  6  7  2  0
  7  8  1  0
  8  9  1  0
  9 10  1  0
 10 11  2  0
 11 12  1  0
 12 13  2  0
 13 14  1  0
 14 15  1  0
 14 16  2  0
 16 17  1  0
 17 18  2  0
 17 19  1  0
 19 20  1  0
  7 21  1  0
 21 22  2  0
 22 23  1  0
 23 24  1  0
 22  4  1  0
 19  8  2  0
 16 10  1  0
  1 25  1  0
  1 26  1  0
  1 27  1  0
  2 28  1  0
  2 29  1  0
  3 30  1  0
  3 31  1  0
  5 32  1  0
  6 33  1  0
 11 34  1  0
 12 35  1  0
 13 36  1  0
 15 37  1  0
 20 38  1  0
 21 39  1  0
 23 40  1  0
 23 41  1  0
 24 42  1  0
 24 43  1  0
 24 44  1  0
M  END
>  <meeko>  (6) 
{"is_sidechain": [false], "free_energy": -8.361, "intermolecular_energy": -10.802, "internal_energy": -0.708}

$$$$
cand_053_out
     RDKit          3D

 44 46  0  0  0  0  0  0  0  0999 V2000
   18.8510  -35.3830   37.0210 C   0  0  0  0  0  0  0  0  0  0  0  0
   18.5700  -33.9780   37.5310 C   0  0  0  0  0  0  0  0  0  0  0  0
   19.2700  -32.9230   36.6720 C   0  0  0  0  0  0  0  0  0  0  0  0
   19.8430  -31.8030   37.5140 C   0  0  0  0  0  0  0  0  0  0  0  0
   19.7720  -31.9260   38.9130 C   0  0  0  0  0  0  0  0  0  0  0  0
   20.2930  -30.9390   39.7520 C   0  0  0  0  0  0  0  0  0  0  0  0
   20.9080  -29.8020   39.2190 C   0  0  0  0  0  0  0  0  0  0  0  0
   21.4250  -28.7530   40.1220 C   0  0  0  0  0  0  0  0  0  0  0  0
   22.3850  -29.2280   41.0090 O   0  0  0  0  0  0  0  0  0  0  0  0
   22.9490  -28.3580   41.9070 C   0  0  0  0  0  0  0  0  0  0  0  0
   23.8960  -28.8830   42.7870 C   0  0  0  0  0  0  0  0  0  0  0  0
   24.5110  -28.0500   43.7250 C   0  0  0  0  0  0  0  0  0  0  0  0
   24.1790  -26.6940   43.7820 C   0  0  0  0  0  0  0  0  0  0  0  0
   23.2340  -26.1750   42.9010 C   0  0  0  0  0  0  0  0  0  0  0  0
   22.9570  -24.8400   43.0110 O   0  0  0  0  0  0  0  0  0  0  0  0
   22.6190  -27.0080   41.9640 C   0  0  0  0  0  0  0  0  0  0  0  0
   21.6200  -26.5030   41.0210 C   0  0  0  0  0  0  0  0  0  0  0  0
   21.2820  -25.3200   41.0030 O   0  0  0  0  0  0  0  0  0  0  0  0
   21.0220  -27.4700   40.0720 C   0  0  0  0  0  0  0  0  0  0  0  0
   20.0890  -26.9770   39.1770 O   0  0  0  0  0  0  0  0  0  0  0  0
   20.9760  -29.6760   37.8250 C   0  0  0  0  0  0  0  0  0  0  0  0
   20.4640  -30.6670   36.9610 C   0  0  0  0  0  0  0  0  0  0  0  0
   20.5820  -30.4360   35.4710 C   0  0  0  0  0  0  0  0  0  0  0  0
   20.0530  -29.0690   35.0630 C   0  0  0  0  0  0  0  0  0  0  0  0
   18.9869  -36.0627   37.8751 H   0  0  0  0  0  0  0  0  0  0  0  0
   18.0039  -35.7274   36.4095 H   0  0  0  0  0  0  0  0  0  0  0  0
   19.7653  -35.3751   36.4095 H   0  0  0  0  0  0  0  0  0  0  0  0
   17.4851  -33.7981   37.5056 H   0  0  0  0  0  0  0  0  0  0  0  0
   18.9543  -33.8989   38.5586 H   0  0  0  0  0  0  0  0  0  0  0  0
   20.0874  -33.4031   36.1141 H   0  0  0  0  0  0  0  0  0  0  0  0
   18.5255  -32.4901   35.9877 H   0  0  0  0  0  0  0  0  0  0  0  0
   19.2978  -32.8152   39.3540 H   0  0  0  0  0  0  0  0  0  0  0  0
   20.2189  -31.0571   40.8431 H   0  0  0  0  0  0  0  0  0  0  0  0
   24.1578  -29.9505   42.7423 H   0  0  0  0  0  0  0  0  0  0  0  0
   25.2577  -28.4623   44.4196 H   0  0  0  0  0  0  0  0  0  0  0  0
   24.6629  -26.0383   44.5209 H   0  0  0  0  0  0  0  0  0  0  0  0
   22.3530  -24.4360   42.4190 H   0  0  0  0  0  0  0  0  0  0  0  0
   20.0500  -26.0590   38.9990 H   0  0  0  0  0  0  0  0  0  0  0  0
   21.4420  -28.7786   37.3919 H   0  0  0  0  0  0  0  0  0  0  0  0
   21.6413  -30.5073   35.1833 H   0  0  0  0  0  0  0  0  0  0  0  0
   19.9787  -31.2005   34.9596 H   0  0  0  0  0  0  0  0  0  0  0  0
   19.8252  -28.4802   35.9638 H   0  0  0  0  0  0  0  0  0  0  0  0
   20.8133  -28.5451   34.4651 H   0  0  0  0  0  0  0  0  0  0  0  0
   19.1381  -29.1934   34.4651 H   0  0  0  0  0  0  0  0  0  0  0  0
  1  2  1  0
  2  3  1  0
  3  4  1  0
  4  5  2  0
  5  6  1  0
  6  7  2  0
  7  8  1  0
  8  9  1  0
  9 10  1  0
 10 11  2  0
 11 12  1  0
 12 13  2  0
 13 14  1  0
 14 15  1  0
 14 16  2  0
 16 17  1  0
 17 18  2  0
 17 19  1  0
 19 20  1  0
  7 21  1  0
 21 22  2  0
 22 23  1  0
 23 24  1  0
 22  4  1  0
 19  8  2  0
 16 10  1  0
  1 25  1  0
  1 26  1  0
  1 27  1  0
  2 28  1  0
  2 29  1  0
  3 30  1  0
  3 31  1  0
  5 32  1  0
  6 33  1  0
 11 34  1  0
 12 35  1  0
 13 36  1  0
 15 37  1  0
 20 38  1  0
 21 39  1  0
 23 40  1  0
 23 41  1  0
 24 42  1  0
 24 43  1  0
 24 44  1  0
M  END
>  <meeko>  (7) 
{"is_sidechain": [false], "free_energy": -8.237, "intermolecular_energy": -10.816, "internal_energy": -0.534}

$$$$
cand_053_out
     RDKit          3D

 44 46  0  0  0  0  0  0  0  0999 V2000
   20.4290  -32.0910   33.7740 C   0  0  0  0  0  0  0  0  0  0  0  0
   20.0720  -31.7030   35.2000 C   0  0  0  0  0  0  0  0  0  0  0  0
   19.9360  -30.1860   35.3470 C   0  0  0  0  0  0  0  0  0  0  0  0
   20.5080  -29.6960   36.6600 C   0  0  0  0  0  0  0  0  0  0  0  0
   21.0080  -30.6530   37.5610 C   0  0  0  0  0  0  0  0  0  0  0  0
   21.5630  -30.2720   38.7840 C   0  0  0  0  0  0  0  0  0  0  0  0
   21.6430  -28.9230   39.1420 C   0  0  0  0  0  0  0  0  0  0  0  0
   22.2050  -28.5410   40.4550 C   0  0  0  0  0  0  0  0  0  0  0  0
   23.1360  -29.4570   40.9310 O   0  0  0  0  0  0  0  0  0  0  0  0
   23.7360  -29.2260   42.1420 C   0  0  0  0  0  0  0  0  0  0  0  0
   24.6520  -30.1790   42.5870 C   0  0  0  0  0  0  0  0  0  0  0  0
   25.3020  -30.0030   43.8120 C   0  0  0  0  0  0  0  0  0  0  0  0
   25.0340  -28.8740   44.5890 C   0  0  0  0  0  0  0  0  0  0  0  0
   24.1190  -27.9250   44.1420 C   0  0  0  0  0  0  0  0  0  0  0  0
   23.9060  -26.8440   44.9520 O   0  0  0  0  0  0  0  0  0  0  0  0
   23.4700  -28.1020   42.9170 C   0  0  0  0  0  0  0  0  0  0  0  0
   22.5020  -27.1280   42.4100 C   0  0  0  0  0  0  0  0  0  0  0  0
   22.2210  -26.1060   43.0330 O   0  0  0  0  0  0  0  0  0  0  0  0
   21.8630  -27.4130   41.1050 C   0  0  0  0  0  0  0  0  0  0  0  0
   20.9600  -26.4790   40.6300 O   0  0  0  0  0  0  0  0  0  0  0  0
   21.1410  -27.9680   38.2470 C   0  0  0  0  0  0  0  0  0  0  0  0
   20.5850  -28.3320   37.0030 C   0  0  0  0  0  0  0  0  0  0  0  0
   20.0670  -27.2280   36.1090 C   0  0  0  0  0  0  0  0  0  0  0  0
   19.2450  -26.2080   36.8830 C   0  0  0  0  0  0  0  0  0  0  0  0
   21.1737  -32.9004   33.7897 H   0  0  0  0  0  0  0  0  0  0  0  0
   19.5248  -32.4348   33.2503 H   0  0  0  0  0  0  0  0  0  0  0  0
   20.8467  -31.2185   33.2503 H   0  0  0  0  0  0  0  0  0  0  0  0
   19.1168  -32.1762   35.4714 H   0  0  0  0  0  0  0  0  0  0  0  0
   20.8790  -32.0448   35.8648 H   0  0  0  0  0  0  0  0  0  0  0  0
   20.4733  -29.6984   34.5202 H   0  0  0  0  0  0  0  0  0  0  0  0
   18.8654  -29.9345   35.3249 H   0  0  0  0  0  0  0  0  0  0  0  0
   20.9610  -31.7200   37.2976 H   0  0  0  0  0  0  0  0  0  0  0  0
   21.9413  -31.0413   39.4732 H   0  0  0  0  0  0  0  0  0  0  0  0
   24.8627  -31.0682   41.9747 H   0  0  0  0  0  0  0  0  0  0  0  0
   26.0247  -30.7539   44.1640 H   0  0  0  0  0  0  0  0  0  0  0  0
   25.5453  -28.7348   45.5530 H   0  0  0  0  0  0  0  0  0  0  0  0
   24.2790  -26.8210   45.8110 H   0  0  0  0  0  0  0  0  0  0  0  0
   20.2500  -26.1980   41.1710 H   0  0  0  0  0  0  0  0  0  0  0  0
   21.1819  -26.9039   38.5229 H   0  0  0  0  0  0  0  0  0  0  0  0
   20.9226  -26.7161   35.6444 H   0  0  0  0  0  0  0  0  0  0  0  0
   19.4157  -27.6834   35.3484 H   0  0  0  0  0  0  0  0  0  0  0  0
   19.3779  -26.3730   37.9624 H   0  0  0  0  0  0  0  0  0  0  0  0
   19.5807  -25.1932   36.6231 H   0  0  0  0  0  0  0  0  0  0  0  0
   18.1821  -26.3204   36.6231 H   0  0  0  0  0  0  0  0  0  0  0  0
  1  2  1  0
  2  3  1  0
  3  4  1  0
  4  5  2  0
  5  6  1  0
  6  7  2  0
  7  8  1  0
  8  9  1  0
  9 10  1  0
 10 11  2  0
 11 12  1  0
 12 13  2  0
 13 14  1  0
 14 15  1  0
 14 16  2  0
 16 17  1  0
 17 18  2  0
 17 19  1  0
 19 20  1  0
  7 21  1  0
 21 22  2  0
 22 23  1  0
 23 24  1  0
 22  4  1  0
 19  8  2  0
 16 10  1  0
  1 25  1  0
  1 26  1  0
  1 27  1  0
  2 28  1  0
  2 29  1  0
  3 30  1  0
  3 31  1  0
  5 32  1  0
  6 33  1  0
 11 34  1  0
 12 35  1  0
 13 36  1  0
 15 37  1  0
 20 38  1  0
 21 39  1  0
 23 40  1  0
 23 41  1  0
 24 42  1  0
 24 43  1  0
 24 44  1  0
M  END
>  <meeko>  (8) 
{"is_sidechain": [false], "free_energy": -7.894, "intermolecular_energy": -10.701, "internal_energy": -0.205}

$$$$
