cand_006_out
     RDKit          3D

 47 50  0  0  0  0  0  0  0  0999 V2000
   22.2980  -25.5250   41.8150 C   0  0  0  0  0  0  0  0  0  0  0  0
   21.8450  -26.7190   41.0210 C   0  0  0  0  0  0  0  0  0  0  0  0
   20.9310  -26.5510   39.9720 C   0  0  0  0  0  0  0  0  0  0  0  0
   20.4990  -27.6440   39.2210 C   0  0  0  0  0  0  0  0  0  0  0  0
   20.9770  -28.9320   39.4940 C   0  0  0  0  0  0  0  0  0  0  0  0
   20.4890  -30.0810   38.7030 C   0  0  0  0  0  0  0  0  0  0  0  0
   19.9240  -31.0790   39.4900 O   0  0  0  0  0  0  0  0  0  0  0  0
   19.4280  -32.2030   38.8820 C   0  0  0  0  0  0  0  0  0  0  0  0
   18.8840  -33.1850   39.7120 C   0  0  0  0  0  0  0  0  0  0  0  0
   18.3620  -34.3550   39.1570 C   0  0  0  0  0  0  0  0  0  0  0  0
   18.3830  -34.5430   37.7740 C   0  0  0  0  0  0  0  0  0  0  0  0
   18.9260  -33.5630   36.9470 C   0  0  0  0  0  0  0  0  0  0  0  0
   18.9140  -33.8120   35.6030 O   0  0  0  0  0  0  0  0  0  0  0  0
   19.4500  -32.3920   37.5040 C   0  0  0  0  0  0  0  0  0  0  0  0
   20.0300  -31.3370   36.6720 C   0  0  0  0  0  0  0  0  0  0  0  0
   20.0780  -31.4260   35.4470 O   0  0  0  0  0  0  0  0  0  0  0  0
   20.5650  -30.1390   37.3600 C   0  0  0  0  0  0  0  0  0  0  0  0
   21.0990  -29.1430   36.5620 O   0  0  0  0  0  0  0  0  0  0  0  0
   21.8830  -29.0980   40.5520 C   0  0  0  0  0  0  0  0  0  0  0  0
   22.3310  -28.0070   41.3200 C   0  0  0  0  0  0  0  0  0  0  0  0
   23.2550  -28.1640   42.3790 N   0  0  0  0  0  0  0  0  0  0  0  0
   23.9370  -29.4680   42.3340 C   0  0  0  0  0  0  0  0  0  0  0  0
   25.0730  -29.4720   43.3570 C   0  0  0  0  0  0  0  0  0  0  0  0
   24.5580  -29.1310   44.7550 C   0  0  0  0  0  0  0  0  0  0  0  0
   23.7710  -27.8210   44.7430 C   0  0  0  0  0  0  0  0  0  0  0  0
   22.6630  -27.8530   43.6900 C   0  0  0  0  0  0  0  0  0  0  0  0
   22.2142  -25.7459   42.8893 H   0  0  0  0  0  0  0  0  0  0  0  0
   23.3453  -25.2965   41.5682 H   0  0  0  0  0  0  0  0  0  0  0  0
   21.6658  -24.6593   41.5682 H   0  0  0  0  0  0  0  0  0  0  0  0
   20.5500  -25.5459   39.7383 H   0  0  0  0  0  0  0  0  0  0  0  0
   19.7757  -27.4930   38.4061 H   0  0  0  0  0  0  0  0  0  0  0  0
   18.8667  -33.0371   40.8019 H   0  0  0  0  0  0  0  0  0  0  0  0
   17.9337  -35.1295   39.8103 H   0  0  0  0  0  0  0  0  0  0  0  0
   17.9708  -35.4648   37.3376 H   0  0  0  0  0  0  0  0  0  0  0  0
   18.1230  -34.0890   35.1850 H   0  0  0  0  0  0  0  0  0  0  0  0
   20.5340  -28.5170   36.1550 H   0  0  0  0  0  0  0  0  0  0  0  0
   22.2528  -30.1069   40.7875 H   0  0  0  0  0  0  0  0  0  0  0  0
   23.2207  -30.2672   42.5754 H   0  0  0  0  0  0  0  0  0  0  0  0
   24.3440  -29.6396   41.3266 H   0  0  0  0  0  0  0  0  0  0  0  0
   25.5337  -30.4707   43.3779 H   0  0  0  0  0  0  0  0  0  0  0  0
   25.8106  -28.7111   43.0619 H   0  0  0  0  0  0  0  0  0  0  0  0
   23.9020  -29.9418   45.1046 H   0  0  0  0  0  0  0  0  0  0  0  0
   25.4202  -29.0163   45.4283 H   0  0  0  0  0  0  0  0  0  0  0  0
   23.3201  -27.6639   45.7340 H   0  0  0  0  0  0  0  0  0  0  0  0
   24.4620  -27.0010   44.4977 H   0  0  0  0  0  0  0  0  0  0  0  0
   21.9258  -28.6255   43.9541 H   0  0  0  0  0  0  0  0  0  0  0  0
   22.1623  -26.8745   43.6483 H   0  0  0  0  0  0  0  0  0  0  0  0
  1  2  1  0
  2  3  2  0
  3  4  1  0
  4  5  2  0
  5  6  1  0
  6  7  1  0
  7  8  1  0
  8  9  2  0
  9 10  1  0
 10 11  2  0
 11 12  1  0
 12 13  1  0
 12 14  2  0
 14 15  1  0
 15 16  2  0
 15 17  1  0
 17 18  1  0
  5 19  1  0
 19 20  2  0
 20 21  1  0
 21 22  1  0
 22 23  1  0
 23 24  1  0
 24 25  1  0
 25 26  1  0
 20  2  1  0
 26 21  1  0
 17  6  2  0
 14  8  1  0
  1 27  1  0
  1 28  1  0
  1 29  1  0
  3 30  1  0
  4 31  1  0
  9 32  1  0
 10 33  1  0
 11 34  1  0
 13 35  1  0
 18 36  1  0
 19 37  1  0
 22 38  1  0
 22 39  1  0
 23 40  1  0
 23 41  1  0
 24 42  1  0
 24 43  1  0
 25 44  1  0
 25 45  1  0
 26 46  1  0
 26 47  1  0
M  END
>  <meeko>  (1) 
{"is_sidechain": [false], "free_energy": -10.443, "intermolecular_energy": -12.275, "internal_energy": -0.033}

$$$$
cand_006_out
     RDKit          3D

 47 50  0  0  0  0  0  0  0  0999 V2000
   24.1260  -27.1060   43.7980 C   0  0  0  0  0  0  0  0  0  0  0  0
   23.4140  -27.8580   42.7070 C   0  0  0  0  0  0  0  0  0  0  0  0
   23.9460  -29.0640   42.2320 C   0  0  0  0  0  0  0  0  0  0  0  0
   23.3000  -29.7790   41.2230 C   0  0  0  0  0  0  0  0  0  0  0  0
   22.1020  -29.3100   40.6690 C   0  0  0  0  0  0  0  0  0  0  0  0
   21.4460  -30.0700   39.5840 C   0  0  0  0  0  0  0  0  0  0  0  0
   20.6190  -31.0830   40.0570 O   0  0  0  0  0  0  0  0  0  0  0  0
   19.9460  -31.8660   39.1540 C   0  0  0  0  0  0  0  0  0  0  0  0
   19.1400  -32.8800   39.6740 C   0  0  0  0  0  0  0  0  0  0  0  0
   18.4270  -33.7140   38.8100 C   0  0  0  0  0  0  0  0  0  0  0  0
   18.5190  -33.5320   37.4280 C   0  0  0  0  0  0  0  0  0  0  0  0
   19.3230  -32.5200   36.9130 C   0  0  0  0  0  0  0  0  0  0  0  0
   19.3670  -32.3980   35.5510 O   0  0  0  0  0  0  0  0  0  0  0  0
   20.0390  -31.6870   37.7780 C   0  0  0  0  0  0  0  0  0  0  0  0
   20.8950  -30.6110   37.2780 C   0  0  0  0  0  0  0  0  0  0  0  0
   21.0230  -30.3840   36.0770 O   0  0  0  0  0  0  0  0  0  0  0  0
   21.6170  -29.7890   38.2780 C   0  0  0  0  0  0  0  0  0  0  0  0
   22.4130  -28.7670   37.7940 O   0  0  0  0  0  0  0  0  0  0  0  0
   21.5790  -28.0970   41.1400 C   0  0  0  0  0  0  0  0  0  0  0  0
   22.2150  -27.3620   42.1580 C   0  0  0  0  0  0  0  0  0  0  0  0
   21.6870  -26.1450   42.6480 N   0  0  0  0  0  0  0  0  0  0  0  0
   20.2190  -26.1840   42.7670 C   0  0  0  0  0  0  0  0  0  0  0  0
   19.7470  -24.9350   43.5130 C   0  0  0  0  0  0  0  0  0  0  0  0
   20.2430  -23.6620   42.8280 C   0  0  0  0  0  0  0  0  0  0  0  0
   21.7590  -23.7030   42.6320 C   0  0  0  0  0  0  0  0  0  0  0  0
   22.1870  -24.9780   41.9050 C   0  0  0  0  0  0  0  0  0  0  0  0
   23.7824  -27.4689   44.7779 H   0  0  0  0  0  0  0  0  0  0  0  0
   25.2103  -27.2671   43.7069 H   0  0  0  0  0  0  0  0  0  0  0  0
   23.9059  -26.0321   43.7069 H   0  0  0  0  0  0  0  0  0  0  0  0
   24.8828  -29.4512   42.6591 H   0  0  0  0  0  0  0  0  0  0  0  0
   23.7360  -30.7209   40.8587 H   0  0  0  0  0  0  0  0  0  0  0  0
   19.0665  -33.0220   40.7623 H   0  0  0  0  0  0  0  0  0  0  0  0
   17.7926  -34.5147   39.2179 H   0  0  0  0  0  0  0  0  0  0  0  0
   17.9563  -34.1881   36.7476 H   0  0  0  0  0  0  0  0  0  0  0  0
   18.6190  -32.0810   35.0850 H   0  0  0  0  0  0  0  0  0  0  0  0
   22.0210  -27.9800   37.4740 H   0  0  0  0  0  0  0  0  0  0  0  0
   20.6471  -27.7098   40.7023 H   0  0  0  0  0  0  0  0  0  0  0  0
   19.7681  -26.2070   41.7639 H   0  0  0  0  0  0  0  0  0  0  0  0
   19.9146  -27.0848   43.3202 H   0  0  0  0  0  0  0  0  0  0  0  0
   18.6473  -24.9249   43.5361 H   0  0  0  0  0  0  0  0  0  0  0  0
   20.1560  -24.9634   44.5337 H   0  0  0  0  0  0  0  0  0  0  0  0
   19.7554  -23.5678   41.8465 H   0  0  0  0  0  0  0  0  0  0  0  0
   19.9942  -22.8004   43.4649 H   0  0  0  0  0  0  0  0  0  0  0  0
   22.0680  -22.8302   42.0381 H   0  0  0  0  0  0  0  0  0  0  0  0
   22.2392  -23.6878   43.6215 H   0  0  0  0  0  0  0  0  0  0  0  0
   21.7675  -24.9810   40.8881 H   0  0  0  0  0  0  0  0  0  0  0  0
   23.2845  -25.0195   41.8434 H   0  0  0  0  0  0  0  0  0  0  0  0
  1  2  1  0
  2  3  2  0
  3  4  1  0
  4  5  2  0
  5  6  1  0
  6  7  1  0
  7  8  1  0
  8  9  2  0
  9 10  1  0
 10 11  2  0
 11 12  1  0
 12 13  1  0
 12 14  2  0
 14 15  1  0
 15 16  2  0
 15 17  1  0
 17 18  1  0
  5 19  1  0
 19 20  2  0
 20 21  1  0
 21 22  1  0
 22 23  1  0
 23 24  1  0
 24 25  1  0
 25 26  1  0
 20  2  1  0
 26 21  1  0
 17  6  2  0
 14  8  1  0
  1 27  1  0
  1 28  1  0
  1 29  1  0
  3 30  1  0
  4 31  1  0
  9 32  1  0
 10 33  1  0
 11 34  1  0
 13 35  1  0
 18 36  1  0
 19 37  1  0
 22 38  1  0
 22 39  1  0
 23 40  1  0
 23 41  1  0
 24 42  1  0
 24 43  1  0
 25 44  1  0
 25 45  1  0
 26 46  1  0
 26 47  1  0
M  END
>  <meeko>  (2) 
{"is_sidechain": [false], "free_energy": -10.278, "intermolecular_energy": -11.441, "internal_energy": -0.673}

$$$$
cand_006_out
     RDKit          3D

 47 50  0  0  0  0  0  0  0  0999 V2000
   22.0200  -26.2730   41.2480 C   0  0  0  0  0  0  0  0  0  0  0  0
   21.5480  -27.4460   40.4340 C   0  0  0  0  0  0  0  0  0  0  0  0
   22.1990  -28.6810   40.5520 C   0  0  0  0  0  0  0  0  0  0  0  0
   21.7750  -29.7840   39.8090 C   0  0  0  0  0  0  0  0  0  0  0  0
   20.6870  -29.6810   38.9350 C   0  0  0  0  0  0  0  0  0  0  0  0
   20.2690  -30.8530   38.1380 C   0  0  0  0  0  0  0  0  0  0  0  0
   19.8300  -31.9130   38.9250 O   0  0  0  0  0  0  0  0  0  0  0  0
   19.4100  -33.0660   38.3120 C   0  0  0  0  0  0  0  0  0  0  0  0
   18.9920  -34.1080   39.1410 C   0  0  0  0  0  0  0  0  0  0  0  0
   18.5530  -35.3090   38.5820 C   0  0  0  0  0  0  0  0  0  0  0  0
   18.5300  -35.4680   37.1940 C   0  0  0  0  0  0  0  0  0  0  0  0
   18.9470  -34.4270   36.3690 C   0  0  0  0  0  0  0  0  0  0  0  0
   18.8980  -34.6500   35.0210 O   0  0  0  0  0  0  0  0  0  0  0  0
   19.3890  -33.2250   36.9300 C   0  0  0  0  0  0  0  0  0  0  0  0
   19.8360  -32.1060   36.1000 C   0  0  0  0  0  0  0  0  0  0  0  0
   19.8380  -32.1660   34.8720 O   0  0  0  0  0  0  0  0  0  0  0  0
   20.2920  -30.8780   36.7930 C   0  0  0  0  0  0  0  0  0  0  0  0
   20.6990  -29.8230   35.9970 O   0  0  0  0  0  0  0  0  0  0  0  0
   20.0450  -28.4400   38.8110 C   0  0  0  0  0  0  0  0  0  0  0  0
   20.4560  -27.3170   39.5530 C   0  0  0  0  0  0  0  0  0  0  0  0
   19.8060  -26.0660   39.4450 N   0  0  0  0  0  0  0  0  0  0  0  0
   18.4490  -26.0930   40.0170 C   0  0  0  0  0  0  0  0  0  0  0  0
   17.9040  -24.6650   40.0740 C   0  0  0  0  0  0  0  0  0  0  0  0
   17.9440  -24.0030   38.6960 C   0  0  0  0  0  0  0  0  0  0  0  0
   19.3450  -24.0830   38.0920 C   0  0  0  0  0  0  0  0  0  0  0  0
   19.8590  -25.5230   38.0780 C   0  0  0  0  0  0  0  0  0  0  0  0
   21.9255  -26.5078   42.3185 H   0  0  0  0  0  0  0  0  0  0  0  0
   23.0731  -26.0619   41.0105 H   0  0  0  0  0  0  0  0  0  0  0  0
   21.4067  -25.3913   41.0105 H   0  0  0  0  0  0  0  0  0  0  0  0
   23.0533  -28.7825   41.2374 H   0  0  0  0  0  0  0  0  0  0  0  0
   22.3016  -30.7443   39.9116 H   0  0  0  0  0  0  0  0  0  0  0  0
   19.0085  -33.9828   40.2337 H   0  0  0  0  0  0  0  0  0  0  0  0
   18.2247  -36.1313   39.2348 H   0  0  0  0  0  0  0  0  0  0  0  0
   18.1829  -36.4144   36.7537 H   0  0  0  0  0  0  0  0  0  0  0  0
   19.6440  -35.0010   34.5770 H   0  0  0  0  0  0  0  0  0  0  0  0
   21.1290  -29.0850   36.3820 H   0  0  0  0  0  0  0  0  0  0  0  0
   19.1983  -28.3420   38.1157 H   0  0  0  0  0  0  0  0  0  0  0  0
   17.7950  -26.7124   39.3857 H   0  0  0  0  0  0  0  0  0  0  0  0
   18.4814  -26.5191   41.0306 H   0  0  0  0  0  0  0  0  0  0  0  0
   16.8633  -24.6920   40.4292 H   0  0  0  0  0  0  0  0  0  0  0  0
   18.5328  -24.0791   40.7606 H   0  0  0  0  0  0  0  0  0  0  0  0
   17.2349  -24.5159   38.0296 H   0  0  0  0  0  0  0  0  0  0  0  0
   17.6698  -22.9436   38.8075 H   0  0  0  0  0  0  0  0  0  0  0  0
   19.3132  -23.7032   37.0601 H   0  0  0  0  0  0  0  0  0  0  0  0
   20.0252  -23.4760   38.7076 H   0  0  0  0  0  0  0  0  0  0  0  0
   19.2283  -26.1329   37.4146 H   0  0  0  0  0  0  0  0  0  0  0  0
   20.8957  -25.5431   37.7109 H   0  0  0  0  0  0  0  0  0  0  0  0
  1  2  1  0
  2  3  2  0
  3  4  1  0
  4  5  2  0
  5  6  1  0
  6  7  1  0
  7  8  1  0
  8  9  2  0
  9 10  1  0
 10 11  2  0
 11 12  1  0
 12 13  1  0
 12 14  2  0
 14 15  1  0
 15 16  2  0
 15 17  1  0
 17 18  1  0
  5 19  1  0
 19 20  2  0
 20 21  1  0
 21 22  1  0
 22 23  1  0
 23 24  1  0
 24 25  1  0
 25 26  1  0
 20  2  1  0
 26 21  1  0
 17  6  2  0
 14  8  1  0
  1 27  1  0
  1 28  1  0
  1 29  1  0
  3 30  1  0
  4 31  1  0
  9 32  1  0
 10 33  1  0
 11 34  1  0
 13 35  1  0
 18 36  1  0
 19 37  1  0
 22 38  1  0
 22 39  1  0
 23 40  1  0
 23 41  1  0
 24 42  1  0
 24 43  1  0
 25 44  1  0
 25 45  1  0
 26 46  1  0
 26 47  1  0
M  END
>  <meeko>  (3) 
{"is_sidechain": [false], "free_energy": -9.837, "intermolecular_energy": -10.955, "internal_energy": -0.64}

$$$$
cand_006_out
     RDKit          3D

 47 50  0  0  0  0  0  0  0  0999 V2000
   19.9420  -30.8670   35.5200 C   0  0  0  0  0  0  0  0  0  0  0  0
   20.5010  -30.3560   36.8210 C   0  0  0  0  0  0  0  0  0  0  0  0
   21.3170  -29.2170   36.8260 C   0  0  0  0  0  0  0  0  0  0  0  0
   21.8420  -28.7230   38.0210 C   0  0  0  0  0  0  0  0  0  0  0  0
   21.5590  -29.3520   39.2390 C   0  0  0  0  0  0  0  0  0  0  0  0
   22.1460  -28.8280   40.4910 C   0  0  0  0  0  0  0  0  0  0  0  0
   23.1220  -29.6650   41.0220 O   0  0  0  0  0  0  0  0  0  0  0  0
   23.7510  -29.2980   42.1840 C   0  0  0  0  0  0  0  0  0  0  0  0
   24.7120  -30.1750   42.6880 C   0  0  0  0  0  0  0  0  0  0  0  0
   25.3900  -29.8620   43.8680 C   0  0  0  0  0  0  0  0  0  0  0  0
   25.1080  -28.6720   44.5420 C   0  0  0  0  0  0  0  0  0  0  0  0
   24.1480  -27.7980   44.0370 C   0  0  0  0  0  0  0  0  0  0  0  0
   23.9220  -26.6520   44.7480 O   0  0  0  0  0  0  0  0  0  0  0  0
   23.4680  -28.1140   42.8570 C   0  0  0  0  0  0  0  0  0  0  0  0
   22.4530  -27.2240   42.2920 C   0  0  0  0  0  0  0  0  0  0  0  0
   22.1540  -26.1560   42.8230 O   0  0  0  0  0  0  0  0  0  0  0  0
   21.7860  -27.6540   41.0410 C   0  0  0  0  0  0  0  0  0  0  0  0
   20.8370  -26.7990   40.5100 O   0  0  0  0  0  0  0  0  0  0  0  0
   20.7510  -30.4980   39.2280 C   0  0  0  0  0  0  0  0  0  0  0  0
   20.2100  -31.0100   38.0340 C   0  0  0  0  0  0  0  0  0  0  0  0
   19.3830  -32.1570   38.0150 N   0  0  0  0  0  0  0  0  0  0  0  0
   19.3500  -32.8390   39.3190 C   0  0  0  0  0  0  0  0  0  0  0  0
   18.2680  -33.9200   39.2880 C   0  0  0  0  0  0  0  0  0  0  0  0
   18.4890  -34.8900   38.1280 C   0  0  0  0  0  0  0  0  0  0  0  0
   18.6180  -34.1370   36.8040 C   0  0  0  0  0  0  0  0  0  0  0  0
   19.6920  -33.0520   36.8880 C   0  0  0  0  0  0  0  0  0  0  0  0
   19.1443  -31.5962   35.7249 H   0  0  0  0  0  0  0  0  0  0  0  0
   19.5306  -30.0262   34.9422 H   0  0  0  0  0  0  0  0  0  0  0  0
   20.7426  -31.3520   34.9422 H   0  0  0  0  0  0  0  0  0  0  0  0
   21.5461  -28.7071   35.8786 H   0  0  0  0  0  0  0  0  0  0  0  0
   22.4846  -27.8304   38.0056 H   0  0  0  0  0  0  0  0  0  0  0  0
   24.9353  -31.1118   42.1565 H   0  0  0  0  0  0  0  0  0  0  0  0
   26.1468  -30.5534   44.2669 H   0  0  0  0  0  0  0  0  0  0  0  0
   25.6433  -28.4250   45.4707 H   0  0  0  0  0  0  0  0  0  0  0  0
   24.5570  -25.9640   44.7410 H   0  0  0  0  0  0  0  0  0  0  0  0
   19.9380  -26.8860   40.7570 H   0  0  0  0  0  0  0  0  0  0  0  0
   20.5344  -31.0100   40.1772 H   0  0  0  0  0  0  0  0  0  0  0  0
   20.3279  -33.3016   39.5182 H   0  0  0  0  0  0  0  0  0  0  0  0
   19.1263  -32.1117   40.1134 H   0  0  0  0  0  0  0  0  0  0  0  0
   18.2935  -34.4804   40.2342 H   0  0  0  0  0  0  0  0  0  0  0  0
   17.2916  -33.4318   39.1526 H   0  0  0  0  0  0  0  0  0  0  0  0
   19.4109  -35.4625   38.3080 H   0  0  0  0  0  0  0  0  0  0  0  0
   17.6232  -35.5655   38.0651 H   0  0  0  0  0  0  0  0  0  0  0  0
   18.8888  -34.8494   36.0108 H   0  0  0  0  0  0  0  0  0  0  0  0
   17.6539  -33.6566   36.5809 H   0  0  0  0  0  0  0  0  0  0  0  0
   20.6756  -33.5183   37.0465 H   0  0  0  0  0  0  0  0  0  0  0  0
   19.7120  -32.4760   35.9511 H   0  0  0  0  0  0  0  0  0  0  0  0
  1  2  1  0
  2  3  2  0
  3  4  1  0
  4  5  2  0
  5  6  1  0
  6  7  1  0
  7  8  1  0
  8  9  2  0
  9 10  1  0
 10 11  2  0
 11 12  1  0
 12 13  1  0
 12 14  2  0
 14 15  1  0
 15 16  2  0
 15 17  1  0
 17 18  1  0
  5 19  1  0
 19 20  2  0
 20 21  1  0
 21 22  1  0
 22 23  1  0
 23 24  1  0
 24 25  1  0
 25 26  1  0
 20  2  1  0
 26 21  1  0
 17  6  2  0
 14  8  1  0
  1 27  1  0
  1 28  1  0
  1 29  1  0
  3 30  1  0
  4 31  1  0
  9 32  1  0
 10 33  1  0
 11 34  1  0
 13 35  1  0
 18 36  1  0
 19 37  1  0
 22 38  1  0
 22 39  1  0
 23 40  1  0
 23 41  1  0
 24 42  1  0
 24 43  1  0
 25 44  1  0
 25 45  1  0
 26 46  1  0
 26 47  1  0
M  END
>  <meeko>  (4) 
{"is_sidechain": [false], "free_energy": -9.493, "intermolecular_energy": -11.725, "internal_energy": 0.534}

$$$$
cand_006_out
     RDKit          3D

 47 50  0  0  0  0  0  0  0  0999 V2000
   21.9420  -26.4100   41.2690 C   0  0  0  0  0  0  0  0  0  0  0  0
   21.4900  -27.5450   40.3910 C   0  0  0  0  0  0  0  0  0  0  0  0
   22.1120  -28.7960   40.4960 C   0  0  0  0  0  0  0  0  0  0  0  0
   21.7060  -29.8630   39.6940 C   0  0  0  0  0  0  0  0  0  0  0  0
   20.6640  -29.7080   38.7720 C   0  0  0  0  0  0  0  0  0  0  0  0
   20.2650  -30.8430   37.9140 C   0  0  0  0  0  0  0  0  0  0  0  0
   20.6230  -30.6660   36.5820 O   0  0  0  0  0  0  0  0  0  0  0  0
   20.3140  -31.6470   35.6750 C   0  0  0  0  0  0  0  0  0  0  0  0
   20.6780  -31.4190   34.3470 C   0  0  0  0  0  0  0  0  0  0  0  0
   20.3930  -32.3780   33.3730 C   0  0  0  0  0  0  0  0  0  0  0  0
   19.7450  -33.5630   33.7260 C   0  0  0  0  0  0  0  0  0  0  0  0
   19.3830  -33.7890   35.0520 C   0  0  0  0  0  0  0  0  0  0  0  0
   18.7520  -34.9700   35.3280 O   0  0  0  0  0  0  0  0  0  0  0  0
   19.6670  -32.8270   36.0260 C   0  0  0  0  0  0  0  0  0  0  0  0
   19.3040  -33.0240   37.4300 C   0  0  0  0  0  0  0  0  0  0  0  0
   18.7380  -34.0430   37.8210 O   0  0  0  0  0  0  0  0  0  0  0  0
   19.6430  -31.9410   38.3830 C   0  0  0  0  0  0  0  0  0  0  0  0
   19.3060  -32.1440   39.7090 O   0  0  0  0  0  0  0  0  0  0  0  0
   20.0510  -28.4510   38.6620 C   0  0  0  0  0  0  0  0  0  0  0  0
   20.4450  -27.3630   39.4630 C   0  0  0  0  0  0  0  0  0  0  0  0
   19.8240  -26.0960   39.3680 N   0  0  0  0  0  0  0  0  0  0  0  0
   18.4820  -26.0880   39.9760 C   0  0  0  0  0  0  0  0  0  0  0  0
   17.9750  -24.6470   40.0430 C   0  0  0  0  0  0  0  0  0  0  0  0
   17.9940  -23.9890   38.6630 C   0  0  0  0  0  0  0  0  0  0  0  0
   19.3780  -24.1060   38.0230 C   0  0  0  0  0  0  0  0  0  0  0  0
   19.8550  -25.5580   37.9990 C   0  0  0  0  0  0  0  0  0  0  0  0
   21.8282  -26.6957   42.3251 H   0  0  0  0  0  0  0  0  0  0  0  0
   22.9985  -26.1845   41.0619 H   0  0  0  0  0  0  0  0  0  0  0  0
   21.3297  -25.5199   41.0619 H   0  0  0  0  0  0  0  0  0  0  0  0
   22.9292  -28.9385   41.2185 H   0  0  0  0  0  0  0  0  0  0  0  0
   22.2100  -30.8363   39.7871 H   0  0  0  0  0  0  0  0  0  0  0  0
   21.1885  -30.4854   34.0682 H   0  0  0  0  0  0  0  0  0  0  0  0
   20.6795  -32.1995   32.3261 H   0  0  0  0  0  0  0  0  0  0  0  0
   19.5205  -34.3176   32.9578 H   0  0  0  0  0  0  0  0  0  0  0  0
   18.2980  -35.4280   34.6490 H   0  0  0  0  0  0  0  0  0  0  0  0
   19.9780  -32.2910   40.3450 H   0  0  0  0  0  0  0  0  0  0  0  0
   19.2412  -28.3121   37.9306 H   0  0  0  0  0  0  0  0  0  0  0  0
   17.7962  -26.6923   39.3641 H   0  0  0  0  0  0  0  0  0  0  0  0
   18.5304  -26.5127   40.9896 H   0  0  0  0  0  0  0  0  0  0  0  0
   16.9439  -24.6469   40.4263 H   0  0  0  0  0  0  0  0  0  0  0  0
   18.6371  -24.0757   40.7102 H   0  0  0  0  0  0  0  0  0  0  0  0
   17.2550  -24.4854   38.0169 H   0  0  0  0  0  0  0  0  0  0  0  0
   17.7484  -22.9230   38.7780 H   0  0  0  0  0  0  0  0  0  0  0  0
   19.3295  -23.7272   36.9914 H   0  0  0  0  0  0  0  0  0  0  0  0
   20.0888  -23.5157   38.6199 H   0  0  0  0  0  0  0  0  0  0  0  0
   19.1920  -26.1532   37.3539 H   0  0  0  0  0  0  0  0  0  0  0  0
   20.8808  -25.6053   37.6047 H   0  0  0  0  0  0  0  0  0  0  0  0
  1  2  1  0
  2  3  2  0
  3  4  1  0
  4  5  2  0
  5  6  1  0
  6  7  1  0
  7  8  1  0
  8  9  2  0
  9 10  1  0
 10 11  2  0
 11 12  1  0
 12 13  1  0
 12 14  2  0
 14 15  1  0
 15 16  2  0
 15 17  1  0
 17 18  1  0
  5 19  1  0
 19 20  2  0
 20 21  1  0
 21 22  1  0
 22 23  1  0
 23 24  1  0
 24 25  1  0
 25 26  1  0
 20  2  1  0
 26 21  1  0
 17  6  2  0
 14  8  1  0
  1 27  1  0
  1 28  1  0
  1 29  1  0
  3 30  1  0
  4 31  1  0
  9 32  1  0
 10 33  1  0
 11 34  1  0
 13 35  1  0
 18 36  1  0
 19 37  1  0
 22 38  1  0
 22 39  1  0
 23 40  1  0
 23 41  1  0
 24 42  1  0
 24 43  1  0
 25 44  1  0
 25 45  1  0
 26 46  1  0
 26 47  1  0
M  END
>  <meeko>  (5) 
{"is_sidechain": [false], "free_energy": -9.428, "intermolecular_energy": -10.421, "internal_energy": -0.693}

$$$$
cand_006_out
     RDKit          3D

 47 50  0  0  0  0  0  0  0  0999 V2000
   22.0490  -26.1190   41.4900 C   0  0  0  0  0  0  0  0  0  0  0  0
   21.6350  -27.2980   40.6510 C   0  0  0  0  0  0  0  0  0  0  0  0
   20.5920  -27.1600   39.7260 C   0  0  0  0  0  0  0  0  0  0  0  0
   20.1930  -28.2390   38.9360 C   0  0  0  0  0  0  0  0  0  0  0  0
   20.8320  -29.4800   39.0470 C   0  0  0  0  0  0  0  0  0  0  0  0
   20.3780  -30.6170   38.2190 C   0  0  0  0  0  0  0  0  0  0  0  0
   20.7110  -30.4750   36.8770 O   0  0  0  0  0  0  0  0  0  0  0  0
   20.3510  -31.4620   35.9950 C   0  0  0  0  0  0  0  0  0  0  0  0
   20.6930  -31.2700   34.6550 C   0  0  0  0  0  0  0  0  0  0  0  0
   20.3560  -32.2370   33.7060 C   0  0  0  0  0  0  0  0  0  0  0  0
   19.6790  -33.3940   34.0950 C   0  0  0  0  0  0  0  0  0  0  0  0
   19.3400  -33.5840   35.4320 C   0  0  0  0  0  0  0  0  0  0  0  0
   18.6790  -34.7400   35.7440 O   0  0  0  0  0  0  0  0  0  0  0  0
   19.6760  -32.6150   36.3820 C   0  0  0  0  0  0  0  0  0  0  0  0
   19.3380  -32.7740   37.7970 C   0  0  0  0  0  0  0  0  0  0  0  0
   18.7500  -33.7680   38.2190 O   0  0  0  0  0  0  0  0  0  0  0  0
   19.7330  -31.6860   38.7220 C   0  0  0  0  0  0  0  0  0  0  0  0
   19.4190  -31.8540   40.0590 O   0  0  0  0  0  0  0  0  0  0  0  0
   21.8670  -29.6170   39.9830 C   0  0  0  0  0  0  0  0  0  0  0  0
   22.2850  -28.5400   40.7870 C   0  0  0  0  0  0  0  0  0  0  0  0
   23.3370  -28.6650   41.7240 N   0  0  0  0  0  0  0  0  0  0  0  0
   23.8060  -30.0560   41.8490 C   0  0  0  0  0  0  0  0  0  0  0  0
   25.0810  -30.0770   42.6930 C   0  0  0  0  0  0  0  0  0  0  0  0
   24.8580  -29.4120   44.0500 C   0  0  0  0  0  0  0  0  0  0  0  0
   24.2770  -28.0080   43.8810 C   0  0  0  0  0  0  0  0  0  0  0  0
   23.0190  -28.0310   43.0130 C   0  0  0  0  0  0  0  0  0  0  0  0
   21.9583  -26.3772   42.5554 H   0  0  0  0  0  0  0  0  0  0  0  0
   23.0930  -25.8566   41.2639 H   0  0  0  0  0  0  0  0  0  0  0  0
   21.3982  -25.2615   41.2639 H   0  0  0  0  0  0  0  0  0  0  0  0
   20.0822  -26.1909   39.6213 H   0  0  0  0  0  0  0  0  0  0  0  0
   19.3683  -28.1134   38.2190 H   0  0  0  0  0  0  0  0  0  0  0  0
   21.2269  -30.3587   34.3476 H   0  0  0  0  0  0  0  0  0  0  0  0
   20.6245  -32.0868   32.6499 H   0  0  0  0  0  0  0  0  0  0  0  0
   19.4136  -34.1548   33.3462 H   0  0  0  0  0  0  0  0  0  0  0  0
   17.7480  -34.7840   35.6590 H   0  0  0  0  0  0  0  0  0  0  0  0
   18.6600  -32.3450   40.3040 H   0  0  0  0  0  0  0  0  0  0  0  0
   22.3653  -30.5916   40.0918 H   0  0  0  0  0  0  0  0  0  0  0  0
   23.0304  -30.6643   42.3372 H   0  0  0  0  0  0  0  0  0  0  0  0
   24.0138  -30.4695   40.8511 H   0  0  0  0  0  0  0  0  0  0  0  0
   25.3888  -31.1211   42.8516 H   0  0  0  0  0  0  0  0  0  0  0  0
   25.8623  -29.5188   42.1565 H   0  0  0  0  0  0  0  0  0  0  0  0
   24.1584  -30.0226   44.6396 H   0  0  0  0  0  0  0  0  0  0  0  0
   25.8265  -29.3317   44.5653 H   0  0  0  0  0  0  0  0  0  0  0  0
   24.0220  -27.6036   44.8717 H   0  0  0  0  0  0  0  0  0  0  0  0
   25.0299  -27.3767   43.3864 H   0  0  0  0  0  0  0  0  0  0  0  0
   22.2306  -28.6052   43.5217 H   0  0  0  0  0  0  0  0  0  0  0  0
   22.6656  -27.0031   42.8440 H   0  0  0  0  0  0  0  0  0  0  0  0
  1  2  1  0
  2  3  2  0
  3  4  1  0
  4  5  2  0
  5  6  1  0
  6  7  1  0
  7  8  1  0
  8  9  2  0
  9 10  1  0
 10 11  2  0
 11 12  1  0
 12 13  1  0
 12 14  2  0
 14 15  1  0
 15 16  2  0
 15 17  1  0
 17 18  1  0
  5 19  1  0
 19 20  2  0
 20 21  1  0
 21 22  1  0
 22 23  1  0
 23 24  1  0
 24 25  1  0
 25 26  1  0
 20  2  1  0
 26 21  1  0
 17  6  2  0
 14  8  1  0
  1 27  1  0
  1 28  1  0
  1 29  1  0
  3 30  1  0
  4 31  1  0
  9 32  1  0
 10 33  1  0
 11 34  1  0
 13 35  1  0
 18 36  1  0
 19 37  1  0
 22 38  1  0
 22 39  1  0
 23 40  1  0
 23 41  1  0
 24 42  1  0
 24 43  1  0
 25 44  1  0
 25 45  1  0
 26 46  1  0
 26 47  1  0
M  END
>  <meeko>  (6) 
{"is_sidechain": [false], "free_energy": -9.388, "intermolecular_energy": -11.501, "internal_energy": 0.433}

$$$$
cand_006_out
     RDKit          3D

 47 50  0  0  0  0  0  0  0  0999 V2000
   19.1200  -28.2430   35.4970 C   0  0  0  0  0  0  0  0  0  0  0  0
   19.9050  -28.3530   36.7760 C   0  0  0  0  0  0  0  0  0  0  0  0
   20.2960  -27.1910   37.4540 C   0  0  0  0  0  0  0  0  0  0  0  0
   21.0210  -27.2700   38.6430 C   0  0  0  0  0  0  0  0  0  0  0  0
   21.3670  -28.5130   39.1880 C   0  0  0  0  0  0  0  0  0  0  0  0
   22.1570  -28.5750   40.4360 C   0  0  0  0  0  0  0  0  0  0  0  0
   21.8480  -27.5500   41.3230 O   0  0  0  0  0  0  0  0  0  0  0  0
   22.5080  -27.4900   42.5240 C   0  0  0  0  0  0  0  0  0  0  0  0
   22.1760  -26.4350   43.3760 C   0  0  0  0  0  0  0  0  0  0  0  0
   22.8100  -26.3150   44.6140 C   0  0  0  0  0  0  0  0  0  0  0  0
   23.7740  -27.2490   45.0000 C   0  0  0  0  0  0  0  0  0  0  0  0
   24.1030  -28.3010   44.1480 C   0  0  0  0  0  0  0  0  0  0  0  0
   25.0540  -29.1790   44.5890 O   0  0  0  0  0  0  0  0  0  0  0  0
   23.4690  -28.4190   42.9080 C   0  0  0  0  0  0  0  0  0  0  0  0
   23.7840  -29.5080   41.9830 C   0  0  0  0  0  0  0  0  0  0  0  0
   24.6150  -30.3720   42.2530 O   0  0  0  0  0  0  0  0  0  0  0  0
   23.0610  -29.5390   40.6900 C   0  0  0  0  0  0  0  0  0  0  0  0
   23.3590  -30.5800   39.8290 O   0  0  0  0  0  0  0  0  0  0  0  0
   20.9830  -29.6730   38.5000 C   0  0  0  0  0  0  0  0  0  0  0  0
   20.2490  -29.6140   37.3010 C   0  0  0  0  0  0  0  0  0  0  0  0
   19.8470  -30.7800   36.6080 N   0  0  0  0  0  0  0  0  0  0  0  0
   19.6410  -31.9220   37.5150 C   0  0  0  0  0  0  0  0  0  0  0  0
   18.9900  -33.0650   36.7360 C   0  0  0  0  0  0  0  0  0  0  0  0
   19.8180  -33.4380   35.5060 C   0  0  0  0  0  0  0  0  0  0  0  0
   20.0950  -32.2090   34.6410 C   0  0  0  0  0  0  0  0  0  0  0  0
   20.7220  -31.0840   35.4660 C   0  0  0  0  0  0  0  0  0  0  0  0
   18.0557  -28.0939   35.7317 H   0  0  0  0  0  0  0  0  0  0  0  0
   19.4898  -27.3879   34.9122 H   0  0  0  0  0  0  0  0  0  0  0  0
   19.2406  -29.1668   34.9122 H   0  0  0  0  0  0  0  0  0  0  0  0
   20.0284  -26.2058   37.0443 H   0  0  0  0  0  0  0  0  0  0  0  0
   21.3242  -26.3465   39.1580 H   0  0  0  0  0  0  0  0  0  0  0  0
   21.4163  -25.6997   43.0724 H   0  0  0  0  0  0  0  0  0  0  0  0
   22.5500  -25.4840   45.2861 H   0  0  0  0  0  0  0  0  0  0  0  0
   24.2730  -27.1541   45.9757 H   0  0  0  0  0  0  0  0  0  0  0  0
   25.9600  -28.9450   44.5530 H   0  0  0  0  0  0  0  0  0  0  0  0
   24.2460  -30.8590   39.7210 H   0  0  0  0  0  0  0  0  0  0  0  0
   21.2630  -30.6552   38.9085 H   0  0  0  0  0  0  0  0  0  0  0  0
   20.6100  -32.2539   37.9160 H   0  0  0  0  0  0  0  0  0  0  0  0
   18.9891  -31.6217   38.3486 H   0  0  0  0  0  0  0  0  0  0  0  0
   18.9059  -33.9440   37.3919 H   0  0  0  0  0  0  0  0  0  0  0  0
   17.9959  -32.7354   36.3997 H   0  0  0  0  0  0  0  0  0  0  0  0
   20.7748  -33.8706   35.8338 H   0  0  0  0  0  0  0  0  0  0  0  0
   19.2508  -34.1671   34.9088 H   0  0  0  0  0  0  0  0  0  0  0  0
   20.7852  -32.4880   33.8312 H   0  0  0  0  0  0  0  0  0  0  0  0
   19.1404  -31.8496   34.2293 H   0  0  0  0  0  0  0  0  0  0  0  0
   21.7091  -31.4022   35.8327 H   0  0  0  0  0  0  0  0  0  0  0  0
   20.8400  -30.1870   34.8403 H   0  0  0  0  0  0  0  0  0  0  0  0
  1  2  1  0
  2  3  2  0
  3  4  1  0
  4  5  2  0
  5  6  1  0
  6  7  1  0
  7  8  1  0
  8  9  2  0
  9 10  1  0
 10 11  2  0
 11 12  1  0
 12 13  1  0
 12 14  2  0
 14 15  1  0
 15 16  2  0
 15 17  1  0
 17 18  1  0
  5 19  1  0
 19 20  2  0
 20 21  1  0
 21 22  1  0
 22 23  1  0
 23 24  1  0
 24 25  1  0
 25 26  1  0
 20  2  1  0
 26 21  1  0
 17  6  2  0
 14  8  1  0
  1 27  1  0
  1 28  1  0
  1 29  1  0
  3 30  1  0
  4 31  1  0
  9 32  1  0
 10 33  1  0
 11 34  1  0
 13 35  1  0
 18 36  1  0
 19 37  1  0
 22 38  1  0
 22 39  1  0
 23 40  1  0
 23 41  1  0
 24 42  1  0
 24 43  1  0
 25 44  1  0
 25 45  1  0
 26 46  1  0
 26 47  1  0
M  END
>  <meeko>  (7) 
{"is_sidechain": [false], "free_energy": -9.126, "intermolecular_energy": -10.69, "internal_energy": -0.069}

$$$$
cand_006_out
     RDKit          3D

 47 50  0  0  0  0  0  0  0  0999 V2000
   20.0490  -30.8030   35.6030 C   0  0  0  0  0  0  0  0  0  0  0  0
   20.5530  -30.2840   36.9220 C   0  0  0  0  0  0  0  0  0  0  0  0
   21.3700  -29.1460   36.9550 C   0  0  0  0  0  0  0  0  0  0  0  0
   21.8460  -28.6450   38.1670 C   0  0  0  0  0  0  0  0  0  0  0  0
   21.5110  -29.2660   39.3770 C   0  0  0  0  0  0  0  0  0  0  0  0
   22.0460  -28.7350   40.6490 C   0  0  0  0  0  0  0  0  0  0  0  0
   21.3450  -27.6260   41.1090 O   0  0  0  0  0  0  0  0  0  0  0  0
   21.7350  -27.0330   42.2820 C   0  0  0  0  0  0  0  0  0  0  0  0
   21.0120  -25.9140   42.6980 C   0  0  0  0  0  0  0  0  0  0  0  0
   21.3570  -25.2630   43.8840 C   0  0  0  0  0  0  0  0  0  0  0  0
   22.4230  -25.7320   44.6540 C   0  0  0  0  0  0  0  0  0  0  0  0
   23.1430  -26.8490   44.2380 C   0  0  0  0  0  0  0  0  0  0  0  0
   24.1730  -27.2540   45.0410 O   0  0  0  0  0  0  0  0  0  0  0  0
   22.7980  -27.4990   43.0490 C   0  0  0  0  0  0  0  0  0  0  0  0
   23.5280  -28.6760   42.5760 C   0  0  0  0  0  0  0  0  0  0  0  0
   24.4730  -29.1520   43.2010 O   0  0  0  0  0  0  0  0  0  0  0  0
   23.0870  -29.2860   41.3000 C   0  0  0  0  0  0  0  0  0  0  0  0
   23.7760  -30.4060   40.8690 O   0  0  0  0  0  0  0  0  0  0  0  0
   20.7030  -30.4110   39.3390 C   0  0  0  0  0  0  0  0  0  0  0  0
   20.2110  -30.9300   38.1270 C   0  0  0  0  0  0  0  0  0  0  0  0
   19.3840  -32.0760   38.0800 N   0  0  0  0  0  0  0  0  0  0  0  0
   19.3940  -32.8200   39.3510 C   0  0  0  0  0  0  0  0  0  0  0  0
   18.3120  -33.9000   39.3050 C   0  0  0  0  0  0  0  0  0  0  0  0
   18.4940  -34.8130   38.0930 C   0  0  0  0  0  0  0  0  0  0  0  0
   18.5790  -33.9970   36.8030 C   0  0  0  0  0  0  0  0  0  0  0  0
   19.6560  -32.9160   36.9030 C   0  0  0  0  0  0  0  0  0  0  0  0
   19.2927  -31.5818   35.7803 H   0  0  0  0  0  0  0  0  0  0  0  0
   19.5986  -29.9776   35.0321 H   0  0  0  0  0  0  0  0  0  0  0  0
   20.8872  -31.2290   35.0321 H   0  0  0  0  0  0  0  0  0  0  0  0
   21.6390  -28.6421   36.0149 H   0  0  0  0  0  0  0  0  0  0  0  0
   22.4906  -27.7537   38.1724 H   0  0  0  0  0  0  0  0  0  0  0  0
   20.1712  -25.5453   42.0921 H   0  0  0  0  0  0  0  0  0  0  0  0
   20.7886  -24.3801   44.2119 H   0  0  0  0  0  0  0  0  0  0  0  0
   22.6940  -25.2194   45.5888 H   0  0  0  0  0  0  0  0  0  0  0  0
   24.0550  -27.3000   45.9680 H   0  0  0  0  0  0  0  0  0  0  0  0
   24.1390  -31.0010   41.4940 H   0  0  0  0  0  0  0  0  0  0  0  0
   20.4468  -30.9171   40.2815 H   0  0  0  0  0  0  0  0  0  0  0  0
   20.3780  -33.2899   39.4954 H   0  0  0  0  0  0  0  0  0  0  0  0
   19.1963  -32.1316   40.1859 H   0  0  0  0  0  0  0  0  0  0  0  0
   18.3696  -34.5050   40.2219 H   0  0  0  0  0  0  0  0  0  0  0  0
   17.3315  -33.4077   39.2263 H   0  0  0  0  0  0  0  0  0  0  0  0
   19.4212  -35.3922   38.2145 H   0  0  0  0  0  0  0  0  0  0  0  0
   17.6264  -35.4860   38.0266 H   0  0  0  0  0  0  0  0  0  0  0  0
   18.8227  -34.6702   35.9679 H   0  0  0  0  0  0  0  0  0  0  0  0
   17.6083  -33.5074   36.6357 H   0  0  0  0  0  0  0  0  0  0  0  0
   20.6440  -33.3883   37.0074 H   0  0  0  0  0  0  0  0  0  0  0  0
   19.6461  -32.2965   35.9941 H   0  0  0  0  0  0  0  0  0  0  0  0
  1  2  1  0
  2  3  2  0
  3  4  1  0
  4  5  2  0
  5  6  1  0
  6  7  1  0
  7  8  1  0
  8  9  2  0
  9 10  1  0
 10 11  2  0
 11 12  1  0
 12 13  1  0
 12 14  2  0
 14 15  1  0
 15 16  2  0
 15 17  1  0
 17 18  1  0
  5 19  1  0
 19 20  2  0
 20 21  1  0
 21 22  1  0
 22 23  1  0
 23 24  1  0
 24 25  1  0
 25 26  1  0
 20  2  1  0
 26 21  1  0
 17  6  2  0
 14  8  1  0
  1 27  1  0
  1 28  1  0
  1 29  1  0
  3 30  1  0
  4 31  1  0
  9 32  1  0
 10 33  1  0
 11 34  1  0
 13 35  1  0
 18 36  1  0
 19 37  1  0
 22 38  1  0
 22 39  1  0
 23 40  1  0
 23 41  1  0
 24 42  1  0
 24 43  1  0
 25 44  1  0
 25 45  1  0
 26 46  1  0
 26 47  1  0
M  END
>  <meeko>  (8) 
{"is_sidechain": [false], "free_energy": -9.053, "intermolecular_energy": -11.313, "internal_energy": 0.639}

$$$$
cand_006_out
     RDKit          3D

 47 50  0  0  0  0  0  0  0  0999 V2000
   19.7130  -25.4380   43.1650 C   0  0  0  0  0  0  0  0  0  0  0  0
   19.8390  -26.1480   41.8450 C   0  0  0  0  0  0  0  0  0  0  0  0
   18.7920  -26.0800   40.9160 C   0  0  0  0  0  0  0  0  0  0  0  0
   18.8890  -26.7280   39.6840 C   0  0  0  0  0  0  0  0  0  0  0  0
   20.0380  -27.4530   39.3480 C   0  0  0  0  0  0  0  0  0  0  0  0
   20.1120  -28.1540   38.0480 C   0  0  0  0  0  0  0  0  0  0  0  0
   19.9270  -29.5270   38.1620 O   0  0  0  0  0  0  0  0  0  0  0  0
   19.9690  -30.2990   37.0300 C   0  0  0  0  0  0  0  0  0  0  0  0
   19.7940  -31.6740   37.1940 C   0  0  0  0  0  0  0  0  0  0  0  0
   19.8250  -32.5180   36.0820 C   0  0  0  0  0  0  0  0  0  0  0  0
   20.0310  -31.9880   34.8070 C   0  0  0  0  0  0  0  0  0  0  0  0
   20.2050  -30.6160   34.6460 C   0  0  0  0  0  0  0  0  0  0  0  0
   20.4010  -30.1640   33.3700 O   0  0  0  0  0  0  0  0  0  0  0  0
   20.1760  -29.7720   35.7600 C   0  0  0  0  0  0  0  0  0  0  0  0
   20.3540  -28.3250   35.6340 C   0  0  0  0  0  0  0  0  0  0  0  0
   20.5330  -27.7820   34.5460 O   0  0  0  0  0  0  0  0  0  0  0  0
   20.3130  -27.5190   36.8780 C   0  0  0  0  0  0  0  0  0  0  0  0
   20.4700  -26.1520   36.7450 O   0  0  0  0  0  0  0  0  0  0  0  0
   21.0790  -27.5280   40.2840 C   0  0  0  0  0  0  0  0  0  0  0  0
   21.0010  -26.8800   41.5310 C   0  0  0  0  0  0  0  0  0  0  0  0
   22.0510  -26.9400   42.4760 N   0  0  0  0  0  0  0  0  0  0  0  0
   22.8740  -25.7180   42.4690 C   0  0  0  0  0  0  0  0  0  0  0  0
   23.8320  -25.7560   43.6600 C   0  0  0  0  0  0  0  0  0  0  0  0
   24.6780  -27.0300   43.6480 C   0  0  0  0  0  0  0  0  0  0  0  0
   23.7930  -28.2720   43.5540 C   0  0  0  0  0  0  0  0  0  0  0  0
   22.8360  -28.1790   42.3650 C   0  0  0  0  0  0  0  0  0  0  0  0
   19.8413  -26.1611   43.9840 H   0  0  0  0  0  0  0  0  0  0  0  0
   20.4871  -24.6599   43.2382 H   0  0  0  0  0  0  0  0  0  0  0  0
   18.7184  -24.9738   43.2382 H   0  0  0  0  0  0  0  0  0  0  0  0
   17.8838  -25.5096   41.1606 H   0  0  0  0  0  0  0  0  0  0  0  0
   18.0543  -26.6684   38.9700 H   0  0  0  0  0  0  0  0  0  0  0  0
   19.6318  -32.0924   38.1983 H   0  0  0  0  0  0  0  0  0  0  0  0
   19.6870  -33.6017   36.2108 H   0  0  0  0  0  0  0  0  0  0  0  0
   20.0558  -32.6531   33.9312 H   0  0  0  0  0  0  0  0  0  0  0  0
   19.9560  -29.3970   33.0710 H   0  0  0  0  0  0  0  0  0  0  0  0
   19.7780  -25.6340   36.3840 H   0  0  0  0  0  0  0  0  0  0  0  0
   21.9803  -28.1084   40.0374 H   0  0  0  0  0  0  0  0  0  0  0  0
   23.4505  -25.6670   41.5335 H   0  0  0  0  0  0  0  0  0  0  0  0
   22.2252  -24.8327   42.5421 H   0  0  0  0  0  0  0  0  0  0  0  0
   24.4984  -24.8821   43.6126 H   0  0  0  0  0  0  0  0  0  0  0  0
   23.2381  -25.7406   44.5857 H   0  0  0  0  0  0  0  0  0  0  0  0
   25.3554  -27.0042   42.7817 H   0  0  0  0  0  0  0  0  0  0  0  0
   25.2530  -27.0786   44.5845 H   0  0  0  0  0  0  0  0  0  0  0  0
   24.4315  -29.1594   43.4324 H   0  0  0  0  0  0  0  0  0  0  0  0
   23.1976  -28.3466   44.4759 H   0  0  0  0  0  0  0  0  0  0  0  0
   23.4123  -28.1675   41.4281 H   0  0  0  0  0  0  0  0  0  0  0  0
   22.1606  -29.0472   42.3636 H   0  0  0  0  0  0  0  0  0  0  0  0
  1  2  1  0
  2  3  2  0
  3  4  1  0
  4  5  2  0
  5  6  1  0
  6  7  1  0
  7  8  1  0
  8  9  2  0
  9 10  1  0
 10 11  2  0
 11 12  1  0
 12 13  1  0
 12 14  2  0
 14 15  1  0
 15 16  2  0
 15 17  1  0
 17 18  1  0
  5 19  1  0
 19 20  2  0
 20 21  1  0
 21 22  1  0
 22 23  1  0
 23 24  1  0
 24 25  1  0
 25 26  1  0
 20  2  1  0
 26 21  1  0
 17  6  2  0
 14  8  1  0
  1 27  1  0
  1 28  1  0
  1 29  1  0
  3 30  1  0
  4 31  1  0
  9 32  1  0
 10 33  1  0
 11 34  1  0
 13 35  1  0
 18 36  1  0
 19 37  1  0
 22 38  1  0
 22 39  1  0
 23 40  1  0
 23 41  1  0
 24 42  1  0
 24 43  1  0
 25 44  1  0
 25 45  1  0
 26 46  1  0
 26 47  1  0
M  END
>  <meeko>  (9) 
{"is_sidechain": [false], "free_energy": -8.99, "intermolecular_energy": -10.128, "internal_energy": -0.472}

$$$$
