cand_046_out
     RDKit          3D

 39 41  0  0  0  0  0  0  0  0999 V2000
   25.0210  -30.9750   43.1380 C   0  0  0  0  0  0  0  0  0  0  0  0
   24.8740  -29.6460   43.0580 C   0  0  0  0  0  0  0  0  0  0  0  0
   23.7960  -28.9990   42.2950 C   0  0  0  0  0  0  0  0  0  0  0  0
   23.1370  -29.7320   41.2900 C   0  0  0  0  0  0  0  0  0  0  0  0
   22.0780  -29.1830   40.5520 C   0  0  0  0  0  0  0  0  0  0  0  0
   21.4350  -29.9800   39.4850 C   0  0  0  0  0  0  0  0  0  0  0  0
   20.6130  -30.9850   39.9820 O   0  0  0  0  0  0  0  0  0  0  0  0
   19.9520  -31.7990   39.0990 C   0  0  0  0  0  0  0  0  0  0  0  0
   19.1490  -32.8030   39.6420 C   0  0  0  0  0  0  0  0  0  0  0  0
   18.4470  -33.6660   38.7980 C   0  0  0  0  0  0  0  0  0  0  0  0
   18.5460  -33.5240   37.4130 C   0  0  0  0  0  0  0  0  0  0  0  0
   19.3480  -32.5210   36.8730 C   0  0  0  0  0  0  0  0  0  0  0  0
   19.4010  -32.4390   35.5080 O   0  0  0  0  0  0  0  0  0  0  0  0
   20.0520  -31.6590   37.7190 C   0  0  0  0  0  0  0  0  0  0  0  0
   20.9050  -30.5920   37.1930 C   0  0  0  0  0  0  0  0  0  0  0  0
   21.0390  -30.4000   35.9860 O   0  0  0  0  0  0  0  0  0  0  0  0
   21.6130  -29.7370   38.1730 C   0  0  0  0  0  0  0  0  0  0  0  0
   22.4050  -28.7230   37.6670 O   0  0  0  0  0  0  0  0  0  0  0  0
   21.6850  -27.8710   40.8280 C   0  0  0  0  0  0  0  0  0  0  0  0
   22.3220  -27.1330   41.8290 C   0  0  0  0  0  0  0  0  0  0  0  0
   23.3810  -27.6820   42.5730 C   0  0  0  0  0  0  0  0  0  0  0  0
   24.0190  -26.8290   43.6460 C   0  0  0  0  0  0  0  0  0  0  0  0
   23.2060  -26.8290   44.9320 C   0  0  0  0  0  0  0  0  0  0  0  0
   25.8476  -31.4026   43.7244 H   0  0  0  0  0  0  0  0  0  0  0  0
   24.3151  -31.6388   42.6173 H   0  0  0  0  0  0  0  0  0  0  0  0
   25.5950  -29.0072   43.5891 H   0  0  0  0  0  0  0  0  0  0  0  0
   23.4608  -30.7617   41.0780 H   0  0  0  0  0  0  0  0  0  0  0  0
   19.0692  -32.9144   40.7334 H   0  0  0  0  0  0  0  0  0  0  0  0
   17.8152  -34.4587   39.2252 H   0  0  0  0  0  0  0  0  0  0  0  0
   17.9915  -34.2032   36.7487 H   0  0  0  0  0  0  0  0  0  0  0  0
   19.3870  -33.2200   34.9920 H   0  0  0  0  0  0  0  0  0  0  0  0
   22.2890  -27.8430   37.9690 H   0  0  0  0  0  0  0  0  0  0  0  0
   20.8665  -27.4148   40.2519 H   0  0  0  0  0  0  0  0  0  0  0  0
   21.9894  -26.1056   42.0383 H   0  0  0  0  0  0  0  0  0  0  0  0
   25.0239  -27.2215   43.8610 H   0  0  0  0  0  0  0  0  0  0  0  0
   24.0671  -25.7948   43.2743 H   0  0  0  0  0  0  0  0  0  0  0  0
   23.0101  -27.8661   45.2419 H   0  0  0  0  0  0  0  0  0  0  0  0
   23.7692  -26.3105   45.7219 H   0  0  0  0  0  0  0  0  0  0  0  0
   22.2509  -26.3105   44.7620 H   0  0  0  0  0  0  0  0  0  0  0  0
  1  2  2  0
  2  3  1  0
  3  4  2  0
  4  5  1  0
  5  6  1  0
  6  7  1  0
  7  8  1  0
  8  9  2  0
  9 10  1  0
 10 11  2  0
 11 12  1  0
 12 13  1  0
 12 14  2  0
 14 15  1  0
 15 16  2  0
 15 17  1  0
 17 18  1  0
  5 19  2  0
 19 20  1  0
 20 21  2  0
 21 22  1  0
 22 23  1  0
 21  3  1  0
 17  6  2  0
 14  8  1  0
  1 24  1  0
  1 25  1  0
  2 26  1  0
  4 27  1  0
  9 28  1  0
 10 29  1  0
 11 30  1  0
 13 31  1  0
 18 32  1  0
 19 33  1  0
 20 34  1  0
 22 35  1  0
 22 36  1  0
 23 37  1  0
 23 38  1  0
 23 39  1  0
M  END
>  <meeko>  (1) 
{"is_sidechain": [false], "free_energy": -9.434, "intermolecular_energy": -11.64, "internal_energy": -0.599}

$$$$
cand_046_out
     RDKit          3D

 39 41  0  0  0  0  0  0  0  0999 V2000
   19.6660  -26.2190   42.4700 C   0  0  0  0  0  0  0  0  0  0  0  0
   20.8290  -26.2370   41.8070 C   0  0  0  0  0  0  0  0  0  0  0  0
   21.5430  -27.4760   41.4630 C   0  0  0  0  0  0  0  0  0  0  0  0
   20.9850  -28.3400   40.5030 C   0  0  0  0  0  0  0  0  0  0  0  0
   21.6340  -29.5190   40.1060 C   0  0  0  0  0  0  0  0  0  0  0  0
   20.9960  -30.4120   39.1160 C   0  0  0  0  0  0  0  0  0  0  0  0
   20.2870  -31.4530   39.7050 O   0  0  0  0  0  0  0  0  0  0  0  0
   19.6430  -32.3560   38.9000 C   0  0  0  0  0  0  0  0  0  0  0  0
   18.9560  -33.3920   39.5340 C   0  0  0  0  0  0  0  0  0  0  0  0
   18.2760  -34.3470   38.7720 C   0  0  0  0  0  0  0  0  0  0  0  0
   18.2830  -34.2630   37.3790 C   0  0  0  0  0  0  0  0  0  0  0  0
   18.9690  -33.2280   36.7490 C   0  0  0  0  0  0  0  0  0  0  0  0
   18.9350  -33.2070   35.3810 O   0  0  0  0  0  0  0  0  0  0  0  0
   19.6500  -32.2750   37.5120 C   0  0  0  0  0  0  0  0  0  0  0  0
   20.3840  -31.1710   36.8890 C   0  0  0  0  0  0  0  0  0  0  0  0
   20.4310  -31.0270   35.6690 O   0  0  0  0  0  0  0  0  0  0  0  0
   21.0770  -30.2180   37.7860 C   0  0  0  0  0  0  0  0  0  0  0  0
   21.7540  -29.1720   37.1890 O   0  0  0  0  0  0  0  0  0  0  0  0
   22.8620  -29.8320   40.6970 C   0  0  0  0  0  0  0  0  0  0  0  0
   23.4340  -28.9810   41.6450 C   0  0  0  0  0  0  0  0  0  0  0  0
   22.7870  -27.7970   42.0410 C   0  0  0  0  0  0  0  0  0  0  0  0
   23.4680  -26.9180   43.0650 C   0  0  0  0  0  0  0  0  0  0  0  0
   24.1200  -27.7330   44.1730 C   0  0  0  0  0  0  0  0  0  0  0  0
   19.1783  -25.2600   42.6992 H   0  0  0  0  0  0  0  0  0  0  0  0
   19.1981  -27.1632   42.7856 H   0  0  0  0  0  0  0  0  0  0  0  0
   21.2728  -25.2771   41.5044 H   0  0  0  0  0  0  0  0  0  0  0  0
   20.0148  -28.0846   40.0520 H   0  0  0  0  0  0  0  0  0  0  0  0
   18.9494  -33.4573   40.6320 H   0  0  0  0  0  0  0  0  0  0  0  0
   17.7353  -35.1649   39.2707 H   0  0  0  0  0  0  0  0  0  0  0  0
   17.7472  -35.0136   36.7794 H   0  0  0  0  0  0  0  0  0  0  0  0
   18.1150  -33.1490   34.9340 H   0  0  0  0  0  0  0  0  0  0  0  0
   21.4200  -28.2990   37.2570 H   0  0  0  0  0  0  0  0  0  0  0  0
   23.3828  -30.7581   40.4122 H   0  0  0  0  0  0  0  0  0  0  0  0
   24.4062  -29.2410   42.0891 H   0  0  0  0  0  0  0  0  0  0  0  0
   24.2420  -26.3203   42.5614 H   0  0  0  0  0  0  0  0  0  0  0  0
   22.7026  -26.2739   43.5225 H   0  0  0  0  0  0  0  0  0  0  0  0
   23.8055  -27.3398   45.1510 H   0  0  0  0  0  0  0  0  0  0  0  0
   23.8115  -28.7851   44.0843 H   0  0  0  0  0  0  0  0  0  0  0  0
   25.2142  -27.6630   44.0843 H   0  0  0  0  0  0  0  0  0  0  0  0
  1  2  2  0
  2  3  1  0
  3  4  2  0
  4  5  1  0
  5  6  1  0
  6  7  1  0
  7  8  1  0
  8  9  2  0
  9 10  1  0
 10 11  2  0
 11 12  1  0
 12 13  1  0
 12 14  2  0
 14 15  1  0
 15 16  2  0
 15 17  1  0
 17 18  1  0
  5 19  2  0
 19 20  1  0
 20 21  2  0
 21 22  1  0
 22 23  1  0
 21  3  1  0
 17  6  2  0
 14  8  1  0
  1 24  1  0
  1 25  1  0
  2 26  1  0
  4 27  1  0
  9 28  1  0
 10 29  1  0
 11 30  1  0
 13 31  1  0
 18 32  1  0
 19 33  1  0
 20 34  1  0
 22 35  1  0
 22 36  1  0
 23 37  1  0
 23 38  1  0
 23 39  1  0
M  END
>  <meeko>  (2) 
{"is_sidechain": [false], "free_energy": -9.262, "intermolecular_energy": -11.384, "internal_energy": -0.643}

$$$$
cand_046_out
     RDKit          3D

 39 41  0  0  0  0  0  0  0  0999 V2000
   18.9060  -33.2510   39.7670 C   0  0  0  0  0  0  0  0  0  0  0  0
   18.6090  -32.1210   39.1120 C   0  0  0  0  0  0  0  0  0  0  0  0
   19.6250  -31.1580   38.6640 C   0  0  0  0  0  0  0  0  0  0  0  0
   20.1260  -30.2170   39.5830 C   0  0  0  0  0  0  0  0  0  0  0  0
   21.1220  -29.2960   39.2270 C   0  0  0  0  0  0  0  0  0  0  0  0
   21.5960  -28.3060   40.2180 C   0  0  0  0  0  0  0  0  0  0  0  0
   22.4710  -28.8510   41.1500 O   0  0  0  0  0  0  0  0  0  0  0  0
   22.9890  -28.0410   42.1270 C   0  0  0  0  0  0  0  0  0  0  0  0
   23.8520  -28.6330   43.0500 C   0  0  0  0  0  0  0  0  0  0  0  0
   24.4170  -27.8630   44.0700 C   0  0  0  0  0  0  0  0  0  0  0  0
   24.1200  -26.5020   44.1650 C   0  0  0  0  0  0  0  0  0  0  0  0
   23.2580  -25.9130   43.2430 C   0  0  0  0  0  0  0  0  0  0  0  0
   23.0100  -24.5760   43.3950 O   0  0  0  0  0  0  0  0  0  0  0  0
   22.6930  -26.6850   42.2240 C   0  0  0  0  0  0  0  0  0  0  0  0
   21.7830  -26.1060   41.2340 C   0  0  0  0  0  0  0  0  0  0  0  0
   21.4780  -24.9150   41.2490 O   0  0  0  0  0  0  0  0  0  0  0  0
   21.2330  -27.0090   40.1980 C   0  0  0  0  0  0  0  0  0  0  0  0
   20.3860  -26.4500   39.2600 O   0  0  0  0  0  0  0  0  0  0  0  0
   21.6140  -29.3210   37.9190 C   0  0  0  0  0  0  0  0  0  0  0  0
   21.1350  -30.2550   36.9970 C   0  0  0  0  0  0  0  0  0  0  0  0
   20.1390  -31.1810   37.3520 C   0  0  0  0  0  0  0  0  0  0  0  0
   19.6740  -32.1690   36.3060 C   0  0  0  0  0  0  0  0  0  0  0  0
   20.2200  -31.8350   34.9250 C   0  0  0  0  0  0  0  0  0  0  0  0
   18.1018  -33.9343   40.0776 H   0  0  0  0  0  0  0  0  0  0  0  0
   19.9541  -33.4957   39.9943 H   0  0  0  0  0  0  0  0  0  0  0  0
   17.5521  -31.9029   38.8988 H   0  0  0  0  0  0  0  0  0  0  0  0
   19.7258  -30.2036   40.6075 H   0  0  0  0  0  0  0  0  0  0  0  0
   24.0873  -29.7049   42.9747 H   0  0  0  0  0  0  0  0  0  0  0  0
   25.0963  -28.3294   44.7987 H   0  0  0  0  0  0  0  0  0  0  0  0
   24.5662  -25.8957   44.9670 H   0  0  0  0  0  0  0  0  0  0  0  0
   23.0630  -24.1850   44.2440 H   0  0  0  0  0  0  0  0  0  0  0  0
   20.6230  -25.6490   38.8340 H   0  0  0  0  0  0  0  0  0  0  0  0
   22.3852  -28.5989   37.6128 H   0  0  0  0  0  0  0  0  0  0  0  0
   21.5443  -30.2659   35.9760 H   0  0  0  0  0  0  0  0  0  0  0  0
   20.0170  -33.1749   36.5900 H   0  0  0  0  0  0  0  0  0  0  0  0
   18.5760  -32.1223   36.2582 H   0  0  0  0  0  0  0  0  0  0  0  0
   21.1542  -31.2635   35.0284 H   0  0  0  0  0  0  0  0  0  0  0  0
   20.4189  -32.7662   34.3743 H   0  0  0  0  0  0  0  0  0  0  0  0
   19.4815  -31.2339   34.3743 H   0  0  0  0  0  0  0  0  0  0  0  0
  1  2  2  0
  2  3  1  0
  3  4  2  0
  4  5  1  0
  5  6  1  0
  6  7  1  0
  7  8  1  0
  8  9  2  0
  9 10  1  0
 10 11  2  0
 11 12  1  0
 12 13  1  0
 12 14  2  0
 14 15  1  0
 15 16  2  0
 15 17  1  0
 17 18  1  0
  5 19  2  0
 19 20  1  0
 20 21  2  0
 21 22  1  0
 22 23  1  0
 21  3  1  0
 17  6  2  0
 14  8  1  0
  1 24  1  0
  1 25  1  0
  2 26  1  0
  4 27  1  0
  9 28  1  0
 10 29  1  0
 11 30  1  0
 13 31  1  0
 18 32  1  0
 19 33  1  0
 20 34  1  0
 22 35  1  0
 22 36  1  0
 23 37  1  0
 23 38  1  0
 23 39  1  0
M  END
>  <meeko>  (3) 
{"is_sidechain": [false], "free_energy": -8.82, "intermolecular_energy": -10.892, "internal_energy": -0.589}

$$$$
cand_046_out
     RDKit          3D

 39 41  0  0  0  0  0  0  0  0999 V2000
   23.9090  -30.2950   42.1150 C   0  0  0  0  0  0  0  0  0  0  0  0
   23.5600  -29.1430   41.5270 C   0  0  0  0  0  0  0  0  0  0  0  0
   22.2890  -28.9570   40.8100 C   0  0  0  0  0  0  0  0  0  0  0  0
   21.8840  -29.9300   39.8780 C   0  0  0  0  0  0  0  0  0  0  0  0
   20.6660  -29.8280   39.1880 C   0  0  0  0  0  0  0  0  0  0  0  0
   20.2960  -30.8580   38.1940 C   0  0  0  0  0  0  0  0  0  0  0  0
   19.8780  -32.0480   38.7810 O   0  0  0  0  0  0  0  0  0  0  0  0
   19.5020  -33.0890   37.9720 C   0  0  0  0  0  0  0  0  0  0  0  0
   19.1030  -34.2680   38.6030 C   0  0  0  0  0  0  0  0  0  0  0  0
   18.7050  -35.3680   37.8380 C   0  0  0  0  0  0  0  0  0  0  0  0
   18.7050  -35.2870   36.4440 C   0  0  0  0  0  0  0  0  0  0  0  0
   19.1040  -34.1090   35.8170 C   0  0  0  0  0  0  0  0  0  0  0  0
   19.0810  -34.0990   34.4490 O   0  0  0  0  0  0  0  0  0  0  0  0
   19.5030  -33.0100   36.5830 C   0  0  0  0  0  0  0  0  0  0  0  0
   19.9280  -31.7530   35.9640 C   0  0  0  0  0  0  0  0  0  0  0  0
   19.9500  -31.6030   34.7450 O   0  0  0  0  0  0  0  0  0  0  0  0
   20.3380  -30.6510   36.8650 C   0  0  0  0  0  0  0  0  0  0  0  0
   20.7240  -29.4640   36.2710 O   0  0  0  0  0  0  0  0  0  0  0  0
   19.8510  -28.7200   39.4390 C   0  0  0  0  0  0  0  0  0  0  0  0
   20.2340  -27.7510   40.3690 C   0  0  0  0  0  0  0  0  0  0  0  0
   21.4520  -27.8530   41.0640 C   0  0  0  0  0  0  0  0  0  0  0  0
   21.7990  -26.7710   42.0620 C   0  0  0  0  0  0  0  0  0  0  0  0
   20.5840  -26.3200   42.8600 C   0  0  0  0  0  0  0  0  0  0  0  0
   24.8736  -30.3756   42.6376 H   0  0  0  0  0  0  0  0  0  0  0  0
   23.2310  -31.1603   42.0752 H   0  0  0  0  0  0  0  0  0  0  0  0
   24.2580  -28.2946   41.5831 H   0  0  0  0  0  0  0  0  0  0  0  0
   22.5386  -30.7927   39.6851 H   0  0  0  0  0  0  0  0  0  0  0  0
   19.1017  -34.3316   39.7012 H   0  0  0  0  0  0  0  0  0  0  0  0
   18.3915  -36.2982   38.3345 H   0  0  0  0  0  0  0  0  0  0  0  0
   18.3904  -36.1522   35.8420 H   0  0  0  0  0  0  0  0  0  0  0  0
   18.2730  -34.2280   33.9940 H   0  0  0  0  0  0  0  0  0  0  0  0
   21.5860  -29.1260   36.4190 H   0  0  0  0  0  0  0  0  0  0  0  0
   18.8990  -28.6104   38.8988 H   0  0  0  0  0  0  0  0  0  0  0  0
   19.5718  -26.8939   40.5609 H   0  0  0  0  0  0  0  0  0  0  0  0
   22.5567  -27.1599   42.7582 H   0  0  0  0  0  0  0  0  0  0  0  0
   22.1797  -25.9032   41.5034 H   0  0  0  0  0  0  0  0  0  0  0  0
   20.8011  -26.4006   43.9354 H   0  0  0  0  0  0  0  0  0  0  0  0
   20.3489  -25.2747   42.6107 H   0  0  0  0  0  0  0  0  0  0  0  0
   19.7239  -26.9587   42.6107 H   0  0  0  0  0  0  0  0  0  0  0  0
  1  2  2  0
  2  3  1  0
  3  4  2  0
  4  5  1  0
  5  6  1  0
  6  7  1  0
  7  8  1  0
  8  9  2  0
  9 10  1  0
 10 11  2  0
 11 12  1  0
 12 13  1  0
 12 14  2  0
 14 15  1  0
 15 16  2  0
 15 17  1  0
 17 18  1  0
  5 19  2  0
 19 20  1  0
 20 21  2  0
 21 22  1  0
 22 23  1  0
 21  3  1  0
 17  6  2  0
 14  8  1  0
  1 24  1  0
  1 25  1  0
  2 26  1  0
  4 27  1  0
  9 28  1  0
 10 29  1  0
 11 30  1  0
 13 31  1  0
 18 32  1  0
 19 33  1  0
 20 34  1  0
 22 35  1  0
 22 36  1  0
 23 37  1  0
 23 38  1  0
 23 39  1  0
M  END
>  <meeko>  (4) 
{"is_sidechain": [false], "free_energy": -8.736, "intermolecular_energy": -10.787, "internal_energy": -0.591}

$$$$
cand_046_out
     RDKit          3D

 39 41  0  0  0  0  0  0  0  0999 V2000
   23.6150  -29.8880   41.6210 C   0  0  0  0  0  0  0  0  0  0  0  0
   23.0150  -28.7480   41.2530 C   0  0  0  0  0  0  0  0  0  0  0  0
   21.7560  -28.7090   40.4950 C   0  0  0  0  0  0  0  0  0  0  0  0
   21.4370  -29.7840   39.6450 C   0  0  0  0  0  0  0  0  0  0  0  0
   20.2350  -29.8230   38.9230 C   0  0  0  0  0  0  0  0  0  0  0  0
   19.9570  -30.9590   38.0170 C   0  0  0  0  0  0  0  0  0  0  0  0
   20.3500  -30.7130   36.7070 O   0  0  0  0  0  0  0  0  0  0  0  0
   20.1520  -31.6860   35.7620 C   0  0  0  0  0  0  0  0  0  0  0  0
   20.5490  -31.3920   34.4570 C   0  0  0  0  0  0  0  0  0  0  0  0
   20.3770  -32.3410   33.4450 C   0  0  0  0  0  0  0  0  0  0  0  0
   19.8100  -33.5820   33.7400 C   0  0  0  0  0  0  0  0  0  0  0  0
   19.4150  -33.8730   35.0430 C   0  0  0  0  0  0  0  0  0  0  0  0
   18.8660  -35.1080   35.2610 O   0  0  0  0  0  0  0  0  0  0  0  0
   19.5860  -32.9230   36.0540 C   0  0  0  0  0  0  0  0  0  0  0  0
   19.1850  -33.1890   37.4370 C   0  0  0  0  0  0  0  0  0  0  0  0
   18.6850  -34.2600   37.7740 O   0  0  0  0  0  0  0  0  0  0  0  0
   19.4040  -32.1140   38.4310 C   0  0  0  0  0  0  0  0  0  0  0  0
   19.0350  -32.3800   39.7370 O   0  0  0  0  0  0  0  0  0  0  0  0
   19.3450  -28.7530   39.0560 C   0  0  0  0  0  0  0  0  0  0  0  0
   19.6420  -27.6830   39.9030 C   0  0  0  0  0  0  0  0  0  0  0  0
   20.8440  -27.6440   40.6310 C   0  0  0  0  0  0  0  0  0  0  0  0
   21.0950  -26.4580   41.5350 C   0  0  0  0  0  0  0  0  0  0  0  0
   20.0440  -26.3430   42.6300 C   0  0  0  0  0  0  0  0  0  0  0  0
   24.5571  -29.8555   42.1879 H   0  0  0  0  0  0  0  0  0  0  0  0
   23.1655  -30.8564   41.3563 H   0  0  0  0  0  0  0  0  0  0  0  0
   23.4876  -27.7946   41.5317 H   0  0  0  0  0  0  0  0  0  0  0  0
   22.1493  -30.6161   39.5440 H   0  0  0  0  0  0  0  0  0  0  0  0
   20.9968  -30.4145   34.2248 H   0  0  0  0  0  0  0  0  0  0  0  0
   20.6886  -32.1097   32.4157 H   0  0  0  0  0  0  0  0  0  0  0  0
   19.6754  -34.3291   32.9440 H   0  0  0  0  0  0  0  0  0  0  0  0
   19.3890  -35.8770   35.1580 H   0  0  0  0  0  0  0  0  0  0  0  0
   18.2970  -31.9410   40.1130 H   0  0  0  0  0  0  0  0  0  0  0  0
   18.4026  -28.7539   38.4886 H   0  0  0  0  0  0  0  0  0  0  0  0
   18.9230  -26.8565   40.0022 H   0  0  0  0  0  0  0  0  0  0  0  0
   22.0842  -26.5710   42.0027 H   0  0  0  0  0  0  0  0  0  0  0  0
   21.0469  -25.5466   40.9209 H   0  0  0  0  0  0  0  0  0  0  0  0
   20.5325  -26.3964   43.6141 H   0  0  0  0  0  0  0  0  0  0  0  0
   19.5177  -25.3819   42.5336 H   0  0  0  0  0  0  0  0  0  0  0  0
   19.3223  -27.1675   42.5336 H   0  0  0  0  0  0  0  0  0  0  0  0
  1  2  2  0
  2  3  1  0
  3  4  2  0
  4  5  1  0
  5  6  1  0
  6  7  1  0
  7  8  1  0
  8  9  2  0
  9 10  1  0
 10 11  2  0
 11 12  1  0
 12 13  1  0
 12 14  2  0
 14 15  1  0
 15 16  2  0
 15 17  1  0
 17 18  1  0
  5 19  2  0
 19 20  1  0
 20 21  2  0
 21 22  1  0
 22 23  1  0
 21  3  1  0
 17  6  2  0
 14  8  1  0
  1 24  1  0
  1 25  1  0
  2 26  1  0
  4 27  1  0
  9 28  1  0
 10 29  1  0
 11 30  1  0
 13 31  1  0
 18 32  1  0
 19 33  1  0
 20 34  1  0
 22 35  1  0
 22 36  1  0
 23 37  1  0
 23 38  1  0
 23 39  1  0
M  END
>  <meeko>  (5) 
{"is_sidechain": [false], "free_energy": -8.64, "intermolecular_energy": -10.609, "internal_energy": -0.651}

$$$$
cand_046_out
     RDKit          3D

 39 41  0  0  0  0  0  0  0  0999 V2000
   24.6360  -28.9000   44.3440 C   0  0  0  0  0  0  0  0  0  0  0  0
   24.3870  -27.7070   43.7900 C   0  0  0  0  0  0  0  0  0  0  0  0
   23.1000  -27.3610   43.1680 C   0  0  0  0  0  0  0  0  0  0  0  0
   22.7280  -27.9980   41.9700 C   0  0  0  0  0  0  0  0  0  0  0  0
   21.4980  -27.7380   41.3470 C   0  0  0  0  0  0  0  0  0  0  0  0
   21.1630  -28.4080   40.0720 C   0  0  0  0  0  0  0  0  0  0  0  0
   20.7320  -29.7180   40.2490 O   0  0  0  0  0  0  0  0  0  0  0  0
   20.3860  -30.4560   39.1470 C   0  0  0  0  0  0  0  0  0  0  0  0
   19.9720  -31.7700   39.3690 C   0  0  0  0  0  0  0  0  0  0  0  0
   19.6030  -32.5770   38.2900 C   0  0  0  0  0  0  0  0  0  0  0  0
   19.6470  -32.0690   36.9900 C   0  0  0  0  0  0  0  0  0  0  0  0
   20.0600  -30.7570   36.7710 C   0  0  0  0  0  0  0  0  0  0  0  0
   20.0800  -30.3250   35.4730 O   0  0  0  0  0  0  0  0  0  0  0  0
   20.4300  -29.9520   37.8510 C   0  0  0  0  0  0  0  0  0  0  0  0
   20.8700  -28.5680   37.6650 C   0  0  0  0  0  0  0  0  0  0  0  0
   20.9290  -28.0480   36.5520 O   0  0  0  0  0  0  0  0  0  0  0  0
   21.2460  -27.8000   38.8740 C   0  0  0  0  0  0  0  0  0  0  0  0
   21.6460  -26.4900   38.6880 O   0  0  0  0  0  0  0  0  0  0  0  0
   20.6360  -26.8120   41.9410 C   0  0  0  0  0  0  0  0  0  0  0  0
   20.9850  -26.1770   43.1350 C   0  0  0  0  0  0  0  0  0  0  0  0
   22.2150  -26.4400   43.7630 C   0  0  0  0  0  0  0  0  0  0  0  0
   22.5240  -25.7230   45.0580 C   0  0  0  0  0  0  0  0  0  0  0  0
   21.5050  -24.6360   45.3660 C   0  0  0  0  0  0  0  0  0  0  0  0
   25.6186  -29.1026   44.7952 H   0  0  0  0  0  0  0  0  0  0  0  0
   23.8580  -29.6777   44.3481 H   0  0  0  0  0  0  0  0  0  0  0  0
   25.1837  -26.9487   43.8005 H   0  0  0  0  0  0  0  0  0  0  0  0
   23.4197  -28.7189   41.5096 H   0  0  0  0  0  0  0  0  0  0  0  0
   19.9362  -32.1701   40.3930 H   0  0  0  0  0  0  0  0  0  0  0  0
   19.2776  -33.6132   38.4645 H   0  0  0  0  0  0  0  0  0  0  0  0
   19.3559  -32.7040   36.1403 H   0  0  0  0  0  0  0  0  0  0  0  0
   20.8700  -30.3780   34.9740 H   0  0  0  0  0  0  0  0  0  0  0  0
   22.0070  -26.0050   39.4050 H   0  0  0  0  0  0  0  0  0  0  0  0
   19.6726  -26.5809   41.4631 H   0  0  0  0  0  0  0  0  0  0  0  0
   20.2866  -25.4599   43.5911 H   0  0  0  0  0  0  0  0  0  0  0  0
   22.5208  -26.4554   45.8787 H   0  0  0  0  0  0  0  0  0  0  0  0
   23.5093  -25.2450   44.9545 H   0  0  0  0  0  0  0  0  0  0  0  0
   21.4030  -24.5272   46.4558 H   0  0  0  0  0  0  0  0  0  0  0  0
   21.8429  -23.6832   44.9324 H   0  0  0  0  0  0  0  0  0  0  0  0
   20.5324  -24.9117   44.9324 H   0  0  0  0  0  0  0  0  0  0  0  0
  1  2  2  0
  2  3  1  0
  3  4  2  0
  4  5  1  0
  5  6  1  0
  6  7  1  0
  7  8  1  0
  8  9  2  0
  9 10  1  0
 10 11  2  0
 11 12  1  0
 12 13  1  0
 12 14  2  0
 14 15  1  0
 15 16  2  0
 15 17  1  0
 17 18  1  0
  5 19  2  0
 19 20  1  0
 20 21  2  0
 21 22  1  0
 22 23  1  0
 21  3  1  0
 17  6  2  0
 14  8  1  0
  1 24  1  0
  1 25  1  0
  2 26  1  0
  4 27  1  0
  9 28  1  0
 10 29  1  0
 11 30  1  0
 13 31  1  0
 18 32  1  0
 19 33  1  0
 20 34  1  0
 22 35  1  0
 22 36  1  0
 23 37  1  0
 23 38  1  0
 23 39  1  0
M  END
>  <meeko>  (6) 
{"is_sidechain": [false], "free_energy": -8.606, "intermolecular_energy": -10.612, "internal_energy": -0.605}

$$$$
cand_046_out
     RDKit          3D

 39 41  0  0  0  0  0  0  0  0999 V2000
   18.2190  -32.5520   39.4010 C   0  0  0  0  0  0  0  0  0  0  0  0
   19.4440  -32.5360   38.8610 C   0  0  0  0  0  0  0  0  0  0  0  0
   20.2150  -31.3010   38.6500 C   0  0  0  0  0  0  0  0  0  0  0  0
   20.7110  -30.6070   39.7690 C   0  0  0  0  0  0  0  0  0  0  0  0
   21.4830  -29.4440   39.6320 C   0  0  0  0  0  0  0  0  0  0  0  0
   21.9580  -28.7300   40.8380 C   0  0  0  0  0  0  0  0  0  0  0  0
   21.1390  -27.6630   41.1900 O   0  0  0  0  0  0  0  0  0  0  0  0
   21.4630  -26.9150   42.2920 C   0  0  0  0  0  0  0  0  0  0  0  0
   20.6220  -25.8450   42.6000 C   0  0  0  0  0  0  0  0  0  0  0  0
   20.8930  -25.0420   43.7120 C   0  0  0  0  0  0  0  0  0  0  0  0
   22.0040  -25.3120   44.5140 C   0  0  0  0  0  0  0  0  0  0  0  0
   22.8410  -26.3810   44.2040 C   0  0  0  0  0  0  0  0  0  0  0  0
   23.9120  -26.5870   45.0320 O   0  0  0  0  0  0  0  0  0  0  0  0
   22.5700  -27.1810   43.0910 C   0  0  0  0  0  0  0  0  0  0  0  0
   23.4240  -28.3140   42.7300 C   0  0  0  0  0  0  0  0  0  0  0  0
   24.4160  -28.6170   43.3910 O   0  0  0  0  0  0  0  0  0  0  0  0
   23.0530  -29.0960   41.5290 C   0  0  0  0  0  0  0  0  0  0  0  0
   23.8580  -30.1720   41.2050 O   0  0  0  0  0  0  0  0  0  0  0  0
   21.7510  -28.9710   38.3440 C   0  0  0  0  0  0  0  0  0  0  0  0
   21.2740  -29.6540   37.2230 C   0  0  0  0  0  0  0  0  0  0  0  0
   20.5030  -30.8220   37.3570 C   0  0  0  0  0  0  0  0  0  0  0  0
   20.0270  -31.5140   36.0990 C   0  0  0  0  0  0  0  0  0  0  0  0
   20.6760  -30.9360   34.8500 C   0  0  0  0  0  0  0  0  0  0  0  0
   17.6893  -33.5068   39.5348 H   0  0  0  0  0  0  0  0  0  0  0  0
   17.7422  -31.6104   39.7109 H   0  0  0  0  0  0  0  0  0  0  0  0
   19.8959  -33.4928   38.5605 H   0  0  0  0  0  0  0  0  0  0  0  0
   20.4876  -30.9863   40.7771 H   0  0  0  0  0  0  0  0  0  0  0  0
   19.7466  -25.6334   41.9685 H   0  0  0  0  0  0  0  0  0  0  0  0
   20.2312  -24.1977   43.9552 H   0  0  0  0  0  0  0  0  0  0  0  0
   22.2177  -24.6811   45.3894 H   0  0  0  0  0  0  0  0  0  0  0  0
   23.8250  -27.1470   45.7770 H   0  0  0  0  0  0  0  0  0  0  0  0
   23.5230  -30.8630   40.6680 H   0  0  0  0  0  0  0  0  0  0  0  0
   22.3426  -28.0530   38.2123 H   0  0  0  0  0  0  0  0  0  0  0  0
   21.5055  -29.2715   36.2180 H   0  0  0  0  0  0  0  0  0  0  0  0
   20.2759  -32.5834   36.1661 H   0  0  0  0  0  0  0  0  0  0  0  0
   18.9405  -31.3626   36.0184 H   0  0  0  0  0  0  0  0  0  0  0  0
   21.4681  -30.2305   35.1414 H   0  0  0  0  0  0  0  0  0  0  0  0
   21.1119  -31.7505   34.2529 H   0  0  0  0  0  0  0  0  0  0  0  0
   19.9172  -30.4091   34.2529 H   0  0  0  0  0  0  0  0  0  0  0  0
  1  2  2  0
  2  3  1  0
  3  4  2  0
  4  5  1  0
  5  6  1  0
  6  7  1  0
  7  8  1  0
  8  9  2  0
  9 10  1  0
 10 11  2  0
 11 12  1  0
 12 13  1  0
 12 14  2  0
 14 15  1  0
 15 16  2  0
 15 17  1  0
 17 18  1  0
  5 19  2  0
 19 20  1  0
 20 21  2  0
 21 22  1  0
 22 23  1  0
 21  3  1  0
 17  6  2  0
 14  8  1  0
  1 24  1  0
  1 25  1  0
  2 26  1  0
  4 27  1  0
  9 28  1  0
 10 29  1  0
 11 30  1  0
 13 31  1  0
 18 32  1  0
 19 33  1  0
 20 34  1  0
 22 35  1  0
 22 36  1  0
 23 37  1  0
 23 38  1  0
 23 39  1  0
M  END
>  <meeko>  (7) 
{"is_sidechain": [false], "free_energy": -8.58, "intermolecular_energy": -10.562, "internal_energy": -0.622}

$$$$
cand_046_out
     RDKit          3D

 39 41  0  0  0  0  0  0  0  0999 V2000
   18.7240  -25.7670   39.6350 C   0  0  0  0  0  0  0  0  0  0  0  0
   18.9240  -26.8130   40.4460 C   0  0  0  0  0  0  0  0  0  0  0  0
   19.9360  -27.8490   40.1920 C   0  0  0  0  0  0  0  0  0  0  0  0
   19.6390  -28.8860   39.2880 C   0  0  0  0  0  0  0  0  0  0  0  0
   20.5740  -29.8830   38.9760 C   0  0  0  0  0  0  0  0  0  0  0  0
   20.2070  -30.9710   38.0440 C   0  0  0  0  0  0  0  0  0  0  0  0
   20.5760  -30.7040   36.7300 O   0  0  0  0  0  0  0  0  0  0  0  0
   20.2960  -31.6320   35.7610 C   0  0  0  0  0  0  0  0  0  0  0  0
   20.6720  -31.3170   34.4550 C   0  0  0  0  0  0  0  0  0  0  0  0
   20.4180  -32.2200   33.4190 C   0  0  0  0  0  0  0  0  0  0  0  0
   19.7910  -33.4370   33.6910 C   0  0  0  0  0  0  0  0  0  0  0  0
   19.4170  -33.7500   34.9960 C   0  0  0  0  0  0  0  0  0  0  0  0
   18.8050  -34.9580   35.1910 O   0  0  0  0  0  0  0  0  0  0  0  0
   19.6700  -32.8450   36.0300 C   0  0  0  0  0  0  0  0  0  0  0  0
   19.2940  -33.1340   37.4160 C   0  0  0  0  0  0  0  0  0  0  0  0
   18.7440  -34.1860   37.7340 O   0  0  0  0  0  0  0  0  0  0  0  0
   19.6010  -32.1070   38.4370 C   0  0  0  0  0  0  0  0  0  0  0  0
   19.2550  -32.3960   39.7440 O   0  0  0  0  0  0  0  0  0  0  0  0
   21.8280  -29.8350   39.5940 C   0  0  0  0  0  0  0  0  0  0  0  0
   22.1420  -28.8080   40.4850 C   0  0  0  0  0  0  0  0  0  0  0  0
   21.2080  -27.8050   40.7970 C   0  0  0  0  0  0  0  0  0  0  0  0
   21.6200  -26.7180   41.7640 C   0  0  0  0  0  0  0  0  0  0  0  0
   22.0320  -27.2840   43.1150 C   0  0  0  0  0  0  0  0  0  0  0  0
   17.9510  -25.0230   39.8775 H   0  0  0  0  0  0  0  0  0  0  0  0
   19.3327  -25.6515   38.7261 H   0  0  0  0  0  0  0  0  0  0  0  0
   18.3001  -26.9020   41.3475 H   0  0  0  0  0  0  0  0  0  0  0  0
   18.6470  -28.9150   38.8137 H   0  0  0  0  0  0  0  0  0  0  0  0
   21.1679  -30.3588   34.2408 H   0  0  0  0  0  0  0  0  0  0  0  0
   20.7124  -31.9715   32.3887 H   0  0  0  0  0  0  0  0  0  0  0  0
   19.5924  -34.1483   32.8758 H   0  0  0  0  0  0  0  0  0  0  0  0
   18.5700  -35.2290   36.0550 H   0  0  0  0  0  0  0  0  0  0  0  0
   19.0240  -31.7030   40.3310 H   0  0  0  0  0  0  0  0  0  0  0  0
   22.5734  -30.6139   39.3756 H   0  0  0  0  0  0  0  0  0  0  0  0
   23.1379  -28.7829   40.9514 H   0  0  0  0  0  0  0  0  0  0  0  0
   22.4695  -26.1654   41.3363 H   0  0  0  0  0  0  0  0  0  0  0  0
   20.7548  -26.0573   41.9217 H   0  0  0  0  0  0  0  0  0  0  0  0
   21.5894  -26.6759   43.9177 H   0  0  0  0  0  0  0  0  0  0  0  0
   21.6761  -28.3212   43.2020 H   0  0  0  0  0  0  0  0  0  0  0  0
   23.1284  -27.2641   43.2020 H   0  0  0  0  0  0  0  0  0  0  0  0
  1  2  2  0
  2  3  1  0
  3  4  2  0
  4  5  1  0
  5  6  1  0
  6  7  1  0
  7  8  1  0
  8  9  2  0
  9 10  1  0
 10 11  2  0
 11 12  1  0
 12 13  1  0
 12 14  2  0
 14 15  1  0
 15 16  2  0
 15 17  1  0
 17 18  1  0
  5 19  2  0
 19 20  1  0
 20 21  2  0
 21 22  1  0
 22 23  1  0
 21  3  1  0
 17  6  2  0
 14  8  1  0
  1 24  1  0
  1 25  1  0
  2 26  1  0
  4 27  1  0
  9 28  1  0
 10 29  1  0
 11 30  1  0
 13 31  1  0
 18 32  1  0
 19 33  1  0
 20 34  1  0
 22 35  1  0
 22 36  1  0
 23 37  1  0
 23 38  1  0
 23 39  1  0
M  END
>  <meeko>  (8) 
{"is_sidechain": [false], "free_energy": -8.287, "intermolecular_energy": -10.174, "internal_energy": -0.65}

$$$$
cand_046_out
     RDKit          3D

 39 41  0  0  0  0  0  0  0  0999 V2000
   20.0790  -29.7020   34.7560 C   0  0  0  0  0  0  0  0  0  0  0  0
   20.7500  -30.5730   35.5200 C   0  0  0  0  0  0  0  0  0  0  0  0
   20.5300  -30.7120   36.9680 C   0  0  0  0  0  0  0  0  0  0  0  0
   20.9900  -29.6980   37.8280 C   0  0  0  0  0  0  0  0  0  0  0  0
   20.7800  -29.7540   39.2140 C   0  0  0  0  0  0  0  0  0  0  0  0
   21.3070  -28.6800   40.0820 C   0  0  0  0  0  0  0  0  0  0  0  0
   22.2710  -29.1330   40.9760 O   0  0  0  0  0  0  0  0  0  0  0  0
   22.8470  -28.2380   41.8400 C   0  0  0  0  0  0  0  0  0  0  0  0
   23.7990  -28.7390   42.7290 C   0  0  0  0  0  0  0  0  0  0  0  0
   24.4260  -27.8800   43.6360 C   0  0  0  0  0  0  0  0  0  0  0  0
   24.1010  -26.5220   43.6520 C   0  0  0  0  0  0  0  0  0  0  0  0
   23.1500  -26.0250   42.7640 C   0  0  0  0  0  0  0  0  0  0  0  0
   22.8790  -24.6850   42.8350 O   0  0  0  0  0  0  0  0  0  0  0  0
   22.5230  -26.8850   41.8580 C   0  0  0  0  0  0  0  0  0  0  0  0
   21.5190  -26.4040   40.9080 C   0  0  0  0  0  0  0  0  0  0  0  0
   21.1840  -25.2220   40.8580 O   0  0  0  0  0  0  0  0  0  0  0  0
   20.9090  -27.3970   39.9940 C   0  0  0  0  0  0  0  0  0  0  0  0
   19.9720  -26.9290   39.0910 O   0  0  0  0  0  0  0  0  0  0  0  0
   20.1020  -30.8580   39.7380 C   0  0  0  0  0  0  0  0  0  0  0  0
   19.6300  -31.8690   38.8980 C   0  0  0  0  0  0  0  0  0  0  0  0
   19.8360  -31.8130   37.5080 C   0  0  0  0  0  0  0  0  0  0  0  0
   19.2920  -32.9380   36.6580 C   0  0  0  0  0  0  0  0  0  0  0  0
   18.5950  -34.0010   37.4960 C   0  0  0  0  0  0  0  0  0  0  0  0
   20.2866  -29.6427   33.6774 H   0  0  0  0  0  0  0  0  0  0  0  0
   19.3201  -29.0456   35.2069 H   0  0  0  0  0  0  0  0  0  0  0  0
   21.5030  -31.2164   35.0414 H   0  0  0  0  0  0  0  0  0  0  0  0
   21.5286  -28.8385   37.4024 H   0  0  0  0  0  0  0  0  0  0  0  0
   24.0556  -29.8086   42.7159 H   0  0  0  0  0  0  0  0  0  0  0  0
   25.1760  -28.2740   44.3377 H   0  0  0  0  0  0  0  0  0  0  0  0
   24.5954  -25.8457   44.3649 H   0  0  0  0  0  0  0  0  0  0  0  0
   23.0370  -24.2180   43.6300 H   0  0  0  0  0  0  0  0  0  0  0  0
   19.8560  -26.0070   38.9730 H   0  0  0  0  0  0  0  0  0  0  0  0
   19.9384  -30.9314   40.8233 H   0  0  0  0  0  0  0  0  0  0  0  0
   19.0883  -32.7230   39.3307 H   0  0  0  0  0  0  0  0  0  0  0  0
   18.5702  -32.5228   35.9392 H   0  0  0  0  0  0  0  0  0  0  0  0
   20.1390  -33.4138   36.1420 H   0  0  0  0  0  0  0  0  0  0  0  0
   18.7401  -33.7796   38.5637 H   0  0  0  0  0  0  0  0  0  0  0  0
   17.5196  -34.0032   37.2649 H   0  0  0  0  0  0  0  0  0  0  0  0
   19.0217  -34.9882   37.2649 H   0  0  0  0  0  0  0  0  0  0  0  0
  1  2  2  0
  2  3  1  0
  3  4  2  0
  4  5  1  0
  5  6  1  0
  6  7  1  0
  7  8  1  0
  8  9  2  0
  9 10  1  0
 10 11  2  0
 11 12  1  0
 12 13  1  0
 12 14  2  0
 14 15  1  0
 15 16  2  0
 15 17  1  0
 17 18  1  0
  5 19  2  0
 19 20  1  0
 20 21  2  0
 21 22  1  0
 22 23  1  0
 21  3  1  0
 17  6  2  0
 14  8  1  0
  1 24  1  0
  1 25  1  0
  2 26  1  0
  4 27  1  0
  9 28  1  0
 10 29  1  0
 11 30  1  0
 13 31  1  0
 18 32  1  0
 19 33  1  0
 20 34  1  0
 22 35  1  0
 22 36  1  0
 23 37  1  0
 23 38  1  0
 23 39  1  0
M  END
>  <meeko>  (9) 
{"is_sidechain": [false], "free_energy": -8.076, "intermolecular_energy": -10.083, "internal_energy": -0.481}

$$$$
