cand_035_out
     RDKit          3D

 36 38  0  0  0  0  0  0  0  0999 V2000
   24.8490  -31.0030   43.1160 C   0  0  0  0  0  0  0  0  0  0  0  0
   24.8350  -29.7110   42.7670 C   0  0  0  0  0  0  0  0  0  0  0  0
   23.6760  -29.1000   42.1090 C   0  0  0  0  0  0  0  0  0  0  0  0
   23.0500  -29.8220   41.0790 C   0  0  0  0  0  0  0  0  0  0  0  0
   21.9360  -29.3070   40.4000 C   0  0  0  0  0  0  0  0  0  0  0  0
   21.3190  -30.0820   39.3040 C   0  0  0  0  0  0  0  0  0  0  0  0
   20.5230  -31.1260   39.7630 O   0  0  0  0  0  0  0  0  0  0  0  0
   19.8890  -31.9280   38.8490 C   0  0  0  0  0  0  0  0  0  0  0  0
   19.1110  -32.9720   39.3520 C   0  0  0  0  0  0  0  0  0  0  0  0
   18.4370  -33.8240   38.4750 C   0  0  0  0  0  0  0  0  0  0  0  0
   18.5410  -33.6330   37.0960 C   0  0  0  0  0  0  0  0  0  0  0  0
   19.3180  -32.5910   36.5960 C   0  0  0  0  0  0  0  0  0  0  0  0
   19.3740  -32.4610   35.2350 O   0  0  0  0  0  0  0  0  0  0  0  0
   19.9920  -31.7380   37.4740 C   0  0  0  0  0  0  0  0  0  0  0  0
   20.8180  -30.6310   36.9890 C   0  0  0  0  0  0  0  0  0  0  0  0
   20.9530  -30.3940   35.7920 O   0  0  0  0  0  0  0  0  0  0  0  0
   21.4970  -29.7900   38.0030 C   0  0  0  0  0  0  0  0  0  0  0  0
   22.2630  -28.7380   37.5370 O   0  0  0  0  0  0  0  0  0  0  0  0
   21.4650  -28.0390   40.7610 C   0  0  0  0  0  0  0  0  0  0  0  0
   22.0810  -27.3120   41.7840 C   0  0  0  0  0  0  0  0  0  0  0  0
   23.1890  -27.8320   42.4700 C   0  0  0  0  0  0  0  0  0  0  0  0
   23.8310  -27.0220   43.5680 C   0  0  0  0  0  0  0  0  0  0  0  0
   24.5810  -25.9780   43.1050 F   0  0  0  0  0  0  0  0  0  0  0  0
   25.7351  -31.4301   43.6084 H   0  0  0  0  0  0  0  0  0  0  0  0
   23.9745  -31.6378   42.9104 H   0  0  0  0  0  0  0  0  0  0  0  0
   25.7178  -29.0902   42.9798 H   0  0  0  0  0  0  0  0  0  0  0  0
   23.4415  -30.8112   40.7994 H   0  0  0  0  0  0  0  0  0  0  0  0
   19.0290  -33.1234   40.4384 H   0  0  0  0  0  0  0  0  0  0  0  0
   17.8234  -34.6466   38.8710 H   0  0  0  0  0  0  0  0  0  0  0  0
   18.0100  -34.3046   36.4053 H   0  0  0  0  0  0  0  0  0  0  0  0
   18.5900  -32.3060   34.7460 H   0  0  0  0  0  0  0  0  0  0  0  0
   23.0420  -28.9080   37.0440 H   0  0  0  0  0  0  0  0  0  0  0  0
   20.6003  -27.6098   40.2337 H   0  0  0  0  0  0  0  0  0  0  0  0
   21.6919  -26.3193   42.0546 H   0  0  0  0  0  0  0  0  0  0  0  0
   23.0370  -26.6209   44.2151 H   0  0  0  0  0  0  0  0  0  0  0  0
   24.5111  -27.6941   44.1119 H   0  0  0  0  0  0  0  0  0  0  0  0
  1  2  2  0
  2  3  1  0
  3  4  2  0
  4  5  1  0
  5  6  1  0
  6  7  1  0
  7  8  1  0
  8  9  2  0
  9 10  1  0
 10 11  2  0
 11 12  1  0
 12 13  1  0
 12 14  2  0
 14 15  1  0
 15 16  2  0
 15 17  1  0
 17 18  1  0
  5 19  2  0
 19 20  1  0
 20 21  2  0
 21 22  1  0
 22 23  1  0
 21  3  1  0
 17  6  2  0
 14  8  1  0
  1 24  1  0
  1 25  1  0
  2 26  1  0
  4 27  1  0
  9 28  1  0
 10 29  1  0
 11 30  1  0
 13 31  1  0
 18 32  1  0
 19 33  1  0
 20 34  1  0
 22 35  1  0
 22 36  1  0
M  END
>  <meeko>  (1) 
{"is_sidechain": [false], "free_energy": -9.23, "intermolecular_energy": -11.388, "internal_energy": -0.532}

$$$$
cand_035_out
     RDKit          3D

 36 38  0  0  0  0  0  0  0  0999 V2000
   19.8880  -26.2310   42.3000 C   0  0  0  0  0  0  0  0  0  0  0  0
   21.2180  -26.3390   42.3980 C   0  0  0  0  0  0  0  0  0  0  0  0
   21.9350  -27.5270   41.9240 C   0  0  0  0  0  0  0  0  0  0  0  0
   21.3660  -28.2590   40.8680 C   0  0  0  0  0  0  0  0  0  0  0  0
   21.9890  -29.4070   40.3570 C   0  0  0  0  0  0  0  0  0  0  0  0
   21.3480  -30.1680   39.2640 C   0  0  0  0  0  0  0  0  0  0  0  0
   20.5640  -31.2190   39.7260 O   0  0  0  0  0  0  0  0  0  0  0  0
   19.9100  -32.0090   38.8150 C   0  0  0  0  0  0  0  0  0  0  0  0
   19.1460  -33.0610   39.3210 C   0  0  0  0  0  0  0  0  0  0  0  0
   18.4530  -33.9020   38.4470 C   0  0  0  0  0  0  0  0  0  0  0  0
   18.5250  -33.6910   37.0690 C   0  0  0  0  0  0  0  0  0  0  0  0
   19.2890  -32.6400   36.5670 C   0  0  0  0  0  0  0  0  0  0  0  0
   19.3130  -32.4900   35.2070 O   0  0  0  0  0  0  0  0  0  0  0  0
   19.9820  -31.7990   37.4410 C   0  0  0  0  0  0  0  0  0  0  0  0
   20.7950  -30.6840   36.9540 C   0  0  0  0  0  0  0  0  0  0  0  0
   20.9010  -30.4290   35.7570 O   0  0  0  0  0  0  0  0  0  0  0  0
   21.4950  -29.8560   37.9640 C   0  0  0  0  0  0  0  0  0  0  0  0
   22.2490  -28.7960   37.4960 O   0  0  0  0  0  0  0  0  0  0  0  0
   23.1930  -29.8230   40.9360 C   0  0  0  0  0  0  0  0  0  0  0  0
   23.7670  -29.1020   41.9870 C   0  0  0  0  0  0  0  0  0  0  0  0
   23.1500  -27.9480   42.4910 C   0  0  0  0  0  0  0  0  0  0  0  0
   23.7950  -27.1940   43.6260 C   0  0  0  0  0  0  0  0  0  0  0  0
   24.5510  -26.1340   43.2130 F   0  0  0  0  0  0  0  0  0  0  0  0
   19.3813  -25.3257   42.6656 H   0  0  0  0  0  0  0  0  0  0  0  0
   19.3013  -27.0475   41.8538 H   0  0  0  0  0  0  0  0  0  0  0  0
   21.7897  -25.5133   42.8468 H   0  0  0  0  0  0  0  0  0  0  0  0
   20.4124  -27.9248   40.4332 H   0  0  0  0  0  0  0  0  0  0  0  0
   19.0894  -33.2280   40.4068 H   0  0  0  0  0  0  0  0  0  0  0  0
   17.8499  -34.7314   38.8451 H   0  0  0  0  0  0  0  0  0  0  0  0
   17.9794  -34.3534   36.3809 H   0  0  0  0  0  0  0  0  0  0  0  0
   19.9930  -31.9870   34.8020 H   0  0  0  0  0  0  0  0  0  0  0  0
   22.1550  -27.9470   37.8820 H   0  0  0  0  0  0  0  0  0  0  0  0
   23.6934  -30.7275   40.5599 H   0  0  0  0  0  0  0  0  0  0  0  0
   24.7161  -29.4447   42.4249 H   0  0  0  0  0  0  0  0  0  0  0  0
   23.0025  -26.8192   44.2904 H   0  0  0  0  0  0  0  0  0  0  0  0
   24.4707  -27.8945   44.1386 H   0  0  0  0  0  0  0  0  0  0  0  0
  1  2  2  0
  2  3  1  0
  3  4  2  0
  4  5  1  0
  5  6  1  0
  6  7  1  0
  7  8  1  0
  8  9  2  0
  9 10  1  0
 10 11  2  0
 11 12  1  0
 12 13  1  0
 12 14  2  0
 14 15  1  0
 15 16  2  0
 15 17  1  0
 17 18  1  0
  5 19  2  0
 19 20  1  0
 20 21  2  0
 21 22  1  0
 22 23  1  0
 21  3  1  0
 17  6  2  0
 14  8  1  0
  1 24  1  0
  1 25  1  0
  2 26  1  0
  4 27  1  0
  9 28  1  0
 10 29  1  0
 11 30  1  0
 13 31  1  0
 18 32  1  0
 19 33  1  0
 20 34  1  0
 22 35  1  0
 22 36  1  0
M  END
>  <meeko>  (2) 
{"is_sidechain": [false], "free_energy": -9.014, "intermolecular_energy": -11.066, "internal_energy": -0.588}

$$$$
cand_035_out
     RDKit          3D

 36 38  0  0  0  0  0  0  0  0999 V2000
   18.8880  -33.2140   39.7160 C   0  0  0  0  0  0  0  0  0  0  0  0
   18.6040  -32.0620   39.0980 C   0  0  0  0  0  0  0  0  0  0  0  0
   19.6550  -31.1390   38.6590 C   0  0  0  0  0  0  0  0  0  0  0  0
   20.1440  -30.2090   39.5930 C   0  0  0  0  0  0  0  0  0  0  0  0
   21.1480  -29.2910   39.2520 C   0  0  0  0  0  0  0  0  0  0  0  0
   21.6190  -28.3100   40.2510 C   0  0  0  0  0  0  0  0  0  0  0  0
   22.4830  -28.8650   41.1890 O   0  0  0  0  0  0  0  0  0  0  0  0
   22.9950  -28.0630   42.1760 C   0  0  0  0  0  0  0  0  0  0  0  0
   23.8470  -28.6650   43.1030 C   0  0  0  0  0  0  0  0  0  0  0  0
   24.4040  -27.9040   44.1330 C   0  0  0  0  0  0  0  0  0  0  0  0
   24.1100  -26.5420   44.2350 C   0  0  0  0  0  0  0  0  0  0  0  0
   23.2600  -25.9450   43.3080 C   0  0  0  0  0  0  0  0  0  0  0  0
   23.0160  -24.6080   43.4670 O   0  0  0  0  0  0  0  0  0  0  0  0
   22.7020  -26.7070   42.2780 C   0  0  0  0  0  0  0  0  0  0  0  0
   21.8040  -26.1170   41.2840 C   0  0  0  0  0  0  0  0  0  0  0  0
   21.5040  -24.9260   41.3020 O   0  0  0  0  0  0  0  0  0  0  0  0
   21.2610  -27.0130   40.2370 C   0  0  0  0  0  0  0  0  0  0  0  0
   20.4260  -26.4450   39.2930 O   0  0  0  0  0  0  0  0  0  0  0  0
   21.6490  -29.3090   37.9450 C   0  0  0  0  0  0  0  0  0  0  0  0
   21.1700  -30.2300   37.0090 C   0  0  0  0  0  0  0  0  0  0  0  0
   20.1730  -31.1550   37.3520 C   0  0  0  0  0  0  0  0  0  0  0  0
   19.6770  -32.1340   36.3180 C   0  0  0  0  0  0  0  0  0  0  0  0
   20.0560  -31.8170   35.0450 F   0  0  0  0  0  0  0  0  0  0  0  0
   18.0746  -33.8836   40.0322 H   0  0  0  0  0  0  0  0  0  0  0  0
   19.9349  -33.4916   39.9079 H   0  0  0  0  0  0  0  0  0  0  0  0
   17.5517  -31.7998   38.9140 H   0  0  0  0  0  0  0  0  0  0  0  0
   19.7306  -30.2012   40.6123 H   0  0  0  0  0  0  0  0  0  0  0  0
   24.0794  -29.7371   43.0225 H   0  0  0  0  0  0  0  0  0  0  0  0
   25.0750  -28.3775   44.8648 H   0  0  0  0  0  0  0  0  0  0  0  0
   24.5492  -25.9426   45.0461 H   0  0  0  0  0  0  0  0  0  0  0  0
   22.1370  -24.2840   43.4360 H   0  0  0  0  0  0  0  0  0  0  0  0
   20.2610  -25.5220   39.3080 H   0  0  0  0  0  0  0  0  0  0  0  0
   22.4283  -28.5904   37.6513 H   0  0  0  0  0  0  0  0  0  0  0  0
   21.5809  -30.2293   35.9886 H   0  0  0  0  0  0  0  0  0  0  0  0
   20.0744  -33.1302   36.5622 H   0  0  0  0  0  0  0  0  0  0  0  0
   18.5777  -32.1065   36.3458 H   0  0  0  0  0  0  0  0  0  0  0  0
  1  2  2  0
  2  3  1  0
  3  4  2  0
  4  5  1  0
  5  6  1  0
  6  7  1  0
  7  8  1  0
  8  9  2  0
  9 10  1  0
 10 11  2  0
 11 12  1  0
 12 13  1  0
 12 14  2  0
 14 15  1  0
 15 16  2  0
 15 17  1  0
 17 18  1  0
  5 19  2  0
 19 20  1  0
 20 21  2  0
 21 22  1  0
 22 23  1  0
 21  3  1  0
 17  6  2  0
 14  8  1  0
  1 24  1  0
  1 25  1  0
  2 26  1  0
  4 27  1  0
  9 28  1  0
 10 29  1  0
 11 30  1  0
 13 31  1  0
 18 32  1  0
 19 33  1  0
 20 34  1  0
 22 35  1  0
 22 36  1  0
M  END
>  <meeko>  (3) 
{"is_sidechain": [false], "free_energy": -8.66, "intermolecular_energy": -10.734, "internal_energy": -0.484}

$$$$
cand_035_out
     RDKit          3D

 36 38  0  0  0  0  0  0  0  0999 V2000
   19.1220  -32.6860   39.7650 C   0  0  0  0  0  0  0  0  0  0  0  0
   19.2790  -31.9900   38.6330 C   0  0  0  0  0  0  0  0  0  0  0  0
   20.2670  -30.9130   38.5170 C   0  0  0  0  0  0  0  0  0  0  0  0
   20.7070  -30.2970   39.7010 C   0  0  0  0  0  0  0  0  0  0  0  0
   21.6510  -29.2580   39.6760 C   0  0  0  0  0  0  0  0  0  0  0  0
   22.0700  -28.6150   40.9390 C   0  0  0  0  0  0  0  0  0  0  0  0
   21.2610  -27.5400   41.2910 O   0  0  0  0  0  0  0  0  0  0  0  0
   21.5390  -26.8510   42.4440 C   0  0  0  0  0  0  0  0  0  0  0  0
   20.7110  -25.7720   42.7530 C   0  0  0  0  0  0  0  0  0  0  0  0
   20.9380  -25.0290   43.9140 C   0  0  0  0  0  0  0  0  0  0  0  0
   21.9930  -25.3660   44.7650 C   0  0  0  0  0  0  0  0  0  0  0  0
   22.8180  -26.4440   44.4540 C   0  0  0  0  0  0  0  0  0  0  0  0
   23.8300  -26.7190   45.3330 O   0  0  0  0  0  0  0  0  0  0  0  0
   22.5900  -27.1870   43.2930 C   0  0  0  0  0  0  0  0  0  0  0  0
   23.4340  -28.3270   42.9300 C   0  0  0  0  0  0  0  0  0  0  0  0
   24.3750  -28.6900   43.6310 O   0  0  0  0  0  0  0  0  0  0  0  0
   23.1120  -29.0430   41.6740 C   0  0  0  0  0  0  0  0  0  0  0  0
   23.9040  -30.1280   41.3470 O   0  0  0  0  0  0  0  0  0  0  0  0
   22.1380  -28.8330   38.4360 C   0  0  0  0  0  0  0  0  0  0  0  0
   21.7070  -29.4390   37.2520 C   0  0  0  0  0  0  0  0  0  0  0  0
   20.7720  -30.4840   37.2770 C   0  0  0  0  0  0  0  0  0  0  0  0
   20.3260  -31.1160   35.9830 C   0  0  0  0  0  0  0  0  0  0  0  0
   21.2670  -31.0500   34.9950 F   0  0  0  0  0  0  0  0  0  0  0  0
   18.3710  -33.4880   39.8179 H   0  0  0  0  0  0  0  0  0  0  0  0
   19.7439  -32.4562   40.6427 H   0  0  0  0  0  0  0  0  0  0  0  0
   18.6488  -32.2328   37.7647 H   0  0  0  0  0  0  0  0  0  0  0  0
   20.3037  -30.6357   40.6668 H   0  0  0  0  0  0  0  0  0  0  0  0
   19.8800  -25.5063   42.0831 H   0  0  0  0  0  0  0  0  0  0  0  0
   20.2853  -24.1779   44.1582 H   0  0  0  0  0  0  0  0  0  0  0  0
   22.1719  -24.7810   45.6792 H   0  0  0  0  0  0  0  0  0  0  0  0
   24.7150  -26.7650   45.0290 H   0  0  0  0  0  0  0  0  0  0  0  0
   24.4770  -30.5000   41.9890 H   0  0  0  0  0  0  0  0  0  0  0  0
   22.8689  -28.0121   38.3915 H   0  0  0  0  0  0  0  0  0  0  0  0
   22.1067  -29.0915   36.2879 H   0  0  0  0  0  0  0  0  0  0  0  0
   20.0939  -32.1742   36.1735 H   0  0  0  0  0  0  0  0  0  0  0  0
   19.4473  -30.5544   35.6330 H   0  0  0  0  0  0  0  0  0  0  0  0
  1  2  2  0
  2  3  1  0
  3  4  2  0
  4  5  1  0
  5  6  1  0
  6  7  1  0
  7  8  1  0
  8  9  2  0
  9 10  1  0
 10 11  2  0
 11 12  1  0
 12 13  1  0
 12 14  2  0
 14 15  1  0
 15 16  2  0
 15 17  1  0
 17 18  1  0
  5 19  2  0
 19 20  1  0
 20 21  2  0
 21 22  1  0
 22 23  1  0
 21  3  1  0
 17  6  2  0
 14  8  1  0
  1 24  1  0
  1 25  1  0
  2 26  1  0
  4 27  1  0
  9 28  1  0
 10 29  1  0
 11 30  1  0
 13 31  1  0
 18 32  1  0
 19 33  1  0
 20 34  1  0
 22 35  1  0
 22 36  1  0
M  END
>  <meeko>  (4) 
{"is_sidechain": [false], "free_energy": -8.482, "intermolecular_energy": -10.453, "internal_energy": -0.544}

$$$$
cand_035_out
     RDKit          3D

 36 38  0  0  0  0  0  0  0  0999 V2000
   24.5830  -28.8420   44.3230 C   0  0  0  0  0  0  0  0  0  0  0  0
   24.3470  -27.6590   43.7460 C   0  0  0  0  0  0  0  0  0  0  0  0
   23.0480  -27.3330   43.1500 C   0  0  0  0  0  0  0  0  0  0  0  0
   22.6930  -27.9820   41.9550 C   0  0  0  0  0  0  0  0  0  0  0  0
   21.4670  -27.7260   41.3220 C   0  0  0  0  0  0  0  0  0  0  0  0
   21.1390  -28.4070   40.0530 C   0  0  0  0  0  0  0  0  0  0  0  0
   20.7210  -29.7210   40.2370 O   0  0  0  0  0  0  0  0  0  0  0  0
   20.3840  -30.4700   39.1390 C   0  0  0  0  0  0  0  0  0  0  0  0
   19.9840  -31.7870   39.3680 C   0  0  0  0  0  0  0  0  0  0  0  0
   19.6260  -32.6030   38.2930 C   0  0  0  0  0  0  0  0  0  0  0  0
   19.6670  -32.1030   36.9900 C   0  0  0  0  0  0  0  0  0  0  0  0
   20.0670  -30.7880   36.7640 C   0  0  0  0  0  0  0  0  0  0  0  0
   20.0830  -30.3630   35.4640 O   0  0  0  0  0  0  0  0  0  0  0  0
   20.4260  -29.9710   37.8400 C   0  0  0  0  0  0  0  0  0  0  0  0
   20.8510  -28.5850   37.6450 C   0  0  0  0  0  0  0  0  0  0  0  0
   20.9060  -28.0700   36.5310 O   0  0  0  0  0  0  0  0  0  0  0  0
   21.2170  -27.8060   38.8510 C   0  0  0  0  0  0  0  0  0  0  0  0
   21.6040  -26.4930   38.6600 O   0  0  0  0  0  0  0  0  0  0  0  0
   20.6040  -26.7890   41.9010 C   0  0  0  0  0  0  0  0  0  0  0  0
   20.9470  -26.1380   43.0880 C   0  0  0  0  0  0  0  0  0  0  0  0
   22.1680  -26.4010   43.7280 C   0  0  0  0  0  0  0  0  0  0  0  0
   22.5090  -25.6810   45.0070 C   0  0  0  0  0  0  0  0  0  0  0  0
   21.4860  -24.9150   45.4880 F   0  0  0  0  0  0  0  0  0  0  0  0
   25.5698  -29.0534   44.7606 H   0  0  0  0  0  0  0  0  0  0  0  0
   23.7903  -29.6038   44.3600 H   0  0  0  0  0  0  0  0  0  0  0  0
   25.1509  -26.9087   43.7178 H   0  0  0  0  0  0  0  0  0  0  0  0
   23.3902  -28.7052   41.5068 H   0  0  0  0  0  0  0  0  0  0  0  0
   19.9507  -32.1819   40.3941 H   0  0  0  0  0  0  0  0  0  0  0  0
   19.3111  -33.6415   38.4730 H   0  0  0  0  0  0  0  0  0  0  0  0
   19.3840  -32.7462   36.1437 H   0  0  0  0  0  0  0  0  0  0  0  0
   20.8520  -29.9590   35.1120 H   0  0  0  0  0  0  0  0  0  0  0  0
   21.0590  -25.9110   38.1660 H   0  0  0  0  0  0  0  0  0  0  0  0
   19.6435  -26.5623   41.4152 H   0  0  0  0  0  0  0  0  0  0  0  0
   20.2504  -25.4089   43.5275 H   0  0  0  0  0  0  0  0  0  0  0  0
   22.7721  -26.4295   45.7689 H   0  0  0  0  0  0  0  0  0  0  0  0
   23.3455  -25.0024   44.7842 H   0  0  0  0  0  0  0  0  0  0  0  0
  1  2  2  0
  2  3  1  0
  3  4  2  0
  4  5  1  0
  5  6  1  0
  6  7  1  0
  7  8  1  0
  8  9  2  0
  9 10  1  0
 10 11  2  0
 11 12  1  0
 12 13  1  0
 12 14  2  0
 14 15  1  0
 15 16  2  0
 15 17  1  0
 17 18  1  0
  5 19  2  0
 19 20  1  0
 20 21  2  0
 21 22  1  0
 22 23  1  0
 21  3  1  0
 17  6  2  0
 14  8  1  0
  1 24  1  0
  1 25  1  0
  2 26  1  0
  4 27  1  0
  9 28  1  0
 10 29  1  0
 11 30  1  0
 13 31  1  0
 18 32  1  0
 19 33  1  0
 20 34  1  0
 22 35  1  0
 22 36  1  0
M  END
>  <meeko>  (5) 
{"is_sidechain": [false], "free_energy": -8.422, "intermolecular_energy": -10.413, "internal_energy": -0.511}

$$$$
cand_035_out
     RDKit          3D

 36 38  0  0  0  0  0  0  0  0999 V2000
   19.9580  -30.2220   34.3790 C   0  0  0  0  0  0  0  0  0  0  0  0
   20.6270  -30.9910   35.2460 C   0  0  0  0  0  0  0  0  0  0  0  0
   20.3040  -31.0080   36.6760 C   0  0  0  0  0  0  0  0  0  0  0  0
   20.6830  -29.8950   37.4470 C   0  0  0  0  0  0  0  0  0  0  0  0
   20.4110  -29.8340   38.8220 C   0  0  0  0  0  0  0  0  0  0  0  0
   20.8480  -28.6600   39.6060 C   0  0  0  0  0  0  0  0  0  0  0  0
   21.8060  -28.9770   40.5630 O   0  0  0  0  0  0  0  0  0  0  0  0
   22.3000  -27.9780   41.3620 C   0  0  0  0  0  0  0  0  0  0  0  0
   23.2500  -28.3430   42.3180 C   0  0  0  0  0  0  0  0  0  0  0  0
   23.7950  -27.3730   43.1630 C   0  0  0  0  0  0  0  0  0  0  0  0
   23.3900  -26.0410   43.0530 C   0  0  0  0  0  0  0  0  0  0  0  0
   22.4410  -25.6810   42.1000 C   0  0  0  0  0  0  0  0  0  0  0  0
   22.0910  -24.3590   42.0460 O   0  0  0  0  0  0  0  0  0  0  0  0
   21.8960  -26.6510   41.2540 C   0  0  0  0  0  0  0  0  0  0  0  0
   20.8980  -26.3130   40.2380 C   0  0  0  0  0  0  0  0  0  0  0  0
   20.4970  -25.1640   40.0750 O   0  0  0  0  0  0  0  0  0  0  0  0
   20.3780  -27.4170   39.3970 C   0  0  0  0  0  0  0  0  0  0  0  0
   19.4470  -27.0870   38.4310 O   0  0  0  0  0  0  0  0  0  0  0  0
   19.7630  -30.9200   39.4200 C   0  0  0  0  0  0  0  0  0  0  0  0
   19.3820  -32.0310   38.6630 C   0  0  0  0  0  0  0  0  0  0  0  0
   19.6440  -32.0890   37.2860 C   0  0  0  0  0  0  0  0  0  0  0  0
   19.2220  -33.3020   36.4970 C   0  0  0  0  0  0  0  0  0  0  0  0
   17.9190  -33.6560   36.7020 F   0  0  0  0  0  0  0  0  0  0  0  0
   20.2267  -30.2337   33.3124 H   0  0  0  0  0  0  0  0  0  0  0  0
   19.1393  -29.5781   34.7329 H   0  0  0  0  0  0  0  0  0  0  0  0
   21.4429  -31.6288   34.8751 H   0  0  0  0  0  0  0  0  0  0  0  0
   21.2031  -29.0555   36.9625 H   0  0  0  0  0  0  0  0  0  0  0  0
   23.5687  -29.3922   42.4057 H   0  0  0  0  0  0  0  0  0  0  0  0
   24.5442  -27.6589   43.9160 H   0  0  0  0  0  0  0  0  0  0  0  0
   23.8200  -25.2776   43.7181 H   0  0  0  0  0  0  0  0  0  0  0  0
   22.5190  -23.7380   42.6020 H   0  0  0  0  0  0  0  0  0  0  0  0
   19.6900  -26.5320   37.7150 H   0  0  0  0  0  0  0  0  0  0  0  0
   19.5508  -30.8991   40.4991 H   0  0  0  0  0  0  0  0  0  0  0  0
   18.8696  -32.8717   39.1535 H   0  0  0  0  0  0  0  0  0  0  0  0
   19.3609  -33.0877   35.4271 H   0  0  0  0  0  0  0  0  0  0  0  0
   19.8443  -34.1430   36.8368 H   0  0  0  0  0  0  0  0  0  0  0  0
  1  2  2  0
  2  3  1  0
  3  4  2  0
  4  5  1  0
  5  6  1  0
  6  7  1  0
  7  8  1  0
  8  9  2  0
  9 10  1  0
 10 11  2  0
 11 12  1  0
 12 13  1  0
 12 14  2  0
 14 15  1  0
 15 16  2  0
 15 17  1  0
 17 18  1  0
  5 19  2  0
 19 20  1  0
 20 21  2  0
 21 22  1  0
 22 23  1  0
 21  3  1  0
 17  6  2  0
 14  8  1  0
  1 24  1  0
  1 25  1  0
  2 26  1  0
  4 27  1  0
  9 28  1  0
 10 29  1  0
 11 30  1  0
 13 31  1  0
 18 32  1  0
 19 33  1  0
 20 34  1  0
 22 35  1  0
 22 36  1  0
M  END
>  <meeko>  (6) 
{"is_sidechain": [false], "free_energy": -7.985, "intermolecular_energy": -9.953, "internal_energy": -0.431}

$$$$
cand_035_out
     RDKit          3D

 36 38  0  0  0  0  0  0  0  0999 V2000
   18.5250  -34.0010   39.5660 C   0  0  0  0  0  0  0  0  0  0  0  0
   18.8070  -33.7800   38.2770 C   0  0  0  0  0  0  0  0  0  0  0  0
   19.5050  -32.5690   37.8340 C   0  0  0  0  0  0  0  0  0  0  0  0
   19.9450  -31.6690   38.8190 C   0  0  0  0  0  0  0  0  0  0  0  0
   20.6200  -30.4870   38.4780 C   0  0  0  0  0  0  0  0  0  0  0  0
   21.0450  -29.5500   39.5390 C   0  0  0  0  0  0  0  0  0  0  0  0
   20.0740  -28.6030   39.8440 O   0  0  0  0  0  0  0  0  0  0  0  0
   20.3390  -27.6700   40.8130 C   0  0  0  0  0  0  0  0  0  0  0  0
   19.3420  -26.7300   41.0780 C   0  0  0  0  0  0  0  0  0  0  0  0
   19.5470  -25.7530   42.0550 C   0  0  0  0  0  0  0  0  0  0  0  0
   20.7470  -25.7170   42.7670 C   0  0  0  0  0  0  0  0  0  0  0  0
   21.7410  -26.6560   42.5010 C   0  0  0  0  0  0  0  0  0  0  0  0
   22.8900  -26.5630   43.2370 O   0  0  0  0  0  0  0  0  0  0  0  0
   21.5350  -27.6330   41.5230 C   0  0  0  0  0  0  0  0  0  0  0  0
   22.5530  -28.6380   41.2140 C   0  0  0  0  0  0  0  0  0  0  0  0
   23.6310  -28.6770   41.8020 O   0  0  0  0  0  0  0  0  0  0  0  0
   22.2390  -29.6260   40.1550 C   0  0  0  0  0  0  0  0  0  0  0  0
   23.2000  -30.5800   39.8790 O   0  0  0  0  0  0  0  0  0  0  0  0
   20.8330  -30.2110   37.1230 C   0  0  0  0  0  0  0  0  0  0  0  0
   20.3990  -31.0990   36.1350 C   0  0  0  0  0  0  0  0  0  0  0  0
   19.7340  -32.2860   36.4760 C   0  0  0  0  0  0  0  0  0  0  0  0
   19.2770  -33.2230   35.3870 C   0  0  0  0  0  0  0  0  0  0  0  0
   20.0570  -34.3370   35.2660 F   0  0  0  0  0  0  0  0  0  0  0  0
   17.9999  -34.9204   39.8643 H   0  0  0  0  0  0  0  0  0  0  0  0
   18.8182  -33.2633   40.3275 H   0  0  0  0  0  0  0  0  0  0  0  0
   18.5067  -34.5279   37.5284 H   0  0  0  0  0  0  0  0  0  0  0  0
   19.7566  -31.8955   39.8788 H   0  0  0  0  0  0  0  0  0  0  0  0
   18.3956  -26.7585   40.5180 H   0  0  0  0  0  0  0  0  0  0  0  0
   18.7619  -25.0112   42.2635 H   0  0  0  0  0  0  0  0  0  0  0  0
   20.9076  -24.9482   43.5371 H   0  0  0  0  0  0  0  0  0  0  0  0
   23.5420  -27.2350   43.1760 H   0  0  0  0  0  0  0  0  0  0  0  0
   23.1530  -31.4240   40.2850 H   0  0  0  0  0  0  0  0  0  0  0  0
   21.3483  -29.2838   36.8318 H   0  0  0  0  0  0  0  0  0  0  0  0
   20.5813  -30.8640   35.0760 H   0  0  0  0  0  0  0  0  0  0  0  0
   18.2478  -33.5408   35.6100 H   0  0  0  0  0  0  0  0  0  0  0  0
   19.3466  -32.6738   34.4365 H   0  0  0  0  0  0  0  0  0  0  0  0
  1  2  2  0
  2  3  1  0
  3  4  2  0
  4  5  1  0
  5  6  1  0
  6  7  1  0
  7  8  1  0
  8  9  2  0
  9 10  1  0
 10 11  2  0
 11 12  1  0
 12 13  1  0
 12 14  2  0
 14 15  1  0
 15 16  2  0
 15 17  1  0
 17 18  1  0
  5 19  2  0
 19 20  1  0
 20 21  2  0
 21 22  1  0
 22 23  1  0
 21  3  1  0
 17  6  2  0
 14  8  1  0
  1 24  1  0
  1 25  1  0
  2 26  1  0
  4 27  1  0
  9 28  1  0
 10 29  1  0
 11 30  1  0
 13 31  1  0
 18 32  1  0
 19 33  1  0
 20 34  1  0
 22 35  1  0
 22 36  1  0
M  END
>  <meeko>  (7) 
{"is_sidechain": [false], "free_energy": -7.874, "intermolecular_energy": -9.663, "internal_energy": -0.585}

$$$$
cand_035_out
     RDKit          3D

 36 38  0  0  0  0  0  0  0  0999 V2000
   24.3470  -30.3750   42.8640 C   0  0  0  0  0  0  0  0  0  0  0  0
   24.3250  -29.0550   42.6470 C   0  0  0  0  0  0  0  0  0  0  0  0
   23.0850  -28.3440   42.3220 C   0  0  0  0  0  0  0  0  0  0  0  0
   22.6240  -28.4020   40.9960 C   0  0  0  0  0  0  0  0  0  0  0  0
   21.4460  -27.7480   40.6030 C   0  0  0  0  0  0  0  0  0  0  0  0
   21.0060  -27.8080   39.1940 C   0  0  0  0  0  0  0  0  0  0  0  0
   21.0690  -29.0920   38.6630 O   0  0  0  0  0  0  0  0  0  0  0  0
   20.6880  -29.2910   37.3610 C   0  0  0  0  0  0  0  0  0  0  0  0
   20.7790  -30.5920   36.8650 C   0  0  0  0  0  0  0  0  0  0  0  0
   20.4050  -30.8630   35.5470 C   0  0  0  0  0  0  0  0  0  0  0  0
   19.9400  -29.8330   34.7260 C   0  0  0  0  0  0  0  0  0  0  0  0
   19.8500  -28.5360   35.2230 C   0  0  0  0  0  0  0  0  0  0  0  0
   19.3850  -27.5770   34.3650 O   0  0  0  0  0  0  0  0  0  0  0  0
   20.2250  -28.2650   36.5430 C   0  0  0  0  0  0  0  0  0  0  0  0
   20.1450  -26.9160   37.1040 C   0  0  0  0  0  0  0  0  0  0  0  0
   19.7390  -25.9600   36.4480 O   0  0  0  0  0  0  0  0  0  0  0  0
   20.5720  -26.7340   38.5100 C   0  0  0  0  0  0  0  0  0  0  0  0
   20.4800  -25.4590   39.0370 O   0  0  0  0  0  0  0  0  0  0  0  0
   20.7400  -27.0170   41.5650 C   0  0  0  0  0  0  0  0  0  0  0  0
   21.1900  -26.9520   42.8870 C   0  0  0  0  0  0  0  0  0  0  0  0
   22.3620  -27.6140   43.2820 C   0  0  0  0  0  0  0  0  0  0  0  0
   22.8210  -27.5240   44.7160 C   0  0  0  0  0  0  0  0  0  0  0  0
   23.8030  -26.5970   44.9140 F   0  0  0  0  0  0  0  0  0  0  0  0
   25.2955  -30.8769   43.1058 H   0  0  0  0  0  0  0  0  0  0  0  0
   23.4166  -30.9584   42.8006 H   0  0  0  0  0  0  0  0  0  0  0  0
   25.2645  -28.4869   42.7144 H   0  0  0  0  0  0  0  0  0  0  0  0
   23.1982  -28.9717   40.2505 H   0  0  0  0  0  0  0  0  0  0  0  0
   21.1449  -31.4033   37.5114 H   0  0  0  0  0  0  0  0  0  0  0  0
   20.4767  -31.8883   35.1551 H   0  0  0  0  0  0  0  0  0  0  0  0
   19.6453  -30.0466   33.6880 H   0  0  0  0  0  0  0  0  0  0  0  0
   18.4750  -27.5480   34.1430 H   0  0  0  0  0  0  0  0  0  0  0  0
   19.7040  -25.1960   39.4930 H   0  0  0  0  0  0  0  0  0  0  0  0
   19.8199  -26.4871   41.2775 H   0  0  0  0  0  0  0  0  0  0  0  0
   20.6174  -26.3740   43.6273 H   0  0  0  0  0  0  0  0  0  0  0  0
   21.9573  -27.2561   45.3423 H   0  0  0  0  0  0  0  0  0  0  0  0
   23.2413  -28.5045   44.9844 H   0  0  0  0  0  0  0  0  0  0  0  0
  1  2  2  0
  2  3  1  0
  3  4  2  0
  4  5  1  0
  5  6  1  0
  6  7  1  0
  7  8  1  0
  8  9  2  0
  9 10  1  0
 10 11  2  0
 11 12  1  0
 12 13  1  0
 12 14  2  0
 14 15  1  0
 15 16  2  0
 15 17  1  0
 17 18  1  0
  5 19  2  0
 19 20  1  0
 20 21  2  0
 21 22  1  0
 22 23  1  0
 21  3  1  0
 17  6  2  0
 14  8  1  0
  1 24  1  0
  1 25  1  0
  2 26  1  0
  4 27  1  0
  9 28  1  0
 10 29  1  0
 11 30  1  0
 13 31  1  0
 18 32  1  0
 19 33  1  0
 20 34  1  0
 22 35  1  0
 22 36  1  0
M  END
>  <meeko>  (8) 
{"is_sidechain": [false], "free_energy": -7.848, "intermolecular_energy": -9.947, "internal_energy": -0.269}

$$$$
cand_035_out
     RDKit          3D

 36 38  0  0  0  0  0  0  0  0999 V2000
   19.4970  -23.9740   42.8490 C   0  0  0  0  0  0  0  0  0  0  0  0
   19.7550  -25.1360   43.4600 C   0  0  0  0  0  0  0  0  0  0  0  0
   20.7700  -26.0670   42.9570 C   0  0  0  0  0  0  0  0  0  0  0  0
   20.5010  -26.7470   41.7580 C   0  0  0  0  0  0  0  0  0  0  0  0
   21.4200  -27.6550   41.2110 C   0  0  0  0  0  0  0  0  0  0  0  0
   21.0910  -28.3730   39.9620 C   0  0  0  0  0  0  0  0  0  0  0  0
   20.7120  -29.6920   40.1820 O   0  0  0  0  0  0  0  0  0  0  0  0
   20.3790  -30.4740   39.1060 C   0  0  0  0  0  0  0  0  0  0  0  0
   20.0170  -31.7960   39.3710 C   0  0  0  0  0  0  0  0  0  0  0  0
   19.6650  -32.6460   38.3200 C   0  0  0  0  0  0  0  0  0  0  0  0
   19.6740  -32.1740   37.0050 C   0  0  0  0  0  0  0  0  0  0  0  0
   20.0360  -30.8550   36.7440 C   0  0  0  0  0  0  0  0  0  0  0  0
   20.0220  -30.4590   35.4340 O   0  0  0  0  0  0  0  0  0  0  0  0
   20.3880  -30.0050   37.7960 C   0  0  0  0  0  0  0  0  0  0  0  0
   20.7740  -28.6120   37.5640 C   0  0  0  0  0  0  0  0  0  0  0  0
   20.7990  -28.1220   36.4380 O   0  0  0  0  0  0  0  0  0  0  0  0
   21.1370  -27.7970   38.7470 C   0  0  0  0  0  0  0  0  0  0  0  0
   21.4850  -26.4790   38.5200 O   0  0  0  0  0  0  0  0  0  0  0  0
   22.6170  -27.8830   41.8990 C   0  0  0  0  0  0  0  0  0  0  0  0
   22.8950  -27.2120   43.0930 C   0  0  0  0  0  0  0  0  0  0  0  0
   21.9810  -26.2970   43.6350 C   0  0  0  0  0  0  0  0  0  0  0  0
   22.3100  -25.5900   44.9250 C   0  0  0  0  0  0  0  0  0  0  0  0
   23.0790  -26.3360   45.7720 F   0  0  0  0  0  0  0  0  0  0  0  0
   18.7286  -23.2987   43.2534 H   0  0  0  0  0  0  0  0  0  0  0  0
   20.0533  -23.6940   41.9423 H   0  0  0  0  0  0  0  0  0  0  0  0
   19.1894  -25.4005   44.3656 H   0  0  0  0  0  0  0  0  0  0  0  0
   19.5498  -26.5638   41.2368 H   0  0  0  0  0  0  0  0  0  0  0  0
   20.0090  -32.1678   40.4062 H   0  0  0  0  0  0  0  0  0  0  0  0
   19.3804  -33.6880   38.5278 H   0  0  0  0  0  0  0  0  0  0  0  0
   19.3956  -32.8431   36.1775 H   0  0  0  0  0  0  0  0  0  0  0  0
   20.7790  -30.0550   35.0580 H   0  0  0  0  0  0  0  0  0  0  0  0
   22.2990  -26.1460   38.8450 H   0  0  0  0  0  0  0  0  0  0  0  0
   23.3479  -28.5990   41.4952 H   0  0  0  0  0  0  0  0  0  0  0  0
   23.8440  -27.4043   43.6149 H   0  0  0  0  0  0  0  0  0  0  0  0
   22.8527  -24.6635   44.6861 H   0  0  0  0  0  0  0  0  0  0  0  0
   21.3577  -25.3935   45.4394 H   0  0  0  0  0  0  0  0  0  0  0  0
  1  2  2  0
  2  3  1  0
  3  4  2  0
  4  5  1  0
  5  6  1  0
  6  7  1  0
  7  8  1  0
  8  9  2  0
  9 10  1  0
 10 11  2  0
 11 12  1  0
 12 13  1  0
 12 14  2  0
 14 15  1  0
 15 16  2  0
 15 17  1  0
 17 18  1  0
  5 19  2  0
 19 20  1  0
 20 21  2  0
 21 22  1  0
 22 23  1  0
 21  3  1  0
 17  6  2  0
 14  8  1  0
  1 24  1  0
  1 25  1  0
  2 26  1  0
  4 27  1  0
  9 28  1  0
 10 29  1  0
 11 30  1  0
 13 31  1  0
 18 32  1  0
 19 33  1  0
 20 34  1  0
 22 35  1  0
 22 36  1  0
M  END
>  <meeko>  (9) 
{"is_sidechain": [false], "free_energy": -7.759, "intermolecular_energy": -9.598, "internal_energy": -0.508}

$$$$
