cand_049_out
     RDKit          3D

 47 49  0  0  0  0  0  0  0  0999 V2000
   18.6440  -26.2180   40.0250 C   0  0  0  0  0  0  0  0  0  0  0  0
   19.4500  -26.7120   41.2190 C   0  0  0  0  0  0  0  0  0  0  0  0
   20.4630  -27.7610   40.8190 C   0  0  0  0  0  0  0  0  0  0  0  0
   20.0610  -28.7440   39.8910 C   0  0  0  0  0  0  0  0  0  0  0  0
   20.9410  -29.7330   39.4280 C   0  0  0  0  0  0  0  0  0  0  0  0
   20.4620  -30.7600   38.4780 C   0  0  0  0  0  0  0  0  0  0  0  0
   20.0130  -31.9140   39.1110 O   0  0  0  0  0  0  0  0  0  0  0  0
   19.5400  -32.9490   38.3460 C   0  0  0  0  0  0  0  0  0  0  0  0
   19.1130  -34.0920   39.0220 C   0  0  0  0  0  0  0  0  0  0  0  0
   18.6180  -35.1830   38.3030 C   0  0  0  0  0  0  0  0  0  0  0  0
   18.5490  -35.1290   36.9090 C   0  0  0  0  0  0  0  0  0  0  0  0
   18.9750  -33.9870   36.2370 C   0  0  0  0  0  0  0  0  0  0  0  0
   18.8790  -34.0000   34.8730 O   0  0  0  0  0  0  0  0  0  0  0  0
   19.4710  -32.8960   36.9570 C   0  0  0  0  0  0  0  0  0  0  0  0
   19.9300  -31.6760   36.2900 C   0  0  0  0  0  0  0  0  0  0  0  0
   19.8930  -31.5510   35.0680 O   0  0  0  0  0  0  0  0  0  0  0  0
   20.4440  -30.5810   37.1440 C   0  0  0  0  0  0  0  0  0  0  0  0
   20.8620  -29.4280   36.5030 O   0  0  0  0  0  0  0  0  0  0  0  0
   22.2490  -29.7360   39.9170 C   0  0  0  0  0  0  0  0  0  0  0  0
   22.6680  -28.7670   40.8320 C   0  0  0  0  0  0  0  0  0  0  0  0
   21.7900  -27.7720   41.2950 C   0  0  0  0  0  0  0  0  0  0  0  0
   22.3140  -26.7620   42.2960 C   0  0  0  0  0  0  0  0  0  0  0  0
   23.4810  -27.2840   43.1590 C   0  0  0  0  0  0  0  0  0  0  0  0
   24.4440  -26.1680   43.5710 C   0  0  0  0  0  0  0  0  0  0  0  0
   22.9290  -27.9730   44.4100 C   0  0  0  0  0  0  0  0  0  0  0  0
   17.7567  -25.6742   40.3813 H   0  0  0  0  0  0  0  0  0  0  0  0
   19.2659  -25.5457   39.4156 H   0  0  0  0  0  0  0  0  0  0  0  0
   18.3272  -27.0773   39.4156 H   0  0  0  0  0  0  0  0  0  0  0  0
   19.9796  -25.8590   41.6683 H   0  0  0  0  0  0  0  0  0  0  0  0
   18.7522  -27.1676   41.9370 H   0  0  0  0  0  0  0  0  0  0  0  0
   19.0258  -28.7347   39.5191 H   0  0  0  0  0  0  0  0  0  0  0  0
   19.1659  -34.1344   40.1199 H   0  0  0  0  0  0  0  0  0  0  0  0
   18.2823  -36.0852   38.8353 H   0  0  0  0  0  0  0  0  0  0  0  0
   18.1586  -35.9877   36.3431 H   0  0  0  0  0  0  0  0  0  0  0  0
   19.5900  -33.6850   34.3500 H   0  0  0  0  0  0  0  0  0  0  0  0
   20.3080  -29.0190   35.8670 H   0  0  0  0  0  0  0  0  0  0  0  0
   22.9557  -30.5081   39.5788 H   0  0  0  0  0  0  0  0  0  0  0  0
   23.7055  -28.7831   41.1972 H   0  0  0  0  0  0  0  0  0  0  0  0
   22.6607  -25.8757   41.7444 H   0  0  0  0  0  0  0  0  0  0  0  0
   21.4857  -26.5348   42.9833 H   0  0  0  0  0  0  0  0  0  0  0  0
   24.0477  -28.0013   42.5472 H   0  0  0  0  0  0  0  0  0  0  0  0
   24.4923  -26.1120   44.6685 H   0  0  0  0  0  0  0  0  0  0  0  0
   25.4459  -26.3817   43.1703 H   0  0  0  0  0  0  0  0  0  0  0  0
   24.0859  -25.2082   43.1703 H   0  0  0  0  0  0  0  0  0  0  0  0
   23.3266  -27.4767   45.3076 H   0  0  0  0  0  0  0  0  0  0  0  0
   21.8310  -27.9071   44.4106 H   0  0  0  0  0  0  0  0  0  0  0  0
   23.2329  -29.0302   44.4106 H   0  0  0  0  0  0  0  0  0  0  0  0
  1  2  1  0
  2  3  1  0
  3  4  2  0
  4  5  1  0
  5  6  1  0
  6  7  1  0
  7  8  1  0
  8  9  2  0
  9 10  1  0
 10 11  2  0
 11 12  1  0
 12 13  1  0
 12 14  2  0
 14 15  1  0
 15 16  2  0
 15 17  1  0
 17 18  1  0
  5 19  2  0
 19 20  1  0
 20 21  2  0
 21 22  1  0
 22 23  1  0
 23 24  1  0
 23 25  1  0
 21  3  1  0
 17  6  2  0
 14  8  1  0
  1 26  1  0
  1 27  1  0
  1 28  1  0
  2 29  1  0
  2 30  1  0
  4 31  1  0
  9 32  1  0
 10 33  1  0
 11 34  1  0
 13 35  1  0
 18 36  1  0
 19 37  1  0
 20 38  1  0
 22 39  1  0
 22 40  1  0
 23 41  1  0
 24 42  1  0
 24 43  1  0
 24 44  1  0
 25 45  1  0
 25 46  1  0
 25 47  1  0
M  END
>  <meeko>  (1) 
{"is_sidechain": [false], "free_energy": -9.62, "intermolecular_energy": -12.432, "internal_energy": -0.866}

$$$$
cand_049_out
     RDKit          3D

 47 49  0  0  0  0  0  0  0  0999 V2000
   24.2360  -30.1900   42.2630 C   0  0  0  0  0  0  0  0  0  0  0  0
   23.8250  -28.7340   42.4370 C   0  0  0  0  0  0  0  0  0  0  0  0
   22.6830  -28.3580   41.5200 C   0  0  0  0  0  0  0  0  0  0  0  0
   22.1490  -29.3640   40.6870 C   0  0  0  0  0  0  0  0  0  0  0  0
   21.0640  -29.1230   39.8330 C   0  0  0  0  0  0  0  0  0  0  0  0
   20.5610  -30.2030   38.9580 C   0  0  0  0  0  0  0  0  0  0  0  0
   19.9690  -31.2420   39.6680 O   0  0  0  0  0  0  0  0  0  0  0  0
   19.4590  -32.3110   38.9780 C   0  0  0  0  0  0  0  0  0  0  0  0
   18.8880  -33.3370   39.7320 C   0  0  0  0  0  0  0  0  0  0  0  0
   18.3480  -34.4550   39.0910 C   0  0  0  0  0  0  0  0  0  0  0  0
   18.3790  -34.5460   37.6980 C   0  0  0  0  0  0  0  0  0  0  0  0
   18.9490  -33.5210   36.9480 C   0  0  0  0  0  0  0  0  0  0  0  0
   18.9460  -33.6740   35.5890 O   0  0  0  0  0  0  0  0  0  0  0  0
   19.4900  -32.4030   37.5900 C   0  0  0  0  0  0  0  0  0  0  0  0
   20.0990  -31.3040   36.8400 C   0  0  0  0  0  0  0  0  0  0  0  0
   20.1580  -31.3080   35.6120 O   0  0  0  0  0  0  0  0  0  0  0  0
   20.6500  -30.1680   37.6150 C   0  0  0  0  0  0  0  0  0  0  0  0
   21.2110  -29.1290   36.8950 O   0  0  0  0  0  0  0  0  0  0  0  0
   20.5120  -27.8400   39.8110 C   0  0  0  0  0  0  0  0  0  0  0  0
   21.0230  -26.8320   40.6330 C   0  0  0  0  0  0  0  0  0  0  0  0
   22.1080  -27.0720   41.4930 C   0  0  0  0  0  0  0  0  0  0  0  0
   22.6130  -25.9250   42.3450 C   0  0  0  0  0  0  0  0  0  0  0  0
   21.9480  -25.8370   43.7340 C   0  0  0  0  0  0  0  0  0  0  0  0
   22.9410  -26.0940   44.8710 C   0  0  0  0  0  0  0  0  0  0  0  0
   21.3090  -24.4570   43.9140 C   0  0  0  0  0  0  0  0  0  0  0  0
   24.3671  -30.6546   43.2514 H   0  0  0  0  0  0  0  0  0  0  0  0
   23.4545  -30.7275   41.7060 H   0  0  0  0  0  0  0  0  0  0  0  0
   25.1832  -30.2396   41.7060 H   0  0  0  0  0  0  0  0  0  0  0  0
   23.5115  -28.5749   43.4793 H   0  0  0  0  0  0  0  0  0  0  0  0
   24.6891  -28.1027   42.1825 H   0  0  0  0  0  0  0  0  0  0  0  0
   22.5979  -30.3680   40.7085 H   0  0  0  0  0  0  0  0  0  0  0  0
   18.8630  -33.2658   40.8294 H   0  0  0  0  0  0  0  0  0  0  0  0
   17.8979  -35.2644   39.6845 H   0  0  0  0  0  0  0  0  0  0  0  0
   17.9536  -35.4263   37.1939 H   0  0  0  0  0  0  0  0  0  0  0  0
   18.6880  -32.9610   35.0380 H   0  0  0  0  0  0  0  0  0  0  0  0
   21.1970  -29.1470   35.9580 H   0  0  0  0  0  0  0  0  0  0  0  0
   19.6677  -27.6212   39.1408 H   0  0  0  0  0  0  0  0  0  0  0  0
   20.5670  -25.8313   40.6063 H   0  0  0  0  0  0  0  0  0  0  0  0
   23.6965  -26.0504   42.4873 H   0  0  0  0  0  0  0  0  0  0  0  0
   22.3612  -24.9966   41.8115 H   0  0  0  0  0  0  0  0  0  0  0  0
   21.1790  -26.6222   43.7810 H   0  0  0  0  0  0  0  0  0  0  0  0
   22.4333  -25.9626   45.8379 H   0  0  0  0  0  0  0  0  0  0  0  0
   23.3265  -27.1215   44.7959 H   0  0  0  0  0  0  0  0  0  0  0  0
   23.7766  -25.3825   44.7959 H   0  0  0  0  0  0  0  0  0  0  0  0
   21.2072  -24.2372   44.9870 H   0  0  0  0  0  0  0  0  0  0  0  0
   21.9454  -23.6939   43.4421 H   0  0  0  0  0  0  0  0  0  0  0  0
   20.3154  -24.4487   43.4421 H   0  0  0  0  0  0  0  0  0  0  0  0
  1  2  1  0
  2  3  1  0
  3  4  2  0
  4  5  1  0
  5  6  1  0
  6  7  1  0
  7  8  1  0
  8  9  2  0
  9 10  1  0
 10 11  2  0
 11 12  1  0
 12 13  1  0
 12 14  2  0
 14 15  1  0
 15 16  2  0
 15 17  1  0
 17 18  1  0
  5 19  2  0
 19 20  1  0
 20 21  2  0
 21 22  1  0
 22 23  1  0
 23 24  1  0
 23 25  1  0
 21  3  1  0
 17  6  2  0
 14  8  1  0
  1 26  1  0
  1 27  1  0
  1 28  1  0
  2 29  1  0
  2 30  1  0
  4 31  1  0
  9 32  1  0
 10 33  1  0
 11 34  1  0
 13 35  1  0
 18 36  1  0
 19 37  1  0
 20 38  1  0
 22 39  1  0
 22 40  1  0
 23 41  1  0
 24 42  1  0
 24 43  1  0
 24 44  1  0
 25 45  1  0
 25 46  1  0
 25 47  1  0
M  END
>  <meeko>  (2) 
{"is_sidechain": [false], "free_energy": -9.208, "intermolecular_energy": -11.956, "internal_energy": -0.81}

$$$$
cand_049_out
     RDKit          3D

 47 49  0  0  0  0  0  0  0  0999 V2000
   19.4030  -25.5950   39.6870 C   0  0  0  0  0  0  0  0  0  0  0  0
   19.4390  -26.5920   40.8370 C   0  0  0  0  0  0  0  0  0  0  0  0
   20.4180  -27.7160   40.5750 C   0  0  0  0  0  0  0  0  0  0  0  0
   20.0440  -28.7120   39.6490 C   0  0  0  0  0  0  0  0  0  0  0  0
   20.8990  -29.7700   39.3100 C   0  0  0  0  0  0  0  0  0  0  0  0
   20.4480  -30.8060   38.3550 C   0  0  0  0  0  0  0  0  0  0  0  0
   20.7600  -30.4960   37.0360 O   0  0  0  0  0  0  0  0  0  0  0  0
   20.3990  -31.3720   36.0460 C   0  0  0  0  0  0  0  0  0  0  0  0
   20.7200  -31.0140   34.7360 C   0  0  0  0  0  0  0  0  0  0  0  0
   20.3820  -31.8630   33.6790 C   0  0  0  0  0  0  0  0  0  0  0  0
   19.7240  -33.0680   33.9330 C   0  0  0  0  0  0  0  0  0  0  0  0
   19.4050  -33.4230   35.2410 C   0  0  0  0  0  0  0  0  0  0  0  0
   18.7620  -34.6170   35.4180 O   0  0  0  0  0  0  0  0  0  0  0  0
   19.7430  -32.5730   36.2970 C   0  0  0  0  0  0  0  0  0  0  0  0
   19.4260  -32.9070   37.6870 C   0  0  0  0  0  0  0  0  0  0  0  0
   18.8560  -33.9530   37.9910 O   0  0  0  0  0  0  0  0  0  0  0  0
   19.8210  -31.9350   38.7320 C   0  0  0  0  0  0  0  0  0  0  0  0
   19.5290  -32.2690   40.0430 O   0  0  0  0  0  0  0  0  0  0  0  0
   22.1520  -29.8310   39.9250 C   0  0  0  0  0  0  0  0  0  0  0  0
   22.5420  -28.8510   40.8410 C   0  0  0  0  0  0  0  0  0  0  0  0
   21.6890  -27.7870   41.1800 C   0  0  0  0  0  0  0  0  0  0  0  0
   22.1790  -26.7690   42.1900 C   0  0  0  0  0  0  0  0  0  0  0  0
   23.3650  -27.2580   43.0460 C   0  0  0  0  0  0  0  0  0  0  0  0
   24.3180  -26.1210   43.4220 C   0  0  0  0  0  0  0  0  0  0  0  0
   22.8400  -27.9280   44.3200 C   0  0  0  0  0  0  0  0  0  0  0  0
   19.3661  -24.5720   40.0896 H   0  0  0  0  0  0  0  0  0  0  0  0
   20.3060  -25.7139   39.0702 H   0  0  0  0  0  0  0  0  0  0  0  0
   18.5109  -25.7787   39.0702 H   0  0  0  0  0  0  0  0  0  0  0  0
   19.7383  -26.0658   41.7554 H   0  0  0  0  0  0  0  0  0  0  0  0
   18.4354  -27.0298   40.9419 H   0  0  0  0  0  0  0  0  0  0  0  0
   19.0512  -28.6569   39.1785 H   0  0  0  0  0  0  0  0  0  0  0  0
   21.2384  -30.0647   34.5358 H   0  0  0  0  0  0  0  0  0  0  0  0
   20.6345  -31.5818   32.6459 H   0  0  0  0  0  0  0  0  0  0  0  0
   19.4579  -33.7361   33.1007 H   0  0  0  0  0  0  0  0  0  0  0  0
   18.7590  -35.0270   36.2610 H   0  0  0  0  0  0  0  0  0  0  0  0
   19.4760  -33.1690   40.2960 H   0  0  0  0  0  0  0  0  0  0  0  0
   22.8372  -30.6576   39.6859 H   0  0  0  0  0  0  0  0  0  0  0  0
   23.5368  -28.9135   41.3062 H   0  0  0  0  0  0  0  0  0  0  0  0
   22.4934  -25.8658   41.6466 H   0  0  0  0  0  0  0  0  0  0  0  0
   21.3445  -26.5777   42.8807 H   0  0  0  0  0  0  0  0  0  0  0  0
   23.9321  -27.9802   42.4404 H   0  0  0  0  0  0  0  0  0  0  0  0
   24.3826  -26.0439   44.5174 H   0  0  0  0  0  0  0  0  0  0  0  0
   25.3165  -26.3279   43.0094 H   0  0  0  0  0  0  0  0  0  0  0  0
   23.9398  -25.1740   43.0094 H   0  0  0  0  0  0  0  0  0  0  0  0
   23.2462  -27.4096   45.2010 H   0  0  0  0  0  0  0  0  0  0  0  0
   21.7415  -27.8738   44.3368 H   0  0  0  0  0  0  0  0  0  0  0  0
   23.1554  -28.9817   44.3368 H   0  0  0  0  0  0  0  0  0  0  0  0
  1  2  1  0
  2  3  1  0
  3  4  2  0
  4  5  1  0
  5  6  1  0
  6  7  1  0
  7  8  1  0
  8  9  2  0
  9 10  1  0
 10 11  2  0
 11 12  1  0
 12 13  1  0
 12 14  2  0
 14 15  1  0
 15 16  2  0
 15 17  1  0
 17 18  1  0
  5 19  2  0
 19 20  1  0
 20 21  2  0
 21 22  1  0
 22 23  1  0
 23 24  1  0
 23 25  1  0
 21  3  1  0
 17  6  2  0
 14  8  1  0
  1 26  1  0
  1 27  1  0
  1 28  1  0
  2 29  1  0
  2 30  1  0
  4 31  1  0
  9 32  1  0
 10 33  1  0
 11 34  1  0
 13 35  1  0
 18 36  1  0
 19 37  1  0
 20 38  1  0
 22 39  1  0
 22 40  1  0
 23 41  1  0
 24 42  1  0
 24 43  1  0
 24 44  1  0
 25 45  1  0
 25 46  1  0
 25 47  1  0
M  END
>  <meeko>  (3) 
{"is_sidechain": [false], "free_energy": -8.866, "intermolecular_energy": -11.467, "internal_energy": -0.857}

$$$$
cand_049_out
     RDKit          3D

 47 49  0  0  0  0  0  0  0  0999 V2000
   17.9990  -32.4830   39.3690 C   0  0  0  0  0  0  0  0  0  0  0  0
   19.2040  -32.8370   38.5080 C   0  0  0  0  0  0  0  0  0  0  0  0
   20.0730  -31.6300   38.2330 C   0  0  0  0  0  0  0  0  0  0  0  0
   20.6840  -30.9940   39.3330 C   0  0  0  0  0  0  0  0  0  0  0  0
   21.5380  -29.8930   39.1760 C   0  0  0  0  0  0  0  0  0  0  0  0
   22.1310  -29.2440   40.3650 C   0  0  0  0  0  0  0  0  0  0  0  0
   23.0960  -30.0300   40.9840 O   0  0  0  0  0  0  0  0  0  0  0  0
   23.7280  -29.5470   42.1010 C   0  0  0  0  0  0  0  0  0  0  0  0
   24.6790  -30.3750   42.6990 C   0  0  0  0  0  0  0  0  0  0  0  0
   25.3600  -29.9440   43.8390 C   0  0  0  0  0  0  0  0  0  0  0  0
   25.0910  -28.6850   44.3810 C   0  0  0  0  0  0  0  0  0  0  0  0
   24.1420  -27.8610   43.7830 C   0  0  0  0  0  0  0  0  0  0  0  0
   23.9280  -26.6410   44.3640 O   0  0  0  0  0  0  0  0  0  0  0  0
   23.4600  -28.2930   42.6420 C   0  0  0  0  0  0  0  0  0  0  0  0
   22.4540  -27.4590   41.9830 C   0  0  0  0  0  0  0  0  0  0  0  0
   22.1680  -26.3370   42.3950 O   0  0  0  0  0  0  0  0  0  0  0  0
   21.7830  -28.0130   40.7840 C   0  0  0  0  0  0  0  0  0  0  0  0
   20.8450  -27.2100   40.1610 O   0  0  0  0  0  0  0  0  0  0  0  0
   21.7730  -29.4180   37.8830 C   0  0  0  0  0  0  0  0  0  0  0  0
   21.1810  -30.0380   36.7800 C   0  0  0  0  0  0  0  0  0  0  0  0
   20.3280  -31.1440   36.9350 C   0  0  0  0  0  0  0  0  0  0  0  0
   19.7140  -31.7550   35.6910 C   0  0  0  0  0  0  0  0  0  0  0  0
   20.5440  -31.5340   34.4100 C   0  0  0  0  0  0  0  0  0  0  0  0
   20.4670  -32.7270   33.4540 C   0  0  0  0  0  0  0  0  0  0  0  0
   20.0590  -30.2700   33.6930 C   0  0  0  0  0  0  0  0  0  0  0  0
   18.2715  -32.5630   40.4317 H   0  0  0  0  0  0  0  0  0  0  0  0
   17.6807  -31.4534   39.1486 H   0  0  0  0  0  0  0  0  0  0  0  0
   17.1744  -33.1768   39.1486 H   0  0  0  0  0  0  0  0  0  0  0  0
   19.8043  -33.5961   39.0309 H   0  0  0  0  0  0  0  0  0  0  0  0
   18.8351  -33.2188   37.5446 H   0  0  0  0  0  0  0  0  0  0  0  0
   20.4845  -31.3734   40.3461 H   0  0  0  0  0  0  0  0  0  0  0  0
   24.8918  -31.3664   42.2725 H   0  0  0  0  0  0  0  0  0  0  0  0
   26.1093  -30.5966   44.3109 H   0  0  0  0  0  0  0  0  0  0  0  0
   25.6282  -28.3454   45.2788 H   0  0  0  0  0  0  0  0  0  0  0  0
   23.5480  -25.9450   43.8650 H   0  0  0  0  0  0  0  0  0  0  0  0
   20.9800  -26.2830   40.1130 H   0  0  0  0  0  0  0  0  0  0  0  0
   22.4297  -28.5485   37.7324 H   0  0  0  0  0  0  0  0  0  0  0  0
   21.3866  -29.6529   35.7703 H   0  0  0  0  0  0  0  0  0  0  0  0
   19.6090  -32.8379   35.8529 H   0  0  0  0  0  0  0  0  0  0  0  0
   18.7467  -31.2551   35.5344 H   0  0  0  0  0  0  0  0  0  0  0  0
   21.5950  -31.4207   34.7142 H   0  0  0  0  0  0  0  0  0  0  0  0
   20.4068  -33.6591   34.0350 H   0  0  0  0  0  0  0  0  0  0  0  0
   19.5731  -32.6317   32.8200 H   0  0  0  0  0  0  0  0  0  0  0  0
   21.3657  -32.7474   32.8200 H   0  0  0  0  0  0  0  0  0  0  0  0
   19.7690  -29.5143   34.4379 H   0  0  0  0  0  0  0  0  0  0  0  0
   20.8684  -29.8723   33.0631 H   0  0  0  0  0  0  0  0  0  0  0  0
   19.1913  -30.5158   33.0631 H   0  0  0  0  0  0  0  0  0  0  0  0
  1  2  1  0
  2  3  1  0
  3  4  2  0
  4  5  1  0
  5  6  1  0
  6  7  1  0
  7  8  1  0
  8  9  2  0
  9 10  1  0
 10 11  2  0
 11 12  1  0
 12 13  1  0
 12 14  2  0
 14 15  1  0
 15 16  2  0
 15 17  1  0
 17 18  1  0
  5 19  2  0
 19 20  1  0
 20 21  2  0
 21 22  1  0
 22 23  1  0
 23 24  1  0
 23 25  1  0
 21  3  1  0
 17  6  2  0
 14  8  1  0
  1 26  1  0
  1 27  1  0
  1 28  1  0
  2 29  1  0
  2 30  1  0
  4 31  1  0
  9 32  1  0
 10 33  1  0
 11 34  1  0
 13 35  1  0
 18 36  1  0
 19 37  1  0
 20 38  1  0
 22 39  1  0
 22 40  1  0
 23 41  1  0
 24 42  1  0
 24 43  1  0
 24 44  1  0
 25 45  1  0
 25 46  1  0
 25 47  1  0
M  END
>  <meeko>  (4) 
{"is_sidechain": [false], "free_energy": -8.662, "intermolecular_energy": -11.518, "internal_energy": -0.542}

$$$$
cand_049_out
     RDKit          3D

 47 49  0  0  0  0  0  0  0  0999 V2000
   24.2040  -28.6870   44.5910 C   0  0  0  0  0  0  0  0  0  0  0  0
   24.2270  -27.3350   43.8900 C   0  0  0  0  0  0  0  0  0  0  0  0
   22.9040  -27.0240   43.2260 C   0  0  0  0  0  0  0  0  0  0  0  0
   22.5730  -27.7350   42.0540 C   0  0  0  0  0  0  0  0  0  0  0  0
   21.3520  -27.5460   41.3900 C   0  0  0  0  0  0  0  0  0  0  0  0
   21.0650  -28.2950   40.1470 C   0  0  0  0  0  0  0  0  0  0  0  0
   20.6370  -29.5960   40.3880 O   0  0  0  0  0  0  0  0  0  0  0  0
   20.3360  -30.4030   39.3210 C   0  0  0  0  0  0  0  0  0  0  0  0
   19.9240  -31.7050   39.6080 C   0  0  0  0  0  0  0  0  0  0  0  0
   19.6010  -32.5790   38.5680 C   0  0  0  0  0  0  0  0  0  0  0  0
   19.6880  -32.1510   37.2420 C   0  0  0  0  0  0  0  0  0  0  0  0
   20.0980  -30.8510   36.9580 C   0  0  0  0  0  0  0  0  0  0  0  0
   20.1610  -30.4970   35.6380 O   0  0  0  0  0  0  0  0  0  0  0  0
   20.4230  -29.9780   37.9990 C   0  0  0  0  0  0  0  0  0  0  0  0
   20.8600  -28.6030   37.7450 C   0  0  0  0  0  0  0  0  0  0  0  0
   20.9540  -28.1510   36.6060 O   0  0  0  0  0  0  0  0  0  0  0  0
   21.1870  -27.7610   38.9180 C   0  0  0  0  0  0  0  0  0  0  0  0
   21.5850  -26.4600   38.6660 O   0  0  0  0  0  0  0  0  0  0  0  0
   20.4520  -26.6150   41.9130 C   0  0  0  0  0  0  0  0  0  0  0  0
   20.7600  -25.9050   43.0760 C   0  0  0  0  0  0  0  0  0  0  0  0
   21.9810  -26.0950   43.7460 C   0  0  0  0  0  0  0  0  0  0  0  0
   22.2470  -25.2800   44.9950 C   0  0  0  0  0  0  0  0  0  0  0  0
   21.0180  -24.5030   45.5100 C   0  0  0  0  0  0  0  0  0  0  0  0
   20.8340  -24.6430   47.0230 C   0  0  0  0  0  0  0  0  0  0  0  0
   21.1530  -23.0220   45.1440 C   0  0  0  0  0  0  0  0  0  0  0  0
   24.2066  -28.5352   45.6805 H   0  0  0  0  0  0  0  0  0  0  0  0
   23.2964  -29.2358   44.2994 H   0  0  0  0  0  0  0  0  0  0  0  0
   25.0924  -29.2664   44.2994 H   0  0  0  0  0  0  0  0  0  0  0  0
   24.4456  -26.5529   44.6320 H   0  0  0  0  0  0  0  0  0  0  0  0
   25.0018  -27.3675   43.1099 H   0  0  0  0  0  0  0  0  0  0  0  0
   23.2942  -28.4598   41.6482 H   0  0  0  0  0  0  0  0  0  0  0  0
   19.8537  -32.0425   40.6526 H   0  0  0  0  0  0  0  0  0  0  0  0
   19.2776  -33.6059   38.7938 H   0  0  0  0  0  0  0  0  0  0  0  0
   19.4331  -32.8396   36.4230 H   0  0  0  0  0  0  0  0  0  0  0  0
   19.4080  -30.5990   35.0900 H   0  0  0  0  0  0  0  0  0  0  0  0
   22.2610  -26.0690   39.1830 H   0  0  0  0  0  0  0  0  0  0  0  0
   19.4924  -26.4392   41.4048 H   0  0  0  0  0  0  0  0  0  0  0  0
   20.0326  -25.1829   43.4754 H   0  0  0  0  0  0  0  0  0  0  0  0
   22.5821  -25.9633   45.7892 H   0  0  0  0  0  0  0  0  0  0  0  0
   23.0090  -24.5320   44.7309 H   0  0  0  0  0  0  0  0  0  0  0  0
   20.1293  -24.9352   45.0269 H   0  0  0  0  0  0  0  0  0  0  0  0
   21.6058  -24.0558   47.5421 H   0  0  0  0  0  0  0  0  0  0  0  0
   19.8381  -24.2722   47.3071 H   0  0  0  0  0  0  0  0  0  0  0  0
   20.9258  -25.7017   47.3071 H   0  0  0  0  0  0  0  0  0  0  0  0
   21.2078  -22.4206   46.0634 H   0  0  0  0  0  0  0  0  0  0  0  0
   22.0685  -22.8724   44.5529 H   0  0  0  0  0  0  0  0  0  0  0  0
   20.2796  -22.7093   44.5529 H   0  0  0  0  0  0  0  0  0  0  0  0
  1  2  1  0
  2  3  1  0
  3  4  2  0
  4  5  1  0
  5  6  1  0
  6  7  1  0
  7  8  1  0
  8  9  2  0
  9 10  1  0
 10 11  2  0
 11 12  1  0
 12 13  1  0
 12 14  2  0
 14 15  1  0
 15 16  2  0
 15 17  1  0
 17 18  1  0
  5 19  2  0
 19 20  1  0
 20 21  2  0
 21 22  1  0
 22 23  1  0
 23 24  1  0
 23 25  1  0
 21  3  1  0
 17  6  2  0
 14  8  1  0
  1 26  1  0
  1 27  1  0
  1 28  1  0
  2 29  1  0
  2 30  1  0
  4 31  1  0
  9 32  1  0
 10 33  1  0
 11 34  1  0
 13 35  1  0
 18 36  1  0
 19 37  1  0
 20 38  1  0
 22 39  1  0
 22 40  1  0
 23 41  1  0
 24 42  1  0
 24 43  1  0
 24 44  1  0
 25 45  1  0
 25 46  1  0
 25 47  1  0
M  END
>  <meeko>  (5) 
{"is_sidechain": [false], "free_energy": -8.581, "intermolecular_energy": -11.165, "internal_energy": -0.79}

$$$$
cand_049_out
     RDKit          3D

 47 49  0  0  0  0  0  0  0  0999 V2000
   23.6180  -30.1280   41.3640 C   0  0  0  0  0  0  0  0  0  0  0  0
   23.0170  -28.7290   41.4110 C   0  0  0  0  0  0  0  0  0  0  0  0
   21.7790  -28.6200   40.5480 C   0  0  0  0  0  0  0  0  0  0  0  0
   21.4300  -29.7320   39.7540 C   0  0  0  0  0  0  0  0  0  0  0  0
   20.2790  -29.7410   38.9530 C   0  0  0  0  0  0  0  0  0  0  0  0
   19.9740  -30.9200   38.1150 C   0  0  0  0  0  0  0  0  0  0  0  0
   20.3310  -30.7430   36.7820 O   0  0  0  0  0  0  0  0  0  0  0  0
   20.1020  -31.7620   35.8940 C   0  0  0  0  0  0  0  0  0  0  0  0
   20.4630  -31.5360   34.5650 C   0  0  0  0  0  0  0  0  0  0  0  0
   20.2590  -32.5320   33.6080 C   0  0  0  0  0  0  0  0  0  0  0  0
   19.6960  -33.7550   33.9800 C   0  0  0  0  0  0  0  0  0  0  0  0
   19.3370  -33.9790   35.3070 C   0  0  0  0  0  0  0  0  0  0  0  0
   18.7920  -35.1970   35.6020 O   0  0  0  0  0  0  0  0  0  0  0  0
   19.5410  -32.9800   36.2630 C   0  0  0  0  0  0  0  0  0  0  0  0
   19.1780  -33.1730   37.6690 C   0  0  0  0  0  0  0  0  0  0  0  0
   18.6850  -34.2240   38.0740 O   0  0  0  0  0  0  0  0  0  0  0  0
   19.4280  -32.0500   38.6010 C   0  0  0  0  0  0  0  0  0  0  0  0
   19.0940  -32.2500   39.9290 O   0  0  0  0  0  0  0  0  0  0  0  0
   19.4700  -28.6030   38.9460 C   0  0  0  0  0  0  0  0  0  0  0  0
   19.7960  -27.4940   39.7300 C   0  0  0  0  0  0  0  0  0  0  0  0
   20.9460  -27.4830   40.5370 C   0  0  0  0  0  0  0  0  0  0  0  0
   21.2380  -26.2390   41.3520 C   0  0  0  0  0  0  0  0  0  0  0  0
   20.8550  -26.3610   42.8410 C   0  0  0  0  0  0  0  0  0  0  0  0
   22.0520  -26.1410   43.7690 C   0  0  0  0  0  0  0  0  0  0  0  0
   19.7550  -25.3490   43.1740 C   0  0  0  0  0  0  0  0  0  0  0  0
   23.7753  -30.4941   42.3893 H   0  0  0  0  0  0  0  0  0  0  0  0
   22.9311  -30.8045   40.8344 H   0  0  0  0  0  0  0  0  0  0  0  0
   24.5816  -30.0955   40.8344 H   0  0  0  0  0  0  0  0  0  0  0  0
   22.7481  -28.4917   42.4509 H   0  0  0  0  0  0  0  0  0  0  0  0
   23.7661  -28.0219   41.0251 H   0  0  0  0  0  0  0  0  0  0  0  0
   22.0803  -30.6191   39.7633 H   0  0  0  0  0  0  0  0  0  0  0  0
   20.9080  -30.5738   34.2716 H   0  0  0  0  0  0  0  0  0  0  0  0
   20.5419  -32.3534   32.5601 H   0  0  0  0  0  0  0  0  0  0  0  0
   19.5364  -34.5400   33.2261 H   0  0  0  0  0  0  0  0  0  0  0  0
   19.2250  -35.7700   36.2050 H   0  0  0  0  0  0  0  0  0  0  0  0
   18.3940  -31.7600   40.3140 H   0  0  0  0  0  0  0  0  0  0  0  0
   18.5677  -28.5797   38.3173 H   0  0  0  0  0  0  0  0  0  0  0  0
   19.1393  -26.6117   39.7153 H   0  0  0  0  0  0  0  0  0  0  0  0
   22.3158  -26.0286   41.2881 H   0  0  0  0  0  0  0  0  0  0  0  0
   20.6231  -25.4303   40.9302 H   0  0  0  0  0  0  0  0  0  0  0  0
   20.4928  -27.3866   43.0054 H   0  0  0  0  0  0  0  0  0  0  0  0
   21.7203  -26.2020   44.8160 H   0  0  0  0  0  0  0  0  0  0  0  0
   22.8104  -26.9148   43.5790 H   0  0  0  0  0  0  0  0  0  0  0  0
   22.4857  -25.1481   43.5790 H   0  0  0  0  0  0  0  0  0  0  0  0
   19.6576  -25.2594   44.2660 H   0  0  0  0  0  0  0  0  0  0  0  0
   20.0167  -24.3694   42.7476 H   0  0  0  0  0  0  0  0  0  0  0  0
   18.8005  -25.6913   42.7476 H   0  0  0  0  0  0  0  0  0  0  0  0
  1  2  1  0
  2  3  1  0
  3  4  2  0
  4  5  1  0
  5  6  1  0
  6  7  1  0
  7  8  1  0
  8  9  2  0
  9 10  1  0
 10 11  2  0
 11 12  1  0
 12 13  1  0
 12 14  2  0
 14 15  1  0
 15 16  2  0
 15 17  1  0
 17 18  1  0
  5 19  2  0
 19 20  1  0
 20 21  2  0
 21 22  1  0
 22 23  1  0
 23 24  1  0
 23 25  1  0
 21  3  1  0
 17  6  2  0
 14  8  1  0
  1 26  1  0
  1 27  1  0
  1 28  1  0
  2 29  1  0
  2 30  1  0
  4 31  1  0
  9 32  1  0
 10 33  1  0
 11 34  1  0
 13 35  1  0
 18 36  1  0
 19 37  1  0
 20 38  1  0
 22 39  1  0
 22 40  1  0
 23 41  1  0
 24 42  1  0
 24 43  1  0
 24 44  1  0
 25 45  1  0
 25 46  1  0
 25 47  1  0
M  END
>  <meeko>  (6) 
{"is_sidechain": [false], "free_energy": -8.558, "intermolecular_energy": -11.102, "internal_energy": -0.824}

$$$$
cand_049_out
     RDKit          3D

 47 49  0  0  0  0  0  0  0  0999 V2000
   18.5260  -34.1100   39.1960 C   0  0  0  0  0  0  0  0  0  0  0  0
   18.5770  -34.0280   37.6760 C   0  0  0  0  0  0  0  0  0  0  0  0
   19.3090  -32.7910   37.2040 C   0  0  0  0  0  0  0  0  0  0  0  0
   19.6540  -31.8220   38.1690 C   0  0  0  0  0  0  0  0  0  0  0  0
   20.3690  -30.6630   37.8360 C   0  0  0  0  0  0  0  0  0  0  0  0
   20.6800  -29.6630   38.8800 C   0  0  0  0  0  0  0  0  0  0  0  0
   21.8060  -29.9930   39.6260 O   0  0  0  0  0  0  0  0  0  0  0  0
   22.2080  -29.1500   40.6290 C   0  0  0  0  0  0  0  0  0  0  0  0
   23.3340  -29.5280   41.3610 C   0  0  0  0  0  0  0  0  0  0  0  0
   23.7980  -28.7140   42.3970 C   0  0  0  0  0  0  0  0  0  0  0  0
   23.1360  -27.5220   42.7000 C   0  0  0  0  0  0  0  0  0  0  0  0
   22.0130  -27.1470   41.9680 C   0  0  0  0  0  0  0  0  0  0  0  0
   21.4130  -25.9680   42.3170 O   0  0  0  0  0  0  0  0  0  0  0  0
   21.5490  -27.9630   40.9320 C   0  0  0  0  0  0  0  0  0  0  0  0
   20.3710  -27.6060   40.1390 C   0  0  0  0  0  0  0  0  0  0  0  0
   19.7400  -26.5710   40.3400 O   0  0  0  0  0  0  0  0  0  0  0  0
   19.9570  -28.5430   39.0680 C   0  0  0  0  0  0  0  0  0  0  0  0
   18.8520  -28.1880   38.3160 O   0  0  0  0  0  0  0  0  0  0  0  0
   20.7340  -30.4720   36.5010 C   0  0  0  0  0  0  0  0  0  0  0  0
   20.4060  -31.4230   35.5320 C   0  0  0  0  0  0  0  0  0  0  0  0
   19.6940  -32.5880   35.8640 C   0  0  0  0  0  0  0  0  0  0  0  0
   19.3660  -33.5680   34.7550 C   0  0  0  0  0  0  0  0  0  0  0  0
   20.3620  -33.5380   33.5780 C   0  0  0  0  0  0  0  0  0  0  0  0
   20.8190  -34.9400   33.1670 C   0  0  0  0  0  0  0  0  0  0  0  0
   19.7210  -32.8350   32.3770 C   0  0  0  0  0  0  0  0  0  0  0  0
   19.0603  -33.2509   39.6277 H   0  0  0  0  0  0  0  0  0  0  0  0
   17.4777  -34.0948   39.5291 H   0  0  0  0  0  0  0  0  0  0  0  0
   19.0031  -35.0435   39.5291 H   0  0  0  0  0  0  0  0  0  0  0  0
   19.0950  -34.9177   37.2887 H   0  0  0  0  0  0  0  0  0  0  0  0
   17.5439  -33.9775   37.3016 H   0  0  0  0  0  0  0  0  0  0  0  0
   19.3528  -31.9805   39.2150 H   0  0  0  0  0  0  0  0  0  0  0  0
   23.8560  -30.4664   41.1224 H   0  0  0  0  0  0  0  0  0  0  0  0
   24.6854  -29.0120   42.9747 H   0  0  0  0  0  0  0  0  0  0  0  0
   23.5014  -26.8807   43.5156 H   0  0  0  0  0  0  0  0  0  0  0  0
   20.5050  -25.9550   42.5480 H   0  0  0  0  0  0  0  0  0  0  0  0
   18.0180  -28.0820   38.7310 H   0  0  0  0  0  0  0  0  0  0  0  0
   21.2844  -29.5650   36.2106 H   0  0  0  0  0  0  0  0  0  0  0  0
   20.7111  -31.2566   34.4883 H   0  0  0  0  0  0  0  0  0  0  0  0
   19.3625  -34.5827   35.1797 H   0  0  0  0  0  0  0  0  0  0  0  0
   18.3858  -33.2753   34.3506 H   0  0  0  0  0  0  0  0  0  0  0  0
   21.2513  -32.9846   33.9138 H   0  0  0  0  0  0  0  0  0  0  0  0
   21.0148  -35.5405   34.0676 H   0  0  0  0  0  0  0  0  0  0  0  0
   20.0314  -35.4218   32.5690 H   0  0  0  0  0  0  0  0  0  0  0  0
   21.7392  -34.8651   32.5690 H   0  0  0  0  0  0  0  0  0  0  0  0
   19.0199  -32.0660   32.7335 H   0  0  0  0  0  0  0  0  0  0  0  0
   20.5051  -32.3620   31.7676 H   0  0  0  0  0  0  0  0  0  0  0  0
   19.1778  -33.5723   31.7676 H   0  0  0  0  0  0  0  0  0  0  0  0
  1  2  1  0
  2  3  1  0
  3  4  2  0
  4  5  1  0
  5  6  1  0
  6  7  1  0
  7  8  1  0
  8  9  2  0
  9 10  1  0
 10 11  2  0
 11 12  1  0
 12 13  1  0
 12 14  2  0
 14 15  1  0
 15 16  2  0
 15 17  1  0
 17 18  1  0
  5 19  2  0
 19 20  1  0
 20 21  2  0
 21 22  1  0
 22 23  1  0
 23 24  1  0
 23 25  1  0
 21  3  1  0
 17  6  2  0
 14  8  1  0
  1 26  1  0
  1 27  1  0
  1 28  1  0
  2 29  1  0
  2 30  1  0
  4 31  1  0
  9 32  1  0
 10 33  1  0
 11 34  1  0
 13 35  1  0
 18 36  1  0
 19 37  1  0
 20 38  1  0
 22 39  1  0
 22 40  1  0
 23 41  1  0
 24 42  1  0
 24 43  1  0
 24 44  1  0
 25 45  1  0
 25 46  1  0
 25 47  1  0
M  END
>  <meeko>  (7) 
{"is_sidechain": [false], "free_energy": -8.33, "intermolecular_energy": -10.872, "internal_energy": -0.759}

$$$$
cand_049_out
     RDKit          3D

 47 49  0  0  0  0  0  0  0  0999 V2000
   18.6270  -32.3070   39.7180 C   0  0  0  0  0  0  0  0  0  0  0  0
   19.6500  -32.3780   38.5910 C   0  0  0  0  0  0  0  0  0  0  0  0
   20.4300  -31.0890   38.4580 C   0  0  0  0  0  0  0  0  0  0  0  0
   20.8810  -30.4670   39.6400 C   0  0  0  0  0  0  0  0  0  0  0  0
   21.6460  -29.2920   39.6170 C   0  0  0  0  0  0  0  0  0  0  0  0
   22.0690  -28.6630   40.8870 C   0  0  0  0  0  0  0  0  0  0  0  0
   21.2680  -27.5860   41.2490 O   0  0  0  0  0  0  0  0  0  0  0  0
   21.5490  -26.9090   42.4070 C   0  0  0  0  0  0  0  0  0  0  0  0
   20.7280  -25.8270   42.7240 C   0  0  0  0  0  0  0  0  0  0  0  0
   20.9580  -25.0950   43.8920 C   0  0  0  0  0  0  0  0  0  0  0  0
   22.0080  -25.4470   44.7420 C   0  0  0  0  0  0  0  0  0  0  0  0
   22.8260  -26.5280   44.4240 C   0  0  0  0  0  0  0  0  0  0  0  0
   23.8350  -26.8190   45.3000 O   0  0  0  0  0  0  0  0  0  0  0  0
   22.5950  -27.2590   43.2550 C   0  0  0  0  0  0  0  0  0  0  0  0
   23.4310  -28.4020   42.8830 C   0  0  0  0  0  0  0  0  0  0  0  0
   24.3690  -28.7770   43.5830 O   0  0  0  0  0  0  0  0  0  0  0  0
   23.1080  -29.1050   41.6200 C   0  0  0  0  0  0  0  0  0  0  0  0
   23.8960  -30.1920   41.2860 O   0  0  0  0  0  0  0  0  0  0  0  0
   21.9550  -28.7290   38.3770 C   0  0  0  0  0  0  0  0  0  0  0  0
   21.5220  -29.3330   37.1940 C   0  0  0  0  0  0  0  0  0  0  0  0
   20.7590  -30.5130   37.2140 C   0  0  0  0  0  0  0  0  0  0  0  0
   20.3170  -31.1030   35.8900 C   0  0  0  0  0  0  0  0  0  0  0  0
   20.4250  -30.1260   34.7020 C   0  0  0  0  0  0  0  0  0  0  0  0
   20.3670  -30.8440   33.3520 C   0  0  0  0  0  0  0  0  0  0  0  0
   19.2990  -29.0910   34.7810 C   0  0  0  0  0  0  0  0  0  0  0  0
   19.1461  -32.3430   40.6872 H   0  0  0  0  0  0  0  0  0  0  0  0
   18.0604  -31.3674   39.6402 H   0  0  0  0  0  0  0  0  0  0  0  0
   17.9360  -33.1593   39.6402 H   0  0  0  0  0  0  0  0  0  0  0  0
   20.3520  -33.1991   38.7986 H   0  0  0  0  0  0  0  0  0  0  0  0
   19.1090  -32.5489   37.6486 H   0  0  0  0  0  0  0  0  0  0  0  0
   20.6249  -30.9173   40.6104 H   0  0  0  0  0  0  0  0  0  0  0  0
   19.8999  -25.5500   42.0550 H   0  0  0  0  0  0  0  0  0  0  0  0
   20.3113  -24.2409   44.1418 H   0  0  0  0  0  0  0  0  0  0  0  0
   22.1889  -24.8712   45.6616 H   0  0  0  0  0  0  0  0  0  0  0  0
   24.7220  -26.6130   45.0780 H   0  0  0  0  0  0  0  0  0  0  0  0
   24.8020  -30.2040   41.5250 H   0  0  0  0  0  0  0  0  0  0  0  0
   22.5447  -27.8015   38.3313 H   0  0  0  0  0  0  0  0  0  0  0  0
   21.7834  -28.8761   36.2281 H   0  0  0  0  0  0  0  0  0  0  0  0
   20.9451  -31.9801   35.6750 H   0  0  0  0  0  0  0  0  0  0  0  0
   19.2527  -31.3604   35.9952 H   0  0  0  0  0  0  0  0  0  0  0  0
   21.4043  -29.6300   34.7719 H   0  0  0  0  0  0  0  0  0  0  0  0
   20.2794  -31.9281   33.5167 H   0  0  0  0  0  0  0  0  0  0  0  0
   19.4947  -30.4877   32.7844 H   0  0  0  0  0  0  0  0  0  0  0  0
   21.2852  -30.6324   32.7844 H   0  0  0  0  0  0  0  0  0  0  0  0
   19.0688  -28.8794   35.8356 H   0  0  0  0  0  0  0  0  0  0  0  0
   19.6175  -28.1639   34.2821 H   0  0  0  0  0  0  0  0  0  0  0  0
   18.4019  -29.4863   34.2821 H   0  0  0  0  0  0  0  0  0  0  0  0
  1  2  1  0
  2  3  1  0
  3  4  2  0
  4  5  1  0
  5  6  1  0
  6  7  1  0
  7  8  1  0
  8  9  2  0
  9 10  1  0
 10 11  2  0
 11 12  1  0
 12 13  1  0
 12 14  2  0
 14 15  1  0
 15 16  2  0
 15 17  1  0
 17 18  1  0
  5 19  2  0
 19 20  1  0
 20 21  2  0
 21 22  1  0
 22 23  1  0
 23 24  1  0
 23 25  1  0
 21  3  1  0
 17  6  2  0
 14  8  1  0
  1 26  1  0
  1 27  1  0
  1 28  1  0
  2 29  1  0
  2 30  1  0
  4 31  1  0
  9 32  1  0
 10 33  1  0
 11 34  1  0
 13 35  1  0
 18 36  1  0
 19 37  1  0
 20 38  1  0
 22 39  1  0
 22 40  1  0
 23 41  1  0
 24 42  1  0
 24 43  1  0
 24 44  1  0
 25 45  1  0
 25 46  1  0
 25 47  1  0
M  END
>  <meeko>  (8) 
{"is_sidechain": [false], "free_energy": -8.274, "intermolecular_energy": -10.938, "internal_energy": -0.621}

$$$$
cand_049_out
     RDKit          3D

 47 49  0  0  0  0  0  0  0  0999 V2000
   23.2910  -28.7920   41.8030 C   0  0  0  0  0  0  0  0  0  0  0  0
   22.2900  -27.6900   42.1240 C   0  0  0  0  0  0  0  0  0  0  0  0
   21.1060  -27.7140   41.1820 C   0  0  0  0  0  0  0  0  0  0  0  0
   21.0330  -28.7630   40.2430 C   0  0  0  0  0  0  0  0  0  0  0  0
   19.9540  -28.8930   39.3560 C   0  0  0  0  0  0  0  0  0  0  0  0
   19.9400  -29.9950   38.3700 C   0  0  0  0  0  0  0  0  0  0  0  0
   19.2940  -31.1330   38.8410 O   0  0  0  0  0  0  0  0  0  0  0  0
   19.2080  -32.2320   38.0270 C   0  0  0  0  0  0  0  0  0  0  0  0
   18.5640  -33.3560   38.5450 C   0  0  0  0  0  0  0  0  0  0  0  0
   18.4390  -34.5090   37.7670 C   0  0  0  0  0  0  0  0  0  0  0  0
   18.9590  -34.5380   36.4710 C   0  0  0  0  0  0  0  0  0  0  0  0
   19.6010  -33.4150   35.9560 C   0  0  0  0  0  0  0  0  0  0  0  0
   20.0850  -33.5110   34.6800 O   0  0  0  0  0  0  0  0  0  0  0  0
   19.7250  -32.2620   36.7350 C   0  0  0  0  0  0  0  0  0  0  0  0
   20.3930  -31.0600   36.2320 C   0  0  0  0  0  0  0  0  0  0  0  0
   20.8690  -31.0060   35.1000 O   0  0  0  0  0  0  0  0  0  0  0  0
   20.4780  -29.8930   37.1410 C   0  0  0  0  0  0  0  0  0  0  0  0
   21.0990  -28.7590   36.6500 O   0  0  0  0  0  0  0  0  0  0  0  0
   18.9350  -27.9410   39.4110 C   0  0  0  0  0  0  0  0  0  0  0  0
   18.9870  -26.8970   40.3380 C   0  0  0  0  0  0  0  0  0  0  0  0
   20.0640  -26.7660   41.2310 C   0  0  0  0  0  0  0  0  0  0  0  0
   20.0540  -25.6010   42.2000 C   0  0  0  0  0  0  0  0  0  0  0  0
   20.7160  -24.3220   41.6480 C   0  0  0  0  0  0  0  0  0  0  0  0
   19.6990  -23.3660   41.0190 C   0  0  0  0  0  0  0  0  0  0  0  0
   21.4680  -23.6040   42.7720 C   0  0  0  0  0  0  0  0  0  0  0  0
   23.6790  -29.2191   42.7395 H   0  0  0  0  0  0  0  0  0  0  0  0
   22.7937  -29.5803   41.2188 H   0  0  0  0  0  0  0  0  0  0  0  0
   24.1233  -28.3725   41.2188 H   0  0  0  0  0  0  0  0  0  0  0  0
   21.9284  -27.8265   43.1539 H   0  0  0  0  0  0  0  0  0  0  0  0
   22.7990  -26.7217   42.0086 H   0  0  0  0  0  0  0  0  0  0  0  0
   21.8469  -29.5020   40.2047 H   0  0  0  0  0  0  0  0  0  0  0  0
   18.1548  -33.3340   39.5658 H   0  0  0  0  0  0  0  0  0  0  0  0
   17.9306  -35.3950   38.1752 H   0  0  0  0  0  0  0  0  0  0  0  0
   18.8615  -35.4464   35.8584 H   0  0  0  0  0  0  0  0  0  0  0  0
   19.4920  -33.5570   33.9560 H   0  0  0  0  0  0  0  0  0  0  0  0
   22.0300  -28.6690   36.7150 H   0  0  0  0  0  0  0  0  0  0  0  0
   18.0834  -28.0132   38.7184 H   0  0  0  0  0  0  0  0  0  0  0  0
   18.1684  -26.1629   40.3694 H   0  0  0  0  0  0  0  0  0  0  0  0
   19.0086  -25.3688   42.4514 H   0  0  0  0  0  0  0  0  0  0  0  0
   20.6411  -25.9108   43.0771 H   0  0  0  0  0  0  0  0  0  0  0  0
   21.4158  -24.6288   40.8567 H   0  0  0  0  0  0  0  0  0  0  0  0
   19.1450  -22.8452   41.8139 H   0  0  0  0  0  0  0  0  0  0  0  0
   20.2258  -22.6285   40.3956 H   0  0  0  0  0  0  0  0  0  0  0  0
   18.9955  -23.9374   40.3956 H   0  0  0  0  0  0  0  0  0  0  0  0
   21.0974  -23.9578   43.7454 H   0  0  0  0  0  0  0  0  0  0  0  0
   22.5436  -23.8188   42.6890 H   0  0  0  0  0  0  0  0  0  0  0  0
   21.3032  -22.5196   42.6890 H   0  0  0  0  0  0  0  0  0  0  0  0
  1  2  1  0
  2  3  1  0
  3  4  2  0
  4  5  1  0
  5  6  1  0
  6  7  1  0
  7  8  1  0
  8  9  2  0
  9 10  1  0
 10 11  2  0
 11 12  1  0
 12 13  1  0
 12 14  2  0
 14 15  1  0
 15 16  2  0
 15 17  1  0
 17 18  1  0
  5 19  2  0
 19 20  1  0
 20 21  2  0
 21 22  1  0
 22 23  1  0
 23 24  1  0
 23 25  1  0
 21  3  1  0
 17  6  2  0
 14  8  1  0
  1 26  1  0
  1 27  1  0
  1 28  1  0
  2 29  1  0
  2 30  1  0
  4 31  1  0
  9 32  1  0
 10 33  1  0
 11 34  1  0
 13 35  1  0
 18 36  1  0
 19 37  1  0
 20 38  1  0
 22 39  1  0
 22 40  1  0
 23 41  1  0
 24 42  1  0
 24 43  1  0
 24 44  1  0
 25 45  1  0
 25 46  1  0
 25 47  1  0
M  END
>  <meeko>  (9) 
{"is_sidechain": [false], "free_energy": -8.231, "intermolecular_energy": -10.601, "internal_energy": -0.902}

$$$$
