cand_050_out
     RDKit          3D

 38 40  0  0  0  0  0  0  0  0999 V2000
   23.1580  -26.8150   44.9340 C   0  0  0  0  0  0  0  0  0  0  0  0
   24.0080  -26.8400   43.6720 C   0  0  0  0  0  0  0  0  0  0  0  0
   23.3980  -27.7110   42.5950 C   0  0  0  0  0  0  0  0  0  0  0  0
   22.3690  -27.1680   41.8060 C   0  0  0  0  0  0  0  0  0  0  0  0
   21.7580  -27.9220   40.8020 C   0  0  0  0  0  0  0  0  0  0  0  0
   22.1580  -29.2380   40.5520 C   0  0  0  0  0  0  0  0  0  0  0  0
   21.4860  -30.0250   39.4970 C   0  0  0  0  0  0  0  0  0  0  0  0
   20.6650  -31.0250   40.0060 O   0  0  0  0  0  0  0  0  0  0  0  0
   19.9820  -31.8300   39.1310 C   0  0  0  0  0  0  0  0  0  0  0  0
   19.1820  -32.8310   39.6840 C   0  0  0  0  0  0  0  0  0  0  0  0
   18.4560  -33.6840   38.8500 C   0  0  0  0  0  0  0  0  0  0  0  0
   18.5310  -33.5360   37.4640 C   0  0  0  0  0  0  0  0  0  0  0  0
   19.3300  -32.5370   36.9140 C   0  0  0  0  0  0  0  0  0  0  0  0
   19.3560  -32.4490   35.5480 O   0  0  0  0  0  0  0  0  0  0  0  0
   20.0560  -31.6840   37.7490 C   0  0  0  0  0  0  0  0  0  0  0  0
   20.9070  -30.6220   37.2120 C   0  0  0  0  0  0  0  0  0  0  0  0
   21.0200  -30.4230   36.0050 O   0  0  0  0  0  0  0  0  0  0  0  0
   21.6410  -29.7770   38.1830 C   0  0  0  0  0  0  0  0  0  0  0  0
   22.4330  -28.7670   37.6690 O   0  0  0  0  0  0  0  0  0  0  0  0
   23.1740  -29.7870   41.3490 C   0  0  0  0  0  0  0  0  0  0  0  0
   23.8040  -29.0450   42.3710 C   0  0  0  0  0  0  0  0  0  0  0  0
   24.9040  -29.7000   43.1770 C   0  0  0  0  0  0  0  0  0  0  0  0
   25.6760  -28.8150   43.8720 F   0  0  0  0  0  0  0  0  0  0  0  0
   25.7770  -30.4100   42.4060 F   0  0  0  0  0  0  0  0  0  0  0  0
   24.4250  -30.5750   44.1040 F   0  0  0  0  0  0  0  0  0  0  0  0
   23.8129  -26.8343   45.8176 H   0  0  0  0  0  0  0  0  0  0  0  0
   22.5498  -25.8986   44.9483 H   0  0  0  0  0  0  0  0  0  0  0  0
   22.4969  -27.6941   44.9483 H   0  0  0  0  0  0  0  0  0  0  0  0
   24.1030  -25.8138   43.2874 H   0  0  0  0  0  0  0  0  0  0  0  0
   24.9908  -27.2598   43.9325 H   0  0  0  0  0  0  0  0  0  0  0  0
   22.0401  -26.1332   41.9822 H   0  0  0  0  0  0  0  0  0  0  0  0
   20.9525  -27.4752   40.2007 H   0  0  0  0  0  0  0  0  0  0  0  0
   19.1234  -32.9480   40.7762 H   0  0  0  0  0  0  0  0  0  0  0  0
   17.8249  -34.4727   39.2854 H   0  0  0  0  0  0  0  0  0  0  0  0
   17.9594  -34.2079   36.8069 H   0  0  0  0  0  0  0  0  0  0  0  0
   19.4080  -31.6110   35.1340 H   0  0  0  0  0  0  0  0  0  0  0  0
   22.0410  -28.0570   37.2000 H   0  0  0  0  0  0  0  0  0  0  0  0
   23.4887  -30.8261   41.1721 H   0  0  0  0  0  0  0  0  0  0  0  0
  1  2  1  0
  2  3  1  0
  3  4  2  0
  4  5  1  0
  5  6  2  0
  6  7  1  0
  7  8  1  0
  8  9  1  0
  9 10  2  0
 10 11  1  0
 11 12  2  0
 12 13  1  0
 13 14  1  0
 13 15  2  0
 15 16  1  0
 16 17  2  0
 16 18  1  0
 18 19  1  0
  6 20  1  0
 20 21  2  0
 21 22  1  0
 22 23  1  0
 22 24  1  0
 22 25  1  0
 21  3  1  0
 18  7  2  0
 15  9  1  0
  1 26  1  0
  1 27  1  0
  1 28  1  0
  2 29  1  0
  2 30  1  0
  4 31  1  0
  5 32  1  0
 10 33  1  0
 11 34  1  0
 12 35  1  0
 14 36  1  0
 19 37  1  0
 20 38  1  0
M  END
>  <meeko>  (1) 
{"is_sidechain": [false], "free_energy": -10.071, "intermolecular_energy": -12.426, "internal_energy": -0.259}

$$$$
cand_050_out
     RDKit          3D

 38 40  0  0  0  0  0  0  0  0999 V2000
   23.7560  -27.6670   43.2630 C   0  0  0  0  0  0  0  0  0  0  0  0
   22.7350  -26.9930   42.3570 C   0  0  0  0  0  0  0  0  0  0  0  0
   22.1140  -27.9680   41.3790 C   0  0  0  0  0  0  0  0  0  0  0  0
   22.9120  -29.0180   40.8930 C   0  0  0  0  0  0  0  0  0  0  0  0
   22.4030  -29.9460   39.9810 C   0  0  0  0  0  0  0  0  0  0  0  0
   21.0830  -29.8550   39.5310 C   0  0  0  0  0  0  0  0  0  0  0  0
   20.5690  -30.8370   38.5520 C   0  0  0  0  0  0  0  0  0  0  0  0
   20.1040  -32.0040   39.1480 O   0  0  0  0  0  0  0  0  0  0  0  0
   19.6000  -32.9990   38.3500 C   0  0  0  0  0  0  0  0  0  0  0  0
   19.1580  -34.1580   38.9880 C   0  0  0  0  0  0  0  0  0  0  0  0
   18.6310  -35.2100   38.2350 C   0  0  0  0  0  0  0  0  0  0  0  0
   18.5450  -35.1010   36.8460 C   0  0  0  0  0  0  0  0  0  0  0  0
   18.9870  -33.9430   36.2110 C   0  0  0  0  0  0  0  0  0  0  0  0
   18.8750  -33.9040   34.8480 O   0  0  0  0  0  0  0  0  0  0  0  0
   19.5160  -32.8910   36.9650 C   0  0  0  0  0  0  0  0  0  0  0  0
   19.9910  -31.6580   36.3390 C   0  0  0  0  0  0  0  0  0  0  0  0
   19.9430  -31.4830   35.1230 O   0  0  0  0  0  0  0  0  0  0  0  0
   20.5400  -30.6070   37.2260 C   0  0  0  0  0  0  0  0  0  0  0  0
   20.9750  -29.4390   36.6280 O   0  0  0  0  0  0  0  0  0  0  0  0
   20.2900  -28.7980   40.0020 C   0  0  0  0  0  0  0  0  0  0  0  0
   20.7840  -27.8480   40.9220 C   0  0  0  0  0  0  0  0  0  0  0  0
   19.8630  -26.7460   41.3990 C   0  0  0  0  0  0  0  0  0  0  0  0
   18.6230  -26.7850   40.8290 F   0  0  0  0  0  0  0  0  0  0  0  0
   20.3430  -25.4990   41.1310 F   0  0  0  0  0  0  0  0  0  0  0  0
   19.6490  -26.7870   42.7430 F   0  0  0  0  0  0  0  0  0  0  0  0
   23.4868  -27.4893   44.3146 H   0  0  0  0  0  0  0  0  0  0  0  0
   23.7647  -28.7489   43.0645 H   0  0  0  0  0  0  0  0  0  0  0  0
   24.7543  -27.2498   43.0645 H   0  0  0  0  0  0  0  0  0  0  0  0
   21.9389  -26.5592   42.9800 H   0  0  0  0  0  0  0  0  0  0  0  0
   23.2551  -26.2156   41.7780 H   0  0  0  0  0  0  0  0  0  0  0  0
   23.9531  -29.1105   41.2359 H   0  0  0  0  0  0  0  0  0  0  0  0
   23.0484  -30.7573   39.6131 H   0  0  0  0  0  0  0  0  0  0  0  0
   19.2243  -34.2435   40.0827 H   0  0  0  0  0  0  0  0  0  0  0  0
   18.2835  -36.1250   38.7370 H   0  0  0  0  0  0  0  0  0  0  0  0
   18.1285  -35.9290   36.2536 H   0  0  0  0  0  0  0  0  0  0  0  0
   18.9510  -33.0880   34.3950 H   0  0  0  0  0  0  0  0  0  0  0  0
   20.7900  -29.2790   35.7240 H   0  0  0  0  0  0  0  0  0  0  0  0
   19.2538  -28.7068   39.6443 H   0  0  0  0  0  0  0  0  0  0  0  0
  1  2  1  0
  2  3  1  0
  3  4  2  0
  4  5  1  0
  5  6  2  0
  6  7  1  0
  7  8  1  0
  8  9  1  0
  9 10  2  0
 10 11  1  0
 11 12  2  0
 12 13  1  0
 13 14  1  0
 13 15  2  0
 15 16  1  0
 16 17  2  0
 16 18  1  0
 18 19  1  0
  6 20  1  0
 20 21  2  0
 21 22  1  0
 22 23  1  0
 22 24  1  0
 22 25  1  0
 21  3  1  0
 18  7  2  0
 15  9  1  0
  1 26  1  0
  1 27  1  0
  1 28  1  0
  2 29  1  0
  2 30  1  0
  4 31  1  0
  5 32  1  0
 10 33  1  0
 11 34  1  0
 12 35  1  0
 14 36  1  0
 19 37  1  0
 20 38  1  0
M  END
>  <meeko>  (2) 
{"is_sidechain": [false], "free_energy": -9.912, "intermolecular_energy": -11.841, "internal_energy": -0.647}

$$$$
cand_050_out
     RDKit          3D

 38 40  0  0  0  0  0  0  0  0999 V2000
   21.3320  -25.0940   43.8860 C   0  0  0  0  0  0  0  0  0  0  0  0
   22.3340  -25.2370   42.7490 C   0  0  0  0  0  0  0  0  0  0  0  0
   21.9810  -26.3810   41.8230 C   0  0  0  0  0  0  0  0  0  0  0  0
   21.0350  -26.1470   40.8110 C   0  0  0  0  0  0  0  0  0  0  0  0
   20.6580  -27.1630   39.9290 C   0  0  0  0  0  0  0  0  0  0  0  0
   21.2170  -28.4410   40.0300 C   0  0  0  0  0  0  0  0  0  0  0  0
   20.7910  -29.5060   39.0980 C   0  0  0  0  0  0  0  0  0  0  0  0
   20.0520  -30.5070   39.7210 O   0  0  0  0  0  0  0  0  0  0  0  0
   19.5950  -31.5580   38.9680 C   0  0  0  0  0  0  0  0  0  0  0  0
   18.8710  -32.5470   39.6350 C   0  0  0  0  0  0  0  0  0  0  0  0
   18.3740  -33.6440   38.9270 C   0  0  0  0  0  0  0  0  0  0  0  0
   18.6010  -33.7510   37.5540 C   0  0  0  0  0  0  0  0  0  0  0  0
   19.3240  -32.7630   36.8900 C   0  0  0  0  0  0  0  0  0  0  0  0
   19.5100  -32.9310   35.5450 O   0  0  0  0  0  0  0  0  0  0  0  0
   19.8220  -31.6660   37.5990 C   0  0  0  0  0  0  0  0  0  0  0  0
   20.5860  -30.6060   36.9400 C   0  0  0  0  0  0  0  0  0  0  0  0
   20.8220  -30.6250   35.7340 O   0  0  0  0  0  0  0  0  0  0  0  0
   21.0760  -29.4910   37.7830 C   0  0  0  0  0  0  0  0  0  0  0  0
   21.7860  -28.4870   37.1510 O   0  0  0  0  0  0  0  0  0  0  0  0
   22.1500  -28.6800   41.0500 C   0  0  0  0  0  0  0  0  0  0  0  0
   22.5430  -27.6690   41.9530 C   0  0  0  0  0  0  0  0  0  0  0  0
   23.5680  -28.0000   43.0160 C   0  0  0  0  0  0  0  0  0  0  0  0
   24.5230  -27.0370   43.1740 F   0  0  0  0  0  0  0  0  0  0  0  0
   24.2540  -29.1480   42.7550 F   0  0  0  0  0  0  0  0  0  0  0  0
   23.0110  -28.1670   44.2480 F   0  0  0  0  0  0  0  0  0  0  0  0
   21.8575  -25.1690   44.8494 H   0  0  0  0  0  0  0  0  0  0  0  0
   20.8341  -24.1157   43.8151 H   0  0  0  0  0  0  0  0  0  0  0  0
   20.5803  -25.8940   43.8151 H   0  0  0  0  0  0  0  0  0  0  0  0
   22.3490  -24.3024   42.1691 H   0  0  0  0  0  0  0  0  0  0  0  0
   23.3198  -25.4479   43.1892 H   0  0  0  0  0  0  0  0  0  0  0  0
   20.5842  -25.1486   40.7115 H   0  0  0  0  0  0  0  0  0  0  0  0
   19.9133  -26.9554   39.1465 H   0  0  0  0  0  0  0  0  0  0  0  0
   18.6918  -32.4630   40.7170 H   0  0  0  0  0  0  0  0  0  0  0  0
   17.8033  -34.4241   39.4521 H   0  0  0  0  0  0  0  0  0  0  0  0
   18.2093  -34.6148   36.9969 H   0  0  0  0  0  0  0  0  0  0  0  0
   19.9350  -33.7000   35.2240 H   0  0  0  0  0  0  0  0  0  0  0  0
   22.5760  -28.6900   36.6910 H   0  0  0  0  0  0  0  0  0  0  0  0
   22.5879  -29.6842   41.1489 H   0  0  0  0  0  0  0  0  0  0  0  0
  1  2  1  0
  2  3  1  0
  3  4  2  0
  4  5  1  0
  5  6  2  0
  6  7  1  0
  7  8  1  0
  8  9  1  0
  9 10  2  0
 10 11  1  0
 11 12  2  0
 12 13  1  0
 13 14  1  0
 13 15  2  0
 15 16  1  0
 16 17  2  0
 16 18  1  0
 18 19  1  0
  6 20  1  0
 20 21  2  0
 21 22  1  0
 22 23  1  0
 22 24  1  0
 22 25  1  0
 21  3  1  0
 18  7  2  0
 15  9  1  0
  1 26  1  0
  1 27  1  0
  1 28  1  0
  2 29  1  0
  2 30  1  0
  4 31  1  0
  5 32  1  0
 10 33  1  0
 11 34  1  0
 12 35  1  0
 14 36  1  0
 19 37  1  0
 20 38  1  0
M  END
>  <meeko>  (3) 
{"is_sidechain": [false], "free_energy": -9.739, "intermolecular_energy": -11.71, "internal_energy": -0.565}

$$$$
cand_050_out
     RDKit          3D

 38 40  0  0  0  0  0  0  0  0999 V2000
   20.2250  -31.8480   34.7500 C   0  0  0  0  0  0  0  0  0  0  0  0
   19.7610  -32.3020   36.1270 C   0  0  0  0  0  0  0  0  0  0  0  0
   20.1770  -31.3330   37.2130 C   0  0  0  0  0  0  0  0  0  0  0  0
   20.8870  -30.1800   36.8360 C   0  0  0  0  0  0  0  0  0  0  0  0
   21.3090  -29.2510   37.7900 C   0  0  0  0  0  0  0  0  0  0  0  0
   21.0310  -29.4430   39.1470 C   0  0  0  0  0  0  0  0  0  0  0  0
   21.5030  -28.4570   40.1420 C   0  0  0  0  0  0  0  0  0  0  0  0
   22.4220  -28.9900   41.0390 O   0  0  0  0  0  0  0  0  0  0  0  0
   22.9390  -28.1780   42.0170 C   0  0  0  0  0  0  0  0  0  0  0  0
   23.8470  -28.7570   42.9050 C   0  0  0  0  0  0  0  0  0  0  0  0
   24.4130  -27.9860   43.9230 C   0  0  0  0  0  0  0  0  0  0  0  0
   24.0730  -26.6390   44.0510 C   0  0  0  0  0  0  0  0  0  0  0  0
   23.1670  -26.0630   43.1640 C   0  0  0  0  0  0  0  0  0  0  0  0
   22.8780  -24.7380   43.3480 O   0  0  0  0  0  0  0  0  0  0  0  0
   22.5990  -26.8350   42.1460 C   0  0  0  0  0  0  0  0  0  0  0  0
   21.6440  -26.2700   41.1930 C   0  0  0  0  0  0  0  0  0  0  0  0
   21.3000  -25.0910   41.2360 O   0  0  0  0  0  0  0  0  0  0  0  0
   21.0950  -27.1740   40.1560 C   0  0  0  0  0  0  0  0  0  0  0  0
   20.2030  -26.6300   39.2510 O   0  0  0  0  0  0  0  0  0  0  0  0
   20.3380  -30.6020   39.5260 C   0  0  0  0  0  0  0  0  0  0  0  0
   19.9040  -31.5550   38.5800 C   0  0  0  0  0  0  0  0  0  0  0  0
   19.1440  -32.7710   39.0640 C   0  0  0  0  0  0  0  0  0  0  0  0
   19.6970  -33.9550   38.6700 F   0  0  0  0  0  0  0  0  0  0  0  0
   17.8580  -32.8080   38.6160 F   0  0  0  0  0  0  0  0  0  0  0  0
   19.0710  -32.8360   40.4230 F   0  0  0  0  0  0  0  0  0  0  0  0
   21.0073  -31.0826   34.8606 H   0  0  0  0  0  0  0  0  0  0  0  0
   20.6296  -32.7086   34.1972 H   0  0  0  0  0  0  0  0  0  0  0  0
   19.3734  -31.4247   34.1972 H   0  0  0  0  0  0  0  0  0  0  0  0
   18.6639  -32.3822   36.1236 H   0  0  0  0  0  0  0  0  0  0  0  0
   20.2300  -33.2738   36.3405 H   0  0  0  0  0  0  0  0  0  0  0  0
   21.1137  -30.0066   35.7737 H   0  0  0  0  0  0  0  0  0  0  0  0
   21.8664  -28.3582   37.4702 H   0  0  0  0  0  0  0  0  0  0  0  0
   24.1164  -29.8186   42.8033 H   0  0  0  0  0  0  0  0  0  0  0  0
   25.1275  -28.4414   44.6245 H   0  0  0  0  0  0  0  0  0  0  0  0
   24.5203  -26.0323   44.8521 H   0  0  0  0  0  0  0  0  0  0  0  0
   23.5700  -24.1230   43.4870 H   0  0  0  0  0  0  0  0  0  0  0  0
   19.9840  -25.7200   39.2990 H   0  0  0  0  0  0  0  0  0  0  0  0
   20.1266  -30.7731   40.5918 H   0  0  0  0  0  0  0  0  0  0  0  0
  1  2  1  0
  2  3  1  0
  3  4  2  0
  4  5  1  0
  5  6  2  0
  6  7  1  0
  7  8  1  0
  8  9  1  0
  9 10  2  0
 10 11  1  0
 11 12  2  0
 12 13  1  0
 13 14  1  0
 13 15  2  0
 15 16  1  0
 16 17  2  0
 16 18  1  0
 18 19  1  0
  6 20  1  0
 20 21  2  0
 21 22  1  0
 22 23  1  0
 22 24  1  0
 22 25  1  0
 21  3  1  0
 18  7  2  0
 15  9  1  0
  1 26  1  0
  1 27  1  0
  1 28  1  0
  2 29  1  0
  2 30  1  0
  4 31  1  0
  5 32  1  0
 10 33  1  0
 11 34  1  0
 12 35  1  0
 14 36  1  0
 19 37  1  0
 20 38  1  0
M  END
>  <meeko>  (4) 
{"is_sidechain": [false], "free_energy": -9.654, "intermolecular_energy": -11.674, "internal_energy": -0.496}

$$$$
cand_050_out
     RDKit          3D

 38 40  0  0  0  0  0  0  0  0999 V2000
   20.3420  -24.2960   45.2000 C   0  0  0  0  0  0  0  0  0  0  0  0
   21.6320  -25.0340   44.8690 C   0  0  0  0  0  0  0  0  0  0  0  0
   21.4990  -25.8720   43.6160 C   0  0  0  0  0  0  0  0  0  0  0  0
   20.2990  -25.7930   42.8880 C   0  0  0  0  0  0  0  0  0  0  0  0
   20.1090  -26.5470   41.7290 C   0  0  0  0  0  0  0  0  0  0  0  0
   21.1130  -27.4000   41.2590 C   0  0  0  0  0  0  0  0  0  0  0  0
   20.8840  -28.2040   40.0390 C   0  0  0  0  0  0  0  0  0  0  0  0
   20.4810  -29.5060   40.3160 O   0  0  0  0  0  0  0  0  0  0  0  0
   20.2360  -30.3590   39.2710 C   0  0  0  0  0  0  0  0  0  0  0  0
   19.8490  -31.6600   39.5930 C   0  0  0  0  0  0  0  0  0  0  0  0
   19.5810  -32.5800   38.5760 C   0  0  0  0  0  0  0  0  0  0  0  0
   19.6990  -32.1980   37.2390 C   0  0  0  0  0  0  0  0  0  0  0  0
   20.0860  -30.8990   36.9190 C   0  0  0  0  0  0  0  0  0  0  0  0
   20.1820  -30.5920   35.5890 O   0  0  0  0  0  0  0  0  0  0  0  0
   20.3550  -29.9790   37.9370 C   0  0  0  0  0  0  0  0  0  0  0  0
   20.7640  -28.6050   37.6450 C   0  0  0  0  0  0  0  0  0  0  0  0
   20.8840  -28.1910   36.4940 O   0  0  0  0  0  0  0  0  0  0  0  0
   21.0320  -27.7120   38.7950 C   0  0  0  0  0  0  0  0  0  0  0  0
   21.4060  -26.4110   38.5120 O   0  0  0  0  0  0  0  0  0  0  0  0
   22.3040  -27.4930   41.9920 C   0  0  0  0  0  0  0  0  0  0  0  0
   22.5170  -26.7420   43.1680 C   0  0  0  0  0  0  0  0  0  0  0  0
   23.8370  -26.8820   43.8950 C   0  0  0  0  0  0  0  0  0  0  0  0
   23.7030  -27.1560   45.2260 F   0  0  0  0  0  0  0  0  0  0  0  0
   24.5990  -25.7540   43.8350 F   0  0  0  0  0  0  0  0  0  0  0  0
   24.6090  -27.8850   43.3910 F   0  0  0  0  0  0  0  0  0  0  0  0
   20.2270  -24.2302   46.2920 H   0  0  0  0  0  0  0  0  0  0  0  0
   20.3795  -23.2827   44.7736 H   0  0  0  0  0  0  0  0  0  0  0  0
   19.4875  -24.8419   44.7736 H   0  0  0  0  0  0  0  0  0  0  0  0
   22.4348  -24.2969   44.7200 H   0  0  0  0  0  0  0  0  0  0  0  0
   21.8625  -25.7087   45.7066 H   0  0  0  0  0  0  0  0  0  0  0  0
   19.4969  -25.1262   43.2374 H   0  0  0  0  0  0  0  0  0  0  0  0
   19.1594  -26.4696   41.1792 H   0  0  0  0  0  0  0  0  0  0  0  0
   19.7549  -31.9614   40.6467 H   0  0  0  0  0  0  0  0  0  0  0  0
   19.2767  -33.6062   38.8295 H   0  0  0  0  0  0  0  0  0  0  0  0
   19.4866  -32.9221   36.4387 H   0  0  0  0  0  0  0  0  0  0  0  0
   19.7250  -31.1080   34.9560 H   0  0  0  0  0  0  0  0  0  0  0  0
   20.9550  -25.6960   38.9160 H   0  0  0  0  0  0  0  0  0  0  0  0
   23.0958  -28.1710   41.6406 H   0  0  0  0  0  0  0  0  0  0  0  0
  1  2  1  0
  2  3  1  0
  3  4  2  0
  4  5  1  0
  5  6  2  0
  6  7  1  0
  7  8  1  0
  8  9  1  0
  9 10  2  0
 10 11  1  0
 11 12  2  0
 12 13  1  0
 13 14  1  0
 13 15  2  0
 15 16  1  0
 16 17  2  0
 16 18  1  0
 18 19  1  0
  6 20  1  0
 20 21  2  0
 21 22  1  0
 22 23  1  0
 22 24  1  0
 22 25  1  0
 21  3  1  0
 18  7  2  0
 15  9  1  0
  1 26  1  0
  1 27  1  0
  1 28  1  0
  2 29  1  0
  2 30  1  0
  4 31  1  0
  5 32  1  0
 10 33  1  0
 11 34  1  0
 12 35  1  0
 14 36  1  0
 19 37  1  0
 20 38  1  0
M  END
>  <meeko>  (5) 
{"is_sidechain": [false], "free_energy": -9.248, "intermolecular_energy": -11.053, "internal_energy": -0.617}

$$$$
cand_050_out
     RDKit          3D

 38 40  0  0  0  0  0  0  0  0999 V2000
   20.4050  -30.9290   34.9300 C   0  0  0  0  0  0  0  0  0  0  0  0
   20.0040  -31.6820   36.1910 C   0  0  0  0  0  0  0  0  0  0  0  0
   20.4470  -30.9610   37.4460 C   0  0  0  0  0  0  0  0  0  0  0  0
   21.2110  -29.7900   37.3030 C   0  0  0  0  0  0  0  0  0  0  0  0
   21.6600  -29.0830   38.4210 C   0  0  0  0  0  0  0  0  0  0  0  0
   21.3550  -29.5220   39.7140 C   0  0  0  0  0  0  0  0  0  0  0  0
   21.8550  -28.7690   40.8830 C   0  0  0  0  0  0  0  0  0  0  0  0
   21.0160  -27.7240   41.2540 O   0  0  0  0  0  0  0  0  0  0  0  0
   21.3640  -26.9440   42.3270 C   0  0  0  0  0  0  0  0  0  0  0  0
   20.5010  -25.8970   42.6550 C   0  0  0  0  0  0  0  0  0  0  0  0
   20.7950  -25.0650   43.7380 C   0  0  0  0  0  0  0  0  0  0  0  0
   21.9500  -25.2810   44.4920 C   0  0  0  0  0  0  0  0  0  0  0  0
   22.8090  -26.3260   44.1630 C   0  0  0  0  0  0  0  0  0  0  0  0
   23.9220  -26.4800   44.9440 O   0  0  0  0  0  0  0  0  0  0  0  0
   22.5150  -27.1580   43.0780 C   0  0  0  0  0  0  0  0  0  0  0  0
   23.3910  -28.2660   42.6990 C   0  0  0  0  0  0  0  0  0  0  0  0
   24.4220  -28.5250   43.3170 O   0  0  0  0  0  0  0  0  0  0  0  0
   22.9930  -29.0830   41.5290 C   0  0  0  0  0  0  0  0  0  0  0  0
   23.8190  -30.1370   41.1840 O   0  0  0  0  0  0  0  0  0  0  0  0
   20.6070  -30.6990   39.8580 C   0  0  0  0  0  0  0  0  0  0  0  0
   20.1450  -31.4310   38.7420 C   0  0  0  0  0  0  0  0  0  0  0  0
   19.3270  -32.6820   38.9780 C   0  0  0  0  0  0  0  0  0  0  0  0
   19.9460  -33.8270   38.5670 F   0  0  0  0  0  0  0  0  0  0  0  0
   18.1310  -32.6650   38.3250 F   0  0  0  0  0  0  0  0  0  0  0  0
   19.0340  -32.8760   40.2940 F   0  0  0  0  0  0  0  0  0  0  0  0
   20.9053  -29.9895   35.2074 H   0  0  0  0  0  0  0  0  0  0  0  0
   21.0924  -31.5489   34.3357 H   0  0  0  0  0  0  0  0  0  0  0  0
   19.5070  -30.7046   34.3357 H   0  0  0  0  0  0  0  0  0  0  0  0
   18.9092  -31.7869   36.2092 H   0  0  0  0  0  0  0  0  0  0  0  0
   20.4972  -32.6651   36.1715 H   0  0  0  0  0  0  0  0  0  0  0  0
   21.4591  -29.4247   36.2955 H   0  0  0  0  0  0  0  0  0  0  0  0
   22.2598  -28.1713   38.2833 H   0  0  0  0  0  0  0  0  0  0  0  0
   19.5906  -25.7273   42.0614 H   0  0  0  0  0  0  0  0  0  0  0  0
   20.1161  -24.2392   43.9969 H   0  0  0  0  0  0  0  0  0  0  0  0
   22.1810  -24.6262   45.3451 H   0  0  0  0  0  0  0  0  0  0  0  0
   23.8630  -26.3700   45.8710 H   0  0  0  0  0  0  0  0  0  0  0  0
   24.1260  -30.7260   41.8440 H   0  0  0  0  0  0  0  0  0  0  0  0
   20.3732  -31.0629   40.8694 H   0  0  0  0  0  0  0  0  0  0  0  0
  1  2  1  0
  2  3  1  0
  3  4  2  0
  4  5  1  0
  5  6  2  0
  6  7  1  0
  7  8  1  0
  8  9  1  0
  9 10  2  0
 10 11  1  0
 11 12  2  0
 12 13  1  0
 13 14  1  0
 13 15  2  0
 15 16  1  0
 16 17  2  0
 16 18  1  0
 18 19  1  0
  6 20  1  0
 20 21  2  0
 21 22  1  0
 22 23  1  0
 22 24  1  0
 22 25  1  0
 21  3  1  0
 18  7  2  0
 15  9  1  0
  1 26  1  0
  1 27  1  0
  1 28  1  0
  2 29  1  0
  2 30  1  0
  4 31  1  0
  5 32  1  0
 10 33  1  0
 11 34  1  0
 12 35  1  0
 14 36  1  0
 19 37  1  0
 20 38  1  0
M  END
>  <meeko>  (6) 
{"is_sidechain": [false], "free_energy": -9.189, "intermolecular_energy": -10.958, "internal_energy": -0.639}

$$$$
cand_050_out
     RDKit          3D

 38 40  0  0  0  0  0  0  0  0999 V2000
   23.3760  -27.5580   43.0700 C   0  0  0  0  0  0  0  0  0  0  0  0
   22.3900  -26.9350   42.0920 C   0  0  0  0  0  0  0  0  0  0  0  0
   21.8170  -27.9590   41.1350 C   0  0  0  0  0  0  0  0  0  0  0  0
   22.6550  -28.9980   40.6960 C   0  0  0  0  0  0  0  0  0  0  0  0
   22.1910  -29.9700   39.8060 C   0  0  0  0  0  0  0  0  0  0  0  0
   20.8770  -29.9350   39.3310 C   0  0  0  0  0  0  0  0  0  0  0  0
   20.4110  -30.9620   38.3760 C   0  0  0  0  0  0  0  0  0  0  0  0
   20.7360  -30.6620   37.0570 O   0  0  0  0  0  0  0  0  0  0  0  0
   20.3610  -31.5350   36.0680 C   0  0  0  0  0  0  0  0  0  0  0  0
   20.6940  -31.1880   34.7580 C   0  0  0  0  0  0  0  0  0  0  0  0
   20.3440  -32.0350   33.7030 C   0  0  0  0  0  0  0  0  0  0  0  0
   19.6630  -33.2260   33.9590 C   0  0  0  0  0  0  0  0  0  0  0  0
   19.3320  -33.5700   35.2670 C   0  0  0  0  0  0  0  0  0  0  0  0
   18.6640  -34.7510   35.4450 O   0  0  0  0  0  0  0  0  0  0  0  0
   19.6810  -32.7220   36.3220 C   0  0  0  0  0  0  0  0  0  0  0  0
   19.3520  -33.0460   37.7110 C   0  0  0  0  0  0  0  0  0  0  0  0
   18.7600  -34.0790   38.0170 O   0  0  0  0  0  0  0  0  0  0  0  0
   19.7610  -32.0780   38.7540 C   0  0  0  0  0  0  0  0  0  0  0  0
   19.4580  -32.3970   40.0650 O   0  0  0  0  0  0  0  0  0  0  0  0
   20.0440  -28.8890   39.7550 C   0  0  0  0  0  0  0  0  0  0  0  0
   20.4920  -27.8950   40.6520 C   0  0  0  0  0  0  0  0  0  0  0  0
   19.5290  -26.8080   41.0780 C   0  0  0  0  0  0  0  0  0  0  0  0
   19.9930  -25.5450   40.8510 F   0  0  0  0  0  0  0  0  0  0  0  0
   19.2350  -26.8500   42.4080 F   0  0  0  0  0  0  0  0  0  0  0  0
   18.3350  -26.8820   40.4270 F   0  0  0  0  0  0  0  0  0  0  0  0
   23.0502  -27.3521   44.1003 H   0  0  0  0  0  0  0  0  0  0  0  0
   23.4154  -28.6453   42.9083 H   0  0  0  0  0  0  0  0  0  0  0  0
   24.3749  -27.1268   42.9083 H   0  0  0  0  0  0  0  0  0  0  0  0
   21.5656  -26.4797   42.6604 H   0  0  0  0  0  0  0  0  0  0  0  0
   22.9291  -26.1808   41.5000 H   0  0  0  0  0  0  0  0  0  0  0  0
   23.6924  -29.0469   41.0586 H   0  0  0  0  0  0  0  0  0  0  0  0
   22.8675  -30.7719   39.4754 H   0  0  0  0  0  0  0  0  0  0  0  0
   21.2310  -30.2495   34.5562 H   0  0  0  0  0  0  0  0  0  0  0  0
   20.6055  -31.7627   32.6698 H   0  0  0  0  0  0  0  0  0  0  0  0
   19.3880  -33.8924   33.1282 H   0  0  0  0  0  0  0  0  0  0  0  0
   18.2540  -35.1720   34.7160 H   0  0  0  0  0  0  0  0  0  0  0  0
   19.3710  -33.2940   40.3200 H   0  0  0  0  0  0  0  0  0  0  0  0
   19.0118  -28.8418   39.3777 H   0  0  0  0  0  0  0  0  0  0  0  0
  1  2  1  0
  2  3  1  0
  3  4  2  0
  4  5  1  0
  5  6  2  0
  6  7  1  0
  7  8  1  0
  8  9  1  0
  9 10  2  0
 10 11  1  0
 11 12  2  0
 12 13  1  0
 13 14  1  0
 13 15  2  0
 15 16  1  0
 16 17  2  0
 16 18  1  0
 18 19  1  0
  6 20  1  0
 20 21  2  0
 21 22  1  0
 22 23  1  0
 22 24  1  0
 22 25  1  0
 21  3  1  0
 18  7  2  0
 15  9  1  0
  1 26  1  0
  1 27  1  0
  1 28  1  0
  2 29  1  0
  2 30  1  0
  4 31  1  0
  5 32  1  0
 10 33  1  0
 11 34  1  0
 12 35  1  0
 14 36  1  0
 19 37  1  0
 20 38  1  0
M  END
>  <meeko>  (7) 
{"is_sidechain": [false], "free_energy": -9.189, "intermolecular_energy": -10.934, "internal_energy": -0.662}

$$$$
cand_050_out
     RDKit          3D

 38 40  0  0  0  0  0  0  0  0999 V2000
   19.9890  -24.7930   40.6940 C   0  0  0  0  0  0  0  0  0  0  0  0
   19.7710  -26.0770   41.4820 C   0  0  0  0  0  0  0  0  0  0  0  0
   19.7810  -27.2990   40.5900 C   0  0  0  0  0  0  0  0  0  0  0  0
   18.6400  -27.5620   39.8130 C   0  0  0  0  0  0  0  0  0  0  0  0
   18.5820  -28.6780   38.9750 C   0  0  0  0  0  0  0  0  0  0  0  0
   19.6610  -29.5620   38.8850 C   0  0  0  0  0  0  0  0  0  0  0  0
   19.5720  -30.7470   38.0070 C   0  0  0  0  0  0  0  0  0  0  0  0
   20.0400  -30.5040   36.7200 O   0  0  0  0  0  0  0  0  0  0  0  0
   20.0120  -31.5230   35.8020 C   0  0  0  0  0  0  0  0  0  0  0  0
   20.4770  -31.2320   34.5190 C   0  0  0  0  0  0  0  0  0  0  0  0
   20.4790  -32.2250   33.5370 C   0  0  0  0  0  0  0  0  0  0  0  0
   20.0170  -33.5070   33.8380 C   0  0  0  0  0  0  0  0  0  0  0  0
   19.5530  -33.7960   35.1190 C   0  0  0  0  0  0  0  0  0  0  0  0
   19.1150  -35.0720   35.3450 O   0  0  0  0  0  0  0  0  0  0  0  0
   19.5510  -32.8010   36.1020 C   0  0  0  0  0  0  0  0  0  0  0  0
   19.0720  -33.0620   37.4590 C   0  0  0  0  0  0  0  0  0  0  0  0
   18.6570  -34.1660   37.8040 O   0  0  0  0  0  0  0  0  0  0  0  0
   19.1050  -31.9390   38.4230 C   0  0  0  0  0  0  0  0  0  0  0  0
   18.6630  -32.1960   39.7080 O   0  0  0  0  0  0  0  0  0  0  0  0
   20.7950  -29.3100   39.6720 C   0  0  0  0  0  0  0  0  0  0  0  0
   20.8750  -28.1890   40.5270 C   0  0  0  0  0  0  0  0  0  0  0  0
   22.1390  -27.9740   41.3320 C   0  0  0  0  0  0  0  0  0  0  0  0
   23.1050  -28.9080   41.0940 F   0  0  0  0  0  0  0  0  0  0  0  0
   21.9250  -28.0120   42.6770 F   0  0  0  0  0  0  0  0  0  0  0  0
   22.7230  -26.7700   41.0780 F   0  0  0  0  0  0  0  0  0  0  0  0
   20.1314  -23.9544   41.3915 H   0  0  0  0  0  0  0  0  0  0  0  0
   20.8821  -24.8987   40.0605 H   0  0  0  0  0  0  0  0  0  0  0  0
   19.1111  -24.5980   40.0605 H   0  0  0  0  0  0  0  0  0  0  0  0
   20.5728  -26.1758   42.2285 H   0  0  0  0  0  0  0  0  0  0  0  0
   18.7838  -26.0163   41.9635 H   0  0  0  0  0  0  0  0  0  0  0  0
   17.7796  -26.8787   39.8655 H   0  0  0  0  0  0  0  0  0  0  0  0
   17.6764  -28.8634   38.3788 H   0  0  0  0  0  0  0  0  0  0  0  0
   20.8415  -30.2217   34.2813 H   0  0  0  0  0  0  0  0  0  0  0  0
   20.8451  -31.9964   32.5252 H   0  0  0  0  0  0  0  0  0  0  0  0
   20.0193  -34.2887   33.0641 H   0  0  0  0  0  0  0  0  0  0  0  0
   19.4570  -35.5640   36.0640 H   0  0  0  0  0  0  0  0  0  0  0  0
   19.2730  -32.4610   40.3680 H   0  0  0  0  0  0  0  0  0  0  0  0
   21.6458  -30.0054   39.6215 H   0  0  0  0  0  0  0  0  0  0  0  0
  1  2  1  0
  2  3  1  0
  3  4  2  0
  4  5  1  0
  5  6  2  0
  6  7  1  0
  7  8  1  0
  8  9  1  0
  9 10  2  0
 10 11  1  0
 11 12  2  0
 12 13  1  0
 13 14  1  0
 13 15  2  0
 15 16  1  0
 16 17  2  0
 16 18  1  0
 18 19  1  0
  6 20  1  0
 20 21  2  0
 21 22  1  0
 22 23  1  0
 22 24  1  0
 22 25  1  0
 21  3  1  0
 18  7  2  0
 15  9  1  0
  1 26  1  0
  1 27  1  0
  1 28  1  0
  2 29  1  0
  2 30  1  0
  4 31  1  0
  5 32  1  0
 10 33  1  0
 11 34  1  0
 12 35  1  0
 14 36  1  0
 19 37  1  0
 20 38  1  0
M  END
>  <meeko>  (8) 
{"is_sidechain": [false], "free_energy": -8.857, "intermolecular_energy": -10.459, "internal_energy": -0.727}

$$$$
cand_050_out
     RDKit          3D

 38 40  0  0  0  0  0  0  0  0999 V2000
   19.8490  -34.0320   34.4650 C   0  0  0  0  0  0  0  0  0  0  0  0
   19.0970  -34.1250   35.7850 C   0  0  0  0  0  0  0  0  0  0  0  0
   19.4820  -33.0140   36.7370 C   0  0  0  0  0  0  0  0  0  0  0  0
   19.9030  -31.7890   36.1910 C   0  0  0  0  0  0  0  0  0  0  0  0
   20.2810  -30.7260   37.0140 C   0  0  0  0  0  0  0  0  0  0  0  0
   20.2460  -30.8530   38.4060 C   0  0  0  0  0  0  0  0  0  0  0  0
   20.6680  -29.7220   39.2590 C   0  0  0  0  0  0  0  0  0  0  0  0
   19.6820  -28.7510   39.3980 O   0  0  0  0  0  0  0  0  0  0  0  0
   19.9450  -27.6450   40.1660 C   0  0  0  0  0  0  0  0  0  0  0  0
   18.9340  -26.6890   40.2670 C   0  0  0  0  0  0  0  0  0  0  0  0
   19.1350  -25.5400   41.0350 C   0  0  0  0  0  0  0  0  0  0  0  0
   20.3460  -25.3490   41.7020 C   0  0  0  0  0  0  0  0  0  0  0  0
   21.3540  -26.3040   41.6000 C   0  0  0  0  0  0  0  0  0  0  0  0
   22.5150  -26.0520   42.2790 O   0  0  0  0  0  0  0  0  0  0  0  0
   21.1530  -27.4530   40.8300 C   0  0  0  0  0  0  0  0  0  0  0  0
   22.1850  -28.4810   40.6970 C   0  0  0  0  0  0  0  0  0  0  0  0
   23.2750  -28.3890   41.2590 O   0  0  0  0  0  0  0  0  0  0  0  0
   21.8740  -29.6570   39.8520 C   0  0  0  0  0  0  0  0  0  0  0  0
   22.8500  -30.6310   39.7410 O   0  0  0  0  0  0  0  0  0  0  0  0
   19.8420  -32.0800   38.9530 C   0  0  0  0  0  0  0  0  0  0  0  0
   19.4580  -33.1680   38.1400 C   0  0  0  0  0  0  0  0  0  0  0  0
   19.0160  -34.4540   38.8040 C   0  0  0  0  0  0  0  0  0  0  0  0
   17.9140  -35.0170   38.2280 F   0  0  0  0  0  0  0  0  0  0  0  0
   18.6920  -34.2900   40.1170 F   0  0  0  0  0  0  0  0  0  0  0  0
   19.9780  -35.4180   38.7720 F   0  0  0  0  0  0  0  0  0  0  0  0
   20.9228  -33.8992   34.6633 H   0  0  0  0  0  0  0  0  0  0  0  0
   19.6941  -34.9561   33.8888 H   0  0  0  0  0  0  0  0  0  0  0  0
   19.4736  -33.1734   33.8888 H   0  0  0  0  0  0  0  0  0  0  0  0
   18.0174  -34.0618   35.5837 H   0  0  0  0  0  0  0  0  0  0  0  0
   19.3586  -35.0831   36.2579 H   0  0  0  0  0  0  0  0  0  0  0  0
   19.9352  -31.6658   35.0984 H   0  0  0  0  0  0  0  0  0  0  0  0
   20.6099  -29.7785   36.5623 H   0  0  0  0  0  0  0  0  0  0  0  0
   17.9792  -26.8401   39.7421 H   0  0  0  0  0  0  0  0  0  0  0  0
   18.3386  -24.7853   41.1142 H   0  0  0  0  0  0  0  0  0  0  0  0
   20.5040  -24.4446   42.3079 H   0  0  0  0  0  0  0  0  0  0  0  0
   22.4850  -25.6720   43.1340 H   0  0  0  0  0  0  0  0  0  0  0  0
   23.6560  -30.4380   39.3030 H   0  0  0  0  0  0  0  0  0  0  0  0
   19.8240  -32.1975   40.0466 H   0  0  0  0  0  0  0  0  0  0  0  0
  1  2  1  0
  2  3  1  0
  3  4  2  0
  4  5  1  0
  5  6  2  0
  6  7  1  0
  7  8  1  0
  8  9  1  0
  9 10  2  0
 10 11  1  0
 11 12  2  0
 12 13  1  0
 13 14  1  0
 13 15  2  0
 15 16  1  0
 16 17  2  0
 16 18  1  0
 18 19  1  0
  6 20  1  0
 20 21  2  0
 21 22  1  0
 22 23  1  0
 22 24  1  0
 22 25  1  0
 21  3  1  0
 18  7  2  0
 15  9  1  0
  1 26  1  0
  1 27  1  0
  1 28  1  0
  2 29  1  0
  2 30  1  0
  4 31  1  0
  5 32  1  0
 10 33  1  0
 11 34  1  0
 12 35  1  0
 14 36  1  0
 19 37  1  0
 20 38  1  0
M  END
>  <meeko>  (9) 
{"is_sidechain": [false], "free_energy": -8.682, "intermolecular_energy": -10.434, "internal_energy": -0.537}

$$$$
