cand_023_out
     RDKit          3D

 47 50  0  0  0  0  0  0  0  0999 V2000
   19.5210  -26.9840   41.2600 C   0  0  0  0  0  0  0  0  0  0  0  0
   20.4960  -28.0240   40.7760 C   0  0  0  0  0  0  0  0  0  0  0  0
   20.0880  -28.9580   39.8060 C   0  0  0  0  0  0  0  0  0  0  0  0
   20.9640  -29.9410   39.3230 C   0  0  0  0  0  0  0  0  0  0  0  0
   20.4910  -30.9230   38.3240 C   0  0  0  0  0  0  0  0  0  0  0  0
   20.0390  -32.1040   38.8990 O   0  0  0  0  0  0  0  0  0  0  0  0
   19.5690  -33.1020   38.0860 C   0  0  0  0  0  0  0  0  0  0  0  0
   19.1370  -34.2760   38.7050 C   0  0  0  0  0  0  0  0  0  0  0  0
   18.6450  -35.3310   37.9340 C   0  0  0  0  0  0  0  0  0  0  0  0
   18.5840  -35.2130   36.5440 C   0  0  0  0  0  0  0  0  0  0  0  0
   19.0160  -34.0410   35.9270 C   0  0  0  0  0  0  0  0  0  0  0  0
   18.9290  -33.9920   34.5630 O   0  0  0  0  0  0  0  0  0  0  0  0
   19.5090  -32.9850   36.7000 C   0  0  0  0  0  0  0  0  0  0  0  0
   19.9710  -31.7370   36.0930 C   0  0  0  0  0  0  0  0  0  0  0  0
   19.9430  -31.5550   34.8770 O   0  0  0  0  0  0  0  0  0  0  0  0
   20.4810  -30.6820   36.9990 C   0  0  0  0  0  0  0  0  0  0  0  0
   20.9040  -29.5020   36.4150 O   0  0  0  0  0  0  0  0  0  0  0  0
   22.2630  -29.9850   39.8410 C   0  0  0  0  0  0  0  0  0  0  0  0
   22.6800  -29.0600   40.8030 C   0  0  0  0  0  0  0  0  0  0  0  0
   21.8080  -28.0720   41.2860 C   0  0  0  0  0  0  0  0  0  0  0  0
   22.2080  -27.1180   42.2470 N   0  0  0  0  0  0  0  0  0  0  0  0
   23.1080  -27.6640   43.2750 C   0  0  0  0  0  0  0  0  0  0  0  0
   23.2860  -26.6250   44.3830 C   0  0  0  0  0  0  0  0  0  0  0  0
   23.7890  -25.2980   43.8170 C   0  0  0  0  0  0  0  0  0  0  0  0
   22.8890  -24.8110   42.6820 C   0  0  0  0  0  0  0  0  0  0  0  0
   22.7120  -25.8890   41.6130 C   0  0  0  0  0  0  0  0  0  0  0  0
   19.5116  -26.9739   42.3599 H   0  0  0  0  0  0  0  0  0  0  0  0
   19.8247  -25.9948   40.8869 H   0  0  0  0  0  0  0  0  0  0  0  0
   18.5143  -27.2234   40.8869 H   0  0  0  0  0  0  0  0  0  0  0  0
   19.0595  -28.9163   39.4180 H   0  0  0  0  0  0  0  0  0  0  0  0
   19.1841  -34.3701   39.8000 H   0  0  0  0  0  0  0  0  0  0  0  0
   18.3050  -36.2562   38.4222 H   0  0  0  0  0  0  0  0  0  0  0  0
   18.1955  -36.0441   35.9371 H   0  0  0  0  0  0  0  0  0  0  0  0
   18.8210  -34.7820   34.0720 H   0  0  0  0  0  0  0  0  0  0  0  0
   21.4120  -28.8900   36.9100 H   0  0  0  0  0  0  0  0  0  0  0  0
   22.9638  -30.7557   39.4876 H   0  0  0  0  0  0  0  0  0  0  0  0
   23.7093  -29.1074   41.1880 H   0  0  0  0  0  0  0  0  0  0  0  0
   22.6726  -28.5820   43.6966 H   0  0  0  0  0  0  0  0  0  0  0  0
   24.0843  -27.9006   42.8268 H   0  0  0  0  0  0  0  0  0  0  0  0
   22.3185  -26.4601   44.8796 H   0  0  0  0  0  0  0  0  0  0  0  0
   24.0293  -27.0030   45.1003 H   0  0  0  0  0  0  0  0  0  0  0  0
   23.7967  -24.5447   44.6186 H   0  0  0  0  0  0  0  0  0  0  0  0
   24.8038  -25.4483   43.4200 H   0  0  0  0  0  0  0  0  0  0  0  0
   21.9031  -24.5490   43.0936 H   0  0  0  0  0  0  0  0  0  0  0  0
   23.3614  -23.9337   42.2160 H   0  0  0  0  0  0  0  0  0  0  0  0
   21.9922  -25.5429   40.8566 H   0  0  0  0  0  0  0  0  0  0  0  0
   23.6781  -26.0918   41.1277 H   0  0  0  0  0  0  0  0  0  0  0  0
  1  2  1  0
  2  3  2  0
  3  4  1  0
  4  5  1  0
  5  6  1  0
  6  7  1  0
  7  8  2  0
  8  9  1  0
  9 10  2  0
 10 11  1  0
 11 12  1  0
 11 13  2  0
 13 14  1  0
 14 15  2  0
 14 16  1  0
 16 17  1  0
  4 18  2  0
 18 19  1  0
 19 20  2  0
 20 21  1  0
 21 22  1  0
 22 23  1  0
 23 24  1  0
 24 25  1  0
 25 26  1  0
 20  2  1  0
 26 21  1  0
 16  5  2  0
 13  7  1  0
  1 27  1  0
  1 28  1  0
  1 29  1  0
  3 30  1  0
  8 31  1  0
  9 32  1  0
 10 33  1  0
 12 34  1  0
 17 35  1  0
 18 36  1  0
 19 37  1  0
 22 38  1  0
 22 39  1  0
 23 40  1  0
 23 41  1  0
 24 42  1  0
 24 43  1  0
 25 44  1  0
 25 45  1  0
 26 46  1  0
 26 47  1  0
M  END
>  <meeko>  (1) 
{"is_sidechain": [false], "free_energy": -9.719, "intermolecular_energy": -11.423, "internal_energy": -0.572}

$$$$
cand_023_out
     RDKit          3D

 47 50  0  0  0  0  0  0  0  0999 V2000
   23.8320  -29.4450   41.6420 C   0  0  0  0  0  0  0  0  0  0  0  0
   22.5420  -29.1900   40.9100 C   0  0  0  0  0  0  0  0  0  0  0  0
   22.0640  -30.1470   39.9950 C   0  0  0  0  0  0  0  0  0  0  0  0
   20.8640  -29.9540   39.2940 C   0  0  0  0  0  0  0  0  0  0  0  0
   20.4080  -30.9680   38.3210 C   0  0  0  0  0  0  0  0  0  0  0  0
   19.9790  -32.1440   38.9270 O   0  0  0  0  0  0  0  0  0  0  0  0
   19.5260  -33.1710   38.1400 C   0  0  0  0  0  0  0  0  0  0  0  0
   19.1190  -34.3360   38.7900 C   0  0  0  0  0  0  0  0  0  0  0  0
   18.6460  -35.4190   38.0470 C   0  0  0  0  0  0  0  0  0  0  0  0
   18.5800  -35.3380   36.6540 C   0  0  0  0  0  0  0  0  0  0  0  0
   18.9880  -34.1740   36.0070 C   0  0  0  0  0  0  0  0  0  0  0  0
   18.8980  -34.1610   34.6420 O   0  0  0  0  0  0  0  0  0  0  0  0
   19.4620  -33.0900   36.7520 C   0  0  0  0  0  0  0  0  0  0  0  0
   19.9000  -31.8480   36.1130 C   0  0  0  0  0  0  0  0  0  0  0  0
   19.8660  -31.6980   34.8920 O   0  0  0  0  0  0  0  0  0  0  0  0
   20.3910  -30.7620   36.9910 C   0  0  0  0  0  0  0  0  0  0  0  0
   20.7900  -29.5880   36.3760 O   0  0  0  0  0  0  0  0  0  0  0  0
   20.1510  -28.7700   39.5140 C   0  0  0  0  0  0  0  0  0  0  0  0
   20.6160  -27.8140   40.4220 C   0  0  0  0  0  0  0  0  0  0  0  0
   21.8130  -28.0050   41.1290 C   0  0  0  0  0  0  0  0  0  0  0  0
   22.2960  -27.0630   42.0610 N   0  0  0  0  0  0  0  0  0  0  0  0
   21.9450  -25.6740   41.7260 C   0  0  0  0  0  0  0  0  0  0  0  0
   22.7090  -24.7290   42.6550 C   0  0  0  0  0  0  0  0  0  0  0  0
   22.4340  -25.0590   44.1220 C   0  0  0  0  0  0  0  0  0  0  0  0
   22.7100  -26.5330   44.4120 C   0  0  0  0  0  0  0  0  0  0  0  0
   21.9540  -27.4410   43.4420 C   0  0  0  0  0  0  0  0  0  0  0  0
   23.6514  -29.4093   42.7265 H   0  0  0  0  0  0  0  0  0  0  0  0
   24.2195  -30.4371   41.3673 H   0  0  0  0  0  0  0  0  0  0  0  0
   24.5679  -28.6749   41.3673 H   0  0  0  0  0  0  0  0  0  0  0  0
   22.6440  -31.0663   39.8259 H   0  0  0  0  0  0  0  0  0  0  0  0
   19.1707  -34.4013   39.8868 H   0  0  0  0  0  0  0  0  0  0  0  0
   18.3247  -36.3378   38.5594 H   0  0  0  0  0  0  0  0  0  0  0  0
   18.2066  -36.1917   36.0693 H   0  0  0  0  0  0  0  0  0  0  0  0
   18.9690  -33.3520   34.1760 H   0  0  0  0  0  0  0  0  0  0  0  0
   21.4150  -29.6150   35.6790 H   0  0  0  0  0  0  0  0  0  0  0  0
   19.2142  -28.5895   38.9664 H   0  0  0  0  0  0  0  0  0  0  0  0
   20.0330  -26.8956   40.5851 H   0  0  0  0  0  0  0  0  0  0  0  0
   22.2197  -25.4660   40.6814 H   0  0  0  0  0  0  0  0  0  0  0  0
   20.8626  -25.5237   41.8516 H   0  0  0  0  0  0  0  0  0  0  0  0
   23.7871  -24.8277   42.4604 H   0  0  0  0  0  0  0  0  0  0  0  0
   22.3738  -23.6998   42.4594 H   0  0  0  0  0  0  0  0  0  0  0  0
   23.0833  -24.4394   44.7580 H   0  0  0  0  0  0  0  0  0  0  0  0
   21.3750  -24.8519   44.3354 H   0  0  0  0  0  0  0  0  0  0  0  0
   23.7891  -26.7218   44.3124 H   0  0  0  0  0  0  0  0  0  0  0  0
   22.3686  -26.7557   45.4337 H   0  0  0  0  0  0  0  0  0  0  0  0
   22.2405  -28.4882   43.6188 H   0  0  0  0  0  0  0  0  0  0  0  0
   20.8709  -27.3299   43.5988 H   0  0  0  0  0  0  0  0  0  0  0  0
  1  2  1  0
  2  3  2  0
  3  4  1  0
  4  5  1  0
  5  6  1  0
  6  7  1  0
  7  8  2  0
  8  9  1  0
  9 10  2  0
 10 11  1  0
 11 12  1  0
 11 13  2  0
 13 14  1  0
 14 15  2  0
 14 16  1  0
 16 17  1  0
  4 18  2  0
 18 19  1  0
 19 20  2  0
 20 21  1  0
 21 22  1  0
 22 23  1  0
 23 24  1  0
 24 25  1  0
 25 26  1  0
 20  2  1  0
 26 21  1  0
 16  5  2  0
 13  7  1  0
  1 27  1  0
  1 28  1  0
  1 29  1  0
  3 30  1  0
  8 31  1  0
  9 32  1  0
 10 33  1  0
 12 34  1  0
 17 35  1  0
 18 36  1  0
 19 37  1  0
 22 38  1  0
 22 39  1  0
 23 40  1  0
 23 41  1  0
 24 42  1  0
 24 43  1  0
 25 44  1  0
 25 45  1  0
 26 46  1  0
 26 47  1  0
M  END
>  <meeko>  (2) 
{"is_sidechain": [false], "free_energy": -9.713, "intermolecular_energy": -11.587, "internal_energy": -0.401}

$$$$
cand_023_out
     RDKit          3D

 47 50  0  0  0  0  0  0  0  0999 V2000
   22.3670  -28.3200   41.1030 C   0  0  0  0  0  0  0  0  0  0  0  0
   21.0890  -28.4880   40.3250 C   0  0  0  0  0  0  0  0  0  0  0  0
   20.9030  -29.6390   39.5390 C   0  0  0  0  0  0  0  0  0  0  0  0
   19.7260  -29.8400   38.8020 C   0  0  0  0  0  0  0  0  0  0  0  0
   19.5780  -31.0490   37.9650 C   0  0  0  0  0  0  0  0  0  0  0  0
   20.0390  -30.8670   36.6660 O   0  0  0  0  0  0  0  0  0  0  0  0
   19.9640  -31.9110   35.7820 C   0  0  0  0  0  0  0  0  0  0  0  0
   20.4260  -31.6800   34.4850 C   0  0  0  0  0  0  0  0  0  0  0  0
   20.3790  -32.7020   33.5360 C   0  0  0  0  0  0  0  0  0  0  0  0
   19.8700  -33.9560   33.8810 C   0  0  0  0  0  0  0  0  0  0  0  0
   19.4080  -34.1850   35.1750 C   0  0  0  0  0  0  0  0  0  0  0  0
   18.9230  -35.4350   35.4470 O   0  0  0  0  0  0  0  0  0  0  0  0
   19.4560  -33.1610   36.1260 C   0  0  0  0  0  0  0  0  0  0  0  0
   18.9830  -33.3590   37.4970 C   0  0  0  0  0  0  0  0  0  0  0  0
   18.5270  -34.4350   37.8790 O   0  0  0  0  0  0  0  0  0  0  0  0
   19.0700  -32.2080   38.4240 C   0  0  0  0  0  0  0  0  0  0  0  0
   18.6320  -32.4110   39.7210 O   0  0  0  0  0  0  0  0  0  0  0  0
   18.7350  -28.8540   38.8540 C   0  0  0  0  0  0  0  0  0  0  0  0
   18.9090  -27.7060   39.6350 C   0  0  0  0  0  0  0  0  0  0  0  0
   20.0830  -27.5040   40.3760 C   0  0  0  0  0  0  0  0  0  0  0  0
   20.2770  -26.3620   41.1830 N   0  0  0  0  0  0  0  0  0  0  0  0
   19.9190  -25.1020   40.5120 C   0  0  0  0  0  0  0  0  0  0  0  0
   20.3860  -23.9290   41.3740 C   0  0  0  0  0  0  0  0  0  0  0  0
   19.8070  -24.0180   42.7850 C   0  0  0  0  0  0  0  0  0  0  0  0
   20.1080  -25.3780   43.4150 C   0  0  0  0  0  0  0  0  0  0  0  0
   19.6550  -26.5220   42.5080 C   0  0  0  0  0  0  0  0  0  0  0  0
   22.1469  -28.3489   42.1804 H   0  0  0  0  0  0  0  0  0  0  0  0
   23.0610  -29.1346   40.8485 H   0  0  0  0  0  0  0  0  0  0  0  0
   22.8269  -27.3537   40.8485 H   0  0  0  0  0  0  0  0  0  0  0  0
   21.6977  -30.3986   39.5010 H   0  0  0  0  0  0  0  0  0  0  0  0
   20.8269  -30.6929   34.2113 H   0  0  0  0  0  0  0  0  0  0  0  0
   20.7435  -32.5196   32.5143 H   0  0  0  0  0  0  0  0  0  0  0  0
   19.8340  -34.7612   33.1324 H   0  0  0  0  0  0  0  0  0  0  0  0
   18.0620  -35.6740   35.1670 H   0  0  0  0  0  0  0  0  0  0  0  0
   19.1110  -32.0450   40.4390 H   0  0  0  0  0  0  0  0  0  0  0  0
   17.8088  -28.9825   38.2746 H   0  0  0  0  0  0  0  0  0  0  0  0
   18.1116  -26.9490   39.6685 H   0  0  0  0  0  0  0  0  0  0  0  0
   20.4098  -25.0554   39.5287 H   0  0  0  0  0  0  0  0  0  0  0  0
   18.8289  -25.0510   40.3741 H   0  0  0  0  0  0  0  0  0  0  0  0
   21.4842  -23.9429   41.4349 H   0  0  0  0  0  0  0  0  0  0  0  0
   20.0360  -22.9945   40.9112 H   0  0  0  0  0  0  0  0  0  0  0  0
   20.2514  -23.2270   43.4069 H   0  0  0  0  0  0  0  0  0  0  0  0
   18.7158  -23.8930   42.7250 H   0  0  0  0  0  0  0  0  0  0  0  0
   21.1916  -25.4626   43.5846 H   0  0  0  0  0  0  0  0  0  0  0  0
   19.5589  -25.4498   44.3654 H   0  0  0  0  0  0  0  0  0  0  0  0
   19.9628  -27.4831   42.9457 H   0  0  0  0  0  0  0  0  0  0  0  0
   18.5597  -26.5038   42.4077 H   0  0  0  0  0  0  0  0  0  0  0  0
  1  2  1  0
  2  3  2  0
  3  4  1  0
  4  5  1  0
  5  6  1  0
  6  7  1  0
  7  8  2  0
  8  9  1  0
  9 10  2  0
 10 11  1  0
 11 12  1  0
 11 13  2  0
 13 14  1  0
 14 15  2  0
 14 16  1  0
 16 17  1  0
  4 18  2  0
 18 19  1  0
 19 20  2  0
 20 21  1  0
 21 22  1  0
 22 23  1  0
 23 24  1  0
 24 25  1  0
 25 26  1  0
 20  2  1  0
 26 21  1  0
 16  5  2  0
 13  7  1  0
  1 27  1  0
  1 28  1  0
  1 29  1  0
  3 30  1  0
  8 31  1  0
  9 32  1  0
 10 33  1  0
 12 34  1  0
 17 35  1  0
 18 36  1  0
 19 37  1  0
 22 38  1  0
 22 39  1  0
 23 40  1  0
 23 41  1  0
 24 42  1  0
 24 43  1  0
 25 44  1  0
 25 45  1  0
 26 46  1  0
 26 47  1  0
M  END
>  <meeko>  (3) 
{"is_sidechain": [false], "free_energy": -9.384, "intermolecular_energy": -10.943, "internal_energy": -0.659}

$$$$
cand_023_out
     RDKit          3D

 47 50  0  0  0  0  0  0  0  0999 V2000
   22.4380  -27.9360   41.5410 C   0  0  0  0  0  0  0  0  0  0  0  0
   21.1810  -28.0800   40.7250 C   0  0  0  0  0  0  0  0  0  0  0  0
   20.9770  -29.2490   39.9690 C   0  0  0  0  0  0  0  0  0  0  0  0
   19.8190  -29.4280   39.1980 C   0  0  0  0  0  0  0  0  0  0  0  0
   19.6520  -30.6580   38.3940 C   0  0  0  0  0  0  0  0  0  0  0  0
   19.2520  -31.7500   39.1550 O   0  0  0  0  0  0  0  0  0  0  0  0
   19.0580  -32.9570   38.5340 C   0  0  0  0  0  0  0  0  0  0  0  0
   18.6700  -34.0290   39.3380 C   0  0  0  0  0  0  0  0  0  0  0  0
   18.4540  -35.2850   38.7680 C   0  0  0  0  0  0  0  0  0  0  0  0
   18.6250  -35.4700   37.3940 C   0  0  0  0  0  0  0  0  0  0  0  0
   19.0130  -34.3990   36.5940 C   0  0  0  0  0  0  0  0  0  0  0  0
   19.1630  -34.6480   35.2570 O   0  0  0  0  0  0  0  0  0  0  0  0
   19.2300  -33.1410   37.1650 C   0  0  0  0  0  0  0  0  0  0  0  0
   19.6370  -31.9890   36.3600 C   0  0  0  0  0  0  0  0  0  0  0  0
   19.8020  -32.0700   35.1440 O   0  0  0  0  0  0  0  0  0  0  0  0
   19.8470  -30.7020   37.0630 C   0  0  0  0  0  0  0  0  0  0  0  0
   20.2190  -29.6170   36.2900 O   0  0  0  0  0  0  0  0  0  0  0  0
   18.8650  -28.4050   39.1850 C   0  0  0  0  0  0  0  0  0  0  0  0
   19.0570  -27.2400   39.9350 C   0  0  0  0  0  0  0  0  0  0  0  0
   20.2120  -27.0580   40.7110 C   0  0  0  0  0  0  0  0  0  0  0  0
   20.4230  -25.8990   41.4880 N   0  0  0  0  0  0  0  0  0  0  0  0
   20.0840  -24.6520   40.7840 C   0  0  0  0  0  0  0  0  0  0  0  0
   20.5690  -23.4640   41.6160 C   0  0  0  0  0  0  0  0  0  0  0  0
   19.9870  -23.5080   43.0290 C   0  0  0  0  0  0  0  0  0  0  0  0
   20.2680  -24.8550   43.6930 C   0  0  0  0  0  0  0  0  0  0  0  0
   19.7990  -26.0160   42.8160 C   0  0  0  0  0  0  0  0  0  0  0  0
   22.1857  -27.9649   42.6113 H   0  0  0  0  0  0  0  0  0  0  0  0
   23.1256  -28.7613   41.3040 H   0  0  0  0  0  0  0  0  0  0  0  0
   22.9211  -26.9766   41.3040 H   0  0  0  0  0  0  0  0  0  0  0  0
   21.7419  -30.0394   39.9829 H   0  0  0  0  0  0  0  0  0  0  0  0
   18.5344  -33.8848   40.4200 H   0  0  0  0  0  0  0  0  0  0  0  0
   18.1486  -36.1305   39.4020 H   0  0  0  0  0  0  0  0  0  0  0  0
   18.4535  -36.4596   36.9453 H   0  0  0  0  0  0  0  0  0  0  0  0
   19.1040  -33.9460   34.6400 H   0  0  0  0  0  0  0  0  0  0  0  0
   19.7940  -28.7910   36.4090 H   0  0  0  0  0  0  0  0  0  0  0  0
   17.9542  -28.5179   38.5786 H   0  0  0  0  0  0  0  0  0  0  0  0
   18.2891  -26.4526   39.9162 H   0  0  0  0  0  0  0  0  0  0  0  0
   20.5755  -24.6385   39.8000 H   0  0  0  0  0  0  0  0  0  0  0  0
   18.9948  -24.5882   40.6439 H   0  0  0  0  0  0  0  0  0  0  0  0
   21.6668  -23.4934   41.6785 H   0  0  0  0  0  0  0  0  0  0  0  0
   20.2344  -22.5362   41.1289 H   0  0  0  0  0  0  0  0  0  0  0  0
   20.4423  -22.7078   43.6310 H   0  0  0  0  0  0  0  0  0  0  0  0
   18.8978  -23.3684   42.9648 H   0  0  0  0  0  0  0  0  0  0  0  0
   21.3502  -24.9506   43.8652 H   0  0  0  0  0  0  0  0  0  0  0  0
   19.7172  -24.8944   44.6444 H   0  0  0  0  0  0  0  0  0  0  0  0
   20.0935  -26.9695   43.2787 H   0  0  0  0  0  0  0  0  0  0  0  0
   18.7041  -25.9854   42.7150 H   0  0  0  0  0  0  0  0  0  0  0  0
  1  2  1  0
  2  3  2  0
  3  4  1  0
  4  5  1  0
  5  6  1  0
  6  7  1  0
  7  8  2  0
  8  9  1  0
  9 10  2  0
 10 11  1  0
 11 12  1  0
 11 13  2  0
 13 14  1  0
 14 15  2  0
 14 16  1  0
 16 17  1  0
  4 18  2  0
 18 19  1  0
 19 20  2  0
 20 21  1  0
 21 22  1  0
 22 23  1  0
 23 24  1  0
 24 25  1  0
 25 26  1  0
 20  2  1  0
 26 21  1  0
 16  5  2  0
 13  7  1  0
  1 27  1  0
  1 28  1  0
  1 29  1  0
  3 30  1  0
  8 31  1  0
  9 32  1  0
 10 33  1  0
 12 34  1  0
 17 35  1  0
 18 36  1  0
 19 37  1  0
 22 38  1  0
 22 39  1  0
 23 40  1  0
 23 41  1  0
 24 42  1  0
 24 43  1  0
 25 44  1  0
 25 45  1  0
 26 46  1  0
 26 47  1  0
M  END
>  <meeko>  (4) 
{"is_sidechain": [false], "free_energy": -9.249, "intermolecular_energy": -10.834, "internal_energy": -0.609}

$$$$
cand_023_out
     RDKit          3D

 47 50  0  0  0  0  0  0  0  0999 V2000
   18.3100  -32.2690   39.3640 C   0  0  0  0  0  0  0  0  0  0  0  0
   19.3900  -31.3500   38.8570 C   0  0  0  0  0  0  0  0  0  0  0  0
   19.8580  -30.3110   39.6810 C   0  0  0  0  0  0  0  0  0  0  0  0
   20.8660  -29.4340   39.2520 C   0  0  0  0  0  0  0  0  0  0  0  0
   21.3130  -28.3370   40.1360 C   0  0  0  0  0  0  0  0  0  0  0  0
   22.2410  -28.7500   41.0840 O   0  0  0  0  0  0  0  0  0  0  0  0
   22.7420  -27.8310   41.9680 C   0  0  0  0  0  0  0  0  0  0  0  0
   23.6620  -28.2920   42.9110 C   0  0  0  0  0  0  0  0  0  0  0  0
   24.2110  -27.4070   43.8400 C   0  0  0  0  0  0  0  0  0  0  0  0
   23.8430  -26.0600   43.8270 C   0  0  0  0  0  0  0  0  0  0  0  0
   22.9240  -25.6010   42.8860 C   0  0  0  0  0  0  0  0  0  0  0  0
   22.6080  -24.2710   42.9290 O   0  0  0  0  0  0  0  0  0  0  0  0
   22.3740  -26.4880   41.9560 C   0  0  0  0  0  0  0  0  0  0  0  0
   21.4070  -26.0480   40.9500 C   0  0  0  0  0  0  0  0  0  0  0  0
   21.0380  -24.8770   40.8710 O   0  0  0  0  0  0  0  0  0  0  0  0
   20.8790  -27.0670   40.0150 C   0  0  0  0  0  0  0  0  0  0  0  0
   19.9750  -26.6370   39.0600 O   0  0  0  0  0  0  0  0  0  0  0  0
   21.3930  -29.6070   37.9680 C   0  0  0  0  0  0  0  0  0  0  0  0
   20.9360  -30.6390   37.1420 C   0  0  0  0  0  0  0  0  0  0  0  0
   19.9310  -31.5210   37.5680 C   0  0  0  0  0  0  0  0  0  0  0  0
   19.4630  -32.5780   36.7590 N   0  0  0  0  0  0  0  0  0  0  0  0
   20.0500  -32.5880   35.4100 C   0  0  0  0  0  0  0  0  0  0  0  0
   19.3080  -33.6130   34.5520 C   0  0  0  0  0  0  0  0  0  0  0  0
   19.3310  -34.9950   35.2030 C   0  0  0  0  0  0  0  0  0  0  0  0
   18.8110  -34.9310   36.6390 C   0  0  0  0  0  0  0  0  0  0  0  0
   19.5570  -33.8730   37.4530 C   0  0  0  0  0  0  0  0  0  0  0  0
   18.3130  -32.2665   40.4640 H   0  0  0  0  0  0  0  0  0  0  0  0
   17.3320  -31.9219   38.9992 H   0  0  0  0  0  0  0  0  0  0  0  0
   18.4961  -33.2899   38.9992 H   0  0  0  0  0  0  0  0  0  0  0  0
   19.4244  -30.1829   40.6838 H   0  0  0  0  0  0  0  0  0  0  0  0
   23.9542  -29.3524   42.9219 H   0  0  0  0  0  0  0  0  0  0  0  0
   24.9349  -27.7712   44.5838 H   0  0  0  0  0  0  0  0  0  0  0  0
   24.2779  -25.3628   44.5583 H   0  0  0  0  0  0  0  0  0  0  0  0
   21.7490  -23.9860   42.6860 H   0  0  0  0  0  0  0  0  0  0  0  0
   20.2690  -26.4480   38.1900 H   0  0  0  0  0  0  0  0  0  0  0  0
   22.1750  -28.9243   37.6041 H   0  0  0  0  0  0  0  0  0  0  0  0
   21.3725  -30.7616   36.1398 H   0  0  0  0  0  0  0  0  0  0  0  0
   19.9532  -31.5897   34.9583 H   0  0  0  0  0  0  0  0  0  0  0  0
   21.1153  -32.8552   35.4702 H   0  0  0  0  0  0  0  0  0  0  0  0
   18.2634  -33.2906   34.4301 H   0  0  0  0  0  0  0  0  0  0  0  0
   19.8088  -33.6787   33.5748 H   0  0  0  0  0  0  0  0  0  0  0  0
   18.6957  -35.6781   34.6202 H   0  0  0  0  0  0  0  0  0  0  0  0
   20.3695  -35.3573   35.2214 H   0  0  0  0  0  0  0  0  0  0  0  0
   17.7401  -34.6805   36.6215 H   0  0  0  0  0  0  0  0  0  0  0  0
   18.9735  -35.9111   37.1113 H   0  0  0  0  0  0  0  0  0  0  0  0
   19.1041  -33.7895   38.4519 H   0  0  0  0  0  0  0  0  0  0  0  0
   20.6132  -34.1620   37.5578 H   0  0  0  0  0  0  0  0  0  0  0  0
  1  2  1  0
  2  3  2  0
  3  4  1  0
  4  5  1  0
  5  6  1  0
  6  7  1  0
  7  8  2  0
  8  9  1  0
  9 10  2  0
 10 11  1  0
 11 12  1  0
 11 13  2  0
 13 14  1  0
 14 15  2  0
 14 16  1  0
 16 17  1  0
  4 18  2  0
 18 19  1  0
 19 20  2  0
 20 21  1  0
 21 22  1  0
 22 23  1  0
 23 24  1  0
 24 25  1  0
 25 26  1  0
 20  2  1  0
 26 21  1  0
 16  5  2  0
 13  7  1  0
  1 27  1  0
  1 28  1  0
  1 29  1  0
  3 30  1  0
  8 31  1  0
  9 32  1  0
 10 33  1  0
 12 34  1  0
 17 35  1  0
 18 36  1  0
 19 37  1  0
 22 38  1  0
 22 39  1  0
 23 40  1  0
 23 41  1  0
 24 42  1  0
 24 43  1  0
 25 44  1  0
 25 45  1  0
 26 46  1  0
 26 47  1  0
M  END
>  <meeko>  (5) 
{"is_sidechain": [false], "free_energy": -8.965, "intermolecular_energy": -11.251, "internal_energy": 0.143}

$$$$
cand_023_out
     RDKit          3D

 47 50  0  0  0  0  0  0  0  0999 V2000
   19.5280  -31.9580   37.7650 C   0  0  0  0  0  0  0  0  0  0  0  0
   20.3590  -30.7050   37.8350 C   0  0  0  0  0  0  0  0  0  0  0  0
   20.9010  -30.3020   39.0690 C   0  0  0  0  0  0  0  0  0  0  0  0
   21.6870  -29.1440   39.1800 C   0  0  0  0  0  0  0  0  0  0  0  0
   22.2160  -28.7370   40.4990 C   0  0  0  0  0  0  0  0  0  0  0  0
   23.1640  -29.6230   40.9970 O   0  0  0  0  0  0  0  0  0  0  0  0
   23.7400  -29.3660   42.2140 C   0  0  0  0  0  0  0  0  0  0  0  0
   24.6760  -30.2890   42.6820 C   0  0  0  0  0  0  0  0  0  0  0  0
   25.3010  -30.0840   43.9130 C   0  0  0  0  0  0  0  0  0  0  0  0
   24.9910  -28.9580   44.6780 C   0  0  0  0  0  0  0  0  0  0  0  0
   24.0550  -28.0380   44.2100 C   0  0  0  0  0  0  0  0  0  0  0  0
   23.7980  -26.9570   45.0080 O   0  0  0  0  0  0  0  0  0  0  0  0
   23.4300  -28.2430   42.9770 C   0  0  0  0  0  0  0  0  0  0  0  0
   22.4420  -27.3020   42.4470 C   0  0  0  0  0  0  0  0  0  0  0  0
   22.1210  -26.2840   43.0580 O   0  0  0  0  0  0  0  0  0  0  0  0
   21.8330  -27.6140   41.1350 C   0  0  0  0  0  0  0  0  0  0  0  0
   20.9110  -26.7100   40.6390 O   0  0  0  0  0  0  0  0  0  0  0  0
   21.9110  -28.3820   38.0290 C   0  0  0  0  0  0  0  0  0  0  0  0
   21.3790  -28.7750   36.7970 C   0  0  0  0  0  0  0  0  0  0  0  0
   20.5960  -29.9340   36.6800 C   0  0  0  0  0  0  0  0  0  0  0  0
   20.0600  -30.3600   35.4460 N   0  0  0  0  0  0  0  0  0  0  0  0
   19.6430  -29.2510   34.5740 C   0  0  0  0  0  0  0  0  0  0  0  0
   18.8680  -29.8180   33.3840 C   0  0  0  0  0  0  0  0  0  0  0  0
   19.6950  -30.8630   32.6370 C   0  0  0  0  0  0  0  0  0  0  0  0
   20.2000  -31.9450   33.5900 C   0  0  0  0  0  0  0  0  0  0  0  0
   20.9390  -31.3350   34.7810 C   0  0  0  0  0  0  0  0  0  0  0  0
   19.2989  -32.3034   38.7839 H   0  0  0  0  0  0  0  0  0  0  0  0
   18.5904  -31.7467   37.2300 H   0  0  0  0  0  0  0  0  0  0  0  0
   20.0874  -32.7396   37.2300 H   0  0  0  0  0  0  0  0  0  0  0  0
   20.7047  -30.9072   39.9663 H   0  0  0  0  0  0  0  0  0  0  0  0
   24.9211  -31.1773   42.0813 H   0  0  0  0  0  0  0  0  0  0  0  0
   26.0395  -30.8113   44.2813 H   0  0  0  0  0  0  0  0  0  0  0  0
   25.4845  -28.7975   45.6479 H   0  0  0  0  0  0  0  0  0  0  0  0
   24.5060  -26.4420   45.3410 H   0  0  0  0  0  0  0  0  0  0  0  0
   20.0540  -27.0010   40.3960 H   0  0  0  0  0  0  0  0  0  0  0  0
   22.5124  -27.4632   38.0935 H   0  0  0  0  0  0  0  0  0  0  0  0
   21.5777  -28.1649   35.9035 H   0  0  0  0  0  0  0  0  0  0  0  0
   18.9991  -28.5603   35.1382 H   0  0  0  0  0  0  0  0  0  0  0  0
   20.5291  -28.7068   34.2153 H   0  0  0  0  0  0  0  0  0  0  0  0
   17.9418  -30.2863   33.7486 H   0  0  0  0  0  0  0  0  0  0  0  0
   18.6382  -28.9943   32.6921 H   0  0  0  0  0  0  0  0  0  0  0  0
   19.0695  -31.3298   31.8618 H   0  0  0  0  0  0  0  0  0  0  0  0
   20.5632  -30.3633   32.1825 H   0  0  0  0  0  0  0  0  0  0  0  0
   19.3421  -32.5257   33.9598 H   0  0  0  0  0  0  0  0  0  0  0  0
   20.9002  -32.5920   33.0412 H   0  0  0  0  0  0  0  0  0  0  0  0
   21.2116  -32.1294   35.4913 H   0  0  0  0  0  0  0  0  0  0  0  0
   21.8527  -30.8318   34.4316 H   0  0  0  0  0  0  0  0  0  0  0  0
  1  2  1  0
  2  3  2  0
  3  4  1  0
  4  5  1  0
  5  6  1  0
  6  7  1  0
  7  8  2  0
  8  9  1  0
  9 10  2  0
 10 11  1  0
 11 12  1  0
 11 13  2  0
 13 14  1  0
 14 15  2  0
 14 16  1  0
 16 17  1  0
  4 18  2  0
 18 19  1  0
 19 20  2  0
 20 21  1  0
 21 22  1  0
 22 23  1  0
 23 24  1  0
 24 25  1  0
 25 26  1  0
 20  2  1  0
 26 21  1  0
 16  5  2  0
 13  7  1  0
  1 27  1  0
  1 28  1  0
  1 29  1  0
  3 30  1  0
  8 31  1  0
  9 32  1  0
 10 33  1  0
 12 34  1  0
 17 35  1  0
 18 36  1  0
 19 37  1  0
 22 38  1  0
 22 39  1  0
 23 40  1  0
 23 41  1  0
 24 42  1  0
 24 43  1  0
 25 44  1  0
 25 45  1  0
 26 46  1  0
 26 47  1  0
M  END
>  <meeko>  (6) 
{"is_sidechain": [false], "free_energy": -8.695, "intermolecular_energy": -10.353, "internal_energy": -0.439}

$$$$
cand_023_out
     RDKit          3D

 47 50  0  0  0  0  0  0  0  0999 V2000
   18.7820  -25.7440   39.0570 C   0  0  0  0  0  0  0  0  0  0  0  0
   19.6940  -26.9420   39.0680 C   0  0  0  0  0  0  0  0  0  0  0  0
   19.6430  -27.8600   38.0040 C   0  0  0  0  0  0  0  0  0  0  0  0
   20.4770  -28.9880   37.9690 C   0  0  0  0  0  0  0  0  0  0  0  0
   20.3760  -29.9450   36.8480 C   0  0  0  0  0  0  0  0  0  0  0  0
   19.9340  -31.2010   37.2480 O   0  0  0  0  0  0  0  0  0  0  0  0
   19.7920  -32.1870   36.3070 C   0  0  0  0  0  0  0  0  0  0  0  0
   19.3590  -33.4350   36.7560 C   0  0  0  0  0  0  0  0  0  0  0  0
   19.1920  -34.4830   35.8480 C   0  0  0  0  0  0  0  0  0  0  0  0
   19.4570  -34.2830   34.4910 C   0  0  0  0  0  0  0  0  0  0  0  0
   19.8900  -33.0360   34.0460 C   0  0  0  0  0  0  0  0  0  0  0  0
   20.1320  -32.9090   32.7050 O   0  0  0  0  0  0  0  0  0  0  0  0
   20.0570  -31.9880   34.9550 C   0  0  0  0  0  0  0  0  0  0  0  0
   20.5090  -30.6630   34.5290 C   0  0  0  0  0  0  0  0  0  0  0  0
   20.7570  -30.4070   33.3520 O   0  0  0  0  0  0  0  0  0  0  0  0
   20.6610  -29.6230   35.5720 C   0  0  0  0  0  0  0  0  0  0  0  0
   21.0760  -28.3710   35.1560 O   0  0  0  0  0  0  0  0  0  0  0  0
   21.3620  -29.1900   39.0340 C   0  0  0  0  0  0  0  0  0  0  0  0
   21.4230  -28.2820   40.0950 C   0  0  0  0  0  0  0  0  0  0  0  0
   20.5930  -27.1510   40.1320 C   0  0  0  0  0  0  0  0  0  0  0  0
   20.6450  -26.2120   41.1840 N   0  0  0  0  0  0  0  0  0  0  0  0
   19.7600  -26.5450   42.3110 C   0  0  0  0  0  0  0  0  0  0  0  0
   19.7140  -25.3580   43.2750 C   0  0  0  0  0  0  0  0  0  0  0  0
   21.1170  -24.9690   43.7360 C   0  0  0  0  0  0  0  0  0  0  0  0
   22.0390  -24.7300   42.5400 C   0  0  0  0  0  0  0  0  0  0  0  0
   22.0310  -25.9250   41.5860 C   0  0  0  0  0  0  0  0  0  0  0  0
   18.5553  -25.4462   40.0914 H   0  0  0  0  0  0  0  0  0  0  0  0
   19.2768  -24.9112   38.5358 H   0  0  0  0  0  0  0  0  0  0  0  0
   17.8476  -25.9993   38.5358 H   0  0  0  0  0  0  0  0  0  0  0  0
   18.9335  -27.6901   37.1807 H   0  0  0  0  0  0  0  0  0  0  0  0
   19.1493  -33.5934   37.8242 H   0  0  0  0  0  0  0  0  0  0  0  0
   18.8513  -35.4672   36.2018 H   0  0  0  0  0  0  0  0  0  0  0  0
   19.3241  -35.1081   33.7758 H   0  0  0  0  0  0  0  0  0  0  0  0
   20.2710  -32.0610   32.3330 H   0  0  0  0  0  0  0  0  0  0  0  0
   21.2490  -27.7010   35.7880 H   0  0  0  0  0  0  0  0  0  0  0  0
   22.0172  -30.0735   39.0362 H   0  0  0  0  0  0  0  0  0  0  0  0
   22.1343  -28.4571   40.9156 H   0  0  0  0  0  0  0  0  0  0  0  0
   18.7476  -26.7548   41.9355 H   0  0  0  0  0  0  0  0  0  0  0  0
   20.1422  -27.4341   42.8339 H   0  0  0  0  0  0  0  0  0  0  0  0
   19.2523  -24.4993   42.7656 H   0  0  0  0  0  0  0  0  0  0  0  0
   19.1242  -25.6473   44.1573 H   0  0  0  0  0  0  0  0  0  0  0  0
   21.0569  -24.0476   44.3338 H   0  0  0  0  0  0  0  0  0  0  0  0
   21.5294  -25.7921   44.3380 H   0  0  0  0  0  0  0  0  0  0  0  0
   21.6980  -23.8359   41.9975 H   0  0  0  0  0  0  0  0  0  0  0  0
   23.0641  -24.5905   42.9138 H   0  0  0  0  0  0  0  0  0  0  0  0
   22.6314  -25.6889   40.6951 H   0  0  0  0  0  0  0  0  0  0  0  0
   22.4598  -26.8038   42.0898 H   0  0  0  0  0  0  0  0  0  0  0  0
  1  2  1  0
  2  3  2  0
  3  4  1  0
  4  5  1  0
  5  6  1  0
  6  7  1  0
  7  8  2  0
  8  9  1  0
  9 10  2  0
 10 11  1  0
 11 12  1  0
 11 13  2  0
 13 14  1  0
 14 15  2  0
 14 16  1  0
 16 17  1  0
  4 18  2  0
 18 19  1  0
 19 20  2  0
 20 21  1  0
 21 22  1  0
 22 23  1  0
 23 24  1  0
 24 25  1  0
 25 26  1  0
 20  2  1  0
 26 21  1  0
 16  5  2  0
 13  7  1  0
  1 27  1  0
  1 28  1  0
  1 29  1  0
  3 30  1  0
  8 31  1  0
  9 32  1  0
 10 33  1  0
 12 34  1  0
 17 35  1  0
 18 36  1  0
 19 37  1  0
 22 38  1  0
 22 39  1  0
 23 40  1  0
 23 41  1  0
 24 42  1  0
 24 43  1  0
 25 44  1  0
 25 45  1  0
 26 46  1  0
 26 47  1  0
M  END
>  <meeko>  (7) 
{"is_sidechain": [false], "free_energy": -8.478, "intermolecular_energy": -10.037, "internal_energy": -0.5}

$$$$
cand_023_out
     RDKit          3D

 47 50  0  0  0  0  0  0  0  0999 V2000
   18.1890  -24.8750   40.2520 C   0  0  0  0  0  0  0  0  0  0  0  0
   19.1850  -25.9790   40.4850 C   0  0  0  0  0  0  0  0  0  0  0  0
   19.1790  -27.1060   39.6430 C   0  0  0  0  0  0  0  0  0  0  0  0
   20.0920  -28.1570   39.8200 C   0  0  0  0  0  0  0  0  0  0  0  0
   20.0370  -29.3380   38.9330 C   0  0  0  0  0  0  0  0  0  0  0  0
   19.3570  -30.4090   39.5010 O   0  0  0  0  0  0  0  0  0  0  0  0
   19.2280  -31.5700   38.7840 C   0  0  0  0  0  0  0  0  0  0  0  0
   18.5500  -32.6230   39.3980 C   0  0  0  0  0  0  0  0  0  0  0  0
   18.3830  -33.8330   38.7210 C   0  0  0  0  0  0  0  0  0  0  0  0
   18.8940  -33.9910   37.4310 C   0  0  0  0  0  0  0  0  0  0  0  0
   19.5720  -32.9380   36.8210 C   0  0  0  0  0  0  0  0  0  0  0  0
   20.0470  -33.1590   35.5570 O   0  0  0  0  0  0  0  0  0  0  0  0
   19.7390  -31.7270   37.4980 C   0  0  0  0  0  0  0  0  0  0  0  0
   20.4430  -30.5960   36.8930 C   0  0  0  0  0  0  0  0  0  0  0  0
   20.9150  -30.6550   35.7590 O   0  0  0  0  0  0  0  0  0  0  0  0
   20.5720  -29.3600   37.6970 C   0  0  0  0  0  0  0  0  0  0  0  0
   21.2280  -28.2930   37.1100 O   0  0  0  0  0  0  0  0  0  0  0  0
   21.0110  -28.0670   40.8710 C   0  0  0  0  0  0  0  0  0  0  0  0
   21.0270  -26.9490   41.7120 C   0  0  0  0  0  0  0  0  0  0  0  0
   20.1180  -25.8950   41.5360 C   0  0  0  0  0  0  0  0  0  0  0  0
   20.1240  -24.7500   42.3620 N   0  0  0  0  0  0  0  0  0  0  0  0
   19.6970  -25.0220   43.7440 C   0  0  0  0  0  0  0  0  0  0  0  0
   19.5110  -23.6930   44.4780 C   0  0  0  0  0  0  0  0  0  0  0  0
   20.7840  -22.8510   44.4200 C   0  0  0  0  0  0  0  0  0  0  0  0
   21.2580  -22.6740   42.9780 C   0  0  0  0  0  0  0  0  0  0  0  0
   21.3990  -24.0220   42.2710 C   0  0  0  0  0  0  0  0  0  0  0  0
   17.8388  -24.4868   41.2198 H   0  0  0  0  0  0  0  0  0  0  0  0
   18.6670  -24.0640   39.6829 H   0  0  0  0  0  0  0  0  0  0  0  0
   17.3333  -25.2673   39.6829 H   0  0  0  0  0  0  0  0  0  0  0  0
   18.4425  -27.1647   38.8280 H   0  0  0  0  0  0  0  0  0  0  0  0
   18.1473  -32.5005   40.4143 H   0  0  0  0  0  0  0  0  0  0  0  0
   17.8478  -34.6633   39.2049 H   0  0  0  0  0  0  0  0  0  0  0  0
   18.7615  -34.9441   36.8981 H   0  0  0  0  0  0  0  0  0  0  0  0
   19.7730  -32.6090   34.8510 H   0  0  0  0  0  0  0  0  0  0  0  0
   20.8950  -27.9180   36.3180 H   0  0  0  0  0  0  0  0  0  0  0  0
   21.7286  -28.8838   41.0379 H   0  0  0  0  0  0  0  0  0  0  0  0
   21.7654  -26.8955   42.5256 H   0  0  0  0  0  0  0  0  0  0  0  0
   18.7457  -25.5743   43.7342 H   0  0  0  0  0  0  0  0  0  0  0  0
   20.4598  -25.6263   44.2567 H   0  0  0  0  0  0  0  0  0  0  0  0
   18.6888  -23.1343   44.0071 H   0  0  0  0  0  0  0  0  0  0  0  0
   19.2797  -23.9051   45.5323 H   0  0  0  0  0  0  0  0  0  0  0  0
   20.5812  -21.8617   44.8560 H   0  0  0  0  0  0  0  0  0  0  0  0
   21.5722  -23.3677   44.9872 H   0  0  0  0  0  0  0  0  0  0  0  0
   20.5270  -22.0583   42.4334 H   0  0  0  0  0  0  0  0  0  0  0  0
   22.2432  -22.1851   42.9936 H   0  0  0  0  0  0  0  0  0  0  0  0
   21.6548  -23.8583   41.2138 H   0  0  0  0  0  0  0  0  0  0  0  0
   22.1959  -24.6097   42.7501 H   0  0  0  0  0  0  0  0  0  0  0  0
  1  2  1  0
  2  3  2  0
  3  4  1  0
  4  5  1  0
  5  6  1  0
  6  7  1  0
  7  8  2  0
  8  9  1  0
  9 10  2  0
 10 11  1  0
 11 12  1  0
 11 13  2  0
 13 14  1  0
 14 15  2  0
 14 16  1  0
 16 17  1  0
  4 18  2  0
 18 19  1  0
 19 20  2  0
 20 21  1  0
 21 22  1  0
 22 23  1  0
 23 24  1  0
 24 25  1  0
 25 26  1  0
 20  2  1  0
 26 21  1  0
 16  5  2  0
 13  7  1  0
  1 27  1  0
  1 28  1  0
  1 29  1  0
  3 30  1  0
  8 31  1  0
  9 32  1  0
 10 33  1  0
 12 34  1  0
 17 35  1  0
 18 36  1  0
 19 37  1  0
 22 38  1  0
 22 39  1  0
 23 40  1  0
 23 41  1  0
 24 42  1  0
 24 43  1  0
 25 44  1  0
 25 45  1  0
 26 46  1  0
 26 47  1  0
M  END
>  <meeko>  (8) 
{"is_sidechain": [false], "free_energy": -8.426, "intermolecular_energy": -9.771, "internal_energy": -0.705}

$$$$
cand_023_out
     RDKit          3D

 47 50  0  0  0  0  0  0  0  0999 V2000
   23.7610  -25.7590   43.4250 C   0  0  0  0  0  0  0  0  0  0  0  0
   22.3710  -25.9540   42.8800 C   0  0  0  0  0  0  0  0  0  0  0  0
   22.1780  -26.7710   41.7520 C   0  0  0  0  0  0  0  0  0  0  0  0
   20.9000  -26.9860   41.2140 C   0  0  0  0  0  0  0  0  0  0  0  0
   20.7390  -27.8290   40.0110 C   0  0  0  0  0  0  0  0  0  0  0  0
   20.4300  -29.1500   40.3150 O   0  0  0  0  0  0  0  0  0  0  0  0
   20.2510  -30.0430   39.2910 C   0  0  0  0  0  0  0  0  0  0  0  0
   19.9550  -31.3610   39.6420 C   0  0  0  0  0  0  0  0  0  0  0  0
   19.7600  -32.3200   38.6470 C   0  0  0  0  0  0  0  0  0  0  0  0
   19.8590  -31.9630   37.3000 C   0  0  0  0  0  0  0  0  0  0  0  0
   20.1550  -30.6470   36.9520 C   0  0  0  0  0  0  0  0  0  0  0  0
   20.2370  -30.3660   35.6160 O   0  0  0  0  0  0  0  0  0  0  0  0
   20.3510  -29.6870   37.9490 C   0  0  0  0  0  0  0  0  0  0  0  0
   20.6620  -28.2940   37.6270 C   0  0  0  0  0  0  0  0  0  0  0  0
   20.7600  -27.9010   36.4650 O   0  0  0  0  0  0  0  0  0  0  0  0
   20.8580  -27.3570   38.7560 C   0  0  0  0  0  0  0  0  0  0  0  0
   21.1390  -26.0400   38.4390 O   0  0  0  0  0  0  0  0  0  0  0  0
   19.8100  -26.3510   41.8200 C   0  0  0  0  0  0  0  0  0  0  0  0
   19.9910  -25.5380   42.9440 C   0  0  0  0  0  0  0  0  0  0  0  0
   21.2680  -25.3240   43.4880 C   0  0  0  0  0  0  0  0  0  0  0  0
   21.4750  -24.5200   44.6290 N   0  0  0  0  0  0  0  0  0  0  0  0
   20.8800  -23.1790   44.5180 C   0  0  0  0  0  0  0  0  0  0  0  0
   21.3610  -22.3220   45.6890 C   0  0  0  0  0  0  0  0  0  0  0  0
   21.0410  -22.9890   47.0260 C   0  0  0  0  0  0  0  0  0  0  0  0
   21.5850  -24.4170   47.0690 C   0  0  0  0  0  0  0  0  0  0  0  0
   21.1070  -25.2290   45.8650 C   0  0  0  0  0  0  0  0  0  0  0  0
   23.7277  -25.7637   44.5245 H   0  0  0  0  0  0  0  0  0  0  0  0
   24.4101  -26.5749   43.0743 H   0  0  0  0  0  0  0  0  0  0  0  0
   24.1606  -24.7960   43.0743 H   0  0  0  0  0  0  0  0  0  0  0  0
   23.0479  -27.2521   41.2810 H   0  0  0  0  0  0  0  0  0  0  0  0
   19.8755  -31.6437   40.7021 H   0  0  0  0  0  0  0  0  0  0  0  0
   19.5279  -33.3590   38.9239 H   0  0  0  0  0  0  0  0  0  0  0  0
   19.7036  -32.7191   36.5163 H   0  0  0  0  0  0  0  0  0  0  0  0
   19.5410  -30.6140   35.0410 H   0  0  0  0  0  0  0  0  0  0  0  0
   22.0100  -25.7930   38.1970 H   0  0  0  0  0  0  0  0  0  0  0  0
   18.7999  -26.4927   41.4080 H   0  0  0  0  0  0  0  0  0  0  0  0
   19.1178  -25.0579   43.4099 H   0  0  0  0  0  0  0  0  0  0  0  0
   21.1902  -22.7153   43.5699 H   0  0  0  0  0  0  0  0  0  0  0  0
   19.7830  -23.2564   44.5404 H   0  0  0  0  0  0  0  0  0  0  0  0
   22.4491  -22.1818   45.6086 H   0  0  0  0  0  0  0  0  0  0  0  0
   20.8426  -21.3526   45.6489 H   0  0  0  0  0  0  0  0  0  0  0  0
   21.4986  -22.4050   47.8381 H   0  0  0  0  0  0  0  0  0  0  0  0
   19.9483  -23.0261   47.1469 H   0  0  0  0  0  0  0  0  0  0  0  0
   22.6844  -24.3821   47.0642 H   0  0  0  0  0  0  0  0  0  0  0  0
   21.2155  -24.9023   47.9844 H   0  0  0  0  0  0  0  0  0  0  0  0
   21.5835  -26.2204   45.8767 H   0  0  0  0  0  0  0  0  0  0  0  0
   20.0148  -25.3514   45.9107 H   0  0  0  0  0  0  0  0  0  0  0  0
  1  2  1  0
  2  3  2  0
  3  4  1  0
  4  5  1  0
  5  6  1  0
  6  7  1  0
  7  8  2  0
  8  9  1  0
  9 10  2  0
 10 11  1  0
 11 12  1  0
 11 13  2  0
 13 14  1  0
 14 15  2  0
 14 16  1  0
 16 17  1  0
  4 18  2  0
 18 19  1  0
 19 20  2  0
 20 21  1  0
 21 22  1  0
 22 23  1  0
 23 24  1  0
 24 25  1  0
 25 26  1  0
 20  2  1  0
 26 21  1  0
 16  5  2  0
 13  7  1  0
  1 27  1  0
  1 28  1  0
  1 29  1  0
  3 30  1  0
  8 31  1  0
  9 32  1  0
 10 33  1  0
 12 34  1  0
 17 35  1  0
 18 36  1  0
 19 37  1  0
 22 38  1  0
 22 39  1  0
 23 40  1  0
 23 41  1  0
 24 42  1  0
 24 43  1  0
 25 44  1  0
 25 45  1  0
 26 46  1  0
 26 47  1  0
M  END
>  <meeko>  (9) 
{"is_sidechain": [false], "free_energy": -8.221, "intermolecular_energy": -9.536, "internal_energy": -0.698}

$$$$
