cand_005_out
     RDKit          3D

 36 38  0  0  0  0  0  0  0  0999 V2000
   24.8380  -30.5960   43.1000 C   0  0  0  0  0  0  0  0  0  0  0  0
   24.6020  -29.2800   43.0480 C   0  0  0  0  0  0  0  0  0  0  0  0
   23.4940  -28.7060   42.2740 C   0  0  0  0  0  0  0  0  0  0  0  0
   22.9010  -29.4830   41.2630 C   0  0  0  0  0  0  0  0  0  0  0  0
   21.8500  -28.9870   40.4750 C   0  0  0  0  0  0  0  0  0  0  0  0
   21.2380  -29.8470   39.4400 C   0  0  0  0  0  0  0  0  0  0  0  0
   20.4670  -30.8720   39.9760 O   0  0  0  0  0  0  0  0  0  0  0  0
   19.8430  -31.7460   39.1220 C   0  0  0  0  0  0  0  0  0  0  0  0
   19.0670  -32.7520   39.7010 C   0  0  0  0  0  0  0  0  0  0  0  0
   18.4070  -33.6750   38.8900 C   0  0  0  0  0  0  0  0  0  0  0  0
   18.5190  -33.5950   37.5000 C   0  0  0  0  0  0  0  0  0  0  0  0
   19.2950  -32.5900   36.9250 C   0  0  0  0  0  0  0  0  0  0  0  0
   19.3630  -32.5700   35.5600 O   0  0  0  0  0  0  0  0  0  0  0  0
   19.9550  -31.6660   37.7380 C   0  0  0  0  0  0  0  0  0  0  0  0
   20.7790  -30.5950   37.1730 C   0  0  0  0  0  0  0  0  0  0  0  0
   20.9340  -30.4620   35.9620 O   0  0  0  0  0  0  0  0  0  0  0  0
   21.4320  -29.6620   38.1210 C   0  0  0  0  0  0  0  0  0  0  0  0
   22.2200  -28.6640   37.5800 O   0  0  0  0  0  0  0  0  0  0  0  0
   21.3870  -27.6920   40.7260 C   0  0  0  0  0  0  0  0  0  0  0  0
   21.9710  -26.9060   41.7240 C   0  0  0  0  0  0  0  0  0  0  0  0
   23.0300  -27.3980   42.5070 C   0  0  0  0  0  0  0  0  0  0  0  0
   23.6290  -26.5250   43.5850 C   0  0  0  0  0  0  0  0  0  0  0  0
   23.6360  -27.1170   44.8110 F   0  0  0  0  0  0  0  0  0  0  0  0
   22.9600  -25.3470   43.7560 F   0  0  0  0  0  0  0  0  0  0  0  0
   24.9200  -26.1690   43.3270 F   0  0  0  0  0  0  0  0  0  0  0  0
   25.6805  -30.9807   43.6935 H   0  0  0  0  0  0  0  0  0  0  0  0
   24.1895  -31.2933   42.5493 H   0  0  0  0  0  0  0  0  0  0  0  0
   25.2637  -28.6018   43.6067 H   0  0  0  0  0  0  0  0  0  0  0  0
   23.2694  -30.5041   41.0852 H   0  0  0  0  0  0  0  0  0  0  0  0
   18.9763  -32.8165   40.7954 H   0  0  0  0  0  0  0  0  0  0  0  0
   17.7966  -34.4682   39.3463 H   0  0  0  0  0  0  0  0  0  0  0  0
   17.9966  -34.3226   36.8614 H   0  0  0  0  0  0  0  0  0  0  0  0
   18.6440  -32.2370   35.0590 H   0  0  0  0  0  0  0  0  0  0  0  0
   23.0200  -28.8810   37.1450 H   0  0  0  0  0  0  0  0  0  0  0  0
   20.5544  -27.2871   40.1320 H   0  0  0  0  0  0  0  0  0  0  0  0
   21.5961  -25.8868   41.8993 H   0  0  0  0  0  0  0  0  0  0  0  0
  1  2  2  0
  2  3  1  0
  3  4  2  0
  4  5  1  0
  5  6  1  0
  6  7  1  0
  7  8  1  0
  8  9  2  0
  9 10  1  0
 10 11  2  0
 11 12  1  0
 12 13  1  0
 12 14  2  0
 14 15  1  0
 15 16  2  0
 15 17  1  0
 17 18  1  0
  5 19  2  0
 19 20  1  0
 20 21  2  0
 21 22  1  0
 22 23  1  0
 22 24  1  0
 22 25  1  0
 21  3  1  0
 17  6  2  0
 14  8  1  0
  1 26  1  0
  1 27  1  0
  2 28  1  0
  4 29  1  0
  9 30  1  0
 10 31  1  0
 11 32  1  0
 13 33  1  0
 18 34  1  0
 19 35  1  0
 20 36  1  0
M  END
>  <meeko>  (1) 
{"is_sidechain": [false], "free_energy": -9.918, "intermolecular_energy": -12.237, "internal_energy": -0.549}

$$$$
cand_005_out
     RDKit          3D

 36 38  0  0  0  0  0  0  0  0999 V2000
   20.0720  -26.1000   42.7100 C   0  0  0  0  0  0  0  0  0  0  0  0
   21.2980  -26.1410   42.1750 C   0  0  0  0  0  0  0  0  0  0  0  0
   21.9450  -27.3990   41.7790 C   0  0  0  0  0  0  0  0  0  0  0  0
   21.3570  -28.1700   40.7590 C   0  0  0  0  0  0  0  0  0  0  0  0
   21.9150  -29.3910   40.3470 C   0  0  0  0  0  0  0  0  0  0  0  0
   21.2790  -30.1560   39.2540 C   0  0  0  0  0  0  0  0  0  0  0  0
   20.5190  -31.2260   39.7140 O   0  0  0  0  0  0  0  0  0  0  0  0
   19.8750  -32.0220   38.8010 C   0  0  0  0  0  0  0  0  0  0  0  0
   19.1130  -33.0760   39.3060 C   0  0  0  0  0  0  0  0  0  0  0  0
   18.4330  -33.9250   38.4320 C   0  0  0  0  0  0  0  0  0  0  0  0
   18.5140  -33.7210   37.0520 C   0  0  0  0  0  0  0  0  0  0  0  0
   19.2760  -32.6690   36.5510 C   0  0  0  0  0  0  0  0  0  0  0  0
   19.3120  -32.5270   35.1910 O   0  0  0  0  0  0  0  0  0  0  0  0
   19.9560  -31.8190   37.4270 C   0  0  0  0  0  0  0  0  0  0  0  0
   20.7660  -30.7010   36.9410 C   0  0  0  0  0  0  0  0  0  0  0  0
   20.8930  -30.4600   35.7430 O   0  0  0  0  0  0  0  0  0  0  0  0
   21.4420  -29.8550   37.9530 C   0  0  0  0  0  0  0  0  0  0  0  0
   22.2170  -28.8110   37.4840 O   0  0  0  0  0  0  0  0  0  0  0  0
   23.0900  -29.8260   40.9660 C   0  0  0  0  0  0  0  0  0  0  0  0
   23.6820  -29.0730   41.9830 C   0  0  0  0  0  0  0  0  0  0  0  0
   23.1190  -27.8550   42.4060 C   0  0  0  0  0  0  0  0  0  0  0  0
   23.7930  -27.0620   43.5010 C   0  0  0  0  0  0  0  0  0  0  0  0
   24.1980  -25.8270   43.0950 F   0  0  0  0  0  0  0  0  0  0  0  0
   24.9140  -27.6670   43.9910 F   0  0  0  0  0  0  0  0  0  0  0  0
   22.9910  -26.8620   44.5850 F   0  0  0  0  0  0  0  0  0  0  0  0
   19.6268  -25.1343   42.9917 H   0  0  0  0  0  0  0  0  0  0  0  0
   19.5094  -27.0320   42.8681 H   0  0  0  0  0  0  0  0  0  0  0  0
   21.8420  -25.1966   42.0261 H   0  0  0  0  0  0  0  0  0  0  0  0
   20.4390  -27.8078   40.2732 H   0  0  0  0  0  0  0  0  0  0  0  0
   19.0483  -33.2376   40.3921 H   0  0  0  0  0  0  0  0  0  0  0  0
   17.8323  -34.7561   38.8300 H   0  0  0  0  0  0  0  0  0  0  0  0
   17.9771  -34.3899   36.3633 H   0  0  0  0  0  0  0  0  0  0  0  0
   18.6490  -32.9220   34.6610 H   0  0  0  0  0  0  0  0  0  0  0  0
   23.0160  -28.9870   37.0270 H   0  0  0  0  0  0  0  0  0  0  0  0
   23.5538  -30.7717   40.6490 H   0  0  0  0  0  0  0  0  0  0  0  0
   24.6031  -29.4383   42.4607 H   0  0  0  0  0  0  0  0  0  0  0  0
  1  2  2  0
  2  3  1  0
  3  4  2  0
  4  5  1  0
  5  6  1  0
  6  7  1  0
  7  8  1  0
  8  9  2  0
  9 10  1  0
 10 11  2  0
 11 12  1  0
 12 13  1  0
 12 14  2  0
 14 15  1  0
 15 16  2  0
 15 17  1  0
 17 18  1  0
  5 19  2  0
 19 20  1  0
 20 21  2  0
 21 22  1  0
 22 23  1  0
 22 24  1  0
 22 25  1  0
 21  3  1  0
 17  6  2  0
 14  8  1  0
  1 26  1  0
  1 27  1  0
  2 28  1  0
  4 29  1  0
  9 30  1  0
 10 31  1  0
 11 32  1  0
 13 33  1  0
 18 34  1  0
 19 35  1  0
 20 36  1  0
M  END
>  <meeko>  (2) 
{"is_sidechain": [false], "free_energy": -9.773, "intermolecular_energy": -11.972, "internal_energy": -0.636}

$$$$
cand_005_out
     RDKit          3D

 36 38  0  0  0  0  0  0  0  0999 V2000
   24.5300  -29.4390   44.1290 C   0  0  0  0  0  0  0  0  0  0  0  0
   24.4490  -28.3700   43.3280 C   0  0  0  0  0  0  0  0  0  0  0  0
   23.1960  -27.9590   42.6830 C   0  0  0  0  0  0  0  0  0  0  0  0
   22.7410  -28.6840   41.5650 C   0  0  0  0  0  0  0  0  0  0  0  0
   21.5620  -28.3310   40.8910 C   0  0  0  0  0  0  0  0  0  0  0  0
   21.1070  -29.1360   39.7380 C   0  0  0  0  0  0  0  0  0  0  0  0
   20.6010  -30.3760   40.1090 O   0  0  0  0  0  0  0  0  0  0  0  0
   20.1450  -31.2240   39.1320 C   0  0  0  0  0  0  0  0  0  0  0  0
   19.6330  -32.4540   39.5490 C   0  0  0  0  0  0  0  0  0  0  0  0
   19.1540  -33.3650   38.6060 C   0  0  0  0  0  0  0  0  0  0  0  0
   19.1860  -33.0480   37.2460 C   0  0  0  0  0  0  0  0  0  0  0  0
   19.6990  -31.8200   36.8330 C   0  0  0  0  0  0  0  0  0  0  0  0
   19.7010  -31.5750   35.4870 O   0  0  0  0  0  0  0  0  0  0  0  0
   20.1770  -30.9090   37.7770 C   0  0  0  0  0  0  0  0  0  0  0  0
   20.7230  -29.6080   37.3840 C   0  0  0  0  0  0  0  0  0  0  0  0
   20.7920  -29.2590   36.2080 O   0  0  0  0  0  0  0  0  0  0  0  0
   21.1980  -28.7120   38.4640 C   0  0  0  0  0  0  0  0  0  0  0  0
   21.7250  -27.4920   38.0820 O   0  0  0  0  0  0  0  0  0  0  0  0
   20.8280  -27.2400   41.3650 C   0  0  0  0  0  0  0  0  0  0  0  0
   21.2700  -26.5080   42.4700 C   0  0  0  0  0  0  0  0  0  0  0  0
   22.4570  -26.8530   43.1410 C   0  0  0  0  0  0  0  0  0  0  0  0
   22.8990  -26.0460   44.3390 C   0  0  0  0  0  0  0  0  0  0  0  0
   24.1880  -25.6170   44.2490 F   0  0  0  0  0  0  0  0  0  0  0  0
   22.8310  -26.7420   45.5110 F   0  0  0  0  0  0  0  0  0  0  0  0
   22.1400  -24.9310   44.5400 F   0  0  0  0  0  0  0  0  0  0  0  0
   25.4913  -29.7088   44.5907 H   0  0  0  0  0  0  0  0  0  0  0  0
   23.6353  -30.0479   44.3257 H   0  0  0  0  0  0  0  0  0  0  0  0
   25.3568  -27.7761   43.1458 H   0  0  0  0  0  0  0  0  0  0  0  0
   23.3236  -29.5475   41.2116 H   0  0  0  0  0  0  0  0  0  0  0  0
   19.6071  -32.7051   40.6197 H   0  0  0  0  0  0  0  0  0  0  0  0
   18.7506  -34.3342   38.9345 H   0  0  0  0  0  0  0  0  0  0  0  0
   18.8074  -33.7656   36.5032 H   0  0  0  0  0  0  0  0  0  0  0  0
   19.4260  -30.7410   35.1620 H   0  0  0  0  0  0  0  0  0  0  0  0
   21.1700  -26.8370   37.7080 H   0  0  0  0  0  0  0  0  0  0  0  0
   19.8920  -26.9545   40.8625 H   0  0  0  0  0  0  0  0  0  0  0  0
   20.6803  -25.6482   42.8207 H   0  0  0  0  0  0  0  0  0  0  0  0
  1  2  2  0
  2  3  1  0
  3  4  2  0
  4  5  1  0
  5  6  1  0
  6  7  1  0
  7  8  1  0
  8  9  2  0
  9 10  1  0
 10 11  2  0
 11 12  1  0
 12 13  1  0
 12 14  2  0
 14 15  1  0
 15 16  2  0
 15 17  1  0
 17 18  1  0
  5 19  2  0
 19 20  1  0
 20 21  2  0
 21 22  1  0
 22 23  1  0
 22 24  1  0
 22 25  1  0
 21  3  1  0
 17  6  2  0
 14  8  1  0
  1 26  1  0
  1 27  1  0
  2 28  1  0
  4 29  1  0
  9 30  1  0
 10 31  1  0
 11 32  1  0
 13 33  1  0
 18 34  1  0
 19 35  1  0
 20 36  1  0
M  END
>  <meeko>  (3) 
{"is_sidechain": [false], "free_energy": -9.173, "intermolecular_energy": -11.259, "internal_energy": -0.608}

$$$$
cand_005_out
     RDKit          3D

 36 38  0  0  0  0  0  0  0  0999 V2000
   23.6450  -29.9130   41.6140 C   0  0  0  0  0  0  0  0  0  0  0  0
   23.0260  -28.7820   41.2550 C   0  0  0  0  0  0  0  0  0  0  0  0
   21.7390  -28.7760   40.5490 C   0  0  0  0  0  0  0  0  0  0  0  0
   21.4600  -29.8150   39.6420 C   0  0  0  0  0  0  0  0  0  0  0  0
   20.2560  -29.8580   38.9210 C   0  0  0  0  0  0  0  0  0  0  0  0
   19.9920  -30.9820   37.9980 C   0  0  0  0  0  0  0  0  0  0  0  0
   20.3600  -30.7020   36.6870 O   0  0  0  0  0  0  0  0  0  0  0  0
   20.1670  -31.6620   35.7260 C   0  0  0  0  0  0  0  0  0  0  0  0
   20.5620  -31.3450   34.4260 C   0  0  0  0  0  0  0  0  0  0  0  0
   20.3920  -32.2760   33.4000 C   0  0  0  0  0  0  0  0  0  0  0  0
   19.8280  -33.5240   33.6720 C   0  0  0  0  0  0  0  0  0  0  0  0
   19.4330  -33.8370   34.9710 C   0  0  0  0  0  0  0  0  0  0  0  0
   18.8870  -35.0760   35.1680 O   0  0  0  0  0  0  0  0  0  0  0  0
   19.6040  -32.9050   35.9980 C   0  0  0  0  0  0  0  0  0  0  0  0
   19.2040  -33.1950   37.3760 C   0  0  0  0  0  0  0  0  0  0  0  0
   18.6940  -34.2670   37.6940 O   0  0  0  0  0  0  0  0  0  0  0  0
   19.4340  -32.1410   38.3910 C   0  0  0  0  0  0  0  0  0  0  0  0
   19.0400  -32.4190   39.6870 O   0  0  0  0  0  0  0  0  0  0  0  0
   19.3190  -28.8420   39.1330 C   0  0  0  0  0  0  0  0  0  0  0  0
   19.5850  -27.8010   40.0270 C   0  0  0  0  0  0  0  0  0  0  0  0
   20.7950  -27.7510   40.7420 C   0  0  0  0  0  0  0  0  0  0  0  0
   21.0430  -26.6160   41.7080 C   0  0  0  0  0  0  0  0  0  0  0  0
   21.2500  -27.0380   42.9870 F   0  0  0  0  0  0  0  0  0  0  0  0
   20.0030  -25.7350   41.7830 F   0  0  0  0  0  0  0  0  0  0  0  0
   22.1290  -25.8610   41.3760 F   0  0  0  0  0  0  0  0  0  0  0  0
   24.6090  -29.8687   42.1420 H   0  0  0  0  0  0  0  0  0  0  0  0
   23.1898  -30.8869   41.3811 H   0  0  0  0  0  0  0  0  0  0  0  0
   23.5000  -27.8197   41.4984 H   0  0  0  0  0  0  0  0  0  0  0  0
   22.2030  -30.6126   39.4943 H   0  0  0  0  0  0  0  0  0  0  0  0
   21.0069  -30.3625   34.2098 H   0  0  0  0  0  0  0  0  0  0  0  0
   20.7030  -32.0260   32.3749 H   0  0  0  0  0  0  0  0  0  0  0  0
   19.6959  -34.2578   32.8633 H   0  0  0  0  0  0  0  0  0  0  0  0
   18.9730  -35.5000   35.9990 H   0  0  0  0  0  0  0  0  0  0  0  0
   19.0610  -31.7460   40.3380 H   0  0  0  0  0  0  0  0  0  0  0  0
   18.3623  -28.8622   38.5904 H   0  0  0  0  0  0  0  0  0  0  0  0
   18.8363  -27.0086   40.1736 H   0  0  0  0  0  0  0  0  0  0  0  0
  1  2  2  0
  2  3  1  0
  3  4  2  0
  4  5  1  0
  5  6  1  0
  6  7  1  0
  7  8  1  0
  8  9  2  0
  9 10  1  0
 10 11  2  0
 11 12  1  0
 12 13  1  0
 12 14  2  0
 14 15  1  0
 15 16  2  0
 15 17  1  0
 17 18  1  0
  5 19  2  0
 19 20  1  0
 20 21  2  0
 21 22  1  0
 22 23  1  0
 22 24  1  0
 22 25  1  0
 21  3  1  0
 17  6  2  0
 14  8  1  0
  1 26  1  0
  1 27  1  0
  2 28  1  0
  4 29  1  0
  9 30  1  0
 10 31  1  0
 11 32  1  0
 13 33  1  0
 18 34  1  0
 19 35  1  0
 20 36  1  0
M  END
>  <meeko>  (4) 
{"is_sidechain": [false], "free_energy": -8.98, "intermolecular_energy": -11.016, "internal_energy": -0.613}

$$$$
cand_005_out
     RDKit          3D

 36 38  0  0  0  0  0  0  0  0999 V2000
   18.9870  -25.9830   40.1960 C   0  0  0  0  0  0  0  0  0  0  0  0
   19.4960  -26.8640   41.0640 C   0  0  0  0  0  0  0  0  0  0  0  0
   20.4600  -27.8990   40.6680 C   0  0  0  0  0  0  0  0  0  0  0  0
   20.0490  -28.8970   39.7660 C   0  0  0  0  0  0  0  0  0  0  0  0
   20.9150  -29.9250   39.3610 C   0  0  0  0  0  0  0  0  0  0  0  0
   20.4500  -30.9390   38.3920 C   0  0  0  0  0  0  0  0  0  0  0  0
   20.7740  -30.6200   37.0780 O   0  0  0  0  0  0  0  0  0  0  0  0
   20.3970  -31.4780   36.0760 C   0  0  0  0  0  0  0  0  0  0  0  0
   20.7540  -31.1270   34.7740 C   0  0  0  0  0  0  0  0  0  0  0  0
   20.4010  -31.9560   33.7070 C   0  0  0  0  0  0  0  0  0  0  0  0
   19.6910  -33.1350   33.9420 C   0  0  0  0  0  0  0  0  0  0  0  0
   19.3350  -33.4830   35.2430 C   0  0  0  0  0  0  0  0  0  0  0  0
   18.6410  -34.6500   35.4010 O   0  0  0  0  0  0  0  0  0  0  0  0
   19.6900  -32.6530   36.3100 C   0  0  0  0  0  0  0  0  0  0  0  0
   19.3360  -32.9830   37.6920 C   0  0  0  0  0  0  0  0  0  0  0  0
   18.7060  -33.9980   37.9790 O   0  0  0  0  0  0  0  0  0  0  0  0
   19.7650  -32.0400   38.7510 C   0  0  0  0  0  0  0  0  0  0  0  0
   19.4130  -32.3520   40.0510 O   0  0  0  0  0  0  0  0  0  0  0  0
   22.2190  -29.9310   39.8670 C   0  0  0  0  0  0  0  0  0  0  0  0
   22.6390  -28.9490   40.7670 C   0  0  0  0  0  0  0  0  0  0  0  0
   21.7690  -27.9240   41.1820 C   0  0  0  0  0  0  0  0  0  0  0  0
   22.2620  -26.8730   42.1480 C   0  0  0  0  0  0  0  0  0  0  0  0
   22.3250  -25.6290   41.5980 F   0  0  0  0  0  0  0  0  0  0  0  0
   23.5190  -27.1230   42.6200 F   0  0  0  0  0  0  0  0  0  0  0  0
   21.4790  -26.7600   43.2590 F   0  0  0  0  0  0  0  0  0  0  0  0
   18.2674  -25.2253   40.5396 H   0  0  0  0  0  0  0  0  0  0  0  0
   19.2880  -26.0161   39.1385 H   0  0  0  0  0  0  0  0  0  0  0  0
   19.1801  -26.8114   42.1164 H   0  0  0  0  0  0  0  0  0  0  0  0
   19.0238  -28.8713   39.3682 H   0  0  0  0  0  0  0  0  0  0  0  0
   21.3130  -30.1981   34.5879 H   0  0  0  0  0  0  0  0  0  0  0  0
   20.6827  -31.6798   32.6802 H   0  0  0  0  0  0  0  0  0  0  0  0
   19.4133  -33.7878   33.1014 H   0  0  0  0  0  0  0  0  0  0  0  0
   18.7590  -35.1650   36.1750 H   0  0  0  0  0  0  0  0  0  0  0  0
   19.4390  -33.2420   40.3440 H   0  0  0  0  0  0  0  0  0  0  0  0
   22.9211  -30.7174   39.5528 H   0  0  0  0  0  0  0  0  0  0  0  0
   23.6668  -28.9774   41.1578 H   0  0  0  0  0  0  0  0  0  0  0  0
  1  2  2  0
  2  3  1  0
  3  4  2  0
  4  5  1  0
  5  6  1  0
  6  7  1  0
  7  8  1  0
  8  9  2  0
  9 10  1  0
 10 11  2  0
 11 12  1  0
 12 13  1  0
 12 14  2  0
 14 15  1  0
 15 16  2  0
 15 17  1  0
 17 18  1  0
  5 19  2  0
 19 20  1  0
 20 21  2  0
 21 22  1  0
 22 23  1  0
 22 24  1  0
 22 25  1  0
 21  3  1  0
 17  6  2  0
 14  8  1  0
  1 26  1  0
  1 27  1  0
  2 28  1  0
  4 29  1  0
  9 30  1  0
 10 31  1  0
 11 32  1  0
 13 33  1  0
 18 34  1  0
 19 35  1  0
 20 36  1  0
M  END
>  <meeko>  (5) 
{"is_sidechain": [false], "free_energy": -8.845, "intermolecular_energy": -10.817, "internal_energy": -0.645}

$$$$
cand_005_out
     RDKit          3D

 36 38  0  0  0  0  0  0  0  0999 V2000
   19.3530  -32.9230   39.2540 C   0  0  0  0  0  0  0  0  0  0  0  0
   19.4090  -32.0800   38.2160 C   0  0  0  0  0  0  0  0  0  0  0  0
   20.3950  -30.9950   38.1320 C   0  0  0  0  0  0  0  0  0  0  0  0
   20.8840  -30.4320   39.3250 C   0  0  0  0  0  0  0  0  0  0  0  0
   21.8130  -29.3800   39.3150 C   0  0  0  0  0  0  0  0  0  0  0  0
   22.3210  -28.8350   40.5920 C   0  0  0  0  0  0  0  0  0  0  0  0
   23.2530  -29.6660   41.2010 O   0  0  0  0  0  0  0  0  0  0  0  0
   23.8040  -29.2790   42.3970 C   0  0  0  0  0  0  0  0  0  0  0  0
   24.7450  -30.1370   42.9680 C   0  0  0  0  0  0  0  0  0  0  0  0
   25.3430  -29.8040   44.1850 C   0  0  0  0  0  0  0  0  0  0  0  0
   25.0000  -28.6140   44.8310 C   0  0  0  0  0  0  0  0  0  0  0  0
   24.0590  -27.7600   44.2590 C   0  0  0  0  0  0  0  0  0  0  0  0
   23.7700  -26.6130   44.9450 O   0  0  0  0  0  0  0  0  0  0  0  0
   23.4620  -28.0940   43.0410 C   0  0  0  0  0  0  0  0  0  0  0  0
   22.4700  -27.2250   42.4060 C   0  0  0  0  0  0  0  0  0  0  0  0
   22.1110  -26.1650   42.9150 O   0  0  0  0  0  0  0  0  0  0  0  0
   21.9020  -27.6670   41.1120 C   0  0  0  0  0  0  0  0  0  0  0  0
   20.9550  -26.8460   40.5270 O   0  0  0  0  0  0  0  0  0  0  0  0
   22.2610  -28.9020   38.0790 C   0  0  0  0  0  0  0  0  0  0  0  0
   21.7790  -29.4480   36.8860 C   0  0  0  0  0  0  0  0  0  0  0  0
   20.8410  -30.4960   36.8950 C   0  0  0  0  0  0  0  0  0  0  0  0
   20.3510  -31.0690   35.5860 C   0  0  0  0  0  0  0  0  0  0  0  0
   19.8740  -32.3400   35.7040 F   0  0  0  0  0  0  0  0  0  0  0  0
   21.3230  -31.1350   34.6300 F   0  0  0  0  0  0  0  0  0  0  0  0
   19.3460  -30.3360   35.0250 F   0  0  0  0  0  0  0  0  0  0  0  0
   18.5967  -33.7215   39.2739 H   0  0  0  0  0  0  0  0  0  0  0  0
   20.0633  -32.8173   40.0873 H   0  0  0  0  0  0  0  0  0  0  0  0
   18.6887  -32.2047   37.3941 H   0  0  0  0  0  0  0  0  0  0  0  0
   20.5296  -30.8259   40.2890 H   0  0  0  0  0  0  0  0  0  0  0  0
   25.0152  -31.0745   42.4599 H   0  0  0  0  0  0  0  0  0  0  0  0
   26.0851  -30.4796   44.6355 H   0  0  0  0  0  0  0  0  0  0  0  0
   25.4718  -28.3515   45.7894 H   0  0  0  0  0  0  0  0  0  0  0  0
   22.9020  -26.4630   45.2620 H   0  0  0  0  0  0  0  0  0  0  0  0
   20.3460  -27.1990   39.9080 H   0  0  0  0  0  0  0  0  0  0  0  0
   23.0002  -28.0881   38.0456 H   0  0  0  0  0  0  0  0  0  0  0  0
   22.1389  -29.0518   35.9250 H   0  0  0  0  0  0  0  0  0  0  0  0
  1  2  2  0
  2  3  1  0
  3  4  2  0
  4  5  1  0
  5  6  1  0
  6  7  1  0
  7  8  1  0
  8  9  2  0
  9 10  1  0
 10 11  2  0
 11 12  1  0
 12 13  1  0
 12 14  2  0
 14 15  1  0
 15 16  2  0
 15 17  1  0
 17 18  1  0
  5 19  2  0
 19 20  1  0
 20 21  2  0
 21 22  1  0
 22 23  1  0
 22 24  1  0
 22 25  1  0
 21  3  1  0
 17  6  2  0
 14  8  1  0
  1 26  1  0
  1 27  1  0
  2 28  1  0
  4 29  1  0
  9 30  1  0
 10 31  1  0
 11 32  1  0
 13 33  1  0
 18 34  1  0
 19 35  1  0
 20 36  1  0
M  END
>  <meeko>  (6) 
{"is_sidechain": [false], "free_energy": -8.706, "intermolecular_energy": -11.071, "internal_energy": -0.22}

$$$$
cand_005_out
     RDKit          3D

 36 38  0  0  0  0  0  0  0  0999 V2000
   18.6710  -34.1570   39.7560 C   0  0  0  0  0  0  0  0  0  0  0  0
   18.2330  -33.0030   39.2390 C   0  0  0  0  0  0  0  0  0  0  0  0
   19.1260  -32.0470   38.5720 C   0  0  0  0  0  0  0  0  0  0  0  0
   19.5590  -30.9140   39.2850 C   0  0  0  0  0  0  0  0  0  0  0  0
   20.3970  -29.9520   38.6990 C   0  0  0  0  0  0  0  0  0  0  0  0
   20.8490  -28.7900   39.4930 C   0  0  0  0  0  0  0  0  0  0  0  0
   21.7810  -29.1300   40.4670 O   0  0  0  0  0  0  0  0  0  0  0  0
   22.2820  -28.1420   41.2770 C   0  0  0  0  0  0  0  0  0  0  0  0
   23.2250  -28.5240   42.2320 C   0  0  0  0  0  0  0  0  0  0  0  0
   23.7740  -27.5690   43.0890 C   0  0  0  0  0  0  0  0  0  0  0  0
   23.3800  -26.2330   42.9930 C   0  0  0  0  0  0  0  0  0  0  0  0
   22.4380  -25.8540   42.0400 C   0  0  0  0  0  0  0  0  0  0  0  0
   22.0970  -24.5310   42.0010 O   0  0  0  0  0  0  0  0  0  0  0  0
   21.8900  -26.8110   41.1810 C   0  0  0  0  0  0  0  0  0  0  0  0
   20.8980  -26.4550   40.1650 C   0  0  0  0  0  0  0  0  0  0  0  0
   20.4950  -25.3020   40.0230 O   0  0  0  0  0  0  0  0  0  0  0  0
   20.3830  -27.5420   39.3010 C   0  0  0  0  0  0  0  0  0  0  0  0
   19.4360  -27.1990   38.3540 O   0  0  0  0  0  0  0  0  0  0  0  0
   20.8130  -30.1500   37.3790 C   0  0  0  0  0  0  0  0  0  0  0  0
   20.3870  -31.2690   36.6570 C   0  0  0  0  0  0  0  0  0  0  0  0
   19.5380  -32.2270   37.2390 C   0  0  0  0  0  0  0  0  0  0  0  0
   19.1070  -33.4290   36.4320 C   0  0  0  0  0  0  0  0  0  0  0  0
   19.7710  -34.5690   36.7720 F   0  0  0  0  0  0  0  0  0  0  0  0
   19.3130  -33.2790   35.0900 F   0  0  0  0  0  0  0  0  0  0  0  0
   17.7790  -33.7100   36.5600 F   0  0  0  0  0  0  0  0  0  0  0  0
   17.9649  -34.8429   40.2470 H   0  0  0  0  0  0  0  0  0  0  0  0
   19.7371  -34.4197   39.6900 H   0  0  0  0  0  0  0  0  0  0  0  0
   17.1627  -32.7612   39.3167 H   0  0  0  0  0  0  0  0  0  0  0  0
   19.2331  -30.7786   40.3268 H   0  0  0  0  0  0  0  0  0  0  0  0
   23.5353  -29.5765   42.3093 H   0  0  0  0  0  0  0  0  0  0  0  0
   24.5183  -27.8694   43.8412 H   0  0  0  0  0  0  0  0  0  0  0  0
   23.8130  -25.4810   43.6691 H   0  0  0  0  0  0  0  0  0  0  0  0
   21.2860  -24.2660   41.6140 H   0  0  0  0  0  0  0  0  0  0  0  0
   19.6120  -26.5140   37.7400 H   0  0  0  0  0  0  0  0  0  0  0  0
   21.4823  -29.4179   36.9036 H   0  0  0  0  0  0  0  0  0  0  0  0
   20.7212  -31.4020   35.6175 H   0  0  0  0  0  0  0  0  0  0  0  0
  1  2  2  0
  2  3  1  0
  3  4  2  0
  4  5  1  0
  5  6  1  0
  6  7  1  0
  7  8  1  0
  8  9  2  0
  9 10  1  0
 10 11  2  0
 11 12  1  0
 12 13  1  0
 12 14  2  0
 14 15  1  0
 15 16  2  0
 15 17  1  0
 17 18  1  0
  5 19  2  0
 19 20  1  0
 20 21  2  0
 21 22  1  0
 22 23  1  0
 22 24  1  0
 22 25  1  0
 21  3  1  0
 17  6  2  0
 14  8  1  0
  1 26  1  0
  1 27  1  0
  2 28  1  0
  4 29  1  0
  9 30  1  0
 10 31  1  0
 11 32  1  0
 13 33  1  0
 18 34  1  0
 19 35  1  0
 20 36  1  0
M  END
>  <meeko>  (7) 
{"is_sidechain": [false], "free_energy": -8.69, "intermolecular_energy": -10.88, "internal_energy": -0.392}

$$$$
cand_005_out
     RDKit          3D

 36 38  0  0  0  0  0  0  0  0999 V2000
   19.3130  -32.8070   39.5140 C   0  0  0  0  0  0  0  0  0  0  0  0
   19.3290  -31.9200   38.5120 C   0  0  0  0  0  0  0  0  0  0  0  0
   20.3020  -30.8230   38.4420 C   0  0  0  0  0  0  0  0  0  0  0  0
   20.7160  -30.2090   39.6390 C   0  0  0  0  0  0  0  0  0  0  0  0
   21.6300  -29.1430   39.6410 C   0  0  0  0  0  0  0  0  0  0  0  0
   22.0580  -28.5450   40.9230 C   0  0  0  0  0  0  0  0  0  0  0  0
   21.2750  -27.4610   41.3020 O   0  0  0  0  0  0  0  0  0  0  0  0
   21.5670  -26.8110   42.4740 C   0  0  0  0  0  0  0  0  0  0  0  0
   20.7480  -25.7360   42.8230 C   0  0  0  0  0  0  0  0  0  0  0  0
   20.9910  -25.0300   44.0030 C   0  0  0  0  0  0  0  0  0  0  0  0
   22.0510  -25.3980   44.8340 C   0  0  0  0  0  0  0  0  0  0  0  0
   22.8680  -26.4710   44.4830 C   0  0  0  0  0  0  0  0  0  0  0  0
   23.8870  -26.7770   45.3410 O   0  0  0  0  0  0  0  0  0  0  0  0
   22.6230  -27.1770   43.3020 C   0  0  0  0  0  0  0  0  0  0  0  0
   23.4570  -28.3110   42.8970 C   0  0  0  0  0  0  0  0  0  0  0  0
   24.4120  -28.6910   43.5700 O   0  0  0  0  0  0  0  0  0  0  0  0
   23.1100  -28.9960   41.6300 C   0  0  0  0  0  0  0  0  0  0  0  0
   23.9110  -30.0560   41.2480 O   0  0  0  0  0  0  0  0  0  0  0  0
   22.1380  -28.7030   38.4150 C   0  0  0  0  0  0  0  0  0  0  0  0
   21.7320  -29.3000   37.2190 C   0  0  0  0  0  0  0  0  0  0  0  0
   20.8090  -30.3610   37.2140 C   0  0  0  0  0  0  0  0  0  0  0  0
   20.4010  -30.9890   35.9020 C   0  0  0  0  0  0  0  0  0  0  0  0
   20.0180  -32.2900   36.0280 F   0  0  0  0  0  0  0  0  0  0  0  0
   21.4020  -30.9950   34.9740 F   0  0  0  0  0  0  0  0  0  0  0  0
   19.3610  -30.3420   35.3020 F   0  0  0  0  0  0  0  0  0  0  0  0
   18.5641  -33.6127   39.5234 H   0  0  0  0  0  0  0  0  0  0  0  0
   20.0487  -32.7304   40.3282 H   0  0  0  0  0  0  0  0  0  0  0  0
   18.5835  -32.0168   37.7090 H   0  0  0  0  0  0  0  0  0  0  0  0
   20.3138  -30.5730   40.5960 H   0  0  0  0  0  0  0  0  0  0  0  0
   19.9123  -25.4454   42.1694 H   0  0  0  0  0  0  0  0  0  0  0  0
   20.3462  -24.1824   44.2784 H   0  0  0  0  0  0  0  0  0  0  0  0
   22.2408  -24.8420   45.7640 H   0  0  0  0  0  0  0  0  0  0  0  0
   24.0220  -26.2620   46.1120 H   0  0  0  0  0  0  0  0  0  0  0  0
   24.3010  -30.0670   40.3960 H   0  0  0  0  0  0  0  0  0  0  0  0
   22.8651  -27.8779   38.3919 H   0  0  0  0  0  0  0  0  0  0  0  0
   22.1410  -28.9342   36.2656 H   0  0  0  0  0  0  0  0  0  0  0  0
  1  2  2  0
  2  3  1  0
  3  4  2  0
  4  5  1  0
  5  6  1  0
  6  7  1  0
  7  8  1  0
  8  9  2  0
  9 10  1  0
 10 11  2  0
 11 12  1  0
 12 13  1  0
 12 14  2  0
 14 15  1  0
 15 16  2  0
 15 17  1  0
 17 18  1  0
  5 19  2  0
 19 20  1  0
 20 21  2  0
 21 22  1  0
 22 23  1  0
 22 24  1  0
 22 25  1  0
 21  3  1  0
 17  6  2  0
 14  8  1  0
  1 26  1  0
  1 27  1  0
  2 28  1  0
  4 29  1  0
  9 30  1  0
 10 31  1  0
 11 32  1  0
 13 33  1  0
 18 34  1  0
 19 35  1  0
 20 36  1  0
M  END
>  <meeko>  (8) 
{"is_sidechain": [false], "free_energy": -8.654, "intermolecular_energy": -10.928, "internal_energy": -0.298}

$$$$
cand_005_out
     RDKit          3D

 36 38  0  0  0  0  0  0  0  0999 V2000
   24.2240  -30.5270   42.6540 C   0  0  0  0  0  0  0  0  0  0  0  0
   24.2650  -29.1970   42.5180 C   0  0  0  0  0  0  0  0  0  0  0  0
   23.0830  -28.4020   42.1610 C   0  0  0  0  0  0  0  0  0  0  0  0
   22.5960  -28.4680   40.8420 C   0  0  0  0  0  0  0  0  0  0  0  0
   21.4820  -27.7200   40.4310 C   0  0  0  0  0  0  0  0  0  0  0  0
   20.9890  -27.8390   39.0430 C   0  0  0  0  0  0  0  0  0  0  0  0
   21.0880  -29.1320   38.5440 O   0  0  0  0  0  0  0  0  0  0  0  0
   20.6650  -29.3820   37.2630 C   0  0  0  0  0  0  0  0  0  0  0  0
   20.7700  -30.6960   36.8050 C   0  0  0  0  0  0  0  0  0  0  0  0
   20.3590  -31.0180   35.5110 C   0  0  0  0  0  0  0  0  0  0  0  0
   19.8430  -30.0270   34.6730 C   0  0  0  0  0  0  0  0  0  0  0  0
   19.7410  -28.7160   35.1310 C   0  0  0  0  0  0  0  0  0  0  0  0
   19.2280  -27.7960   34.2590 O   0  0  0  0  0  0  0  0  0  0  0  0
   20.1510  -28.3940   36.4270 C   0  0  0  0  0  0  0  0  0  0  0  0
   20.0600  -27.0290   36.9480 C   0  0  0  0  0  0  0  0  0  0  0  0
   19.6240  -26.1010   36.2700 O   0  0  0  0  0  0  0  0  0  0  0  0
   20.5160  -26.7950   38.3380 C   0  0  0  0  0  0  0  0  0  0  0  0
   20.4390  -25.5000   38.8160 O   0  0  0  0  0  0  0  0  0  0  0  0
   20.8470  -26.9050   41.3730 C   0  0  0  0  0  0  0  0  0  0  0  0
   21.3220  -26.8250   42.6840 C   0  0  0  0  0  0  0  0  0  0  0  0
   22.4450  -27.5660   43.0950 C   0  0  0  0  0  0  0  0  0  0  0  0
   22.9240  -27.4630   44.5240 C   0  0  0  0  0  0  0  0  0  0  0  0
   22.3280  -26.4530   45.2170 F   0  0  0  0  0  0  0  0  0  0  0  0
   24.2650  -27.2300   44.6260 F   0  0  0  0  0  0  0  0  0  0  0  0
   22.7030  -28.6000   45.2440 F   0  0  0  0  0  0  0  0  0  0  0  0
   25.1356  -31.0807   42.9229 H   0  0  0  0  0  0  0  0  0  0  0  0
   23.2786  -31.0670   42.4970 H   0  0  0  0  0  0  0  0  0  0  0  0
   25.2215  -28.6784   42.6799 H   0  0  0  0  0  0  0  0  0  0  0  0
   23.1009  -29.1218   40.1157 H   0  0  0  0  0  0  0  0  0  0  0  0
   21.1766  -31.4775   37.4637 H   0  0  0  0  0  0  0  0  0  0  0  0
   20.4415  -32.0539   35.1504 H   0  0  0  0  0  0  0  0  0  0  0  0
   19.5179  -30.2816   33.6534 H   0  0  0  0  0  0  0  0  0  0  0  0
   18.8340  -28.0780   33.4570 H   0  0  0  0  0  0  0  0  0  0  0  0
   19.6160  -25.1510   39.0940 H   0  0  0  0  0  0  0  0  0  0  0  0
   19.9632  -26.3201   41.0783 H   0  0  0  0  0  0  0  0  0  0  0  0
   20.8100  -26.1724   43.4065 H   0  0  0  0  0  0  0  0  0  0  0  0
  1  2  2  0
  2  3  1  0
  3  4  2  0
  4  5  1  0
  5  6  1  0
  6  7  1  0
  7  8  1  0
  8  9  2  0
  9 10  1  0
 10 11  2  0
 11 12  1  0
 12 13  1  0
 12 14  2  0
 14 15  1  0
 15 16  2  0
 15 17  1  0
 17 18  1  0
  5 19  2  0
 19 20  1  0
 20 21  2  0
 21 22  1  0
 22 23  1  0
 22 24  1  0
 22 25  1  0
 21  3  1  0
 17  6  2  0
 14  8  1  0
  1 26  1  0
  1 27  1  0
  2 28  1  0
  4 29  1  0
  9 30  1  0
 10 31  1  0
 11 32  1  0
 13 33  1  0
 18 34  1  0
 19 35  1  0
 20 36  1  0
M  END
>  <meeko>  (9) 
{"is_sidechain": [false], "free_energy": -8.646, "intermolecular_energy": -10.959, "internal_energy": -0.257}

$$$$
