cand_056_out
     RDKit          3D

 50 53  0  0  0  0  0  0  0  0999 V2000
   19.6330  -22.6200   43.3750 C   0  0  0  0  0  0  0  0  0  0  0  0
   20.0460  -23.8240   42.6560 N   0  0  0  0  0  0  0  0  0  0  0  0
   21.5080  -23.8090   42.4130 C   0  0  0  0  0  0  0  0  0  0  0  0
   22.0020  -25.0920   41.7040 C   0  0  0  0  0  0  0  0  0  0  0  0
   21.6260  -26.2840   42.5000 N   0  0  0  0  0  0  0  0  0  0  0  0
   22.1500  -27.4870   41.9950 C   0  0  0  0  0  0  0  0  0  0  0  0
   21.5360  -28.1780   40.9330 C   0  0  0  0  0  0  0  0  0  0  0  0
   22.0650  -29.3730   40.4220 C   0  0  0  0  0  0  0  0  0  0  0  0
   21.4060  -30.1040   39.3190 C   0  0  0  0  0  0  0  0  0  0  0  0
   20.6310  -31.1680   39.7630 O   0  0  0  0  0  0  0  0  0  0  0  0
   19.9620  -31.9310   38.8400 C   0  0  0  0  0  0  0  0  0  0  0  0
   19.1840  -32.9810   39.3310 C   0  0  0  0  0  0  0  0  0  0  0  0
   18.4790  -33.7980   38.4440 C   0  0  0  0  0  0  0  0  0  0  0  0
   18.5520  -33.5660   37.0690 C   0  0  0  0  0  0  0  0  0  0  0  0
   19.3280  -32.5180   36.5830 C   0  0  0  0  0  0  0  0  0  0  0  0
   19.3560  -32.3470   35.2260 O   0  0  0  0  0  0  0  0  0  0  0  0
   20.0340  -31.7000   37.4700 C   0  0  0  0  0  0  0  0  0  0  0  0
   20.8630  -30.5890   37.0000 C   0  0  0  0  0  0  0  0  0  0  0  0
   20.9830  -30.3260   35.8050 O   0  0  0  0  0  0  0  0  0  0  0  0
   21.5630  -29.7780   38.0220 C   0  0  0  0  0  0  0  0  0  0  0  0
   22.3540  -28.7390   37.5690 O   0  0  0  0  0  0  0  0  0  0  0  0
   23.2240  -29.8920   41.0070 C   0  0  0  0  0  0  0  0  0  0  0  0
   23.8450  -29.2240   42.0630 C   0  0  0  0  0  0  0  0  0  0  0  0
   23.3190  -28.0190   42.5660 C   0  0  0  0  0  0  0  0  0  0  0  0
   24.0110  -27.3140   43.7080 C   0  0  0  0  0  0  0  0  0  0  0  0
   25.0270  -28.0580   44.2470 F   0  0  0  0  0  0  0  0  0  0  0  0
   23.1880  -27.0360   44.7610 F   0  0  0  0  0  0  0  0  0  0  0  0
   24.5960  -26.1330   43.3520 F   0  0  0  0  0  0  0  0  0  0  0  0
   20.1630  -26.3380   42.7360 C   0  0  0  0  0  0  0  0  0  0  0  0
   19.6930  -25.0370   43.4300 C   0  0  0  0  0  0  0  0  0  0  0  0
   19.6949  -22.8005   44.4583 H   0  0  0  0  0  0  0  0  0  0  0  0
   20.2962  -21.7854   43.1038 H   0  0  0  0  0  0  0  0  0  0  0  0
   18.5971  -22.3682   43.1038 H   0  0  0  0  0  0  0  0  0  0  0  0
   19.5550  -23.8400   41.7620 H   0  0  0  0  0  0  0  0  0  0  0  0
   21.7523  -22.9410   41.7830 H   0  0  0  0  0  0  0  0  0  0  0  0
   22.0095  -23.7521   43.3904 H   0  0  0  0  0  0  0  0  0  0  0  0
   21.5412  -25.1586   40.7074 H   0  0  0  0  0  0  0  0  0  0  0  0
   23.0969  -25.0528   41.6052 H   0  0  0  0  0  0  0  0  0  0  0  0
   20.6152  -27.7694   40.4912 H   0  0  0  0  0  0  0  0  0  0  0  0
   19.1263  -33.1646   40.4140 H   0  0  0  0  0  0  0  0  0  0  0  0
   17.8653  -34.6255   38.8294 H   0  0  0  0  0  0  0  0  0  0  0  0
   17.9972  -34.2104   36.3712 H   0  0  0  0  0  0  0  0  0  0  0  0
   18.6320  -31.9410   34.7900 H   0  0  0  0  0  0  0  0  0  0  0  0
   22.0790  -28.2270   36.8330 H   0  0  0  0  0  0  0  0  0  0  0  0
   23.6496  -30.8344   40.6318 H   0  0  0  0  0  0  0  0  0  0  0  0
   24.7584  -29.6449   42.5087 H   0  0  0  0  0  0  0  0  0  0  0  0
   19.6420  -26.4465   41.7733 H   0  0  0  0  0  0  0  0  0  0  0  0
   19.9320  -27.1973   43.3828 H   0  0  0  0  0  0  0  0  0  0  0  0
   18.6000  -25.0748   43.5482 H   0  0  0  0  0  0  0  0  0  0  0  0
   20.2020  -24.9735   44.4031 H   0  0  0  0  0  0  0  0  0  0  0  0
  1  2  1  0
  2  3  1  0
  3  4  1  0
  4  5  1  0
  5  6  1  0
  6  7  2  0
  7  8  1  0
  8  9  1  0
  9 10  1  0
 10 11  1  0
 11 12  2  0
 12 13  1  0
 13 14  2  0
 14 15  1  0
 15 16  1  0
 15 17  2  0
 17 18  1  0
 18 19  2  0
 18 20  1  0
 20 21  1  0
  8 22  2  0
 22 23  1  0
 23 24  2  0
 24 25  1  0
 25 26  1  0
 25 27  1  0
 25 28  1  0
  5 29  1  0
 29 30  1  0
 30  2  1  0
 24  6  1  0
 20  9  2  0
 17 11  1  0
  1 31  1  0
  1 32  1  0
  1 33  1  0
  2 34  1  0
  3 35  1  0
  3 36  1  0
  4 37  1  0
  4 38  1  0
  7 39  1  0
 12 40  1  0
 13 41  1  0
 14 42  1  0
 16 43  1  0
 21 44  1  0
 22 45  1  0
 23 46  1  0
 29 47  1  0
 29 48  1  0
 30 49  1  0
 30 50  1  0
M  CHG  1   2   1
M  END
>  <meeko>  (1) 
{"is_sidechain": [false], "free_energy": -10.49, "intermolecular_energy": -12.943, "internal_energy": -0.727}

$$$$
cand_056_out
     RDKit          3D

 50 53  0  0  0  0  0  0  0  0999 V2000
   17.9340  -22.6200   40.6720 C   0  0  0  0  0  0  0  0  0  0  0  0
   18.3430  -24.0090   40.4670 N   0  0  0  0  0  0  0  0  0  0  0  0
   19.4220  -24.0890   39.4550 C   0  0  0  0  0  0  0  0  0  0  0  0
   19.9290  -25.5360   39.2450 C   0  0  0  0  0  0  0  0  0  0  0  0
   20.3910  -26.1000   40.5350 N   0  0  0  0  0  0  0  0  0  0  0  0
   20.9890  -27.3670   40.4130 C   0  0  0  0  0  0  0  0  0  0  0  0
   20.4980  -28.3390   39.5210 C   0  0  0  0  0  0  0  0  0  0  0  0
   21.1010  -29.5990   39.3920 C   0  0  0  0  0  0  0  0  0  0  0  0
   20.5690  -30.6230   38.4680 C   0  0  0  0  0  0  0  0  0  0  0  0
   20.1210  -31.7630   39.1240 O   0  0  0  0  0  0  0  0  0  0  0  0
   19.6010  -32.7930   38.3820 C   0  0  0  0  0  0  0  0  0  0  0  0
   19.1500  -33.9130   39.0830 C   0  0  0  0  0  0  0  0  0  0  0  0
   18.6110  -34.9980   38.3880 C   0  0  0  0  0  0  0  0  0  0  0  0
   18.5230  -34.9630   36.9940 C   0  0  0  0  0  0  0  0  0  0  0  0
   18.9740  -33.8450   36.2980 C   0  0  0  0  0  0  0  0  0  0  0  0
   18.8590  -33.8770   34.9350 O   0  0  0  0  0  0  0  0  0  0  0  0
   19.5130  -32.7590   36.9940 C   0  0  0  0  0  0  0  0  0  0  0  0
   19.9990  -31.5650   36.3010 C   0  0  0  0  0  0  0  0  0  0  0  0
   19.9620  -31.4620   35.0760 O   0  0  0  0  0  0  0  0  0  0  0  0
   20.5450  -30.4660   37.1310 C   0  0  0  0  0  0  0  0  0  0  0  0
   21.0130  -29.3480   36.4680 O   0  0  0  0  0  0  0  0  0  0  0  0
   22.2090  -29.8920   40.1930 C   0  0  0  0  0  0  0  0  0  0  0  0
   22.7080  -28.9430   41.0860 C   0  0  0  0  0  0  0  0  0  0  0  0
   22.1090  -27.6750   41.2050 C   0  0  0  0  0  0  0  0  0  0  0  0
   22.6710  -26.6650   42.1760 C   0  0  0  0  0  0  0  0  0  0  0  0
   23.8980  -27.0280   42.6620 F   0  0  0  0  0  0  0  0  0  0  0  0
   21.8980  -26.4830   43.2860 F   0  0  0  0  0  0  0  0  0  0  0  0
   22.8640  -25.4280   41.6330 F   0  0  0  0  0  0  0  0  0  0  0  0
   19.3210  -26.0560   41.5600 C   0  0  0  0  0  0  0  0  0  0  0  0
   18.8220  -24.6020   41.7380 C   0  0  0  0  0  0  0  0  0  0  0  0
   17.8725  -22.4112   41.7503 H   0  0  0  0  0  0  0  0  0  0  0  0
   18.6725  -21.9483   40.2100 H   0  0  0  0  0  0  0  0  0  0  0  0
   16.9493  -22.4557   40.2100 H   0  0  0  0  0  0  0  0  0  0  0  0
   17.5300  -24.5300   40.1370 H   0  0  0  0  0  0  0  0  0  0  0  0
   19.0373  -23.7072   38.4978 H   0  0  0  0  0  0  0  0  0  0  0  0
   20.2678  -23.4872   39.8188 H   0  0  0  0  0  0  0  0  0  0  0  0
   19.1110  -26.1552   38.8481 H   0  0  0  0  0  0  0  0  0  0  0  0
   20.7671  -25.5266   38.5326 H   0  0  0  0  0  0  0  0  0  0  0  0
   19.6159  -28.1037   38.9073 H   0  0  0  0  0  0  0  0  0  0  0  0
   19.2190  -33.9409   40.1805 H   0  0  0  0  0  0  0  0  0  0  0  0
   18.2553  -35.8812   38.9388 H   0  0  0  0  0  0  0  0  0  0  0  0
   18.0979  -35.8177   36.4473 H   0  0  0  0  0  0  0  0  0  0  0  0
   19.5270  -34.2860   34.4190 H   0  0  0  0  0  0  0  0  0  0  0  0
   20.4130  -28.7770   36.0290 H   0  0  0  0  0  0  0  0  0  0  0  0
   22.6909  -30.8780   40.1186 H   0  0  0  0  0  0  0  0  0  0  0  0
   23.5825  -29.1896   41.7061 H   0  0  0  0  0  0  0  0  0  0  0  0
   18.4830  -26.6927   41.2401 H   0  0  0  0  0  0  0  0  0  0  0  0
   19.7211  -26.4214   42.5173 H   0  0  0  0  0  0  0  0  0  0  0  0
   17.9948  -24.5988   42.4631 H   0  0  0  0  0  0  0  0  0  0  0  0
   19.6703  -23.9974   42.0912 H   0  0  0  0  0  0  0  0  0  0  0  0
  1  2  1  0
  2  3  1  0
  3  4  1  0
  4  5  1  0
  5  6  1  0
  6  7  2  0
  7  8  1  0
  8  9  1  0
  9 10  1  0
 10 11  1  0
 11 12  2  0
 12 13  1  0
 13 14  2  0
 14 15  1  0
 15 16  1  0
 15 17  2  0
 17 18  1  0
 18 19  2  0
 18 20  1  0
 20 21  1  0
  8 22  2  0
 22 23  1  0
 23 24  2  0
 24 25  1  0
 25 26  1  0
 25 27  1  0
 25 28  1  0
  5 29  1  0
 29 30  1  0
 30  2  1  0
 24  6  1  0
 20  9  2  0
 17 11  1  0
  1 31  1  0
  1 32  1  0
  1 33  1  0
  2 34  1  0
  3 35  1  0
  3 36  1  0
  4 37  1  0
  4 38  1  0
  7 39  1  0
 12 40  1  0
 13 41  1  0
 14 42  1  0
 16 43  1  0
 21 44  1  0
 22 45  1  0
 23 46  1  0
 29 47  1  0
 29 48  1  0
 30 49  1  0
 30 50  1  0
M  CHG  1   2   1
M  END
>  <meeko>  (2) 
{"is_sidechain": [false], "free_energy": -9.603, "intermolecular_energy": -12.097, "internal_energy": -0.477}

$$$$
cand_056_out
     RDKit          3D

 50 53  0  0  0  0  0  0  0  0999 V2000
   17.5590  -22.7660   39.1080 C   0  0  0  0  0  0  0  0  0  0  0  0
   18.0160  -24.1510   39.0060 N   0  0  0  0  0  0  0  0  0  0  0  0
   19.3740  -24.2080   38.4150 C   0  0  0  0  0  0  0  0  0  0  0  0
   19.9240  -25.6530   38.3380 C   0  0  0  0  0  0  0  0  0  0  0  0
   19.9240  -26.2630   39.6880 N   0  0  0  0  0  0  0  0  0  0  0  0
   20.5310  -27.5310   39.7320 C   0  0  0  0  0  0  0  0  0  0  0  0
   20.1500  -28.5690   38.8610 C   0  0  0  0  0  0  0  0  0  0  0  0
   20.7620  -29.8310   38.8970 C   0  0  0  0  0  0  0  0  0  0  0  0
   20.3440  -30.9220   37.9930 C   0  0  0  0  0  0  0  0  0  0  0  0
   20.6880  -30.6890   36.6670 O   0  0  0  0  0  0  0  0  0  0  0  0
   20.3600  -31.6260   35.7220 C   0  0  0  0  0  0  0  0  0  0  0  0
   20.7380  -31.3570   34.4050 C   0  0  0  0  0  0  0  0  0  0  0  0
   20.4310  -32.2690   33.3930 C   0  0  0  0  0  0  0  0  0  0  0  0
   19.7480  -33.4490   33.6970 C   0  0  0  0  0  0  0  0  0  0  0  0
   19.3720  -33.7140   35.0100 C   0  0  0  0  0  0  0  0  0  0  0  0
   18.7040  -34.8860   35.2380 O   0  0  0  0  0  0  0  0  0  0  0  0
   19.6780  -32.8010   36.0230 C   0  0  0  0  0  0  0  0  0  0  0  0
   19.3010  -33.0410   37.4170 C   0  0  0  0  0  0  0  0  0  0  0  0
   18.6910  -34.0510   37.7620 O   0  0  0  0  0  0  0  0  0  0  0  0
   19.6800  -32.0150   38.4150 C   0  0  0  0  0  0  0  0  0  0  0  0
   19.3080  -32.2440   39.7260 O   0  0  0  0  0  0  0  0  0  0  0  0
   21.7640  -30.0570   39.8450 C   0  0  0  0  0  0  0  0  0  0  0  0
   22.1540  -29.0420   40.7210 C   0  0  0  0  0  0  0  0  0  0  0  0
   21.5460  -27.7730   40.6740 C   0  0  0  0  0  0  0  0  0  0  0  0
   21.9880  -26.6920   41.6300 C   0  0  0  0  0  0  0  0  0  0  0  0
   23.1000  -27.0450   42.3470 F   0  0  0  0  0  0  0  0  0  0  0  0
   21.0520  -26.3780   42.5730 F   0  0  0  0  0  0  0  0  0  0  0  0
   22.3270  -25.5200   41.0170 F   0  0  0  0  0  0  0  0  0  0  0  0
   18.5710  -26.2430   40.2930 C   0  0  0  0  0  0  0  0  0  0  0  0
   18.0390  -24.7900   40.3420 C   0  0  0  0  0  0  0  0  0  0  0  0
   17.4671  -22.4874   40.1681 H   0  0  0  0  0  0  0  0  0  0  0  0
   18.2860  -22.1029   38.6163 H   0  0  0  0  0  0  0  0  0  0  0  0
   16.5801  -22.6657   38.6163 H   0  0  0  0  0  0  0  0  0  0  0  0
   17.3640  -24.6530   38.4020 H   0  0  0  0  0  0  0  0  0  0  0  0
   19.3345  -23.7904   37.3981 H   0  0  0  0  0  0  0  0  0  0  0  0
   20.0466  -23.6273   39.0634 H   0  0  0  0  0  0  0  0  0  0  0  0
   19.2886  -26.2502   37.6675 H   0  0  0  0  0  0  0  0  0  0  0  0
   20.9531  -25.6295   37.9503 H   0  0  0  0  0  0  0  0  0  0  0  0
   19.3485  -28.3853   38.1303 H   0  0  0  0  0  0  0  0  0  0  0  0
   21.2766  -30.4284   34.1651 H   0  0  0  0  0  0  0  0  0  0  0  0
   20.7274  -32.0579   32.3550 H   0  0  0  0  0  0  0  0  0  0  0  0
   19.5078  -34.1676   32.8995 H   0  0  0  0  0  0  0  0  0  0  0  0
   17.9100  -34.8840   35.7360 H   0  0  0  0  0  0  0  0  0  0  0  0
   19.5900  -33.0230   40.1650 H   0  0  0  0  0  0  0  0  0  0  0  0
   22.2493  -31.0426   39.9014 H   0  0  0  0  0  0  0  0  0  0  0  0
   22.9471  -29.2365   41.4579 H   0  0  0  0  0  0  0  0  0  0  0  0
   17.8912  -26.8604   39.6875 H   0  0  0  0  0  0  0  0  0  0  0  0
   18.6249  -26.6444   41.3157 H   0  0  0  0  0  0  0  0  0  0  0  0
   17.0157  -24.8021   40.7453 H   0  0  0  0  0  0  0  0  0  0  0  0
   18.7177  -24.2061   40.9811 H   0  0  0  0  0  0  0  0  0  0  0  0
  1  2  1  0
  2  3  1  0
  3  4  1  0
  4  5  1  0
  5  6  1  0
  6  7  2  0
  7  8  1  0
  8  9  1  0
  9 10  1  0
 10 11  1  0
 11 12  2  0
 12 13  1  0
 13 14  2  0
 14 15  1  0
 15 16  1  0
 15 17  2  0
 17 18  1  0
 18 19  2  0
 18 20  1  0
 20 21  1  0
  8 22  2  0
 22 23  1  0
 23 24  2  0
 24 25  1  0
 25 26  1  0
 25 27  1  0
 25 28  1  0
  5 29  1  0
 29 30  1  0
 30  2  1  0
 24  6  1  0
 20  9  2  0
 17 11  1  0
  1 31  1  0
  1 32  1  0
  1 33  1  0
  2 34  1  0
  3 35  1  0
  3 36  1  0
  4 37  1  0
  4 38  1  0
  7 39  1  0
 12 40  1  0
 13 41  1  0
 14 42  1  0
 16 43  1  0
 21 44  1  0
 22 45  1  0
 23 46  1  0
 29 47  1  0
 29 48  1  0
 30 49  1  0
 30 50  1  0
M  CHG  1   2   1
M  END
>  <meeko>  (3) 
{"is_sidechain": [false], "free_energy": -9.122, "intermolecular_energy": -11.3, "internal_energy": -0.681}

$$$$
cand_056_out
     RDKit          3D

 50 53  0  0  0  0  0  0  0  0999 V2000
   17.1430  -21.7270   39.4450 C   0  0  0  0  0  0  0  0  0  0  0  0
   17.6820  -23.0810   39.3250 N   0  0  0  0  0  0  0  0  0  0  0  0
   19.0850  -23.0410   38.8500 C   0  0  0  0  0  0  0  0  0  0  0  0
   19.7190  -24.4510   38.7620 C   0  0  0  0  0  0  0  0  0  0  0  0
   19.6420  -25.1200   40.0810 N   0  0  0  0  0  0  0  0  0  0  0  0
   20.3120  -26.3560   40.1250 C   0  0  0  0  0  0  0  0  0  0  0  0
   20.0590  -27.3740   39.1860 C   0  0  0  0  0  0  0  0  0  0  0  0
   20.7340  -28.6020   39.2240 C   0  0  0  0  0  0  0  0  0  0  0  0
   20.4500  -29.6740   38.2470 C   0  0  0  0  0  0  0  0  0  0  0  0
   19.8280  -30.7770   38.8190 O   0  0  0  0  0  0  0  0  0  0  0  0
   19.5070  -31.8450   38.0210 C   0  0  0  0  0  0  0  0  0  0  0  0
   18.8700  -32.9250   38.6340 C   0  0  0  0  0  0  0  0  0  0  0  0
   18.5170  -34.0450   37.8780 C   0  0  0  0  0  0  0  0  0  0  0  0
   18.8020  -34.0860   36.5120 C   0  0  0  0  0  0  0  0  0  0  0  0
   19.4370  -33.0080   35.9030 C   0  0  0  0  0  0  0  0  0  0  0  0
   19.6870  -33.1140   34.5620 O   0  0  0  0  0  0  0  0  0  0  0  0
   19.7900  -31.8860   36.6590 C   0  0  0  0  0  0  0  0  0  0  0  0
   20.4600  -30.7320   36.0580 C   0  0  0  0  0  0  0  0  0  0  0  0
   20.7500  -30.6950   34.8640 O   0  0  0  0  0  0  0  0  0  0  0  0
   20.7840  -29.5900   36.9450 C   0  0  0  0  0  0  0  0  0  0  0  0
   21.4280  -28.5100   36.3720 O   0  0  0  0  0  0  0  0  0  0  0  0
   21.6700  -28.8170   40.2410 C   0  0  0  0  0  0  0  0  0  0  0  0
   21.9320  -27.8210   41.1830 C   0  0  0  0  0  0  0  0  0  0  0  0
   21.2610  -26.5850   41.1370 C   0  0  0  0  0  0  0  0  0  0  0  0
   21.5660  -25.5240   42.1660 C   0  0  0  0  0  0  0  0  0  0  0  0
   20.6010  -25.4380   43.1340 F   0  0  0  0  0  0  0  0  0  0  0  0
   21.6510  -24.2650   41.6470 F   0  0  0  0  0  0  0  0  0  0  0  0
   22.7260  -25.7390   42.8520 F   0  0  0  0  0  0  0  0  0  0  0  0
   18.2450  -25.1970   40.5700 C   0  0  0  0  0  0  0  0  0  0  0  0
   17.6300  -23.7780   40.6320 C   0  0  0  0  0  0  0  0  0  0  0  0
   17.0393  -21.4666   40.5087 H   0  0  0  0  0  0  0  0  0  0  0  0
   17.8266  -21.0158   38.9583 H   0  0  0  0  0  0  0  0  0  0  0  0
   16.1576  -21.6801   38.9583 H   0  0  0  0  0  0  0  0  0  0  0  0
   17.1100  -23.5890   38.6500 H   0  0  0  0  0  0  0  0  0  0  0  0
   19.1067  -22.5810   37.8511 H   0  0  0  0  0  0  0  0  0  0  0  0
   19.6683  -22.4558   39.5761 H   0  0  0  0  0  0  0  0  0  0  0  0
   19.1751  -25.0499   38.0167 H   0  0  0  0  0  0  0  0  0  0  0  0
   20.7737  -24.3565   38.4642 H   0  0  0  0  0  0  0  0  0  0  0  0
   19.3097  -27.2007   38.3995 H   0  0  0  0  0  0  0  0  0  0  0  0
   18.6464  -32.8941   39.7106 H   0  0  0  0  0  0  0  0  0  0  0  0
   18.0136  -34.8962   38.3597 H   0  0  0  0  0  0  0  0  0  0  0  0
   18.5249  -34.9693   35.9179 H   0  0  0  0  0  0  0  0  0  0  0  0
   19.7180  -32.3430   34.0290 H   0  0  0  0  0  0  0  0  0  0  0  0
   21.2840  -28.3040   35.4690 H   0  0  0  0  0  0  0  0  0  0  0  0
   22.2031  -29.7774   40.2987 H   0  0  0  0  0  0  0  0  0  0  0  0
   22.6744  -28.0051   41.9735 H   0  0  0  0  0  0  0  0  0  0  0  0
   17.6527  -25.8217   39.8852 H   0  0  0  0  0  0  0  0  0  0  0  0
   18.2375  -25.6394   41.5771 H   0  0  0  0  0  0  0  0  0  0  0  0
   16.5790  -23.8621   40.9457 H   0  0  0  0  0  0  0  0  0  0  0  0
   18.2195  -23.1885   41.3496 H   0  0  0  0  0  0  0  0  0  0  0  0
  1  2  1  0
  2  3  1  0
  3  4  1  0
  4  5  1  0
  5  6  1  0
  6  7  2  0
  7  8  1  0
  8  9  1  0
  9 10  1  0
 10 11  1  0
 11 12  2  0
 12 13  1  0
 13 14  2  0
 14 15  1  0
 15 16  1  0
 15 17  2  0
 17 18  1  0
 18 19  2  0
 18 20  1  0
 20 21  1  0
  8 22  2  0
 22 23  1  0
 23 24  2  0
 24 25  1  0
 25 26  1  0
 25 27  1  0
 25 28  1  0
  5 29  1  0
 29 30  1  0
 30  2  1  0
 24  6  1  0
 20  9  2  0
 17 11  1  0
  1 31  1  0
  1 32  1  0
  1 33  1  0
  2 34  1  0
  3 35  1  0
  3 36  1  0
  4 37  1  0
  4 38  1  0
  7 39  1  0
 12 40  1  0
 13 41  1  0
 14 42  1  0
 16 43  1  0
 21 44  1  0
 22 45  1  0
 23 46  1  0
 29 47  1  0
 29 48  1  0
 30 49  1  0
 30 50  1  0
M  CHG  1   2   1
M  END
>  <meeko>  (4) 
{"is_sidechain": [false], "free_energy": -8.803, "intermolecular_energy": -10.97, "internal_energy": -0.618}

$$$$
cand_056_out
     RDKit          3D

 50 53  0  0  0  0  0  0  0  0999 V2000
   19.5650  -34.1520   34.5080 C   0  0  0  0  0  0  0  0  0  0  0  0
   20.1420  -33.1060   35.3510 N   0  0  0  0  0  0  0  0  0  0  0  0
   20.3610  -31.8680   34.5660 C   0  0  0  0  0  0  0  0  0  0  0  0
   20.9200  -30.7120   35.4300 C   0  0  0  0  0  0  0  0  0  0  0  0
   20.0060  -30.4460   36.5650 N   0  0  0  0  0  0  0  0  0  0  0  0
   20.3700  -29.3220   37.3290 C   0  0  0  0  0  0  0  0  0  0  0  0
   21.1040  -29.4410   38.5240 C   0  0  0  0  0  0  0  0  0  0  0  0
   21.4760  -28.3200   39.2810 C   0  0  0  0  0  0  0  0  0  0  0  0
   22.2300  -28.4520   40.5450 C   0  0  0  0  0  0  0  0  0  0  0  0
   21.9770  -27.4170   41.4370 O   0  0  0  0  0  0  0  0  0  0  0  0
   22.6130  -27.4190   42.6520 C   0  0  0  0  0  0  0  0  0  0  0  0
   22.3180  -26.3690   43.5220 C   0  0  0  0  0  0  0  0  0  0  0  0
   22.9330  -26.3100   44.7750 C   0  0  0  0  0  0  0  0  0  0  0  0
   23.8420  -27.2990   45.1560 C   0  0  0  0  0  0  0  0  0  0  0  0
   24.1340  -28.3460   44.2860 C   0  0  0  0  0  0  0  0  0  0  0  0
   25.0330  -29.2800   44.7220 O   0  0  0  0  0  0  0  0  0  0  0  0
   23.5180  -28.4050   43.0330 C   0  0  0  0  0  0  0  0  0  0  0  0
   23.7980  -29.4870   42.0880 C   0  0  0  0  0  0  0  0  0  0  0  0
   24.5900  -30.3900   42.3470 O   0  0  0  0  0  0  0  0  0  0  0  0
   23.0860  -29.4620   40.7880 C   0  0  0  0  0  0  0  0  0  0  0  0
   23.3660  -30.4800   39.8970 O   0  0  0  0  0  0  0  0  0  0  0  0
   21.0820  -27.0550   38.8340 C   0  0  0  0  0  0  0  0  0  0  0  0
   20.3500  -26.9170   37.6530 C   0  0  0  0  0  0  0  0  0  0  0  0
   19.9880  -28.0420   36.8900 C   0  0  0  0  0  0  0  0  0  0  0  0
   19.1990  -27.8650   35.6150 C   0  0  0  0  0  0  0  0  0  0  0  0
   18.6370  -26.6210   35.5130 F   0  0  0  0  0  0  0  0  0  0  0  0
   18.1510  -28.7310   35.4940 F   0  0  0  0  0  0  0  0  0  0  0  0
   19.9470  -28.0030   34.4810 F   0  0  0  0  0  0  0  0  0  0  0  0
   19.7890  -31.6620   37.3840 C   0  0  0  0  0  0  0  0  0  0  0  0
   19.2470  -32.8060   36.4930 C   0  0  0  0  0  0  0  0  0  0  0  0
   19.1315  -34.9379   35.1439 H   0  0  0  0  0  0  0  0  0  0  0  0
   18.7783  -33.7187   33.8729 H   0  0  0  0  0  0  0  0  0  0  0  0
   20.3511  -34.5863   33.8729 H   0  0  0  0  0  0  0  0  0  0  0  0
   21.0380  -33.4450   35.7040 H   0  0  0  0  0  0  0  0  0  0  0  0
   21.0766  -32.0836   33.7589 H   0  0  0  0  0  0  0  0  0  0  0  0
   19.3873  -31.5476   34.1669 H   0  0  0  0  0  0  0  0  0  0  0  0
   21.9110  -30.9916   35.8170 H   0  0  0  0  0  0  0  0  0  0  0  0
   21.0053  -29.8057   34.8125 H   0  0  0  0  0  0  0  0  0  0  0  0
   21.3945  -30.4423   38.8747 H   0  0  0  0  0  0  0  0  0  0  0  0
   21.6026  -25.5891   43.2220 H   0  0  0  0  0  0  0  0  0  0  0  0
   22.7008  -25.4832   45.4624 H   0  0  0  0  0  0  0  0  0  0  0  0
   24.3268  -27.2510   46.1422 H   0  0  0  0  0  0  0  0  0  0  0  0
   25.8590  -29.0070   45.0710 H   0  0  0  0  0  0  0  0  0  0  0  0
   24.0620  -31.0830   40.0770 H   0  0  0  0  0  0  0  0  0  0  0  0
   21.3508  -26.1619   39.4171 H   0  0  0  0  0  0  0  0  0  0  0  0
   20.0520  -25.9138   37.3143 H   0  0  0  0  0  0  0  0  0  0  0  0
   20.7424  -31.9722   37.8364 H   0  0  0  0  0  0  0  0  0  0  0  0
   19.0574  -31.4407   38.1750 H   0  0  0  0  0  0  0  0  0  0  0  0
   19.1423  -33.7125   37.1072 H   0  0  0  0  0  0  0  0  0  0  0  0
   18.2788  -32.4818   36.0837 H   0  0  0  0  0  0  0  0  0  0  0  0
  1  2  1  0
  2  3  1  0
  3  4  1  0
  4  5  1  0
  5  6  1  0
  6  7  2  0
  7  8  1  0
  8  9  1  0
  9 10  1  0
 10 11  1  0
 11 12  2  0
 12 13  1  0
 13 14  2  0
 14 15  1  0
 15 16  1  0
 15 17  2  0
 17 18  1  0
 18 19  2  0
 18 20  1  0
 20 21  1  0
  8 22  2  0
 22 23  1  0
 23 24  2  0
 24 25  1  0
 25 26  1  0
 25 27  1  0
 25 28  1  0
  5 29  1  0
 29 30  1  0
 30  2  1  0
 24  6  1  0
 20  9  2  0
 17 11  1  0
  1 31  1  0
  1 32  1  0
  1 33  1  0
  2 34  1  0
  3 35  1  0
  3 36  1  0
  4 37  1  0
  4 38  1  0
  7 39  1  0
 12 40  1  0
 13 41  1  0
 14 42  1  0
 16 43  1  0
 21 44  1  0
 22 45  1  0
 23 46  1  0
 29 47  1  0
 29 48  1  0
 30 49  1  0
 30 50  1  0
M  CHG  1   2   1
M  END
>  <meeko>  (5) 
{"is_sidechain": [false], "free_energy": -8.799, "intermolecular_energy": -11.655, "internal_energy": 0.072}

$$$$
cand_056_out
     RDKit          3D

 50 53  0  0  0  0  0  0  0  0999 V2000
   19.8900  -22.1800   44.4450 C   0  0  0  0  0  0  0  0  0  0  0  0
   20.2010  -23.2580   43.5060 N   0  0  0  0  0  0  0  0  0  0  0  0
   21.6580  -23.3110   43.2410 C   0  0  0  0  0  0  0  0  0  0  0  0
   22.0430  -24.4750   42.2960 C   0  0  0  0  0  0  0  0  0  0  0  0
   21.5760  -25.7610   42.8650 N   0  0  0  0  0  0  0  0  0  0  0  0
   21.9990  -26.8850   42.1340 C   0  0  0  0  0  0  0  0  0  0  0  0
   21.4510  -27.2060   40.8780 C   0  0  0  0  0  0  0  0  0  0  0  0
   21.8800  -28.3220   40.1440 C   0  0  0  0  0  0  0  0  0  0  0  0
   21.2870  -28.6640   38.8340 C   0  0  0  0  0  0  0  0  0  0  0  0
   20.6690  -27.5810   38.2200 O   0  0  0  0  0  0  0  0  0  0  0  0
   20.0790  -27.7610   36.9960 C   0  0  0  0  0  0  0  0  0  0  0  0
   19.4830  -26.6430   36.4090 C   0  0  0  0  0  0  0  0  0  0  0  0
   18.8620  -26.7590   35.1640 C   0  0  0  0  0  0  0  0  0  0  0  0
   18.8370  -27.9910   34.5060 C   0  0  0  0  0  0  0  0  0  0  0  0
   19.4320  -29.1040   35.0930 C   0  0  0  0  0  0  0  0  0  0  0  0
   19.3690  -30.2790   34.3950 O   0  0  0  0  0  0  0  0  0  0  0  0
   20.0530  -28.9880   36.3390 C   0  0  0  0  0  0  0  0  0  0  0  0
   20.6890  -30.1330   36.9920 C   0  0  0  0  0  0  0  0  0  0  0  0
   20.7030  -31.2510   36.4800 O   0  0  0  0  0  0  0  0  0  0  0  0
   21.3280  -29.9030   38.3090 C   0  0  0  0  0  0  0  0  0  0  0  0
   21.9150  -30.9930   38.9240 O   0  0  0  0  0  0  0  0  0  0  0  0
   22.8660  -29.1440   40.6980 C   0  0  0  0  0  0  0  0  0  0  0  0
   23.4190  -28.8450   41.9440 C   0  0  0  0  0  0  0  0  0  0  0  0
   22.9960  -27.7180   42.6730 C   0  0  0  0  0  0  0  0  0  0  0  0
   23.6120  -27.4160   44.0170 C   0  0  0  0  0  0  0  0  0  0  0  0
   24.5710  -28.3260   44.3730 F   0  0  0  0  0  0  0  0  0  0  0  0
   22.7170  -27.4340   45.0480 F   0  0  0  0  0  0  0  0  0  0  0  0
   24.2420  -26.2060   44.0740 F   0  0  0  0  0  0  0  0  0  0  0  0
   20.1160  -25.7440   43.1170 C   0  0  0  0  0  0  0  0  0  0  0  0
   19.7560  -24.5620   44.0500 C   0  0  0  0  0  0  0  0  0  0  0  0
   19.9966  -22.5494   45.4756 H   0  0  0  0  0  0  0  0  0  0  0  0
   20.5828  -21.3411   44.2827 H   0  0  0  0  0  0  0  0  0  0  0  0
   18.8569  -21.8390   44.2827 H   0  0  0  0  0  0  0  0  0  0  0  0
   19.7050  -23.0680   42.6350 H   0  0  0  0  0  0  0  0  0  0  0  0
   21.9677  -22.3625   42.7779 H   0  0  0  0  0  0  0  0  0  0  0  0
   22.1682  -23.4755   44.2015 H   0  0  0  0  0  0  0  0  0  0  0  0
   21.5729  -24.3184   41.3139 H   0  0  0  0  0  0  0  0  0  0  0  0
   23.1369  -24.5042   42.1838 H   0  0  0  0  0  0  0  0  0  0  0  0
   20.6629  -26.5628   40.4594 H   0  0  0  0  0  0  0  0  0  0  0  0
   19.5027  -25.6726   36.9266 H   0  0  0  0  0  0  0  0  0  0  0  0
   18.3918  -25.8791   34.7006 H   0  0  0  0  0  0  0  0  0  0  0  0
   18.3476  -28.0814   33.5250 H   0  0  0  0  0  0  0  0  0  0  0  0
   20.0180  -30.4730   33.7470 H   0  0  0  0  0  0  0  0  0  0  0  0
   21.8430  -31.1020   39.8520 H   0  0  0  0  0  0  0  0  0  0  0  0
   23.2084  -30.0328   40.1478 H   0  0  0  0  0  0  0  0  0  0  0  0
   24.1972  -29.5001   42.3626 H   0  0  0  0  0  0  0  0  0  0  0  0
   19.5823  -25.6304   42.1619 H   0  0  0  0  0  0  0  0  0  0  0  0
   19.8205  -26.6881   43.5980 H   0  0  0  0  0  0  0  0  0  0  0  0
   18.6643  -24.5358   44.1819 H   0  0  0  0  0  0  0  0  0  0  0  0
   20.2738  -24.7205   45.0075 H   0  0  0  0  0  0  0  0  0  0  0  0
  1  2  1  0
  2  3  1  0
  3  4  1  0
  4  5  1  0
  5  6  1  0
  6  7  2  0
  7  8  1  0
  8  9  1  0
  9 10  1  0
 10 11  1  0
 11 12  2  0
 12 13  1  0
 13 14  2  0
 14 15  1  0
 15 16  1  0
 15 17  2  0
 17 18  1  0
 18 19  2  0
 18 20  1  0
 20 21  1  0
  8 22  2  0
 22 23  1  0
 23 24  2  0
 24 25  1  0
 25 26  1  0
 25 27  1  0
 25 28  1  0
  5 29  1  0
 29 30  1  0
 30  2  1  0
 24  6  1  0
 20  9  2  0
 17 11  1  0
  1 31  1  0
  1 32  1  0
  1 33  1  0
  2 34  1  0
  3 35  1  0
  3 36  1  0
  4 37  1  0
  4 38  1  0
  7 39  1  0
 12 40  1  0
 13 41  1  0
 14 42  1  0
 16 43  1  0
 21 44  1  0
 22 45  1  0
 23 46  1  0
 29 47  1  0
 29 48  1  0
 30 49  1  0
 30 50  1  0
M  CHG  1   2   1
M  END
>  <meeko>  (6) 
{"is_sidechain": [false], "free_energy": -8.733, "intermolecular_energy": -11.321, "internal_energy": -0.181}

$$$$
cand_056_out
     RDKit          3D

 50 53  0  0  0  0  0  0  0  0999 V2000
   19.7040  -33.9360   34.9620 C   0  0  0  0  0  0  0  0  0  0  0  0
   20.2150  -32.8010   35.7280 N   0  0  0  0  0  0  0  0  0  0  0  0
   20.3850  -31.6170   34.8530 C   0  0  0  0  0  0  0  0  0  0  0  0
   20.8710  -30.3720   35.6320 C   0  0  0  0  0  0  0  0  0  0  0  0
   19.9260  -30.0660   36.7320 N   0  0  0  0  0  0  0  0  0  0  0  0
   20.2200  -28.8710   37.4110 C   0  0  0  0  0  0  0  0  0  0  0  0
   20.9090  -28.8630   38.6400 C   0  0  0  0  0  0  0  0  0  0  0  0
   21.2120  -27.6700   39.3130 C   0  0  0  0  0  0  0  0  0  0  0  0
   21.9180  -27.6690   40.6100 C   0  0  0  0  0  0  0  0  0  0  0  0
   22.6920  -28.8070   40.8070 O   0  0  0  0  0  0  0  0  0  0  0  0
   23.4020  -28.9320   41.9730 C   0  0  0  0  0  0  0  0  0  0  0  0
   24.1780  -30.0840   42.1210 C   0  0  0  0  0  0  0  0  0  0  0  0
   24.9240  -30.2750   43.2860 C   0  0  0  0  0  0  0  0  0  0  0  0
   24.8940  -29.3160   44.3020 C   0  0  0  0  0  0  0  0  0  0  0  0
   24.1200  -28.1690   44.1510 C   0  0  0  0  0  0  0  0  0  0  0  0
   24.1360  -27.2730   45.1840 O   0  0  0  0  0  0  0  0  0  0  0  0
   23.3740  -27.9780   42.9850 C   0  0  0  0  0  0  0  0  0  0  0  0
   22.5460  -26.7870   42.7870 C   0  0  0  0  0  0  0  0  0  0  0  0
   22.4620  -25.9030   43.6370 O   0  0  0  0  0  0  0  0  0  0  0  0
   21.8000  -26.6760   41.5120 C   0  0  0  0  0  0  0  0  0  0  0  0
   21.0110  -25.5550   41.3390 O   0  0  0  0  0  0  0  0  0  0  0  0
   20.7940  -26.4620   38.7460 C   0  0  0  0  0  0  0  0  0  0  0  0
   20.1070  -26.4490   37.5310 C   0  0  0  0  0  0  0  0  0  0  0  0
   19.8140  -27.6470   36.8520 C   0  0  0  0  0  0  0  0  0  0  0  0
   19.0730  -27.6050   35.5380 C   0  0  0  0  0  0  0  0  0  0  0  0
   18.5630  -26.3640   35.2610 F   0  0  0  0  0  0  0  0  0  0  0  0
   17.9950  -28.4410   35.4900 F   0  0  0  0  0  0  0  0  0  0  0  0
   19.8490  -27.9110   34.4580 F   0  0  0  0  0  0  0  0  0  0  0  0
   19.7560  -31.2260   37.6390 C   0  0  0  0  0  0  0  0  0  0  0  0
   19.2870  -32.4610   36.8320 C   0  0  0  0  0  0  0  0  0  0  0  0
   19.3527  -34.7164   35.6531 H   0  0  0  0  0  0  0  0  0  0  0  0
   18.8684  -33.6042   34.3282 H   0  0  0  0  0  0  0  0  0  0  0  0
   20.5063  -34.3417   34.3282 H   0  0  0  0  0  0  0  0  0  0  0  0
   21.1200  -33.0670   36.1180 H   0  0  0  0  0  0  0  0  0  0  0  0
   21.1237  -31.8567   34.0740 H   0  0  0  0  0  0  0  0  0  0  0  0
   19.4033  -31.3780   34.4181 H   0  0  0  0  0  0  0  0  0  0  0  0
   21.8680  -30.5706   36.0521 H   0  0  0  0  0  0  0  0  0  0  0  0
   20.9211  -29.5125   34.9473 H   0  0  0  0  0  0  0  0  0  0  0  0
   21.2184  -29.8203   39.0848 H   0  0  0  0  0  0  0  0  0  0  0  0
   24.2014  -30.8392   41.3215 H   0  0  0  0  0  0  0  0  0  0  0  0
   25.5360  -31.1814   43.4040 H   0  0  0  0  0  0  0  0  0  0  0  0
   25.4812  -29.4673   45.2198 H   0  0  0  0  0  0  0  0  0  0  0  0
   23.3340  -26.8920   45.4860 H   0  0  0  0  0  0  0  0  0  0  0  0
   20.1940  -25.4820   41.7940 H   0  0  0  0  0  0  0  0  0  0  0  0
   21.0083  -25.5143   39.2617 H   0  0  0  0  0  0  0  0  0  0  0  0
   19.7900  -25.4889   37.0978 H   0  0  0  0  0  0  0  0  0  0  0  0
   20.7159  -31.4518   38.1264 H   0  0  0  0  0  0  0  0  0  0  0  0
   19.0006  -30.9827   38.4007 H   0  0  0  0  0  0  0  0  0  0  0  0
   19.2176  -33.3222   37.5129 H   0  0  0  0  0  0  0  0  0  0  0  0
   18.3107  -32.2192   36.3866 H   0  0  0  0  0  0  0  0  0  0  0  0
  1  2  1  0
  2  3  1  0
  3  4  1  0
  4  5  1  0
  5  6  1  0
  6  7  2  0
  7  8  1  0
  8  9  1  0
  9 10  1  0
 10 11  1  0
 11 12  2  0
 12 13  1  0
 13 14  2  0
 14 15  1  0
 15 16  1  0
 15 17  2  0
 17 18  1  0
 18 19  2  0
 18 20  1  0
 20 21  1  0
  8 22  2  0
 22 23  1  0
 23 24  2  0
 24 25  1  0
 25 26  1  0
 25 27  1  0
 25 28  1  0
  5 29  1  0
 29 30  1  0
 30  2  1  0
 24  6  1  0
 20  9  2  0
 17 11  1  0
  1 31  1  0
  1 32  1  0
  1 33  1  0
  2 34  1  0
  3 35  1  0
  3 36  1  0
  4 37  1  0
  4 38  1  0
  7 39  1  0
 12 40  1  0
 13 41  1  0
 14 42  1  0
 16 43  1  0
 21 44  1  0
 22 45  1  0
 23 46  1  0
 29 47  1  0
 29 48  1  0
 30 49  1  0
 30 50  1  0
M  CHG  1   2   1
M  END
>  <meeko>  (7) 
{"is_sidechain": [false], "free_energy": -8.667, "intermolecular_energy": -11.669, "internal_energy": 0.249}

$$$$
cand_056_out
     RDKit          3D

 50 53  0  0  0  0  0  0  0  0999 V2000
   19.8650  -22.1690   44.7200 C   0  0  0  0  0  0  0  0  0  0  0  0
   20.1170  -23.1690   43.6840 N   0  0  0  0  0  0  0  0  0  0  0  0
   21.5650  -23.2460   43.3770 C   0  0  0  0  0  0  0  0  0  0  0  0
   21.8890  -24.3330   42.3240 C   0  0  0  0  0  0  0  0  0  0  0  0
   21.3910  -25.6490   42.7900 N   0  0  0  0  0  0  0  0  0  0  0  0
   21.7590  -26.7170   41.9530 C   0  0  0  0  0  0  0  0  0  0  0  0
   21.2300  -26.8630   40.6560 C   0  0  0  0  0  0  0  0  0  0  0  0
   21.6040  -27.9230   39.8170 C   0  0  0  0  0  0  0  0  0  0  0  0
   21.0320  -28.0810   38.4640 C   0  0  0  0  0  0  0  0  0  0  0  0
   21.0930  -29.3890   38.0000 O   0  0  0  0  0  0  0  0  0  0  0  0
   20.5930  -29.6740   36.7550 C   0  0  0  0  0  0  0  0  0  0  0  0
   20.6620  -31.0040   36.3350 C   0  0  0  0  0  0  0  0  0  0  0  0
   20.1730  -31.3620   35.0760 C   0  0  0  0  0  0  0  0  0  0  0  0
   19.6170  -30.3920   34.2390 C   0  0  0  0  0  0  0  0  0  0  0  0
   19.5500  -29.0670   34.6610 C   0  0  0  0  0  0  0  0  0  0  0  0
   18.9950  -28.1690   33.7910 O   0  0  0  0  0  0  0  0  0  0  0  0
   20.0390  -28.7090   35.9200 C   0  0  0  0  0  0  0  0  0  0  0  0
   19.9890  -27.3280   36.4010 C   0  0  0  0  0  0  0  0  0  0  0  0
   19.5210  -26.4170   35.7210 O   0  0  0  0  0  0  0  0  0  0  0  0
   20.5260  -27.0540   37.7550 C   0  0  0  0  0  0  0  0  0  0  0  0
   20.4870  -25.7450   38.1960 O   0  0  0  0  0  0  0  0  0  0  0  0
   22.5130  -28.8680   40.3030 C   0  0  0  0  0  0  0  0  0  0  0  0
   23.0450  -28.7430   41.5880 C   0  0  0  0  0  0  0  0  0  0  0  0
   22.6780  -27.6720   42.4230 C   0  0  0  0  0  0  0  0  0  0  0  0
   23.2700  -27.5590   43.8070 C   0  0  0  0  0  0  0  0  0  0  0  0
   24.1080  -28.5990   44.1070 F   0  0  0  0  0  0  0  0  0  0  0  0
   22.3380  -27.5650   44.8040 F   0  0  0  0  0  0  0  0  0  0  0  0
   24.0270  -26.4380   43.9920 F   0  0  0  0  0  0  0  0  0  0  0  0
   19.9380  -25.6070   43.0800 C   0  0  0  0  0  0  0  0  0  0  0  0
   19.6400  -24.5020   44.1220 C   0  0  0  0  0  0  0  0  0  0  0  0
   19.9814  -22.6309   45.7115 H   0  0  0  0  0  0  0  0  0  0  0  0
   20.5829  -21.3423   44.6140 H   0  0  0  0  0  0  0  0  0  0  0  0
   18.8411  -21.7813   44.6140 H   0  0  0  0  0  0  0  0  0  0  0  0
   19.6090  -22.8870   42.8450 H   0  0  0  0  0  0  0  0  0  0  0  0
   21.8964  -22.2707   42.9911 H   0  0  0  0  0  0  0  0  0  0  0  0
   22.0906  -23.5123   44.3059 H   0  0  0  0  0  0  0  0  0  0  0  0
   21.4027  -24.0751   41.3716 H   0  0  0  0  0  0  0  0  0  0  0  0
   22.9784  -24.3870   42.1817 H   0  0  0  0  0  0  0  0  0  0  0  0
   20.5020  -26.1239   40.2901 H   0  0  0  0  0  0  0  0  0  0  0  0
   21.1003  -31.7681   36.9938 H   0  0  0  0  0  0  0  0  0  0  0  0
   20.2260  -32.4092   34.7436 H   0  0  0  0  0  0  0  0  0  0  0  0
   19.2326  -30.6745   33.2478 H   0  0  0  0  0  0  0  0  0  0  0  0
   18.1030  -27.9020   33.9000 H   0  0  0  0  0  0  0  0  0  0  0  0
   20.9700  -25.4920   38.9580 H   0  0  0  0  0  0  0  0  0  0  0  0
   22.8110  -29.7158   39.6686 H   0  0  0  0  0  0  0  0  0  0  0  0
   23.7619  -29.4933   41.9528 H   0  0  0  0  0  0  0  0  0  0  0  0
   19.3871  -25.3917   42.1525 H   0  0  0  0  0  0  0  0  0  0  0  0
   19.6212  -26.5800   43.4836 H   0  0  0  0  0  0  0  0  0  0  0  0
   18.5530  -24.4527   44.2836 H   0  0  0  0  0  0  0  0  0  0  0  0
   20.1738  -24.7616   45.0481 H   0  0  0  0  0  0  0  0  0  0  0  0
  1  2  1  0
  2  3  1  0
  3  4  1  0
  4  5  1  0
  5  6  1  0
  6  7  2  0
  7  8  1  0
  8  9  1  0
  9 10  1  0
 10 11  1  0
 11 12  2  0
 12 13  1  0
 13 14  2  0
 14 15  1  0
 15 16  1  0
 15 17  2  0
 17 18  1  0
 18 19  2  0
 18 20  1  0
 20 21  1  0
  8 22  2  0
 22 23  1  0
 23 24  2  0
 24 25  1  0
 25 26  1  0
 25 27  1  0
 25 28  1  0
  5 29  1  0
 29 30  1  0
 30  2  1  0
 24  6  1  0
 20  9  2  0
 17 11  1  0
  1 31  1  0
  1 32  1  0
  1 33  1  0
  2 34  1  0
  3 35  1  0
  3 36  1  0
  4 37  1  0
  4 38  1  0
  7 39  1  0
 12 40  1  0
 13 41  1  0
 14 42  1  0
 16 43  1  0
 21 44  1  0
 22 45  1  0
 23 46  1  0
 29 47  1  0
 29 48  1  0
 30 49  1  0
 30 50  1  0
M  CHG  1   2   1
M  END
>  <meeko>  (8) 
{"is_sidechain": [false], "free_energy": -8.63, "intermolecular_energy": -11.1, "internal_energy": -0.274}

$$$$
cand_056_out
     RDKit          3D

 50 53  0  0  0  0  0  0  0  0999 V2000
   15.2480  -23.9740   36.6680 C   0  0  0  0  0  0  0  0  0  0  0  0
   16.3750  -24.6640   37.2950 N   0  0  0  0  0  0  0  0  0  0  0  0
   16.2310  -26.1310   37.1510 C   0  0  0  0  0  0  0  0  0  0  0  0
   17.4300  -26.9040   37.7510 C   0  0  0  0  0  0  0  0  0  0  0  0
   18.6900  -26.4460   37.1200 N   0  0  0  0  0  0  0  0  0  0  0  0
   19.8170  -27.1890   37.5130 C   0  0  0  0  0  0  0  0  0  0  0  0
   20.3760  -27.0690   38.8000 C   0  0  0  0  0  0  0  0  0  0  0  0
   21.4950  -27.8170   39.1950 C   0  0  0  0  0  0  0  0  0  0  0  0
   22.0870  -27.6740   40.5410 C   0  0  0  0  0  0  0  0  0  0  0  0
   22.8430  -28.7760   40.9210 O   0  0  0  0  0  0  0  0  0  0  0  0
   23.4510  -28.7720   42.1500 C   0  0  0  0  0  0  0  0  0  0  0  0
   24.2120  -29.8940   42.4840 C   0  0  0  0  0  0  0  0  0  0  0  0
   24.8560  -29.9550   43.7210 C   0  0  0  0  0  0  0  0  0  0  0  0
   24.7390  -28.8950   44.6240 C   0  0  0  0  0  0  0  0  0  0  0  0
   23.9800  -27.7780   44.2880 C   0  0  0  0  0  0  0  0  0  0  0  0
   23.9070  -26.7780   45.2190 O   0  0  0  0  0  0  0  0  0  0  0  0
   23.3350  -27.7170   43.0500 C   0  0  0  0  0  0  0  0  0  0  0  0
   22.5270  -26.5620   42.6580 C   0  0  0  0  0  0  0  0  0  0  0  0
   22.3710  -25.5940   43.4000 O   0  0  0  0  0  0  0  0  0  0  0  0
   21.8920  -26.5920   41.3200 C   0  0  0  0  0  0  0  0  0  0  0  0
   21.1200  -25.5030   40.9640 O   0  0  0  0  0  0  0  0  0  0  0  0
   22.0750  -28.6880   38.2680 C   0  0  0  0  0  0  0  0  0  0  0  0
   21.5390  -28.8170   36.9860 C   0  0  0  0  0  0  0  0  0  0  0  0
   20.4090  -28.0740   36.5950 C   0  0  0  0  0  0  0  0  0  0  0  0
   19.8470  -28.2350   35.2030 C   0  0  0  0  0  0  0  0  0  0  0  0
   20.6970  -28.9090   34.3670 F   0  0  0  0  0  0  0  0  0  0  0  0
   19.6040  -27.0510   34.5700 F   0  0  0  0  0  0  0  0  0  0  0  0
   18.6810  -28.9440   35.1590 F   0  0  0  0  0  0  0  0  0  0  0  0
   18.8720  -24.9830   37.2720 C   0  0  0  0  0  0  0  0  0  0  0  0
   17.6530  -24.2360   36.6790 C   0  0  0  0  0  0  0  0  0  0  0  0
   14.5863  -23.5689   37.4478 H   0  0  0  0  0  0  0  0  0  0  0  0
   15.6240  -23.1511   36.0423 H   0  0  0  0  0  0  0  0  0  0  0  0
   14.6861  -24.6831   36.0423 H   0  0  0  0  0  0  0  0  0  0  0  0
   16.3790  -24.4200   38.2860 H   0  0  0  0  0  0  0  0  0  0  0  0
   15.3127  -26.4480   37.6669 H   0  0  0  0  0  0  0  0  0  0  0  0
   16.1892  -26.3596   36.0758 H   0  0  0  0  0  0  0  0  0  0  0  0
   17.4769  -26.7209   38.8346 H   0  0  0  0  0  0  0  0  0  0  0  0
   17.2995  -27.9797   37.5617 H   0  0  0  0  0  0  0  0  0  0  0  0
   19.9220  -26.3684   39.5163 H   0  0  0  0  0  0  0  0  0  0  0  0
   24.3039  -30.7286   41.7734 H   0  0  0  0  0  0  0  0  0  0  0  0
   25.4561  -30.8382   43.9852 H   0  0  0  0  0  0  0  0  0  0  0  0
   25.2461  -28.9434   45.5990 H   0  0  0  0  0  0  0  0  0  0  0  0
   24.5650  -26.7070   45.8830 H   0  0  0  0  0  0  0  0  0  0  0  0
   21.5310  -24.7130   40.6710 H   0  0  0  0  0  0  0  0  0  0  0  0
   22.9604  -29.2760   38.5512 H   0  0  0  0  0  0  0  0  0  0  0  0
   22.0064  -29.5095   36.2704 H   0  0  0  0  0  0  0  0  0  0  0  0
   18.9669  -24.7363   38.3398 H   0  0  0  0  0  0  0  0  0  0  0  0
   19.7818  -24.6737   36.7366 H   0  0  0  0  0  0  0  0  0  0  0  0
   17.7831  -23.1569   36.8484 H   0  0  0  0  0  0  0  0  0  0  0  0
   17.6041  -24.4720   35.6057 H   0  0  0  0  0  0  0  0  0  0  0  0
  1  2  1  0
  2  3  1  0
  3  4  1  0
  4  5  1  0
  5  6  1  0
  6  7  2  0
  7  8  1  0
  8  9  1  0
  9 10  1  0
 10 11  1  0
 11 12  2  0
 12 13  1  0
 13 14  2  0
 14 15  1  0
 15 16  1  0
 15 17  2  0
 17 18  1  0
 18 19  2  0
 18 20  1  0
 20 21  1  0
  8 22  2  0
 22 23  1  0
 23 24  2  0
 24 25  1  0
 25 26  1  0
 25 27  1  0
 25 28  1  0
  5 29  1  0
 29 30  1  0
 30  2  1  0
 24  6  1  0
 20  9  2  0
 17 11  1  0
  1 31  1  0
  1 32  1  0
  1 33  1  0
  2 34  1  0
  3 35  1  0
  3 36  1  0
  4 37  1  0
  4 38  1  0
  7 39  1  0
 12 40  1  0
 13 41  1  0
 14 42  1  0
 16 43  1  0
 21 44  1  0
 22 45  1  0
 23 46  1  0
 29 47  1  0
 29 48  1  0
 30 49  1  0
 30 50  1  0
M  CHG  1   2   1
M  END
>  <meeko>  (9) 
{"is_sidechain": [false], "free_energy": -8.287, "intermolecular_energy": -10.77, "internal_energy": -0.182}

$$$$
