clorgyline_out
     RDKit          3D

 33 33  0  0  0  0  0  0  0  0999 V2000
   47.1230  159.8100   31.6040 C   0  0  0  0  0  0  0  0  0  0  0  0
   48.1320  160.0170   30.9870 C   0  0  0  0  0  0  0  0  0  0  0  0
   49.3690  160.2760   30.2300 C   0  0  0  0  0  0  0  0  0  0  0  0
   50.6140  159.9920   30.9660 N   0  0  2  0  0  0  0  0  0  0  0  0
   51.0790  161.1680   31.7030 C   0  0  0  0  0  0  0  0  0  0  0  0
   51.6530  159.4290   30.0860 C   0  0  0  0  0  0  0  0  0  0  0  0
   51.3590  157.9740   29.6930 C   0  0  0  0  0  0  0  0  0  0  0  0
   52.5300  157.3450   28.9390 C   0  0  0  0  0  0  0  0  0  0  0  0
   52.1900  156.0020   28.6010 O   0  0  0  0  0  0  0  0  0  0  0  0
   52.6360  155.5050   27.4060 C   0  0  0  0  0  0  0  0  0  0  0  0
   53.1260  156.2880   26.3550 C   0  0  0  0  0  0  0  0  0  0  0  0
   53.5570  155.6860   25.1670 C   0  0  0  0  0  0  0  0  0  0  0  0
   53.4950  154.3020   25.0240 C   0  0  0  0  0  0  0  0  0  0  0  0
   54.0250  153.5720   23.5590 Cl  0  0  0  0  0  0  0  0  0  0  0  0
   53.0090  153.5070   26.0560 C   0  0  0  0  0  0  0  0  0  0  0  0
   52.5790  154.1090   27.2410 C   0  0  0  0  0  0  0  0  0  0  0  0
   51.9840  153.0800   28.4990 Cl  0  0  0  0  0  0  0  0  0  0  0  0
   46.1986  159.6204   32.1693 H   0  0  0  0  0  0  0  0  0  0  0  0
   49.3549  159.6491   29.3263 H   0  0  0  0  0  0  0  0  0  0  0  0
   49.3779  161.3537   30.0099 H   0  0  0  0  0  0  0  0  0  0  0  0
   50.4050  159.2730   31.6610 H   0  0  0  0  0  0  0  0  0  0  0  0
   51.0035  160.9770   32.7836 H   0  0  0  0  0  0  0  0  0  0  0  0
   52.1267  161.3752   31.4396 H   0  0  0  0  0  0  0  0  0  0  0  0
   50.4563  162.0357   31.4396 H   0  0  0  0  0  0  0  0  0  0  0  0
   51.7098  160.0377   29.1715 H   0  0  0  0  0  0  0  0  0  0  0  0
   52.6045  159.4426   30.6378 H   0  0  0  0  0  0  0  0  0  0  0  0
   51.1674  157.3900   30.6053 H   0  0  0  0  0  0  0  0  0  0  0  0
   50.4813  157.9683   29.0300 H   0  0  0  0  0  0  0  0  0  0  0  0
   52.7296  157.9180   28.0215 H   0  0  0  0  0  0  0  0  0  0  0  0
   53.4304  157.3551   29.5709 H   0  0  0  0  0  0  0  0  0  0  0  0
   53.1727  157.3817   26.4628 H   0  0  0  0  0  0  0  0  0  0  0  0
   53.9450  156.3065   24.3458 H   0  0  0  0  0  0  0  0  0  0  0  0
   52.9635  152.4140   25.9404 H   0  0  0  0  0  0  0  0  0  0  0  0
  1  2  3  0
  2  3  1  0
  3  4  1  0
  4  5  1  0
  4  6  1  0
  6  7  1  0
  7  8  1  0
  8  9  1  0
  9 10  1  0
 10 11  2  0
 11 12  1  0
 12 13  2  0
 13 14  1  0
 13 15  1  0
 15 16  2  0
 16 17  1  0
 16 10  1  0
  1 18  1  0
  3 19  1  0
  3 20  1  0
  4 21  1  1
  5 22  1  0
  5 23  1  0
  5 24  1  0
  6 25  1  0
  6 26  1  0
  7 27  1  0
  7 28  1  0
  8 29  1  0
  8 30  1  0
 11 31  1  0
 12 32  1  0
 15 33  1  0
M  CHG  1   4   1
M  END
>  <meeko>  (1) 
{"is_sidechain": [false], "free_energy": -7.58, "intermolecular_energy": -10.239, "internal_energy": -0.344}

$$$$
clorgyline_out
     RDKit          3D

 33 33  0  0  0  0  0  0  0  0999 V2000
   54.1460  153.3090   23.6020 C   0  0  0  0  0  0  0  0  0  0  0  0
   53.7930  153.5920   24.7140 C   0  0  0  0  0  0  0  0  0  0  0  0
   53.3640  153.9390   26.0800 C   0  0  0  0  0  0  0  0  0  0  0  0
   52.6820  155.2400   26.2000 N   0  0  2  0  0  0  0  0  0  0  0  0
   53.4040  156.2910   25.4810 C   0  0  0  0  0  0  0  0  0  0  0  0
   52.4230  155.5940   27.6070 C   0  0  0  0  0  0  0  0  0  0  0  0
   52.6940  157.0780   27.8950 C   0  0  0  0  0  0  0  0  0  0  0  0
   52.3020  157.4570   29.3230 C   0  0  0  0  0  0  0  0  0  0  0  0
   52.0960  158.8660   29.3830 O   0  0  0  0  0  0  0  0  0  0  0  0
   51.1410  159.3420   30.2430 C   0  0  0  0  0  0  0  0  0  0  0  0
   49.9300  158.6980   30.5170 C   0  0  0  0  0  0  0  0  0  0  0  0
   49.0140  159.2670   31.4090 C   0  0  0  0  0  0  0  0  0  0  0  0
   49.3030  160.4820   32.0270 C   0  0  0  0  0  0  0  0  0  0  0  0
   48.1700  161.1730   33.1210 Cl  0  0  0  0  0  0  0  0  0  0  0  0
   50.5010  161.1380   31.7640 C   0  0  0  0  0  0  0  0  0  0  0  0
   51.4140  160.5700   30.8730 C   0  0  0  0  0  0  0  0  0  0  0  0
   52.8920  161.4210   30.5790 Cl  0  0  0  0  0  0  0  0  0  0  0  0
   54.4694  153.0497   22.5831 H   0  0  0  0  0  0  0  0  0  0  0  0
   52.6747  153.1572   26.4316 H   0  0  0  0  0  0  0  0  0  0  0  0
   54.2804  154.0119   26.6841 H   0  0  0  0  0  0  0  0  0  0  0  0
   51.7680  155.1530   25.7540 H   0  0  0  0  0  0  0  0  0  0  0  0
   53.8733  156.9741   26.2043 H   0  0  0  0  0  0  0  0  0  0  0  0
   54.1809  155.8358   24.8492 H   0  0  0  0  0  0  0  0  0  0  0  0
   52.7003  156.8529   24.8492 H   0  0  0  0  0  0  0  0  0  0  0  0
   51.3701  155.3754   27.8385 H   0  0  0  0  0  0  0  0  0  0  0  0
   53.1043  155.0001   28.2339 H   0  0  0  0  0  0  0  0  0  0  0  0
   53.7664  157.2785   27.7545 H   0  0  0  0  0  0  0  0  0  0  0  0
   52.0868  157.6785   27.2017 H   0  0  0  0  0  0  0  0  0  0  0  0
   51.3749  156.9354   29.6029 H   0  0  0  0  0  0  0  0  0  0  0  0
   53.1013  157.1656   30.0203 H   0  0  0  0  0  0  0  0  0  0  0  0
   49.6966  157.7401   30.0292 H   0  0  0  0  0  0  0  0  0  0  0  0
   48.0645  158.7544   31.6226 H   0  0  0  0  0  0  0  0  0  0  0  0
   50.7274  162.0965   32.2539 H   0  0  0  0  0  0  0  0  0  0  0  0
  1  2  3  0
  2  3  1  0
  3  4  1  0
  4  5  1  0
  4  6  1  0
  6  7  1  0
  7  8  1  0
  8  9  1  0
  9 10  1  0
 10 11  2  0
 11 12  1  0
 12 13  2  0
 13 14  1  0
 13 15  1  0
 15 16  2  0
 16 17  1  0
 16 10  1  0
  1 18  1  0
  3 19  1  0
  3 20  1  0
  4 21  1  6
  5 22  1  0
  5 23  1  0
  5 24  1  0
  6 25  1  0
  6 26  1  0
  7 27  1  0
  7 28  1  0
  8 29  1  0
  8 30  1  0
 11 31  1  0
 12 32  1  0
 15 33  1  0
M  CHG  1   4   1
M  END
>  <meeko>  (2) 
{"is_sidechain": [false], "free_energy": -7.568, "intermolecular_energy": -10.292, "internal_energy": -0.275}

$$$$
clorgyline_out
     RDKit          3D

 33 33  0  0  0  0  0  0  0  0999 V2000
   54.1000  153.1380   23.9170 C   0  0  0  0  0  0  0  0  0  0  0  0
   53.5790  154.0580   24.4870 C   0  0  0  0  0  0  0  0  0  0  0  0
   52.9380  155.1840   25.1870 C   0  0  0  0  0  0  0  0  0  0  0  0
   53.2630  155.2860   26.6210 N   0  0  2  0  0  0  0  0  0  0  0  0
   52.5920  154.2410   27.3960 C   0  0  0  0  0  0  0  0  0  0  0  0
   52.9990  156.6370   27.1470 C   0  0  0  0  0  0  0  0  0  0  0  0
   52.2840  156.6050   28.5050 C   0  0  0  0  0  0  0  0  0  0  0  0
   52.5010  157.8990   29.2890 C   0  0  0  0  0  0  0  0  0  0  0  0
   51.3570  158.7340   29.1230 O   0  0  0  0  0  0  0  0  0  0  0  0
   50.8960  159.4210   30.2140 C   0  0  0  0  0  0  0  0  0  0  0  0
   51.5580  160.5000   30.8090 C   0  0  0  0  0  0  0  0  0  0  0  0
   51.0070  161.1360   31.9270 C   0  0  0  0  0  0  0  0  0  0  0  0
   49.7970  160.6940   32.4570 C   0  0  0  0  0  0  0  0  0  0  0  0
   49.1300  161.4830   33.8330 Cl  0  0  0  0  0  0  0  0  0  0  0  0
   49.1260  159.6210   31.8810 C   0  0  0  0  0  0  0  0  0  0  0  0
   49.6770  158.9870   30.7650 C   0  0  0  0  0  0  0  0  0  0  0  0
   48.8050  157.6570   30.0800 Cl  0  0  0  0  0  0  0  0  0  0  0  0
   54.5771  152.2955   23.3950 H   0  0  0  0  0  0  0  0  0  0  0  0
   53.2550  156.1165   24.6971 H   0  0  0  0  0  0  0  0  0  0  0  0
   51.8537  155.0090   25.1270 H   0  0  0  0  0  0  0  0  0  0  0  0
   54.2660  155.1290   26.7220 H   0  0  0  0  0  0  0  0  0  0  0  0
   52.7206  154.4413   28.4699 H   0  0  0  0  0  0  0  0  0  0  0  0
   51.5198  154.2335   27.1502 H   0  0  0  0  0  0  0  0  0  0  0  0
   53.0314  153.2630   27.1502 H   0  0  0  0  0  0  0  0  0  0  0  0
   53.9573  157.1642   27.2643 H   0  0  0  0  0  0  0  0  0  0  0  0
   52.3407  157.1531   26.4326 H   0  0  0  0  0  0  0  0  0  0  0  0
   51.2058  156.4666   28.3370 H   0  0  0  0  0  0  0  0  0  0  0  0
   52.7013  155.7740   29.0927 H   0  0  0  0  0  0  0  0  0  0  0  0
   52.6376  157.6667   30.3555 H   0  0  0  0  0  0  0  0  0  0  0  0
   53.3980  158.4156   28.9169 H   0  0  0  0  0  0  0  0  0  0  0  0
   52.5157  160.8500   30.3963 H   0  0  0  0  0  0  0  0  0  0  0  0
   51.5303  161.9866   32.3882 H   0  0  0  0  0  0  0  0  0  0  0  0
   48.1699  159.2746   32.3004 H   0  0  0  0  0  0  0  0  0  0  0  0
  1  2  3  0
  2  3  1  0
  3  4  1  0
  4  5  1  0
  4  6  1  0
  6  7  1  0
  7  8  1  0
  8  9  1  0
  9 10  1  0
 10 11  2  0
 11 12  1  0
 12 13  2  0
 13 14  1  0
 13 15  1  0
 15 16  2  0
 16 17  1  0
 16 10  1  0
  1 18  1  0
  3 19  1  0
  3 20  1  0
  4 21  1  6
  5 22  1  0
  5 23  1  0
  5 24  1  0
  6 25  1  0
  6 26  1  0
  7 27  1  0
  7 28  1  0
  8 29  1  0
  8 30  1  0
 11 31  1  0
 12 32  1  0
 15 33  1  0
M  CHG  1   4   1
M  END
>  <meeko>  (3) 
{"is_sidechain": [false], "free_energy": -7.511, "intermolecular_energy": -10.108, "internal_energy": -0.382}

$$$$
clorgyline_out
     RDKit          3D

 33 33  0  0  0  0  0  0  0  0999 V2000
   50.4780  159.6060   30.5230 C   0  0  0  0  0  0  0  0  0  0  0  0
   51.3000  158.8990   30.0060 C   0  0  0  0  0  0  0  0  0  0  0  0
   52.3090  158.0310   29.3760 C   0  0  0  0  0  0  0  0  0  0  0  0
   51.7680  156.8140   28.7450 N   0  0  2  0  0  0  0  0  0  0  0  0
   51.1300  155.9400   29.7300 C   0  0  0  0  0  0  0  0  0  0  0  0
   52.7890  156.1140   27.9450 C   0  0  0  0  0  0  0  0  0  0  0  0
   53.0590  156.8110   26.6040 C   0  0  0  0  0  0  0  0  0  0  0  0
   53.1750  155.8070   25.4580 C   0  0  0  0  0  0  0  0  0  0  0  0
   52.3950  154.6560   25.7740 O   0  0  0  0  0  0  0  0  0  0  0  0
   52.8950  153.4260   25.4430 C   0  0  0  0  0  0  0  0  0  0  0  0
   53.7180  153.1760   24.3390 C   0  0  0  0  0  0  0  0  0  0  0  0
   54.1770  151.8800   24.0790 C   0  0  0  0  0  0  0  0  0  0  0  0
   53.8130  150.8290   24.9180 C   0  0  0  0  0  0  0  0  0  0  0  0
   54.3820  149.2390   24.5900 Cl  0  0  0  0  0  0  0  0  0  0  0  0
   52.9940  151.0570   26.0180 C   0  0  0  0  0  0  0  0  0  0  0  0
   52.5360  152.3510   26.2760 C   0  0  0  0  0  0  0  0  0  0  0  0
   51.5210  152.5880   27.6590 Cl  0  0  0  0  0  0  0  0  0  0  0  0
   49.7252  160.2535   30.9965 H   0  0  0  0  0  0  0  0  0  0  0  0
   52.8289  158.6156   28.6027 H   0  0  0  0  0  0  0  0  0  0  0  0
   52.9746  157.6922   30.1836 H   0  0  0  0  0  0  0  0  0  0  0  0
   51.0400  157.1020   28.0910 H   0  0  0  0  0  0  0  0  0  0  0  0
   51.3817  156.2849   30.7438 H   0  0  0  0  0  0  0  0  0  0  0  0
   50.0389  155.9686   29.5934 H   0  0  0  0  0  0  0  0  0  0  0  0
   51.4897  154.9095   29.5934 H   0  0  0  0  0  0  0  0  0  0  0  0
   53.7260  156.0790   28.5202 H   0  0  0  0  0  0  0  0  0  0  0  0
   52.4117  155.1036   27.7286 H   0  0  0  0  0  0  0  0  0  0  0  0
   52.2315  157.5031   26.3891 H   0  0  0  0  0  0  0  0  0  0  0  0
   54.0140  157.3510   26.6846 H   0  0  0  0  0  0  0  0  0  0  0  0
   52.8022  156.2623   24.5286 H   0  0  0  0  0  0  0  0  0  0  0  0
   54.2274  155.5184   25.3193 H   0  0  0  0  0  0  0  0  0  0  0  0
   54.0054  154.0024   23.6724 H   0  0  0  0  0  0  0  0  0  0  0  0
   54.8260  151.6908   23.2112 H   0  0  0  0  0  0  0  0  0  0  0  0
   52.7092  150.2255   26.6794 H   0  0  0  0  0  0  0  0  0  0  0  0
  1  2  3  0
  2  3  1  0
  3  4  1  0
  4  5  1  0
  4  6  1  0
  6  7  1  0
  7  8  1  0
  8  9  1  0
  9 10  1  0
 10 11  2  0
 11 12  1  0
 12 13  2  0
 13 14  1  0
 13 15  1  0
 15 16  2  0
 16 17  1  0
 16 10  1  0
  1 18  1  0
  3 19  1  0
  3 20  1  0
  4 21  1  6
  5 22  1  0
  5 23  1  0
  5 24  1  0
  6 25  1  0
  6 26  1  0
  7 27  1  0
  7 28  1  0
  8 29  1  0
  8 30  1  0
 11 31  1  0
 12 32  1  0
 15 33  1  0
M  CHG  1   4   1
M  END
>  <meeko>  (4) 
{"is_sidechain": [false], "free_energy": -7.45, "intermolecular_energy": -9.907, "internal_energy": -0.501}

$$$$
clorgyline_out
     RDKit          3D

 33 33  0  0  0  0  0  0  0  0999 V2000
   54.2210  150.3150   24.6270 C   0  0  0  0  0  0  0  0  0  0  0  0
   54.1180  151.5110   24.5840 C   0  0  0  0  0  0  0  0  0  0  0  0
   53.9880  152.9770   24.5290 C   0  0  0  0  0  0  0  0  0  0  0  0
   53.8420  153.6330   25.8410 N   0  0  2  0  0  0  0  0  0  0  0  0
   52.6800  153.1190   26.5690 C   0  0  0  0  0  0  0  0  0  0  0  0
   53.8280  155.1010   25.7200 C   0  0  0  0  0  0  0  0  0  0  0  0
   52.6640  155.7400   26.4920 C   0  0  0  0  0  0  0  0  0  0  0  0
   53.1050  156.9980   27.2390 C   0  0  0  0  0  0  0  0  0  0  0  0
   52.9310  156.7850   28.6380 O   0  0  0  0  0  0  0  0  0  0  0  0
   51.9070  157.4410   29.2680 C   0  0  0  0  0  0  0  0  0  0  0  0
   51.9420  158.7880   29.6450 C   0  0  0  0  0  0  0  0  0  0  0  0
   50.8440  159.3690   30.2900 C   0  0  0  0  0  0  0  0  0  0  0  0
   49.7100  158.6070   30.5640 C   0  0  0  0  0  0  0  0  0  0  0  0
   48.3670  159.3300   31.3580 Cl  0  0  0  0  0  0  0  0  0  0  0  0
   49.6580  157.2660   30.1990 C   0  0  0  0  0  0  0  0  0  0  0  0
   50.7550  156.6870   29.5550 C   0  0  0  0  0  0  0  0  0  0  0  0
   50.6440  155.0160   29.1170 Cl  0  0  0  0  0  0  0  0  0  0  0  0
   54.3153  149.2198   24.6664 H   0  0  0  0  0  0  0  0  0  0  0  0
   54.8869  153.3825   24.0415 H   0  0  0  0  0  0  0  0  0  0  0  0
   53.0621  153.1857   23.9730 H   0  0  0  0  0  0  0  0  0  0  0  0
   54.6650  153.3990   26.3980 H   0  0  0  0  0  0  0  0  0  0  0  0
   52.8606  153.1989   27.6511 H   0  0  0  0  0  0  0  0  0  0  0  0
   51.7900  153.7074   26.3014 H   0  0  0  0  0  0  0  0  0  0  0  0
   52.5166  152.0646   26.3014 H   0  0  0  0  0  0  0  0  0  0  0  0
   54.7746  155.4973   26.1160 H   0  0  0  0  0  0  0  0  0  0  0  0
   53.7016  155.3491   24.6558 H   0  0  0  0  0  0  0  0  0  0  0  0
   51.8688  156.0080   25.7807 H   0  0  0  0  0  0  0  0  0  0  0  0
   52.3016  155.0110   27.2317 H   0  0  0  0  0  0  0  0  0  0  0  0
   54.1643  157.2031   27.0250 H   0  0  0  0  0  0  0  0  0  0  0  0
   52.5010  157.8577   26.9134 H   0  0  0  0  0  0  0  0  0  0  0  0
   52.8361  159.3929   29.4336 H   0  0  0  0  0  0  0  0  0  0  0  0
   50.8764  160.4293   30.5812 H   0  0  0  0  0  0  0  0  0  0  0  0
   48.7615  156.6664   30.4152 H   0  0  0  0  0  0  0  0  0  0  0  0
  1  2  3  0
  2  3  1  0
  3  4  1  0
  4  5  1  0
  4  6  1  0
  6  7  1  0
  7  8  1  0
  8  9  1  0
  9 10  1  0
 10 11  2  0
 11 12  1  0
 12 13  2  0
 13 14  1  0
 13 15  1  0
 15 16  2  0
 16 17  1  0
 16 10  1  0
  1 18  1  0
  3 19  1  0
  3 20  1  0
  4 21  1  1
  5 22  1  0
  5 23  1  0
  5 24  1  0
  6 25  1  0
  6 26  1  0
  7 27  1  0
  7 28  1  0
  8 29  1  0
  8 30  1  0
 11 31  1  0
 12 32  1  0
 15 33  1  0
M  CHG  1   4   1
M  END
>  <meeko>  (5) 
{"is_sidechain": [false], "free_energy": -7.348, "intermolecular_energy": -9.868, "internal_energy": -0.402}

$$$$
clorgyline_out
     RDKit          3D

 33 33  0  0  0  0  0  0  0  0999 V2000
   53.5390  162.3340   30.7580 C   0  0  0  0  0  0  0  0  0  0  0  0
   52.5940  161.6300   30.9890 C   0  0  0  0  0  0  0  0  0  0  0  0
   51.4330  160.7700   31.2740 C   0  0  0  0  0  0  0  0  0  0  0  0
   50.7950  160.1810   30.0830 N   0  0  2  0  0  0  0  0  0  0  0  0
   49.4150  160.6430   29.9330 C   0  0  0  0  0  0  0  0  0  0  0  0
   50.9030  158.7110   30.0760 C   0  0  0  0  0  0  0  0  0  0  0  0
   52.1610  158.2220   29.3440 C   0  0  0  0  0  0  0  0  0  0  0  0
   52.0650  156.7390   28.9860 C   0  0  0  0  0  0  0  0  0  0  0  0
   52.4640  156.5680   27.6280 O   0  0  0  0  0  0  0  0  0  0  0  0
   52.6370  155.2920   27.1620 C   0  0  0  0  0  0  0  0  0  0  0  0
   52.1350  154.1450   27.7870 C   0  0  0  0  0  0  0  0  0  0  0  0
   52.3690  152.8810   27.2350 C   0  0  0  0  0  0  0  0  0  0  0  0
   53.1090  152.7570   26.0610 C   0  0  0  0  0  0  0  0  0  0  0  0
   53.3920  151.1980   25.3920 Cl  0  0  0  0  0  0  0  0  0  0  0  0
   53.6180  153.8850   25.4270 C   0  0  0  0  0  0  0  0  0  0  0  0
   53.3840  155.1460   25.9790 C   0  0  0  0  0  0  0  0  0  0  0  0
   54.0360  156.5220   25.1540 Cl  0  0  0  0  0  0  0  0  0  0  0  0
   54.4047  162.9789   30.5464 H   0  0  0  0  0  0  0  0  0  0  0  0
   51.7667  159.9487   31.9253 H   0  0  0  0  0  0  0  0  0  0  0  0
   50.6765  161.4155   31.7442 H   0  0  0  0  0  0  0  0  0  0  0  0
   51.3070  160.5100   29.2630 H   0  0  0  0  0  0  0  0  0  0  0  0
   48.9683  160.7926   30.9270 H   0  0  0  0  0  0  0  0  0  0  0  0
   49.4047  161.5936   29.3796 H   0  0  0  0  0  0  0  0  0  0  0  0
   48.8344  159.8902   29.3796 H   0  0  0  0  0  0  0  0  0  0  0  0
   50.9377  158.3540   31.1159 H   0  0  0  0  0  0  0  0  0  0  0  0
   50.0274  158.3120   29.5430 H   0  0  0  0  0  0  0  0  0  0  0  0
   52.2849  158.8048   28.4194 H   0  0  0  0  0  0  0  0  0  0  0  0
   53.0228  158.3584   30.0138 H   0  0  0  0  0  0  0  0  0  0  0  0
   52.7281  156.1564   29.6424 H   0  0  0  0  0  0  0  0  0  0  0  0
   51.0309  156.3883   29.1190 H   0  0  0  0  0  0  0  0  0  0  0  0
   51.5539  154.2377   28.7164 H   0  0  0  0  0  0  0  0  0  0  0  0
   51.9681  151.9835   27.7287 H   0  0  0  0  0  0  0  0  0  0  0  0
   54.1998  153.7848   24.4989 H   0  0  0  0  0  0  0  0  0  0  0  0
  1  2  3  0
  2  3  1  0
  3  4  1  0
  4  5  1  0
  4  6  1  0
  6  7  1  0
  7  8  1  0
  8  9  1  0
  9 10  1  0
 10 11  2  0
 11 12  1  0
 12 13  2  0
 13 14  1  0
 13 15  1  0
 15 16  2  0
 16 17  1  0
 16 10  1  0
  1 18  1  0
  3 19  1  0
  3 20  1  0
  4 21  1  6
  5 22  1  0
  5 23  1  0
  5 24  1  0
  6 25  1  0
  6 26  1  0
  7 27  1  0
  7 28  1  0
  8 29  1  0
  8 30  1  0
 11 31  1  0
 12 32  1  0
 15 33  1  0
M  CHG  1   4   1
M  END
>  <meeko>  (6) 
{"is_sidechain": [false], "free_energy": -7.329, "intermolecular_energy": -9.889, "internal_energy": -0.355}

$$$$
clorgyline_out
     RDKit          3D

 33 33  0  0  0  0  0  0  0  0999 V2000
   49.3390  160.9050   30.2480 C   0  0  0  0  0  0  0  0  0  0  0  0
   50.3230  160.2220   30.1660 C   0  0  0  0  0  0  0  0  0  0  0  0
   51.5310  159.3840   30.0700 C   0  0  0  0  0  0  0  0  0  0  0  0
   51.3370  158.1010   29.3700 N   0  0  2  0  0  0  0  0  0  0  0  0
   50.2980  157.2950   30.0110 C   0  0  0  0  0  0  0  0  0  0  0  0
   52.6050  157.3670   29.2140 C   0  0  0  0  0  0  0  0  0  0  0  0
   52.8870  156.9930   27.7510 C   0  0  0  0  0  0  0  0  0  0  0  0
   52.3480  155.6050   27.4090 C   0  0  0  0  0  0  0  0  0  0  0  0
   52.7460  155.2720   26.0810 O   0  0  0  0  0  0  0  0  0  0  0  0
   53.0520  153.9660   25.8080 C   0  0  0  0  0  0  0  0  0  0  0  0
   52.3870  152.8640   26.3560 C   0  0  0  0  0  0  0  0  0  0  0  0
   52.7780  151.5630   26.0180 C   0  0  0  0  0  0  0  0  0  0  0  0
   53.8360  151.3590   25.1350 C   0  0  0  0  0  0  0  0  0  0  0  0
   54.3090  149.7570   24.7260 Cl  0  0  0  0  0  0  0  0  0  0  0  0
   54.5110  152.4420   24.5820 C   0  0  0  0  0  0  0  0  0  0  0  0
   54.1200  153.7390   24.9200 C   0  0  0  0  0  0  0  0  0  0  0  0
   54.9870  155.0560   24.2060 Cl  0  0  0  0  0  0  0  0  0  0  0  0
   48.4375  161.5308   30.3231 H   0  0  0  0  0  0  0  0  0  0  0  0
   52.3020  159.9548   29.5317 H   0  0  0  0  0  0  0  0  0  0  0  0
   51.8186  159.1344   31.1020 H   0  0  0  0  0  0  0  0  0  0  0  0
   51.0080  158.3100   28.4270 H   0  0  0  0  0  0  0  0  0  0  0  0
   50.3966  157.3715   31.1039 H   0  0  0  0  0  0  0  0  0  0  0  0
   49.3075  157.6634   29.7055 H   0  0  0  0  0  0  0  0  0  0  0  0
   50.4086  156.2441   29.7055 H   0  0  0  0  0  0  0  0  0  0  0  0
   53.4268  157.9987   29.5822 H   0  0  0  0  0  0  0  0  0  0  0  0
   52.5261  156.4334   29.7904 H   0  0  0  0  0  0  0  0  0  0  0  0
   52.4067  157.7337   27.0947 H   0  0  0  0  0  0  0  0  0  0  0  0
   53.9770  156.9837   27.6033 H   0  0  0  0  0  0  0  0  0  0  0  0
   52.7565  154.8658   28.1137 H   0  0  0  0  0  0  0  0  0  0  0  0
   51.2504  155.6018   27.4822 H   0  0  0  0  0  0  0  0  0  0  0  0
   51.5529  153.0205   27.0558 H   0  0  0  0  0  0  0  0  0  0  0  0
   52.2492  150.7007   26.4502 H   0  0  0  0  0  0  0  0  0  0  0  0
   55.3456  152.2781   23.8844 H   0  0  0  0  0  0  0  0  0  0  0  0
  1  2  3  0
  2  3  1  0
  3  4  1  0
  4  5  1  0
  4  6  1  0
  6  7  1  0
  7  8  1  0
  8  9  1  0
  9 10  1  0
 10 11  2  0
 11 12  1  0
 12 13  2  0
 13 14  1  0
 13 15  1  0
 15 16  2  0
 16 17  1  0
 16 10  1  0
  1 18  1  0
  3 19  1  0
  3 20  1  0
  4 21  1  6
  5 22  1  0
  5 23  1  0
  5 24  1  0
  6 25  1  0
  6 26  1  0
  7 27  1  0
  7 28  1  0
  8 29  1  0
  8 30  1  0
 11 31  1  0
 12 32  1  0
 15 33  1  0
M  CHG  1   4   1
M  END
>  <meeko>  (7) 
{"is_sidechain": [false], "free_energy": -7.32, "intermolecular_energy": -9.896, "internal_energy": -0.336}

$$$$
clorgyline_out
     RDKit          3D

 33 33  0  0  0  0  0  0  0  0999 V2000
   53.2690  162.1450   30.9070 C   0  0  0  0  0  0  0  0  0  0  0  0
   52.2940  161.5000   31.1820 C   0  0  0  0  0  0  0  0  0  0  0  0
   51.0960  160.7120   31.5200 C   0  0  0  0  0  0  0  0  0  0  0  0
   50.5390  159.9280   30.4030 N   0  0  2  0  0  0  0  0  0  0  0  0
   49.4380  159.0720   30.8480 C   0  0  0  0  0  0  0  0  0  0  0  0
   51.5850  159.1760   29.6870 C   0  0  0  0  0  0  0  0  0  0  0  0
   51.3330  157.6620   29.7070 C   0  0  0  0  0  0  0  0  0  0  0  0
   52.4540  156.8930   29.0100 C   0  0  0  0  0  0  0  0  0  0  0  0
   51.8880  155.7850   28.3130 O   0  0  0  0  0  0  0  0  0  0  0  0
   52.5200  155.3440   27.1810 C   0  0  0  0  0  0  0  0  0  0  0  0
   53.1220  156.1780   26.2330 C   0  0  0  0  0  0  0  0  0  0  0  0
   53.7410  155.6310   25.1030 C   0  0  0  0  0  0  0  0  0  0  0  0
   53.7570  154.2510   24.9150 C   0  0  0  0  0  0  0  0  0  0  0  0
   54.5190  153.5890   23.5220 Cl  0  0  0  0  0  0  0  0  0  0  0  0
   53.1620  153.4060   25.8450 C   0  0  0  0  0  0  0  0  0  0  0  0
   52.5440  153.9530   26.9720 C   0  0  0  0  0  0  0  0  0  0  0  0
   51.8180  152.8630   28.1040 Cl  0  0  0  0  0  0  0  0  0  0  0  0
   54.1620  162.7358   30.6551 H   0  0  0  0  0  0  0  0  0  0  0  0
   51.3612  160.0153   32.3289 H   0  0  0  0  0  0  0  0  0  0  0  0
   50.3196  161.4356   31.8091 H   0  0  0  0  0  0  0  0  0  0  0  0
   50.1460  160.5860   29.7280 H   0  0  0  0  0  0  0  0  0  0  0  0
   49.4111  159.0511   31.9475 H   0  0  0  0  0  0  0  0  0  0  0  0
   48.4865  159.4699   30.4655 H   0  0  0  0  0  0  0  0  0  0  0  0
   49.5890  158.0518   30.4655 H   0  0  0  0  0  0  0  0  0  0  0  0
   51.6118  159.5161   28.6412 H   0  0  0  0  0  0  0  0  0  0  0  0
   52.5419  159.3640   30.1959 H   0  0  0  0  0  0  0  0  0  0  0  0
   51.2663  157.3256   30.7522 H   0  0  0  0  0  0  0  0  0  0  0  0
   50.3948  157.4636   29.1682 H   0  0  0  0  0  0  0  0  0  0  0  0
   52.9681  157.5545   28.2971 H   0  0  0  0  0  0  0  0  0  0  0  0
   53.1798  156.5344   29.7547 H   0  0  0  0  0  0  0  0  0  0  0  0
   53.1089  157.2686   26.3762 H   0  0  0  0  0  0  0  0  0  0  0  0
   54.2154  156.2918   24.3625 H   0  0  0  0  0  0  0  0  0  0  0  0
   53.1778  152.3164   25.6947 H   0  0  0  0  0  0  0  0  0  0  0  0
  1  2  3  0
  2  3  1  0
  3  4  1  0
  4  5  1  0
  4  6  1  0
  6  7  1  0
  7  8  1  0
  8  9  1  0
  9 10  1  0
 10 11  2  0
 11 12  1  0
 12 13  2  0
 13 14  1  0
 13 15  1  0
 15 16  2  0
 16 17  1  0
 16 10  1  0
  1 18  1  0
  3 19  1  0
  3 20  1  0
  4 21  1  6
  5 22  1  0
  5 23  1  0
  5 24  1  0
  6 25  1  0
  6 26  1  0
  7 27  1  0
  7 28  1  0
  8 29  1  0
  8 30  1  0
 11 31  1  0
 12 32  1  0
 15 33  1  0
M  CHG  1   4   1
M  END
>  <meeko>  (8) 
{"is_sidechain": [false], "free_energy": -7.283, "intermolecular_energy": -9.835, "internal_energy": -0.347}

$$$$
clorgyline_out
     RDKit          3D

 33 33  0  0  0  0  0  0  0  0999 V2000
   47.4450  159.9240   31.8280 C   0  0  0  0  0  0  0  0  0  0  0  0
   48.1520  159.2080   31.1720 C   0  0  0  0  0  0  0  0  0  0  0  0
   49.0180  158.3330   30.3630 C   0  0  0  0  0  0  0  0  0  0  0  0
   50.4560  158.6470   30.4390 N   0  0  2  0  0  0  0  0  0  0  0  0
   50.7210  160.0310   30.0430 C   0  0  0  0  0  0  0  0  0  0  0  0
   51.2680  157.6780   29.6820 C   0  0  0  0  0  0  0  0  0  0  0  0
   50.6520  156.2710   29.6870 C   0  0  0  0  0  0  0  0  0  0  0  0
   51.6030  155.2360   29.0880 C   0  0  0  0  0  0  0  0  0  0  0  0
   51.1670  154.9220   27.7670 O   0  0  0  0  0  0  0  0  0  0  0  0
   51.8990  154.0200   27.0430 C   0  0  0  0  0  0  0  0  0  0  0  0
   51.8040  152.6310   27.1770 C   0  0  0  0  0  0  0  0  0  0  0  0
   52.6000  151.7890   26.3930 C   0  0  0  0  0  0  0  0  0  0  0  0
   53.4960  152.3320   25.4750 C   0  0  0  0  0  0  0  0  0  0  0  0
   54.4710  151.2880   24.5160 Cl  0  0  0  0  0  0  0  0  0  0  0  0
   53.6070  153.7100   25.3280 C   0  0  0  0  0  0  0  0  0  0  0  0
   52.8120  154.5490   26.1120 C   0  0  0  0  0  0  0  0  0  0  0  0
   52.9820  156.2580   25.8940 Cl  0  0  0  0  0  0  0  0  0  0  0  0
   46.7976  160.5797   32.4287 H   0  0  0  0  0  0  0  0  0  0  0  0
   48.8750  157.2977   30.7062 H   0  0  0  0  0  0  0  0  0  0  0  0
   48.7219  158.4870   29.3148 H   0  0  0  0  0  0  0  0  0  0  0  0
   50.7410  158.5600   31.4150 H   0  0  0  0  0  0  0  0  0  0  0  0
   50.8401  160.6533   30.9422 H   0  0  0  0  0  0  0  0  0  0  0  0
   51.6431  160.0710   29.4446 H   0  0  0  0  0  0  0  0  0  0  0  0
   49.8789  160.4088   29.4446 H   0  0  0  0  0  0  0  0  0  0  0  0
   51.3519  158.0236   28.6411 H   0  0  0  0  0  0  0  0  0  0  0  0
   52.2541  157.6152   30.1654 H   0  0  0  0  0  0  0  0  0  0  0  0
   50.4224  155.9860   30.7243 H   0  0  0  0  0  0  0  0  0  0  0  0
   49.7393  156.2939   29.0734 H   0  0  0  0  0  0  0  0  0  0  0  0
   52.6226  155.6473   29.0529 H   0  0  0  0  0  0  0  0  0  0  0  0
   51.6044  154.3269   29.7073 H   0  0  0  0  0  0  0  0  0  0  0  0
   51.0996  152.1983   27.9027 H   0  0  0  0  0  0  0  0  0  0  0  0
   52.5183  150.6974   26.5016 H   0  0  0  0  0  0  0  0  0  0  0  0
   54.3144  154.1355   24.6010 H   0  0  0  0  0  0  0  0  0  0  0  0
  1  2  3  0
  2  3  1  0
  3  4  1  0
  4  5  1  0
  4  6  1  0
  6  7  1  0
  7  8  1  0
  8  9  1  0
  9 10  1  0
 10 11  2  0
 11 12  1  0
 12 13  2  0
 13 14  1  0
 13 15  1  0
 15 16  2  0
 16 17  1  0
 16 10  1  0
  1 18  1  0
  3 19  1  0
  3 20  1  0
  4 21  1  1
  5 22  1  0
  5 23  1  0
  5 24  1  0
  6 25  1  0
  6 26  1  0
  7 27  1  0
  7 28  1  0
  8 29  1  0
  8 30  1  0
 11 31  1  0
 12 32  1  0
 15 33  1  0
M  CHG  1   4   1
M  END
>  <meeko>  (9) 
{"is_sidechain": [false], "free_energy": -7.197, "intermolecular_energy": -9.693, "internal_energy": -0.373}

$$$$
