quercetin_maoa_out
     RDKit          3D

 32 34  0  0  0  0  0  0  0  0999 V2000
   52.5120  160.7030   30.4610 O   0  0  0  0  0  0  0  0  0  0  0  0
   51.7740  159.7370   30.2840 C   0  0  0  0  0  0  0  0  0  0  0  0
   52.2900  158.5040   29.6460 C   0  0  0  0  0  0  0  0  0  0  0  0
   53.6180  158.5060   29.2570 O   0  0  0  0  0  0  0  0  0  0  0  0
   51.4460  157.4710   29.4680 C   0  0  0  0  0  0  0  0  0  0  0  0
   51.8430  156.1970   28.8260 C   0  0  0  0  0  0  0  0  0  0  0  0
   51.5010  154.9750   29.4360 C   0  0  0  0  0  0  0  0  0  0  0  0
   51.8810  153.7560   28.8680 C   0  0  0  0  0  0  0  0  0  0  0  0
   52.6100  153.7580   27.6900 C   0  0  0  0  0  0  0  0  0  0  0  0
   52.9800  152.5690   27.1330 O   0  0  0  0  0  0  0  0  0  0  0  0
   52.9630  154.9550   27.0750 C   0  0  0  0  0  0  0  0  0  0  0  0
   53.6830  154.8840   25.9140 O   0  0  0  0  0  0  0  0  0  0  0  0
   52.5920  156.1730   27.6360 C   0  0  0  0  0  0  0  0  0  0  0  0
   50.1070  157.4920   29.8420 O   0  0  0  0  0  0  0  0  0  0  0  0
   49.6020  158.6170   30.4420 C   0  0  0  0  0  0  0  0  0  0  0  0
   48.2570  158.5910   30.8110 C   0  0  0  0  0  0  0  0  0  0  0  0
   47.6920  159.7060   31.4220 C   0  0  0  0  0  0  0  0  0  0  0  0
   46.3740  159.6400   31.7650 O   0  0  0  0  0  0  0  0  0  0  0  0
   48.4470  160.8500   31.6710 C   0  0  0  0  0  0  0  0  0  0  0  0
   49.7900  160.8690   31.3020 C   0  0  0  0  0  0  0  0  0  0  0  0
   50.4850  162.0170   31.5700 O   0  0  0  0  0  0  0  0  0  0  0  0
   50.3670  159.7540   30.6870 C   0  0  0  0  0  0  0  0  0  0  0  0
   53.9070  157.9320   28.5760 H   0  0  0  0  0  0  0  0  0  0  0  0
   50.9260  154.9799   30.3738 H   0  0  0  0  0  0  0  0  0  0  0  0
   51.6047  152.8067   29.3503 H   0  0  0  0  0  0  0  0  0  0  0  0
   52.6610  151.7630   27.4900 H   0  0  0  0  0  0  0  0  0  0  0  0
   53.3810  154.3460   25.2080 H   0  0  0  0  0  0  0  0  0  0  0  0
   52.8840  157.1154   27.1496 H   0  0  0  0  0  0  0  0  0  0  0  0
   47.6475  157.6954   30.6203 H   0  0  0  0  0  0  0  0  0  0  0  0
   45.7320  159.4280   31.1160 H   0  0  0  0  0  0  0  0  0  0  0  0
   47.9887  161.7265   32.1525 H   0  0  0  0  0  0  0  0  0  0  0  0
   51.4150  162.0410   31.4510 H   0  0  0  0  0  0  0  0  0  0  0  0
  1  2  2  0
  2  3  1  0
  3  4  1  0
  3  5  2  0
  5  6  1  0
  6  7  2  0
  7  8  1  0
  8  9  2  0
  9 10  1  0
  9 11  1  0
 11 12  1  0
 11 13  2  0
  5 14  1  0
 14 15  1  0
 15 16  2  0
 16 17  1  0
 17 18  1  0
 17 19  2  0
 19 20  1  0
 20 21  1  0
 20 22  2  0
 22  2  1  0
 13  6  1  0
 22 15  1  0
  4 23  1  0
  7 24  1  0
  8 25  1  0
 10 26  1  0
 12 27  1  0
 13 28  1  0
 16 29  1  0
 18 30  1  0
 19 31  1  0
 21 32  1  0
M  END
>  <meeko>  (1) 
{"is_sidechain": [false], "free_energy": -9.402, "intermolecular_energy": -11.326, "internal_energy": -0.027}

$$$$
quercetin_maoa_out
     RDKit          3D

 32 34  0  0  0  0  0  0  0  0999 V2000
   52.2370  152.8750   28.8040 O   0  0  0  0  0  0  0  0  0  0  0  0
   52.3350  154.0450   28.4360 C   0  0  0  0  0  0  0  0  0  0  0  0
   51.7620  155.1380   29.2530 C   0  0  0  0  0  0  0  0  0  0  0  0
   51.1120  154.7780   30.4200 O   0  0  0  0  0  0  0  0  0  0  0  0
   51.8880  156.4040   28.8120 C   0  0  0  0  0  0  0  0  0  0  0  0
   51.3400  157.5760   29.5330 C   0  0  0  0  0  0  0  0  0  0  0  0
   50.0060  157.5530   29.9830 C   0  0  0  0  0  0  0  0  0  0  0  0
   49.4510  158.6520   30.6450 C   0  0  0  0  0  0  0  0  0  0  0  0
   50.2300  159.7780   30.8540 C   0  0  0  0  0  0  0  0  0  0  0  0
   49.6900  160.8510   31.5020 O   0  0  0  0  0  0  0  0  0  0  0  0
   51.5480  159.8220   30.4120 C   0  0  0  0  0  0  0  0  0  0  0  0
   52.2600  160.9650   30.6510 O   0  0  0  0  0  0  0  0  0  0  0  0
   52.1070  158.7340   29.7470 C   0  0  0  0  0  0  0  0  0  0  0  0
   52.5220  156.7490   27.6240 O   0  0  0  0  0  0  0  0  0  0  0  0
   53.0690  155.7580   26.8500 C   0  0  0  0  0  0  0  0  0  0  0  0
   53.7060  156.1510   25.6720 C   0  0  0  0  0  0  0  0  0  0  0  0
   54.2770  155.1860   24.8470 C   0  0  0  0  0  0  0  0  0  0  0  0
   54.8880  155.6120   23.7060 O   0  0  0  0  0  0  0  0  0  0  0  0
   54.2250  153.8340   25.1780 C   0  0  0  0  0  0  0  0  0  0  0  0
   53.5890  153.4490   26.3570 C   0  0  0  0  0  0  0  0  0  0  0  0
   53.5660  152.1090   26.6340 O   0  0  0  0  0  0  0  0  0  0  0  0
   53.0110  154.4110   27.1910 C   0  0  0  0  0  0  0  0  0  0  0  0
   50.6350  153.9730   30.4610 H   0  0  0  0  0  0  0  0  0  0  0  0
   49.3915  156.6570   29.8111 H   0  0  0  0  0  0  0  0  0  0  0  0
   48.4087  158.6229   30.9955 H   0  0  0  0  0  0  0  0  0  0  0  0
   49.3090  160.7430   32.3510 H   0  0  0  0  0  0  0  0  0  0  0  0
   51.8110  161.7780   30.7800 H   0  0  0  0  0  0  0  0  0  0  0  0
   53.1464  158.7807   29.3900 H   0  0  0  0  0  0  0  0  0  0  0  0
   53.7565  157.2150   25.3976 H   0  0  0  0  0  0  0  0  0  0  0  0
   55.7890  155.4050   23.5520 H   0  0  0  0  0  0  0  0  0  0  0  0
   54.6796  153.0805   24.5180 H   0  0  0  0  0  0  0  0  0  0  0  0
   54.3280  151.6900   26.9840 H   0  0  0  0  0  0  0  0  0  0  0  0
  1  2  2  0
  2  3  1  0
  3  4  1  0
  3  5  2  0
  5  6  1  0
  6  7  2  0
  7  8  1  0
  8  9  2  0
  9 10  1  0
  9 11  1  0
 11 12  1  0
 11 13  2  0
  5 14  1  0
 14 15  1  0
 15 16  2  0
 16 17  1  0
 17 18  1  0
 17 19  2  0
 19 20  1  0
 20 21  1  0
 20 22  2  0
 22  2  1  0
 13  6  1  0
 22 15  1  0
  4 23  1  0
  7 24  1  0
  8 25  1  0
 10 26  1  0
 12 27  1  0
 13 28  1  0
 16 29  1  0
 18 30  1  0
 19 31  1  0
 21 32  1  0
M  END
>  <meeko>  (2) 
{"is_sidechain": [false], "free_energy": -9.087, "intermolecular_energy": -10.946, "internal_energy": -0.027}

$$$$
quercetin_maoa_out
     RDKit          3D

 32 34  0  0  0  0  0  0  0  0999 V2000
   52.6250  160.6170   30.5710 O   0  0  0  0  0  0  0  0  0  0  0  0
   51.8850  159.6740   30.2990 C   0  0  0  0  0  0  0  0  0  0  0  0
   52.4140  158.4840   29.5940 C   0  0  0  0  0  0  0  0  0  0  0  0
   53.7550  158.4980   29.2560 O   0  0  0  0  0  0  0  0  0  0  0  0
   51.5680  157.4760   29.3120 C   0  0  0  0  0  0  0  0  0  0  0  0
   51.9780  156.2460   28.5960 C   0  0  0  0  0  0  0  0  0  0  0  0
   52.6380  156.3510   27.3570 C   0  0  0  0  0  0  0  0  0  0  0  0
   53.0170  155.2100   26.6440 C   0  0  0  0  0  0  0  0  0  0  0  0
   52.7300  153.9610   27.1680 C   0  0  0  0  0  0  0  0  0  0  0  0
   53.1010  152.8460   26.4750 O   0  0  0  0  0  0  0  0  0  0  0  0
   52.0730  153.8360   28.3890 C   0  0  0  0  0  0  0  0  0  0  0  0
   51.8220  152.5720   28.8480 O   0  0  0  0  0  0  0  0  0  0  0  0
   51.6890  154.9680   29.1020 C   0  0  0  0  0  0  0  0  0  0  0  0
   50.2160  157.4860   29.6370 O   0  0  0  0  0  0  0  0  0  0  0  0
   49.6990  158.5720   30.2970 C   0  0  0  0  0  0  0  0  0  0  0  0
   48.3410  158.5350   30.6130 C   0  0  0  0  0  0  0  0  0  0  0  0
   47.7630  159.6110   31.2810 C   0  0  0  0  0  0  0  0  0  0  0  0
   46.4330  159.5360   31.5700 O   0  0  0  0  0  0  0  0  0  0  0  0
   48.5190  160.7250   31.6390 C   0  0  0  0  0  0  0  0  0  0  0  0
   49.8750  160.7540   31.3210 C   0  0  0  0  0  0  0  0  0  0  0  0
   50.5700  161.8730   31.6960 O   0  0  0  0  0  0  0  0  0  0  0  0
   50.4640  159.6790   30.6500 C   0  0  0  0  0  0  0  0  0  0  0  0
   54.3950  158.1840   29.8640 H   0  0  0  0  0  0  0  0  0  0  0  0
   52.8588  157.3462   26.9436 H   0  0  0  0  0  0  0  0  0  0  0  0
   53.5366  155.3032   25.6790 H   0  0  0  0  0  0  0  0  0  0  0  0
   53.9500  152.4730   26.6040 H   0  0  0  0  0  0  0  0  0  0  0  0
   51.2350  152.0110   28.3790 H   0  0  0  0  0  0  0  0  0  0  0  0
   51.1599  154.8619   30.0605 H   0  0  0  0  0  0  0  0  0  0  0  0
   47.7313  157.6622   30.3365 H   0  0  0  0  0  0  0  0  0  0  0  0
   46.0650  158.7280   31.8710 H   0  0  0  0  0  0  0  0  0  0  0  0
   48.0516  161.5702   32.1656 H   0  0  0  0  0  0  0  0  0  0  0  0
   51.1060  162.3220   31.0720 H   0  0  0  0  0  0  0  0  0  0  0  0
  1  2  2  0
  2  3  1  0
  3  4  1  0
  3  5  2  0
  5  6  1  0
  6  7  2  0
  7  8  1  0
  8  9  2  0
  9 10  1  0
  9 11  1  0
 11 12  1  0
 11 13  2  0
  5 14  1  0
 14 15  1  0
 15 16  2  0
 16 17  1  0
 17 18  1  0
 17 19  2  0
 19 20  1  0
 20 21  1  0
 20 22  2  0
 22  2  1  0
 13  6  1  0
 22 15  1  0
  4 23  1  0
  7 24  1  0
  8 25  1  0
 10 26  1  0
 12 27  1  0
 13 28  1  0
 16 29  1  0
 18 30  1  0
 19 31  1  0
 21 32  1  0
M  END
>  <meeko>  (3) 
{"is_sidechain": [false], "free_energy": -8.998, "intermolecular_energy": -10.787, "internal_energy": -0.078}

$$$$
quercetin_maoa_out
     RDKit          3D

 32 34  0  0  0  0  0  0  0  0999 V2000
   51.8890  151.5660   27.9490 O   0  0  0  0  0  0  0  0  0  0  0  0
   52.2350  152.6840   27.5740 C   0  0  0  0  0  0  0  0  0  0  0  0
   51.8880  153.8840   28.3690 C   0  0  0  0  0  0  0  0  0  0  0  0
   51.1570  153.6820   29.5260 O   0  0  0  0  0  0  0  0  0  0  0  0
   52.2850  155.0890   27.9200 C   0  0  0  0  0  0  0  0  0  0  0  0
   51.9800  156.3590   28.6190 C   0  0  0  0  0  0  0  0  0  0  0  0
   52.9370  157.3910   28.6320 C   0  0  0  0  0  0  0  0  0  0  0  0
   52.6910  158.5930   29.3020 C   0  0  0  0  0  0  0  0  0  0  0  0
   51.4860  158.7610   29.9650 C   0  0  0  0  0  0  0  0  0  0  0  0
   51.2430  159.9330   30.6190 O   0  0  0  0  0  0  0  0  0  0  0  0
   50.5300  157.7500   29.9680 C   0  0  0  0  0  0  0  0  0  0  0  0
   49.3630  157.9820   30.6430 O   0  0  0  0  0  0  0  0  0  0  0  0
   50.7700  156.5490   29.3070 C   0  0  0  0  0  0  0  0  0  0  0  0
   52.9990  155.2790   26.7420 O   0  0  0  0  0  0  0  0  0  0  0  0
   53.3410  154.1860   25.9880 C   0  0  0  0  0  0  0  0  0  0  0  0
   54.0670  154.4220   24.8210 C   0  0  0  0  0  0  0  0  0  0  0  0
   54.4400  153.3490   24.0160 C   0  0  0  0  0  0  0  0  0  0  0  0
   55.1470  153.6220   22.8840 O   0  0  0  0  0  0  0  0  0  0  0  0
   54.1000  152.0420   24.3580 C   0  0  0  0  0  0  0  0  0  0  0  0
   53.3760  151.8130   25.5260 C   0  0  0  0  0  0  0  0  0  0  0  0
   53.0690  150.5110   25.8140 O   0  0  0  0  0  0  0  0  0  0  0  0
   52.9970  152.8840   26.3400 C   0  0  0  0  0  0  0  0  0  0  0  0
   51.2160  152.8650   29.9810 H   0  0  0  0  0  0  0  0  0  0  0  0
   53.8932  157.2496   28.1069 H   0  0  0  0  0  0  0  0  0  0  0  0
   53.4441  159.3948   29.3028 H   0  0  0  0  0  0  0  0  0  0  0  0
   51.5560  160.7420   30.2650 H   0  0  0  0  0  0  0  0  0  0  0  0
   49.0830  158.8620   30.8050 H   0  0  0  0  0  0  0  0  0  0  0  0
   50.0139  155.7502   29.3232 H   0  0  0  0  0  0  0  0  0  0  0  0
   54.3430  155.4486   24.5385 H   0  0  0  0  0  0  0  0  0  0  0  0
   55.6610  154.4040   22.8310 H   0  0  0  0  0  0  0  0  0  0  0  0
   54.3993  151.2018   23.7142 H   0  0  0  0  0  0  0  0  0  0  0  0
   53.5040  149.8150   25.3610 H   0  0  0  0  0  0  0  0  0  0  0  0
  1  2  2  0
  2  3  1  0
  3  4  1  0
  3  5  2  0
  5  6  1  0
  6  7  2  0
  7  8  1  0
  8  9  2  0
  9 10  1  0
  9 11  1  0
 11 12  1  0
 11 13  2  0
  5 14  1  0
 14 15  1  0
 15 16  2  0
 16 17  1  0
 17 18  1  0
 17 19  2  0
 19 20  1  0
 20 21  1  0
 20 22  2  0
 22  2  1  0
 13  6  1  0
 22 15  1  0
  4 23  1  0
  7 24  1  0
  8 25  1  0
 10 26  1  0
 12 27  1  0
 13 28  1  0
 16 29  1  0
 18 30  1  0
 19 31  1  0
 21 32  1  0
M  END
>  <meeko>  (4) 
{"is_sidechain": [false], "free_energy": -8.666, "intermolecular_energy": -10.559, "internal_energy": 0.093}

$$$$
quercetin_maoa_out
     RDKit          3D

 32 34  0  0  0  0  0  0  0  0999 V2000
   48.0180  158.5650   30.8230 O   0  0  0  0  0  0  0  0  0  0  0  0
   49.2080  158.4950   30.5210 C   0  0  0  0  0  0  0  0  0  0  0  0
   49.7400  157.2910   29.8430 C   0  0  0  0  0  0  0  0  0  0  0  0
   48.8470  156.2670   29.5860 O   0  0  0  0  0  0  0  0  0  0  0  0
   51.0500  157.2550   29.5330 C   0  0  0  0  0  0  0  0  0  0  0  0
   51.6980  156.0990   28.8720 C   0  0  0  0  0  0  0  0  0  0  0  0
   51.5960  154.8200   29.4520 C   0  0  0  0  0  0  0  0  0  0  0  0
   52.2160  153.7130   28.8670 C   0  0  0  0  0  0  0  0  0  0  0  0
   52.9440  153.8850   27.7010 C   0  0  0  0  0  0  0  0  0  0  0  0
   53.5490  152.8050   27.1270 O   0  0  0  0  0  0  0  0  0  0  0  0
   53.0620  155.1420   27.1160 C   0  0  0  0  0  0  0  0  0  0  0  0
   53.7960  155.2400   25.9660 O   0  0  0  0  0  0  0  0  0  0  0  0
   52.4510  156.2500   27.6950 C   0  0  0  0  0  0  0  0  0  0  0  0
   51.9420  158.2820   29.8200 O   0  0  0  0  0  0  0  0  0  0  0  0
   51.4760  159.4130   30.4410 C   0  0  0  0  0  0  0  0  0  0  0  0
   52.4020  160.4230   30.6990 C   0  0  0  0  0  0  0  0  0  0  0  0
   51.9850  161.5920   31.3290 C   0  0  0  0  0  0  0  0  0  0  0  0
   52.9220  162.5540   31.5640 O   0  0  0  0  0  0  0  0  0  0  0  0
   50.6560  161.7700   31.7060 C   0  0  0  0  0  0  0  0  0  0  0  0
   49.7350  160.7580   31.4440 C   0  0  0  0  0  0  0  0  0  0  0  0
   48.4430  160.9850   31.8360 O   0  0  0  0  0  0  0  0  0  0  0  0
   50.1450  159.5800   30.8120 C   0  0  0  0  0  0  0  0  0  0  0  0
   47.9670  156.3230   29.9010 H   0  0  0  0  0  0  0  0  0  0  0  0
   51.0194  154.6904   30.3798 H   0  0  0  0  0  0  0  0  0  0  0  0
   52.1272  152.7175   29.3264 H   0  0  0  0  0  0  0  0  0  0  0  0
   53.0570  152.2310   26.5740 H   0  0  0  0  0  0  0  0  0  0  0  0
   54.4970  154.6390   25.8040 H   0  0  0  0  0  0  0  0  0  0  0  0
   52.5572  157.2423   27.2323 H   0  0  0  0  0  0  0  0  0  0  0  0
   53.4549  160.2968   30.4066 H   0  0  0  0  0  0  0  0  0  0  0  0
   53.6260  162.6790   30.9580 H   0  0  0  0  0  0  0  0  0  0  0  0
   50.3377  162.6976   32.2042 H   0  0  0  0  0  0  0  0  0  0  0  0
   47.7610  161.0310   31.1950 H   0  0  0  0  0  0  0  0  0  0  0  0
  1  2  2  0
  2  3  1  0
  3  4  1  0
  3  5  2  0
  5  6  1  0
  6  7  2  0
  7  8  1  0
  8  9  2  0
  9 10  1  0
  9 11  1  0
 11 12  1  0
 11 13  2  0
  5 14  1  0
 14 15  1  0
 15 16  2  0
 16 17  1  0
 17 18  1  0
 17 19  2  0
 19 20  1  0
 20 21  1  0
 20 22  2  0
 22  2  1  0
 13  6  1  0
 22 15  1  0
  4 23  1  0
  7 24  1  0
  8 25  1  0
 10 26  1  0
 12 27  1  0
 13 28  1  0
 16 29  1  0
 18 30  1  0
 19 31  1  0
 21 32  1  0
M  END
>  <meeko>  (5) 
{"is_sidechain": [false], "free_energy": -8.652, "intermolecular_energy": -10.34, "internal_energy": -0.108}

$$$$
quercetin_maoa_out
     RDKit          3D

 32 34  0  0  0  0  0  0  0  0999 V2000
   54.7270  155.0440   24.4910 O   0  0  0  0  0  0  0  0  0  0  0  0
   53.9480  154.7050   25.3790 C   0  0  0  0  0  0  0  0  0  0  0  0
   53.3860  155.7100   26.3100 C   0  0  0  0  0  0  0  0  0  0  0  0
   53.7890  157.0220   26.1360 O   0  0  0  0  0  0  0  0  0  0  0  0
   52.5390  155.2940   27.2700 C   0  0  0  0  0  0  0  0  0  0  0  0
   51.9310  156.2030   28.2680 C   0  0  0  0  0  0  0  0  0  0  0  0
   50.7190  155.8440   28.8870 C   0  0  0  0  0  0  0  0  0  0  0  0
   50.1060  156.6900   29.8150 C   0  0  0  0  0  0  0  0  0  0  0  0
   50.7040  157.9010   30.1230 C   0  0  0  0  0  0  0  0  0  0  0  0
   50.1090  158.7280   31.0300 O   0  0  0  0  0  0  0  0  0  0  0  0
   51.9000  158.2770   29.5170 C   0  0  0  0  0  0  0  0  0  0  0  0
   52.4360  159.4860   29.8660 O   0  0  0  0  0  0  0  0  0  0  0  0
   52.5130  157.4420   28.5880 C   0  0  0  0  0  0  0  0  0  0  0  0
   52.1630  153.9680   27.4480 O   0  0  0  0  0  0  0  0  0  0  0  0
   52.6600  153.0150   26.5960 C   0  0  0  0  0  0  0  0  0  0  0  0
   52.2470  151.6990   26.8040 C   0  0  0  0  0  0  0  0  0  0  0  0
   52.7220  150.6910   25.9700 C   0  0  0  0  0  0  0  0  0  0  0  0
   52.2950  149.4190   26.2080 O   0  0  0  0  0  0  0  0  0  0  0  0
   53.6050  150.9740   24.9310 C   0  0  0  0  0  0  0  0  0  0  0  0
   54.0130  152.2910   24.7280 C   0  0  0  0  0  0  0  0  0  0  0  0
   54.8810  152.5130   23.6930 O   0  0  0  0  0  0  0  0  0  0  0  0
   53.5420  153.3100   25.5600 C   0  0  0  0  0  0  0  0  0  0  0  0
   53.2100  157.6410   25.7380 H   0  0  0  0  0  0  0  0  0  0  0  0
   50.2470  154.8825   28.6364 H   0  0  0  0  0  0  0  0  0  0  0  0
   49.1603  156.3980   30.2950 H   0  0  0  0  0  0  0  0  0  0  0  0
   50.6090  159.0900   31.7340 H   0  0  0  0  0  0  0  0  0  0  0  0
   52.4630  160.1840   29.2410 H   0  0  0  0  0  0  0  0  0  0  0  0
   53.4516  157.7509   28.1047 H   0  0  0  0  0  0  0  0  0  0  0  0
   51.5509  151.4596   27.6213 H   0  0  0  0  0  0  0  0  0  0  0  0
   51.3860  149.2080   26.1220 H   0  0  0  0  0  0  0  0  0  0  0  0
   53.9754  150.1689   24.2794 H   0  0  0  0  0  0  0  0  0  0  0  0
   54.6140  152.3410   22.8110 H   0  0  0  0  0  0  0  0  0  0  0  0
  1  2  2  0
  2  3  1  0
  3  4  1  0
  3  5  2  0
  5  6  1  0
  6  7  2  0
  7  8  1  0
  8  9  2  0
  9 10  1  0
  9 11  1  0
 11 12  1  0
 11 13  2  0
  5 14  1  0
 14 15  1  0
 15 16  2  0
 16 17  1  0
 17 18  1  0
 17 19  2  0
 19 20  1  0
 20 21  1  0
 20 22  2  0
 22  2  1  0
 13  6  1  0
 22 15  1  0
  4 23  1  0
  7 24  1  0
  8 25  1  0
 10 26  1  0
 12 27  1  0
 13 28  1  0
 16 29  1  0
 18 30  1  0
 19 31  1  0
 21 32  1  0
M  END
>  <meeko>  (6) 
{"is_sidechain": [false], "free_energy": -8.544, "intermolecular_energy": -10.536, "internal_energy": 0.216}

$$$$
quercetin_maoa_out
     RDKit          3D

 32 34  0  0  0  0  0  0  0  0999 V2000
   48.1450  158.5150   31.0830 O   0  0  0  0  0  0  0  0  0  0  0  0
   49.3080  158.5210   30.6860 C   0  0  0  0  0  0  0  0  0  0  0  0
   49.8420  157.3810   29.9070 C   0  0  0  0  0  0  0  0  0  0  0  0
   48.9800  156.3250   29.6660 O   0  0  0  0  0  0  0  0  0  0  0  0
   51.1230  157.4260   29.4950 C   0  0  0  0  0  0  0  0  0  0  0  0
   51.7700  156.3390   28.7270 C   0  0  0  0  0  0  0  0  0  0  0  0
   52.5760  156.6570   27.6170 C   0  0  0  0  0  0  0  0  0  0  0  0
   53.1820  155.6530   26.8560 C   0  0  0  0  0  0  0  0  0  0  0  0
   52.9790  154.3270   27.2040 C   0  0  0  0  0  0  0  0  0  0  0  0
   53.5710  153.3460   26.4640 O   0  0  0  0  0  0  0  0  0  0  0  0
   52.1820  153.9930   28.2940 C   0  0  0  0  0  0  0  0  0  0  0  0
   52.0240  152.6640   28.5810 O   0  0  0  0  0  0  0  0  0  0  0  0
   51.5710  154.9870   29.0540 C   0  0  0  0  0  0  0  0  0  0  0  0
   51.9840  158.4840   29.7650 O   0  0  0  0  0  0  0  0  0  0  0  0
   51.5160  159.5570   30.4780 C   0  0  0  0  0  0  0  0  0  0  0  0
   52.4110  160.6000   30.7170 C   0  0  0  0  0  0  0  0  0  0  0  0
   51.9900  161.7150   31.4370 C   0  0  0  0  0  0  0  0  0  0  0  0
   52.8960  162.7110   31.6480 O   0  0  0  0  0  0  0  0  0  0  0  0
   50.6890  161.8060   31.9250 C   0  0  0  0  0  0  0  0  0  0  0  0
   49.8000  160.7610   31.6820 C   0  0  0  0  0  0  0  0  0  0  0  0
   48.5340  160.9020   32.1840 O   0  0  0  0  0  0  0  0  0  0  0  0
   50.2130  159.6380   30.9600 C   0  0  0  0  0  0  0  0  0  0  0  0
   48.5920  156.2210   28.8200 H   0  0  0  0  0  0  0  0  0  0  0  0
   52.7311  157.7114   27.3446 H   0  0  0  0  0  0  0  0  0  0  0  0
   53.8118  155.9121   25.9922 H   0  0  0  0  0  0  0  0  0  0  0  0
   54.0190  153.5620   25.6700 H   0  0  0  0  0  0  0  0  0  0  0  0
   52.1190  152.0240   27.9030 H   0  0  0  0  0  0  0  0  0  0  0  0
   50.9340  154.7145   29.9084 H   0  0  0  0  0  0  0  0  0  0  0  0
   53.4425  160.5420   30.3392 H   0  0  0  0  0  0  0  0  0  0  0  0
   52.8740  163.4840   31.1190 H   0  0  0  0  0  0  0  0  0  0  0  0
   50.3676  162.6906   32.4944 H   0  0  0  0  0  0  0  0  0  0  0  0
   48.3700  160.7470   33.0930 H   0  0  0  0  0  0  0  0  0  0  0  0
  1  2  2  0
  2  3  1  0
  3  4  1  0
  3  5  2  0
  5  6  1  0
  6  7  2  0
  7  8  1  0
  8  9  2  0
  9 10  1  0
  9 11  1  0
 11 12  1  0
 11 13  2  0
  5 14  1  0
 14 15  1  0
 15 16  2  0
 16 17  1  0
 17 18  1  0
 17 19  2  0
 19 20  1  0
 20 21  1  0
 20 22  2  0
 22  2  1  0
 13  6  1  0
 22 15  1  0
  4 23  1  0
  7 24  1  0
  8 25  1  0
 10 26  1  0
 12 27  1  0
 13 28  1  0
 16 29  1  0
 18 30  1  0
 19 31  1  0
 21 32  1  0
M  END
>  <meeko>  (7) 
{"is_sidechain": [false], "free_energy": -8.425, "intermolecular_energy": -10.184, "internal_energy": 0.009}

$$$$
quercetin_maoa_out
     RDKit          3D

 32 34  0  0  0  0  0  0  0  0999 V2000
   54.7360  154.8630   24.6290 O   0  0  0  0  0  0  0  0  0  0  0  0
   53.9260  154.6240   25.5220 C   0  0  0  0  0  0  0  0  0  0  0  0
   53.4130  155.7150   26.3820 C   0  0  0  0  0  0  0  0  0  0  0  0
   53.8960  156.9880   26.1380 O   0  0  0  0  0  0  0  0  0  0  0  0
   52.5310  155.4090   27.3520 C   0  0  0  0  0  0  0  0  0  0  0  0
   51.9650  156.4110   28.2830 C   0  0  0  0  0  0  0  0  0  0  0  0
   52.6910  157.5820   28.5690 C   0  0  0  0  0  0  0  0  0  0  0  0
   52.1960  158.5370   29.4630 C   0  0  0  0  0  0  0  0  0  0  0  0
   50.9740  158.3170   30.0760 C   0  0  0  0  0  0  0  0  0  0  0  0
   50.4880  159.2480   30.9470 O   0  0  0  0  0  0  0  0  0  0  0  0
   50.2430  157.1630   29.8100 C   0  0  0  0  0  0  0  0  0  0  0  0
   49.0440  157.0100   30.4500 O   0  0  0  0  0  0  0  0  0  0  0  0
   50.7310  156.2060   28.9250 C   0  0  0  0  0  0  0  0  0  0  0  0
   52.0730  154.1200   27.6010 O   0  0  0  0  0  0  0  0  0  0  0  0
   52.5240  153.0900   26.8160 C   0  0  0  0  0  0  0  0  0  0  0  0
   52.0300  151.8160   27.0940 C   0  0  0  0  0  0  0  0  0  0  0  0
   52.4550  150.7330   26.3300 C   0  0  0  0  0  0  0  0  0  0  0  0
   51.9490  149.5050   26.6360 O   0  0  0  0  0  0  0  0  0  0  0  0
   53.3670  150.9010   25.2900 C   0  0  0  0  0  0  0  0  0  0  0  0
   53.8550  152.1770   25.0170 C   0  0  0  0  0  0  0  0  0  0  0  0
   54.7490  152.2850   23.9850 O   0  0  0  0  0  0  0  0  0  0  0  0
   53.4350  153.2700   25.7790 C   0  0  0  0  0  0  0  0  0  0  0  0
   53.7960  157.6590   26.7840 H   0  0  0  0  0  0  0  0  0  0  0  0
   53.6630  157.7489   28.0819 H   0  0  0  0  0  0  0  0  0  0  0  0
   52.7699  159.4508   29.6763 H   0  0  0  0  0  0  0  0  0  0  0  0
   50.6850  159.1840   31.8600 H   0  0  0  0  0  0  0  0  0  0  0  0
   48.2770  157.4360   30.1170 H   0  0  0  0  0  0  0  0  0  0  0  0
   50.1525  155.2913   28.7283 H   0  0  0  0  0  0  0  0  0  0  0  0
   51.3092  151.6679   27.9117 H   0  0  0  0  0  0  0  0  0  0  0  0
   51.0520  149.4200   26.8950 H   0  0  0  0  0  0  0  0  0  0  0  0
   53.6970  150.0382   24.6929 H   0  0  0  0  0  0  0  0  0  0  0  0
   54.6660  151.7310   23.2340 H   0  0  0  0  0  0  0  0  0  0  0  0
  1  2  2  0
  2  3  1  0
  3  4  1  0
  3  5  2  0
  5  6  1  0
  6  7  2  0
  7  8  1  0
  8  9  2  0
  9 10  1  0
  9 11  1  0
 11 12  1  0
 11 13  2  0
  5 14  1  0
 14 15  1  0
 15 16  2  0
 16 17  1  0
 17 18  1  0
 17 19  2  0
 19 20  1  0
 20 21  1  0
 20 22  2  0
 22  2  1  0
 13  6  1  0
 22 15  1  0
  4 23  1  0
  7 24  1  0
  8 25  1  0
 10 26  1  0
 12 27  1  0
 13 28  1  0
 16 29  1  0
 18 30  1  0
 19 31  1  0
 21 32  1  0
M  END
>  <meeko>  (8) 
{"is_sidechain": [false], "free_energy": -7.546, "intermolecular_energy": -9.362, "internal_energy": 0.245}

$$$$
quercetin_maoa_out
     RDKit          3D

 32 34  0  0  0  0  0  0  0  0999 V2000
   50.7070  153.9620   28.5610 O   0  0  0  0  0  0  0  0  0  0  0  0
   51.2140  155.0710   28.4070 C   0  0  0  0  0  0  0  0  0  0  0  0
   50.8630  156.1890   29.3110 C   0  0  0  0  0  0  0  0  0  0  0  0
   49.9430  155.9250   30.3100 O   0  0  0  0  0  0  0  0  0  0  0  0
   51.4390  157.3880   29.1040 C   0  0  0  0  0  0  0  0  0  0  0  0
   51.1520  158.5830   29.9310 C   0  0  0  0  0  0  0  0  0  0  0  0
   52.1750  159.5170   30.1800 C   0  0  0  0  0  0  0  0  0  0  0  0
   51.9440  160.6430   30.9760 C   0  0  0  0  0  0  0  0  0  0  0  0
   50.6880  160.8330   31.5280 C   0  0  0  0  0  0  0  0  0  0  0  0
   50.4590  161.9310   32.3030 O   0  0  0  0  0  0  0  0  0  0  0  0
   49.6650  159.9170   31.2970 C   0  0  0  0  0  0  0  0  0  0  0  0
   48.4490  160.1660   31.8730 O   0  0  0  0  0  0  0  0  0  0  0  0
   49.8890  158.7920   30.5100 C   0  0  0  0  0  0  0  0  0  0  0  0
   52.3440  157.6450   28.0800 O   0  0  0  0  0  0  0  0  0  0  0  0
   52.6940  156.6270   27.2310 C   0  0  0  0  0  0  0  0  0  0  0  0
   53.6130  156.9260   26.2260 C   0  0  0  0  0  0  0  0  0  0  0  0
   54.0030  155.9310   25.3340 C   0  0  0  0  0  0  0  0  0  0  0  0
   54.9020  156.2650   24.3660 O   0  0  0  0  0  0  0  0  0  0  0  0
   53.4890  154.6390   25.4290 C   0  0  0  0  0  0  0  0  0  0  0  0
   52.5730  154.3470   26.4360 C   0  0  0  0  0  0  0  0  0  0  0  0
   52.1000  153.0630   26.4840 O   0  0  0  0  0  0  0  0  0  0  0  0
   52.1750  155.3400   27.3360 C   0  0  0  0  0  0  0  0  0  0  0  0
   50.2120  155.4750   31.0870 H   0  0  0  0  0  0  0  0  0  0  0  0
   53.1714  159.3587   29.7417 H   0  0  0  0  0  0  0  0  0  0  0  0
   52.7495  161.3688   31.1615 H   0  0  0  0  0  0  0  0  0  0  0  0
   50.8880  162.7410   32.1080 H   0  0  0  0  0  0  0  0  0  0  0  0
   47.7540  159.5420   31.7890 H   0  0  0  0  0  0  0  0  0  0  0  0
   49.0788  158.0674   30.3413 H   0  0  0  0  0  0  0  0  0  0  0  0
   54.0271  157.9413   26.1386 H   0  0  0  0  0  0  0  0  0  0  0  0
   55.6790  156.7370   24.5920 H   0  0  0  0  0  0  0  0  0  0  0  0
   53.8028  153.8605   24.7180 H   0  0  0  0  0  0  0  0  0  0  0  0
   52.6610  152.3670   26.7660 H   0  0  0  0  0  0  0  0  0  0  0  0
  1  2  2  0
  2  3  1  0
  3  4  1  0
  3  5  2  0
  5  6  1  0
  6  7  2  0
  7  8  1  0
  8  9  2  0
  9 10  1  0
  9 11  1  0
 11 12  1  0
 11 13  2  0
  5 14  1  0
 14 15  1  0
 15 16  2  0
 16 17  1  0
 17 18  1  0
 17 19  2  0
 19 20  1  0
 20 21  1  0
 20 22  2  0
 22  2  1  0
 13  6  1  0
 22 15  1  0
  4 23  1  0
  7 24  1  0
  8 25  1  0
 10 26  1  0
 12 27  1  0
 13 28  1  0
 16 29  1  0
 18 30  1  0
 19 31  1  0
 21 32  1  0
M  END
>  <meeko>  (9) 
{"is_sidechain": [false], "free_energy": -7.154, "intermolecular_energy": -8.767, "internal_energy": 0.124}

$$$$
