SAG_pdb_out
     RDKit          3D

 39 40  0  0  0  0  0  0  0  0999 V2000
   54.1840  153.4200   23.2150 C   0  0  0  0  0  0  0  0  0  0  0  0
   53.8160  152.8710   24.5870 C   0  0  2  0  0  0  0  0  0  0  0  0
   53.7480  154.0130   25.5340 N   0  0  0  0  0  0  0  0  0  0  0  0
   52.6620  154.0350   26.2340 C   0  0  0  0  0  0  0  0  0  0  0  0
   52.4000  155.0930   27.2280 C   0  0  0  0  0  0  0  0  0  0  0  0
   52.9870  156.3550   27.1060 C   0  0  0  0  0  0  0  0  0  0  0  0
   52.7270  157.3460   28.0610 C   0  0  0  0  0  0  0  0  0  0  0  0
   51.8780  157.0760   29.1350 C   0  0  0  0  0  0  0  0  0  0  0  0
   51.5390  157.9470   30.1320 O   0  0  0  0  0  0  0  0  0  0  0  0
   51.2330  159.2870   29.7520 C   0  0  0  0  0  0  0  0  0  0  0  0
   49.9990  159.7120   30.5070 C   0  0  0  0  0  0  0  0  0  0  0  0
   49.0070  158.7760   30.8380 C   0  0  0  0  0  0  0  0  0  0  0  0
   47.8700  159.1640   31.5540 C   0  0  0  0  0  0  0  0  0  0  0  0
   47.7190  160.4910   31.9510 C   0  0  0  0  0  0  0  0  0  0  0  0
   48.7070  161.4160   31.6370 C   0  0  0  0  0  0  0  0  0  0  0  0
   48.5660  162.6900   32.0270 F   0  0  0  0  0  0  0  0  0  0  0  0
   49.8430  161.0410   30.9250 C   0  0  0  0  0  0  0  0  0  0  0  0
   51.2940  155.8110   29.2490 C   0  0  0  0  0  0  0  0  0  0  0  0
   51.5500  154.8170   28.3000 C   0  0  0  0  0  0  0  0  0  0  0  0
   54.8930  151.8910   25.0700 C   0  0  0  0  0  0  0  0  0  0  0  0
   56.0160  152.4780   25.5850 N   0  0  0  0  0  0  0  0  0  0  0  0
   54.7880  150.6720   24.9870 O   0  0  0  0  0  0  0  0  0  0  0  0
   54.7928  154.3283   23.3348 H   0  0  0  0  0  0  0  0  0  0  0  0
   54.7585  152.6640   22.6596 H   0  0  0  0  0  0  0  0  0  0  0  0
   53.2664  153.6642   22.6596 H   0  0  0  0  0  0  0  0  0  0  0  0
   52.8520  152.3442   24.5316 H   0  0  0  0  0  0  0  0  0  0  0  0
   51.9128  153.2435   26.0846 H   0  0  0  0  0  0  0  0  0  0  0  0
   53.6544  156.5706   26.2586 H   0  0  0  0  0  0  0  0  0  0  0  0
   53.1925  158.3380   27.9643 H   0  0  0  0  0  0  0  0  0  0  0  0
   52.0737  159.9491   30.0068 H   0  0  0  0  0  0  0  0  0  0  0  0
   51.0588  159.3477   28.6676 H   0  0  0  0  0  0  0  0  0  0  0  0
   49.1250  157.7263   30.5311 H   0  0  0  0  0  0  0  0  0  0  0  0
   47.0963  158.4229   31.8033 H   0  0  0  0  0  0  0  0  0  0  0  0
   46.8242  160.8040   32.5089 H   0  0  0  0  0  0  0  0  0  0  0  0
   50.6172  161.7865   30.6907 H   0  0  0  0  0  0  0  0  0  0  0  0
   50.6252  155.5953   30.0953 H   0  0  0  0  0  0  0  0  0  0  0  0
   51.0850  153.8249   28.3974 H   0  0  0  0  0  0  0  0  0  0  0  0
   56.0760  153.4590   25.6410 H   0  0  0  0  0  0  0  0  0  0  0  0
   56.7630  151.9190   25.9000 H   0  0  0  0  0  0  0  0  0  0  0  0
  1  2  1  0
  2  3  1  0
  3  4  2  0
  4  5  1  0
  5  6  2  0
  6  7  1  0
  7  8  2  0
  8  9  1  0
  9 10  1  0
 10 11  1  0
 11 12  2  0
 12 13  1  0
 13 14  2  0
 14 15  1  0
 15 16  1  0
 15 17  2  0
  8 18  1  0
 18 19  2  0
  2 20  1  0
 20 21  1  0
 20 22  2  0
 19  5  1  0
 17 11  1  0
  1 23  1  0
  1 24  1  0
  1 25  1  0
  2 26  1  6
  4 27  1  0
  6 28  1  0
  7 29  1  0
 10 30  1  0
 10 31  1  0
 12 32  1  0
 13 33  1  0
 14 34  1  0
 17 35  1  0
 18 36  1  0
 19 37  1  0
 21 38  1  0
 21 39  1  0
M  END
>  <meeko>  (1) 
{"is_sidechain": [false], "free_energy": -10.168, "intermolecular_energy": -13.735, "internal_energy": -0.612}

$$$$
SAG_pdb_out
     RDKit          3D

 39 40  0  0  0  0  0  0  0  0999 V2000
   54.2380  153.6060   23.3100 C   0  0  0  0  0  0  0  0  0  0  0  0
   53.8540  152.9600   24.6340 C   0  0  2  0  0  0  0  0  0  0  0  0
   53.7630  154.0320   25.6590 N   0  0  0  0  0  0  0  0  0  0  0  0
   52.6130  154.0850   26.2440 C   0  0  0  0  0  0  0  0  0  0  0  0
   52.3180  155.0850   27.2880 C   0  0  0  0  0  0  0  0  0  0  0  0
   51.4770  154.7770   28.3600 C   0  0  0  0  0  0  0  0  0  0  0  0
   51.2080  155.7400   29.3420 C   0  0  0  0  0  0  0  0  0  0  0  0
   51.7820  157.0100   29.2510 C   0  0  0  0  0  0  0  0  0  0  0  0
   51.6060  158.0370   30.1340 O   0  0  0  0  0  0  0  0  0  0  0  0
   51.1550  159.2820   29.6060 C   0  0  0  0  0  0  0  0  0  0  0  0
   49.9300  159.6970   30.3800 C   0  0  0  0  0  0  0  0  0  0  0  0
   48.9740  158.7440   30.7670 C   0  0  0  0  0  0  0  0  0  0  0  0
   47.8460  159.1230   31.5010 C   0  0  0  0  0  0  0  0  0  0  0  0
   47.6670  160.4580   31.8600 C   0  0  0  0  0  0  0  0  0  0  0  0
   48.6190  161.4000   31.4890 C   0  0  0  0  0  0  0  0  0  0  0  0
   48.4510  162.6810   31.8430 F   0  0  0  0  0  0  0  0  0  0  0  0
   49.7460  161.0340   30.7590 C   0  0  0  0  0  0  0  0  0  0  0  0
   52.6230  157.3080   28.1750 C   0  0  0  0  0  0  0  0  0  0  0  0
   52.8950  156.3520   27.1920 C   0  0  0  0  0  0  0  0  0  0  0  0
   54.9310  151.9560   25.0640 C   0  0  0  0  0  0  0  0  0  0  0  0
   56.0660  152.5150   25.5830 N   0  0  0  0  0  0  0  0  0  0  0  0
   54.8170  150.7410   24.9370 O   0  0  0  0  0  0  0  0  0  0  0  0
   54.7913  154.5369   23.5031 H   0  0  0  0  0  0  0  0  0  0  0  0
   54.8721  152.9150   22.7351 H   0  0  0  0  0  0  0  0  0  0  0  0
   53.3280  153.8329   22.7351 H   0  0  0  0  0  0  0  0  0  0  0  0
   52.8948  152.4325   24.5261 H   0  0  0  0  0  0  0  0  0  0  0  0
   51.8324  153.3654   25.9563 H   0  0  0  0  0  0  0  0  0  0  0  0
   51.0251  153.7768   28.4335 H   0  0  0  0  0  0  0  0  0  0  0  0
   50.5446  155.4956   30.1847 H   0  0  0  0  0  0  0  0  0  0  0  0
   51.9424  160.0421   29.7168 H   0  0  0  0  0  0  0  0  0  0  0  0
   50.9167  159.1810   28.5369 H   0  0  0  0  0  0  0  0  0  0  0  0
   49.1140  157.6887   30.4899 H   0  0  0  0  0  0  0  0  0  0  0  0
   47.1010  158.3689   31.7947 H   0  0  0  0  0  0  0  0  0  0  0  0
   46.7789  160.7635   32.4326 H   0  0  0  0  0  0  0  0  0  0  0  0
   50.4916  161.7930   30.4797 H   0  0  0  0  0  0  0  0  0  0  0  0
   53.0765  158.3074   28.1008 H   0  0  0  0  0  0  0  0  0  0  0  0
   53.5586  156.5965   26.3495 H   0  0  0  0  0  0  0  0  0  0  0  0
   56.1340  153.4930   25.6760 H   0  0  0  0  0  0  0  0  0  0  0  0
   56.8140  151.9400   25.8660 H   0  0  0  0  0  0  0  0  0  0  0  0
  1  2  1  0
  2  3  1  0
  3  4  2  0
  4  5  1  0
  5  6  2  0
  6  7  1  0
  7  8  2  0
  8  9  1  0
  9 10  1  0
 10 11  1  0
 11 12  2  0
 12 13  1  0
 13 14  2  0
 14 15  1  0
 15 16  1  0
 15 17  2  0
  8 18  1  0
 18 19  2  0
  2 20  1  0
 20 21  1  0
 20 22  2  0
 19  5  1  0
 17 11  1  0
  1 23  1  0
  1 24  1  0
  1 25  1  0
  2 26  1  6
  4 27  1  0
  6 28  1  0
  7 29  1  0
 10 30  1  0
 10 31  1  0
 12 32  1  0
 13 33  1  0
 14 34  1  0
 17 35  1  0
 18 36  1  0
 19 37  1  0
 21 38  1  0
 21 39  1  0
M  END
>  <meeko>  (2) 
{"is_sidechain": [false], "free_energy": -10.134, "intermolecular_energy": -13.679, "internal_energy": -0.622}

$$$$
SAG_pdb_out
     RDKit          3D

 39 40  0  0  0  0  0  0  0  0999 V2000
   47.4820  160.0180   31.7110 C   0  0  0  0  0  0  0  0  0  0  0  0
   48.6250  160.9830   31.4300 C   0  0  2  0  0  0  0  0  0  0  0  0
   49.6820  160.2400   30.6970 N   0  0  0  0  0  0  0  0  0  0  0  0
   49.5180  158.9590   30.7190 C   0  0  0  0  0  0  0  0  0  0  0  0
   50.4640  158.0430   30.0530 C   0  0  0  0  0  0  0  0  0  0  0  0
   51.6880  158.5060   29.5630 C   0  0  0  0  0  0  0  0  0  0  0  0
   52.5730  157.6210   28.9340 C   0  0  0  0  0  0  0  0  0  0  0  0
   52.2340  156.2740   28.7960 C   0  0  0  0  0  0  0  0  0  0  0  0
   53.0000  155.3080   28.2070 O   0  0  0  0  0  0  0  0  0  0  0  0
   52.3200  154.2910   27.4760 C   0  0  0  0  0  0  0  0  0  0  0  0
   53.0820  154.0510   26.1980 C   0  0  0  0  0  0  0  0  0  0  0  0
   53.7640  155.1030   25.5650 C   0  0  0  0  0  0  0  0  0  0  0  0
   54.4860  154.8790   24.3890 C   0  0  0  0  0  0  0  0  0  0  0  0
   54.5400  153.5990   23.8400 C   0  0  0  0  0  0  0  0  0  0  0  0
   53.8770  152.5540   24.4730 C   0  0  0  0  0  0  0  0  0  0  0  0
   53.9370  151.3230   23.9490 F   0  0  0  0  0  0  0  0  0  0  0  0
   53.1550  152.7650   25.6430 C   0  0  0  0  0  0  0  0  0  0  0  0
   51.0080  155.8200   29.2900 C   0  0  0  0  0  0  0  0  0  0  0  0
   50.1200  156.6970   29.9190 C   0  0  0  0  0  0  0  0  0  0  0  0
   49.2110  161.5060   32.7470 C   0  0  0  0  0  0  0  0  0  0  0  0
   50.5190  161.8990   32.6790 N   0  0  0  0  0  0  0  0  0  0  0  0
   48.5830  161.5520   33.8000 O   0  0  0  0  0  0  0  0  0  0  0  0
   47.3529  159.9091   32.7980 H   0  0  0  0  0  0  0  0  0  0  0  0
   46.5541  160.4100   31.2691 H   0  0  0  0  0  0  0  0  0  0  0  0
   47.7129  159.0375   31.2691 H   0  0  0  0  0  0  0  0  0  0  0  0
   48.2569  161.8348   30.8393 H   0  0  0  0  0  0  0  0  0  0  0  0
   48.6498  158.5396   31.2484 H   0  0  0  0  0  0  0  0  0  0  0  0
   51.9570  159.5671   29.6714 H   0  0  0  0  0  0  0  0  0  0  0  0
   53.5358  157.9878   28.5486 H   0  0  0  0  0  0  0  0  0  0  0  0
   52.2838  153.3652   28.0690 H   0  0  0  0  0  0  0  0  0  0  0  0
   51.2887  154.6029   27.2544 H   0  0  0  0  0  0  0  0  0  0  0  0
   53.7297  156.1132   25.9989 H   0  0  0  0  0  0  0  0  0  0  0  0
   55.0107  155.7117   23.8977 H   0  0  0  0  0  0  0  0  0  0  0  0
   55.1031  153.4171   22.9127 H   0  0  0  0  0  0  0  0  0  0  0  0
   52.6418  151.9241   26.1325 H   0  0  0  0  0  0  0  0  0  0  0  0
   50.7385  154.7590   29.1824 H   0  0  0  0  0  0  0  0  0  0  0  0
   49.1579  156.3295   30.3053 H   0  0  0  0  0  0  0  0  0  0  0  0
   51.0030  161.8530   31.8230 H   0  0  0  0  0  0  0  0  0  0  0  0
   50.9770  162.2290   33.4860 H   0  0  0  0  0  0  0  0  0  0  0  0
  1  2  1  0
  2  3  1  0
  3  4  2  0
  4  5  1  0
  5  6  2  0
  6  7  1  0
  7  8  2  0
  8  9  1  0
  9 10  1  0
 10 11  1  0
 11 12  2  0
 12 13  1  0
 13 14  2  0
 14 15  1  0
 15 16  1  0
 15 17  2  0
  8 18  1  0
 18 19  2  0
  2 20  1  0
 20 21  1  0
 20 22  2  0
 19  5  1  0
 17 11  1  0
  1 23  1  0
  1 24  1  0
  1 25  1  0
  2 26  1  6
  4 27  1  0
  6 28  1  0
  7 29  1  0
 10 30  1  0
 10 31  1  0
 12 32  1  0
 13 33  1  0
 14 34  1  0
 17 35  1  0
 18 36  1  0
 19 37  1  0
 21 38  1  0
 21 39  1  0
M  END
>  <meeko>  (3) 
{"is_sidechain": [false], "free_energy": -10.03, "intermolecular_energy": -13.476, "internal_energy": -0.685}

$$$$
SAG_pdb_out
     RDKit          3D

 39 40  0  0  0  0  0  0  0  0999 V2000
   54.1380  153.5920   23.3840 C   0  0  0  0  0  0  0  0  0  0  0  0
   53.7980  152.8910   24.6920 C   0  0  2  0  0  0  0  0  0  0  0  0
   53.7550  153.9180   25.7640 N   0  0  0  0  0  0  0  0  0  0  0  0
   52.5620  154.1570   26.1980 C   0  0  0  0  0  0  0  0  0  0  0  0
   52.3060  155.1490   27.2600 C   0  0  0  0  0  0  0  0  0  0  0  0
   51.4700  154.8480   28.3380 C   0  0  0  0  0  0  0  0  0  0  0  0
   51.2380  155.8030   29.3350 C   0  0  0  0  0  0  0  0  0  0  0  0
   51.8420  157.0590   29.2550 C   0  0  0  0  0  0  0  0  0  0  0  0
   51.7030  158.0790   30.1540 O   0  0  0  0  0  0  0  0  0  0  0  0
   51.1200  159.2910   29.6810 C   0  0  0  0  0  0  0  0  0  0  0  0
   50.2020  159.8130   30.7560 C   0  0  0  0  0  0  0  0  0  0  0  0
   50.6670  160.7360   31.7070 C   0  0  0  0  0  0  0  0  0  0  0  0
   49.8120  161.2360   32.6940 C   0  0  0  0  0  0  0  0  0  0  0  0
   48.4820  160.8220   32.7350 C   0  0  0  0  0  0  0  0  0  0  0  0
   48.0160  159.9190   31.7870 C   0  0  0  0  0  0  0  0  0  0  0  0
   46.7350  159.5290   31.8220 F   0  0  0  0  0  0  0  0  0  0  0  0
   48.8580  159.4150   30.7990 C   0  0  0  0  0  0  0  0  0  0  0  0
   52.6770  157.3520   28.1720 C   0  0  0  0  0  0  0  0  0  0  0  0
   52.9130  156.4030   27.1740 C   0  0  0  0  0  0  0  0  0  0  0  0
   54.8810  151.8610   25.0360 C   0  0  0  0  0  0  0  0  0  0  0  0
   56.0330  152.3880   25.5520 N   0  0  0  0  0  0  0  0  0  0  0  0
   54.7570  150.6560   24.8480 O   0  0  0  0  0  0  0  0  0  0  0  0
   54.6087  154.5625   23.5997 H   0  0  0  0  0  0  0  0  0  0  0  0
   54.8336  152.9680   22.8036 H   0  0  0  0  0  0  0  0  0  0  0  0
   53.2174  153.7519   22.8036 H   0  0  0  0  0  0  0  0  0  0  0  0
   52.8309  152.3752   24.5986 H   0  0  0  0  0  0  0  0  0  0  0  0
   51.7143  153.6063   25.7643 H   0  0  0  0  0  0  0  0  0  0  0  0
   50.9932  153.8589   28.4035 H   0  0  0  0  0  0  0  0  0  0  0  0
   50.5789  155.5634   30.1825 H   0  0  0  0  0  0  0  0  0  0  0  0
   51.9088  160.0287   29.4723 H   0  0  0  0  0  0  0  0  0  0  0  0
   50.5589  159.1098   28.7524 H   0  0  0  0  0  0  0  0  0  0  0  0
   51.7149  161.0691   31.6750 H   0  0  0  0  0  0  0  0  0  0  0  0
   50.1885  161.9548   33.4367 H   0  0  0  0  0  0  0  0  0  0  0  0
   47.8057  161.2073   33.5123 H   0  0  0  0  0  0  0  0  0  0  0  0
   48.4695  158.7057   30.0534 H   0  0  0  0  0  0  0  0  0  0  0  0
   53.1535  158.3412   28.1051 H   0  0  0  0  0  0  0  0  0  0  0  0
   53.5724  156.6424   26.3267 H   0  0  0  0  0  0  0  0  0  0  0  0
   56.1090  153.3590   25.6950 H   0  0  0  0  0  0  0  0  0  0  0  0
   56.7850  151.7950   25.7820 H   0  0  0  0  0  0  0  0  0  0  0  0
  1  2  1  0
  2  3  1  0
  3  4  2  0
  4  5  1  0
  5  6  2  0
  6  7  1  0
  7  8  2  0
  8  9  1  0
  9 10  1  0
 10 11  1  0
 11 12  2  0
 12 13  1  0
 13 14  2  0
 14 15  1  0
 15 16  1  0
 15 17  2  0
  8 18  1  0
 18 19  2  0
  2 20  1  0
 20 21  1  0
 20 22  2  0
 19  5  1  0
 17 11  1  0
  1 23  1  0
  1 24  1  0
  1 25  1  0
  2 26  1  6
  4 27  1  0
  6 28  1  0
  7 29  1  0
 10 30  1  0
 10 31  1  0
 12 32  1  0
 13 33  1  0
 14 34  1  0
 17 35  1  0
 18 36  1  0
 19 37  1  0
 21 38  1  0
 21 39  1  0
M  END
>  <meeko>  (4) 
{"is_sidechain": [false], "free_energy": -9.976, "intermolecular_energy": -13.519, "internal_energy": -0.569}

$$$$
SAG_pdb_out
     RDKit          3D

 39 40  0  0  0  0  0  0  0  0999 V2000
   47.4200  160.0000   31.7640 C   0  0  0  0  0  0  0  0  0  0  0  0
   48.5550  160.9780   31.4960 C   0  0  2  0  0  0  0  0  0  0  0  0
   49.6220  160.2520   30.7590 N   0  0  0  0  0  0  0  0  0  0  0  0
   49.4560  158.9710   30.7470 C   0  0  0  0  0  0  0  0  0  0  0  0
   50.4110  158.0700   30.0730 C   0  0  0  0  0  0  0  0  0  0  0  0
   51.6350  158.5480   29.5970 C   0  0  0  0  0  0  0  0  0  0  0  0
   52.5280  157.6770   28.9590 C   0  0  0  0  0  0  0  0  0  0  0  0
   52.1970  156.3310   28.7990 C   0  0  0  0  0  0  0  0  0  0  0  0
   52.9710  155.3780   28.1990 O   0  0  0  0  0  0  0  0  0  0  0  0
   52.3290  154.5000   27.2780 C   0  0  0  0  0  0  0  0  0  0  0  0
   53.2090  154.3830   26.0590 C   0  0  0  0  0  0  0  0  0  0  0  0
   53.3420  153.1560   25.3900 C   0  0  0  0  0  0  0  0  0  0  0  0
   54.1430  153.0490   24.2490 C   0  0  0  0  0  0  0  0  0  0  0  0
   54.8130  154.1700   23.7630 C   0  0  0  0  0  0  0  0  0  0  0  0
   54.6710  155.3880   24.4160 C   0  0  0  0  0  0  0  0  0  0  0  0
   55.3080  156.4680   23.9430 F   0  0  0  0  0  0  0  0  0  0  0  0
   53.8760  155.5070   25.5530 C   0  0  0  0  0  0  0  0  0  0  0  0
   50.9700  155.8620   29.2780 C   0  0  0  0  0  0  0  0  0  0  0  0
   50.0750  156.7250   29.9160 C   0  0  0  0  0  0  0  0  0  0  0  0
   49.1320  161.4950   32.8200 C   0  0  0  0  0  0  0  0  0  0  0  0
   50.4450  161.8750   32.7660 N   0  0  0  0  0  0  0  0  0  0  0  0
   48.4930  161.5480   33.8650 O   0  0  0  0  0  0  0  0  0  0  0  0
   47.2849  159.8836   32.8494 H   0  0  0  0  0  0  0  0  0  0  0  0
   46.4911  160.3852   31.3181 H   0  0  0  0  0  0  0  0  0  0  0  0
   47.6637  159.0244   31.3181 H   0  0  0  0  0  0  0  0  0  0  0  0
   48.1805  161.8316   30.9120 H   0  0  0  0  0  0  0  0  0  0  0  0
   48.5793  158.5401   31.2527 H   0  0  0  0  0  0  0  0  0  0  0  0
   51.8975  159.6087   29.7233 H   0  0  0  0  0  0  0  0  0  0  0  0
   53.4907  158.0546   28.5840 H   0  0  0  0  0  0  0  0  0  0  0  0
   52.1938  153.5099   27.7378 H   0  0  0  0  0  0  0  0  0  0  0  0
   51.3397  154.8927   27.0002 H   0  0  0  0  0  0  0  0  0  0  0  0
   52.8107  152.2698   25.7673 H   0  0  0  0  0  0  0  0  0  0  0  0
   54.2441  152.0813   23.7358 H   0  0  0  0  0  0  0  0  0  0  0  0
   55.4494  154.0911   22.8693 H   0  0  0  0  0  0  0  0  0  0  0  0
   53.7717  156.4812   26.0530 H   0  0  0  0  0  0  0  0  0  0  0  0
   50.7062  154.8017   29.1512 H   0  0  0  0  0  0  0  0  0  0  0  0
   49.1128  156.3467   30.2916 H   0  0  0  0  0  0  0  0  0  0  0  0
   50.9370  161.8240   31.9150 H   0  0  0  0  0  0  0  0  0  0  0  0
   50.8960  162.2010   33.5780 H   0  0  0  0  0  0  0  0  0  0  0  0
  1  2  1  0
  2  3  1  0
  3  4  2  0
  4  5  1  0
  5  6  2  0
  6  7  1  0
  7  8  2  0
  8  9  1  0
  9 10  1  0
 10 11  1  0
 11 12  2  0
 12 13  1  0
 13 14  2  0
 14 15  1  0
 15 16  1  0
 15 17  2  0
  8 18  1  0
 18 19  2  0
  2 20  1  0
 20 21  1  0
 20 22  2  0
 19  5  1  0
 17 11  1  0
  1 23  1  0
  1 24  1  0
  1 25  1  0
  2 26  1  6
  4 27  1  0
  6 28  1  0
  7 29  1  0
 10 30  1  0
 10 31  1  0
 12 32  1  0
 13 33  1  0
 14 34  1  0
 17 35  1  0
 18 36  1  0
 19 37  1  0
 21 38  1  0
 21 39  1  0
M  END
>  <meeko>  (5) 
{"is_sidechain": [false], "free_energy": -9.941, "intermolecular_energy": -13.343, "internal_energy": -0.698}

$$$$
SAG_pdb_out
     RDKit          3D

 39 40  0  0  0  0  0  0  0  0999 V2000
   51.5130  161.4570   31.1370 C   0  0  0  0  0  0  0  0  0  0  0  0
   50.4180  160.6550   31.8270 C   0  0  2  0  0  0  0  0  0  0  0  0
   50.3910  159.2990   31.2200 N   0  0  0  0  0  0  0  0  0  0  0  0
   51.3290  159.1070   30.3520 C   0  0  0  0  0  0  0  0  0  0  0  0
   51.4700  157.8270   29.6320 C   0  0  0  0  0  0  0  0  0  0  0  0
   52.5070  157.6290   28.7160 C   0  0  0  0  0  0  0  0  0  0  0  0
   52.6240  156.4080   28.0410 C   0  0  0  0  0  0  0  0  0  0  0  0
   51.7060  155.3850   28.2820 C   0  0  0  0  0  0  0  0  0  0  0  0
   51.7030  154.1500   27.6970 O   0  0  0  0  0  0  0  0  0  0  0  0
   52.9280  153.4210   27.7060 C   0  0  0  0  0  0  0  0  0  0  0  0
   53.3380  153.1860   26.2740 C   0  0  0  0  0  0  0  0  0  0  0  0
   53.5680  154.2700   25.4100 C   0  0  0  0  0  0  0  0  0  0  0  0
   53.9650  154.0550   24.0870 C   0  0  0  0  0  0  0  0  0  0  0  0
   54.1430  152.7550   23.6180 C   0  0  0  0  0  0  0  0  0  0  0  0
   53.9300  151.6820   24.4750 C   0  0  0  0  0  0  0  0  0  0  0  0
   54.1110  150.4340   24.0260 F   0  0  0  0  0  0  0  0  0  0  0  0
   53.5350  151.8840   25.7940 C   0  0  0  0  0  0  0  0  0  0  0  0
   50.6710  155.5920   29.2000 C   0  0  0  0  0  0  0  0  0  0  0  0
   50.5490  156.8080   29.8770 C   0  0  0  0  0  0  0  0  0  0  0  0
   49.0550  161.3230   31.6070 C   0  0  0  0  0  0  0  0  0  0  0  0
   48.4620  161.8070   32.7390 N   0  0  0  0  0  0  0  0  0  0  0  0
   48.5070  161.4040   30.5120 O   0  0  0  0  0  0  0  0  0  0  0  0
   52.1558  161.9278   31.8953 H   0  0  0  0  0  0  0  0  0  0  0  0
   52.1178  160.7867   30.5086 H   0  0  0  0  0  0  0  0  0  0  0  0
   51.0564  162.2359   30.5086 H   0  0  0  0  0  0  0  0  0  0  0  0
   50.6197  160.6016   32.9070 H   0  0  0  0  0  0  0  0  0  0  0  0
   52.0411  159.9194   30.1445 H   0  0  0  0  0  0  0  0  0  0  0  0
   53.2323  158.4337   28.5252 H   0  0  0  0  0  0  0  0  0  0  0  0
   53.4404  156.2549   27.3199 H   0  0  0  0  0  0  0  0  0  0  0  0
   53.7042  154.0010   28.2266 H   0  0  0  0  0  0  0  0  0  0  0  0
   52.7996  152.4624   28.2301 H   0  0  0  0  0  0  0  0  0  0  0  0
   53.4343  155.2979   25.7783 H   0  0  0  0  0  0  0  0  0  0  0  0
   54.1366  154.9106   23.4173 H   0  0  0  0  0  0  0  0  0  0  0  0
   54.4500  152.5793   22.5764 H   0  0  0  0  0  0  0  0  0  0  0  0
   53.3775  151.0224   26.4594 H   0  0  0  0  0  0  0  0  0  0  0  0
   49.9448  154.7881   29.3910 H   0  0  0  0  0  0  0  0  0  0  0  0
   49.7326  156.9610   30.5981 H   0  0  0  0  0  0  0  0  0  0  0  0
   48.9220  161.7310   33.6060 H   0  0  0  0  0  0  0  0  0  0  0  0
   47.5760  162.2340   32.6870 H   0  0  0  0  0  0  0  0  0  0  0  0
  1  2  1  0
  2  3  1  0
  3  4  2  0
  4  5  1  0
  5  6  2  0
  6  7  1  0
  7  8  2  0
  8  9  1  0
  9 10  1  0
 10 11  1  0
 11 12  2  0
 12 13  1  0
 13 14  2  0
 14 15  1  0
 15 16  1  0
 15 17  2  0
  8 18  1  0
 18 19  2  0
  2 20  1  0
 20 21  1  0
 20 22  2  0
 19  5  1  0
 17 11  1  0
  1 23  1  0
  1 24  1  0
  1 25  1  0
  2 26  1  1
  4 27  1  0
  6 28  1  0
  7 29  1  0
 10 30  1  0
 10 31  1  0
 12 32  1  0
 13 33  1  0
 14 34  1  0
 17 35  1  0
 18 36  1  0
 19 37  1  0
 21 38  1  0
 21 39  1  0
M  END
>  <meeko>  (6) 
{"is_sidechain": [false], "free_energy": -9.287, "intermolecular_energy": -12.549, "internal_energy": -0.608}

$$$$
SAG_pdb_out
     RDKit          3D

 39 40  0  0  0  0  0  0  0  0999 V2000
   51.1200  160.8510   31.9990 C   0  0  0  0  0  0  0  0  0  0  0  0
   51.7210  161.2590   30.6620 C   0  0  2  0  0  0  0  0  0  0  0  0
   51.9070  160.0300   29.8480 N   0  0  0  0  0  0  0  0  0  0  0  0
   51.2770  159.0050   30.3170 C   0  0  0  0  0  0  0  0  0  0  0  0
   51.3390  157.6860   29.6570 C   0  0  0  0  0  0  0  0  0  0  0  0
   50.4010  156.6920   29.9490 C   0  0  0  0  0  0  0  0  0  0  0  0
   50.4770  155.4470   29.3130 C   0  0  0  0  0  0  0  0  0  0  0  0
   51.4900  155.1960   28.3850 C   0  0  0  0  0  0  0  0  0  0  0  0
   51.6790  154.0320   27.6950 O   0  0  0  0  0  0  0  0  0  0  0  0
   52.9890  153.4700   27.7090 C   0  0  0  0  0  0  0  0  0  0  0  0
   53.3920  153.2010   26.2810 C   0  0  0  0  0  0  0  0  0  0  0  0
   53.6290  154.2630   25.3940 C   0  0  0  0  0  0  0  0  0  0  0  0
   54.0210  154.0160   24.0750 C   0  0  0  0  0  0  0  0  0  0  0  0
   54.1860  152.7040   23.6330 C   0  0  0  0  0  0  0  0  0  0  0  0
   53.9660  151.6520   24.5140 C   0  0  0  0  0  0  0  0  0  0  0  0
   54.1350  150.3930   24.0920 F   0  0  0  0  0  0  0  0  0  0  0  0
   53.5760  151.8860   25.8300 C   0  0  0  0  0  0  0  0  0  0  0  0
   52.4230  156.1970   28.0990 C   0  0  0  0  0  0  0  0  0  0  0  0
   52.3530  157.4420   28.7300 C   0  0  0  0  0  0  0  0  0  0  0  0
   53.0880  161.9220   30.8760 C   0  0  0  0  0  0  0  0  0  0  0  0
   53.0580  163.0810   31.6010 N   0  0  0  0  0  0  0  0  0  0  0  0
   54.1370  161.4790   30.4200 O   0  0  0  0  0  0  0  0  0  0  0  0
   51.7291  161.2645   32.8163 H   0  0  0  0  0  0  0  0  0  0  0  0
   50.0937  161.2398   32.0736 H   0  0  0  0  0  0  0  0  0  0  0  0
   51.1027  159.7537   32.0736 H   0  0  0  0  0  0  0  0  0  0  0  0
   51.0532  161.9720   30.1564 H   0  0  0  0  0  0  0  0  0  0  0  0
   50.6781  159.1177   31.2328 H   0  0  0  0  0  0  0  0  0  0  0  0
   49.6021  156.8880   30.6793 H   0  0  0  0  0  0  0  0  0  0  0  0
   49.7380  154.6658   29.5445 H   0  0  0  0  0  0  0  0  0  0  0  0
   53.6944  154.1772   28.1697 H   0  0  0  0  0  0  0  0  0  0  0  0
   53.0003  152.5378   28.2929 H   0  0  0  0  0  0  0  0  0  0  0  0
   53.5050  155.2997   25.7402 H   0  0  0  0  0  0  0  0  0  0  0  0
   54.1990  154.8555   23.3869 H   0  0  0  0  0  0  0  0  0  0  0  0
   54.4881  152.5031   22.5946 H   0  0  0  0  0  0  0  0  0  0  0  0
   53.4125  151.0408   26.5147 H   0  0  0  0  0  0  0  0  0  0  0  0
   53.2220  156.0023   27.3684 H   0  0  0  0  0  0  0  0  0  0  0  0
   53.0915  158.2235   28.4977 H   0  0  0  0  0  0  0  0  0  0  0  0
   52.2030  163.4160   31.9570 H   0  0  0  0  0  0  0  0  0  0  0  0
   53.8910  163.5790   31.7670 H   0  0  0  0  0  0  0  0  0  0  0  0
  1  2  1  0
  2  3  1  0
  3  4  2  0
  4  5  1  0
  5  6  2  0
  6  7  1  0
  7  8  2  0
  8  9  1  0
  9 10  1  0
 10 11  1  0
 11 12  2  0
 12 13  1  0
 13 14  2  0
 14 15  1  0
 15 16  1  0
 15 17  2  0
  8 18  1  0
 18 19  2  0
  2 20  1  0
 20 21  1  0
 20 22  2  0
 19  5  1  0
 17 11  1  0
  1 23  1  0
  1 24  1  0
  1 25  1  0
  2 26  1  6
  4 27  1  0
  6 28  1  0
  7 29  1  0
 10 30  1  0
 10 31  1  0
 12 32  1  0
 13 33  1  0
 14 34  1  0
 17 35  1  0
 18 36  1  0
 19 37  1  0
 21 38  1  0
 21 39  1  0
M  END
>  <meeko>  (7) 
{"is_sidechain": [false], "free_energy": -9.252, "intermolecular_energy": -12.471, "internal_energy": -0.639}

$$$$
SAG_pdb_out
     RDKit          3D

 39 40  0  0  0  0  0  0  0  0999 V2000
   52.4240  161.2020   30.6950 C   0  0  0  0  0  0  0  0  0  0  0  0
   51.3560  160.1330   30.8750 C   0  0  2  0  0  0  0  0  0  0  0  0
   51.4080  159.2290   29.6970 N   0  0  0  0  0  0  0  0  0  0  0  0
   51.7730  158.0250   29.9900 C   0  0  0  0  0  0  0  0  0  0  0  0
   51.8940  156.9770   28.9590 C   0  0  0  0  0  0  0  0  0  0  0  0
   51.2210  155.7590   29.0900 C   0  0  0  0  0  0  0  0  0  0  0  0
   51.3480  154.7760   28.1010 C   0  0  0  0  0  0  0  0  0  0  0  0
   52.1460  155.0110   26.9800 C   0  0  0  0  0  0  0  0  0  0  0  0
   52.3570  154.1440   25.9450 O   0  0  0  0  0  0  0  0  0  0  0  0
   53.6860  153.6650   25.7550 C   0  0  0  0  0  0  0  0  0  0  0  0
   53.6130  152.1760   25.5290 C   0  0  0  0  0  0  0  0  0  0  0  0
   54.5350  151.5370   24.6850 C   0  0  0  0  0  0  0  0  0  0  0  0
   54.4820  150.1540   24.4880 C   0  0  0  0  0  0  0  0  0  0  0  0
   53.5090  149.3970   25.1390 C   0  0  0  0  0  0  0  0  0  0  0  0
   52.6050  150.0260   25.9860 C   0  0  0  0  0  0  0  0  0  0  0  0
   51.6770  149.2960   26.6190 F   0  0  0  0  0  0  0  0  0  0  0  0
   52.6490  151.4020   26.1900 C   0  0  0  0  0  0  0  0  0  0  0  0
   52.8150  156.2330   26.8570 C   0  0  0  0  0  0  0  0  0  0  0  0
   52.6930  157.2180   27.8400 C   0  0  0  0  0  0  0  0  0  0  0  0
   49.9670  160.7800   30.9410 C   0  0  0  0  0  0  0  0  0  0  0  0
   49.2810  160.7940   29.7580 N   0  0  0  0  0  0  0  0  0  0  0  0
   49.4960  161.2770   31.9590 O   0  0  0  0  0  0  0  0  0  0  0  0
   52.7680  161.5463   31.6814 H   0  0  0  0  0  0  0  0  0  0  0  0
   53.2734  160.7814   30.1367 H   0  0  0  0  0  0  0  0  0  0  0  0
   52.0026  162.0510   30.1367 H   0  0  0  0  0  0  0  0  0  0  0  0
   51.5374  159.5787   31.8077 H   0  0  0  0  0  0  0  0  0  0  0  0
   51.9997  157.7744   31.0368 H   0  0  0  0  0  0  0  0  0  0  0  0
   50.5904  155.5723   29.9717 H   0  0  0  0  0  0  0  0  0  0  0  0
   50.8185  153.8177   28.2075 H   0  0  0  0  0  0  0  0  0  0  0  0
   54.1383  154.1543   24.8798 H   0  0  0  0  0  0  0  0  0  0  0  0
   54.3043  153.8893   26.6367 H   0  0  0  0  0  0  0  0  0  0  0  0
   55.3070  152.1306   24.1735 H   0  0  0  0  0  0  0  0  0  0  0  0
   55.2065  149.6641   23.8208 H   0  0  0  0  0  0  0  0  0  0  0  0
   53.4574  148.3093   24.9831 H   0  0  0  0  0  0  0  0  0  0  0  0
   51.9284  151.8815   26.8689 H   0  0  0  0  0  0  0  0  0  0  0  0
   53.4451  156.4209   25.9752 H   0  0  0  0  0  0  0  0  0  0  0  0
   53.2225  158.1762   27.7331 H   0  0  0  0  0  0  0  0  0  0  0  0
   49.6790  160.3870   28.9540 H   0  0  0  0  0  0  0  0  0  0  0  0
   48.3890  161.2080   29.7110 H   0  0  0  0  0  0  0  0  0  0  0  0
  1  2  1  0
  2  3  1  0
  3  4  2  0
  4  5  1  0
  5  6  2  0
  6  7  1  0
  7  8  2  0
  8  9  1  0
  9 10  1  0
 10 11  1  0
 11 12  2  0
 12 13  1  0
 13 14  2  0
 14 15  1  0
 15 16  1  0
 15 17  2  0
  8 18  1  0
 18 19  2  0
  2 20  1  0
 20 21  1  0
 20 22  2  0
 19  5  1  0
 17 11  1  0
  1 23  1  0
  1 24  1  0
  1 25  1  0
  2 26  1  1
  4 27  1  0
  6 28  1  0
  7 29  1  0
 10 30  1  0
 10 31  1  0
 12 32  1  0
 13 33  1  0
 14 34  1  0
 17 35  1  0
 18 36  1  0
 19 37  1  0
 21 38  1  0
 21 39  1  0
M  END
>  <meeko>  (8) 
{"is_sidechain": [false], "free_energy": -8.647, "intermolecular_energy": -11.674, "internal_energy": -0.618}

$$$$
SAG_pdb_out
     RDKit          3D

 39 40  0  0  0  0  0  0  0  0999 V2000
   52.6960  151.8010   26.3200 C   0  0  0  0  0  0  0  0  0  0  0  0
   53.7080  152.9350   26.4030 C   0  0  2  0  0  0  0  0  0  0  0  0
   52.9790  154.1740   26.7790 N   0  0  0  0  0  0  0  0  0  0  0  0
   52.5180  154.1510   27.9850 C   0  0  0  0  0  0  0  0  0  0  0  0
   51.7570  155.2840   28.5470 C   0  0  0  0  0  0  0  0  0  0  0  0
   52.3720  156.5170   28.7780 C   0  0  0  0  0  0  0  0  0  0  0  0
   51.6350  157.5810   29.3130 C   0  0  0  0  0  0  0  0  0  0  0  0
   50.2830  157.4110   29.6160 C   0  0  0  0  0  0  0  0  0  0  0  0
   49.4490  158.3600   30.1390 O   0  0  0  0  0  0  0  0  0  0  0  0
   49.2200  158.3230   31.5450 C   0  0  0  0  0  0  0  0  0  0  0  0
   49.4980  159.6990   32.0960 C   0  0  0  0  0  0  0  0  0  0  0  0
   50.5530  160.4720   31.5860 C   0  0  0  0  0  0  0  0  0  0  0  0
   50.8020  161.7550   32.0820 C   0  0  0  0  0  0  0  0  0  0  0  0
   49.9930  162.2790   33.0880 C   0  0  0  0  0  0  0  0  0  0  0  0
   48.9400  161.5210   33.5840 C   0  0  0  0  0  0  0  0  0  0  0  0
   48.1570  162.0300   34.5450 F   0  0  0  0  0  0  0  0  0  0  0  0
   48.6820  160.2430   33.0980 C   0  0  0  0  0  0  0  0  0  0  0  0
   49.6760  156.1740   29.3820 C   0  0  0  0  0  0  0  0  0  0  0  0
   50.4060  155.1080   28.8480 C   0  0  0  0  0  0  0  0  0  0  0  0
   54.3760  153.1490   25.0390 C   0  0  0  0  0  0  0  0  0  0  0  0
   55.1680  154.2600   24.9540 N   0  0  0  0  0  0  0  0  0  0  0  0
   54.2060  152.4080   24.0760 O   0  0  0  0  0  0  0  0  0  0  0  0
   52.4146  151.4856   27.3356 H   0  0  0  0  0  0  0  0  0  0  0  0
   51.8009  152.1469   25.7822 H   0  0  0  0  0  0  0  0  0  0  0  0
   53.1412  150.9509   25.7822 H   0  0  0  0  0  0  0  0  0  0  0  0
   54.4817  152.6896   27.1454 H   0  0  0  0  0  0  0  0  0  0  0  0
   52.6972  153.2637   28.6100 H   0  0  0  0  0  0  0  0  0  0  0  0
   53.4372  156.6524   28.5392 H   0  0  0  0  0  0  0  0  0  0  0  0
   52.1216  158.5507   29.4944 H   0  0  0  0  0  0  0  0  0  0  0  0
   48.1753  158.0438   31.7463 H   0  0  0  0  0  0  0  0  0  0  0  0
   49.8766  157.5797   32.0208 H   0  0  0  0  0  0  0  0  0  0  0  0
   51.1904  160.0639   30.7878 H   0  0  0  0  0  0  0  0  0  0  0  0
   51.6350  162.3497   31.6789 H   0  0  0  0  0  0  0  0  0  0  0  0
   50.1868  163.2858   33.4866 H   0  0  0  0  0  0  0  0  0  0  0  0
   47.8395  159.6606   33.4991 H   0  0  0  0  0  0  0  0  0  0  0  0
   48.6110  156.0375   29.6209 H   0  0  0  0  0  0  0  0  0  0  0  0
   49.9193  154.1384   28.6666 H   0  0  0  0  0  0  0  0  0  0  0  0
   55.2890  154.8390   25.7410 H   0  0  0  0  0  0  0  0  0  0  0  0
   55.6180  154.4800   24.1060 H   0  0  0  0  0  0  0  0  0  0  0  0
  1  2  1  0
  2  3  1  0
  3  4  2  0
  4  5  1  0
  5  6  2  0
  6  7  1  0
  7  8  2  0
  8  9  1  0
  9 10  1  0
 10 11  1  0
 11 12  2  0
 12 13  1  0
 13 14  2  0
 14 15  1  0
 15 16  1  0
 15 17  2  0
  8 18  1  0
 18 19  2  0
  2 20  1  0
 20 21  1  0
 20 22  2  0
 19  5  1  0
 17 11  1  0
  1 23  1  0
  1 24  1  0
  1 25  1  0
  2 26  1  1
  4 27  1  0
  6 28  1  0
  7 29  1  0
 10 30  1  0
 10 31  1  0
 12 32  1  0
 13 33  1  0
 14 34  1  0
 17 35  1  0
 18 36  1  0
 19 37  1  0
 21 38  1  0
 21 39  1  0
M  END
>  <meeko>  (9) 
{"is_sidechain": [false], "free_energy": -7.259, "intermolecular_energy": -9.794, "internal_energy": -0.623}

$$$$
