cand_018_out
     RDKit          3D

 44 47  0  0  0  0  0  0  0  0999 V2000
   73.8080   45.9580   -5.1710 C   0  0  0  0  0  0  0  0  0  0  0  0
   73.4770   44.7160   -4.3880 C   0  0  0  0  0  0  0  0  0  0  0  0
   72.3380   44.7030   -3.5680 C   0  0  0  0  0  0  0  0  0  0  0  0
   72.0030   43.5660   -2.8320 C   0  0  0  0  0  0  0  0  0  0  0  0
   72.7890   42.4110   -2.9090 C   0  0  0  0  0  0  0  0  0  0  0  0
   72.4280   41.2210   -2.1100 C   0  0  0  0  0  0  0  0  0  0  0  0
   71.0680   41.1540   -1.8260 O   0  0  0  0  0  0  0  0  0  0  0  0
   70.5960   40.0970   -1.0890 C   0  0  0  0  0  0  0  0  0  0  0  0
   69.2270   40.0790   -0.8150 C   0  0  0  0  0  0  0  0  0  0  0  0
   68.6810   39.0310   -0.0720 C   0  0  0  0  0  0  0  0  0  0  0  0
   69.5010   38.0020    0.3950 C   0  0  0  0  0  0  0  0  0  0  0  0
   70.8650   38.0230    0.1200 C   0  0  0  0  0  0  0  0  0  0  0  0
   71.6100   36.9840    0.6070 O   0  0  0  0  0  0  0  0  0  0  0  0
   71.4120   39.0730   -0.6240 C   0  0  0  0  0  0  0  0  0  0  0  0
   72.8410   39.1330   -0.9350 C   0  0  0  0  0  0  0  0  0  0  0  0
   73.6260   38.2620   -0.5650 O   0  0  0  0  0  0  0  0  0  0  0  0
   73.3220   40.2920   -1.7230 C   0  0  0  0  0  0  0  0  0  0  0  0
   74.6720   40.3310   -2.0220 O   0  0  0  0  0  0  0  0  0  0  0  0
   73.9300   42.4310   -3.7270 C   0  0  0  0  0  0  0  0  0  0  0  0
   74.2910   43.5690   -4.4720 C   0  0  0  0  0  0  0  0  0  0  0  0
   75.4100   43.5790   -5.3230 N   0  0  0  0  0  0  0  0  0  0  0  0
   75.2170   42.7190   -6.5070 C   0  0  0  0  0  0  0  0  0  0  0  0
   76.6210   42.2330   -6.8460 C   0  0  0  0  0  0  0  0  0  0  0  0
   77.2440   42.0660   -5.4730 C   0  0  0  0  0  0  0  0  0  0  0  0
   76.7200   43.2830   -4.7170 C   0  0  0  0  0  0  0  0  0  0  0  0
   74.0276   46.7819   -4.4761 H   0  0  0  0  0  0  0  0  0  0  0  0
   74.6870   45.7686   -5.8046 H   0  0  0  0  0  0  0  0  0  0  0  0
   72.9513   46.2312   -5.8046 H   0  0  0  0  0  0  0  0  0  0  0  0
   71.7027   45.5988   -3.5049 H   0  0  0  0  0  0  0  0  0  0  0  0
   71.1131   43.5777   -2.1855 H   0  0  0  0  0  0  0  0  0  0  0  0
   68.5803   40.8888   -1.1838 H   0  0  0  0  0  0  0  0  0  0  0  0
   67.6029   39.0158    0.1459 H   0  0  0  0  0  0  0  0  0  0  0  0
   69.0695   37.1760    0.9794 H   0  0  0  0  0  0  0  0  0  0  0  0
   71.3850   36.5900    1.4270 H   0  0  0  0  0  0  0  0  0  0  0  0
   75.0180   39.7820   -2.6970 H   0  0  0  0  0  0  0  0  0  0  0  0
   74.5599   41.5312   -3.7873 H   0  0  0  0  0  0  0  0  0  0  0  0
   74.5568   41.8715   -6.2706 H   0  0  0  0  0  0  0  0  0  0  0  0
   74.7414   43.2523   -7.3433 H   0  0  0  0  0  0  0  0  0  0  0  0
   76.5915   41.2770   -7.3893 H   0  0  0  0  0  0  0  0  0  0  0  0
   77.1780   42.9174   -7.5028 H   0  0  0  0  0  0  0  0  0  0  0  0
   76.9124   41.1309   -4.9980 H   0  0  0  0  0  0  0  0  0  0  0  0
   78.3421   42.0059   -5.4962 H   0  0  0  0  0  0  0  0  0  0  0  0
   76.6072   43.0535   -3.6471 H   0  0  0  0  0  0  0  0  0  0  0  0
   77.4082   44.1383   -4.7868 H   0  0  0  0  0  0  0  0  0  0  0  0
  1  2  1  0
  2  3  2  0
  3  4  1  0
  4  5  2  0
  5  6  1  0
  6  7  1  0
  7  8  1  0
  8  9  2  0
  9 10  1  0
 10 11  2  0
 11 12  1  0
 12 13  1  0
 12 14  2  0
 14 15  1  0
 15 16  2  0
 15 17  1  0
 17 18  1  0
  5 19  1  0
 19 20  2  0
 20 21  1  0
 21 22  1  0
 22 23  1  0
 23 24  1  0
 24 25  1  0
 20  2  1  0
 25 21  1  0
 17  6  2  0
 14  8  1  0
  1 26  1  0
  1 27  1  0
  1 28  1  0
  3 29  1  0
  4 30  1  0
  9 31  1  0
 10 32  1  0
 11 33  1  0
 13 34  1  0
 18 35  1  0
 19 36  1  0
 22 37  1  0
 22 38  1  0
 23 39  1  0
 23 40  1  0
 24 41  1  0
 24 42  1  0
 25 43  1  0
 25 44  1  0
M  END
>  <meeko>  (1) 
{"is_sidechain": [false], "free_energy": -8.097, "intermolecular_energy": -9.517, "internal_energy": -0.221}

$$$$
cand_018_out
     RDKit          3D

 44 47  0  0  0  0  0  0  0  0999 V2000
   72.5080   46.3760   -4.9920 C   0  0  0  0  0  0  0  0  0  0  0  0
   72.3600   45.0770   -4.2460 C   0  0  0  0  0  0  0  0  0  0  0  0
   73.4430   44.5830   -3.5030 C   0  0  0  0  0  0  0  0  0  0  0  0
   73.3350   43.3840   -2.7980 C   0  0  0  0  0  0  0  0  0  0  0  0
   72.1400   42.6580   -2.8080 C   0  0  0  0  0  0  0  0  0  0  0  0
   72.0480   41.3800   -2.0690 C   0  0  0  0  0  0  0  0  0  0  0  0
   70.7720   41.1340   -1.5730 O   0  0  0  0  0  0  0  0  0  0  0  0
   70.5470   39.9810   -0.8650 C   0  0  0  0  0  0  0  0  0  0  0  0
   69.2550   39.7830   -0.3730 C   0  0  0  0  0  0  0  0  0  0  0  0
   68.9570   38.6290    0.3540 C   0  0  0  0  0  0  0  0  0  0  0  0
   69.9480   37.6740    0.5880 C   0  0  0  0  0  0  0  0  0  0  0  0
   71.2350   37.8740    0.0950 C   0  0  0  0  0  0  0  0  0  0  0  0
   72.1570   36.8980    0.3600 O   0  0  0  0  0  0  0  0  0  0  0  0
   71.5330   39.0300   -0.6320 C   0  0  0  0  0  0  0  0  0  0  0  0
   72.8720   39.2800   -1.1670 C   0  0  0  0  0  0  0  0  0  0  0  0
   73.7960   38.4830   -1.0090 O   0  0  0  0  0  0  0  0  0  0  0  0
   73.0870   40.5390   -1.9170 C   0  0  0  0  0  0  0  0  0  0  0  0
   74.3530   40.7570   -2.4290 O   0  0  0  0  0  0  0  0  0  0  0  0
   71.0610   43.1540   -3.5560 C   0  0  0  0  0  0  0  0  0  0  0  0
   71.1490   44.3580   -4.2800 C   0  0  0  0  0  0  0  0  0  0  0  0
   70.0590   44.8780   -4.9980 N   0  0  0  0  0  0  0  0  0  0  0  0
   68.9330   45.2430   -4.1150 C   0  0  0  0  0  0  0  0  0  0  0  0
   67.6970   45.0240   -4.9790 C   0  0  0  0  0  0  0  0  0  0  0  0
   68.0860   43.8040   -5.7940 C   0  0  0  0  0  0  0  0  0  0  0  0
   69.5500   44.0770   -6.1250 C   0  0  0  0  0  0  0  0  0  0  0  0
   72.6022   47.2031   -4.2729 H   0  0  0  0  0  0  0  0  0  0  0  0
   73.4073   46.3354   -5.6241 H   0  0  0  0  0  0  0  0  0  0  0  0
   71.6226   46.5388   -5.6241 H   0  0  0  0  0  0  0  0  0  0  0  0
   74.3870   45.1470   -3.4761 H   0  0  0  0  0  0  0  0  0  0  0  0
   74.1975   43.0064   -2.2292 H   0  0  0  0  0  0  0  0  0  0  0  0
   68.4737   40.5349   -0.5580 H   0  0  0  0  0  0  0  0  0  0  0  0
   67.9401   38.4721    0.7429 H   0  0  0  0  0  0  0  0  0  0  0  0
   69.7127   36.7649    1.1609 H   0  0  0  0  0  0  0  0  0  0  0  0
   72.3360   36.6510    1.2460 H   0  0  0  0  0  0  0  0  0  0  0  0
   74.4620   40.9700   -3.3350 H   0  0  0  0  0  0  0  0  0  0  0  0
   70.1195   42.5856   -3.5771 H   0  0  0  0  0  0  0  0  0  0  0  0
   68.9079   44.5953   -3.2262 H   0  0  0  0  0  0  0  0  0  0  0  0
   69.0082   46.2741   -3.7393 H   0  0  0  0  0  0  0  0  0  0  0  0
   66.8091   44.8241   -4.3612 H   0  0  0  0  0  0  0  0  0  0  0  0
   67.4273   45.8965   -5.5923 H   0  0  0  0  0  0  0  0  0  0  0  0
   67.9776   42.8817   -5.2044 H   0  0  0  0  0  0  0  0  0  0  0  0
   67.4571   43.6540   -6.6840 H   0  0  0  0  0  0  0  0  0  0  0  0
   70.1085   43.1332   -6.2105 H   0  0  0  0  0  0  0  0  0  0  0  0
   69.6631   44.6011   -7.0855 H   0  0  0  0  0  0  0  0  0  0  0  0
  1  2  1  0
  2  3  2  0
  3  4  1  0
  4  5  2  0
  5  6  1  0
  6  7  1  0
  7  8  1  0
  8  9  2  0
  9 10  1  0
 10 11  2  0
 11 12  1  0
 12 13  1  0
 12 14  2  0
 14 15  1  0
 15 16  2  0
 15 17  1  0
 17 18  1  0
  5 19  1  0
 19 20  2  0
 20 21  1  0
 21 22  1  0
 22 23  1  0
 23 24  1  0
 24 25  1  0
 20  2  1  0
 25 21  1  0
 17  6  2  0
 14  8  1  0
  1 26  1  0
  1 27  1  0
  1 28  1  0
  3 29  1  0
  4 30  1  0
  9 31  1  0
 10 32  1  0
 11 33  1  0
 13 34  1  0
 18 35  1  0
 19 36  1  0
 22 37  1  0
 22 38  1  0
 23 39  1  0
 23 40  1  0
 24 41  1  0
 24 42  1  0
 25 43  1  0
 25 44  1  0
M  END
>  <meeko>  (2) 
{"is_sidechain": [false], "free_energy": -8.044, "intermolecular_energy": -9.385, "internal_energy": -0.29}

$$$$
cand_018_out
     RDKit          3D

 44 47  0  0  0  0  0  0  0  0999 V2000
   78.0360   43.8250   -3.9430 C   0  0  0  0  0  0  0  0  0  0  0  0
   76.7940   43.1210   -3.4670 C   0  0  0  0  0  0  0  0  0  0  0  0
   76.7230   42.6740   -2.1380 C   0  0  0  0  0  0  0  0  0  0  0  0
   75.5840   42.0210   -1.6670 C   0  0  0  0  0  0  0  0  0  0  0  0
   74.4850   41.8110   -2.5060 C   0  0  0  0  0  0  0  0  0  0  0  0
   73.2930   41.1020   -1.9950 C   0  0  0  0  0  0  0  0  0  0  0  0
   73.6040   39.8870   -1.3940 O   0  0  0  0  0  0  0  0  0  0  0  0
   72.5890   39.1250   -0.8750 C   0  0  0  0  0  0  0  0  0  0  0  0
   72.9460   37.9060   -0.2960 C   0  0  0  0  0  0  0  0  0  0  0  0
   71.9620   37.0820    0.2530 C   0  0  0  0  0  0  0  0  0  0  0  0
   70.6220   37.4760    0.2240 C   0  0  0  0  0  0  0  0  0  0  0  0
   70.2700   38.6920   -0.3530 C   0  0  0  0  0  0  0  0  0  0  0  0
   68.9410   39.0170   -0.3480 O   0  0  0  0  0  0  0  0  0  0  0  0
   71.2550   39.5170   -0.9030 C   0  0  0  0  0  0  0  0  0  0  0  0
   70.9280   40.8030   -1.5210 C   0  0  0  0  0  0  0  0  0  0  0  0
   69.7730   41.2220   -1.5790 O   0  0  0  0  0  0  0  0  0  0  0  0
   72.0450   41.5980   -2.0820 C   0  0  0  0  0  0  0  0  0  0  0  0
   71.7240   42.8170   -2.6510 O   0  0  0  0  0  0  0  0  0  0  0  0
   74.5630   42.2560   -3.8360 C   0  0  0  0  0  0  0  0  0  0  0  0
   75.7040   42.9110   -4.3350 C   0  0  0  0  0  0  0  0  0  0  0  0
   75.7710   43.3940   -5.6530 N   0  0  0  0  0  0  0  0  0  0  0  0
   74.8900   44.5600   -5.8650 C   0  0  0  0  0  0  0  0  0  0  0  0
   74.4820   44.4570   -7.3300 C   0  0  0  0  0  0  0  0  0  0  0  0
   74.3630   42.9570   -7.5250 C   0  0  0  0  0  0  0  0  0  0  0  0
   75.5550   42.4210   -6.7380 C   0  0  0  0  0  0  0  0  0  0  0  0
   78.6240   44.1583   -3.0751 H   0  0  0  0  0  0  0  0  0  0  0  0
   78.6388   43.1343   -4.5509 H   0  0  0  0  0  0  0  0  0  0  0  0
   77.7530   44.6970   -4.5509 H   0  0  0  0  0  0  0  0  0  0  0  0
   77.5742   42.8404   -1.4614 H   0  0  0  0  0  0  0  0  0  0  0  0
   75.5499   41.6679   -0.6258 H   0  0  0  0  0  0  0  0  0  0  0  0
   74.0009   37.5953   -0.2724 H   0  0  0  0  0  0  0  0  0  0  0  0
   72.2421   36.1210    0.7091 H   0  0  0  0  0  0  0  0  0  0  0  0
   69.8469   36.8262    0.6564 H   0  0  0  0  0  0  0  0  0  0  0  0
   68.6750   39.8990   -0.1720 H   0  0  0  0  0  0  0  0  0  0  0  0
   71.2570   42.8470   -3.4630 H   0  0  0  0  0  0  0  0  0  0  0  0
   73.7076   42.0876   -4.5067 H   0  0  0  0  0  0  0  0  0  0  0  0
   74.0082   44.5073   -5.2095 H   0  0  0  0  0  0  0  0  0  0  0  0
   75.3877   45.5128   -5.6316 H   0  0  0  0  0  0  0  0  0  0  0  0
   73.5212   44.9604   -7.5127 H   0  0  0  0  0  0  0  0  0  0  0  0
   75.1910   44.9371   -8.0206 H   0  0  0  0  0  0  0  0  0  0  0  0
   73.4148   42.5778   -7.1161 H   0  0  0  0  0  0  0  0  0  0  0  0
   74.3653   42.6526   -8.5821 H   0  0  0  0  0  0  0  0  0  0  0  0
   75.3290   41.4268   -6.3251 H   0  0  0  0  0  0  0  0  0  0  0  0
   76.4473   42.3064   -7.3709 H   0  0  0  0  0  0  0  0  0  0  0  0
  1  2  1  0
  2  3  2  0
  3  4  1  0
  4  5  2  0
  5  6  1  0
  6  7  1  0
  7  8  1  0
  8  9  2  0
  9 10  1  0
 10 11  2  0
 11 12  1  0
 12 13  1  0
 12 14  2  0
 14 15  1  0
 15 16  2  0
 15 17  1  0
 17 18  1  0
  5 19  1  0
 19 20  2  0
 20 21  1  0
 21 22  1  0
 22 23  1  0
 23 24  1  0
 24 25  1  0
 20  2  1  0
 25 21  1  0
 17  6  2  0
 14  8  1  0
  1 26  1  0
  1 27  1  0
  1 28  1  0
  3 29  1  0
  4 30  1  0
  9 31  1  0
 10 32  1  0
 11 33  1  0
 13 34  1  0
 18 35  1  0
 19 36  1  0
 22 37  1  0
 22 38  1  0
 23 39  1  0
 23 40  1  0
 24 41  1  0
 24 42  1  0
 25 43  1  0
 25 44  1  0
M  END
>  <meeko>  (3) 
{"is_sidechain": [false], "free_energy": -7.955, "intermolecular_energy": -9.013, "internal_energy": -0.559}

$$$$
cand_018_out
     RDKit          3D

 44 47  0  0  0  0  0  0  0  0999 V2000
   69.4650   44.6760   -6.0080 C   0  0  0  0  0  0  0  0  0  0  0  0
   69.5980   43.5790   -4.9860 C   0  0  0  0  0  0  0  0  0  0  0  0
   68.4480   43.0900   -4.3480 C   0  0  0  0  0  0  0  0  0  0  0  0
   68.5400   42.0720   -3.3980 C   0  0  0  0  0  0  0  0  0  0  0  0
   69.7790   41.5090   -3.0740 C   0  0  0  0  0  0  0  0  0  0  0  0
   69.8590   40.4430   -2.0540 C   0  0  0  0  0  0  0  0  0  0  0  0
   71.1320   39.8920   -1.9490 O   0  0  0  0  0  0  0  0  0  0  0  0
   71.3470   38.8890   -1.0380 C   0  0  0  0  0  0  0  0  0  0  0  0
   72.6360   38.3540   -0.9790 C   0  0  0  0  0  0  0  0  0  0  0  0
   72.9230   37.3320   -0.0720 C   0  0  0  0  0  0  0  0  0  0  0  0
   71.9250   36.8460    0.7750 C   0  0  0  0  0  0  0  0  0  0  0  0
   70.6420   37.3810    0.7130 C   0  0  0  0  0  0  0  0  0  0  0  0
   69.7120   36.8590    1.5700 O   0  0  0  0  0  0  0  0  0  0  0  0
   70.3540   38.4040   -0.1950 C   0  0  0  0  0  0  0  0  0  0  0  0
   69.0180   38.9940   -0.2930 C   0  0  0  0  0  0  0  0  0  0  0  0
   68.0890   38.6240    0.4220 O   0  0  0  0  0  0  0  0  0  0  0  0
   68.8140   40.0670   -1.2940 C   0  0  0  0  0  0  0  0  0  0  0  0
   67.5510   40.6260   -1.3680 O   0  0  0  0  0  0  0  0  0  0  0  0
   70.9270   42.0050   -3.7120 C   0  0  0  0  0  0  0  0  0  0  0  0
   70.8590   43.0360   -4.6680 C   0  0  0  0  0  0  0  0  0  0  0  0
   72.0010   43.5090   -5.3390 N   0  0  0  0  0  0  0  0  0  0  0  0
   72.8110   42.4100   -5.9010 C   0  0  0  0  0  0  0  0  0  0  0  0
   74.2380   42.9420   -5.8610 C   0  0  0  0  0  0  0  0  0  0  0  0
   74.2450   43.7470   -4.5750 C   0  0  0  0  0  0  0  0  0  0  0  0
   72.8820   44.4310   -4.6010 C   0  0  0  0  0  0  0  0  0  0  0  0
   69.3478   45.6423   -5.4956 H   0  0  0  0  0  0  0  0  0  0  0  0
   70.3666   44.7018   -6.6377 H   0  0  0  0  0  0  0  0  0  0  0  0
   68.5834   44.4856   -6.6377 H   0  0  0  0  0  0  0  0  0  0  0  0
   67.4642   43.5133   -4.5991 H   0  0  0  0  0  0  0  0  0  0  0  0
   67.6295   41.7087   -2.8991 H   0  0  0  0  0  0  0  0  0  0  0  0
   73.4230   38.7369   -1.6454 H   0  0  0  0  0  0  0  0  0  0  0  0
   73.9373   36.9089   -0.0246 H   0  0  0  0  0  0  0  0  0  0  0  0
   72.1526   36.0416    1.4900 H   0  0  0  0  0  0  0  0  0  0  0  0
   68.8040   36.8730    1.3410 H   0  0  0  0  0  0  0  0  0  0  0  0
   67.3230   41.1740   -2.0920 H   0  0  0  0  0  0  0  0  0  0  0  0
   71.9074   41.5758   -3.4576 H   0  0  0  0  0  0  0  0  0  0  0  0
   72.7156   41.5016   -5.2880 H   0  0  0  0  0  0  0  0  0  0  0  0
   72.4938   42.1281   -6.9159 H   0  0  0  0  0  0  0  0  0  0  0  0
   74.9687   42.1207   -5.8212 H   0  0  0  0  0  0  0  0  0  0  0  0
   74.5155   43.5278   -6.7497 H   0  0  0  0  0  0  0  0  0  0  0  0
   74.3433   43.0915   -3.6971 H   0  0  0  0  0  0  0  0  0  0  0  0
   75.0863   44.4522   -4.5057 H   0  0  0  0  0  0  0  0  0  0  0  0
   72.5084   44.5855   -3.5780 H   0  0  0  0  0  0  0  0  0  0  0  0
   72.9287   45.4226   -5.0748 H   0  0  0  0  0  0  0  0  0  0  0  0
  1  2  1  0
  2  3  2  0
  3  4  1  0
  4  5  2  0
  5  6  1  0
  6  7  1  0
  7  8  1  0
  8  9  2  0
  9 10  1  0
 10 11  2  0
 11 12  1  0
 12 13  1  0
 12 14  2  0
 14 15  1  0
 15 16  2  0
 15 17  1  0
 17 18  1  0
  5 19  1  0
 19 20  2  0
 20 21  1  0
 21 22  1  0
 22 23  1  0
 23 24  1  0
 24 25  1  0
 20  2  1  0
 25 21  1  0
 17  6  2  0
 14  8  1  0
  1 26  1  0
  1 27  1  0
  1 28  1  0
  3 29  1  0
  4 30  1  0
  9 31  1  0
 10 32  1  0
 11 33  1  0
 13 34  1  0
 18 35  1  0
 19 36  1  0
 22 37  1  0
 22 38  1  0
 23 39  1  0
 23 40  1  0
 24 41  1  0
 24 42  1  0
 25 43  1  0
 25 44  1  0
M  END
>  <meeko>  (4) 
{"is_sidechain": [false], "free_energy": -7.932, "intermolecular_energy": -9.475, "internal_energy": -0.069}

$$$$
cand_018_out
     RDKit          3D

 44 47  0  0  0  0  0  0  0  0999 V2000
   77.1500   43.5490   -3.0040 C   0  0  0  0  0  0  0  0  0  0  0  0
   75.7390   43.0500   -2.8470 C   0  0  0  0  0  0  0  0  0  0  0  0
   75.5150   41.7910   -2.2690 C   0  0  0  0  0  0  0  0  0  0  0  0
   74.2180   41.3020   -2.1080 C   0  0  0  0  0  0  0  0  0  0  0  0
   73.1150   42.0650   -2.5060 C   0  0  0  0  0  0  0  0  0  0  0  0
   71.7490   41.5240   -2.3430 C   0  0  0  0  0  0  0  0  0  0  0  0
   71.6090   40.7510   -1.1950 O   0  0  0  0  0  0  0  0  0  0  0  0
   70.3890   40.1860   -0.9210 C   0  0  0  0  0  0  0  0  0  0  0  0
   70.2990   39.4050    0.2320 C   0  0  0  0  0  0  0  0  0  0  0  0
   69.0850   38.8040    0.5710 C   0  0  0  0  0  0  0  0  0  0  0  0
   67.9630   38.9830   -0.2410 C   0  0  0  0  0  0  0  0  0  0  0  0
   68.0570   39.7630   -1.3900 C   0  0  0  0  0  0  0  0  0  0  0  0
   66.9200   39.8990   -2.1390 O   0  0  0  0  0  0  0  0  0  0  0  0
   69.2720   40.3650   -1.7290 C   0  0  0  0  0  0  0  0  0  0  0  0
   69.4140   41.1920   -2.9290 C   0  0  0  0  0  0  0  0  0  0  0  0
   68.4710   41.4030   -3.6890 O   0  0  0  0  0  0  0  0  0  0  0  0
   70.7460   41.7780   -3.2030 C   0  0  0  0  0  0  0  0  0  0  0  0
   70.8640   42.5690   -4.3320 O   0  0  0  0  0  0  0  0  0  0  0  0
   73.3450   43.3220   -3.0880 C   0  0  0  0  0  0  0  0  0  0  0  0
   74.6450   43.8320   -3.2660 C   0  0  0  0  0  0  0  0  0  0  0  0
   74.8780   45.1070   -3.8110 N   0  0  0  0  0  0  0  0  0  0  0  0
   73.9420   46.1190   -3.2810 C   0  0  0  0  0  0  0  0  0  0  0  0
   73.7830   47.1130   -4.4250 C   0  0  0  0  0  0  0  0  0  0  0  0
   73.8300   46.2120   -5.6440 C   0  0  0  0  0  0  0  0  0  0  0  0
   74.9240   45.2130   -5.2800 C   0  0  0  0  0  0  0  0  0  0  0  0
   77.5958   43.7067   -2.0108 H   0  0  0  0  0  0  0  0  0  0  0  0
   77.7423   42.8058   -3.5580 H   0  0  0  0  0  0  0  0  0  0  0  0
   77.1433   44.4993   -3.5580 H   0  0  0  0  0  0  0  0  0  0  0  0
   76.3707   41.1833   -1.9394 H   0  0  0  0  0  0  0  0  0  0  0  0
   74.0615   40.3077   -1.6642 H   0  0  0  0  0  0  0  0  0  0  0  0
   71.1822   39.2632    0.8722 H   0  0  0  0  0  0  0  0  0  0  0  0
   69.0123   38.1882    1.4796 H   0  0  0  0  0  0  0  0  0  0  0  0
   67.0073   38.5087    0.0268 H   0  0  0  0  0  0  0  0  0  0  0  0
   66.3320   39.1750   -2.2320 H   0  0  0  0  0  0  0  0  0  0  0  0
   71.7100   42.8390   -4.6280 H   0  0  0  0  0  0  0  0  0  0  0  0
   72.4850   43.9253   -3.4141 H   0  0  0  0  0  0  0  0  0  0  0  0
   72.9754   45.6607   -3.0247 H   0  0  0  0  0  0  0  0  0  0  0  0
   74.3096   46.5921   -2.3585 H   0  0  0  0  0  0  0  0  0  0  0  0
   72.8226   47.6453   -4.3598 H   0  0  0  0  0  0  0  0  0  0  0  0
   74.5479   47.9035   -4.4315 H   0  0  0  0  0  0  0  0  0  0  0  0
   72.8662   45.7054   -5.8003 H   0  0  0  0  0  0  0  0  0  0  0  0
   74.0277   46.7542   -6.5804 H   0  0  0  0  0  0  0  0  0  0  0  0
   74.7237   44.2358   -5.7436 H   0  0  0  0  0  0  0  0  0  0  0  0
   75.9123   45.5375   -5.6378 H   0  0  0  0  0  0  0  0  0  0  0  0
  1  2  1  0
  2  3  2  0
  3  4  1  0
  4  5  2  0
  5  6  1  0
  6  7  1  0
  7  8  1  0
  8  9  2  0
  9 10  1  0
 10 11  2  0
 11 12  1  0
 12 13  1  0
 12 14  2  0
 14 15  1  0
 15 16  2  0
 15 17  1  0
 17 18  1  0
  5 19  1  0
 19 20  2  0
 20 21  1  0
 21 22  1  0
 22 23  1  0
 23 24  1  0
 24 25  1  0
 20  2  1  0
 25 21  1  0
 17  6  2  0
 14  8  1  0
  1 26  1  0
  1 27  1  0
  1 28  1  0
  3 29  1  0
  4 30  1  0
  9 31  1  0
 10 32  1  0
 11 33  1  0
 13 34  1  0
 18 35  1  0
 19 36  1  0
 22 37  1  0
 22 38  1  0
 23 39  1  0
 23 40  1  0
 24 41  1  0
 24 42  1  0
 25 43  1  0
 25 44  1  0
M  END
>  <meeko>  (5) 
{"is_sidechain": [false], "free_energy": -7.803, "intermolecular_energy": -9.133, "internal_energy": -0.26}

$$$$
cand_018_out
     RDKit          3D

 44 47  0  0  0  0  0  0  0  0999 V2000
   72.0810   46.0240   -4.9310 C   0  0  0  0  0  0  0  0  0  0  0  0
   71.7360   44.7890   -4.1430 C   0  0  0  0  0  0  0  0  0  0  0  0
   72.7030   44.2180   -3.3010 C   0  0  0  0  0  0  0  0  0  0  0  0
   72.4120   43.0750   -2.5560 C   0  0  0  0  0  0  0  0  0  0  0  0
   71.1460   42.4840   -2.6230 C   0  0  0  0  0  0  0  0  0  0  0  0
   70.8610   41.2630   -1.8390 C   0  0  0  0  0  0  0  0  0  0  0  0
   72.0030   40.5170   -1.5680 O   0  0  0  0  0  0  0  0  0  0  0  0
   71.8810   39.3570   -0.8470 C   0  0  0  0  0  0  0  0  0  0  0  0
   73.0510   38.6320   -0.6130 C   0  0  0  0  0  0  0  0  0  0  0  0
   72.9980   37.4430    0.1160 C   0  0  0  0  0  0  0  0  0  0  0  0
   71.7780   36.9790    0.6120 C   0  0  0  0  0  0  0  0  0  0  0  0
   70.6130   37.7040    0.3770 C   0  0  0  0  0  0  0  0  0  0  0  0
   69.4530   37.1940    0.8910 O   0  0  0  0  0  0  0  0  0  0  0  0
   70.6660   38.8950   -0.3540 C   0  0  0  0  0  0  0  0  0  0  0  0
   69.4660   39.6870   -0.6240 C   0  0  0  0  0  0  0  0  0  0  0  0
   68.3570   39.3490   -0.2150 O   0  0  0  0  0  0  0  0  0  0  0  0
   69.6280   40.9290   -1.4150 C   0  0  0  0  0  0  0  0  0  0  0  0
   68.4890   41.6760   -1.6520 O   0  0  0  0  0  0  0  0  0  0  0  0
   70.1840   43.0570   -3.4700 C   0  0  0  0  0  0  0  0  0  0  0  0
   70.4570   44.2060   -4.2360 C   0  0  0  0  0  0  0  0  0  0  0  0
   69.4840   44.8050   -5.0550 N   0  0  0  0  0  0  0  0  0  0  0  0
   68.2530   45.1330   -4.3080 C   0  0  0  0  0  0  0  0  0  0  0  0
   67.1450   45.0090   -5.3470 C   0  0  0  0  0  0  0  0  0  0  0  0
   67.6240   43.8430   -6.1920 C   0  0  0  0  0  0  0  0  0  0  0  0
   69.1240   44.1020   -6.2980 C   0  0  0  0  0  0  0  0  0  0  0  0
   72.3111   46.8478   -4.2394 H   0  0  0  0  0  0  0  0  0  0  0  0
   72.9570   45.8217   -5.5648 H   0  0  0  0  0  0  0  0  0  0  0  0
   71.2270   46.3050   -5.5648 H   0  0  0  0  0  0  0  0  0  0  0  0
   73.7003   44.6764   -3.2278 H   0  0  0  0  0  0  0  0  0  0  0  0
   73.1854   42.6343   -1.9098 H   0  0  0  0  0  0  0  0  0  0  0  0
   74.0128   38.9972   -1.0024 H   0  0  0  0  0  0  0  0  0  0  0  0
   73.9190   36.8704    0.3001 H   0  0  0  0  0  0  0  0  0  0  0  0
   71.7375   36.0423    1.1874 H   0  0  0  0  0  0  0  0  0  0  0  0
   68.9250   37.7150    1.4640 H   0  0  0  0  0  0  0  0  0  0  0  0
   68.3860   42.5150   -1.2470 H   0  0  0  0  0  0  0  0  0  0  0  0
   69.1881   42.5947   -3.5370 H   0  0  0  0  0  0  0  0  0  0  0  0
   68.0959   44.4229   -3.4827 H   0  0  0  0  0  0  0  0  0  0  0  0
   68.2912   46.1314   -3.8479 H   0  0  0  0  0  0  0  0  0  0  0  0
   66.1775   44.7868   -4.8732 H   0  0  0  0  0  0  0  0  0  0  0  0
   66.9759   45.9307   -5.9231 H   0  0  0  0  0  0  0  0  0  0  0  0
   67.4211   42.8828   -5.6951 H   0  0  0  0  0  0  0  0  0  0  0  0
   67.1219   43.7752   -7.1684 H   0  0  0  0  0  0  0  0  0  0  0  0
   69.6745   43.1530   -6.3776 H   0  0  0  0  0  0  0  0  0  0  0  0
   69.3770   44.6917   -7.1915 H   0  0  0  0  0  0  0  0  0  0  0  0
  1  2  1  0
  2  3  2  0
  3  4  1  0
  4  5  2  0
  5  6  1  0
  6  7  1  0
  7  8  1  0
  8  9  2  0
  9 10  1  0
 10 11  2  0
 11 12  1  0
 12 13  1  0
 12 14  2  0
 14 15  1  0
 15 16  2  0
 15 17  1  0
 17 18  1  0
  5 19  1  0
 19 20  2  0
 20 21  1  0
 21 22  1  0
 22 23  1  0
 23 24  1  0
 24 25  1  0
 20  2  1  0
 25 21  1  0
 17  6  2  0
 14  8  1  0
  1 26  1  0
  1 27  1  0
  1 28  1  0
  3 29  1  0
  4 30  1  0
  9 31  1  0
 10 32  1  0
 11 33  1  0
 13 34  1  0
 18 35  1  0
 19 36  1  0
 22 37  1  0
 22 38  1  0
 23 39  1  0
 23 40  1  0
 24 41  1  0
 24 42  1  0
 25 43  1  0
 25 44  1  0
M  END
>  <meeko>  (6) 
{"is_sidechain": [false], "free_energy": -7.794, "intermolecular_energy": -9.107, "internal_energy": -0.275}

$$$$
cand_018_out
     RDKit          3D

 44 47  0  0  0  0  0  0  0  0999 V2000
   69.3520   45.1620   -6.1150 C   0  0  0  0  0  0  0  0  0  0  0  0
   69.4170   44.0570   -5.0950 C   0  0  0  0  0  0  0  0  0  0  0  0
   70.4640   43.1250   -5.1560 C   0  0  0  0  0  0  0  0  0  0  0  0
   70.5520   42.0910   -4.2230 C   0  0  0  0  0  0  0  0  0  0  0  0
   69.6060   41.9720   -3.2000 C   0  0  0  0  0  0  0  0  0  0  0  0
   69.7060   40.8610   -2.2300 C   0  0  0  0  0  0  0  0  0  0  0  0
   71.0030   40.3780   -2.0950 O   0  0  0  0  0  0  0  0  0  0  0  0
   71.2380   39.3440   -1.2260 C   0  0  0  0  0  0  0  0  0  0  0  0
   72.5520   38.8810   -1.1340 C   0  0  0  0  0  0  0  0  0  0  0  0
   72.8610   37.8320   -0.2660 C   0  0  0  0  0  0  0  0  0  0  0  0
   71.8590   37.2470    0.5100 C   0  0  0  0  0  0  0  0  0  0  0  0
   70.5500   37.7120    0.4170 C   0  0  0  0  0  0  0  0  0  0  0  0
   69.6170   37.0950    1.2060 O   0  0  0  0  0  0  0  0  0  0  0  0
   70.2400   38.7620   -0.4530 C   0  0  0  0  0  0  0  0  0  0  0  0
   68.8780   39.2790   -0.5820 C   0  0  0  0  0  0  0  0  0  0  0  0
   67.9430   38.8210    0.0730 O   0  0  0  0  0  0  0  0  0  0  0  0
   68.6530   40.3890   -1.5370 C   0  0  0  0  0  0  0  0  0  0  0  0
   67.3640   40.8780   -1.6400 O   0  0  0  0  0  0  0  0  0  0  0  0
   68.5580   42.9050   -3.1460 C   0  0  0  0  0  0  0  0  0  0  0  0
   68.4450   43.9520   -4.0800 C   0  0  0  0  0  0  0  0  0  0  0  0
   67.4190   44.9100   -4.0060 N   0  0  0  0  0  0  0  0  0  0  0  0
   67.6050   45.8370   -2.8720 C   0  0  0  0  0  0  0  0  0  0  0  0
   66.1860   46.2230   -2.4710 C   0  0  0  0  0  0  0  0  0  0  0  0
   65.4230   44.9320   -2.7050 C   0  0  0  0  0  0  0  0  0  0  0  0
   66.0320   44.4150   -4.0050 C   0  0  0  0  0  0  0  0  0  0  0  0
   69.2949   46.1327   -5.6008 H   0  0  0  0  0  0  0  0  0  0  0  0
   70.2534   45.1331   -6.7448 H   0  0  0  0  0  0  0  0  0  0  0  0
   68.4602   45.0276   -6.7448 H   0  0  0  0  0  0  0  0  0  0  0  0
   71.2233   43.2102   -5.9474 H   0  0  0  0  0  0  0  0  0  0  0  0
   71.3733   41.3626   -4.2929 H   0  0  0  0  0  0  0  0  0  0  0  0
   73.3425   39.3420   -1.7444 H   0  0  0  0  0  0  0  0  0  0  0  0
   73.8958   37.4659   -0.1935 H   0  0  0  0  0  0  0  0  0  0  0  0
   72.1031   36.4204    1.1935 H   0  0  0  0  0  0  0  0  0  0  0  0
   69.8910   36.5140    1.8880 H   0  0  0  0  0  0  0  0  0  0  0  0
   66.9640   41.3020   -0.9070 H   0  0  0  0  0  0  0  0  0  0  0  0
   67.8034   42.8151   -2.3507 H   0  0  0  0  0  0  0  0  0  0  0  0
   68.1237   45.3376   -2.0404 H   0  0  0  0  0  0  0  0  0  0  0  0
   68.2211   46.7091   -3.1362 H   0  0  0  0  0  0  0  0  0  0  0  0
   66.1391   46.5280   -1.4152 H   0  0  0  0  0  0  0  0  0  0  0  0
   65.7863   47.0797   -3.0334 H   0  0  0  0  0  0  0  0  0  0  0  0
   65.5837   44.2211   -1.8811 H   0  0  0  0  0  0  0  0  0  0  0  0
   64.3332   45.0719   -2.7582 H   0  0  0  0  0  0  0  0  0  0  0  0
   66.0150   43.3154   -4.0283 H   0  0  0  0  0  0  0  0  0  0  0  0
   65.4720   44.7599   -4.8867 H   0  0  0  0  0  0  0  0  0  0  0  0
  1  2  1  0
  2  3  2  0
  3  4  1  0
  4  5  2  0
  5  6  1  0
  6  7  1  0
  7  8  1  0
  8  9  2  0
  9 10  1  0
 10 11  2  0
 11 12  1  0
 12 13  1  0
 12 14  2  0
 14 15  1  0
 15 16  2  0
 15 17  1  0
 17 18  1  0
  5 19  1  0
 19 20  2  0
 20 21  1  0
 21 22  1  0
 22 23  1  0
 23 24  1  0
 24 25  1  0
 20  2  1  0
 25 21  1  0
 17  6  2  0
 14  8  1  0
  1 26  1  0
  1 27  1  0
  1 28  1  0
  3 29  1  0
  4 30  1  0
  9 31  1  0
 10 32  1  0
 11 33  1  0
 13 34  1  0
 18 35  1  0
 19 36  1  0
 22 37  1  0
 22 38  1  0
 23 39  1  0
 23 40  1  0
 24 41  1  0
 24 42  1  0
 25 43  1  0
 25 44  1  0
M  END
>  <meeko>  (7) 
{"is_sidechain": [false], "free_energy": -7.749, "intermolecular_energy": -9.125, "internal_energy": -0.204}

$$$$
cand_018_out
     RDKit          3D

 44 47  0  0  0  0  0  0  0  0999 V2000
   70.2730   38.6760   -0.1050 C   0  0  0  0  0  0  0  0  0  0  0  0
   71.2350   39.3910   -1.0170 C   0  0  0  0  0  0  0  0  0  0  0  0
   72.4380   38.7640   -1.3740 C   0  0  0  0  0  0  0  0  0  0  0  0
   73.3480   39.4000   -2.2200 C   0  0  0  0  0  0  0  0  0  0  0  0
   73.0710   40.6690   -2.7390 C   0  0  0  0  0  0  0  0  0  0  0  0
   74.0540   41.3350   -3.6200 C   0  0  0  0  0  0  0  0  0  0  0  0
   73.5080   41.7240   -4.8390 O   0  0  0  0  0  0  0  0  0  0  0  0
   74.3120   42.3550   -5.7540 C   0  0  0  0  0  0  0  0  0  0  0  0
   73.7260   42.7130   -6.9690 C   0  0  0  0  0  0  0  0  0  0  0  0
   74.4880   43.3600   -7.9440 C   0  0  0  0  0  0  0  0  0  0  0  0
   75.8330   43.6500   -7.7050 C   0  0  0  0  0  0  0  0  0  0  0  0
   76.4130   43.2910   -6.4910 C   0  0  0  0  0  0  0  0  0  0  0  0
   77.7340   43.6040   -6.3220 O   0  0  0  0  0  0  0  0  0  0  0  0
   75.6510   42.6430   -5.5150 C   0  0  0  0  0  0  0  0  0  0  0  0
   76.2220   42.2480   -4.2270 C   0  0  0  0  0  0  0  0  0  0  0  0
   77.3960   42.4740   -3.9390 O   0  0  0  0  0  0  0  0  0  0  0  0
   75.3320   41.5590   -3.2650 C   0  0  0  0  0  0  0  0  0  0  0  0
   75.8800   41.2030   -2.0460 O   0  0  0  0  0  0  0  0  0  0  0  0
   71.8670   41.2930   -2.3740 C   0  0  0  0  0  0  0  0  0  0  0  0
   70.9380   40.6740   -1.5180 C   0  0  0  0  0  0  0  0  0  0  0  0
   69.7140   41.2780   -1.1820 N   0  0  0  0  0  0  0  0  0  0  0  0
   68.7000   41.1090   -2.2420 C   0  0  0  0  0  0  0  0  0  0  0  0
   67.8330   42.3570   -2.1290 C   0  0  0  0  0  0  0  0  0  0  0  0
   68.8480   43.4220   -1.7570 C   0  0  0  0  0  0  0  0  0  0  0  0
   69.7520   42.6920   -0.7690 C   0  0  0  0  0  0  0  0  0  0  0  0
   70.5428   38.8765    0.9424 H   0  0  0  0  0  0  0  0  0  0  0  0
   69.2510   39.0355   -0.2956 H   0  0  0  0  0  0  0  0  0  0  0  0
   70.3226   37.5938   -0.2956 H   0  0  0  0  0  0  0  0  0  0  0  0
   72.6664   37.7614   -0.9834 H   0  0  0  0  0  0  0  0  0  0  0  0
   74.2917   38.8986   -2.4810 H   0  0  0  0  0  0  0  0  0  0  0  0
   72.6664   42.4860   -7.1581 H   0  0  0  0  0  0  0  0  0  0  0  0
   74.0278   43.6419   -8.9025 H   0  0  0  0  0  0  0  0  0  0  0  0
   76.4324   44.1604   -8.4733 H   0  0  0  0  0  0  0  0  0  0  0  0
   78.0490   44.4540   -6.5620 H   0  0  0  0  0  0  0  0  0  0  0  0
   75.4000   41.3510   -1.2550 H   0  0  0  0  0  0  0  0  0  0  0  0
   71.6438   42.2951   -2.7690 H   0  0  0  0  0  0  0  0  0  0  0  0
   69.1758   41.0524   -3.2321 H   0  0  0  0  0  0  0  0  0  0  0  0
   68.1208   40.1808   -2.1282 H   0  0  0  0  0  0  0  0  0  0  0  0
   67.3433   42.5901   -3.0860 H   0  0  0  0  0  0  0  0  0  0  0  0
   67.0113   42.2588   -1.4043 H   0  0  0  0  0  0  0  0  0  0  0  0
   69.4132   43.7569   -2.6393 H   0  0  0  0  0  0  0  0  0  0  0  0
   68.3928   44.3331   -1.3416 H   0  0  0  0  0  0  0  0  0  0  0  0
   70.7788   43.0826   -0.8246 H   0  0  0  0  0  0  0  0  0  0  0  0
   69.4175   42.8257    0.2703 H   0  0  0  0  0  0  0  0  0  0  0  0
  1  2  1  0
  2  3  2  0
  3  4  1  0
  4  5  2  0
  5  6  1  0
  6  7  1  0
  7  8  1  0
  8  9  2  0
  9 10  1  0
 10 11  2  0
 11 12  1  0
 12 13  1  0
 12 14  2  0
 14 15  1  0
 15 16  2  0
 15 17  1  0
 17 18  1  0
  5 19  1  0
 19 20  2  0
 20 21  1  0
 21 22  1  0
 22 23  1  0
 23 24  1  0
 24 25  1  0
 20  2  1  0
 25 21  1  0
 17  6  2  0
 14  8  1  0
  1 26  1  0
  1 27  1  0
  1 28  1  0
  3 29  1  0
  4 30  1  0
  9 31  1  0
 10 32  1  0
 11 33  1  0
 13 34  1  0
 18 35  1  0
 19 36  1  0
 22 37  1  0
 22 38  1  0
 23 39  1  0
 23 40  1  0
 24 41  1  0
 24 42  1  0
 25 43  1  0
 25 44  1  0
M  END
>  <meeko>  (8) 
{"is_sidechain": [false], "free_energy": -7.729, "intermolecular_energy": -8.785, "internal_energy": -0.521}

$$$$
cand_018_out
     RDKit          3D

 44 47  0  0  0  0  0  0  0  0999 V2000
   74.2660   45.2380   -7.4030 C   0  0  0  0  0  0  0  0  0  0  0  0
   73.8560   44.2780   -6.3190 C   0  0  0  0  0  0  0  0  0  0  0  0
   73.4540   42.9790   -6.6660 C   0  0  0  0  0  0  0  0  0  0  0  0
   73.0710   42.0660   -5.6840 C   0  0  0  0  0  0  0  0  0  0  0  0
   73.0930   42.4240   -4.3310 C   0  0  0  0  0  0  0  0  0  0  0  0
   72.6680   41.4490   -3.3050 C   0  0  0  0  0  0  0  0  0  0  0  0
   71.3010   41.4940   -3.0520 O   0  0  0  0  0  0  0  0  0  0  0  0
   70.7710   40.6400   -2.1180 C   0  0  0  0  0  0  0  0  0  0  0  0
   69.3980   40.7310   -1.8850 C   0  0  0  0  0  0  0  0  0  0  0  0
   68.7940   39.8900   -0.9490 C   0  0  0  0  0  0  0  0  0  0  0  0
   69.5610   38.9570   -0.2470 C   0  0  0  0  0  0  0  0  0  0  0  0
   70.9300   38.8690   -0.4830 C   0  0  0  0  0  0  0  0  0  0  0  0
   71.6220   37.9340    0.2380 O   0  0  0  0  0  0  0  0  0  0  0  0
   71.5350   39.7120   -1.4200 C   0  0  0  0  0  0  0  0  0  0  0  0
   72.9710   39.6530   -1.6960 C   0  0  0  0  0  0  0  0  0  0  0  0
   73.7120   38.8540   -1.1250 O   0  0  0  0  0  0  0  0  0  0  0  0
   73.5150   40.5950   -2.7010 C   0  0  0  0  0  0  0  0  0  0  0  0
   74.8710   40.5200   -2.9640 O   0  0  0  0  0  0  0  0  0  0  0  0
   73.4910   43.7260   -3.9900 C   0  0  0  0  0  0  0  0  0  0  0  0
   73.8760   44.6660   -4.9650 C   0  0  0  0  0  0  0  0  0  0  0  0
   74.3130   45.9580   -4.6240 N   0  0  0  0  0  0  0  0  0  0  0  0
   75.3630   45.9350   -3.5860 C   0  0  0  0  0  0  0  0  0  0  0  0
   75.1590   47.2380   -2.8230 C   0  0  0  0  0  0  0  0  0  0  0  0
   73.6490   47.3860   -2.8360 C   0  0  0  0  0  0  0  0  0  0  0  0
   73.2820   46.9410   -4.2480 C   0  0  0  0  0  0  0  0  0  0  0  0
   74.6593   46.1589   -6.9477 H   0  0  0  0  0  0  0  0  0  0  0  0
   75.0452   44.7756   -8.0268 H   0  0  0  0  0  0  0  0  0  0  0  0
   73.3932   45.4812   -8.0268 H   0  0  0  0  0  0  0  0  0  0  0  0
   73.4409   42.6778   -7.7239 H   0  0  0  0  0  0  0  0  0  0  0  0
   72.7487   41.0554   -5.9753 H   0  0  0  0  0  0  0  0  0  0  0  0
   68.7928   41.4643   -2.4381 H   0  0  0  0  0  0  0  0  0  0  0  0
   67.7121   39.9620   -0.7638 H   0  0  0  0  0  0  0  0  0  0  0  0
   69.0845   38.2939    0.4900 H   0  0  0  0  0  0  0  0  0  0  0  0
   72.5450   37.8340    0.1110 H   0  0  0  0  0  0  0  0  0  0  0  0
   75.1770   40.0480   -3.7130 H   0  0  0  0  0  0  0  0  0  0  0  0
   73.5025   44.0206   -2.9302 H   0  0  0  0  0  0  0  0  0  0  0  0
   75.2354   45.0685   -2.9204 H   0  0  0  0  0  0  0  0  0  0  0  0
   76.3743   45.8476   -4.0099 H   0  0  0  0  0  0  0  0  0  0  0  0
   75.5432   47.1623   -1.7951 H   0  0  0  0  0  0  0  0  0  0  0  0
   75.6898   48.0947   -3.2637 H   0  0  0  0  0  0  0  0  0  0  0  0
   73.1802   46.7377   -2.0811 H   0  0  0  0  0  0  0  0  0  0  0  0
   73.3075   48.4037   -2.5959 H   0  0  0  0  0  0  0  0  0  0  0  0
   72.2846   46.4772   -4.2592 H   0  0  0  0  0  0  0  0  0  0  0  0
   73.2462   47.7876   -4.9494 H   0  0  0  0  0  0  0  0  0  0  0  0
  1  2  1  0
  2  3  2  0
  3  4  1  0
  4  5  2  0
  5  6  1  0
  6  7  1  0
  7  8  1  0
  8  9  2  0
  9 10  1  0
 10 11  2  0
 11 12  1  0
 12 13  1  0
 12 14  2  0
 14 15  1  0
 15 16  2  0
 15 17  1  0
 17 18  1  0
  5 19  1  0
 19 20  2  0
 20 21  1  0
 21 22  1  0
 22 23  1  0
 23 24  1  0
 24 25  1  0
 20  2  1  0
 25 21  1  0
 17  6  2  0
 14  8  1  0
  1 26  1  0
  1 27  1  0
  1 28  1  0
  3 29  1  0
  4 30  1  0
  9 31  1  0
 10 32  1  0
 11 33  1  0
 13 34  1  0
 18 35  1  0
 19 36  1  0
 22 37  1  0
 22 38  1  0
 23 39  1  0
 23 40  1  0
 24 41  1  0
 24 42  1  0
 25 43  1  0
 25 44  1  0
M  END
>  <meeko>  (9) 
{"is_sidechain": [false], "free_energy": -7.679, "intermolecular_energy": -8.471, "internal_energy": -0.776}

$$$$
