cand_051_out
     RDKit          3D

 44 46  0  0  0  0  0  0  0  0999 V2000
   70.1040   42.3410   -1.0030 C   0  0  0  0  0  0  0  0  0  0  0  0
   71.3010   41.4740   -1.2840 C   0  0  0  0  0  0  0  0  0  0  0  0
   72.2310   41.9000   -2.2510 C   0  0  0  0  0  0  0  0  0  0  0  0
   73.3690   41.1430   -2.5700 C   0  0  0  0  0  0  0  0  0  0  0  0
   74.3040   41.6190   -3.6100 C   0  0  0  0  0  0  0  0  0  0  0  0
   73.6610   41.9810   -4.7890 O   0  0  0  0  0  0  0  0  0  0  0  0
   74.4130   42.4420   -5.8400 C   0  0  0  0  0  0  0  0  0  0  0  0
   73.7280   42.7810   -7.0080 C   0  0  0  0  0  0  0  0  0  0  0  0
   74.4330   43.2590   -8.1140 C   0  0  0  0  0  0  0  0  0  0  0  0
   75.8210   43.3990   -8.0540 C   0  0  0  0  0  0  0  0  0  0  0  0
   76.5010   43.0600   -6.8870 C   0  0  0  0  0  0  0  0  0  0  0  0
   77.8600   43.2220   -6.8950 O   0  0  0  0  0  0  0  0  0  0  0  0
   75.7960   42.5810   -5.7790 C   0  0  0  0  0  0  0  0  0  0  0  0
   76.4720   42.2150   -4.5350 C   0  0  0  0  0  0  0  0  0  0  0  0
   77.6900   42.3170   -4.4010 O   0  0  0  0  0  0  0  0  0  0  0  0
   75.6340   41.7100   -3.4230 C   0  0  0  0  0  0  0  0  0  0  0  0
   76.2820   41.3790   -2.2470 O   0  0  0  0  0  0  0  0  0  0  0  0
   73.5570   39.9240   -1.9130 C   0  0  0  0  0  0  0  0  0  0  0  0
   72.6440   39.4850   -0.9520 C   0  0  0  0  0  0  0  0  0  0  0  0
   71.5120   40.2490   -0.6200 C   0  0  0  0  0  0  0  0  0  0  0  0
   70.5660   39.7100    0.4350 C   0  0  0  0  0  0  0  0  0  0  0  0
   69.7970   38.4450    0.0010 C   0  0  0  0  0  0  0  0  0  0  0  0
   68.2900   38.6880    0.1250 C   0  0  0  0  0  0  0  0  0  0  0  0
   70.1890   37.2180    0.8270 C   0  0  0  0  0  0  0  0  0  0  0  0
   69.9691   42.4387    0.0843 H   0  0  0  0  0  0  0  0  0  0  0  0
   70.2607   43.3365   -1.4439 H   0  0  0  0  0  0  0  0  0  0  0  0
   69.2070   41.8817   -1.4439 H   0  0  0  0  0  0  0  0  0  0  0  0
   72.0609   42.8539   -2.7718 H   0  0  0  0  0  0  0  0  0  0  0  0
   72.6345   42.6717   -7.0569 H   0  0  0  0  0  0  0  0  0  0  0  0
   73.8938   43.5260   -9.0349 H   0  0  0  0  0  0  0  0  0  0  0  0
   76.3756   43.7759   -8.9260 H   0  0  0  0  0  0  0  0  0  0  0  0
   78.4050   42.5850   -7.3120 H   0  0  0  0  0  0  0  0  0  0  0  0
   76.9260   40.6990   -2.2420 H   0  0  0  0  0  0  0  0  0  0  0  0
   74.4329   39.3042   -2.1553 H   0  0  0  0  0  0  0  0  0  0  0  0
   72.8139   38.5235   -0.4454 H   0  0  0  0  0  0  0  0  0  0  0  0
   71.1522   39.4672    1.3336 H   0  0  0  0  0  0  0  0  0  0  0  0
   69.8145   40.4921    0.6180 H   0  0  0  0  0  0  0  0  0  0  0  0
   70.0633   38.2397   -1.0464 H   0  0  0  0  0  0  0  0  0  0  0  0
   68.0121   38.7328    1.1884 H   0  0  0  0  0  0  0  0  0  0  0  0
   68.0307   39.6396   -0.3622 H   0  0  0  0  0  0  0  0  0  0  0  0
   67.7448   37.8662   -0.3622 H   0  0  0  0  0  0  0  0  0  0  0  0
   70.1126   37.4573    1.8979 H   0  0  0  0  0  0  0  0  0  0  0  0
   69.5126   36.3840    0.5884 H   0  0  0  0  0  0  0  0  0  0  0  0
   71.2237   36.9307    0.5884 H   0  0  0  0  0  0  0  0  0  0  0  0
  1  2  1  0
  2  3  2  0
  3  4  1  0
  4  5  1  0
  5  6  1  0
  6  7  1  0
  7  8  2  0
  8  9  1  0
  9 10  2  0
 10 11  1  0
 11 12  1  0
 11 13  2  0
 13 14  1  0
 14 15  2  0
 14 16  1  0
 16 17  1  0
  4 18  2  0
 18 19  1  0
 19 20  2  0
 20 21  1  0
 21 22  1  0
 22 23  1  0
 22 24  1  0
 20  2  1  0
 16  5  2  0
 13  7  1  0
  1 25  1  0
  1 26  1  0
  1 27  1  0
  3 28  1  0
  8 29  1  0
  9 30  1  0
 10 31  1  0
 12 32  1  0
 17 33  1  0
 18 34  1  0
 19 35  1  0
 21 36  1  0
 21 37  1  0
 22 38  1  0
 23 39  1  0
 23 40  1  0
 23 41  1  0
 24 42  1  0
 24 43  1  0
 24 44  1  0
M  END
>  <meeko>  (1) 
{"is_sidechain": [false], "free_energy": -8.031, "intermolecular_energy": -9.909, "internal_energy": -0.517}

$$$$
cand_051_out
     RDKit          3D

 44 46  0  0  0  0  0  0  0  0999 V2000
   75.4200   43.9010   -2.9670 C   0  0  0  0  0  0  0  0  0  0  0  0
   74.3280   43.0720   -3.5860 C   0  0  0  0  0  0  0  0  0  0  0  0
   73.5450   42.2550   -2.7500 C   0  0  0  0  0  0  0  0  0  0  0  0
   72.5110   41.4500   -3.2560 C   0  0  0  0  0  0  0  0  0  0  0  0
   71.7310   40.5900   -2.3410 C   0  0  0  0  0  0  0  0  0  0  0  0
   72.4820   39.5460   -1.8120 O   0  0  0  0  0  0  0  0  0  0  0  0
   71.8800   38.6690   -0.9450 C   0  0  0  0  0  0  0  0  0  0  0  0
   72.6670   37.6290   -0.4480 C   0  0  0  0  0  0  0  0  0  0  0  0
   72.1150   36.7020    0.4390 C   0  0  0  0  0  0  0  0  0  0  0  0
   70.7800   36.8150    0.8300 C   0  0  0  0  0  0  0  0  0  0  0  0
   69.9980   37.8550    0.3330 C   0  0  0  0  0  0  0  0  0  0  0  0
   68.6980   37.9070    0.7580 O   0  0  0  0  0  0  0  0  0  0  0  0
   70.5490   38.7820   -0.5560 C   0  0  0  0  0  0  0  0  0  0  0  0
   69.7620   39.8880   -1.1020 C   0  0  0  0  0  0  0  0  0  0  0  0
   68.5820   40.0590   -0.8000 O   0  0  0  0  0  0  0  0  0  0  0  0
   70.4380   40.8110   -2.0420 C   0  0  0  0  0  0  0  0  0  0  0  0
   69.6890   41.8610   -2.5410 O   0  0  0  0  0  0  0  0  0  0  0  0
   72.2810   41.4590   -4.6340 C   0  0  0  0  0  0  0  0  0  0  0  0
   73.0510   42.2620   -5.4790 C   0  0  0  0  0  0  0  0  0  0  0  0
   74.0760   43.0790   -4.9730 C   0  0  0  0  0  0  0  0  0  0  0  0
   74.8660   43.9270   -5.9500 C   0  0  0  0  0  0  0  0  0  0  0  0
   75.4760   43.1300   -7.1210 C   0  0  0  0  0  0  0  0  0  0  0  0
   76.6320   42.2640   -6.6120 C   0  0  0  0  0  0  0  0  0  0  0  0
   75.9730   44.0420   -8.2450 C   0  0  0  0  0  0  0  0  0  0  0  0
   75.3463   43.8450   -1.8709 H   0  0  0  0  0  0  0  0  0  0  0  0
   76.3992   43.5167   -3.2887 H   0  0  0  0  0  0  0  0  0  0  0  0
   75.3131   44.9474   -3.2887 H   0  0  0  0  0  0  0  0  0  0  0  0
   73.7484   42.2464   -1.6690 H   0  0  0  0  0  0  0  0  0  0  0  0
   73.7197   37.5396   -0.7542 H   0  0  0  0  0  0  0  0  0  0  0  0
   72.7338   35.8810    0.8303 H   0  0  0  0  0  0  0  0  0  0  0  0
   70.3465   36.0846    1.5289 H   0  0  0  0  0  0  0  0  0  0  0  0
   68.0500   38.3320    0.2320 H   0  0  0  0  0  0  0  0  0  0  0  0
   68.7550   41.8500   -2.4610 H   0  0  0  0  0  0  0  0  0  0  0  0
   71.4860   40.8278   -5.0577 H   0  0  0  0  0  0  0  0  0  0  0  0
   72.8511   42.2545   -6.5607 H   0  0  0  0  0  0  0  0  0  0  0  0
   74.1943   44.6927   -6.3654 H   0  0  0  0  0  0  0  0  0  0  0  0
   75.7063   44.3608   -5.3881 H   0  0  0  0  0  0  0  0  0  0  0  0
   74.6806   42.4937   -7.5363 H   0  0  0  0  0  0  0  0  0  0  0  0
   76.6329   42.2633   -5.5120 H   0  0  0  0  0  0  0  0  0  0  0  0
   76.5082   41.2345   -6.9792 H   0  0  0  0  0  0  0  0  0  0  0  0
   77.5852   42.6721   -6.9792 H   0  0  0  0  0  0  0  0  0  0  0  0
   76.4566   44.9293   -7.8105 H   0  0  0  0  0  0  0  0  0  0  0  0
   76.6985   43.4963   -8.8662 H   0  0  0  0  0  0  0  0  0  0  0  0
   75.1212   44.3559   -8.8662 H   0  0  0  0  0  0  0  0  0  0  0  0
  1  2  1  0
  2  3  2  0
  3  4  1  0
  4  5  1  0
  5  6  1  0
  6  7  1  0
  7  8  2  0
  8  9  1  0
  9 10  2  0
 10 11  1  0
 11 12  1  0
 11 13  2  0
 13 14  1  0
 14 15  2  0
 14 16  1  0
 16 17  1  0
  4 18  2  0
 18 19  1  0
 19 20  2  0
 20 21  1  0
 21 22  1  0
 22 23  1  0
 22 24  1  0
 20  2  1  0
 16  5  2  0
 13  7  1  0
  1 25  1  0
  1 26  1  0
  1 27  1  0
  3 28  1  0
  8 29  1  0
  9 30  1  0
 10 31  1  0
 12 32  1  0
 17 33  1  0
 18 34  1  0
 19 35  1  0
 21 36  1  0
 21 37  1  0
 22 38  1  0
 23 39  1  0
 23 40  1  0
 23 41  1  0
 24 42  1  0
 24 43  1  0
 24 44  1  0
M  END
>  <meeko>  (2) 
{"is_sidechain": [false], "free_energy": -7.799, "intermolecular_energy": -9.418, "internal_energy": -0.721}

$$$$
cand_051_out
     RDKit          3D

 44 46  0  0  0  0  0  0  0  0999 V2000
   76.0310   43.4540   -2.6850 C   0  0  0  0  0  0  0  0  0  0  0  0
   74.8350   42.7970   -3.3170 C   0  0  0  0  0  0  0  0  0  0  0  0
   74.0100   41.9840   -2.5150 C   0  0  0  0  0  0  0  0  0  0  0  0
   72.8790   41.3350   -3.0350 C   0  0  0  0  0  0  0  0  0  0  0  0
   72.0570   40.4720   -2.1610 C   0  0  0  0  0  0  0  0  0  0  0  0
   70.7090   40.8110   -2.1820 O   0  0  0  0  0  0  0  0  0  0  0  0
   69.8310   40.0900   -1.4140 C   0  0  0  0  0  0  0  0  0  0  0  0
   68.4890   40.4730   -1.4550 C   0  0  0  0  0  0  0  0  0  0  0  0
   67.5440   39.7780   -0.6970 C   0  0  0  0  0  0  0  0  0  0  0  0
   67.9380   38.7020    0.0990 C   0  0  0  0  0  0  0  0  0  0  0  0
   69.2770   38.3220    0.1380 C   0  0  0  0  0  0  0  0  0  0  0  0
   69.5940   37.2580    0.9380 O   0  0  0  0  0  0  0  0  0  0  0  0
   70.2240   39.0170   -0.6190 C   0  0  0  0  0  0  0  0  0  0  0  0
   71.6400   38.6500   -0.6080 C   0  0  0  0  0  0  0  0  0  0  0  0
   72.0630   37.7090    0.0620 O   0  0  0  0  0  0  0  0  0  0  0  0
   72.5630   39.4550   -1.4400 C   0  0  0  0  0  0  0  0  0  0  0  0
   73.8970   39.0910   -1.4310 O   0  0  0  0  0  0  0  0  0  0  0  0
   72.5900   41.4950   -4.3930 C   0  0  0  0  0  0  0  0  0  0  0  0
   73.3990   42.2960   -5.2030 C   0  0  0  0  0  0  0  0  0  0  0  0
   74.5230   42.9580   -4.6810 C   0  0  0  0  0  0  0  0  0  0  0  0
   75.3510   43.8140   -5.6200 C   0  0  0  0  0  0  0  0  0  0  0  0
   75.9730   43.0320   -6.7960 C   0  0  0  0  0  0  0  0  0  0  0  0
   77.0310   42.0590   -6.2690 C   0  0  0  0  0  0  0  0  0  0  0  0
   76.6010   43.9600   -7.8390 C   0  0  0  0  0  0  0  0  0  0  0  0
   75.9406   43.4043   -1.5898 H   0  0  0  0  0  0  0  0  0  0  0  0
   76.9460   42.9319   -3.0014 H   0  0  0  0  0  0  0  0  0  0  0  0
   76.0812   44.5063   -3.0014 H   0  0  0  0  0  0  0  0  0  0  0  0
   74.2591   41.8541   -1.4515 H   0  0  0  0  0  0  0  0  0  0  0  0
   68.1766   41.3204   -2.0830 H   0  0  0  0  0  0  0  0  0  0  0  0
   66.4866   40.0796   -0.7276 H   0  0  0  0  0  0  0  0  0  0  0  0
   67.1923   38.1550    0.6946 H   0  0  0  0  0  0  0  0  0  0  0  0
   69.7930   36.4260    0.5560 H   0  0  0  0  0  0  0  0  0  0  0  0
   74.5620   39.7480   -1.3580 H   0  0  0  0  0  0  0  0  0  0  0  0
   71.7176   40.9856   -4.8282 H   0  0  0  0  0  0  0  0  0  0  0  0
   73.1515   42.4104   -6.2687 H   0  0  0  0  0  0  0  0  0  0  0  0
   74.7032   44.6017   -6.0322 H   0  0  0  0  0  0  0  0  0  0  0  0
   76.1859   44.2191   -5.0294 H   0  0  0  0  0  0  0  0  0  0  0  0
   75.1616   42.4772   -7.2898 H   0  0  0  0  0  0  0  0  0  0  0  0
   77.0216   42.0676   -5.1691 H   0  0  0  0  0  0  0  0  0  0  0  0
   76.8078   41.0440   -6.6296 H   0  0  0  0  0  0  0  0  0  0  0  0
   78.0238   42.3662   -6.6296 H   0  0  0  0  0  0  0  0  0  0  0  0
   77.1474   44.7675   -7.3297 H   0  0  0  0  0  0  0  0  0  0  0  0
   77.2972   43.3863   -8.4684 H   0  0  0  0  0  0  0  0  0  0  0  0
   75.8096   44.3930   -8.4684 H   0  0  0  0  0  0  0  0  0  0  0  0
  1  2  1  0
  2  3  2  0
  3  4  1  0
  4  5  1  0
  5  6  1  0
  6  7  1  0
  7  8  2  0
  8  9  1  0
  9 10  2  0
 10 11  1  0
 11 12  1  0
 11 13  2  0
 13 14  1  0
 14 15  2  0
 14 16  1  0
 16 17  1  0
  4 18  2  0
 18 19  1  0
 19 20  2  0
 20 21  1  0
 21 22  1  0
 22 23  1  0
 22 24  1  0
 20  2  1  0
 16  5  2  0
 13  7  1  0
  1 25  1  0
  1 26  1  0
  1 27  1  0
  3 28  1  0
  8 29  1  0
  9 30  1  0
 10 31  1  0
 12 32  1  0
 17 33  1  0
 18 34  1  0
 19 35  1  0
 21 36  1  0
 21 37  1  0
 22 38  1  0
 23 39  1  0
 23 40  1  0
 23 41  1  0
 24 42  1  0
 24 43  1  0
 24 44  1  0
M  END
>  <meeko>  (3) 
{"is_sidechain": [false], "free_energy": -7.676, "intermolecular_energy": -9.425, "internal_energy": -0.563}

$$$$
cand_051_out
     RDKit          3D

 44 46  0  0  0  0  0  0  0  0999 V2000
   72.5910   38.6130   -2.8810 C   0  0  0  0  0  0  0  0  0  0  0  0
   71.7400   39.6790   -2.2490 C   0  0  0  0  0  0  0  0  0  0  0  0
   70.9610   40.5030   -3.0830 C   0  0  0  0  0  0  0  0  0  0  0  0
   70.1450   41.5220   -2.5660 C   0  0  0  0  0  0  0  0  0  0  0  0
   69.3640   42.3790   -3.4840 C   0  0  0  0  0  0  0  0  0  0  0  0
   70.1340   43.3680   -4.0840 O   0  0  0  0  0  0  0  0  0  0  0  0
   69.5330   44.2360   -4.9610 C   0  0  0  0  0  0  0  0  0  0  0  0
   70.3400   45.2220   -5.5310 C   0  0  0  0  0  0  0  0  0  0  0  0
   69.7910   46.1350   -6.4330 C   0  0  0  0  0  0  0  0  0  0  0  0
   68.4380   46.0640   -6.7660 C   0  0  0  0  0  0  0  0  0  0  0  0
   67.6350   45.0780   -6.1970 C   0  0  0  0  0  0  0  0  0  0  0  0
   66.3180   45.0640   -6.5680 O   0  0  0  0  0  0  0  0  0  0  0  0
   68.1830   44.1640   -5.2930 C   0  0  0  0  0  0  0  0  0  0  0  0
   67.3760   43.1140   -4.6730 C   0  0  0  0  0  0  0  0  0  0  0  0
   66.1790   42.9810   -4.9220 O   0  0  0  0  0  0  0  0  0  0  0  0
   68.0520   42.2000   -3.7230 C   0  0  0  0  0  0  0  0  0  0  0  0
   67.2820   41.2030   -3.1530 O   0  0  0  0  0  0  0  0  0  0  0  0
   70.1330   41.7220   -1.1840 C   0  0  0  0  0  0  0  0  0  0  0  0
   70.9010   40.9150   -0.3410 C   0  0  0  0  0  0  0  0  0  0  0  0
   71.7070   39.8850   -0.8560 C   0  0  0  0  0  0  0  0  0  0  0  0
   72.5100   39.0470    0.1200 C   0  0  0  0  0  0  0  0  0  0  0  0
   71.7490   37.8220    0.6690 C   0  0  0  0  0  0  0  0  0  0  0  0
   72.3560   36.5380    0.0980 C   0  0  0  0  0  0  0  0  0  0  0  0
   70.2550   37.8760    0.3410 C   0  0  0  0  0  0  0  0  0  0  0  0
   73.0706   38.0123   -2.0942 H   0  0  0  0  0  0  0  0  0  0  0  0
   71.9607   37.9630   -3.5056 H   0  0  0  0  0  0  0  0  0  0  0  0
   73.3645   39.0837   -3.5056 H   0  0  0  0  0  0  0  0  0  0  0  0
   70.9924   40.3441   -4.1710 H   0  0  0  0  0  0  0  0  0  0  0  0
   71.4070   45.2795   -5.2698 H   0  0  0  0  0  0  0  0  0  0  0  0
   70.4266   46.9123   -6.8823 H   0  0  0  0  0  0  0  0  0  0  0  0
   68.0064   46.7848   -7.4761 H   0  0  0  0  0  0  0  0  0  0  0  0
   66.0390   45.5410   -7.3240 H   0  0  0  0  0  0  0  0  0  0  0  0
   67.6800   40.3960   -2.8900 H   0  0  0  0  0  0  0  0  0  0  0  0
   69.5128   42.5228   -0.7550 H   0  0  0  0  0  0  0  0  0  0  0  0
   70.8745   41.0887    0.7449 H   0  0  0  0  0  0  0  0  0  0  0  0
   73.4152   38.6904   -0.3934 H   0  0  0  0  0  0  0  0  0  0  0  0
   72.7381   39.6923    0.9811 H   0  0  0  0  0  0  0  0  0  0  0  0
   71.8494   37.8332    1.7644 H   0  0  0  0  0  0  0  0  0  0  0  0
   72.6667   35.8807    0.9235 H   0  0  0  0  0  0  0  0  0  0  0  0
   71.6067   36.0214   -0.5199 H   0  0  0  0  0  0  0  0  0  0  0  0
   73.2307   36.7892   -0.5199 H   0  0  0  0  0  0  0  0  0  0  0  0
   69.6750   37.8970    1.2754 H   0  0  0  0  0  0  0  0  0  0  0  0
   70.0406   38.7825   -0.2441 H   0  0  0  0  0  0  0  0  0  0  0  0
   69.9757   36.9874   -0.2441 H   0  0  0  0  0  0  0  0  0  0  0  0
  1  2  1  0
  2  3  2  0
  3  4  1  0
  4  5  1  0
  5  6  1  0
  6  7  1  0
  7  8  2  0
  8  9  1  0
  9 10  2  0
 10 11  1  0
 11 12  1  0
 11 13  2  0
 13 14  1  0
 14 15  2  0
 14 16  1  0
 16 17  1  0
  4 18  2  0
 18 19  1  0
 19 20  2  0
 20 21  1  0
 21 22  1  0
 22 23  1  0
 22 24  1  0
 20  2  1  0
 16  5  2  0
 13  7  1  0
  1 25  1  0
  1 26  1  0
  1 27  1  0
  3 28  1  0
  8 29  1  0
  9 30  1  0
 10 31  1  0
 12 32  1  0
 17 33  1  0
 18 34  1  0
 19 35  1  0
 21 36  1  0
 21 37  1  0
 22 38  1  0
 23 39  1  0
 23 40  1  0
 23 41  1  0
 24 42  1  0
 24 43  1  0
 24 44  1  0
M  END
>  <meeko>  (4) 
{"is_sidechain": [false], "free_energy": -7.662, "intermolecular_energy": -9.44, "internal_energy": -0.532}

$$$$
cand_051_out
     RDKit          3D

 44 46  0  0  0  0  0  0  0  0999 V2000
   72.5470   38.5420   -2.4050 C   0  0  0  0  0  0  0  0  0  0  0  0
   71.7790   39.7720   -2.0070 C   0  0  0  0  0  0  0  0  0  0  0  0
   71.4340   40.7040   -3.0040 C   0  0  0  0  0  0  0  0  0  0  0  0
   70.7220   41.8770   -2.7080 C   0  0  0  0  0  0  0  0  0  0  0  0
   70.4040   42.8380   -3.7850 C   0  0  0  0  0  0  0  0  0  0  0  0
   69.0870   42.7450   -4.2190 O   0  0  0  0  0  0  0  0  0  0  0  0
   68.6560   43.5810   -5.2180 C   0  0  0  0  0  0  0  0  0  0  0  0
   67.3310   43.4440   -5.6330 C   0  0  0  0  0  0  0  0  0  0  0  0
   66.8290   44.2660   -6.6440 C   0  0  0  0  0  0  0  0  0  0  0  0
   67.6500   45.2240   -7.2400 C   0  0  0  0  0  0  0  0  0  0  0  0
   68.9730   45.3600   -6.8230 C   0  0  0  0  0  0  0  0  0  0  0  0
   69.7220   46.3190   -7.4480 O   0  0  0  0  0  0  0  0  0  0  0  0
   69.4760   44.5370   -5.8120 C   0  0  0  0  0  0  0  0  0  0  0  0
   70.8580   44.6460   -5.3450 C   0  0  0  0  0  0  0  0  0  0  0  0
   71.6400   45.4710   -5.8150 O   0  0  0  0  0  0  0  0  0  0  0  0
   71.2940   43.7210   -4.2730 C   0  0  0  0  0  0  0  0  0  0  0  0
   72.5980   43.8430   -3.8300 O   0  0  0  0  0  0  0  0  0  0  0  0
   70.3720   42.1200   -1.3770 C   0  0  0  0  0  0  0  0  0  0  0  0
   70.7070   41.2070   -0.3750 C   0  0  0  0  0  0  0  0  0  0  0  0
   71.4070   40.0250   -0.6710 C   0  0  0  0  0  0  0  0  0  0  0  0
   71.7330   39.0790    0.4680 C   0  0  0  0  0  0  0  0  0  0  0  0
   70.5310   38.2410    0.9510 C   0  0  0  0  0  0  0  0  0  0  0  0
   70.8690   36.7510    0.8570 C   0  0  0  0  0  0  0  0  0  0  0  0
   69.2630   38.5320    0.1460 C   0  0  0  0  0  0  0  0  0  0  0  0
   72.8796   38.0092   -1.5019 H   0  0  0  0  0  0  0  0  0  0  0  0
   71.8997   37.8828   -3.0021 H   0  0  0  0  0  0  0  0  0  0  0  0
   73.4234   38.8342   -3.0021 H   0  0  0  0  0  0  0  0  0  0  0  0
   71.7308   40.5075   -4.0448 H   0  0  0  0  0  0  0  0  0  0  0  0
   66.6825   42.6892   -5.1642 H   0  0  0  0  0  0  0  0  0  0  0  0
   65.7844   44.1581   -6.9712 H   0  0  0  0  0  0  0  0  0  0  0  0
   67.2540   45.8704   -8.0371 H   0  0  0  0  0  0  0  0  0  0  0  0
   69.7700   46.3410   -8.3840 H   0  0  0  0  0  0  0  0  0  0  0  0
   73.3080   43.5870   -4.3870 H   0  0  0  0  0  0  0  0  0  0  0  0
   69.8273   43.0394   -1.1162 H   0  0  0  0  0  0  0  0  0  0  0  0
   70.4176   41.4169    0.6653 H   0  0  0  0  0  0  0  0  0  0  0  0
   72.5216   38.3903    0.1307 H   0  0  0  0  0  0  0  0  0  0  0  0
   72.0493   39.7013    1.3181 H   0  0  0  0  0  0  0  0  0  0  0  0
   70.3324   38.5196    1.9964 H   0  0  0  0  0  0  0  0  0  0  0  0
   70.9641   36.3320    1.8696 H   0  0  0  0  0  0  0  0  0  0  0  0
   70.0670   36.2264    0.3169 H   0  0  0  0  0  0  0  0  0  0  0  0
   71.8188   36.6238    0.3169 H   0  0  0  0  0  0  0  0  0  0  0  0
   68.4272   38.7238    0.8350 H   0  0  0  0  0  0  0  0  0  0  0  0
   69.4259   39.4161   -0.4879 H   0  0  0  0  0  0  0  0  0  0  0  0
   69.0241   37.6653   -0.4879 H   0  0  0  0  0  0  0  0  0  0  0  0
  1  2  1  0
  2  3  2  0
  3  4  1  0
  4  5  1  0
  5  6  1  0
  6  7  1  0
  7  8  2  0
  8  9  1  0
  9 10  2  0
 10 11  1  0
 11 12  1  0
 11 13  2  0
 13 14  1  0
 14 15  2  0
 14 16  1  0
 16 17  1  0
  4 18  2  0
 18 19  1  0
 19 20  2  0
 20 21  1  0
 21 22  1  0
 22 23  1  0
 22 24  1  0
 20  2  1  0
 16  5  2  0
 13  7  1  0
  1 25  1  0
  1 26  1  0
  1 27  1  0
  3 28  1  0
  8 29  1  0
  9 30  1  0
 10 31  1  0
 12 32  1  0
 17 33  1  0
 18 34  1  0
 19 35  1  0
 21 36  1  0
 21 37  1  0
 22 38  1  0
 23 39  1  0
 23 40  1  0
 23 41  1  0
 24 42  1  0
 24 43  1  0
 24 44  1  0
M  END
>  <meeko>  (5) 
{"is_sidechain": [false], "free_energy": -7.584, "intermolecular_energy": -9.437, "internal_energy": -0.438}

$$$$
cand_051_out
     RDKit          3D

 44 46  0  0  0  0  0  0  0  0999 V2000
   73.5370   42.5750   -6.5060 C   0  0  0  0  0  0  0  0  0  0  0  0
   73.8160   42.4320   -5.0350 C   0  0  0  0  0  0  0  0  0  0  0  0
   72.9450   41.6470   -4.2560 C   0  0  0  0  0  0  0  0  0  0  0  0
   73.1390   41.4710   -2.8770 C   0  0  0  0  0  0  0  0  0  0  0  0
   72.1840   40.6570   -2.0960 C   0  0  0  0  0  0  0  0  0  0  0  0
   72.7800   39.5520   -1.4980 O   0  0  0  0  0  0  0  0  0  0  0  0
   72.0060   38.7090   -0.7420 C   0  0  0  0  0  0  0  0  0  0  0  0
   72.6420   37.6050   -0.1710 C   0  0  0  0  0  0  0  0  0  0  0  0
   71.9120   36.7090    0.6120 C   0  0  0  0  0  0  0  0  0  0  0  0
   70.5480   36.9150    0.8250 C   0  0  0  0  0  0  0  0  0  0  0  0
   69.9160   38.0170    0.2550 C   0  0  0  0  0  0  0  0  0  0  0  0
   68.5780   38.1600    0.5050 O   0  0  0  0  0  0  0  0  0  0  0  0
   70.6460   38.9140   -0.5290 C   0  0  0  0  0  0  0  0  0  0  0  0
   70.0210   40.0850   -1.1460 C   0  0  0  0  0  0  0  0  0  0  0  0
   68.8270   40.3390   -0.9980 O   0  0  0  0  0  0  0  0  0  0  0  0
   70.8820   40.9690   -1.9650 C   0  0  0  0  0  0  0  0  0  0  0  0
   70.2830   42.0790   -2.5320 O   0  0  0  0  0  0  0  0  0  0  0  0
   74.2210   42.1170   -2.2730 C   0  0  0  0  0  0  0  0  0  0  0  0
   75.0940   42.9010   -3.0310 C   0  0  0  0  0  0  0  0  0  0  0  0
   74.9100   43.0670   -4.4140 C   0  0  0  0  0  0  0  0  0  0  0  0
   75.9000   43.9300   -5.1710 C   0  0  0  0  0  0  0  0  0  0  0  0
   77.3000   43.2980   -5.3160 C   0  0  0  0  0  0  0  0  0  0  0  0
   78.2630   44.3110   -5.9430 C   0  0  0  0  0  0  0  0  0  0  0  0
   77.2740   42.0230   -6.1620 C   0  0  0  0  0  0  0  0  0  0  0  0
   72.5663   43.0725   -6.6484 H   0  0  0  0  0  0  0  0  0  0  0  0
   74.3300   43.1778   -6.9727 H   0  0  0  0  0  0  0  0  0  0  0  0
   73.5106   41.5793   -6.9727 H   0  0  0  0  0  0  0  0  0  0  0  0
   72.0880   41.1576   -4.7418 H   0  0  0  0  0  0  0  0  0  0  0  0
   73.7169   37.4414   -0.3379 H   0  0  0  0  0  0  0  0  0  0  0  0
   72.4127   35.8390    1.0620 H   0  0  0  0  0  0  0  0  0  0  0  0
   69.9736   36.2082    1.4419 H   0  0  0  0  0  0  0  0  0  0  0  0
   68.1920   39.0130    0.5200 H   0  0  0  0  0  0  0  0  0  0  0  0
   69.5370   41.9760   -3.0890 H   0  0  0  0  0  0  0  0  0  0  0  0
   74.3867   42.0072   -1.1911 H   0  0  0  0  0  0  0  0  0  0  0  0
   75.9414   43.3977   -2.5358 H   0  0  0  0  0  0  0  0  0  0  0  0
   75.4981   44.1155   -6.1780 H   0  0  0  0  0  0  0  0  0  0  0  0
   76.0267   44.8547   -4.5889 H   0  0  0  0  0  0  0  0  0  0  0  0
   77.6434   43.0219   -4.3081 H   0  0  0  0  0  0  0  0  0  0  0  0
   78.7860   44.8611   -5.1468 H   0  0  0  0  0  0  0  0  0  0  0  0
   78.9982   43.7808   -6.5662 H   0  0  0  0  0  0  0  0  0  0  0  0
   77.6963   45.0185   -6.5662 H   0  0  0  0  0  0  0  0  0  0  0  0
   77.2561   41.1443   -5.5005 H   0  0  0  0  0  0  0  0  0  0  0  0
   76.3757   42.0224   -6.7968 H   0  0  0  0  0  0  0  0  0  0  0  0
   78.1716   41.9858   -6.7968 H   0  0  0  0  0  0  0  0  0  0  0  0
  1  2  1  0
  2  3  2  0
  3  4  1  0
  4  5  1  0
  5  6  1  0
  6  7  1  0
  7  8  2  0
  8  9  1  0
  9 10  2  0
 10 11  1  0
 11 12  1  0
 11 13  2  0
 13 14  1  0
 14 15  2  0
 14 16  1  0
 16 17  1  0
  4 18  2  0
 18 19  1  0
 19 20  2  0
 20 21  1  0
 21 22  1  0
 22 23  1  0
 22 24  1  0
 20  2  1  0
 16  5  2  0
 13  7  1  0
  1 25  1  0
  1 26  1  0
  1 27  1  0
  3 28  1  0
  8 29  1  0
  9 30  1  0
 10 31  1  0
 12 32  1  0
 17 33  1  0
 18 34  1  0
 19 35  1  0
 21 36  1  0
 21 37  1  0
 22 38  1  0
 23 39  1  0
 23 40  1  0
 23 41  1  0
 24 42  1  0
 24 43  1  0
 24 44  1  0
M  END
>  <meeko>  (6) 
{"is_sidechain": [false], "free_energy": -7.477, "intermolecular_energy": -9.103, "internal_energy": -0.639}

$$$$
cand_051_out
     RDKit          3D

 44 46  0  0  0  0  0  0  0  0999 V2000
   69.9580   41.7930   -0.5640 C   0  0  0  0  0  0  0  0  0  0  0  0
   71.2610   41.2670   -1.1010 C   0  0  0  0  0  0  0  0  0  0  0  0
   71.8620   41.9330   -2.1860 C   0  0  0  0  0  0  0  0  0  0  0  0
   73.0740   41.4980   -2.7430 C   0  0  0  0  0  0  0  0  0  0  0  0
   73.6550   42.2160   -3.8980 C   0  0  0  0  0  0  0  0  0  0  0  0
   74.5570   43.2040   -3.5200 O   0  0  0  0  0  0  0  0  0  0  0  0
   75.1700   43.9500   -4.4950 C   0  0  0  0  0  0  0  0  0  0  0  0
   76.0580   44.9400   -4.0710 C   0  0  0  0  0  0  0  0  0  0  0  0
   76.7170   45.7330   -5.0130 C   0  0  0  0  0  0  0  0  0  0  0  0
   76.4920   45.5360   -6.3760 C   0  0  0  0  0  0  0  0  0  0  0  0
   75.6060   44.5460   -6.7960 C   0  0  0  0  0  0  0  0  0  0  0  0
   75.4320   44.4060   -8.1460 O   0  0  0  0  0  0  0  0  0  0  0  0
   74.9450   43.7530   -5.8540 C   0  0  0  0  0  0  0  0  0  0  0  0
   74.0080   42.7030   -6.2530 C   0  0  0  0  0  0  0  0  0  0  0  0
   73.7620   42.4640   -7.4340 O   0  0  0  0  0  0  0  0  0  0  0  0
   73.3530   41.9240   -5.1760 C   0  0  0  0  0  0  0  0  0  0  0  0
   72.4790   40.9250   -5.5650 O   0  0  0  0  0  0  0  0  0  0  0  0
   73.6780   40.3580   -2.2060 C   0  0  0  0  0  0  0  0  0  0  0  0
   73.0950   39.6840   -1.1310 C   0  0  0  0  0  0  0  0  0  0  0  0
   71.8880   40.1260   -0.5620 C   0  0  0  0  0  0  0  0  0  0  0  0
   71.3170   39.3450    0.6050 C   0  0  0  0  0  0  0  0  0  0  0  0
   70.4980   38.1050    0.1900 C   0  0  0  0  0  0  0  0  0  0  0  0
   69.0040   38.4360    0.2260 C   0  0  0  0  0  0  0  0  0  0  0  0
   70.7790   36.8990    1.0880 C   0  0  0  0  0  0  0  0  0  0  0  0
   69.9837   41.7826    0.5357 H   0  0  0  0  0  0  0  0  0  0  0  0
   69.8049   42.8233   -0.9175 H   0  0  0  0  0  0  0  0  0  0  0  0
   69.1325   41.1577   -0.9175 H   0  0  0  0  0  0  0  0  0  0  0  0
   71.3672   42.8197   -2.6091 H   0  0  0  0  0  0  0  0  0  0  0  0
   76.2384   45.0953   -2.9971 H   0  0  0  0  0  0  0  0  0  0  0  0
   77.4152   46.5149   -4.6796 H   0  0  0  0  0  0  0  0  0  0  0  0
   77.0127   46.1606   -7.1168 H   0  0  0  0  0  0  0  0  0  0  0  0
   74.5800   44.2330   -8.4930 H   0  0  0  0  0  0  0  0  0  0  0  0
   71.9880   41.0150   -6.3580 H   0  0  0  0  0  0  0  0  0  0  0  0
   74.6214   39.9882   -2.6341 H   0  0  0  0  0  0  0  0  0  0  0  0
   73.5894   38.7906   -0.7218 H   0  0  0  0  0  0  0  0  0  0  0  0
   72.1515   39.0118    1.2395 H   0  0  0  0  0  0  0  0  0  0  0  0
   70.6270   40.0201    1.1324 H   0  0  0  0  0  0  0  0  0  0  0  0
   70.8020   37.8359   -0.8323 H   0  0  0  0  0  0  0  0  0  0  0  0
   68.6699   38.5100    1.2714 H   0  0  0  0  0  0  0  0  0  0  0  0
   68.8285   39.3948   -0.2838 H   0  0  0  0  0  0  0  0  0  0  0  0
   68.4399   37.6410   -0.2838 H   0  0  0  0  0  0  0  0  0  0  0  0
   70.7082   37.2029    2.1428 H   0  0  0  0  0  0  0  0  0  0  0  0
   70.0407   36.1096    0.8835 H   0  0  0  0  0  0  0  0  0  0  0  0
   71.7902   36.5172    0.8835 H   0  0  0  0  0  0  0  0  0  0  0  0
  1  2  1  0
  2  3  2  0
  3  4  1  0
  4  5  1  0
  5  6  1  0
  6  7  1  0
  7  8  2  0
  8  9  1  0
  9 10  2  0
 10 11  1  0
 11 12  1  0
 11 13  2  0
 13 14  1  0
 14 15  2  0
 14 16  1  0
 16 17  1  0
  4 18  2  0
 18 19  1  0
 19 20  2  0
 20 21  1  0
 21 22  1  0
 22 23  1  0
 22 24  1  0
 20  2  1  0
 16  5  2  0
 13  7  1  0
  1 25  1  0
  1 26  1  0
  1 27  1  0
  3 28  1  0
  8 29  1  0
  9 30  1  0
 10 31  1  0
 12 32  1  0
 17 33  1  0
 18 34  1  0
 19 35  1  0
 21 36  1  0
 21 37  1  0
 22 38  1  0
 23 39  1  0
 23 40  1  0
 23 41  1  0
 24 42  1  0
 24 43  1  0
 24 44  1  0
M  END
>  <meeko>  (7) 
{"is_sidechain": [false], "free_energy": -7.44, "intermolecular_energy": -8.97, "internal_energy": -0.726}

$$$$
cand_051_out
     RDKit          3D

 44 46  0  0  0  0  0  0  0  0999 V2000
   73.7340   45.7300   -3.3080 C   0  0  0  0  0  0  0  0  0  0  0  0
   73.3840   44.3820   -3.8750 C   0  0  0  0  0  0  0  0  0  0  0  0
   73.0140   43.3520   -2.9890 C   0  0  0  0  0  0  0  0  0  0  0  0
   72.6780   42.0670   -3.4440 C   0  0  0  0  0  0  0  0  0  0  0  0
   72.3190   41.0110   -2.4740 C   0  0  0  0  0  0  0  0  0  0  0  0
   70.9520   40.9460   -2.2300 O   0  0  0  0  0  0  0  0  0  0  0  0
   70.4800   40.0080   -1.3470 C   0  0  0  0  0  0  0  0  0  0  0  0
   69.1020   39.9860   -1.1220 C   0  0  0  0  0  0  0  0  0  0  0  0
   68.5570   39.0540   -0.2360 C   0  0  0  0  0  0  0  0  0  0  0  0
   69.3860   38.1450    0.4230 C   0  0  0  0  0  0  0  0  0  0  0  0
   70.7600   38.1690    0.1960 C   0  0  0  0  0  0  0  0  0  0  0  0
   71.5140   37.2510    0.8740 O   0  0  0  0  0  0  0  0  0  0  0  0
   71.3070   39.1020   -0.6900 C   0  0  0  0  0  0  0  0  0  0  0  0
   72.7440   39.1610   -0.9560 C   0  0  0  0  0  0  0  0  0  0  0  0
   73.5380   38.3890   -0.4210 O   0  0  0  0  0  0  0  0  0  0  0  0
   73.2230   40.1920   -1.9060 C   0  0  0  0  0  0  0  0  0  0  0  0
   74.5810   40.2290   -2.1610 O   0  0  0  0  0  0  0  0  0  0  0  0
   72.7380   41.8150   -4.8170 C   0  0  0  0  0  0  0  0  0  0  0  0
   73.1060   42.8240   -5.7100 C   0  0  0  0  0  0  0  0  0  0  0  0
   73.4280   44.1150   -5.2580 C   0  0  0  0  0  0  0  0  0  0  0  0
   73.8140   45.1600   -6.2870 C   0  0  0  0  0  0  0  0  0  0  0  0
   75.1380   44.8600   -7.0190 C   0  0  0  0  0  0  0  0  0  0  0  0
   76.2120   45.8580   -6.5780 C   0  0  0  0  0  0  0  0  0  0  0  0
   74.9810   44.9120   -8.5410 C   0  0  0  0  0  0  0  0  0  0  0  0
   73.7211   45.6802   -2.2092 H   0  0  0  0  0  0  0  0  0  0  0  0
   74.7378   46.0222   -3.6500 H   0  0  0  0  0  0  0  0  0  0  0  0
   72.9992   46.4737   -3.6500 H   0  0  0  0  0  0  0  0  0  0  0  0
   72.9874   43.5602   -1.9092 H   0  0  0  0  0  0  0  0  0  0  0  0
   68.4472   40.7011   -1.6414 H   0  0  0  0  0  0  0  0  0  0  0  0
   67.4718   39.0364   -0.0572 H   0  0  0  0  0  0  0  0  0  0  0  0
   68.9552   37.4112    1.1201 H   0  0  0  0  0  0  0  0  0  0  0  0
   71.4120   37.1530    1.8000 H   0  0  0  0  0  0  0  0  0  0  0  0
   75.1640   39.6790   -1.6760 H   0  0  0  0  0  0  0  0  0  0  0  0
   72.4931   40.8126   -5.1982 H   0  0  0  0  0  0  0  0  0  0  0  0
   73.1445   42.6040   -6.7871 H   0  0  0  0  0  0  0  0  0  0  0  0
   73.0107   45.2212   -7.0360 H   0  0  0  0  0  0  0  0  0  0  0  0
   73.9582   46.1049   -5.7426 H   0  0  0  0  0  0  0  0  0  0  0  0
   75.4396   43.8369   -6.7500 H   0  0  0  0  0  0  0  0  0  0  0  0
   76.2504   45.8937   -5.4792 H   0  0  0  0  0  0  0  0  0  0  0  0
   77.1900   45.5408   -6.9689 H   0  0  0  0  0  0  0  0  0  0  0  0
   75.9673   46.8566   -6.9689 H   0  0  0  0  0  0  0  0  0  0  0  0
   73.9647   45.2486   -8.7935 H   0  0  0  0  0  0  0  0  0  0  0  0
   75.7152   45.6150   -8.9615 H   0  0  0  0  0  0  0  0  0  0  0  0
   75.1504   43.9098   -8.9615 H   0  0  0  0  0  0  0  0  0  0  0  0
  1  2  1  0
  2  3  2  0
  3  4  1  0
  4  5  1  0
  5  6  1  0
  6  7  1  0
  7  8  2  0
  8  9  1  0
  9 10  2  0
 10 11  1  0
 11 12  1  0
 11 13  2  0
 13 14  1  0
 14 15  2  0
 14 16  1  0
 16 17  1  0
  4 18  2  0
 18 19  1  0
 19 20  2  0
 20 21  1  0
 21 22  1  0
 22 23  1  0
 22 24  1  0
 20  2  1  0
 16  5  2  0
 13  7  1  0
  1 25  1  0
  1 26  1  0
  1 27  1  0
  3 28  1  0
  8 29  1  0
  9 30  1  0
 10 31  1  0
 12 32  1  0
 17 33  1  0
 18 34  1  0
 19 35  1  0
 21 36  1  0
 21 37  1  0
 22 38  1  0
 23 39  1  0
 23 40  1  0
 23 41  1  0
 24 42  1  0
 24 43  1  0
 24 44  1  0
M  END
>  <meeko>  (8) 
{"is_sidechain": [false], "free_energy": -7.405, "intermolecular_energy": -8.901, "internal_energy": -0.753}

$$$$
cand_051_out
     RDKit          3D

 44 46  0  0  0  0  0  0  0  0999 V2000
   73.7730   45.5770   -3.2870 C   0  0  0  0  0  0  0  0  0  0  0  0
   73.7430   44.0950   -3.0380 C   0  0  0  0  0  0  0  0  0  0  0  0
   72.4970   43.4690   -2.8420 C   0  0  0  0  0  0  0  0  0  0  0  0
   72.3900   42.0900   -2.6000 C   0  0  0  0  0  0  0  0  0  0  0  0
   71.0610   41.4810   -2.3760 C   0  0  0  0  0  0  0  0  0  0  0  0
   71.0180   40.6870   -1.2360 O   0  0  0  0  0  0  0  0  0  0  0  0
   69.8420   40.0600   -0.9100 C   0  0  0  0  0  0  0  0  0  0  0  0
   69.8460   39.2610    0.2350 C   0  0  0  0  0  0  0  0  0  0  0  0
   68.6810   38.5970    0.6250 C   0  0  0  0  0  0  0  0  0  0  0  0
   67.5130   38.7310   -0.1280 C   0  0  0  0  0  0  0  0  0  0  0  0
   67.5120   39.5290   -1.2700 C   0  0  0  0  0  0  0  0  0  0  0  0
   66.3340   39.6170   -1.9600 O   0  0  0  0  0  0  0  0  0  0  0  0
   68.6770   40.1930   -1.6600 C   0  0  0  0  0  0  0  0  0  0  0  0
   68.7190   41.0410   -2.8520 C   0  0  0  0  0  0  0  0  0  0  0  0
   67.7300   41.2150   -3.5620 O   0  0  0  0  0  0  0  0  0  0  0  0
   70.0060   41.6950   -3.1830 C   0  0  0  0  0  0  0  0  0  0  0  0
   70.0300   42.5050   -4.3040 O   0  0  0  0  0  0  0  0  0  0  0  0
   73.5650   41.3370   -2.5340 C   0  0  0  0  0  0  0  0  0  0  0  0
   74.8090   41.9420   -2.7240 C   0  0  0  0  0  0  0  0  0  0  0  0
   74.9180   43.3190   -2.9810 C   0  0  0  0  0  0  0  0  0  0  0  0
   76.3020   43.9050   -3.1800 C   0  0  0  0  0  0  0  0  0  0  0  0
   77.0330   43.3760   -4.4310 C   0  0  0  0  0  0  0  0  0  0  0  0
   78.4190   44.0190   -4.5330 C   0  0  0  0  0  0  0  0  0  0  0  0
   76.2470   43.6430   -5.7170 C   0  0  0  0  0  0  0  0  0  0  0  0
   73.7838   46.1103   -2.3250 H   0  0  0  0  0  0  0  0  0  0  0  0
   74.6765   45.8345   -3.8591 H   0  0  0  0  0  0  0  0  0  0  0  0
   72.8806   45.8708   -3.8591 H   0  0  0  0  0  0  0  0  0  0  0  0
   71.5815   44.0776   -2.8795 H   0  0  0  0  0  0  0  0  0  0  0  0
   70.7656   39.1547    0.8291 H   0  0  0  0  0  0  0  0  0  0  0  0
   68.6836   37.9674    1.5270 H   0  0  0  0  0  0  0  0  0  0  0  0
   66.5957   38.2077    0.1797 H   0  0  0  0  0  0  0  0  0  0  0  0
   66.2320   40.2600   -2.6330 H   0  0  0  0  0  0  0  0  0  0  0  0
   69.3470   43.1310   -4.4440 H   0  0  0  0  0  0  0  0  0  0  0  0
   73.5096   40.2574   -2.3304 H   0  0  0  0  0  0  0  0  0  0  0  0
   75.7209   41.3290   -2.6715 H   0  0  0  0  0  0  0  0  0  0  0  0
   76.2055   44.9969   -3.2716 H   0  0  0  0  0  0  0  0  0  0  0  0
   76.9032   43.6046   -2.3091 H   0  0  0  0  0  0  0  0  0  0  0  0
   77.1287   42.2858   -4.3196 H   0  0  0  0  0  0  0  0  0  0  0  0
   78.8135   44.2020   -3.5226 H   0  0  0  0  0  0  0  0  0  0  0  0
   79.0975   43.3437   -5.0748 H   0  0  0  0  0  0  0  0  0  0  0  0
   78.3416   44.9732   -5.0748 H   0  0  0  0  0  0  0  0  0  0  0  0
   75.2337   43.9872   -5.4626 H   0  0  0  0  0  0  0  0  0  0  0  0
   76.7601   44.4172   -6.3063 H   0  0  0  0  0  0  0  0  0  0  0  0
   76.1823   42.7164   -6.3063 H   0  0  0  0  0  0  0  0  0  0  0  0
  1  2  1  0
  2  3  2  0
  3  4  1  0
  4  5  1  0
  5  6  1  0
  6  7  1  0
  7  8  2  0
  8  9  1  0
  9 10  2  0
 10 11  1  0
 11 12  1  0
 11 13  2  0
 13 14  1  0
 14 15  2  0
 14 16  1  0
 16 17  1  0
  4 18  2  0
 18 19  1  0
 19 20  2  0
 20 21  1  0
 21 22  1  0
 22 23  1  0
 22 24  1  0
 20  2  1  0
 16  5  2  0
 13  7  1  0
  1 25  1  0
  1 26  1  0
  1 27  1  0
  3 28  1  0
  8 29  1  0
  9 30  1  0
 10 31  1  0
 12 32  1  0
 17 33  1  0
 18 34  1  0
 19 35  1  0
 21 36  1  0
 21 37  1  0
 22 38  1  0
 23 39  1  0
 23 40  1  0
 23 41  1  0
 24 42  1  0
 24 43  1  0
 24 44  1  0
M  END
>  <meeko>  (9) 
{"is_sidechain": [false], "free_energy": -7.359, "intermolecular_energy": -9.093, "internal_energy": -0.504}

$$$$
