cand_023_out
     RDKit          3D

 47 50  0  0  0  0  0  0  0  0999 V2000
   75.3430   43.8390   -3.0120 C   0  0  0  0  0  0  0  0  0  0  0  0
   74.2540   42.9760   -3.5900 C   0  0  0  0  0  0  0  0  0  0  0  0
   73.4740   42.1790   -2.7320 C   0  0  0  0  0  0  0  0  0  0  0  0
   72.4440   41.3630   -3.2260 C   0  0  0  0  0  0  0  0  0  0  0  0
   71.6640   40.5190   -2.2970 C   0  0  0  0  0  0  0  0  0  0  0  0
   72.4200   39.5030   -1.7250 O   0  0  0  0  0  0  0  0  0  0  0  0
   71.8210   38.6450   -0.8410 C   0  0  0  0  0  0  0  0  0  0  0  0
   72.6140   37.6310   -0.3020 C   0  0  0  0  0  0  0  0  0  0  0  0
   72.0650   36.7250    0.6070 C   0  0  0  0  0  0  0  0  0  0  0  0
   70.7230   36.8300    0.9770 C   0  0  0  0  0  0  0  0  0  0  0  0
   69.9320   37.8420    0.4380 C   0  0  0  0  0  0  0  0  0  0  0  0
   68.6260   37.8880    0.8430 O   0  0  0  0  0  0  0  0  0  0  0  0
   70.4820   38.7490   -0.4720 C   0  0  0  0  0  0  0  0  0  0  0  0
   69.6880   39.8280   -1.0620 C   0  0  0  0  0  0  0  0  0  0  0  0
   68.5010   39.9900   -0.7810 O   0  0  0  0  0  0  0  0  0  0  0  0
   70.3630   40.7310   -2.0200 C   0  0  0  0  0  0  0  0  0  0  0  0
   69.6050   41.7550   -2.5610 O   0  0  0  0  0  0  0  0  0  0  0  0
   72.2150   41.3470   -4.6060 C   0  0  0  0  0  0  0  0  0  0  0  0
   72.9840   42.1370   -5.4670 C   0  0  0  0  0  0  0  0  0  0  0  0
   74.0110   42.9570   -4.9770 C   0  0  0  0  0  0  0  0  0  0  0  0
   74.7910   43.7750   -5.8230 N   0  0  0  0  0  0  0  0  0  0  0  0
   75.5060   43.0240   -6.8670 C   0  0  0  0  0  0  0  0  0  0  0  0
   76.4920   43.9610   -7.5660 C   0  0  0  0  0  0  0  0  0  0  0  0
   75.7810   45.1930   -8.1230 C   0  0  0  0  0  0  0  0  0  0  0  0
   74.9650   45.8910   -7.0350 C   0  0  0  0  0  0  0  0  0  0  0  0
   74.0160   44.9140   -6.3400 C   0  0  0  0  0  0  0  0  0  0  0  0
   75.2962   43.8019   -1.9136 H   0  0  0  0  0  0  0  0  0  0  0  0
   76.3223   43.4691   -3.3499 H   0  0  0  0  0  0  0  0  0  0  0  0
   75.2066   44.8769   -3.3499 H   0  0  0  0  0  0  0  0  0  0  0  0
   73.6756   42.1957   -1.6508 H   0  0  0  0  0  0  0  0  0  0  0  0
   73.6713   37.5457   -0.5934 H   0  0  0  0  0  0  0  0  0  0  0  0
   72.6910   35.9268    1.0326 H   0  0  0  0  0  0  0  0  0  0  0  0
   70.2911   36.1150    1.6927 H   0  0  0  0  0  0  0  0  0  0  0  0
   68.3820   38.4180    1.5760 H   0  0  0  0  0  0  0  0  0  0  0  0
   68.8100   42.0190   -2.1420 H   0  0  0  0  0  0  0  0  0  0  0  0
   71.4217   40.7063   -5.0185 H   0  0  0  0  0  0  0  0  0  0  0  0
   72.7796   42.1147   -6.5476 H   0  0  0  0  0  0  0  0  0  0  0  0
   76.0536   42.1867   -6.4097 H   0  0  0  0  0  0  0  0  0  0  0  0
   74.7868   42.6276   -7.5988 H   0  0  0  0  0  0  0  0  0  0  0  0
   77.2554   44.2834   -6.8426 H   0  0  0  0  0  0  0  0  0  0  0  0
   76.9561   43.4180   -8.4025 H   0  0  0  0  0  0  0  0  0  0  0  0
   76.5313   45.8947   -8.5163 H   0  0  0  0  0  0  0  0  0  0  0  0
   75.0977   44.8724   -8.9232 H   0  0  0  0  0  0  0  0  0  0  0  0
   75.6522   46.3155   -6.2884 H   0  0  0  0  0  0  0  0  0  0  0  0
   74.3644   46.6833   -7.5057 H   0  0  0  0  0  0  0  0  0  0  0  0
   73.5088   45.4228   -5.5070 H   0  0  0  0  0  0  0  0  0  0  0  0
   73.2634   44.5549   -7.0574 H   0  0  0  0  0  0  0  0  0  0  0  0
  1  2  1  0
  2  3  2  0
  3  4  1  0
  4  5  1  0
  5  6  1  0
  6  7  1  0
  7  8  2  0
  8  9  1  0
  9 10  2  0
 10 11  1  0
 11 12  1  0
 11 13  2  0
 13 14  1  0
 14 15  2  0
 14 16  1  0
 16 17  1  0
  4 18  2  0
 18 19  1  0
 19 20  2  0
 20 21  1  0
 21 22  1  0
 22 23  1  0
 23 24  1  0
 24 25  1  0
 25 26  1  0
 20  2  1  0
 26 21  1  0
 16  5  2  0
 13  7  1  0
  1 27  1  0
  1 28  1  0
  1 29  1  0
  3 30  1  0
  8 31  1  0
  9 32  1  0
 10 33  1  0
 12 34  1  0
 17 35  1  0
 18 36  1  0
 19 37  1  0
 22 38  1  0
 22 39  1  0
 23 40  1  0
 23 41  1  0
 24 42  1  0
 24 43  1  0
 25 44  1  0
 25 45  1  0
 26 46  1  0
 26 47  1  0
M  END
>  <meeko>  (1) 
{"is_sidechain": [false], "free_energy": -7.871, "intermolecular_energy": -9.251, "internal_energy": -0.654}

$$$$
cand_023_out
     RDKit          3D

 47 50  0  0  0  0  0  0  0  0999 V2000
   76.5010   43.0460   -2.2340 C   0  0  0  0  0  0  0  0  0  0  0  0
   75.2570   42.5110   -2.8910 C   0  0  0  0  0  0  0  0  0  0  0  0
   74.3620   41.7250   -2.1420 C   0  0  0  0  0  0  0  0  0  0  0  0
   73.1880   41.2100   -2.7120 C   0  0  0  0  0  0  0  0  0  0  0  0
   72.2860   40.3650   -1.9020 C   0  0  0  0  0  0  0  0  0  0  0  0
   70.9520   40.7440   -2.0060 O   0  0  0  0  0  0  0  0  0  0  0  0
   70.0050   40.0420   -1.3060 C   0  0  0  0  0  0  0  0  0  0  0  0
   68.6820   40.4660   -1.4290 C   0  0  0  0  0  0  0  0  0  0  0  0
   67.6680   39.7930   -0.7440 C   0  0  0  0  0  0  0  0  0  0  0  0
   67.9770   38.6970    0.0640 C   0  0  0  0  0  0  0  0  0  0  0  0
   69.2990   38.2760    0.1860 C   0  0  0  0  0  0  0  0  0  0  0  0
   69.5320   37.1960    0.9930 O   0  0  0  0  0  0  0  0  0  0  0  0
   70.3140   38.9500   -0.5000 C   0  0  0  0  0  0  0  0  0  0  0  0
   71.7150   38.5400   -0.4010 C   0  0  0  0  0  0  0  0  0  0  0  0
   72.0650   37.5810    0.2850 O   0  0  0  0  0  0  0  0  0  0  0  0
   72.7140   39.3250   -1.1620 C   0  0  0  0  0  0  0  0  0  0  0  0
   74.0330   38.9200   -1.0700 O   0  0  0  0  0  0  0  0  0  0  0  0
   72.9280   41.4850   -4.0590 C   0  0  0  0  0  0  0  0  0  0  0  0
   73.8100   42.2680   -4.8110 C   0  0  0  0  0  0  0  0  0  0  0  0
   74.9840   42.7880   -4.2440 C   0  0  0  0  0  0  0  0  0  0  0  0
   75.8820   43.5920   -4.9780 N   0  0  0  0  0  0  0  0  0  0  0  0
   76.4930   42.8960   -6.1210 C   0  0  0  0  0  0  0  0  0  0  0  0
   77.6120   43.7670   -6.6940 C   0  0  0  0  0  0  0  0  0  0  0  0
   77.0920   45.1530   -7.0710 C   0  0  0  0  0  0  0  0  0  0  0  0
   76.3720   45.8060   -5.8910 C   0  0  0  0  0  0  0  0  0  0  0  0
   75.2850   44.8910   -5.3280 C   0  0  0  0  0  0  0  0  0  0  0  0
   76.3882   42.9975   -1.1409 H   0  0  0  0  0  0  0  0  0  0  0  0
   77.3668   42.4407   -2.5405 H   0  0  0  0  0  0  0  0  0  0  0  0
   76.6572   44.0908   -2.5405 H   0  0  0  0  0  0  0  0  0  0  0  0
   74.5876   41.5097   -1.0871 H   0  0  0  0  0  0  0  0  0  0  0  0
   68.4375   41.3296   -2.0649 H   0  0  0  0  0  0  0  0  0  0  0  0
   66.6244   40.1268   -0.8411 H   0  0  0  0  0  0  0  0  0  0  0  0
   67.1779   38.1671    0.6031 H   0  0  0  0  0  0  0  0  0  0  0  0
   68.8870   36.5210    1.0700 H   0  0  0  0  0  0  0  0  0  0  0  0
   74.2580   38.0220   -1.2150 H   0  0  0  0  0  0  0  0  0  0  0  0
   72.0205   41.0812   -4.5316 H   0  0  0  0  0  0  0  0  0  0  0  0
   73.5795   42.4800   -5.8655 H   0  0  0  0  0  0  0  0  0  0  0  0
   76.9087   41.9337   -5.7875 H   0  0  0  0  0  0  0  0  0  0  0  0
   75.7323   42.7121   -6.8940 H   0  0  0  0  0  0  0  0  0  0  0  0
   78.4058   43.8740   -5.9400 H   0  0  0  0  0  0  0  0  0  0  0  0
   78.0027   43.2820   -7.6007 H   0  0  0  0  0  0  0  0  0  0  0  0
   77.9400   45.7864   -7.3705 H   0  0  0  0  0  0  0  0  0  0  0  0
   76.3791   45.0465   -7.9019 H   0  0  0  0  0  0  0  0  0  0  0  0
   77.1045   46.0215   -5.0991 H   0  0  0  0  0  0  0  0  0  0  0  0
   75.8967   46.7329   -6.2444 H   0  0  0  0  0  0  0  0  0  0  0  0
   74.8471   45.3493   -4.4290 H   0  0  0  0  0  0  0  0  0  0  0  0
   74.4966   44.7454   -6.0812 H   0  0  0  0  0  0  0  0  0  0  0  0
  1  2  1  0
  2  3  2  0
  3  4  1  0
  4  5  1  0
  5  6  1  0
  6  7  1  0
  7  8  2  0
  8  9  1  0
  9 10  2  0
 10 11  1  0
 11 12  1  0
 11 13  2  0
 13 14  1  0
 14 15  2  0
 14 16  1  0
 16 17  1  0
  4 18  2  0
 18 19  1  0
 19 20  2  0
 20 21  1  0
 21 22  1  0
 22 23  1  0
 23 24  1  0
 24 25  1  0
 25 26  1  0
 20  2  1  0
 26 21  1  0
 16  5  2  0
 13  7  1  0
  1 27  1  0
  1 28  1  0
  1 29  1  0
  3 30  1  0
  8 31  1  0
  9 32  1  0
 10 33  1  0
 12 34  1  0
 17 35  1  0
 18 36  1  0
 19 37  1  0
 22 38  1  0
 22 39  1  0
 23 40  1  0
 23 41  1  0
 24 42  1  0
 24 43  1  0
 25 44  1  0
 25 45  1  0
 26 46  1  0
 26 47  1  0
M  END
>  <meeko>  (2) 
{"is_sidechain": [false], "free_energy": -7.808, "intermolecular_energy": -9.407, "internal_energy": -0.425}

$$$$
cand_023_out
     RDKit          3D

 47 50  0  0  0  0  0  0  0  0999 V2000
   73.3620   42.4610   -6.5730 C   0  0  0  0  0  0  0  0  0  0  0  0
   73.6330   42.4180   -5.0930 C   0  0  0  0  0  0  0  0  0  0  0  0
   72.8870   41.5480   -4.2770 C   0  0  0  0  0  0  0  0  0  0  0  0
   73.1090   41.4720   -2.8940 C   0  0  0  0  0  0  0  0  0  0  0  0
   72.2860   40.5660   -2.0650 C   0  0  0  0  0  0  0  0  0  0  0  0
   70.9370   40.9000   -2.0760 O   0  0  0  0  0  0  0  0  0  0  0  0
   70.0580   40.1390   -1.3500 C   0  0  0  0  0  0  0  0  0  0  0  0
   68.7150   40.5180   -1.3800 C   0  0  0  0  0  0  0  0  0  0  0  0
   67.7680   39.7850   -0.6630 C   0  0  0  0  0  0  0  0  0  0  0  0
   68.1620   38.6730    0.0850 C   0  0  0  0  0  0  0  0  0  0  0  0
   69.5030   38.2970    0.1140 C   0  0  0  0  0  0  0  0  0  0  0  0
   69.8200   37.1990    0.8660 O   0  0  0  0  0  0  0  0  0  0  0  0
   70.4510   39.0320   -0.6040 C   0  0  0  0  0  0  0  0  0  0  0  0
   71.8690   38.6710   -0.6010 C   0  0  0  0  0  0  0  0  0  0  0  0
   72.2930   37.7020    0.0270 O   0  0  0  0  0  0  0  0  0  0  0  0
   72.7930   39.5170   -1.3890 C   0  0  0  0  0  0  0  0  0  0  0  0
   74.1290   39.1590   -1.3900 O   0  0  0  0  0  0  0  0  0  0  0  0
   74.0890   42.2970   -2.3330 C   0  0  0  0  0  0  0  0  0  0  0  0
   74.8390   43.1640   -3.1360 C   0  0  0  0  0  0  0  0  0  0  0  0
   74.6220   43.2400   -4.5200 C   0  0  0  0  0  0  0  0  0  0  0  0
   75.3750   44.0950   -5.3540 N   0  0  0  0  0  0  0  0  0  0  0  0
   75.0900   45.5230   -5.1400 C   0  0  0  0  0  0  0  0  0  0  0  0
   75.7690   46.3370   -6.2410 C   0  0  0  0  0  0  0  0  0  0  0  0
   77.2690   46.0470   -6.2940 C   0  0  0  0  0  0  0  0  0  0  0  0
   77.5320   44.5460   -6.4130 C   0  0  0  0  0  0  0  0  0  0  0  0
   76.8090   43.7670   -5.3140 C   0  0  0  0  0  0  0  0  0  0  0  0
   72.2889   42.6313   -6.7445 H   0  0  0  0  0  0  0  0  0  0  0  0
   73.9403   43.2786   -7.0281 H   0  0  0  0  0  0  0  0  0  0  0  0
   73.6588   41.5045   -7.0281 H   0  0  0  0  0  0  0  0  0  0  0  0
   72.1129   40.9136   -4.7334 H   0  0  0  0  0  0  0  0  0  0  0  0
   68.4032   41.3936   -1.9682 H   0  0  0  0  0  0  0  0  0  0  0  0
   66.7095   40.0835   -0.6870 H   0  0  0  0  0  0  0  0  0  0  0  0
   67.4152   38.0957    0.6497 H   0  0  0  0  0  0  0  0  0  0  0  0
   69.5400   36.3480    0.5930 H   0  0  0  0  0  0  0  0  0  0  0  0
   74.4370   38.5020   -1.9830 H   0  0  0  0  0  0  0  0  0  0  0  0
   74.2724   42.2642   -1.2489 H   0  0  0  0  0  0  0  0  0  0  0  0
   75.6115   43.7964   -2.6742 H   0  0  0  0  0  0  0  0  0  0  0  0
   74.0035   45.6912   -5.1739 H   0  0  0  0  0  0  0  0  0  0  0  0
   75.4734   45.8350   -4.1573 H   0  0  0  0  0  0  0  0  0  0  0  0
   75.3183   46.0768   -7.2101 H   0  0  0  0  0  0  0  0  0  0  0  0
   75.6272   47.4059   -6.0233 H   0  0  0  0  0  0  0  0  0  0  0  0
   77.7039   46.5587   -7.1652 H   0  0  0  0  0  0  0  0  0  0  0  0
   77.7298   46.4112   -5.3639 H   0  0  0  0  0  0  0  0  0  0  0  0
   77.1762   44.1964   -7.3934 H   0  0  0  0  0  0  0  0  0  0  0  0
   78.6132   44.3733   -6.3074 H   0  0  0  0  0  0  0  0  0  0  0  0
   76.9446   42.6877   -5.4776 H   0  0  0  0  0  0  0  0  0  0  0  0
   77.2240   44.0398   -4.3325 H   0  0  0  0  0  0  0  0  0  0  0  0
  1  2  1  0
  2  3  2  0
  3  4  1  0
  4  5  1  0
  5  6  1  0
  6  7  1  0
  7  8  2  0
  8  9  1  0
  9 10  2  0
 10 11  1  0
 11 12  1  0
 11 13  2  0
 13 14  1  0
 14 15  2  0
 14 16  1  0
 16 17  1  0
  4 18  2  0
 18 19  1  0
 19 20  2  0
 20 21  1  0
 21 22  1  0
 22 23  1  0
 23 24  1  0
 24 25  1  0
 25 26  1  0
 20  2  1  0
 26 21  1  0
 16  5  2  0
 13  7  1  0
  1 27  1  0
  1 28  1  0
  1 29  1  0
  3 30  1  0
  8 31  1  0
  9 32  1  0
 10 33  1  0
 12 34  1  0
 17 35  1  0
 18 36  1  0
 19 37  1  0
 22 38  1  0
 22 39  1  0
 23 40  1  0
 23 41  1  0
 24 42  1  0
 24 43  1  0
 25 44  1  0
 25 45  1  0
 26 46  1  0
 26 47  1  0
M  END
>  <meeko>  (3) 
{"is_sidechain": [false], "free_energy": -7.801, "intermolecular_energy": -9.2, "internal_energy": -0.623}

$$$$
cand_023_out
     RDKit          3D

 47 50  0  0  0  0  0  0  0  0999 V2000
   75.6290   42.8150   -2.0070 C   0  0  0  0  0  0  0  0  0  0  0  0
   74.5460   42.5230   -3.0110 C   0  0  0  0  0  0  0  0  0  0  0  0
   73.2820   42.0990   -2.5620 C   0  0  0  0  0  0  0  0  0  0  0  0
   72.2410   41.8210   -3.4610 C   0  0  0  0  0  0  0  0  0  0  0  0
   70.9350   41.3510   -2.9540 C   0  0  0  0  0  0  0  0  0  0  0  0
   71.0550   40.4870   -1.8720 O   0  0  0  0  0  0  0  0  0  0  0  0
   69.9190   39.9760   -1.3000 C   0  0  0  0  0  0  0  0  0  0  0  0
   70.0870   39.1020   -0.2260 C   0  0  0  0  0  0  0  0  0  0  0  0
   68.9700   38.5480    0.4030 C   0  0  0  0  0  0  0  0  0  0  0  0
   67.6850   38.8670   -0.0420 C   0  0  0  0  0  0  0  0  0  0  0  0
   67.5200   39.7390   -1.1150 C   0  0  0  0  0  0  0  0  0  0  0  0
   66.2350   40.0090   -1.5000 O   0  0  0  0  0  0  0  0  0  0  0  0
   68.6380   40.2930   -1.7450 C   0  0  0  0  0  0  0  0  0  0  0  0
   68.5100   41.2150   -2.8740 C   0  0  0  0  0  0  0  0  0  0  0  0
   67.4130   41.5490   -3.3200 O   0  0  0  0  0  0  0  0  0  0  0  0
   69.7560   41.7410   -3.4750 C   0  0  0  0  0  0  0  0  0  0  0  0
   69.6220   42.6210   -4.5340 O   0  0  0  0  0  0  0  0  0  0  0  0
   72.4930   41.9620   -4.8300 C   0  0  0  0  0  0  0  0  0  0  0  0
   73.7460   42.3850   -5.2870 C   0  0  0  0  0  0  0  0  0  0  0  0
   74.7870   42.6680   -4.3900 C   0  0  0  0  0  0  0  0  0  0  0  0
   76.0550   43.1110   -4.8250 N   0  0  0  0  0  0  0  0  0  0  0  0
   76.8700   42.0480   -5.4350 C   0  0  0  0  0  0  0  0  0  0  0  0
   78.2910   42.5710   -5.6490 C   0  0  0  0  0  0  0  0  0  0  0  0
   78.2870   43.8490   -6.4840 C   0  0  0  0  0  0  0  0  0  0  0  0
   77.3520   44.8950   -5.8790 C   0  0  0  0  0  0  0  0  0  0  0  0
   75.9520   44.3240   -5.6520 C   0  0  0  0  0  0  0  0  0  0  0  0
   75.2250   42.7061   -0.9897 H   0  0  0  0  0  0  0  0  0  0  0  0
   76.4605   42.1090   -2.1488 H   0  0  0  0  0  0  0  0  0  0  0  0
   75.9929   43.8433   -2.1488 H   0  0  0  0  0  0  0  0  0  0  0  0
   73.1058   41.9828   -1.4824 H   0  0  0  0  0  0  0  0  0  0  0  0
   71.0984   38.8494    0.1252 H   0  0  0  0  0  0  0  0  0  0  0  0
   69.1024   37.8592    1.2504 H   0  0  0  0  0  0  0  0  0  0  0  0
   66.8055   38.4304    0.4540 H   0  0  0  0  0  0  0  0  0  0  0  0
   65.6990   39.3270   -1.8540 H   0  0  0  0  0  0  0  0  0  0  0  0
   68.9380   43.2620   -4.5250 H   0  0  0  0  0  0  0  0  0  0  0  0
   71.6970   41.7378   -5.5553 H   0  0  0  0  0  0  0  0  0  0  0  0
   73.9178   42.4975   -6.3677 H   0  0  0  0  0  0  0  0  0  0  0  0
   76.8953   41.1739   -4.7677 H   0  0  0  0  0  0  0  0  0  0  0  0
   76.4333   41.7526   -6.4005 H   0  0  0  0  0  0  0  0  0  0  0  0
   78.7469   42.7827   -4.6706 H   0  0  0  0  0  0  0  0  0  0  0  0
   78.8679   41.8043   -6.1870 H   0  0  0  0  0  0  0  0  0  0  0  0
   79.3077   44.2575   -6.5215 H   0  0  0  0  0  0  0  0  0  0  0  0
   77.9322   43.6053   -7.4963 H   0  0  0  0  0  0  0  0  0  0  0  0
   77.7635   45.2286   -4.9150 H   0  0  0  0  0  0  0  0  0  0  0  0
   77.2734   45.7379   -6.5813 H   0  0  0  0  0  0  0  0  0  0  0  0
   75.3292   45.0697   -5.1362 H   0  0  0  0  0  0  0  0  0  0  0  0
   75.4920   44.0749   -6.6196 H   0  0  0  0  0  0  0  0  0  0  0  0
  1  2  1  0
  2  3  2  0
  3  4  1  0
  4  5  1  0
  5  6  1  0
  6  7  1  0
  7  8  2  0
  8  9  1  0
  9 10  2  0
 10 11  1  0
 11 12  1  0
 11 13  2  0
 13 14  1  0
 14 15  2  0
 14 16  1  0
 16 17  1  0
  4 18  2  0
 18 19  1  0
 19 20  2  0
 20 21  1  0
 21 22  1  0
 22 23  1  0
 23 24  1  0
 24 25  1  0
 25 26  1  0
 20  2  1  0
 26 21  1  0
 16  5  2  0
 13  7  1  0
  1 27  1  0
  1 28  1  0
  1 29  1  0
  3 30  1  0
  8 31  1  0
  9 32  1  0
 10 33  1  0
 12 34  1  0
 17 35  1  0
 18 36  1  0
 19 37  1  0
 22 38  1  0
 22 39  1  0
 23 40  1  0
 23 41  1  0
 24 42  1  0
 24 43  1  0
 25 44  1  0
 25 45  1  0
 26 46  1  0
 26 47  1  0
M  END
>  <meeko>  (4) 
{"is_sidechain": [false], "free_energy": -7.798, "intermolecular_energy": -9.459, "internal_energy": -0.361}

$$$$
cand_023_out
     RDKit          3D

 47 50  0  0  0  0  0  0  0  0999 V2000
   73.7310   42.6600   -6.9400 C   0  0  0  0  0  0  0  0  0  0  0  0
   73.3580   42.9940   -5.5210 C   0  0  0  0  0  0  0  0  0  0  0  0
   73.0630   41.9540   -4.6200 C   0  0  0  0  0  0  0  0  0  0  0  0
   72.7160   42.2180   -3.2860 C   0  0  0  0  0  0  0  0  0  0  0  0
   72.3860   41.1010   -2.3760 C   0  0  0  0  0  0  0  0  0  0  0  0
   71.0270   41.0170   -2.0940 O   0  0  0  0  0  0  0  0  0  0  0  0
   70.5810   40.0230   -1.2620 C   0  0  0  0  0  0  0  0  0  0  0  0
   69.2120   39.9850   -0.9960 C   0  0  0  0  0  0  0  0  0  0  0  0
   68.6920   38.9970   -0.1580 C   0  0  0  0  0  0  0  0  0  0  0  0
   69.5410   38.0460    0.4140 C   0  0  0  0  0  0  0  0  0  0  0  0
   70.9070   38.0860    0.1470 C   0  0  0  0  0  0  0  0  0  0  0  0
   71.6810   37.1250    0.7390 O   0  0  0  0  0  0  0  0  0  0  0  0
   71.4270   39.0760   -0.6920 C   0  0  0  0  0  0  0  0  0  0  0  0
   72.8560   39.1540   -0.9990 C   0  0  0  0  0  0  0  0  0  0  0  0
   73.6650   38.3490   -0.5390 O   0  0  0  0  0  0  0  0  0  0  0  0
   73.3060   40.2450   -1.8930 C   0  0  0  0  0  0  0  0  0  0  0  0
   74.6560   40.3000   -2.1870 O   0  0  0  0  0  0  0  0  0  0  0  0
   72.6530   43.5520   -2.8690 C   0  0  0  0  0  0  0  0  0  0  0  0
   72.9470   44.5930   -3.7560 C   0  0  0  0  0  0  0  0  0  0  0  0
   73.2990   44.3330   -5.0890 C   0  0  0  0  0  0  0  0  0  0  0  0
   73.6140   45.3640   -5.9990 N   0  0  0  0  0  0  0  0  0  0  0  0
   72.5240   46.3350   -6.1860 C   0  0  0  0  0  0  0  0  0  0  0  0
   72.8740   47.2590   -7.3530 C   0  0  0  0  0  0  0  0  0  0  0  0
   74.2230   47.9390   -7.1300 C   0  0  0  0  0  0  0  0  0  0  0  0
   75.3130   46.9090   -6.8370 C   0  0  0  0  0  0  0  0  0  0  0  0
   74.9110   45.9860   -5.6870 C   0  0  0  0  0  0  0  0  0  0  0  0
   74.5505   41.9262   -6.9407 H   0  0  0  0  0  0  0  0  0  0  0  0
   72.8585   42.2357   -7.4583 H   0  0  0  0  0  0  0  0  0  0  0  0
   74.0567   43.5739   -7.4583 H   0  0  0  0  0  0  0  0  0  0  0  0
   73.1053   40.9116   -4.9688 H   0  0  0  0  0  0  0  0  0  0  0  0
   68.5428   40.7330   -1.4463 H   0  0  0  0  0  0  0  0  0  0  0  0
   67.6127   38.9671    0.0522 H   0  0  0  0  0  0  0  0  0  0  0  0
   69.1311   37.2673    1.0739 H   0  0  0  0  0  0  0  0  0  0  0  0
   72.3460   36.6900    0.2450 H   0  0  0  0  0  0  0  0  0  0  0  0
   74.9390   40.5800   -3.0350 H   0  0  0  0  0  0  0  0  0  0  0  0
   72.3691   43.7849   -1.8321 H   0  0  0  0  0  0  0  0  0  0  0  0
   72.9014   45.6335   -3.4022 H   0  0  0  0  0  0  0  0  0  0  0  0
   71.5882   45.8007   -6.4067 H   0  0  0  0  0  0  0  0  0  0  0  0
   72.3938   46.9282   -5.2689 H   0  0  0  0  0  0  0  0  0  0  0  0
   72.9187   46.6671   -8.2791 H   0  0  0  0  0  0  0  0  0  0  0  0
   72.0991   48.0361   -7.4281 H   0  0  0  0  0  0  0  0  0  0  0  0
   74.4951   48.5036   -8.0340 H   0  0  0  0  0  0  0  0  0  0  0  0
   74.1369   48.6140   -6.2657 H   0  0  0  0  0  0  0  0  0  0  0  0
   75.4853   46.3034   -7.7389 H   0  0  0  0  0  0  0  0  0  0  0  0
   76.2286   47.4456   -6.5474 H   0  0  0  0  0  0  0  0  0  0  0  0
   75.6734   45.2035   -5.5591 H   0  0  0  0  0  0  0  0  0  0  0  0
   74.8288   46.5674   -4.7568 H   0  0  0  0  0  0  0  0  0  0  0  0
  1  2  1  0
  2  3  2  0
  3  4  1  0
  4  5  1  0
  5  6  1  0
  6  7  1  0
  7  8  2  0
  8  9  1  0
  9 10  2  0
 10 11  1  0
 11 12  1  0
 11 13  2  0
 13 14  1  0
 14 15  2  0
 14 16  1  0
 16 17  1  0
  4 18  2  0
 18 19  1  0
 19 20  2  0
 20 21  1  0
 21 22  1  0
 22 23  1  0
 23 24  1  0
 24 25  1  0
 25 26  1  0
 20  2  1  0
 26 21  1  0
 16  5  2  0
 13  7  1  0
  1 27  1  0
  1 28  1  0
  1 29  1  0
  3 30  1  0
  8 31  1  0
  9 32  1  0
 10 33  1  0
 12 34  1  0
 17 35  1  0
 18 36  1  0
 19 37  1  0
 22 38  1  0
 22 39  1  0
 23 40  1  0
 23 41  1  0
 24 42  1  0
 24 43  1  0
 25 44  1  0
 25 45  1  0
 26 46  1  0
 26 47  1  0
M  END
>  <meeko>  (5) 
{"is_sidechain": [false], "free_energy": -7.749, "intermolecular_energy": -9.108, "internal_energy": -0.654}

$$$$
cand_023_out
     RDKit          3D

 47 50  0  0  0  0  0  0  0  0999 V2000
   74.6080   45.3330   -3.3230 C   0  0  0  0  0  0  0  0  0  0  0  0
   73.7920   44.1750   -3.8310 C   0  0  0  0  0  0  0  0  0  0  0  0
   73.3980   43.1610   -2.9390 C   0  0  0  0  0  0  0  0  0  0  0  0
   72.6330   42.0660   -3.3670 C   0  0  0  0  0  0  0  0  0  0  0  0
   72.2610   41.0070   -2.4060 C   0  0  0  0  0  0  0  0  0  0  0  0
   70.8970   40.9740   -2.1390 O   0  0  0  0  0  0  0  0  0  0  0  0
   70.4130   40.0370   -1.2640 C   0  0  0  0  0  0  0  0  0  0  0  0
   69.0400   40.0490   -1.0150 C   0  0  0  0  0  0  0  0  0  0  0  0
   68.4830   39.1200   -0.1350 C   0  0  0  0  0  0  0  0  0  0  0  0
   69.2970   38.1780    0.4970 C   0  0  0  0  0  0  0  0  0  0  0  0
   70.6670   38.1670    0.2480 C   0  0  0  0  0  0  0  0  0  0  0  0
   71.4070   37.2180    0.9000 O   0  0  0  0  0  0  0  0  0  0  0  0
   71.2250   39.0980   -0.6330 C   0  0  0  0  0  0  0  0  0  0  0  0
   72.6590   39.1210   -0.9240 C   0  0  0  0  0  0  0  0  0  0  0  0
   73.4400   38.3210   -0.4120 O   0  0  0  0  0  0  0  0  0  0  0  0
   73.1510   40.1520   -1.8660 C   0  0  0  0  0  0  0  0  0  0  0  0
   74.5060   40.1560   -2.1430 O   0  0  0  0  0  0  0  0  0  0  0  0
   72.2780   41.9920   -4.7180 C   0  0  0  0  0  0  0  0  0  0  0  0
   72.6630   42.9960   -5.6140 C   0  0  0  0  0  0  0  0  0  0  0  0
   73.4240   44.0950   -5.1880 C   0  0  0  0  0  0  0  0  0  0  0  0
   73.8130   45.1280   -6.0690 N   0  0  0  0  0  0  0  0  0  0  0  0
   74.4980   44.6410   -7.2770 C   0  0  0  0  0  0  0  0  0  0  0  0
   75.0800   45.8360   -8.0340 C   0  0  0  0  0  0  0  0  0  0  0  0
   73.9960   46.8630   -8.3570 C   0  0  0  0  0  0  0  0  0  0  0  0
   73.2350   47.2700   -7.0950 C   0  0  0  0  0  0  0  0  0  0  0  0
   72.6990   46.0470   -6.3520 C   0  0  0  0  0  0  0  0  0  0  0  0
   74.6052   45.3290   -2.2230 H   0  0  0  0  0  0  0  0  0  0  0  0
   75.6418   45.2409   -3.6873 H   0  0  0  0  0  0  0  0  0  0  0  0
   74.1735   46.2756   -3.6873 H   0  0  0  0  0  0  0  0  0  0  0  0
   73.6965   43.2284   -1.8824 H   0  0  0  0  0  0  0  0  0  0  0  0
   68.3971   40.7903   -1.5121 H   0  0  0  0  0  0  0  0  0  0  0  0
   67.4007   39.1299    0.0611 H   0  0  0  0  0  0  0  0  0  0  0  0
   68.8570   37.4460    1.1902 H   0  0  0  0  0  0  0  0  0  0  0  0
   71.5840   36.3970    0.4860 H   0  0  0  0  0  0  0  0  0  0  0  0
   74.9800   40.9640   -2.1480 H   0  0  0  0  0  0  0  0  0  0  0  0
   71.6900   41.1357   -5.0800 H   0  0  0  0  0  0  0  0  0  0  0  0
   72.3639   42.9221   -6.6700 H   0  0  0  0  0  0  0  0  0  0  0  0
   75.3090   43.9553   -6.9903 H   0  0  0  0  0  0  0  0  0  0  0  0
   73.7836   44.1056   -7.9196 H   0  0  0  0  0  0  0  0  0  0  0  0
   75.8530   46.3126   -7.4133 H   0  0  0  0  0  0  0  0  0  0  0  0
   75.5117   45.4745   -8.9790 H   0  0  0  0  0  0  0  0  0  0  0  0
   74.4651   47.7550   -8.7978 H   0  0  0  0  0  0  0  0  0  0  0  0
   73.2853   46.4122   -9.0653 H   0  0  0  0  0  0  0  0  0  0  0  0
   73.9138   47.8243   -6.4302 H   0  0  0  0  0  0  0  0  0  0  0  0
   72.3819   47.8982   -7.3910 H   0  0  0  0  0  0  0  0  0  0  0  0
   72.2346   46.3647   -5.4068 H   0  0  0  0  0  0  0  0  0  0  0  0
   71.9470   45.5373   -6.9722 H   0  0  0  0  0  0  0  0  0  0  0  0
  1  2  1  0
  2  3  2  0
  3  4  1  0
  4  5  1  0
  5  6  1  0
  6  7  1  0
  7  8  2  0
  8  9  1  0
  9 10  2  0
 10 11  1  0
 11 12  1  0
 11 13  2  0
 13 14  1  0
 14 15  2  0
 14 16  1  0
 16 17  1  0
  4 18  2  0
 18 19  1  0
 19 20  2  0
 20 21  1  0
 21 22  1  0
 22 23  1  0
 23 24  1  0
 24 25  1  0
 25 26  1  0
 20  2  1  0
 26 21  1  0
 16  5  2  0
 13  7  1  0
  1 27  1  0
  1 28  1  0
  1 29  1  0
  3 30  1  0
  8 31  1  0
  9 32  1  0
 10 33  1  0
 12 34  1  0
 17 35  1  0
 18 36  1  0
 19 37  1  0
 22 38  1  0
 22 39  1  0
 23 40  1  0
 23 41  1  0
 24 42  1  0
 24 43  1  0
 25 44  1  0
 25 45  1  0
 26 46  1  0
 26 47  1  0
M  END
>  <meeko>  (6) 
{"is_sidechain": [false], "free_energy": -7.7, "intermolecular_energy": -9.091, "internal_energy": -0.613}

$$$$
cand_023_out
     RDKit          3D

 47 50  0  0  0  0  0  0  0  0999 V2000
   73.7300   42.5910   -6.3510 C   0  0  0  0  0  0  0  0  0  0  0  0
   73.9820   42.3720   -4.8840 C   0  0  0  0  0  0  0  0  0  0  0  0
   73.0750   41.6020   -4.1330 C   0  0  0  0  0  0  0  0  0  0  0  0
   73.2730   41.3680   -2.7630 C   0  0  0  0  0  0  0  0  0  0  0  0
   72.2840   40.5770   -2.0010 C   0  0  0  0  0  0  0  0  0  0  0  0
   72.8430   39.4690   -1.3760 O   0  0  0  0  0  0  0  0  0  0  0  0
   72.0370   38.6480   -0.6320 C   0  0  0  0  0  0  0  0  0  0  0  0
   72.6390   37.5400   -0.0330 C   0  0  0  0  0  0  0  0  0  0  0  0
   71.8740   36.6640    0.7390 C   0  0  0  0  0  0  0  0  0  0  0  0
   70.5080   36.8950    0.9140 C   0  0  0  0  0  0  0  0  0  0  0  0
   69.9090   38.0000    0.3150 C   0  0  0  0  0  0  0  0  0  0  0  0
   68.5680   38.1670    0.5270 O   0  0  0  0  0  0  0  0  0  0  0  0
   70.6750   38.8770   -0.4580 C   0  0  0  0  0  0  0  0  0  0  0  0
   70.0860   40.0510   -1.1040 C   0  0  0  0  0  0  0  0  0  0  0  0
   68.8920   40.3250   -0.9920 O   0  0  0  0  0  0  0  0  0  0  0  0
   70.9830   40.9130   -1.9080 C   0  0  0  0  0  0  0  0  0  0  0  0
   70.4180   42.0260   -2.5020 O   0  0  0  0  0  0  0  0  0  0  0  0
   74.3950   41.9330   -2.1490 C   0  0  0  0  0  0  0  0  0  0  0  0
   75.3040   42.6980   -2.8870 C   0  0  0  0  0  0  0  0  0  0  0  0
   75.1120   42.9310   -4.2580 C   0  0  0  0  0  0  0  0  0  0  0  0
   76.0230   43.6870   -5.0270 N   0  0  0  0  0  0  0  0  0  0  0  0
   76.1740   45.0740   -4.5610 C   0  0  0  0  0  0  0  0  0  0  0  0
   76.9860   45.8600   -5.5920 C   0  0  0  0  0  0  0  0  0  0  0  0
   78.3320   45.1880   -5.8600 C   0  0  0  0  0  0  0  0  0  0  0  0
   78.1440   43.7210   -6.2420 C   0  0  0  0  0  0  0  0  0  0  0  0
   77.3020   42.9800   -5.2030 C   0  0  0  0  0  0  0  0  0  0  0  0
   72.9053   43.3077   -6.4784 H   0  0  0  0  0  0  0  0  0  0  0  0
   74.6394   42.9906   -6.8236 H   0  0  0  0  0  0  0  0  0  0  0  0
   73.4611   41.6348   -6.8236 H   0  0  0  0  0  0  0  0  0  0  0  0
   72.1918   41.1742   -4.6300 H   0  0  0  0  0  0  0  0  0  0  0  0
   73.7152   37.3574   -0.1692 H   0  0  0  0  0  0  0  0  0  0  0  0
   72.3480   35.7903    1.2102 H   0  0  0  0  0  0  0  0  0  0  0  0
   69.9063   36.2052    1.5240 H   0  0  0  0  0  0  0  0  0  0  0  0
   67.9720   38.1330   -0.1940 H   0  0  0  0  0  0  0  0  0  0  0  0
   70.6000   42.8810   -2.1640 H   0  0  0  0  0  0  0  0  0  0  0  0
   74.5646   41.7741   -1.0738 H   0  0  0  0  0  0  0  0  0  0  0  0
   76.1846   43.1245   -2.3844 H   0  0  0  0  0  0  0  0  0  0  0  0
   75.1816   45.5341   -4.4446 H   0  0  0  0  0  0  0  0  0  0  0  0
   76.6933   45.0859   -3.5914 H   0  0  0  0  0  0  0  0  0  0  0  0
   76.4175   45.9134   -6.5322 H   0  0  0  0  0  0  0  0  0  0  0  0
   77.1719   46.8689   -5.1950 H   0  0  0  0  0  0  0  0  0  0  0  0
   78.8383   45.7124   -6.6838 H   0  0  0  0  0  0  0  0  0  0  0  0
   78.9373   45.2369   -4.9428 H   0  0  0  0  0  0  0  0  0  0  0  0
   77.6387   43.6667   -7.2176 H   0  0  0  0  0  0  0  0  0  0  0  0
   79.1345   43.2449   -6.2898 H   0  0  0  0  0  0  0  0  0  0  0  0
   77.1109   41.9532   -5.5481 H   0  0  0  0  0  0  0  0  0  0  0  0
   77.8414   42.9455   -4.2450 H   0  0  0  0  0  0  0  0  0  0  0  0
  1  2  1  0
  2  3  2  0
  3  4  1  0
  4  5  1  0
  5  6  1  0
  6  7  1  0
  7  8  2  0
  8  9  1  0
  9 10  2  0
 10 11  1  0
 11 12  1  0
 11 13  2  0
 13 14  1  0
 14 15  2  0
 14 16  1  0
 16 17  1  0
  4 18  2  0
 18 19  1  0
 19 20  2  0
 20 21  1  0
 21 22  1  0
 22 23  1  0
 23 24  1  0
 24 25  1  0
 25 26  1  0
 20  2  1  0
 26 21  1  0
 16  5  2  0
 13  7  1  0
  1 27  1  0
  1 28  1  0
  1 29  1  0
  3 30  1  0
  8 31  1  0
  9 32  1  0
 10 33  1  0
 12 34  1  0
 17 35  1  0
 18 36  1  0
 19 37  1  0
 22 38  1  0
 22 39  1  0
 23 40  1  0
 23 41  1  0
 24 42  1  0
 24 43  1  0
 25 44  1  0
 25 45  1  0
 26 46  1  0
 26 47  1  0
M  END
>  <meeko>  (7) 
{"is_sidechain": [false], "free_energy": -7.676, "intermolecular_energy": -9.147, "internal_energy": -0.53}

$$$$
cand_023_out
     RDKit          3D

 47 50  0  0  0  0  0  0  0  0999 V2000
   71.0700   43.6460   -5.5660 C   0  0  0  0  0  0  0  0  0  0  0  0
   69.9160   43.0920   -4.7740 C   0  0  0  0  0  0  0  0  0  0  0  0
   70.1540   42.0980   -3.8070 C   0  0  0  0  0  0  0  0  0  0  0  0
   69.1100   41.5570   -3.0420 C   0  0  0  0  0  0  0  0  0  0  0  0
   69.3940   40.4950   -2.0550 C   0  0  0  0  0  0  0  0  0  0  0  0
   70.7320   40.1170   -2.0380 O   0  0  0  0  0  0  0  0  0  0  0  0
   71.1360   39.1400   -1.1650 C   0  0  0  0  0  0  0  0  0  0  0  0
   72.4840   38.7830   -1.1920 C   0  0  0  0  0  0  0  0  0  0  0  0
   72.9610   37.7950   -0.3280 C   0  0  0  0  0  0  0  0  0  0  0  0
   72.0900   37.1650    0.5640 C   0  0  0  0  0  0  0  0  0  0  0  0
   70.7450   37.5220    0.5880 C   0  0  0  0  0  0  0  0  0  0  0  0
   69.9470   36.8650    1.4850 O   0  0  0  0  0  0  0  0  0  0  0  0
   70.2680   38.5110   -0.2780 C   0  0  0  0  0  0  0  0  0  0  0  0
   68.8620   38.9170   -0.2840 C   0  0  0  0  0  0  0  0  0  0  0  0
   68.0360   38.4130    0.4760 O   0  0  0  0  0  0  0  0  0  0  0  0
   68.4570   39.9680   -1.2440 C   0  0  0  0  0  0  0  0  0  0  0  0
   67.1280   40.3530   -1.2310 O   0  0  0  0  0  0  0  0  0  0  0  0
   67.8100   42.0200   -3.2720 C   0  0  0  0  0  0  0  0  0  0  0  0
   67.5630   43.0100   -4.2290 C   0  0  0  0  0  0  0  0  0  0  0  0
   68.6050   43.5570   -4.9940 C   0  0  0  0  0  0  0  0  0  0  0  0
   68.3850   44.5660   -5.9550 N   0  0  0  0  0  0  0  0  0  0  0  0
   67.3130   44.2420   -6.9100 C   0  0  0  0  0  0  0  0  0  0  0  0
   67.3190   45.2780   -8.0350 C   0  0  0  0  0  0  0  0  0  0  0  0
   67.1900   46.6950   -7.4790 C   0  0  0  0  0  0  0  0  0  0  0  0
   68.2530   46.9640   -6.4150 C   0  0  0  0  0  0  0  0  0  0  0  0
   68.2360   45.8890   -5.3280 C   0  0  0  0  0  0  0  0  0  0  0  0
   71.8430   44.0171   -4.8770 H   0  0  0  0  0  0  0  0  0  0  0  0
   71.4938   42.8532   -6.1999 H   0  0  0  0  0  0  0  0  0  0  0  0
   70.7164   44.4725   -6.1999 H   0  0  0  0  0  0  0  0  0  0  0  0
   71.1809   41.7373   -3.6474 H   0  0  0  0  0  0  0  0  0  0  0  0
   73.1709   39.2793   -1.8933 H   0  0  0  0  0  0  0  0  0  0  0  0
   74.0239   37.5125   -0.3499 H   0  0  0  0  0  0  0  0  0  0  0  0
   72.4663   36.3884    1.2460 H   0  0  0  0  0  0  0  0  0  0  0  0
   69.8550   35.9350    1.4360 H   0  0  0  0  0  0  0  0  0  0  0  0
   66.6300   40.3420   -2.0250 H   0  0  0  0  0  0  0  0  0  0  0  0
   66.9730   41.6011   -2.6941 H   0  0  0  0  0  0  0  0  0  0  0  0
   66.5340   43.3661   -4.3848 H   0  0  0  0  0  0  0  0  0  0  0  0
   67.4839   43.2400   -7.3304 H   0  0  0  0  0  0  0  0  0  0  0  0
   66.3405   44.2567   -6.3963 H   0  0  0  0  0  0  0  0  0  0  0  0
   68.2629   45.1960   -8.5938 H   0  0  0  0  0  0  0  0  0  0  0  0
   66.4607   45.0822   -8.6946 H   0  0  0  0  0  0  0  0  0  0  0  0
   67.3124   47.4163   -8.3004 H   0  0  0  0  0  0  0  0  0  0  0  0
   66.1972   46.8016   -7.0176 H   0  0  0  0  0  0  0  0  0  0  0  0
   69.2437   46.9745   -6.8930 H   0  0  0  0  0  0  0  0  0  0  0  0
   68.0366   47.9352   -5.9460 H   0  0  0  0  0  0  0  0  0  0  0  0
   69.0670   46.0603   -4.6279 H   0  0  0  0  0  0  0  0  0  0  0  0
   67.2839   45.9331   -4.7788 H   0  0  0  0  0  0  0  0  0  0  0  0
  1  2  1  0
  2  3  2  0
  3  4  1  0
  4  5  1  0
  5  6  1  0
  6  7  1  0
  7  8  2  0
  8  9  1  0
  9 10  2  0
 10 11  1  0
 11 12  1  0
 11 13  2  0
 13 14  1  0
 14 15  2  0
 14 16  1  0
 16 17  1  0
  4 18  2  0
 18 19  1  0
 19 20  2  0
 20 21  1  0
 21 22  1  0
 22 23  1  0
 23 24  1  0
 24 25  1  0
 25 26  1  0
 20  2  1  0
 26 21  1  0
 16  5  2  0
 13  7  1  0
  1 27  1  0
  1 28  1  0
  1 29  1  0
  3 30  1  0
  8 31  1  0
  9 32  1  0
 10 33  1  0
 12 34  1  0
 17 35  1  0
 18 36  1  0
 19 37  1  0
 22 38  1  0
 22 39  1  0
 23 40  1  0
 23 41  1  0
 24 42  1  0
 24 43  1  0
 25 44  1  0
 25 45  1  0
 26 46  1  0
 26 47  1  0
M  END
>  <meeko>  (8) 
{"is_sidechain": [false], "free_energy": -7.546, "intermolecular_energy": -9.471, "internal_energy": -0.052}

$$$$
cand_023_out
     RDKit          3D

 47 50  0  0  0  0  0  0  0  0999 V2000
   69.5490   43.8050   -5.9600 C   0  0  0  0  0  0  0  0  0  0  0  0
   70.4540   43.5790   -4.7790 C   0  0  0  0  0  0  0  0  0  0  0  0
   70.2460   42.4610   -3.9510 C   0  0  0  0  0  0  0  0  0  0  0  0
   71.0680   42.2090   -2.8420 C   0  0  0  0  0  0  0  0  0  0  0  0
   70.8020   41.0390   -1.9790 C   0  0  0  0  0  0  0  0  0  0  0  0
   71.9450   40.2970   -1.7060 O   0  0  0  0  0  0  0  0  0  0  0  0
   71.8410   39.1830   -0.9140 C   0  0  0  0  0  0  0  0  0  0  0  0
   73.0120   38.4600   -0.6790 C   0  0  0  0  0  0  0  0  0  0  0  0
   72.9750   37.3170    0.1220 C   0  0  0  0  0  0  0  0  0  0  0  0
   71.7700   36.8950    0.6870 C   0  0  0  0  0  0  0  0  0  0  0  0
   70.6030   37.6170    0.4500 C   0  0  0  0  0  0  0  0  0  0  0  0
   69.4570   37.1500    1.0330 O   0  0  0  0  0  0  0  0  0  0  0  0
   70.6390   38.7620   -0.3520 C   0  0  0  0  0  0  0  0  0  0  0  0
   69.4370   39.5510   -0.6250 C   0  0  0  0  0  0  0  0  0  0  0  0
   68.3400   39.2470   -0.1580 O   0  0  0  0  0  0  0  0  0  0  0  0
   69.5820   40.7420   -1.4920 C   0  0  0  0  0  0  0  0  0  0  0  0
   68.4410   41.4870   -1.7320 O   0  0  0  0  0  0  0  0  0  0  0  0
   72.1020   43.1090   -2.5640 C   0  0  0  0  0  0  0  0  0  0  0  0
   72.3190   44.2230   -3.3820 C   0  0  0  0  0  0  0  0  0  0  0  0
   71.5020   44.4760   -4.4950 C   0  0  0  0  0  0  0  0  0  0  0  0
   71.7090   45.5840   -5.3440 N   0  0  0  0  0  0  0  0  0  0  0  0
   71.2980   46.8650   -4.7480 C   0  0  0  0  0  0  0  0  0  0  0  0
   71.3400   47.9510   -5.8240 C   0  0  0  0  0  0  0  0  0  0  0  0
   72.7220   48.0310   -6.4710 C   0  0  0  0  0  0  0  0  0  0  0  0
   73.1630   46.6620   -6.9880 C   0  0  0  0  0  0  0  0  0  0  0  0
   73.0750   45.6000   -5.8920 C   0  0  0  0  0  0  0  0  0  0  0  0
   68.5389   44.0572   -5.6049 H   0  0  0  0  0  0  0  0  0  0  0  0
   69.9409   44.6329   -6.5691 H   0  0  0  0  0  0  0  0  0  0  0  0
   69.5057   42.8901   -6.5691 H   0  0  0  0  0  0  0  0  0  0  0  0
   69.4212   41.7694   -4.1778 H   0  0  0  0  0  0  0  0  0  0  0  0
   73.9621   38.7903   -1.1241 H   0  0  0  0  0  0  0  0  0  0  0  0
   73.8975   36.7476    0.3084 H   0  0  0  0  0  0  0  0  0  0  0  0
   71.7425   35.9943    1.3179 H   0  0  0  0  0  0  0  0  0  0  0  0
   68.6270   37.5030    0.7830 H   0  0  0  0  0  0  0  0  0  0  0  0
   67.7370   41.1170   -2.2280 H   0  0  0  0  0  0  0  0  0  0  0  0
   72.7516   42.9390   -1.6927 H   0  0  0  0  0  0  0  0  0  0  0  0
   73.1439   44.9124   -3.1490 H   0  0  0  0  0  0  0  0  0  0  0  0
   70.2752   46.7766   -4.3529 H   0  0  0  0  0  0  0  0  0  0  0  0
   71.9807   47.1289   -3.9268 H   0  0  0  0  0  0  0  0  0  0  0  0
   70.5938   47.7188   -6.5981 H   0  0  0  0  0  0  0  0  0  0  0  0
   71.1186   48.9195   -5.3518 H   0  0  0  0  0  0  0  0  0  0  0  0
   72.6853   48.7388   -7.3122 H   0  0  0  0  0  0  0  0  0  0  0  0
   73.4448   48.3701   -5.7144 H   0  0  0  0  0  0  0  0  0  0  0  0
   72.5122   46.3682   -7.8247 H   0  0  0  0  0  0  0  0  0  0  0  0
   74.2101   46.7357   -7.3169 H   0  0  0  0  0  0  0  0  0  0  0  0
   73.3133   44.6132   -6.3156 H   0  0  0  0  0  0  0  0  0  0  0  0
   73.7922   45.8339   -5.0915 H   0  0  0  0  0  0  0  0  0  0  0  0
  1  2  1  0
  2  3  2  0
  3  4  1  0
  4  5  1  0
  5  6  1  0
  6  7  1  0
  7  8  2  0
  8  9  1  0
  9 10  2  0
 10 11  1  0
 11 12  1  0
 11 13  2  0
 13 14  1  0
 14 15  2  0
 14 16  1  0
 16 17  1  0
  4 18  2  0
 18 19  1  0
 19 20  2  0
 20 21  1  0
 21 22  1  0
 22 23  1  0
 23 24  1  0
 24 25  1  0
 25 26  1  0
 20  2  1  0
 26 21  1  0
 16  5  2  0
 13  7  1  0
  1 27  1  0
  1 28  1  0
  1 29  1  0
  3 30  1  0
  8 31  1  0
  9 32  1  0
 10 33  1  0
 12 34  1  0
 17 35  1  0
 18 36  1  0
 19 37  1  0
 22 38  1  0
 22 39  1  0
 23 40  1  0
 23 41  1  0
 24 42  1  0
 24 43  1  0
 25 44  1  0
 25 45  1  0
 26 46  1  0
 26 47  1  0
M  END
>  <meeko>  (9) 
{"is_sidechain": [false], "free_energy": -7.417, "intermolecular_energy": -8.953, "internal_energy": -0.419}

$$$$
