cand_004_out
     RDKit          3D

 38 40  0  0  0  0  0  0  0  0999 V2000
   67.8940   39.3210   -0.6410 C   0  0  0  0  0  0  0  0  0  0  0  0
   68.9990   38.9740    0.3460 C   0  0  0  0  0  0  0  0  0  0  0  0
   70.3720   39.0780   -0.2840 C   0  0  0  0  0  0  0  0  0  0  0  0
   70.6030   40.1240   -1.2010 C   0  0  0  0  0  0  0  0  0  0  0  0
   71.8370   40.2820   -1.8490 C   0  0  0  0  0  0  0  0  0  0  0  0
   72.0840   41.3920   -2.7920 C   0  0  0  0  0  0  0  0  0  0  0  0
   73.2340   42.1120   -2.4900 O   0  0  0  0  0  0  0  0  0  0  0  0
   73.5820   43.1720   -3.2880 C   0  0  0  0  0  0  0  0  0  0  0  0
   74.7350   43.8760   -2.9390 C   0  0  0  0  0  0  0  0  0  0  0  0
   75.1460   44.9650   -3.7110 C   0  0  0  0  0  0  0  0  0  0  0  0
   74.4040   45.3490   -4.8310 C   0  0  0  0  0  0  0  0  0  0  0  0
   73.2550   44.6450   -5.1760 C   0  0  0  0  0  0  0  0  0  0  0  0
   72.5780   45.0740   -6.2850 O   0  0  0  0  0  0  0  0  0  0  0  0
   72.8430   43.5560   -4.4040 C   0  0  0  0  0  0  0  0  0  0  0  0
   71.6410   42.7880   -4.7320 C   0  0  0  0  0  0  0  0  0  0  0  0
   70.9400   43.0600   -5.7050 O   0  0  0  0  0  0  0  0  0  0  0  0
   71.2870   41.6570   -3.8450 C   0  0  0  0  0  0  0  0  0  0  0  0
   70.1580   40.9300   -4.1700 O   0  0  0  0  0  0  0  0  0  0  0  0
   72.8610   39.3760   -1.5530 C   0  0  0  0  0  0  0  0  0  0  0  0
   72.6500   38.3320   -0.6490 C   0  0  0  0  0  0  0  0  0  0  0  0
   71.4090   38.1610   -0.0090 C   0  0  0  0  0  0  0  0  0  0  0  0
   71.2370   37.0140    0.9660 C   0  0  0  0  0  0  0  0  0  0  0  0
   70.7520   37.4090    2.1750 F   0  0  0  0  0  0  0  0  0  0  0  0
   72.4090   36.3670    1.2220 F   0  0  0  0  0  0  0  0  0  0  0  0
   70.3770   36.0520    0.5260 F   0  0  0  0  0  0  0  0  0  0  0  0
   66.9860   39.6061   -0.0895 H   0  0  0  0  0  0  0  0  0  0  0  0
   68.2177   40.1607   -1.2735 H   0  0  0  0  0  0  0  0  0  0  0  0
   67.6795   38.4470   -1.2735 H   0  0  0  0  0  0  0  0  0  0  0  0
   68.9453   39.6675    1.1982 H   0  0  0  0  0  0  0  0  0  0  0  0
   68.8511   37.9337    0.6714 H   0  0  0  0  0  0  0  0  0  0  0  0
   69.7924   40.8364   -1.4143 H   0  0  0  0  0  0  0  0  0  0  0  0
   75.3193   43.5739   -2.0574 H   0  0  0  0  0  0  0  0  0  0  0  0
   76.0548   45.5209   -3.4370 H   0  0  0  0  0  0  0  0  0  0  0  0
   74.7280   46.2066   -5.4389 H   0  0  0  0  0  0  0  0  0  0  0  0
   72.8910   44.8550   -7.1400 H   0  0  0  0  0  0  0  0  0  0  0  0
   69.3770   41.0230   -3.6610 H   0  0  0  0  0  0  0  0  0  0  0  0
   73.8425   39.4868   -2.0371 H   0  0  0  0  0  0  0  0  0  0  0  0
   73.4695   37.6306   -0.4336 H   0  0  0  0  0  0  0  0  0  0  0  0
  1  2  1  0
  2  3  1  0
  3  4  2  0
  4  5  1  0
  5  6  1  0
  6  7  1  0
  7  8  1  0
  8  9  2  0
  9 10  1  0
 10 11  2  0
 11 12  1  0
 12 13  1  0
 12 14  2  0
 14 15  1  0
 15 16  2  0
 15 17  1  0
 17 18  1  0
  5 19  2  0
 19 20  1  0
 20 21  2  0
 21 22  1  0
 22 23  1  0
 22 24  1  0
 22 25  1  0
 21  3  1  0
 17  6  2  0
 14  8  1  0
  1 26  1  0
  1 27  1  0
  1 28  1  0
  2 29  1  0
  2 30  1  0
  4 31  1  0
  9 32  1  0
 10 33  1  0
 11 34  1  0
 13 35  1  0
 18 36  1  0
 19 37  1  0
 20 38  1  0
M  END
>  <meeko>  (1) 
{"is_sidechain": [false], "free_energy": -8.398, "intermolecular_energy": -10.362, "internal_energy": -0.41}

$$$$
cand_004_out
     RDKit          3D

 38 40  0  0  0  0  0  0  0  0999 V2000
   68.2280   39.7220   -1.0040 C   0  0  0  0  0  0  0  0  0  0  0  0
   69.1010   38.9670   -0.0120 C   0  0  0  0  0  0  0  0  0  0  0  0
   70.5580   38.9720   -0.4250 C   0  0  0  0  0  0  0  0  0  0  0  0
   70.9880   39.9640   -1.3300 C   0  0  0  0  0  0  0  0  0  0  0  0
   72.3130   40.0280   -1.7830 C   0  0  0  0  0  0  0  0  0  0  0  0
   72.7670   41.0810   -2.7150 C   0  0  0  0  0  0  0  0  0  0  0  0
   73.8760   41.7750   -2.2470 O   0  0  0  0  0  0  0  0  0  0  0  0
   74.4020   42.7820   -3.0160 C   0  0  0  0  0  0  0  0  0  0  0  0
   75.5060   43.4630   -2.5010 C   0  0  0  0  0  0  0  0  0  0  0  0
   76.0900   44.4980   -3.2350 C   0  0  0  0  0  0  0  0  0  0  0  0
   75.5700   44.8520   -4.4820 C   0  0  0  0  0  0  0  0  0  0  0  0
   74.4690   44.1710   -4.9930 C   0  0  0  0  0  0  0  0  0  0  0  0
   74.0130   44.5690   -6.2200 O   0  0  0  0  0  0  0  0  0  0  0  0
   73.8850   43.1360   -4.2590 C   0  0  0  0  0  0  0  0  0  0  0  0
   72.7260   42.3950   -4.7590 C   0  0  0  0  0  0  0  0  0  0  0  0
   72.2160   42.6430   -5.8510 O   0  0  0  0  0  0  0  0  0  0  0  0
   72.1760   41.3210   -3.9010 C   0  0  0  0  0  0  0  0  0  0  0  0
   71.0900   40.6180   -4.3880 O   0  0  0  0  0  0  0  0  0  0  0  0
   73.2250   39.0840   -1.3010 C   0  0  0  0  0  0  0  0  0  0  0  0
   72.8170   38.0920   -0.4040 C   0  0  0  0  0  0  0  0  0  0  0  0
   71.4850   38.0150    0.0410 C   0  0  0  0  0  0  0  0  0  0  0  0
   71.0990   36.9220    1.0170 C   0  0  0  0  0  0  0  0  0  0  0  0
   72.1730   36.2590    1.5290 F   0  0  0  0  0  0  0  0  0  0  0  0
   70.3050   35.9710    0.4480 F   0  0  0  0  0  0  0  0  0  0  0  0
   70.4050   37.3790    2.0980 F   0  0  0  0  0  0  0  0  0  0  0  0
   67.5064   40.3461   -0.4565 H   0  0  0  0  0  0  0  0  0  0  0  0
   68.8608   40.3621   -1.6363 H   0  0  0  0  0  0  0  0  0  0  0  0
   67.6858   39.0035   -1.6363 H   0  0  0  0  0  0  0  0  0  0  0  0
   69.0096   39.4422    0.9758 H   0  0  0  0  0  0  0  0  0  0  0  0
   68.7584   37.9221    0.0177 H   0  0  0  0  0  0  0  0  0  0  0  0
   70.2633   40.7087   -1.6907 H   0  0  0  0  0  0  0  0  0  0  0  0
   75.9156   43.1851   -1.5186 H   0  0  0  0  0  0  0  0  0  0  0  0
   76.9606   45.0350   -2.8304 H   0  0  0  0  0  0  0  0  0  0  0  0
   76.0299   45.6677   -5.0593 H   0  0  0  0  0  0  0  0  0  0  0  0
   74.2490   44.0860   -6.9870 H   0  0  0  0  0  0  0  0  0  0  0  0
   70.5380   40.1410   -3.8000 H   0  0  0  0  0  0  0  0  0  0  0  0
   74.2737   39.1221   -1.6307 H   0  0  0  0  0  0  0  0  0  0  0  0
   73.5512   37.3584   -0.0397 H   0  0  0  0  0  0  0  0  0  0  0  0
  1  2  1  0
  2  3  1  0
  3  4  2  0
  4  5  1  0
  5  6  1  0
  6  7  1  0
  7  8  1  0
  8  9  2  0
  9 10  1  0
 10 11  2  0
 11 12  1  0
 12 13  1  0
 12 14  2  0
 14 15  1  0
 15 16  2  0
 15 17  1  0
 17 18  1  0
  5 19  2  0
 19 20  1  0
 20 21  2  0
 21 22  1  0
 22 23  1  0
 22 24  1  0
 22 25  1  0
 21  3  1  0
 17  6  2  0
 14  8  1  0
  1 26  1  0
  1 27  1  0
  1 28  1  0
  2 29  1  0
  2 30  1  0
  4 31  1  0
  9 32  1  0
 10 33  1  0
 11 34  1  0
 13 35  1  0
 18 36  1  0
 19 37  1  0
 20 38  1  0
M  END
>  <meeko>  (2) 
{"is_sidechain": [false], "free_energy": -8.3, "intermolecular_energy": -10.256, "internal_energy": -0.395}

$$$$
cand_004_out
     RDKit          3D

 38 40  0  0  0  0  0  0  0  0999 V2000
   69.8580   42.9970   -1.2680 C   0  0  0  0  0  0  0  0  0  0  0  0
   70.1440   41.7290   -0.4770 C   0  0  0  0  0  0  0  0  0  0  0  0
   71.1460   40.8390   -1.1810 C   0  0  0  0  0  0  0  0  0  0  0  0
   72.0780   41.4450   -2.0480 C   0  0  0  0  0  0  0  0  0  0  0  0
   73.0270   40.6940   -2.7570 C   0  0  0  0  0  0  0  0  0  0  0  0
   74.0170   41.3330   -3.6480 C   0  0  0  0  0  0  0  0  0  0  0  0
   73.4710   41.7400   -4.8590 O   0  0  0  0  0  0  0  0  0  0  0  0
   74.2830   42.3500   -5.7810 C   0  0  0  0  0  0  0  0  0  0  0  0
   73.6970   42.7280   -6.9900 C   0  0  0  0  0  0  0  0  0  0  0  0
   74.4670   43.3560   -7.9720 C   0  0  0  0  0  0  0  0  0  0  0  0
   75.8230   43.6040   -7.7440 C   0  0  0  0  0  0  0  0  0  0  0  0
   76.4050   43.2260   -6.5380 C   0  0  0  0  0  0  0  0  0  0  0  0
   77.7360   43.5000   -6.3820 O   0  0  0  0  0  0  0  0  0  0  0  0
   75.6340   42.5980   -5.5560 C   0  0  0  0  0  0  0  0  0  0  0  0
   76.2060   42.1830   -4.2750 C   0  0  0  0  0  0  0  0  0  0  0  0
   77.3890   42.3740   -3.9970 O   0  0  0  0  0  0  0  0  0  0  0  0
   75.3060   41.5190   -3.3050 C   0  0  0  0  0  0  0  0  0  0  0  0
   75.8520   41.1430   -2.0920 O   0  0  0  0  0  0  0  0  0  0  0  0
   73.0440   39.3070   -2.5760 C   0  0  0  0  0  0  0  0  0  0  0  0
   72.1260   38.6880   -1.7220 C   0  0  0  0  0  0  0  0  0  0  0  0
   71.1640   39.4360   -1.0210 C   0  0  0  0  0  0  0  0  0  0  0  0
   70.1960   38.7140   -0.1060 C   0  0  0  0  0  0  0  0  0  0  0  0
   70.4220   37.3730   -0.0410 F   0  0  0  0  0  0  0  0  0  0  0  0
   68.8990   38.8600   -0.4980 F   0  0  0  0  0  0  0  0  0  0  0  0
   70.2390   39.1520    1.1850 F   0  0  0  0  0  0  0  0  0  0  0  0
   69.6705   43.8285   -0.5727 H   0  0  0  0  0  0  0  0  0  0  0  0
   70.7245   43.2372   -1.9016 H   0  0  0  0  0  0  0  0  0  0  0  0
   68.9723   42.8420   -1.9016 H   0  0  0  0  0  0  0  0  0  0  0  0
   70.5462   42.0075    0.5083 H   0  0  0  0  0  0  0  0  0  0  0  0
   69.2021   41.1697   -0.3769 H   0  0  0  0  0  0  0  0  0  0  0  0
   72.0604   42.5379   -2.1720 H   0  0  0  0  0  0  0  0  0  0  0  0
   72.6297   42.5316   -7.1695 H   0  0  0  0  0  0  0  0  0  0  0  0
   74.0058   43.6552   -8.9247 H   0  0  0  0  0  0  0  0  0  0  0  0
   76.4299   44.0977   -8.5173 H   0  0  0  0  0  0  0  0  0  0  0  0
   78.1820   44.0320   -7.0110 H   0  0  0  0  0  0  0  0  0  0  0  0
   75.3010   40.8030   -1.4150 H   0  0  0  0  0  0  0  0  0  0  0  0
   73.7870   38.6972   -3.1109 H   0  0  0  0  0  0  0  0  0  0  0  0
   72.1571   37.5956   -1.5964 H   0  0  0  0  0  0  0  0  0  0  0  0
  1  2  1  0
  2  3  1  0
  3  4  2  0
  4  5  1  0
  5  6  1  0
  6  7  1  0
  7  8  1  0
  8  9  2  0
  9 10  1  0
 10 11  2  0
 11 12  1  0
 12 13  1  0
 12 14  2  0
 14 15  1  0
 15 16  2  0
 15 17  1  0
 17 18  1  0
  5 19  2  0
 19 20  1  0
 20 21  2  0
 21 22  1  0
 22 23  1  0
 22 24  1  0
 22 25  1  0
 21  3  1  0
 17  6  2  0
 14  8  1  0
  1 26  1  0
  1 27  1  0
  1 28  1  0
  2 29  1  0
  2 30  1  0
  4 31  1  0
  9 32  1  0
 10 33  1  0
 11 34  1  0
 13 35  1  0
 18 36  1  0
 19 37  1  0
 20 38  1  0
M  END
>  <meeko>  (3) 
{"is_sidechain": [false], "free_energy": -8.264, "intermolecular_energy": -10.009, "internal_energy": -0.598}

$$$$
cand_004_out
     RDKit          3D

 38 40  0  0  0  0  0  0  0  0999 V2000
   73.4490   39.3870   -1.3130 C   0  0  0  0  0  0  0  0  0  0  0  0
   72.6890   39.3570    0.0060 C   0  0  0  0  0  0  0  0  0  0  0  0
   71.1910   39.3150   -0.2070 C   0  0  0  0  0  0  0  0  0  0  0  0
   70.5970   40.3580   -0.9480 C   0  0  0  0  0  0  0  0  0  0  0  0
   69.2140   40.4100   -1.1740 C   0  0  0  0  0  0  0  0  0  0  0  0
   68.5960   41.4920   -1.9690 C   0  0  0  0  0  0  0  0  0  0  0  0
   67.7040   42.2620   -1.2320 O   0  0  0  0  0  0  0  0  0  0  0  0
   67.0600   43.3030   -1.8510 C   0  0  0  0  0  0  0  0  0  0  0  0
   66.1610   44.0410   -1.0780 C   0  0  0  0  0  0  0  0  0  0  0  0
   65.4730   45.1150   -1.6450 C   0  0  0  0  0  0  0  0  0  0  0  0
   65.6820   45.4510   -2.9850 C   0  0  0  0  0  0  0  0  0  0  0  0
   66.5780   44.7140   -3.7530 C   0  0  0  0  0  0  0  0  0  0  0  0
   66.7350   45.0980   -5.0570 O   0  0  0  0  0  0  0  0  0  0  0  0
   67.2670   43.6390   -3.1860 C   0  0  0  0  0  0  0  0  0  0  0  0
   68.2170   42.8380   -3.9580 C   0  0  0  0  0  0  0  0  0  0  0  0
   68.4600   43.0750   -5.1400 O   0  0  0  0  0  0  0  0  0  0  0  0
   68.8890   41.7150   -3.2640 C   0  0  0  0  0  0  0  0  0  0  0  0
   69.7950   40.9730   -3.9980 O   0  0  0  0  0  0  0  0  0  0  0  0
   68.4180   39.3830   -0.6570 C   0  0  0  0  0  0  0  0  0  0  0  0
   68.9880   38.3420    0.0820 C   0  0  0  0  0  0  0  0  0  0  0  0
   70.3730   38.2940    0.3240 C   0  0  0  0  0  0  0  0  0  0  0  0
   70.9380   37.1400    1.1270 C   0  0  0  0  0  0  0  0  0  0  0  0
   70.3040   35.9600    0.8850 F   0  0  0  0  0  0  0  0  0  0  0  0
   70.8510   37.3480    2.4710 F   0  0  0  0  0  0  0  0  0  0  0  0
   72.2580   36.9010    0.8790 F   0  0  0  0  0  0  0  0  0  0  0  0
   74.5297   39.4297   -1.1126 H   0  0  0  0  0  0  0  0  0  0  0  0
   73.2186   38.4791   -1.8897 H   0  0  0  0  0  0  0  0  0  0  0  0
   73.1477   40.2740   -1.8897 H   0  0  0  0  0  0  0  0  0  0  0  0
   72.9931   38.4638    0.5715 H   0  0  0  0  0  0  0  0  0  0  0  0
   72.9292   40.2770    0.5590 H   0  0  0  0  0  0  0  0  0  0  0  0
   71.2364   41.1526   -1.3600 H   0  0  0  0  0  0  0  0  0  0  0  0
   65.9953   43.7762   -0.0233 H   0  0  0  0  0  0  0  0  0  0  0  0
   64.7656   45.6974   -1.0363 H   0  0  0  0  0  0  0  0  0  0  0  0
   65.1391   46.2968   -3.4320 H   0  0  0  0  0  0  0  0  0  0  0  0
   66.1040   44.8430   -5.7000 H   0  0  0  0  0  0  0  0  0  0  0  0
   69.5020   40.2350   -4.4970 H   0  0  0  0  0  0  0  0  0  0  0  0
   67.3323   39.3943   -0.8336 H   0  0  0  0  0  0  0  0  0  0  0  0
   68.3420   37.5463    0.4813 H   0  0  0  0  0  0  0  0  0  0  0  0
  1  2  1  0
  2  3  1  0
  3  4  2  0
  4  5  1  0
  5  6  1  0
  6  7  1  0
  7  8  1  0
  8  9  2  0
  9 10  1  0
 10 11  2  0
 11 12  1  0
 12 13  1  0
 12 14  2  0
 14 15  1  0
 15 16  2  0
 15 17  1  0
 17 18  1  0
  5 19  2  0
 19 20  1  0
 20 21  2  0
 21 22  1  0
 22 23  1  0
 22 24  1  0
 22 25  1  0
 21  3  1  0
 17  6  2  0
 14  8  1  0
  1 26  1  0
  1 27  1  0
  1 28  1  0
  2 29  1  0
  2 30  1  0
  4 31  1  0
  9 32  1  0
 10 33  1  0
 11 34  1  0
 13 35  1  0
 18 36  1  0
 19 37  1  0
 20 38  1  0
M  END
>  <meeko>  (4) 
{"is_sidechain": [false], "free_energy": -8.109, "intermolecular_energy": -10.219, "internal_energy": -0.195}

$$$$
cand_004_out
     RDKit          3D

 38 40  0  0  0  0  0  0  0  0999 V2000
   73.0030   37.5690   -0.1250 C   0  0  0  0  0  0  0  0  0  0  0  0
   72.6290   38.9640    0.3550 C   0  0  0  0  0  0  0  0  0  0  0  0
   71.6990   39.6640   -0.6130 C   0  0  0  0  0  0  0  0  0  0  0  0
   72.2720   40.4920   -1.6010 C   0  0  0  0  0  0  0  0  0  0  0  0
   71.4850   41.1960   -2.5240 C   0  0  0  0  0  0  0  0  0  0  0  0
   72.0880   42.0450   -3.5710 C   0  0  0  0  0  0  0  0  0  0  0  0
   72.3420   43.3410   -3.1360 O   0  0  0  0  0  0  0  0  0  0  0  0
   72.9030   44.2360   -4.0110 C   0  0  0  0  0  0  0  0  0  0  0  0
   73.1270   45.5290   -3.5380 C   0  0  0  0  0  0  0  0  0  0  0  0
   73.6970   46.4900   -4.3770 C   0  0  0  0  0  0  0  0  0  0  0  0
   74.0420   46.1560   -5.6890 C   0  0  0  0  0  0  0  0  0  0  0  0
   73.8170   44.8650   -6.1590 C   0  0  0  0  0  0  0  0  0  0  0  0
   74.1790   44.6070   -7.4530 O   0  0  0  0  0  0  0  0  0  0  0  0
   73.2470   43.9050   -5.3190 C   0  0  0  0  0  0  0  0  0  0  0  0
   72.9930   42.5370   -5.7730 C   0  0  0  0  0  0  0  0  0  0  0  0
   73.2750   42.1650   -6.9110 O   0  0  0  0  0  0  0  0  0  0  0  0
   72.3780   41.5980   -4.8080 C   0  0  0  0  0  0  0  0  0  0  0  0
   72.1550   40.3040   -5.2420 O   0  0  0  0  0  0  0  0  0  0  0  0
   70.0960   41.0480   -2.4580 C   0  0  0  0  0  0  0  0  0  0  0  0
   69.5100   40.2330   -1.4850 C   0  0  0  0  0  0  0  0  0  0  0  0
   70.2950   39.5380   -0.5480 C   0  0  0  0  0  0  0  0  0  0  0  0
   69.6070   38.6650    0.4820 C   0  0  0  0  0  0  0  0  0  0  0  0
   69.8400   37.3370    0.2970 F   0  0  0  0  0  0  0  0  0  0  0  0
   68.2530   38.8160    0.4730 F   0  0  0  0  0  0  0  0  0  0  0  0
   69.9960   38.9270    1.7630 F   0  0  0  0  0  0  0  0  0  0  0  0
   73.1778   36.9170    0.7435 H   0  0  0  0  0  0  0  0  0  0  0  0
   72.1832   37.1583   -0.7327 H   0  0  0  0  0  0  0  0  0  0  0  0
   73.9183   37.6235   -0.7327 H   0  0  0  0  0  0  0  0  0  0  0  0
   72.1295   38.8820    1.3316 H   0  0  0  0  0  0  0  0  0  0  0  0
   73.5522   39.5574    0.4301 H   0  0  0  0  0  0  0  0  0  0  0  0
   73.3667   40.5882   -1.6488 H   0  0  0  0  0  0  0  0  0  0  0  0
   72.8551   45.7919   -2.5051 H   0  0  0  0  0  0  0  0  0  0  0  0
   73.8741   47.5097   -4.0044 H   0  0  0  0  0  0  0  0  0  0  0  0
   74.4909   46.9122   -6.3498 H   0  0  0  0  0  0  0  0  0  0  0  0
   74.3290   45.3150   -8.0470 H   0  0  0  0  0  0  0  0  0  0  0  0
   72.2200   39.5900   -4.6390 H   0  0  0  0  0  0  0  0  0  0  0  0
   69.4575   41.5787   -3.1796 H   0  0  0  0  0  0  0  0  0  0  0  0
   68.4150   40.1336   -1.4518 H   0  0  0  0  0  0  0  0  0  0  0  0
  1  2  1  0
  2  3  1  0
  3  4  2  0
  4  5  1  0
  5  6  1  0
  6  7  1  0
  7  8  1  0
  8  9  2  0
  9 10  1  0
 10 11  2  0
 11 12  1  0
 12 13  1  0
 12 14  2  0
 14 15  1  0
 15 16  2  0
 15 17  1  0
 17 18  1  0
  5 19  2  0
 19 20  1  0
 20 21  2  0
 21 22  1  0
 22 23  1  0
 22 24  1  0
 22 25  1  0
 21  3  1  0
 17  6  2  0
 14  8  1  0
  1 26  1  0
  1 27  1  0
  1 28  1  0
  2 29  1  0
  2 30  1  0
  4 31  1  0
  9 32  1  0
 10 33  1  0
 11 34  1  0
 13 35  1  0
 18 36  1  0
 19 37  1  0
 20 38  1  0
M  END
>  <meeko>  (5) 
{"is_sidechain": [false], "free_energy": -7.942, "intermolecular_energy": -9.566, "internal_energy": -0.644}

$$$$
cand_004_out
     RDKit          3D

 38 40  0  0  0  0  0  0  0  0999 V2000
   76.4500   42.8380   -1.6820 C   0  0  0  0  0  0  0  0  0  0  0  0
   75.8080   43.6290   -2.8130 C   0  0  0  0  0  0  0  0  0  0  0  0
   74.6290   42.8970   -3.4150 C   0  0  0  0  0  0  0  0  0  0  0  0
   73.8750   42.0500   -2.5760 C   0  0  0  0  0  0  0  0  0  0  0  0
   72.7800   41.3170   -3.0560 C   0  0  0  0  0  0  0  0  0  0  0  0
   71.9780   40.4470   -2.1700 C   0  0  0  0  0  0  0  0  0  0  0  0
   70.6260   40.7680   -2.1780 O   0  0  0  0  0  0  0  0  0  0  0  0
   69.7660   40.0370   -1.3990 C   0  0  0  0  0  0  0  0  0  0  0  0
   68.4200   40.4030   -1.4250 C   0  0  0  0  0  0  0  0  0  0  0  0
   67.4910   39.6980   -0.6550 C   0  0  0  0  0  0  0  0  0  0  0  0
   67.9090   38.6290    0.1400 C   0  0  0  0  0  0  0  0  0  0  0  0
   69.2530   38.2660    0.1650 C   0  0  0  0  0  0  0  0  0  0  0  0
   69.5920   37.2090    0.9650 O   0  0  0  0  0  0  0  0  0  0  0  0
   70.1810   38.9710   -0.6050 C   0  0  0  0  0  0  0  0  0  0  0  0
   71.6030   38.6230   -0.6080 C   0  0  0  0  0  0  0  0  0  0  0  0
   72.0470   37.6910    0.0600 O   0  0  0  0  0  0  0  0  0  0  0  0
   72.5060   39.4380   -1.4520 C   0  0  0  0  0  0  0  0  0  0  0  0
   73.8450   39.0920   -1.4590 O   0  0  0  0  0  0  0  0  0  0  0  0
   72.4300   41.4530   -4.4030 C   0  0  0  0  0  0  0  0  0  0  0  0
   73.1660   42.2860   -5.2500 C   0  0  0  0  0  0  0  0  0  0  0  0
   74.2740   43.0120   -4.7770 C   0  0  0  0  0  0  0  0  0  0  0  0
   75.0340   43.9030   -5.7380 C   0  0  0  0  0  0  0  0  0  0  0  0
   75.0280   45.2130   -5.3700 F   0  0  0  0  0  0  0  0  0  0  0  0
   74.5220   43.8630   -7.0010 F   0  0  0  0  0  0  0  0  0  0  0  0
   76.3490   43.5670   -5.8660 F   0  0  0  0  0  0  0  0  0  0  0  0
   76.1190   43.2458   -0.7155 H   0  0  0  0  0  0  0  0  0  0  0  0
   76.1501   41.7823   -1.7566 H   0  0  0  0  0  0  0  0  0  0  0  0
   77.5448   42.9143   -1.7566 H   0  0  0  0  0  0  0  0  0  0  0  0
   75.4626   44.5962   -2.4191 H   0  0  0  0  0  0  0  0  0  0  0  0
   76.5616   43.7684   -3.6020 H   0  0  0  0  0  0  0  0  0  0  0  0
   74.1537   41.9620   -1.5155 H   0  0  0  0  0  0  0  0  0  0  0  0
   68.0904   41.2454   -2.0508 H   0  0  0  0  0  0  0  0  0  0  0  0
   66.4294   39.9855   -0.6753 H   0  0  0  0  0  0  0  0  0  0  0  0
   67.1774   38.0743    0.7458 H   0  0  0  0  0  0  0  0  0  0  0  0
   69.2580   37.1560    1.8380 H   0  0  0  0  0  0  0  0  0  0  0  0
   74.1330   38.3220   -1.0090 H   0  0  0  0  0  0  0  0  0  0  0  0
   71.5667   40.8987   -4.7999 H   0  0  0  0  0  0  0  0  0  0  0  0
   72.8733   42.3756   -6.3065 H   0  0  0  0  0  0  0  0  0  0  0  0
  1  2  1  0
  2  3  1  0
  3  4  2  0
  4  5  1  0
  5  6  1  0
  6  7  1  0
  7  8  1  0
  8  9  2  0
  9 10  1  0
 10 11  2  0
 11 12  1  0
 12 13  1  0
 12 14  2  0
 14 15  1  0
 15 16  2  0
 15 17  1  0
 17 18  1  0
  5 19  2  0
 19 20  1  0
 20 21  2  0
 21 22  1  0
 22 23  1  0
 22 24  1  0
 22 25  1  0
 21  3  1  0
 17  6  2  0
 14  8  1  0
  1 26  1  0
  1 27  1  0
  1 28  1  0
  2 29  1  0
  2 30  1  0
  4 31  1  0
  9 32  1  0
 10 33  1  0
 11 34  1  0
 13 35  1  0
 18 36  1  0
 19 37  1  0
 20 38  1  0
M  END
>  <meeko>  (6) 
{"is_sidechain": [false], "free_energy": -7.829, "intermolecular_energy": -9.6, "internal_energy": -0.47}

$$$$
cand_004_out
     RDKit          3D

 38 40  0  0  0  0  0  0  0  0999 V2000
   70.3620   37.6570    0.6500 C   0  0  0  0  0  0  0  0  0  0  0  0
   69.5950   38.9670    0.7640 C   0  0  0  0  0  0  0  0  0  0  0  0
   69.7170   39.8040   -0.4910 C   0  0  0  0  0  0  0  0  0  0  0  0
   70.9730   40.3700   -0.7910 C   0  0  0  0  0  0  0  0  0  0  0  0
   71.1700   41.1780   -1.9210 C   0  0  0  0  0  0  0  0  0  0  0  0
   72.4920   41.7520   -2.2450 C   0  0  0  0  0  0  0  0  0  0  0  0
   72.4270   43.0970   -2.5900 O   0  0  0  0  0  0  0  0  0  0  0  0
   73.5860   43.7550   -2.9150 C   0  0  0  0  0  0  0  0  0  0  0  0
   73.4720   45.1000   -3.2700 C   0  0  0  0  0  0  0  0  0  0  0  0
   74.6140   45.8300   -3.6100 C   0  0  0  0  0  0  0  0  0  0  0  0
   75.8680   45.2140   -3.5950 C   0  0  0  0  0  0  0  0  0  0  0  0
   75.9780   43.8730   -3.2400 C   0  0  0  0  0  0  0  0  0  0  0  0
   77.2350   43.3340   -3.2460 O   0  0  0  0  0  0  0  0  0  0  0  0
   74.8360   43.1430   -2.9000 C   0  0  0  0  0  0  0  0  0  0  0  0
   74.9070   41.7310   -2.5220 C   0  0  0  0  0  0  0  0  0  0  0  0
   75.9740   41.1220   -2.4780 O   0  0  0  0  0  0  0  0  0  0  0  0
   73.6380   41.0470   -2.1870 C   0  0  0  0  0  0  0  0  0  0  0  0
   73.7170   39.7170   -1.8180 O   0  0  0  0  0  0  0  0  0  0  0  0
   70.0830   41.4040   -2.7710 C   0  0  0  0  0  0  0  0  0  0  0  0
   68.8300   40.8530   -2.4900 C   0  0  0  0  0  0  0  0  0  0  0  0
   68.6250   40.0550   -1.3490 C   0  0  0  0  0  0  0  0  0  0  0  0
   67.2460   39.4790   -1.0950 C   0  0  0  0  0  0  0  0  0  0  0  0
   67.2470   38.4820   -0.1680 F   0  0  0  0  0  0  0  0  0  0  0  0
   66.6870   38.9490   -2.2190 F   0  0  0  0  0  0  0  0  0  0  0  0
   66.3490   40.3990   -0.6390 F   0  0  0  0  0  0  0  0  0  0  0  0
   70.5860   37.2745    1.6567 H   0  0  0  0  0  0  0  0  0  0  0  0
   69.7521   36.9212    0.1055 H   0  0  0  0  0  0  0  0  0  0  0  0
   71.3022   37.8288    0.1055 H   0  0  0  0  0  0  0  0  0  0  0  0
   68.5326   38.7428    0.9399 H   0  0  0  0  0  0  0  0  0  0  0  0
   70.0230   39.5408    1.5992 H   0  0  0  0  0  0  0  0  0  0  0  0
   71.8223   40.1726   -0.1203 H   0  0  0  0  0  0  0  0  0  0  0  0
   72.4846   45.5847   -3.2821 H   0  0  0  0  0  0  0  0  0  0  0  0
   74.5257   46.8902   -3.8896 H   0  0  0  0  0  0  0  0  0  0  0  0
   76.7670   45.7882   -3.8634 H   0  0  0  0  0  0  0  0  0  0  0  0
   77.8670   43.6240   -3.8740 H   0  0  0  0  0  0  0  0  0  0  0  0
   74.3490   39.1550   -2.2210 H   0  0  0  0  0  0  0  0  0  0  0  0
   70.2157   42.0224   -3.6709 H   0  0  0  0  0  0  0  0  0  0  0  0
   67.9892   41.0463   -3.1725 H   0  0  0  0  0  0  0  0  0  0  0  0
  1  2  1  0
  2  3  1  0
  3  4  2  0
  4  5  1  0
  5  6  1  0
  6  7  1  0
  7  8  1  0
  8  9  2  0
  9 10  1  0
 10 11  2  0
 11 12  1  0
 12 13  1  0
 12 14  2  0
 14 15  1  0
 15 16  2  0
 15 17  1  0
 17 18  1  0
  5 19  2  0
 19 20  1  0
 20 21  2  0
 21 22  1  0
 22 23  1  0
 22 24  1  0
 22 25  1  0
 21  3  1  0
 17  6  2  0
 14  8  1  0
  1 26  1  0
  1 27  1  0
  1 28  1  0
  2 29  1  0
  2 30  1  0
  4 31  1  0
  9 32  1  0
 10 33  1  0
 11 34  1  0
 13 35  1  0
 18 36  1  0
 19 37  1  0
 20 38  1  0
M  END
>  <meeko>  (7) 
{"is_sidechain": [false], "free_energy": -7.794, "intermolecular_energy": -10.106, "internal_energy": 0.081}

$$$$
cand_004_out
     RDKit          3D

 38 40  0  0  0  0  0  0  0  0999 V2000
   76.2230   42.4700   -1.6860 C   0  0  0  0  0  0  0  0  0  0  0  0
   75.4910   43.5600   -2.4570 C   0  0  0  0  0  0  0  0  0  0  0  0
   74.4610   42.9850   -3.4060 C   0  0  0  0  0  0  0  0  0  0  0  0
   73.2560   42.4970   -2.8600 C   0  0  0  0  0  0  0  0  0  0  0  0
   72.2570   41.9280   -3.6630 C   0  0  0  0  0  0  0  0  0  0  0  0
   70.9850   41.4380   -3.0920 C   0  0  0  0  0  0  0  0  0  0  0  0
   71.1720   40.5830   -2.0120 O   0  0  0  0  0  0  0  0  0  0  0  0
   70.0720   40.0550   -1.3870 C   0  0  0  0  0  0  0  0  0  0  0  0
   70.3060   39.1890   -0.3170 C   0  0  0  0  0  0  0  0  0  0  0  0
   69.2290   38.6170    0.3650 C   0  0  0  0  0  0  0  0  0  0  0  0
   67.9190   38.9110   -0.0230 C   0  0  0  0  0  0  0  0  0  0  0  0
   67.6890   39.7750   -1.0900 C   0  0  0  0  0  0  0  0  0  0  0  0
   66.3830   40.0200   -1.4160 O   0  0  0  0  0  0  0  0  0  0  0  0
   68.7660   40.3460   -1.7720 C   0  0  0  0  0  0  0  0  0  0  0  0
   68.5690   41.2590   -2.8990 C   0  0  0  0  0  0  0  0  0  0  0  0
   67.4470   41.5720   -3.2950 O   0  0  0  0  0  0  0  0  0  0  0  0
   69.7770   41.8040   -3.5590 C   0  0  0  0  0  0  0  0  0  0  0  0
   69.5800   42.6760   -4.6140 O   0  0  0  0  0  0  0  0  0  0  0  0
   72.4720   41.8650   -5.0430 C   0  0  0  0  0  0  0  0  0  0  0  0
   73.6610   42.3420   -5.6020 C   0  0  0  0  0  0  0  0  0  0  0  0
   74.6720   42.8990   -4.7990 C   0  0  0  0  0  0  0  0  0  0  0  0
   75.9390   43.4040   -5.4580 C   0  0  0  0  0  0  0  0  0  0  0  0
   75.9440   43.2310   -6.8090 F   0  0  0  0  0  0  0  0  0  0  0  0
   77.0550   42.7760   -4.9940 F   0  0  0  0  0  0  0  0  0  0  0  0
   76.1610   44.7350   -5.2620 F   0  0  0  0  0  0  0  0  0  0  0  0
   76.1065   42.6435   -0.6060 H   0  0  0  0  0  0  0  0  0  0  0  0
   75.8001   41.4888   -1.9475 H   0  0  0  0  0  0  0  0  0  0  0  0
   77.2913   42.4903   -1.9475 H   0  0  0  0  0  0  0  0  0  0  0  0
   74.9837   44.2229   -1.7406 H   0  0  0  0  0  0  0  0  0  0  0  0
   76.2323   44.1131   -3.0525 H   0  0  0  0  0  0  0  0  0  0  0  0
   73.0951   42.5645   -1.7739 H   0  0  0  0  0  0  0  0  0  0  0  0
   71.3370   38.9574   -0.0113 H   0  0  0  0  0  0  0  0  0  0  0  0
   69.4124   37.9347    1.2081 H   0  0  0  0  0  0  0  0  0  0  0  0
   67.0711   38.4605    0.5138 H   0  0  0  0  0  0  0  0  0  0  0  0
   65.7120   39.4310   -1.1330 H   0  0  0  0  0  0  0  0  0  0  0  0
   69.6780   42.3740   -5.4960 H   0  0  0  0  0  0  0  0  0  0  0  0
   71.6975   41.4357   -5.6956 H   0  0  0  0  0  0  0  0  0  0  0  0
   73.8086   42.2805   -6.6903 H   0  0  0  0  0  0  0  0  0  0  0  0
  1  2  1  0
  2  3  1  0
  3  4  2  0
  4  5  1  0
  5  6  1  0
  6  7  1  0
  7  8  1  0
  8  9  2  0
  9 10  1  0
 10 11  2  0
 11 12  1  0
 12 13  1  0
 12 14  2  0
 14 15  1  0
 15 16  2  0
 15 17  1  0
 17 18  1  0
  5 19  2  0
 19 20  1  0
 20 21  2  0
 21 22  1  0
 22 23  1  0
 22 24  1  0
 22 25  1  0
 21  3  1  0
 17  6  2  0
 14  8  1  0
  1 26  1  0
  1 27  1  0
  1 28  1  0
  2 29  1  0
  2 30  1  0
  4 31  1  0
  9 32  1  0
 10 33  1  0
 11 34  1  0
 13 35  1  0
 18 36  1  0
 19 37  1  0
 20 38  1  0
M  END
>  <meeko>  (8) 
{"is_sidechain": [false], "free_energy": -7.776, "intermolecular_energy": -9.575, "internal_energy": -0.429}

$$$$
cand_004_out
     RDKit          3D

 38 40  0  0  0  0  0  0  0  0999 V2000
   76.3250   43.0150   -1.8840 C   0  0  0  0  0  0  0  0  0  0  0  0
   75.4890   43.8730   -2.8220 C   0  0  0  0  0  0  0  0  0  0  0  0
   74.3550   43.0880   -3.4460 C   0  0  0  0  0  0  0  0  0  0  0  0
   73.6000   42.2380   -2.6110 C   0  0  0  0  0  0  0  0  0  0  0  0
   72.5460   41.4580   -3.1090 C   0  0  0  0  0  0  0  0  0  0  0  0
   71.7420   40.5840   -2.2300 C   0  0  0  0  0  0  0  0  0  0  0  0
   72.4860   39.5550   -1.6650 O   0  0  0  0  0  0  0  0  0  0  0  0
   71.8610   38.6680   -0.8250 C   0  0  0  0  0  0  0  0  0  0  0  0
   72.6410   37.6410   -0.2930 C   0  0  0  0  0  0  0  0  0  0  0  0
   72.0670   36.7060    0.5710 C   0  0  0  0  0  0  0  0  0  0  0  0
   70.7130   36.7980    0.9010 C   0  0  0  0  0  0  0  0  0  0  0  0
   69.9370   37.8230    0.3690 C   0  0  0  0  0  0  0  0  0  0  0  0
   68.6190   37.8540    0.7350 O   0  0  0  0  0  0  0  0  0  0  0  0
   70.5110   38.7580   -0.4950 C   0  0  0  0  0  0  0  0  0  0  0  0
   69.7310   39.8510   -1.0780 C   0  0  0  0  0  0  0  0  0  0  0  0
   68.5360   40.0030   -0.8290 O   0  0  0  0  0  0  0  0  0  0  0  0
   70.4330   40.7850   -1.9880 C   0  0  0  0  0  0  0  0  0  0  0  0
   69.6910   41.8220   -2.5220 O   0  0  0  0  0  0  0  0  0  0  0  0
   72.2390   41.5500   -4.4710 C   0  0  0  0  0  0  0  0  0  0  0  0
   72.9780   42.3850   -5.3140 C   0  0  0  0  0  0  0  0  0  0  0  0
   74.0450   43.1580   -4.8210 C   0  0  0  0  0  0  0  0  0  0  0  0
   74.8080   44.0500   -5.7790 C   0  0  0  0  0  0  0  0  0  0  0  0
   74.3210   44.0100   -7.0490 F   0  0  0  0  0  0  0  0  0  0  0  0
   76.1250   43.7130   -5.8680 F   0  0  0  0  0  0  0  0  0  0  0  0
   74.7910   45.3670   -5.4250 F   0  0  0  0  0  0  0  0  0  0  0  0
   76.0803   43.2662   -0.8414 H   0  0  0  0  0  0  0  0  0  0  0  0
   76.1063   41.9525   -2.0662 H   0  0  0  0  0  0  0  0  0  0  0  0
   77.3928   43.2060   -2.0662 H   0  0  0  0  0  0  0  0  0  0  0  0
   75.0677   44.7149   -2.2531 H   0  0  0  0  0  0  0  0  0  0  0  0
   76.1429   44.2289   -3.6318 H   0  0  0  0  0  0  0  0  0  0  0  0
   73.8446   42.1854   -1.5398 H   0  0  0  0  0  0  0  0  0  0  0  0
   73.7071   37.5678   -0.5538 H   0  0  0  0  0  0  0  0  0  0  0  0
   72.6816   35.8966    0.9919 H   0  0  0  0  0  0  0  0  0  0  0  0
   70.2606   36.0609    1.5807 H   0  0  0  0  0  0  0  0  0  0  0  0
   68.1480   37.0530    0.8580 H   0  0  0  0  0  0  0  0  0  0  0  0
   69.1920   41.6870   -3.3030 H   0  0  0  0  0  0  0  0  0  0  0  0
   71.4075   40.9591   -4.8827 H   0  0  0  0  0  0  0  0  0  0  0  0
   72.7206   42.4386   -6.3821 H   0  0  0  0  0  0  0  0  0  0  0  0
  1  2  1  0
  2  3  1  0
  3  4  2  0
  4  5  1  0
  5  6  1  0
  6  7  1  0
  7  8  1  0
  8  9  2  0
  9 10  1  0
 10 11  2  0
 11 12  1  0
 12 13  1  0
 12 14  2  0
 14 15  1  0
 15 16  2  0
 15 17  1  0
 17 18  1  0
  5 19  2  0
 19 20  1  0
 20 21  2  0
 21 22  1  0
 22 23  1  0
 22 24  1  0
 22 25  1  0
 21  3  1  0
 17  6  2  0
 14  8  1  0
  1 26  1  0
  1 27  1  0
  1 28  1  0
  2 29  1  0
  2 30  1  0
  4 31  1  0
  9 32  1  0
 10 33  1  0
 11 34  1  0
 13 35  1  0
 18 36  1  0
 19 37  1  0
 20 38  1  0
M  END
>  <meeko>  (9) 
{"is_sidechain": [false], "free_energy": -7.769, "intermolecular_energy": -9.47, "internal_energy": -0.526}

$$$$
