cand_001_out
     RDKit          3D

 45 48  0  0  0  0  0  0  0  0999 V2000
   67.9530   40.4840   -2.3070 C   0  0  0  0  0  0  0  0  0  0  0  0
   69.3560   41.0010   -2.4720 C   0  0  0  0  0  0  0  0  0  0  0  0
   69.6950   41.6540   -3.6670 C   0  0  0  0  0  0  0  0  0  0  0  0
   70.9750   42.1800   -3.8610 C   0  0  0  0  0  0  0  0  0  0  0  0
   71.9470   42.0790   -2.8620 C   0  0  0  0  0  0  0  0  0  0  0  0
   73.3000   42.6300   -3.0910 C   0  0  0  0  0  0  0  0  0  0  0  0
   73.3280   44.0200   -3.0680 O   0  0  0  0  0  0  0  0  0  0  0  0
   74.5240   44.6620   -3.2670 C   0  0  0  0  0  0  0  0  0  0  0  0
   74.5050   46.0570   -3.2510 C   0  0  0  0  0  0  0  0  0  0  0  0
   75.6880   46.7730   -3.4450 C   0  0  0  0  0  0  0  0  0  0  0  0
   76.8890   46.0940   -3.6550 C   0  0  0  0  0  0  0  0  0  0  0  0
   76.9070   44.7020   -3.6700 C   0  0  0  0  0  0  0  0  0  0  0  0
   78.1180   44.1020   -3.8800 O   0  0  0  0  0  0  0  0  0  0  0  0
   75.7220   43.9860   -3.4760 C   0  0  0  0  0  0  0  0  0  0  0  0
   75.6970   42.5230   -3.4850 C   0  0  0  0  0  0  0  0  0  0  0  0
   76.7140   41.8540   -3.6550 O   0  0  0  0  0  0  0  0  0  0  0  0
   74.3870   41.8600   -3.2780 C   0  0  0  0  0  0  0  0  0  0  0  0
   74.3770   40.4770   -3.2750 O   0  0  0  0  0  0  0  0  0  0  0  0
   71.6110   41.4230   -1.6700 C   0  0  0  0  0  0  0  0  0  0  0  0
   70.3230   40.8890   -1.4530 C   0  0  0  0  0  0  0  0  0  0  0  0
   70.0350   40.2260   -0.1190 C   0  0  0  0  0  0  0  0  0  0  0  0
   70.6850   38.8740    0.0780 C   0  0  0  0  0  0  0  0  0  0  0  0
   71.9540   38.6170   -0.4640 C   0  0  0  0  0  0  0  0  0  0  0  0
   72.5740   37.3810   -0.2680 C   0  0  0  0  0  0  0  0  0  0  0  0
   71.9380   36.3910    0.4770 C   0  0  0  0  0  0  0  0  0  0  0  0
   70.6840   36.6370    1.0310 C   0  0  0  0  0  0  0  0  0  0  0  0
   70.0630   37.8720    0.8380 C   0  0  0  0  0  0  0  0  0  0  0  0
   67.7178   40.3973   -1.2359 H   0  0  0  0  0  0  0  0  0  0  0  0
   67.2471   41.1811   -2.7822 H   0  0  0  0  0  0  0  0  0  0  0  0
   67.8682   39.4956   -2.7822 H   0  0  0  0  0  0  0  0  0  0  0  0
   68.9420   41.7533   -4.4627 H   0  0  0  0  0  0  0  0  0  0  0  0
   71.2201   42.6789   -4.8102 H   0  0  0  0  0  0  0  0  0  0  0  0
   73.5585   46.5925   -3.0856 H   0  0  0  0  0  0  0  0  0  0  0  0
   75.6733   47.8728   -3.4323 H   0  0  0  0  0  0  0  0  0  0  0  0
   77.8207   46.6582   -3.8086 H   0  0  0  0  0  0  0  0  0  0  0  0
   78.3890   43.3900   -3.3340 H   0  0  0  0  0  0  0  0  0  0  0  0
   74.3110   40.0070   -4.0820 H   0  0  0  0  0  0  0  0  0  0  0  0
   72.3720   41.3216   -0.8822 H   0  0  0  0  0  0  0  0  0  0  0  0
   70.3912   40.8950    0.6782 H   0  0  0  0  0  0  0  0  0  0  0  0
   68.9493   40.0515   -0.0911 H   0  0  0  0  0  0  0  0  0  0  0  0
   72.4649   39.3963   -1.0485 H   0  0  0  0  0  0  0  0  0  0  0  0
   73.5661   37.1892   -0.7027 H   0  0  0  0  0  0  0  0  0  0  0  0
   72.4252   35.4164    0.6277 H   0  0  0  0  0  0  0  0  0  0  0  0
   70.1821   35.8565    1.6217 H   0  0  0  0  0  0  0  0  0  0  0  0
   69.0764   38.0616    1.2861 H   0  0  0  0  0  0  0  0  0  0  0  0
  1  2  1  0
  2  3  2  0
  3  4  1  0
  4  5  2  0
  5  6  1  0
  6  7  1  0
  7  8  1  0
  8  9  2  0
  9 10  1  0
 10 11  2  0
 11 12  1  0
 12 13  1  0
 12 14  2  0
 14 15  1  0
 15 16  2  0
 15 17  1  0
 17 18  1  0
  5 19  1  0
 19 20  2  0
 20 21  1  0
 21 22  1  0
 22 23  2  0
 23 24  1  0
 24 25  2  0
 25 26  1  0
 26 27  2  0
 20  2  1  0
 27 22  1  0
 17  6  2  0
 14  8  1  0
  1 28  1  0
  1 29  1  0
  1 30  1  0
  3 31  1  0
  4 32  1  0
  9 33  1  0
 10 34  1  0
 11 35  1  0
 13 36  1  0
 18 37  1  0
 19 38  1  0
 21 39  1  0
 21 40  1  0
 23 41  1  0
 24 42  1  0
 25 43  1  0
 26 44  1  0
 27 45  1  0
M  END
>  <meeko>  (1) 
{"is_sidechain": [false], "free_energy": -8.847, "intermolecular_energy": -10.915, "internal_energy": -0.576}

$$$$
cand_001_out
     RDKit          3D

 45 48  0  0  0  0  0  0  0  0999 V2000
   74.4330   41.1120   -2.0060 C   0  0  0  0  0  0  0  0  0  0  0  0
   73.0800   41.5680   -2.4800 C   0  0  0  0  0  0  0  0  0  0  0  0
   72.8560   42.9420   -2.6530 C   0  0  0  0  0  0  0  0  0  0  0  0
   71.6280   43.4180   -3.1190 C   0  0  0  0  0  0  0  0  0  0  0  0
   70.5940   42.5330   -3.4380 C   0  0  0  0  0  0  0  0  0  0  0  0
   69.2960   43.0560   -3.9170 C   0  0  0  0  0  0  0  0  0  0  0  0
   69.3070   43.3670   -5.2720 O   0  0  0  0  0  0  0  0  0  0  0  0
   68.1640   43.8630   -5.8480 C   0  0  0  0  0  0  0  0  0  0  0  0
   68.2230   44.1760   -7.2060 C   0  0  0  0  0  0  0  0  0  0  0  0
   67.0960   44.6830   -7.8540 C   0  0  0  0  0  0  0  0  0  0  0  0
   65.9090   44.8760   -7.1440 C   0  0  0  0  0  0  0  0  0  0  0  0
   65.8520   44.5630   -5.7890 C   0  0  0  0  0  0  0  0  0  0  0  0
   64.6590   44.7760   -5.1550 O   0  0  0  0  0  0  0  0  0  0  0  0
   66.9820   44.0560   -5.1410 C   0  0  0  0  0  0  0  0  0  0  0  0
   66.9650   43.7130   -3.7180 C   0  0  0  0  0  0  0  0  0  0  0  0
   65.9570   43.8480   -3.0270 O   0  0  0  0  0  0  0  0  0  0  0  0
   68.2180   43.1910   -3.1250 C   0  0  0  0  0  0  0  0  0  0  0  0
   68.1870   42.8580   -1.7820 O   0  0  0  0  0  0  0  0  0  0  0  0
   70.8150   41.1610   -3.2610 C   0  0  0  0  0  0  0  0  0  0  0  0
   72.0490   40.6600   -2.7950 C   0  0  0  0  0  0  0  0  0  0  0  0
   72.2140   39.1560   -2.6670 C   0  0  0  0  0  0  0  0  0  0  0  0
   71.7570   38.5730   -1.3480 C   0  0  0  0  0  0  0  0  0  0  0  0
   70.5320   38.9700   -0.7890 C   0  0  0  0  0  0  0  0  0  0  0  0
   70.0900   38.4190    0.4160 C   0  0  0  0  0  0  0  0  0  0  0  0
   70.8600   37.4620    1.0720 C   0  0  0  0  0  0  0  0  0  0  0  0
   72.0720   37.0500    0.5210 C   0  0  0  0  0  0  0  0  0  0  0  0
   72.5160   37.5970   -0.6840 C   0  0  0  0  0  0  0  0  0  0  0  0
   74.4531   41.1052   -0.9062 H   0  0  0  0  0  0  0  0  0  0  0  0
   74.6307   40.0976   -2.3826 H   0  0  0  0  0  0  0  0  0  0  0  0
   75.2044   41.7998   -2.3826 H   0  0  0  0  0  0  0  0  0  0  0  0
   73.6596   43.6555   -2.4181 H   0  0  0  0  0  0  0  0  0  0  0  0
   71.4731   44.5007   -3.2361 H   0  0  0  0  0  0  0  0  0  0  0  0
   69.1575   44.0232   -7.7658 H   0  0  0  0  0  0  0  0  0  0  0  0
   67.1426   44.9308   -8.9247 H   0  0  0  0  0  0  0  0  0  0  0  0
   65.0203   45.2749   -7.6550 H   0  0  0  0  0  0  0  0  0  0  0  0
   63.9070   44.2690   -5.3900 H   0  0  0  0  0  0  0  0  0  0  0  0
   68.9600   42.9430   -1.2600 H   0  0  0  0  0  0  0  0  0  0  0  0
   70.0040   40.4546   -3.4917 H   0  0  0  0  0  0  0  0  0  0  0  0
   71.6331   38.6793   -3.4704 H   0  0  0  0  0  0  0  0  0  0  0  0
   73.2941   38.9584   -2.7329 H   0  0  0  0  0  0  0  0  0  0  0  0
   69.9152   39.7211   -1.3041 H   0  0  0  0  0  0  0  0  0  0  0  0
   69.1312   38.7419    0.8479 H   0  0  0  0  0  0  0  0  0  0  0  0
   70.5124   37.0322    2.0230 H   0  0  0  0  0  0  0  0  0  0  0  0
   72.6800   36.2922    1.0368 H   0  0  0  0  0  0  0  0  0  0  0  0
   73.4694   37.2600   -1.1171 H   0  0  0  0  0  0  0  0  0  0  0  0
  1  2  1  0
  2  3  2  0
  3  4  1  0
  4  5  2  0
  5  6  1  0
  6  7  1  0
  7  8  1  0
  8  9  2  0
  9 10  1  0
 10 11  2  0
 11 12  1  0
 12 13  1  0
 12 14  2  0
 14 15  1  0
 15 16  2  0
 15 17  1  0
 17 18  1  0
  5 19  1  0
 19 20  2  0
 20 21  1  0
 21 22  1  0
 22 23  2  0
 23 24  1  0
 24 25  2  0
 25 26  1  0
 26 27  2  0
 20  2  1  0
 27 22  1  0
 17  6  2  0
 14  8  1  0
  1 28  1  0
  1 29  1  0
  1 30  1  0
  3 31  1  0
  4 32  1  0
  9 33  1  0
 10 34  1  0
 11 35  1  0
 13 36  1  0
 18 37  1  0
 19 38  1  0
 21 39  1  0
 21 40  1  0
 23 41  1  0
 24 42  1  0
 25 43  1  0
 26 44  1  0
 27 45  1  0
M  END
>  <meeko>  (2) 
{"is_sidechain": [false], "free_energy": -8.719, "intermolecular_energy": -10.473, "internal_energy": -0.861}

$$$$
cand_001_out
     RDKit          3D

 45 48  0  0  0  0  0  0  0  0999 V2000
   66.9510   39.6110   -1.6880 C   0  0  0  0  0  0  0  0  0  0  0  0
   68.2220   40.3840   -1.9150 C   0  0  0  0  0  0  0  0  0  0  0  0
   68.3040   41.2300   -3.0310 C   0  0  0  0  0  0  0  0  0  0  0  0
   69.4480   41.9940   -3.2730 C   0  0  0  0  0  0  0  0  0  0  0  0
   70.5390   41.9430   -2.3990 C   0  0  0  0  0  0  0  0  0  0  0  0
   71.7470   42.7470   -2.6790 C   0  0  0  0  0  0  0  0  0  0  0  0
   72.9230   42.0970   -2.3230 O   0  0  0  0  0  0  0  0  0  0  0  0
   74.1210   42.7330   -2.5300 C   0  0  0  0  0  0  0  0  0  0  0  0
   75.2760   42.0500   -2.1450 C   0  0  0  0  0  0  0  0  0  0  0  0
   76.5270   42.6390   -2.3300 C   0  0  0  0  0  0  0  0  0  0  0  0
   76.6260   43.9100   -2.9000 C   0  0  0  0  0  0  0  0  0  0  0  0
   75.4730   44.5890   -3.2840 C   0  0  0  0  0  0  0  0  0  0  0  0
   75.6410   45.8280   -3.8370 O   0  0  0  0  0  0  0  0  0  0  0  0
   74.2190   43.9980   -3.0980 C   0  0  0  0  0  0  0  0  0  0  0  0
   72.9830   44.6780   -3.4890 C   0  0  0  0  0  0  0  0  0  0  0  0
   72.9870   45.7940   -4.0030 O   0  0  0  0  0  0  0  0  0  0  0  0
   71.7050   43.9690   -3.2410 C   0  0  0  0  0  0  0  0  0  0  0  0
   70.5440   44.6140   -3.6260 O   0  0  0  0  0  0  0  0  0  0  0  0
   70.4600   41.0950   -1.2870 C   0  0  0  0  0  0  0  0  0  0  0  0
   69.3110   40.3190   -1.0230 C   0  0  0  0  0  0  0  0  0  0  0  0
   69.2980   39.4540    0.2250 C   0  0  0  0  0  0  0  0  0  0  0  0
   70.3750   38.3930    0.2800 C   0  0  0  0  0  0  0  0  0  0  0  0
   71.4890   38.4760   -0.5690 C   0  0  0  0  0  0  0  0  0  0  0  0
   72.5010   37.5150   -0.5100 C   0  0  0  0  0  0  0  0  0  0  0  0
   72.4160   36.4660    0.4030 C   0  0  0  0  0  0  0  0  0  0  0  0
   71.3210   36.3790    1.2600 C   0  0  0  0  0  0  0  0  0  0  0  0
   70.3090   37.3390    1.2040 C   0  0  0  0  0  0  0  0  0  0  0  0
   66.7750   39.5039   -0.6075 H   0  0  0  0  0  0  0  0  0  0  0  0
   66.1078   40.1494   -2.1453 H   0  0  0  0  0  0  0  0  0  0  0  0
   67.0412   38.6146   -2.1453 H   0  0  0  0  0  0  0  0  0  0  0  0
   67.4540   41.2927   -3.7264 H   0  0  0  0  0  0  0  0  0  0  0  0
   69.4915   42.6427   -4.1603 H   0  0  0  0  0  0  0  0  0  0  0  0
   75.1998   41.0486   -1.6963 H   0  0  0  0  0  0  0  0  0  0  0  0
   77.4372   42.1012   -2.0263 H   0  0  0  0  0  0  0  0  0  0  0  0
   77.6129   44.3736   -3.0452 H   0  0  0  0  0  0  0  0  0  0  0  0
   74.9390   46.4480   -3.8210 H   0  0  0  0  0  0  0  0  0  0  0  0
   69.8520   44.7430   -3.0070 H   0  0  0  0  0  0  0  0  0  0  0  0
   71.3172   41.0321   -0.6005 H   0  0  0  0  0  0  0  0  0  0  0  0
   69.4228   40.1122    1.0975 H   0  0  0  0  0  0  0  0  0  0  0  0
   68.3381   38.9168    0.2162 H   0  0  0  0  0  0  0  0  0  0  0  0
   71.5661   39.3053   -1.2875 H   0  0  0  0  0  0  0  0  0  0  0  0
   73.3663   37.5865   -1.1854 H   0  0  0  0  0  0  0  0  0  0  0  0
   73.2119   35.7080    0.4471 H   0  0  0  0  0  0  0  0  0  0  0  0
   71.2537   35.5521    1.9823 H   0  0  0  0  0  0  0  0  0  0  0  0
   69.4522   37.2686    1.8903 H   0  0  0  0  0  0  0  0  0  0  0  0
  1  2  1  0
  2  3  2  0
  3  4  1  0
  4  5  2  0
  5  6  1  0
  6  7  1  0
  7  8  1  0
  8  9  2  0
  9 10  1  0
 10 11  2  0
 11 12  1  0
 12 13  1  0
 12 14  2  0
 14 15  1  0
 15 16  2  0
 15 17  1  0
 17 18  1  0
  5 19  1  0
 19 20  2  0
 20 21  1  0
 21 22  1  0
 22 23  2  0
 23 24  1  0
 24 25  2  0
 25 26  1  0
 26 27  2  0
 20  2  1  0
 27 22  1  0
 17  6  2  0
 14  8  1  0
  1 28  1  0
  1 29  1  0
  1 30  1  0
  3 31  1  0
  4 32  1  0
  9 33  1  0
 10 34  1  0
 11 35  1  0
 13 36  1  0
 18 37  1  0
 19 38  1  0
 21 39  1  0
 21 40  1  0
 23 41  1  0
 24 42  1  0
 25 43  1  0
 26 44  1  0
 27 45  1  0
M  END
>  <meeko>  (3) 
{"is_sidechain": [false], "free_energy": -8.669, "intermolecular_energy": -11.276, "internal_energy": 0.004}

$$$$
cand_001_out
     RDKit          3D

 45 48  0  0  0  0  0  0  0  0999 V2000
   73.1040   45.5420   -5.8720 C   0  0  0  0  0  0  0  0  0  0  0  0
   72.9080   44.3470   -4.9800 C   0  0  0  0  0  0  0  0  0  0  0  0
   72.5040   44.5580   -3.6520 C   0  0  0  0  0  0  0  0  0  0  0  0
   72.2780   43.4830   -2.7890 C   0  0  0  0  0  0  0  0  0  0  0  0
   72.4380   42.1660   -3.2320 C   0  0  0  0  0  0  0  0  0  0  0  0
   72.2080   41.0420   -2.3000 C   0  0  0  0  0  0  0  0  0  0  0  0
   70.8710   40.9000   -1.9450 O   0  0  0  0  0  0  0  0  0  0  0  0
   70.5170   39.8920   -1.0830 C   0  0  0  0  0  0  0  0  0  0  0  0
   69.1680   39.7950   -0.7420 C   0  0  0  0  0  0  0  0  0  0  0  0
   68.7400   38.7910    0.1290 C   0  0  0  0  0  0  0  0  0  0  0  0
   69.6610   37.8840    0.6570 C   0  0  0  0  0  0  0  0  0  0  0  0
   71.0070   37.9830    0.3150 C   0  0  0  0  0  0  0  0  0  0  0  0
   71.8530   37.0620    0.8670 O   0  0  0  0  0  0  0  0  0  0  0  0
   71.4340   38.9890   -0.5570 C   0  0  0  0  0  0  0  0  0  0  0  0
   72.8390   39.1270   -0.9420 C   0  0  0  0  0  0  0  0  0  0  0  0
   73.7080   38.3640   -0.5260 O   0  0  0  0  0  0  0  0  0  0  0  0
   73.1900   40.2320   -1.8650 C   0  0  0  0  0  0  0  0  0  0  0  0
   74.5190   40.3450   -2.2340 O   0  0  0  0  0  0  0  0  0  0  0  0
   72.8460   41.9550   -4.5560 C   0  0  0  0  0  0  0  0  0  0  0  0
   73.0750   43.0270   -5.4440 C   0  0  0  0  0  0  0  0  0  0  0  0
   73.4800   42.7050   -6.8710 C   0  0  0  0  0  0  0  0  0  0  0  0
   74.9400   42.9430   -7.1910 C   0  0  0  0  0  0  0  0  0  0  0  0
   75.3010   43.8220   -8.2230 C   0  0  0  0  0  0  0  0  0  0  0  0
   76.6460   44.0670   -8.5110 C   0  0  0  0  0  0  0  0  0  0  0  0
   77.6440   43.4430   -7.7660 C   0  0  0  0  0  0  0  0  0  0  0  0
   77.3000   42.5770   -6.7310 C   0  0  0  0  0  0  0  0  0  0  0  0
   75.9570   42.3320   -6.4400 C   0  0  0  0  0  0  0  0  0  0  0  0
   73.2513   46.4403   -5.2544 H   0  0  0  0  0  0  0  0  0  0  0  0
   73.9883   45.3845   -6.5070 H   0  0  0  0  0  0  0  0  0  0  0  0
   72.2157   45.6752   -6.5070 H   0  0  0  0  0  0  0  0  0  0  0  0
   72.3633   45.5856   -3.2855 H   0  0  0  0  0  0  0  0  0  0  0  0
   71.9710   43.6743   -1.7502 H   0  0  0  0  0  0  0  0  0  0  0  0
   68.4421   40.5087   -1.1588 H   0  0  0  0  0  0  0  0  0  0  0  0
   67.6765   38.7146    0.3994 H   0  0  0  0  0  0  0  0  0  0  0  0
   69.3236   37.0924    1.3422 H   0  0  0  0  0  0  0  0  0  0  0  0
   71.6050   36.1590    0.9030 H   0  0  0  0  0  0  0  0  0  0  0  0
   74.7430   40.5500   -3.1200 H   0  0  0  0  0  0  0  0  0  0  0  0
   72.9918   40.9247   -4.9128 H   0  0  0  0  0  0  0  0  0  0  0  0
   73.2585   41.6438   -7.0573 H   0  0  0  0  0  0  0  0  0  0  0  0
   72.9087   43.3901   -7.5146 H   0  0  0  0  0  0  0  0  0  0  0  0
   74.5178   44.3230   -8.8109 H   0  0  0  0  0  0  0  0  0  0  0  0
   76.9171   44.7533   -9.3268 H   0  0  0  0  0  0  0  0  0  0  0  0
   78.7028   43.6341   -7.9950 H   0  0  0  0  0  0  0  0  0  0  0  0
   78.0880   42.0852   -6.1418 H   0  0  0  0  0  0  0  0  0  0  0  0
   75.6930   41.6541   -5.6149 H   0  0  0  0  0  0  0  0  0  0  0  0
  1  2  1  0
  2  3  2  0
  3  4  1  0
  4  5  2  0
  5  6  1  0
  6  7  1  0
  7  8  1  0
  8  9  2  0
  9 10  1  0
 10 11  2  0
 11 12  1  0
 12 13  1  0
 12 14  2  0
 14 15  1  0
 15 16  2  0
 15 17  1  0
 17 18  1  0
  5 19  1  0
 19 20  2  0
 20 21  1  0
 21 22  1  0
 22 23  2  0
 23 24  1  0
 24 25  2  0
 25 26  1  0
 26 27  2  0
 20  2  1  0
 27 22  1  0
 17  6  2  0
 14  8  1  0
  1 28  1  0
  1 29  1  0
  1 30  1  0
  3 31  1  0
  4 32  1  0
  9 33  1  0
 10 34  1  0
 11 35  1  0
 13 36  1  0
 18 37  1  0
 19 38  1  0
 21 39  1  0
 21 40  1  0
 23 41  1  0
 24 42  1  0
 25 43  1  0
 26 44  1  0
 27 45  1  0
M  END
>  <meeko>  (4) 
{"is_sidechain": [false], "free_energy": -8.619, "intermolecular_energy": -10.356, "internal_energy": -0.855}

$$$$
cand_001_out
     RDKit          3D

 45 48  0  0  0  0  0  0  0  0999 V2000
   68.2510   40.5990   -1.9690 C   0  0  0  0  0  0  0  0  0  0  0  0
   69.6130   41.0610   -2.4100 C   0  0  0  0  0  0  0  0  0  0  0  0
   69.7760   41.5070   -3.7300 C   0  0  0  0  0  0  0  0  0  0  0  0
   71.0120   41.9760   -4.1840 C   0  0  0  0  0  0  0  0  0  0  0  0
   72.1160   42.0240   -3.3270 C   0  0  0  0  0  0  0  0  0  0  0  0
   73.4190   42.5110   -3.8290 C   0  0  0  0  0  0  0  0  0  0  0  0
   73.3630   43.8200   -4.2940 O   0  0  0  0  0  0  0  0  0  0  0  0
   74.5060   44.3970   -4.7880 C   0  0  0  0  0  0  0  0  0  0  0  0
   74.4030   45.7070   -5.2570 C   0  0  0  0  0  0  0  0  0  0  0  0
   75.5280   46.3530   -5.7720 C   0  0  0  0  0  0  0  0  0  0  0  0
   76.7560   45.6910   -5.8170 C   0  0  0  0  0  0  0  0  0  0  0  0
   76.8570   44.3840   -5.3480 C   0  0  0  0  0  0  0  0  0  0  0  0
   78.0890   43.7950   -5.4210 O   0  0  0  0  0  0  0  0  0  0  0  0
   75.7300   43.7370   -4.8330 C   0  0  0  0  0  0  0  0  0  0  0  0
   75.7930   42.3640   -4.3300 C   0  0  0  0  0  0  0  0  0  0  0  0
   76.8380   41.7180   -4.3290 O   0  0  0  0  0  0  0  0  0  0  0  0
   74.5390   41.7670   -3.8130 C   0  0  0  0  0  0  0  0  0  0  0  0
   74.6130   40.4730   -3.3280 O   0  0  0  0  0  0  0  0  0  0  0  0
   71.9550   41.5750   -2.0100 C   0  0  0  0  0  0  0  0  0  0  0  0
   70.7150   41.1020   -1.5320 C   0  0  0  0  0  0  0  0  0  0  0  0
   70.6210   40.6670   -0.0800 C   0  0  0  0  0  0  0  0  0  0  0  0
   71.0330   39.2360    0.1880 C   0  0  0  0  0  0  0  0  0  0  0  0
   70.0770   38.2930    0.5960 C   0  0  0  0  0  0  0  0  0  0  0  0
   70.4420   36.9640    0.8230 C   0  0  0  0  0  0  0  0  0  0  0  0
   71.7620   36.5600    0.6370 C   0  0  0  0  0  0  0  0  0  0  0  0
   72.7190   37.4840    0.2200 C   0  0  0  0  0  0  0  0  0  0  0  0
   72.3560   38.8120   -0.0080 C   0  0  0  0  0  0  0  0  0  0  0  0
   68.2069   40.5841   -0.8700 H   0  0  0  0  0  0  0  0  0  0  0  0
   67.4865   41.2881   -2.3573 H   0  0  0  0  0  0  0  0  0  0  0  0
   68.0636   39.5870   -2.3573 H   0  0  0  0  0  0  0  0  0  0  0  0
   68.9181   41.4873   -4.4182 H   0  0  0  0  0  0  0  0  0  0  0  0
   71.1174   42.3109   -5.2265 H   0  0  0  0  0  0  0  0  0  0  0  0
   73.4361   46.2302   -5.2209 H   0  0  0  0  0  0  0  0  0  0  0  0
   75.4467   47.3854   -6.1430 H   0  0  0  0  0  0  0  0  0  0  0  0
   77.6424   46.2010   -6.2223 H   0  0  0  0  0  0  0  0  0  0  0  0
   78.7650   44.1850   -5.9390 H   0  0  0  0  0  0  0  0  0  0  0  0
   74.1890   39.7760   -3.7870 H   0  0  0  0  0  0  0  0  0  0  0  0
   72.8193   41.5917   -1.3298 H   0  0  0  0  0  0  0  0  0  0  0  0
   71.2695   41.3259    0.5160 H   0  0  0  0  0  0  0  0  0  0  0  0
   69.5577   40.7365    0.1929 H   0  0  0  0  0  0  0  0  0  0  0  0
   69.0313   38.6032    0.7382 H   0  0  0  0  0  0  0  0  0  0  0  0
   69.6856   36.2350    1.1493 H   0  0  0  0  0  0  0  0  0  0  0  0
   72.0488   35.5137    0.8188 H   0  0  0  0  0  0  0  0  0  0  0  0
   73.7613   37.1659    0.0705 H   0  0  0  0  0  0  0  0  0  0  0  0
   73.1148   39.5337   -0.3448 H   0  0  0  0  0  0  0  0  0  0  0  0
  1  2  1  0
  2  3  2  0
  3  4  1  0
  4  5  2  0
  5  6  1  0
  6  7  1  0
  7  8  1  0
  8  9  2  0
  9 10  1  0
 10 11  2  0
 11 12  1  0
 12 13  1  0
 12 14  2  0
 14 15  1  0
 15 16  2  0
 15 17  1  0
 17 18  1  0
  5 19  1  0
 19 20  2  0
 20 21  1  0
 21 22  1  0
 22 23  2  0
 23 24  1  0
 24 25  2  0
 25 26  1  0
 26 27  2  0
 20  2  1  0
 27 22  1  0
 17  6  2  0
 14  8  1  0
  1 28  1  0
  1 29  1  0
  1 30  1  0
  3 31  1  0
  4 32  1  0
  9 33  1  0
 10 34  1  0
 11 35  1  0
 13 36  1  0
 18 37  1  0
 19 38  1  0
 21 39  1  0
 21 40  1  0
 23 41  1  0
 24 42  1  0
 25 43  1  0
 26 44  1  0
 27 45  1  0
M  END
>  <meeko>  (5) 
{"is_sidechain": [false], "free_energy": -8.496, "intermolecular_energy": -10.266, "internal_energy": -0.792}

$$$$
cand_001_out
     RDKit          3D

 45 48  0  0  0  0  0  0  0  0999 V2000
   74.4480   41.0980   -2.1550 C   0  0  0  0  0  0  0  0  0  0  0  0
   73.0580   41.5820   -2.4630 C   0  0  0  0  0  0  0  0  0  0  0  0
   72.8340   42.9640   -2.5640 C   0  0  0  0  0  0  0  0  0  0  0  0
   71.5690   43.4670   -2.8790 C   0  0  0  0  0  0  0  0  0  0  0  0
   70.4950   42.6030   -3.1120 C   0  0  0  0  0  0  0  0  0  0  0  0
   69.1600   43.1540   -3.4290 C   0  0  0  0  0  0  0  0  0  0  0  0
   68.3650   43.3250   -2.3010 O   0  0  0  0  0  0  0  0  0  0  0  0
   67.0990   43.8310   -2.4540 C   0  0  0  0  0  0  0  0  0  0  0  0
   66.3290   43.9730   -1.2980 C   0  0  0  0  0  0  0  0  0  0  0  0
   65.0330   44.4840   -1.3820 C   0  0  0  0  0  0  0  0  0  0  0  0
   64.5060   44.8530   -2.6210 C   0  0  0  0  0  0  0  0  0  0  0  0
   65.2750   44.7120   -3.7730 C   0  0  0  0  0  0  0  0  0  0  0  0
   64.6970   45.0940   -4.9520 O   0  0  0  0  0  0  0  0  0  0  0  0
   66.5730   44.2000   -3.6880 C   0  0  0  0  0  0  0  0  0  0  0  0
   67.4150   44.0350   -4.8740 C   0  0  0  0  0  0  0  0  0  0  0  0
   67.0250   44.3440   -5.9970 O   0  0  0  0  0  0  0  0  0  0  0  0
   68.7730   43.4760   -4.6760 C   0  0  0  0  0  0  0  0  0  0  0  0
   69.5640   43.3370   -5.8030 O   0  0  0  0  0  0  0  0  0  0  0  0
   70.7150   41.2230   -3.0060 C   0  0  0  0  0  0  0  0  0  0  0  0
   71.9860   40.6950   -2.6940 C   0  0  0  0  0  0  0  0  0  0  0  0
   72.1440   39.1870   -2.6350 C   0  0  0  0  0  0  0  0  0  0  0  0
   71.7500   38.5530   -1.3180 C   0  0  0  0  0  0  0  0  0  0  0  0
   70.5510   38.9230   -0.6900 C   0  0  0  0  0  0  0  0  0  0  0  0
   70.1650   38.3280    0.5130 C   0  0  0  0  0  0  0  0  0  0  0  0
   70.9680   37.3510    1.0980 C   0  0  0  0  0  0  0  0  0  0  0  0
   72.1550   36.9660    0.4790 C   0  0  0  0  0  0  0  0  0  0  0  0
   72.5420   37.5590   -0.7240 C   0  0  0  0  0  0  0  0  0  0  0  0
   74.5863   41.0498   -1.0648 H   0  0  0  0  0  0  0  0  0  0  0  0
   74.5919   40.0969   -2.5874 H   0  0  0  0  0  0  0  0  0  0  0  0
   75.1826   41.7933   -2.5874 H   0  0  0  0  0  0  0  0  0  0  0  0
   73.6670   43.6617   -2.3926 H   0  0  0  0  0  0  0  0  0  0  0  0
   71.4166   44.5544   -2.9443 H   0  0  0  0  0  0  0  0  0  0  0  0
   66.7436   43.6823   -0.3215 H   0  0  0  0  0  0  0  0  0  0  0  0
   64.4263   44.5961   -0.4713 H   0  0  0  0  0  0  0  0  0  0  0  0
   63.4841   45.2548   -2.6870 H   0  0  0  0  0  0  0  0  0  0  0  0
   63.7650   45.1690   -5.0150 H   0  0  0  0  0  0  0  0  0  0  0  0
   69.9660   44.0900   -6.1890 H   0  0  0  0  0  0  0  0  0  0  0  0
   69.8744   40.5328   -3.1704 H   0  0  0  0  0  0  0  0  0  0  0  0
   71.5186   38.7473   -3.4259 H   0  0  0  0  0  0  0  0  0  0  0  0
   73.2176   38.9853   -2.7640 H   0  0  0  0  0  0  0  0  0  0  0  0
   69.9091   39.6889   -1.1496 H   0  0  0  0  0  0  0  0  0  0  0  0
   69.2260   38.6309    0.9993 H   0  0  0  0  0  0  0  0  0  0  0  0
   70.6651   36.8845    2.0470 H   0  0  0  0  0  0  0  0  0  0  0  0
   72.7885   36.1933    0.9390 H   0  0  0  0  0  0  0  0  0  0  0  0
   73.4768   37.2439   -1.2108 H   0  0  0  0  0  0  0  0  0  0  0  0
  1  2  1  0
  2  3  2  0
  3  4  1  0
  4  5  2  0
  5  6  1  0
  6  7  1  0
  7  8  1  0
  8  9  2  0
  9 10  1  0
 10 11  2  0
 11 12  1  0
 12 13  1  0
 12 14  2  0
 14 15  1  0
 15 16  2  0
 15 17  1  0
 17 18  1  0
  5 19  1  0
 19 20  2  0
 20 21  1  0
 21 22  1  0
 22 23  2  0
 23 24  1  0
 24 25  2  0
 25 26  1  0
 26 27  2  0
 20  2  1  0
 27 22  1  0
 17  6  2  0
 14  8  1  0
  1 28  1  0
  1 29  1  0
  1 30  1  0
  3 31  1  0
  4 32  1  0
  9 33  1  0
 10 34  1  0
 11 35  1  0
 13 36  1  0
 18 37  1  0
 19 38  1  0
 21 39  1  0
 21 40  1  0
 23 41  1  0
 24 42  1  0
 25 43  1  0
 26 44  1  0
 27 45  1  0
M  END
>  <meeko>  (6) 
{"is_sidechain": [false], "free_energy": -8.381, "intermolecular_energy": -10.093, "internal_energy": -0.823}

$$$$
cand_001_out
     RDKit          3D

 45 48  0  0  0  0  0  0  0  0999 V2000
   77.1810   43.6110   -3.1030 C   0  0  0  0  0  0  0  0  0  0  0  0
   75.7710   43.1070   -2.9650 C   0  0  0  0  0  0  0  0  0  0  0  0
   75.5440   41.9370   -2.2240 C   0  0  0  0  0  0  0  0  0  0  0  0
   74.2510   41.4410   -2.0380 C   0  0  0  0  0  0  0  0  0  0  0  0
   73.1470   42.1070   -2.5790 C   0  0  0  0  0  0  0  0  0  0  0  0
   71.7870   41.5600   -2.3840 C   0  0  0  0  0  0  0  0  0  0  0  0
   71.6790   40.7780   -1.2390 O   0  0  0  0  0  0  0  0  0  0  0  0
   70.4680   40.2080   -0.9380 C   0  0  0  0  0  0  0  0  0  0  0  0
   70.4080   39.4190    0.2110 C   0  0  0  0  0  0  0  0  0  0  0  0
   69.2060   38.8110    0.5760 C   0  0  0  0  0  0  0  0  0  0  0  0
   68.0640   38.9910   -0.2070 C   0  0  0  0  0  0  0  0  0  0  0  0
   68.1260   39.7780   -1.3530 C   0  0  0  0  0  0  0  0  0  0  0  0
   66.9720   39.9130   -2.0740 O   0  0  0  0  0  0  0  0  0  0  0  0
   69.3310   40.3870   -1.7180 C   0  0  0  0  0  0  0  0  0  0  0  0
   69.4390   41.2220   -2.9150 C   0  0  0  0  0  0  0  0  0  0  0  0
   68.4780   41.4350   -3.6510 O   0  0  0  0  0  0  0  0  0  0  0  0
   70.7630   41.8150   -3.2180 C   0  0  0  0  0  0  0  0  0  0  0  0
   70.8510   42.6140   -4.3450 O   0  0  0  0  0  0  0  0  0  0  0  0
   73.3720   43.2720   -3.3240 C   0  0  0  0  0  0  0  0  0  0  0  0
   74.6690   43.7920   -3.5180 C   0  0  0  0  0  0  0  0  0  0  0  0
   74.8190   45.0790   -4.3090 C   0  0  0  0  0  0  0  0  0  0  0  0
   74.5680   46.3460   -3.5210 C   0  0  0  0  0  0  0  0  0  0  0  0
   75.6280   46.9850   -2.8580 C   0  0  0  0  0  0  0  0  0  0  0  0
   75.4130   48.1680   -2.1480 C   0  0  0  0  0  0  0  0  0  0  0  0
   74.1400   48.7310   -2.0990 C   0  0  0  0  0  0  0  0  0  0  0  0
   73.0820   48.1150   -2.7630 C   0  0  0  0  0  0  0  0  0  0  0  0
   73.2950   46.9330   -3.4740 C   0  0  0  0  0  0  0  0  0  0  0  0
   77.6144   43.7659   -2.1039 H   0  0  0  0  0  0  0  0  0  0  0  0
   77.7823   42.8721   -3.6530 H   0  0  0  0  0  0  0  0  0  0  0  0
   77.1777   44.5636   -3.6530 H   0  0  0  0  0  0  0  0  0  0  0  0
   76.3976   41.4018   -1.7825 H   0  0  0  0  0  0  0  0  0  0  0  0
   74.1001   40.5173   -1.4601 H   0  0  0  0  0  0  0  0  0  0  0  0
   71.3070   39.2763    0.8285 H   0  0  0  0  0  0  0  0  0  0  0  0
   69.1582   38.1890    1.4820 H   0  0  0  0  0  0  0  0  0  0  0  0
   67.1170   38.5115    0.0815 H   0  0  0  0  0  0  0  0  0  0  0  0
   66.1420   39.8740   -1.6400 H   0  0  0  0  0  0  0  0  0  0  0  0
   70.9590   42.2230   -5.1890 H   0  0  0  0  0  0  0  0  0  0  0  0
   72.5136   43.7957   -3.7700 H   0  0  0  0  0  0  0  0  0  0  0  0
   75.8451   45.1198   -4.7032 H   0  0  0  0  0  0  0  0  0  0  0  0
   74.0504   45.0483   -5.0953 H   0  0  0  0  0  0  0  0  0  0  0  0
   76.6373   46.5496   -2.8983 H   0  0  0  0  0  0  0  0  0  0  0  0
   76.2499   48.6558   -1.6268 H   0  0  0  0  0  0  0  0  0  0  0  0
   73.9704   49.6610   -1.5366 H   0  0  0  0  0  0  0  0  0  0  0  0
   72.0770   48.5607   -2.7270 H   0  0  0  0  0  0  0  0  0  0  0  0
   72.4561   46.4570   -4.0028 H   0  0  0  0  0  0  0  0  0  0  0  0
  1  2  1  0
  2  3  2  0
  3  4  1  0
  4  5  2  0
  5  6  1  0
  6  7  1  0
  7  8  1  0
  8  9  2  0
  9 10  1  0
 10 11  2  0
 11 12  1  0
 12 13  1  0
 12 14  2  0
 14 15  1  0
 15 16  2  0
 15 17  1  0
 17 18  1  0
  5 19  1  0
 19 20  2  0
 20 21  1  0
 21 22  1  0
 22 23  2  0
 23 24  1  0
 24 25  2  0
 25 26  1  0
 26 27  2  0
 20  2  1  0
 27 22  1  0
 17  6  2  0
 14  8  1  0
  1 28  1  0
  1 29  1  0
  1 30  1  0
  3 31  1  0
  4 32  1  0
  9 33  1  0
 10 34  1  0
 11 35  1  0
 13 36  1  0
 18 37  1  0
 19 38  1  0
 21 39  1  0
 21 40  1  0
 23 41  1  0
 24 42  1  0
 25 43  1  0
 26 44  1  0
 27 45  1  0
M  END
>  <meeko>  (7) 
{"is_sidechain": [false], "free_energy": -8.275, "intermolecular_energy": -10.267, "internal_energy": -0.518}

$$$$
cand_001_out
     RDKit          3D

 45 48  0  0  0  0  0  0  0  0999 V2000
   67.4010   39.6880   -0.7270 C   0  0  0  0  0  0  0  0  0  0  0  0
   68.4410   40.3790   -1.5650 C   0  0  0  0  0  0  0  0  0  0  0  0
   68.0790   40.8410   -2.8400 C   0  0  0  0  0  0  0  0  0  0  0  0
   68.9980   41.5160   -3.6480 C   0  0  0  0  0  0  0  0  0  0  0  0
   70.2990   41.7600   -3.1990 C   0  0  0  0  0  0  0  0  0  0  0  0
   71.2610   42.4640   -4.0740 C   0  0  0  0  0  0  0  0  0  0  0  0
   71.2330   43.8450   -3.9060 O   0  0  0  0  0  0  0  0  0  0  0  0
   72.0780   44.6210   -4.6580 C   0  0  0  0  0  0  0  0  0  0  0  0
   72.0070   46.0020   -4.4690 C   0  0  0  0  0  0  0  0  0  0  0  0
   72.8400   46.8490   -5.2010 C   0  0  0  0  0  0  0  0  0  0  0  0
   73.7450   46.3170   -6.1210 C   0  0  0  0  0  0  0  0  0  0  0  0
   73.8150   44.9390   -6.3080 C   0  0  0  0  0  0  0  0  0  0  0  0
   74.7240   44.4850   -7.2240 O   0  0  0  0  0  0  0  0  0  0  0  0
   72.9800   44.0910   -5.5750 C   0  0  0  0  0  0  0  0  0  0  0  0
   73.0210   42.6370   -5.7420 C   0  0  0  0  0  0  0  0  0  0  0  0
   73.7950   42.0930   -6.5260 O   0  0  0  0  0  0  0  0  0  0  0  0
   72.0880   41.8280   -4.9230 C   0  0  0  0  0  0  0  0  0  0  0  0
   72.1450   40.4540   -5.0780 O   0  0  0  0  0  0  0  0  0  0  0  0
   70.6630   41.2950   -1.9290 C   0  0  0  0  0  0  0  0  0  0  0  0
   69.7490   40.6150   -1.0960 C   0  0  0  0  0  0  0  0  0  0  0  0
   70.2170   40.1770    0.2800 C   0  0  0  0  0  0  0  0  0  0  0  0
   70.9020   38.8290    0.3240 C   0  0  0  0  0  0  0  0  0  0  0  0
   72.2620   38.7180   -0.0040 C   0  0  0  0  0  0  0  0  0  0  0  0
   72.9100   37.4820    0.0560 C   0  0  0  0  0  0  0  0  0  0  0  0
   72.2100   36.3460    0.4530 C   0  0  0  0  0  0  0  0  0  0  0  0
   70.8630   36.4430    0.7940 C   0  0  0  0  0  0  0  0  0  0  0  0
   70.2130   37.6780    0.7350 C   0  0  0  0  0  0  0  0  0  0  0  0
   67.6288   39.8393    0.3385 H   0  0  0  0  0  0  0  0  0  0  0  0
   66.4097   40.1077   -0.9532 H   0  0  0  0  0  0  0  0  0  0  0  0
   67.4038   38.6115   -0.9532 H   0  0  0  0  0  0  0  0  0  0  0  0
   67.0569   40.6692   -3.2086 H   0  0  0  0  0  0  0  0  0  0  0  0
   68.6942   41.8590   -4.6481 H   0  0  0  0  0  0  0  0  0  0  0  0
   71.2950   46.4224   -3.7436 H   0  0  0  0  0  0  0  0  0  0  0  0
   72.7834   47.9375   -5.0528 H   0  0  0  0  0  0  0  0  0  0  0  0
   74.4018   46.9853   -6.6973 H   0  0  0  0  0  0  0  0  0  0  0  0
   75.6180   44.3580   -6.9750 H   0  0  0  0  0  0  0  0  0  0  0  0
   72.4470   39.9150   -4.3740 H   0  0  0  0  0  0  0  0  0  0  0  0
   71.6893   41.4644   -1.5711 H   0  0  0  0  0  0  0  0  0  0  0  0
   70.9239   40.9313    0.6559 H   0  0  0  0  0  0  0  0  0  0  0  0
   69.3110   40.0813    0.8965 H   0  0  0  0  0  0  0  0  0  0  0  0
   72.8231   39.6129   -0.3113 H   0  0  0  0  0  0  0  0  0  0  0  0
   73.9745   37.4062   -0.2107 H   0  0  0  0  0  0  0  0  0  0  0  0
   72.7203   35.3725    0.4974 H   0  0  0  0  0  0  0  0  0  0  0  0
   70.3104   35.5460    1.1102 H   0  0  0  0  0  0  0  0  0  0  0  0
   69.1512   37.7488    1.0133 H   0  0  0  0  0  0  0  0  0  0  0  0
  1  2  1  0
  2  3  2  0
  3  4  1  0
  4  5  2  0
  5  6  1  0
  6  7  1  0
  7  8  1  0
  8  9  2  0
  9 10  1  0
 10 11  2  0
 11 12  1  0
 12 13  1  0
 12 14  2  0
 14 15  1  0
 15 16  2  0
 15 17  1  0
 17 18  1  0
  5 19  1  0
 19 20  2  0
 20 21  1  0
 21 22  1  0
 22 23  2  0
 23 24  1  0
 24 25  2  0
 25 26  1  0
 26 27  2  0
 20  2  1  0
 27 22  1  0
 17  6  2  0
 14  8  1  0
  1 28  1  0
  1 29  1  0
  1 30  1  0
  3 31  1  0
  4 32  1  0
  9 33  1  0
 10 34  1  0
 11 35  1  0
 13 36  1  0
 18 37  1  0
 19 38  1  0
 21 39  1  0
 21 40  1  0
 23 41  1  0
 24 42  1  0
 25 43  1  0
 26 44  1  0
 27 45  1  0
M  END
>  <meeko>  (8) 
{"is_sidechain": [false], "free_energy": -8.26, "intermolecular_energy": -9.733, "internal_energy": -1.034}

$$$$
cand_001_out
     RDKit          3D

 45 48  0  0  0  0  0  0  0  0999 V2000
   71.4790   45.3040   -5.5880 C   0  0  0  0  0  0  0  0  0  0  0  0
   71.3050   44.1730   -4.6120 C   0  0  0  0  0  0  0  0  0  0  0  0
   70.2590   43.2600   -4.8180 C   0  0  0  0  0  0  0  0  0  0  0  0
   70.0720   42.1740   -3.9600 C   0  0  0  0  0  0  0  0  0  0  0  0
   70.9320   41.9620   -2.8780 C   0  0  0  0  0  0  0  0  0  0  0  0
   70.7090   40.8140   -1.9730 C   0  0  0  0  0  0  0  0  0  0  0  0
   71.8630   40.0710   -1.7490 O   0  0  0  0  0  0  0  0  0  0  0  0
   71.7970   38.9770   -0.9250 C   0  0  0  0  0  0  0  0  0  0  0  0
   72.9740   38.2510   -0.7400 C   0  0  0  0  0  0  0  0  0  0  0  0
   72.9770   37.1270    0.0880 C   0  0  0  0  0  0  0  0  0  0  0  0
   71.8030   36.7290    0.7310 C   0  0  0  0  0  0  0  0  0  0  0  0
   70.6300   37.4540    0.5450 C   0  0  0  0  0  0  0  0  0  0  0  0
   69.5170   37.0090    1.2050 O   0  0  0  0  0  0  0  0  0  0  0  0
   70.6280   38.5790   -0.2840 C   0  0  0  0  0  0  0  0  0  0  0  0
   69.4160   39.3700   -0.5060 C   0  0  0  0  0  0  0  0  0  0  0  0
   68.3470   39.0880    0.0290 O   0  0  0  0  0  0  0  0  0  0  0  0
   69.5190   40.5400   -1.4100 C   0  0  0  0  0  0  0  0  0  0  0  0
   68.3710   41.2870   -1.6030 O   0  0  0  0  0  0  0  0  0  0  0  0
   71.9740   42.8750   -2.6680 C   0  0  0  0  0  0  0  0  0  0  0  0
   72.1830   43.9750   -3.5260 C   0  0  0  0  0  0  0  0  0  0  0  0
   73.3580   44.8950   -3.2450 C   0  0  0  0  0  0  0  0  0  0  0  0
   74.7190   44.3010   -3.5360 C   0  0  0  0  0  0  0  0  0  0  0  0
   75.4750   43.7310   -2.5010 C   0  0  0  0  0  0  0  0  0  0  0  0
   76.7220   43.1590   -2.7630 C   0  0  0  0  0  0  0  0  0  0  0  0
   77.2240   43.1430   -4.0620 C   0  0  0  0  0  0  0  0  0  0  0  0
   76.4780   43.6950   -5.1010 C   0  0  0  0  0  0  0  0  0  0  0  0
   75.2310   44.2660   -4.8420 C   0  0  0  0  0  0  0  0  0  0  0  0
   71.6237   46.2449   -5.0369 H   0  0  0  0  0  0  0  0  0  0  0  0
   72.3580   45.1106   -6.2205 H   0  0  0  0  0  0  0  0  0  0  0  0
   70.5825   45.3837   -6.2205 H   0  0  0  0  0  0  0  0  0  0  0  0
   69.5759   43.4020   -5.6684 H   0  0  0  0  0  0  0  0  0  0  0  0
   69.2390   41.4778   -4.1373 H   0  0  0  0  0  0  0  0  0  0  0  0
   73.8990   38.5641   -1.2463 H   0  0  0  0  0  0  0  0  0  0  0  0
   73.9048   36.5544    0.2340 H   0  0  0  0  0  0  0  0  0  0  0  0
   71.8055   35.8435    1.3837 H   0  0  0  0  0  0  0  0  0  0  0  0
   69.2170   37.4560    1.9720 H   0  0  0  0  0  0  0  0  0  0  0  0
   67.5630   40.8610   -1.8100 H   0  0  0  0  0  0  0  0  0  0  0  0
   72.6475   42.7300   -1.8105 H   0  0  0  0  0  0  0  0  0  0  0  0
   73.2403   45.7974   -3.8630 H   0  0  0  0  0  0  0  0  0  0  0  0
   73.3366   45.0999   -2.1645 H   0  0  0  0  0  0  0  0  0  0  0  0
   75.0821   43.7345   -1.4736 H   0  0  0  0  0  0  0  0  0  0  0  0
   77.3085   42.7205   -1.9422 H   0  0  0  0  0  0  0  0  0  0  0  0
   78.2076   42.6954   -4.2672 H   0  0  0  0  0  0  0  0  0  0  0  0
   76.8726   43.6808   -6.1277 H   0  0  0  0  0  0  0  0  0  0  0  0
   74.6444   44.6924   -5.6691 H   0  0  0  0  0  0  0  0  0  0  0  0
  1  2  1  0
  2  3  2  0
  3  4  1  0
  4  5  2  0
  5  6  1  0
  6  7  1  0
  7  8  1  0
  8  9  2  0
  9 10  1  0
 10 11  2  0
 11 12  1  0
 12 13  1  0
 12 14  2  0
 14 15  1  0
 15 16  2  0
 15 17  1  0
 17 18  1  0
  5 19  1  0
 19 20  2  0
 20 21  1  0
 21 22  1  0
 22 23  2  0
 23 24  1  0
 24 25  2  0
 25 26  1  0
 26 27  2  0
 20  2  1  0
 27 22  1  0
 17  6  2  0
 14  8  1  0
  1 28  1  0
  1 29  1  0
  1 30  1  0
  3 31  1  0
  4 32  1  0
  9 33  1  0
 10 34  1  0
 11 35  1  0
 13 36  1  0
 18 37  1  0
 19 38  1  0
 21 39  1  0
 21 40  1  0
 23 41  1  0
 24 42  1  0
 25 43  1  0
 26 44  1  0
 27 45  1  0
M  END
>  <meeko>  (9) 
{"is_sidechain": [false], "free_energy": -8.205, "intermolecular_energy": -9.896, "internal_energy": -0.802}

$$$$
