cand_050_out
     RDKit          3D

 38 40  0  0  0  0  0  0  0  0999 V2000
   66.9020   39.3710   -0.9290 C   0  0  0  0  0  0  0  0  0  0  0  0
   68.1690   38.9820   -0.1790 C   0  0  0  0  0  0  0  0  0  0  0  0
   69.3940   39.6680   -0.7420 C   0  0  0  0  0  0  0  0  0  0  0  0
   69.2070   40.6820   -1.6970 C   0  0  0  0  0  0  0  0  0  0  0  0
   70.2960   41.3480   -2.2630 C   0  0  0  0  0  0  0  0  0  0  0  0
   71.6040   41.0240   -1.8900 C   0  0  0  0  0  0  0  0  0  0  0  0
   72.7440   41.7290   -2.5140 C   0  0  0  0  0  0  0  0  0  0  0  0
   72.5540   43.1040   -2.5930 O   0  0  0  0  0  0  0  0  0  0  0  0
   73.5380   43.8770   -3.1530 C   0  0  0  0  0  0  0  0  0  0  0  0
   73.2990   45.2500   -3.2260 C   0  0  0  0  0  0  0  0  0  0  0  0
   74.2620   46.0960   -3.7830 C   0  0  0  0  0  0  0  0  0  0  0  0
   75.4610   45.5690   -4.2650 C   0  0  0  0  0  0  0  0  0  0  0  0
   75.6960   44.1990   -4.1920 C   0  0  0  0  0  0  0  0  0  0  0  0
   76.8920   43.7500   -4.6830 O   0  0  0  0  0  0  0  0  0  0  0  0
   74.7330   43.3520   -3.6350 C   0  0  0  0  0  0  0  0  0  0  0  0
   74.9410   41.9070   -3.5390 C   0  0  0  0  0  0  0  0  0  0  0  0
   75.9720   41.3690   -3.9350 O   0  0  0  0  0  0  0  0  0  0  0  0
   73.8550   41.0990   -2.9400 C   0  0  0  0  0  0  0  0  0  0  0  0
   74.0640   39.7360   -2.8400 O   0  0  0  0  0  0  0  0  0  0  0  0
   71.7940   40.0010   -0.9490 C   0  0  0  0  0  0  0  0  0  0  0  0
   70.7080   39.3130   -0.3660 C   0  0  0  0  0  0  0  0  0  0  0  0
   70.9920   38.2330    0.6550 C   0  0  0  0  0  0  0  0  0  0  0  0
   70.3360   37.0620    0.4110 F   0  0  0  0  0  0  0  0  0  0  0  0
   70.6320   38.5900    1.9200 F   0  0  0  0  0  0  0  0  0  0  0  0
   72.3130   37.9060    0.7190 F   0  0  0  0  0  0  0  0  0  0  0  0
   66.1087   39.6146   -0.2070 H   0  0  0  0  0  0  0  0  0  0  0  0
   67.1047   40.2483   -1.5609 H   0  0  0  0  0  0  0  0  0  0  0  0
   66.5775   38.5311   -1.5609 H   0  0  0  0  0  0  0  0  0  0  0  0
   68.0573   39.2657    0.8779 H   0  0  0  0  0  0  0  0  0  0  0  0
   68.3079   37.8962   -0.2870 H   0  0  0  0  0  0  0  0  0  0  0  0
   68.1865   40.9553   -2.0035 H   0  0  0  0  0  0  0  0  0  0  0  0
   70.1229   42.1362   -3.0105 H   0  0  0  0  0  0  0  0  0  0  0  0
   72.3542   45.6657   -2.8458 H   0  0  0  0  0  0  0  0  0  0  0  0
   74.0747   47.1784   -3.8415 H   0  0  0  0  0  0  0  0  0  0  0  0
   76.2193   46.2354   -4.7020 H   0  0  0  0  0  0  0  0  0  0  0  0
   77.5860   43.5260   -4.0960 H   0  0  0  0  0  0  0  0  0  0  0  0
   73.4570   39.2020   -2.3650 H   0  0  0  0  0  0  0  0  0  0  0  0
   72.8186   39.7272   -0.6571 H   0  0  0  0  0  0  0  0  0  0  0  0
  1  2  1  0
  2  3  1  0
  3  4  2  0
  4  5  1  0
  5  6  2  0
  6  7  1  0
  7  8  1  0
  8  9  1  0
  9 10  2  0
 10 11  1  0
 11 12  2  0
 12 13  1  0
 13 14  1  0
 13 15  2  0
 15 16  1  0
 16 17  2  0
 16 18  1  0
 18 19  1  0
  6 20  1  0
 20 21  2  0
 21 22  1  0
 22 23  1  0
 22 24  1  0
 22 25  1  0
 21  3  1  0
 18  7  2  0
 15  9  1  0
  1 26  1  0
  1 27  1  0
  1 28  1  0
  2 29  1  0
  2 30  1  0
  4 31  1  0
  5 32  1  0
 10 33  1  0
 11 34  1  0
 12 35  1  0
 14 36  1  0
 19 37  1  0
 20 38  1  0
M  END
>  <meeko>  (1) 
{"is_sidechain": [false], "free_energy": -8.185, "intermolecular_energy": -10.099, "internal_energy": -0.26}

$$$$
cand_050_out
     RDKit          3D

 38 40  0  0  0  0  0  0  0  0999 V2000
   76.1560   42.9960   -6.5440 C   0  0  0  0  0  0  0  0  0  0  0  0
   75.3430   43.8090   -5.5470 C   0  0  0  0  0  0  0  0  0  0  0  0
   74.5530   42.9270   -4.6050 C   0  0  0  0  0  0  0  0  0  0  0  0
   73.3950   42.3000   -5.0970 C   0  0  0  0  0  0  0  0  0  0  0  0
   72.6170   41.4800   -4.2770 C   0  0  0  0  0  0  0  0  0  0  0  0
   72.9730   41.2580   -2.9430 C   0  0  0  0  0  0  0  0  0  0  0  0
   72.1250   40.4010   -2.0870 C   0  0  0  0  0  0  0  0  0  0  0  0
   70.7840   40.7680   -2.1130 O   0  0  0  0  0  0  0  0  0  0  0  0
   69.8880   40.0530   -1.3600 C   0  0  0  0  0  0  0  0  0  0  0  0
   68.5550   40.4640   -1.4040 C   0  0  0  0  0  0  0  0  0  0  0  0
   67.5900   39.7770   -0.6620 C   0  0  0  0  0  0  0  0  0  0  0  0
   67.9580   38.6810    0.1200 C   0  0  0  0  0  0  0  0  0  0  0  0
   69.2890   38.2730    0.1610 C   0  0  0  0  0  0  0  0  0  0  0  0
   69.5790   37.1920    0.9490 O   0  0  0  0  0  0  0  0  0  0  0  0
   70.2550   38.9610   -0.5800 C   0  0  0  0  0  0  0  0  0  0  0  0
   71.6630   38.5650   -0.5640 C   0  0  0  0  0  0  0  0  0  0  0  0
   72.0640   37.6070    0.0940 O   0  0  0  0  0  0  0  0  0  0  0  0
   72.6070   39.3640   -1.3780 C   0  0  0  0  0  0  0  0  0  0  0  0
   73.9340   38.9760   -1.3680 O   0  0  0  0  0  0  0  0  0  0  0  0
   74.1190   41.8960   -2.4460 C   0  0  0  0  0  0  0  0  0  0  0  0
   74.9190   42.7300   -3.2560 C   0  0  0  0  0  0  0  0  0  0  0  0
   76.1510   43.3690   -2.6520 C   0  0  0  0  0  0  0  0  0  0  0  0
   76.1170   44.7330   -2.6530 F   0  0  0  0  0  0  0  0  0  0  0  0
   77.2980   43.0370   -3.3100 F   0  0  0  0  0  0  0  0  0  0  0  0
   76.3450   43.0090   -1.3530 F   0  0  0  0  0  0  0  0  0  0  0  0
   76.8323   42.3197   -6.0007 H   0  0  0  0  0  0  0  0  0  0  0  0
   75.4766   42.4052   -7.1760 H   0  0  0  0  0  0  0  0  0  0  0  0
   76.7468   43.6754   -7.1760 H   0  0  0  0  0  0  0  0  0  0  0  0
   76.0285   44.4346   -4.9565 H   0  0  0  0  0  0  0  0  0  0  0  0
   74.6293   44.4251   -6.1136 H   0  0  0  0  0  0  0  0  0  0  0  0
   73.0971   42.4577   -6.1441 H   0  0  0  0  0  0  0  0  0  0  0  0
   71.7136   41.0032   -4.6851 H   0  0  0  0  0  0  0  0  0  0  0  0
   68.2644   41.3268   -2.0213 H   0  0  0  0  0  0  0  0  0  0  0  0
   66.5392   40.1005   -0.6944 H   0  0  0  0  0  0  0  0  0  0  0  0
   67.1979   38.1403    0.7030 H   0  0  0  0  0  0  0  0  0  0  0  0
   70.0140   37.3140    1.7690 H   0  0  0  0  0  0  0  0  0  0  0  0
   74.5190   39.2930   -2.0280 H   0  0  0  0  0  0  0  0  0  0  0  0
   74.4024   41.7418   -1.3944 H   0  0  0  0  0  0  0  0  0  0  0  0
  1  2  1  0
  2  3  1  0
  3  4  2  0
  4  5  1  0
  5  6  2  0
  6  7  1  0
  7  8  1  0
  8  9  1  0
  9 10  2  0
 10 11  1  0
 11 12  2  0
 12 13  1  0
 13 14  1  0
 13 15  2  0
 15 16  1  0
 16 17  2  0
 16 18  1  0
 18 19  1  0
  6 20  1  0
 20 21  2  0
 21 22  1  0
 22 23  1  0
 22 24  1  0
 22 25  1  0
 21  3  1  0
 18  7  2  0
 15  9  1  0
  1 26  1  0
  1 27  1  0
  1 28  1  0
  2 29  1  0
  2 30  1  0
  4 31  1  0
  5 32  1  0
 10 33  1  0
 11 34  1  0
 12 35  1  0
 14 36  1  0
 19 37  1  0
 20 38  1  0
M  END
>  <meeko>  (2) 
{"is_sidechain": [false], "free_energy": -8.107, "intermolecular_energy": -9.744, "internal_energy": -0.518}

$$$$
cand_050_out
     RDKit          3D

 38 40  0  0  0  0  0  0  0  0999 V2000
   76.1930   42.9470   -6.5670 C   0  0  0  0  0  0  0  0  0  0  0  0
   75.4940   43.7930   -5.5120 C   0  0  0  0  0  0  0  0  0  0  0  0
   74.6210   42.9560   -4.6020 C   0  0  0  0  0  0  0  0  0  0  0  0
   73.4820   42.3450   -5.1550 C   0  0  0  0  0  0  0  0  0  0  0  0
   72.6290   41.5670   -4.3680 C   0  0  0  0  0  0  0  0  0  0  0  0
   72.8900   41.3740   -3.0080 C   0  0  0  0  0  0  0  0  0  0  0  0
   71.9650   40.5620   -2.1890 C   0  0  0  0  0  0  0  0  0  0  0  0
   72.5910   39.4870   -1.5680 O   0  0  0  0  0  0  0  0  0  0  0  0
   71.8440   38.6520   -0.7770 C   0  0  0  0  0  0  0  0  0  0  0  0
   72.5090   37.5780   -0.1850 C   0  0  0  0  0  0  0  0  0  0  0  0
   71.8080   36.6900    0.6350 C   0  0  0  0  0  0  0  0  0  0  0  0
   70.4440   36.8780    0.8620 C   0  0  0  0  0  0  0  0  0  0  0  0
   69.7820   37.9500    0.2700 C   0  0  0  0  0  0  0  0  0  0  0  0
   68.4450   38.0740    0.5350 O   0  0  0  0  0  0  0  0  0  0  0  0
   70.4840   38.8380   -0.5510 C   0  0  0  0  0  0  0  0  0  0  0  0
   69.8260   39.9770   -1.1910 C   0  0  0  0  0  0  0  0  0  0  0  0
   68.6300   40.2140   -1.0350 O   0  0  0  0  0  0  0  0  0  0  0  0
   70.6580   40.8530   -2.0480 C   0  0  0  0  0  0  0  0  0  0  0  0
   70.0330   41.9360   -2.6400 O   0  0  0  0  0  0  0  0  0  0  0  0
   74.0170   41.9960   -2.4510 C   0  0  0  0  0  0  0  0  0  0  0  0
   74.8910   42.7880   -3.2270 C   0  0  0  0  0  0  0  0  0  0  0  0
   76.0970   43.4120   -2.5590 C   0  0  0  0  0  0  0  0  0  0  0  0
   77.2840   43.0620   -3.1330 F   0  0  0  0  0  0  0  0  0  0  0  0
   76.2160   43.0650   -1.2460 F   0  0  0  0  0  0  0  0  0  0  0  0
   76.0640   44.7740   -2.5850 F   0  0  0  0  0  0  0  0  0  0  0  0
   76.8192   42.1891   -6.0735 H   0  0  0  0  0  0  0  0  0  0  0  0
   75.4401   42.4482   -7.1949 H   0  0  0  0  0  0  0  0  0  0  0  0
   76.8248   43.5923   -7.1949 H   0  0  0  0  0  0  0  0  0  0  0  0
   76.2556   44.3026   -4.9035 H   0  0  0  0  0  0  0  0  0  0  0  0
   74.8487   44.5177   -6.0301 H   0  0  0  0  0  0  0  0  0  0  0  0
   73.2590   42.4815   -6.2235 H   0  0  0  0  0  0  0  0  0  0  0  0
   71.7425   41.1013   -4.8233 H   0  0  0  0  0  0  0  0  0  0  0  0
   73.5843   37.4304   -0.3636 H   0  0  0  0  0  0  0  0  0  0  0  0
   72.3314   35.8425    1.1017 H   0  0  0  0  0  0  0  0  0  0  0  0
   69.8923   36.1795    1.5083 H   0  0  0  0  0  0  0  0  0  0  0  0
   68.0820   37.6810    1.3030 H   0  0  0  0  0  0  0  0  0  0  0  0
   69.7880   42.6760   -2.1210 H   0  0  0  0  0  0  0  0  0  0  0  0
   74.2258   41.8630   -1.3792 H   0  0  0  0  0  0  0  0  0  0  0  0
  1  2  1  0
  2  3  1  0
  3  4  2  0
  4  5  1  0
  5  6  2  0
  6  7  1  0
  7  8  1  0
  8  9  1  0
  9 10  2  0
 10 11  1  0
 11 12  2  0
 12 13  1  0
 13 14  1  0
 13 15  2  0
 15 16  1  0
 16 17  2  0
 16 18  1  0
 18 19  1  0
  6 20  1  0
 20 21  2  0
 21 22  1  0
 22 23  1  0
 22 24  1  0
 22 25  1  0
 21  3  1  0
 18  7  2  0
 15  9  1  0
  1 26  1  0
  1 27  1  0
  1 28  1  0
  2 29  1  0
  2 30  1  0
  4 31  1  0
  5 32  1  0
 10 33  1  0
 11 34  1  0
 12 35  1  0
 14 36  1  0
 19 37  1  0
 20 38  1  0
M  END
>  <meeko>  (3) 
{"is_sidechain": [false], "free_energy": -8.05, "intermolecular_energy": -9.664, "internal_energy": -0.528}

$$$$
cand_050_out
     RDKit          3D

 38 40  0  0  0  0  0  0  0  0999 V2000
   70.8200   36.1900    0.6400 C   0  0  0  0  0  0  0  0  0  0  0  0
   70.8280   37.5410    1.3420 C   0  0  0  0  0  0  0  0  0  0  0  0
   70.2850   38.6420    0.4580 C   0  0  0  0  0  0  0  0  0  0  0  0
   68.8920   38.7460    0.3080 C   0  0  0  0  0  0  0  0  0  0  0  0
   68.3260   39.7340   -0.5010 C   0  0  0  0  0  0  0  0  0  0  0  0
   69.1350   40.6510   -1.1800 C   0  0  0  0  0  0  0  0  0  0  0  0
   68.5170   41.6780   -2.0460 C   0  0  0  0  0  0  0  0  0  0  0  0
   67.6120   42.4860   -1.3660 O   0  0  0  0  0  0  0  0  0  0  0  0
   66.9670   43.4810   -2.0550 C   0  0  0  0  0  0  0  0  0  0  0  0
   66.0560   44.2590   -1.3380 C   0  0  0  0  0  0  0  0  0  0  0  0
   65.3660   45.2910   -1.9780 C   0  0  0  0  0  0  0  0  0  0  0  0
   65.5870   45.5450   -3.3330 C   0  0  0  0  0  0  0  0  0  0  0  0
   66.4960   44.7680   -4.0460 C   0  0  0  0  0  0  0  0  0  0  0  0
   66.6640   45.0710   -5.3690 O   0  0  0  0  0  0  0  0  0  0  0  0
   67.1860   43.7340   -3.4050 C   0  0  0  0  0  0  0  0  0  0  0  0
   68.1490   42.8940   -4.1170 C   0  0  0  0  0  0  0  0  0  0  0  0
   68.4040   43.0600   -5.3090 O   0  0  0  0  0  0  0  0  0  0  0  0
   68.8210   41.8220   -3.3490 C   0  0  0  0  0  0  0  0  0  0  0  0
   69.7390   41.0400   -4.0250 O   0  0  0  0  0  0  0  0  0  0  0  0
   70.5260   40.5390   -1.0440 C   0  0  0  0  0  0  0  0  0  0  0  0
   71.1190   39.5470   -0.2340 C   0  0  0  0  0  0  0  0  0  0  0  0
   72.6280   39.5010   -0.1230 C   0  0  0  0  0  0  0  0  0  0  0  0
   73.2650   40.3660   -0.9650 F   0  0  0  0  0  0  0  0  0  0  0  0
   73.1450   38.2730   -0.4090 F   0  0  0  0  0  0  0  0  0  0  0  0
   73.0710   39.8130    1.1270 F   0  0  0  0  0  0  0  0  0  0  0  0
   70.8152   35.3865    1.3912 H   0  0  0  0  0  0  0  0  0  0  0  0
   69.9214   36.1090    0.0108 H   0  0  0  0  0  0  0  0  0  0  0  0
   71.7176   36.0984    0.0108 H   0  0  0  0  0  0  0  0  0  0  0  0
   70.2075   37.4743    2.2478 H   0  0  0  0  0  0  0  0  0  0  0  0
   71.8705   37.7883    1.5913 H   0  0  0  0  0  0  0  0  0  0  0  0
   68.2365   38.0379    0.8362 H   0  0  0  0  0  0  0  0  0  0  0  0
   67.2325   39.7915   -0.6052 H   0  0  0  0  0  0  0  0  0  0  0  0
   65.8819   44.0594   -0.2704 H   0  0  0  0  0  0  0  0  0  0  0  0
   64.6478   45.9042   -1.4140 H   0  0  0  0  0  0  0  0  0  0  0  0
   65.0436   46.3580   -3.8366 H   0  0  0  0  0  0  0  0  0  0  0  0
   66.0540   45.6360   -5.8010 H   0  0  0  0  0  0  0  0  0  0  0  0
   69.5070   40.1740   -4.2970 H   0  0  0  0  0  0  0  0  0  0  0  0
   71.1739   41.2448   -1.5843 H   0  0  0  0  0  0  0  0  0  0  0  0
  1  2  1  0
  2  3  1  0
  3  4  2  0
  4  5  1  0
  5  6  2  0
  6  7  1  0
  7  8  1  0
  8  9  1  0
  9 10  2  0
 10 11  1  0
 11 12  2  0
 12 13  1  0
 13 14  1  0
 13 15  2  0
 15 16  1  0
 16 17  2  0
 16 18  1  0
 18 19  1  0
  6 20  1  0
 20 21  2  0
 21 22  1  0
 22 23  1  0
 22 24  1  0
 22 25  1  0
 21  3  1  0
 18  7  2  0
 15  9  1  0
  1 26  1  0
  1 27  1  0
  1 28  1  0
  2 29  1  0
  2 30  1  0
  4 31  1  0
  5 32  1  0
 10 33  1  0
 11 34  1  0
 12 35  1  0
 14 36  1  0
 19 37  1  0
 20 38  1  0
M  END
>  <meeko>  (4) 
{"is_sidechain": [false], "free_energy": -8.04, "intermolecular_energy": -9.69, "internal_energy": -0.49}

$$$$
cand_050_out
     RDKit          3D

 38 40  0  0  0  0  0  0  0  0999 V2000
   75.3660   46.6630   -3.0200 C   0  0  0  0  0  0  0  0  0  0  0  0
   75.4980   45.3040   -3.6910 C   0  0  0  0  0  0  0  0  0  0  0  0
   74.3130   44.4090   -3.3970 C   0  0  0  0  0  0  0  0  0  0  0  0
   73.0280   44.8900   -3.6990 C   0  0  0  0  0  0  0  0  0  0  0  0
   71.8920   44.1170   -3.4430 C   0  0  0  0  0  0  0  0  0  0  0  0
   72.0070   42.8420   -2.8820 C   0  0  0  0  0  0  0  0  0  0  0  0
   70.7910   42.0490   -2.6020 C   0  0  0  0  0  0  0  0  0  0  0  0
   70.8990   41.2810   -1.4480 O   0  0  0  0  0  0  0  0  0  0  0  0
   69.8390   40.4950   -1.0740 C   0  0  0  0  0  0  0  0  0  0  0  0
   69.9950   39.7290    0.0820 C   0  0  0  0  0  0  0  0  0  0  0  0
   68.9530   38.9090    0.5210 C   0  0  0  0  0  0  0  0  0  0  0  0
   67.7560   38.8560   -0.1960 C   0  0  0  0  0  0  0  0  0  0  0  0
   67.6020   39.6220   -1.3490 C   0  0  0  0  0  0  0  0  0  0  0  0
   66.4040   39.5210   -2.0020 O   0  0  0  0  0  0  0  0  0  0  0  0
   68.6460   40.4420   -1.7880 C   0  0  0  0  0  0  0  0  0  0  0  0
   68.5250   41.2610   -2.9940 C   0  0  0  0  0  0  0  0  0  0  0  0
   67.5020   41.2750   -3.6740 O   0  0  0  0  0  0  0  0  0  0  0  0
   69.6920   42.0890   -3.3770 C   0  0  0  0  0  0  0  0  0  0  0  0
   69.5660   42.8710   -4.5110 O   0  0  0  0  0  0  0  0  0  0  0  0
   73.2880   42.3680   -2.5640 C   0  0  0  0  0  0  0  0  0  0  0  0
   74.4490   43.1320   -2.8120 C   0  0  0  0  0  0  0  0  0  0  0  0
   75.7980   42.5440   -2.4580 C   0  0  0  0  0  0  0  0  0  0  0  0
   76.4550   43.2300   -1.4790 F   0  0  0  0  0  0  0  0  0  0  0  0
   76.6580   42.5150   -3.5150 F   0  0  0  0  0  0  0  0  0  0  0  0
   75.7100   41.2610   -2.0100 F   0  0  0  0  0  0  0  0  0  0  0  0
   75.3784   46.5353   -1.9275 H   0  0  0  0  0  0  0  0  0  0  0  0
   76.2060   47.3050   -3.3237 H   0  0  0  0  0  0  0  0  0  0  0  0
   74.4181   47.1313   -3.3237 H   0  0  0  0  0  0  0  0  0  0  0  0
   75.5711   45.4506   -4.7787 H   0  0  0  0  0  0  0  0  0  0  0  0
   76.3999   44.8151   -3.2939 H   0  0  0  0  0  0  0  0  0  0  0  0
   72.9142   45.8897   -4.1435 H   0  0  0  0  0  0  0  0  0  0  0  0
   70.8963   44.5166   -3.6858 H   0  0  0  0  0  0  0  0  0  0  0  0
   70.9379   39.7710    0.6470 H   0  0  0  0  0  0  0  0  0  0  0  0
   69.0754   38.3047    1.4320 H   0  0  0  0  0  0  0  0  0  0  0  0
   66.9355   38.2099    0.1494 H   0  0  0  0  0  0  0  0  0  0  0  0
   66.3470   39.7340   -2.9110 H   0  0  0  0  0  0  0  0  0  0  0  0
   69.8810   43.7530   -4.5080 H   0  0  0  0  0  0  0  0  0  0  0  0
   73.3911   41.3722   -2.1082 H   0  0  0  0  0  0  0  0  0  0  0  0
  1  2  1  0
  2  3  1  0
  3  4  2  0
  4  5  1  0
  5  6  2  0
  6  7  1  0
  7  8  1  0
  8  9  1  0
  9 10  2  0
 10 11  1  0
 11 12  2  0
 12 13  1  0
 13 14  1  0
 13 15  2  0
 15 16  1  0
 16 17  2  0
 16 18  1  0
 18 19  1  0
  6 20  1  0
 20 21  2  0
 21 22  1  0
 22 23  1  0
 22 24  1  0
 22 25  1  0
 21  3  1  0
 18  7  2  0
 15  9  1  0
  1 26  1  0
  1 27  1  0
  1 28  1  0
  2 29  1  0
  2 30  1  0
  4 31  1  0
  5 32  1  0
 10 33  1  0
 11 34  1  0
 12 35  1  0
 14 36  1  0
 19 37  1  0
 20 38  1  0
M  END
>  <meeko>  (5) 
{"is_sidechain": [false], "free_energy": -8.008, "intermolecular_energy": -9.931, "internal_energy": -0.209}

$$$$
cand_050_out
     RDKit          3D

 38 40  0  0  0  0  0  0  0  0999 V2000
   77.8920   44.7630   -3.6100 C   0  0  0  0  0  0  0  0  0  0  0  0
   77.6430   43.4000   -4.2410 C   0  0  0  0  0  0  0  0  0  0  0  0
   76.4100   42.7300   -3.6750 C   0  0  0  0  0  0  0  0  0  0  0  0
   76.3620   42.4880   -2.2920 C   0  0  0  0  0  0  0  0  0  0  0  0
   75.2570   41.8640   -1.7080 C   0  0  0  0  0  0  0  0  0  0  0  0
   74.1660   41.4690   -2.4870 C   0  0  0  0  0  0  0  0  0  0  0  0
   73.0140   40.7940   -1.8510 C   0  0  0  0  0  0  0  0  0  0  0  0
   73.3360   39.5450   -1.3320 O   0  0  0  0  0  0  0  0  0  0  0  0
   72.3550   38.8120   -0.7150 C   0  0  0  0  0  0  0  0  0  0  0  0
   72.7180   37.5580   -0.2220 C   0  0  0  0  0  0  0  0  0  0  0  0
   71.7680   36.7600    0.4210 C   0  0  0  0  0  0  0  0  0  0  0  0
   70.4580   37.2170    0.5700 C   0  0  0  0  0  0  0  0  0  0  0  0
   70.0980   38.4680    0.0770 C   0  0  0  0  0  0  0  0  0  0  0  0
   68.7970   38.8530    0.2580 O   0  0  0  0  0  0  0  0  0  0  0  0
   71.0480   39.2660   -0.5660 C   0  0  0  0  0  0  0  0  0  0  0  0
   70.7120   40.5870   -1.0990 C   0  0  0  0  0  0  0  0  0  0  0  0
   69.5820   41.0610   -1.0000 O   0  0  0  0  0  0  0  0  0  0  0  0
   71.7900   41.3490   -1.7700 C   0  0  0  0  0  0  0  0  0  0  0  0
   71.4680   42.6010   -2.2590 O   0  0  0  0  0  0  0  0  0  0  0  0
   74.2180   41.6950   -3.8700 C   0  0  0  0  0  0  0  0  0  0  0  0
   75.3260   42.3210   -4.4820 C   0  0  0  0  0  0  0  0  0  0  0  0
   75.3010   42.5470   -5.9780 C   0  0  0  0  0  0  0  0  0  0  0  0
   75.3880   43.8620   -6.3340 F   0  0  0  0  0  0  0  0  0  0  0  0
   74.1600   42.0900   -6.5660 F   0  0  0  0  0  0  0  0  0  0  0  0
   76.3300   41.9250   -6.6190 F   0  0  0  0  0  0  0  0  0  0  0  0
   77.8747   44.6684   -2.5142 H   0  0  0  0  0  0  0  0  0  0  0  0
   78.8741   45.1413   -3.9299 H   0  0  0  0  0  0  0  0  0  0  0  0
   77.1071   45.4641   -3.9299 H   0  0  0  0  0  0  0  0  0  0  0  0
   77.5107   43.5295   -5.3253 H   0  0  0  0  0  0  0  0  0  0  0  0
   78.5096   42.7597   -4.0195 H   0  0  0  0  0  0  0  0  0  0  0  0
   77.2078   42.7947   -1.6590 H   0  0  0  0  0  0  0  0  0  0  0  0
   75.2455   41.6816   -0.6233 H   0  0  0  0  0  0  0  0  0  0  0  0
   73.7508   37.1981   -0.3394 H   0  0  0  0  0  0  0  0  0  0  0  0
   72.0530   35.7713    0.8098 H   0  0  0  0  0  0  0  0  0  0  0  0
   69.7103   36.5891    1.0767 H   0  0  0  0  0  0  0  0  0  0  0  0
   68.1500   38.2190    0.4960 H   0  0  0  0  0  0  0  0  0  0  0  0
   70.6110   42.7640   -2.6000 H   0  0  0  0  0  0  0  0  0  0  0  0
   73.3717   41.3756   -4.4959 H   0  0  0  0  0  0  0  0  0  0  0  0
  1  2  1  0
  2  3  1  0
  3  4  2  0
  4  5  1  0
  5  6  2  0
  6  7  1  0
  7  8  1  0
  8  9  1  0
  9 10  2  0
 10 11  1  0
 11 12  2  0
 12 13  1  0
 13 14  1  0
 13 15  2  0
 15 16  1  0
 16 17  2  0
 16 18  1  0
 18 19  1  0
  6 20  1  0
 20 21  2  0
 21 22  1  0
 22 23  1  0
 22 24  1  0
 22 25  1  0
 21  3  1  0
 18  7  2  0
 15  9  1  0
  1 26  1  0
  1 27  1  0
  1 28  1  0
  2 29  1  0
  2 30  1  0
  4 31  1  0
  5 32  1  0
 10 33  1  0
 11 34  1  0
 12 35  1  0
 14 36  1  0
 19 37  1  0
 20 38  1  0
M  END
>  <meeko>  (6) 
{"is_sidechain": [false], "free_energy": -7.959, "intermolecular_energy": -9.457, "internal_energy": -0.623}

$$$$
cand_050_out
     RDKit          3D

 38 40  0  0  0  0  0  0  0  0999 V2000
   67.1250   38.9550   -0.0760 C   0  0  0  0  0  0  0  0  0  0  0  0
   68.4970   38.5910    0.4720 C   0  0  0  0  0  0  0  0  0  0  0  0
   69.6140   39.2280   -0.3270 C   0  0  0  0  0  0  0  0  0  0  0  0
   69.3080   40.3490   -1.1170 C   0  0  0  0  0  0  0  0  0  0  0  0
   70.2910   40.9780   -1.8850 C   0  0  0  0  0  0  0  0  0  0  0  0
   71.6080   40.5080   -1.8850 C   0  0  0  0  0  0  0  0  0  0  0  0
   72.6280   41.1760   -2.7200 C   0  0  0  0  0  0  0  0  0  0  0  0
   73.7820   41.4960   -2.0130 O   0  0  0  0  0  0  0  0  0  0  0  0
   74.8100   42.1210   -2.6710 C   0  0  0  0  0  0  0  0  0  0  0  0
   75.9430   42.4370   -1.9200 C   0  0  0  0  0  0  0  0  0  0  0  0
   77.0280   43.0730   -2.5290 C   0  0  0  0  0  0  0  0  0  0  0  0
   76.9790   43.3910   -3.8870 C   0  0  0  0  0  0  0  0  0  0  0  0
   75.8470   43.0750   -4.6350 C   0  0  0  0  0  0  0  0  0  0  0  0
   75.8660   43.4160   -5.9600 O   0  0  0  0  0  0  0  0  0  0  0  0
   74.7610   42.4400   -4.0250 C   0  0  0  0  0  0  0  0  0  0  0  0
   73.5540   42.0900   -4.7730 C   0  0  0  0  0  0  0  0  0  0  0  0
   73.4370   42.3310   -5.9730 O   0  0  0  0  0  0  0  0  0  0  0  0
   72.4580   41.4260   -4.0310 C   0  0  0  0  0  0  0  0  0  0  0  0
   71.3250   41.0870   -4.7480 O   0  0  0  0  0  0  0  0  0  0  0  0
   71.9110   39.3790   -1.1100 C   0  0  0  0  0  0  0  0  0  0  0  0
   70.9340   38.7260   -0.3280 C   0  0  0  0  0  0  0  0  0  0  0  0
   71.3420   37.5250    0.4960 C   0  0  0  0  0  0  0  0  0  0  0  0
   70.6840   36.3780    0.1560 F   0  0  0  0  0  0  0  0  0  0  0  0
   71.1090   37.6900    1.8290 F   0  0  0  0  0  0  0  0  0  0  0  0
   72.6680   37.2350    0.3800 F   0  0  0  0  0  0  0  0  0  0  0  0
   66.4334   39.1385    0.7594 H   0  0  0  0  0  0  0  0  0  0  0  0
   67.2052   39.8629   -0.6918 H   0  0  0  0  0  0  0  0  0  0  0  0
   66.7446   38.1267   -0.6918 H   0  0  0  0  0  0  0  0  0  0  0  0
   68.5656   38.9346    1.5147 H   0  0  0  0  0  0  0  0  0  0  0  0
   68.6110   37.4990    0.4046 H   0  0  0  0  0  0  0  0  0  0  0  0
   68.2789   40.7372   -1.1310 H   0  0  0  0  0  0  0  0  0  0  0  0
   70.0260   41.8530   -2.4967 H   0  0  0  0  0  0  0  0  0  0  0  0
   75.9819   42.1857   -0.8498 H   0  0  0  0  0  0  0  0  0  0  0  0
   77.9212   43.3232   -1.9377 H   0  0  0  0  0  0  0  0  0  0  0  0
   77.8336   43.8908   -4.3664 H   0  0  0  0  0  0  0  0  0  0  0  0
   76.3830   44.1410   -6.2490 H   0  0  0  0  0  0  0  0  0  0  0  0
   70.6540   40.5720   -4.3460 H   0  0  0  0  0  0  0  0  0  0  0  0
   72.9403   38.9910   -1.1116 H   0  0  0  0  0  0  0  0  0  0  0  0
  1  2  1  0
  2  3  1  0
  3  4  2  0
  4  5  1  0
  5  6  2  0
  6  7  1  0
  7  8  1  0
  8  9  1  0
  9 10  2  0
 10 11  1  0
 11 12  2  0
 12 13  1  0
 13 14  1  0
 13 15  2  0
 15 16  1  0
 16 17  2  0
 16 18  1  0
 18 19  1  0
  6 20  1  0
 20 21  2  0
 21 22  1  0
 22 23  1  0
 22 24  1  0
 22 25  1  0
 21  3  1  0
 18  7  2  0
 15  9  1  0
  1 26  1  0
  1 27  1  0
  1 28  1  0
  2 29  1  0
  2 30  1  0
  4 31  1  0
  5 32  1  0
 10 33  1  0
 11 34  1  0
 12 35  1  0
 14 36  1  0
 19 37  1  0
 20 38  1  0
M  END
>  <meeko>  (7) 
{"is_sidechain": [false], "free_energy": -7.948, "intermolecular_energy": -9.684, "internal_energy": -0.382}

$$$$
cand_050_out
     RDKit          3D

 38 40  0  0  0  0  0  0  0  0999 V2000
   70.6640   37.9510    2.2120 C   0  0  0  0  0  0  0  0  0  0  0  0
   70.2480   37.4580    0.8340 C   0  0  0  0  0  0  0  0  0  0  0  0
   70.1510   38.5900   -0.1670 C   0  0  0  0  0  0  0  0  0  0  0  0
   68.9320   39.2800   -0.2720 C   0  0  0  0  0  0  0  0  0  0  0  0
   68.7730   40.3270   -1.1820 C   0  0  0  0  0  0  0  0  0  0  0  0
   69.8280   40.7190   -2.0110 C   0  0  0  0  0  0  0  0  0  0  0  0
   69.6340   41.8180   -2.9810 C   0  0  0  0  0  0  0  0  0  0  0  0
   70.7240   42.6790   -3.0500 O   0  0  0  0  0  0  0  0  0  0  0  0
   70.6720   43.7440   -3.9120 C   0  0  0  0  0  0  0  0  0  0  0  0
   71.7810   44.5910   -3.9380 C   0  0  0  0  0  0  0  0  0  0  0  0
   71.7960   45.6940   -4.7960 C   0  0  0  0  0  0  0  0  0  0  0  0
   70.7030   45.9480   -5.6260 C   0  0  0  0  0  0  0  0  0  0  0  0
   69.5980   45.1010   -5.5980 C   0  0  0  0  0  0  0  0  0  0  0  0
   68.5620   45.4100   -6.4380 O   0  0  0  0  0  0  0  0  0  0  0  0
   69.5830   43.9990   -4.7390 C   0  0  0  0  0  0  0  0  0  0  0  0
   68.4420   43.0850   -4.6790 C   0  0  0  0  0  0  0  0  0  0  0  0
   67.4460   43.2370   -5.3830 O   0  0  0  0  0  0  0  0  0  0  0  0
   68.5230   41.9510   -3.7300 C   0  0  0  0  0  0  0  0  0  0  0  0
   67.4470   41.0840   -3.6870 O   0  0  0  0  0  0  0  0  0  0  0  0
   71.0410   40.0210   -1.9200 C   0  0  0  0  0  0  0  0  0  0  0  0
   71.2230   38.9580   -1.0090 C   0  0  0  0  0  0  0  0  0  0  0  0
   72.5670   38.2640   -0.9560 C   0  0  0  0  0  0  0  0  0  0  0  0
   72.4800   36.9030   -0.9080 F   0  0  0  0  0  0  0  0  0  0  0  0
   73.3030   38.6160    0.1360 F   0  0  0  0  0  0  0  0  0  0  0  0
   73.3440   38.5440   -2.0390 F   0  0  0  0  0  0  0  0  0  0  0  0
   70.1585   37.3520    2.9838 H   0  0  0  0  0  0  0  0  0  0  0  0
   71.7535   37.8495    2.3242 H   0  0  0  0  0  0  0  0  0  0  0  0
   70.3807   39.0079    2.3242 H   0  0  0  0  0  0  0  0  0  0  0  0
   70.9923   36.7309    0.4771 H   0  0  0  0  0  0  0  0  0  0  0  0
   69.2533   36.9970    0.9236 H   0  0  0  0  0  0  0  0  0  0  0  0
   68.0892   38.9909    0.3730 H   0  0  0  0  0  0  0  0  0  0  0  0
   67.8070   40.8491   -1.2473 H   0  0  0  0  0  0  0  0  0  0  0  0
   72.6423   44.3906   -3.2838 H   0  0  0  0  0  0  0  0  0  0  0  0
   72.6695   46.3622   -4.8172 H   0  0  0  0  0  0  0  0  0  0  0  0
   70.7144   46.8162   -6.3014 H   0  0  0  0  0  0  0  0  0  0  0  0
   68.1610   44.7390   -6.9530 H   0  0  0  0  0  0  0  0  0  0  0  0
   66.6860   41.2570   -4.2050 H   0  0  0  0  0  0  0  0  0  0  0  0
   71.8744   40.3100   -2.5772 H   0  0  0  0  0  0  0  0  0  0  0  0
  1  2  1  0
  2  3  1  0
  3  4  2  0
  4  5  1  0
  5  6  2  0
  6  7  1  0
  7  8  1  0
  8  9  1  0
  9 10  2  0
 10 11  1  0
 11 12  2  0
 12 13  1  0
 13 14  1  0
 13 15  2  0
 15 16  1  0
 16 17  2  0
 16 18  1  0
 18 19  1  0
  6 20  1  0
 20 21  2  0
 21 22  1  0
 22 23  1  0
 22 24  1  0
 22 25  1  0
 21  3  1  0
 18  7  2  0
 15  9  1  0
  1 26  1  0
  1 27  1  0
  1 28  1  0
  2 29  1  0
  2 30  1  0
  4 31  1  0
  5 32  1  0
 10 33  1  0
 11 34  1  0
 12 35  1  0
 14 36  1  0
 19 37  1  0
 20 38  1  0
M  END
>  <meeko>  (8) 
{"is_sidechain": [false], "free_energy": -7.94, "intermolecular_energy": -9.763, "internal_energy": -0.294}

$$$$
cand_050_out
     RDKit          3D

 38 40  0  0  0  0  0  0  0  0999 V2000
   77.8820   43.2970   -4.3330 C   0  0  0  0  0  0  0  0  0  0  0  0
   77.3290   43.5260   -2.9340 C   0  0  0  0  0  0  0  0  0  0  0  0
   75.8840   43.0940   -2.8170 C   0  0  0  0  0  0  0  0  0  0  0  0
   75.6170   41.7520   -2.4970 C   0  0  0  0  0  0  0  0  0  0  0  0
   74.3050   41.2870   -2.3830 C   0  0  0  0  0  0  0  0  0  0  0  0
   73.2210   42.1480   -2.5810 C   0  0  0  0  0  0  0  0  0  0  0  0
   71.8410   41.6300   -2.4730 C   0  0  0  0  0  0  0  0  0  0  0  0
   71.6300   40.8830   -1.3200 O   0  0  0  0  0  0  0  0  0  0  0  0
   70.3890   40.3430   -1.0980 C   0  0  0  0  0  0  0  0  0  0  0  0
   70.2260   39.5880    0.0640 C   0  0  0  0  0  0  0  0  0  0  0  0
   68.9860   39.0120    0.3520 C   0  0  0  0  0  0  0  0  0  0  0  0
   67.9110   39.1930   -0.5200 C   0  0  0  0  0  0  0  0  0  0  0  0
   68.0770   39.9470   -1.6790 C   0  0  0  0  0  0  0  0  0  0  0  0
   66.9820   40.0830   -2.4890 O   0  0  0  0  0  0  0  0  0  0  0  0
   69.3180   40.5220   -1.9680 C   0  0  0  0  0  0  0  0  0  0  0  0
   69.5330   41.3220   -3.1740 C   0  0  0  0  0  0  0  0  0  0  0  0
   68.6360   41.5320   -3.9860 O   0  0  0  0  0  0  0  0  0  0  0  0
   70.8880   41.8810   -3.3900 C   0  0  0  0  0  0  0  0  0  0  0  0
   71.0810   42.6460   -4.5250 O   0  0  0  0  0  0  0  0  0  0  0  0
   73.4860   43.4830   -2.9160 C   0  0  0  0  0  0  0  0  0  0  0  0
   74.8030   43.9750   -3.0390 C   0  0  0  0  0  0  0  0  0  0  0  0
   75.0090   45.4340   -3.3860 C   0  0  0  0  0  0  0  0  0  0  0  0
   75.4510   45.6360   -4.6610 F   0  0  0  0  0  0  0  0  0  0  0  0
   75.9250   46.0460   -2.5850 F   0  0  0  0  0  0  0  0  0  0  0  0
   73.8650   46.1650   -3.2750 F   0  0  0  0  0  0  0  0  0  0  0  0
   78.8962   42.8770   -4.2622 H   0  0  0  0  0  0  0  0  0  0  0  0
   77.2312   42.5944   -4.8741 H   0  0  0  0  0  0  0  0  0  0  0  0
   77.9184   44.2540   -4.8741 H   0  0  0  0  0  0  0  0  0  0  0  0
   77.9309   42.9500   -2.2157 H   0  0  0  0  0  0  0  0  0  0  0  0
   77.3791   44.6041   -2.7216 H   0  0  0  0  0  0  0  0  0  0  0  0
   76.4540   41.0572   -2.3338 H   0  0  0  0  0  0  0  0  0  0  0  0
   74.1222   40.2311   -2.1346 H   0  0  0  0  0  0  0  0  0  0  0  0
   71.0723   39.4465    0.7522 H   0  0  0  0  0  0  0  0  0  0  0  0
   68.8567   38.4152    1.2669 H   0  0  0  0  0  0  0  0  0  0  0  0
   66.9345   38.7408   -0.2920 H   0  0  0  0  0  0  0  0  0  0  0  0
   67.0750   40.0110   -3.4170 H   0  0  0  0  0  0  0  0  0  0  0  0
   71.6810   43.3650   -4.5090 H   0  0  0  0  0  0  0  0  0  0  0  0
   72.6424   44.1676   -3.0881 H   0  0  0  0  0  0  0  0  0  0  0  0
  1  2  1  0
  2  3  1  0
  3  4  2  0
  4  5  1  0
  5  6  2  0
  6  7  1  0
  7  8  1  0
  8  9  1  0
  9 10  2  0
 10 11  1  0
 11 12  2  0
 12 13  1  0
 13 14  1  0
 13 15  2  0
 15 16  1  0
 16 17  2  0
 16 18  1  0
 18 19  1  0
  6 20  1  0
 20 21  2  0
 21 22  1  0
 22 23  1  0
 22 24  1  0
 22 25  1  0
 21  3  1  0
 18  7  2  0
 15  9  1  0
  1 26  1  0
  1 27  1  0
  1 28  1  0
  2 29  1  0
  2 30  1  0
  4 31  1  0
  5 32  1  0
 10 33  1  0
 11 34  1  0
 12 35  1  0
 14 36  1  0
 19 37  1  0
 20 38  1  0
M  END
>  <meeko>  (9) 
{"is_sidechain": [false], "free_energy": -7.892, "intermolecular_energy": -9.619, "internal_energy": -0.378}

$$$$
