cand_005_out
     RDKit          3D

 36 38  0  0  0  0  0  0  0  0999 V2000
   67.8940   38.9290   -0.2120 C   0  0  0  0  0  0  0  0  0  0  0  0
   69.0540   38.9270    0.4560 C   0  0  0  0  0  0  0  0  0  0  0  0
   70.3550   39.0200   -0.2180 C   0  0  0  0  0  0  0  0  0  0  0  0
   70.5690   40.0680   -1.1330 C   0  0  0  0  0  0  0  0  0  0  0  0
   71.7830   40.2020   -1.8250 C   0  0  0  0  0  0  0  0  0  0  0  0
   71.9750   41.3320   -2.7590 C   0  0  0  0  0  0  0  0  0  0  0  0
   73.1030   42.0900   -2.4660 O   0  0  0  0  0  0  0  0  0  0  0  0
   73.3970   43.1720   -3.2560 C   0  0  0  0  0  0  0  0  0  0  0  0
   74.5460   43.8970   -2.9350 C   0  0  0  0  0  0  0  0  0  0  0  0
   74.9020   45.0110   -3.6970 C   0  0  0  0  0  0  0  0  0  0  0  0
   74.1100   45.4010   -4.7800 C   0  0  0  0  0  0  0  0  0  0  0  0
   72.9640   44.6760   -5.0970 C   0  0  0  0  0  0  0  0  0  0  0  0
   72.2350   45.1130   -6.1680 O   0  0  0  0  0  0  0  0  0  0  0  0
   72.6090   43.5610   -4.3340 C   0  0  0  0  0  0  0  0  0  0  0  0
   71.4130   42.7720   -4.6350 C   0  0  0  0  0  0  0  0  0  0  0  0
   70.6620   43.0550   -5.5660 O   0  0  0  0  0  0  0  0  0  0  0  0
   71.1280   41.6040   -3.7690 C   0  0  0  0  0  0  0  0  0  0  0  0
   69.9890   40.8740   -4.0510 O   0  0  0  0  0  0  0  0  0  0  0  0
   72.7960   39.2720   -1.5750 C   0  0  0  0  0  0  0  0  0  0  0  0
   72.5950   38.2240   -0.6730 C   0  0  0  0  0  0  0  0  0  0  0  0
   71.3760   38.0810    0.0130 C   0  0  0  0  0  0  0  0  0  0  0  0
   71.1990   36.9420    0.9900 C   0  0  0  0  0  0  0  0  0  0  0  0
   70.6890   37.3400    2.1880 F   0  0  0  0  0  0  0  0  0  0  0  0
   72.3680   36.3030    1.2890 F   0  0  0  0  0  0  0  0  0  0  0  0
   70.3660   35.9670    0.5260 F   0  0  0  0  0  0  0  0  0  0  0  0
   66.9433   38.8573    0.3366 H   0  0  0  0  0  0  0  0  0  0  0  0
   67.8915   39.0024   -1.3095 H   0  0  0  0  0  0  0  0  0  0  0  0
   69.0316   38.8527    1.5533 H   0  0  0  0  0  0  0  0  0  0  0  0
   69.7663   40.7990   -1.3099 H   0  0  0  0  0  0  0  0  0  0  0  0
   75.1701   43.5907   -2.0825 H   0  0  0  0  0  0  0  0  0  0  0  0
   75.8073   45.5826   -3.4445 H   0  0  0  0  0  0  0  0  0  0  0  0
   74.3910   46.2786   -5.3808 H   0  0  0  0  0  0  0  0  0  0  0  0
   71.3040   45.1940   -6.1010 H   0  0  0  0  0  0  0  0  0  0  0  0
   70.0340   39.9410   -4.1200 H   0  0  0  0  0  0  0  0  0  0  0  0
   73.7614   39.3661   -2.0937 H   0  0  0  0  0  0  0  0  0  0  0  0
   73.4034   37.4992   -0.4967 H   0  0  0  0  0  0  0  0  0  0  0  0
  1  2  2  0
  2  3  1  0
  3  4  2  0
  4  5  1  0
  5  6  1  0
  6  7  1  0
  7  8  1  0
  8  9  2  0
  9 10  1  0
 10 11  2  0
 11 12  1  0
 12 13  1  0
 12 14  2  0
 14 15  1  0
 15 16  2  0
 15 17  1  0
 17 18  1  0
  5 19  2  0
 19 20  1  0
 20 21  2  0
 21 22  1  0
 22 23  1  0
 22 24  1  0
 22 25  1  0
 21  3  1  0
 17  6  2  0
 14  8  1  0
  1 26  1  0
  1 27  1  0
  2 28  1  0
  4 29  1  0
  9 30  1  0
 10 31  1  0
 11 32  1  0
 13 33  1  0
 18 34  1  0
 19 35  1  0
 20 36  1  0
M  END
>  <meeko>  (1) 
{"is_sidechain": [false], "free_energy": -8.521, "intermolecular_energy": -10.513, "internal_energy": -0.336}

$$$$
cand_005_out
     RDKit          3D

 36 38  0  0  0  0  0  0  0  0999 V2000
   69.8770   42.9570   -0.9530 C   0  0  0  0  0  0  0  0  0  0  0  0
   70.1370   41.7100   -0.5450 C   0  0  0  0  0  0  0  0  0  0  0  0
   71.1190   40.8470   -1.2140 C   0  0  0  0  0  0  0  0  0  0  0  0
   72.0670   41.4380   -2.0700 C   0  0  0  0  0  0  0  0  0  0  0  0
   73.0200   40.6690   -2.7540 C   0  0  0  0  0  0  0  0  0  0  0  0
   74.0140   41.3330   -3.6230 C   0  0  0  0  0  0  0  0  0  0  0  0
   73.4890   41.7160   -4.8520 O   0  0  0  0  0  0  0  0  0  0  0  0
   74.3070   42.3430   -5.7560 C   0  0  0  0  0  0  0  0  0  0  0  0
   73.7360   42.7220   -6.9720 C   0  0  0  0  0  0  0  0  0  0  0  0
   74.5140   43.3630   -7.9370 C   0  0  0  0  0  0  0  0  0  0  0  0
   75.8630   43.6260   -7.6880 C   0  0  0  0  0  0  0  0  0  0  0  0
   76.4310   43.2460   -6.4740 C   0  0  0  0  0  0  0  0  0  0  0  0
   77.7560   43.5340   -6.2970 O   0  0  0  0  0  0  0  0  0  0  0  0
   75.6510   42.6050   -5.5080 C   0  0  0  0  0  0  0  0  0  0  0  0
   76.2090   42.1910   -4.2200 C   0  0  0  0  0  0  0  0  0  0  0  0
   77.3880   42.3800   -3.9290 O   0  0  0  0  0  0  0  0  0  0  0  0
   75.2960   41.5240   -3.2620 C   0  0  0  0  0  0  0  0  0  0  0  0
   75.8360   41.1230   -2.0540 O   0  0  0  0  0  0  0  0  0  0  0  0
   73.0210   39.2850   -2.5570 C   0  0  0  0  0  0  0  0  0  0  0  0
   72.0830   38.6830   -1.7140 C   0  0  0  0  0  0  0  0  0  0  0  0
   71.1190   39.4520   -1.0360 C   0  0  0  0  0  0  0  0  0  0  0  0
   70.1270   38.7690   -0.1240 C   0  0  0  0  0  0  0  0  0  0  0  0
   70.1780   39.2230    1.1590 F   0  0  0  0  0  0  0  0  0  0  0  0
   70.3180   37.4190   -0.0370 F   0  0  0  0  0  0  0  0  0  0  0  0
   68.8350   38.9220   -0.5310 F   0  0  0  0  0  0  0  0  0  0  0  0
   69.1323   43.5662   -0.4197 H   0  0  0  0  0  0  0  0  0  0  0  0
   70.4078   43.3734   -1.8218 H   0  0  0  0  0  0  0  0  0  0  0  0
   69.5937   41.3152    0.3262 H   0  0  0  0  0  0  0  0  0  0  0  0
   72.0604   42.5295   -2.2059 H   0  0  0  0  0  0  0  0  0  0  0  0
   72.6737   42.5156   -7.1694 H   0  0  0  0  0  0  0  0  0  0  0  0
   74.0641   43.6616   -8.8953 H   0  0  0  0  0  0  0  0  0  0  0  0
   76.4755   44.1320   -8.4488 H   0  0  0  0  0  0  0  0  0  0  0  0
   78.4090   43.0240   -6.7340 H   0  0  0  0  0  0  0  0  0  0  0  0
   75.6600   40.2640   -1.7230 H   0  0  0  0  0  0  0  0  0  0  0  0
   73.7684   38.6630   -3.0712 H   0  0  0  0  0  0  0  0  0  0  0  0
   72.0984   37.5915   -1.5784 H   0  0  0  0  0  0  0  0  0  0  0  0
  1  2  2  0
  2  3  1  0
  3  4  2  0
  4  5  1  0
  5  6  1  0
  6  7  1  0
  7  8  1  0
  8  9  2  0
  9 10  1  0
 10 11  2  0
 11 12  1  0
 12 13  1  0
 12 14  2  0
 14 15  1  0
 15 16  2  0
 15 17  1  0
 17 18  1  0
  5 19  2  0
 19 20  1  0
 20 21  2  0
 21 22  1  0
 22 23  1  0
 22 24  1  0
 22 25  1  0
 21  3  1  0
 17  6  2  0
 14  8  1  0
  1 26  1  0
  1 27  1  0
  2 28  1  0
  4 29  1  0
  9 30  1  0
 10 31  1  0
 11 32  1  0
 13 33  1  0
 18 34  1  0
 19 35  1  0
 20 36  1  0
M  END
>  <meeko>  (2) 
{"is_sidechain": [false], "free_energy": -8.373, "intermolecular_energy": -10.112, "internal_energy": -0.555}

$$$$
cand_005_out
     RDKit          3D

 36 38  0  0  0  0  0  0  0  0999 V2000
   73.4910   39.3920   -1.1660 C   0  0  0  0  0  0  0  0  0  0  0  0
   72.6500   39.2840   -0.1300 C   0  0  0  0  0  0  0  0  0  0  0  0
   71.1910   39.2740   -0.2950 C   0  0  0  0  0  0  0  0  0  0  0  0
   70.5850   40.3200   -1.0150 C   0  0  0  0  0  0  0  0  0  0  0  0
   69.1940   40.3800   -1.1920 C   0  0  0  0  0  0  0  0  0  0  0  0
   68.6000   41.4830   -1.9780 C   0  0  0  0  0  0  0  0  0  0  0  0
   67.6920   42.2400   -1.2470 O   0  0  0  0  0  0  0  0  0  0  0  0
   67.0670   43.2960   -1.8590 C   0  0  0  0  0  0  0  0  0  0  0  0
   66.1720   44.0370   -1.0850 C   0  0  0  0  0  0  0  0  0  0  0  0
   65.5000   45.1240   -1.6470 C   0  0  0  0  0  0  0  0  0  0  0  0
   65.7220   45.4710   -2.9820 C   0  0  0  0  0  0  0  0  0  0  0  0
   66.6140   44.7290   -3.7520 C   0  0  0  0  0  0  0  0  0  0  0  0
   66.7830   45.1220   -5.0510 O   0  0  0  0  0  0  0  0  0  0  0  0
   67.2870   43.6410   -3.1890 C   0  0  0  0  0  0  0  0  0  0  0  0
   68.2330   42.8360   -3.9630 C   0  0  0  0  0  0  0  0  0  0  0  0
   68.4760   43.0730   -5.1450 O   0  0  0  0  0  0  0  0  0  0  0  0
   68.8980   41.7080   -3.2710 C   0  0  0  0  0  0  0  0  0  0  0  0
   69.7790   40.9450   -4.0140 O   0  0  0  0  0  0  0  0  0  0  0  0
   68.4100   39.3600   -0.6450 C   0  0  0  0  0  0  0  0  0  0  0  0
   68.9980   38.3180    0.0760 C   0  0  0  0  0  0  0  0  0  0  0  0
   70.3910   38.2610    0.2650 C   0  0  0  0  0  0  0  0  0  0  0  0
   70.9930   37.1140    1.0410 C   0  0  0  0  0  0  0  0  0  0  0  0
   71.0490   37.3460    2.3820 F   0  0  0  0  0  0  0  0  0  0  0  0
   72.2750   36.8270    0.6700 F   0  0  0  0  0  0  0  0  0  0  0  0
   70.3060   35.9460    0.8860 F   0  0  0  0  0  0  0  0  0  0  0  0
   74.5775   39.3950   -0.9944 H   0  0  0  0  0  0  0  0  0  0  0  0
   73.0955   39.4777   -2.1889 H   0  0  0  0  0  0  0  0  0  0  0  0
   73.0681   39.1995    0.8839 H   0  0  0  0  0  0  0  0  0  0  0  0
   71.2162   41.1092   -1.4493 H   0  0  0  0  0  0  0  0  0  0  0  0
   65.9966   43.7647   -0.0338 H   0  0  0  0  0  0  0  0  0  0  0  0
   64.7946   45.7082   -1.0378 H   0  0  0  0  0  0  0  0  0  0  0  0
   65.1933   46.3285   -3.4239 H   0  0  0  0  0  0  0  0  0  0  0  0
   66.0880   45.5610   -5.5020 H   0  0  0  0  0  0  0  0  0  0  0  0
   69.4800   40.4950   -4.7790 H   0  0  0  0  0  0  0  0  0  0  0  0
   67.3189   39.3781   -0.7838 H   0  0  0  0  0  0  0  0  0  0  0  0
   68.3614   37.5291    0.5030 H   0  0  0  0  0  0  0  0  0  0  0  0
  1  2  2  0
  2  3  1  0
  3  4  2  0
  4  5  1  0
  5  6  1  0
  6  7  1  0
  7  8  1  0
  8  9  2  0
  9 10  1  0
 10 11  2  0
 11 12  1  0
 12 13  1  0
 12 14  2  0
 14 15  1  0
 15 16  2  0
 15 17  1  0
 17 18  1  0
  5 19  2  0
 19 20  1  0
 20 21  2  0
 21 22  1  0
 22 23  1  0
 22 24  1  0
 22 25  1  0
 21  3  1  0
 17  6  2  0
 14  8  1  0
  1 26  1  0
  1 27  1  0
  2 28  1  0
  4 29  1  0
  9 30  1  0
 10 31  1  0
 11 32  1  0
 13 33  1  0
 18 34  1  0
 19 35  1  0
 20 36  1  0
M  END
>  <meeko>  (3) 
{"is_sidechain": [false], "free_energy": -8.023, "intermolecular_energy": -10.095, "internal_energy": -0.14}

$$$$
cand_005_out
     RDKit          3D

 36 38  0  0  0  0  0  0  0  0999 V2000
   67.8570   39.0340   -0.2050 C   0  0  0  0  0  0  0  0  0  0  0  0
   68.9910   38.7170    0.4310 C   0  0  0  0  0  0  0  0  0  0  0  0
   70.3080   38.8010   -0.2130 C   0  0  0  0  0  0  0  0  0  0  0  0
   70.5190   39.7840   -1.1980 C   0  0  0  0  0  0  0  0  0  0  0  0
   71.7480   39.9060   -1.8650 C   0  0  0  0  0  0  0  0  0  0  0  0
   71.9340   40.9700   -2.8740 C   0  0  0  0  0  0  0  0  0  0  0  0
   70.7680   41.6800   -3.1320 O   0  0  0  0  0  0  0  0  0  0  0  0
   70.8020   42.6970   -4.0520 C   0  0  0  0  0  0  0  0  0  0  0  0
   69.6120   43.3930   -4.2710 C   0  0  0  0  0  0  0  0  0  0  0  0
   69.5770   44.4380   -5.1960 C   0  0  0  0  0  0  0  0  0  0  0  0
   70.7300   44.7880   -5.9020 C   0  0  0  0  0  0  0  0  0  0  0  0
   71.9160   44.0910   -5.6820 C   0  0  0  0  0  0  0  0  0  0  0  0
   73.0060   44.4850   -6.4070 O   0  0  0  0  0  0  0  0  0  0  0  0
   71.9510   43.0460   -4.7550 C   0  0  0  0  0  0  0  0  0  0  0  0
   73.1760   42.2890   -4.4940 C   0  0  0  0  0  0  0  0  0  0  0  0
   74.2290   42.5310   -5.0790 O   0  0  0  0  0  0  0  0  0  0  0  0
   73.1080   41.2030   -3.4880 C   0  0  0  0  0  0  0  0  0  0  0  0
   74.2670   40.4840   -3.2590 O   0  0  0  0  0  0  0  0  0  0  0  0
   72.7800   39.0280   -1.5190 C   0  0  0  0  0  0  0  0  0  0  0  0
   72.5830   38.0430   -0.5470 C   0  0  0  0  0  0  0  0  0  0  0  0
   71.3490   37.9130    0.1150 C   0  0  0  0  0  0  0  0  0  0  0  0
   71.1770   36.8440    1.1680 C   0  0  0  0  0  0  0  0  0  0  0  0
   72.3400   36.2070    1.4790 F   0  0  0  0  0  0  0  0  0  0  0  0
   70.3120   35.8560    0.7940 F   0  0  0  0  0  0  0  0  0  0  0  0
   70.6820   37.3270    2.3430 F   0  0  0  0  0  0  0  0  0  0  0  0
   66.8926   38.9556    0.3182 H   0  0  0  0  0  0  0  0  0  0  0  0
   67.8893   39.3730   -1.2510 H   0  0  0  0  0  0  0  0  0  0  0  0
   68.9343   38.3805    1.4767 H   0  0  0  0  0  0  0  0  0  0  0  0
   69.7004   40.4738   -1.4514 H   0  0  0  0  0  0  0  0  0  0  0  0
   68.7031   43.1185   -3.7155 H   0  0  0  0  0  0  0  0  0  0  0  0
   68.6395   44.9868   -5.3691 H   0  0  0  0  0  0  0  0  0  0  0  0
   70.7018   45.6121   -6.6301 H   0  0  0  0  0  0  0  0  0  0  0  0
   72.9230   45.1630   -7.0480 H   0  0  0  0  0  0  0  0  0  0  0  0
   74.9550   40.4890   -3.8940 H   0  0  0  0  0  0  0  0  0  0  0  0
   73.7571   39.1134   -2.0170 H   0  0  0  0  0  0  0  0  0  0  0  0
   73.4065   37.3584   -0.2958 H   0  0  0  0  0  0  0  0  0  0  0  0
  1  2  2  0
  2  3  1  0
  3  4  2  0
  4  5  1  0
  5  6  1  0
  6  7  1  0
  7  8  1  0
  8  9  2  0
  9 10  1  0
 10 11  2  0
 11 12  1  0
 12 13  1  0
 12 14  2  0
 14 15  1  0
 15 16  2  0
 15 17  1  0
 17 18  1  0
  5 19  2  0
 19 20  1  0
 20 21  2  0
 21 22  1  0
 22 23  1  0
 22 24  1  0
 22 25  1  0
 21  3  1  0
 17  6  2  0
 14  8  1  0
  1 26  1  0
  1 27  1  0
  2 28  1  0
  4 29  1  0
  9 30  1  0
 10 31  1  0
 11 32  1  0
 13 33  1  0
 18 34  1  0
 19 35  1  0
 20 36  1  0
M  END
>  <meeko>  (4) 
{"is_sidechain": [false], "free_energy": -7.957, "intermolecular_energy": -10.232, "internal_energy": 0.079}

$$$$
cand_005_out
     RDKit          3D

 36 38  0  0  0  0  0  0  0  0999 V2000
   72.9880   37.3420    0.1850 C   0  0  0  0  0  0  0  0  0  0  0  0
   72.3570   37.6850   -0.9440 C   0  0  0  0  0  0  0  0  0  0  0  0
   72.1960   39.0820   -1.3670 C   0  0  0  0  0  0  0  0  0  0  0  0
   73.1510   39.6390   -2.2380 C   0  0  0  0  0  0  0  0  0  0  0  0
   73.0660   40.9740   -2.6650 C   0  0  0  0  0  0  0  0  0  0  0  0
   74.0770   41.5110   -3.6010 C   0  0  0  0  0  0  0  0  0  0  0  0
   73.5350   41.8900   -4.8230 O   0  0  0  0  0  0  0  0  0  0  0  0
   74.3660   42.4040   -5.7850 C   0  0  0  0  0  0  0  0  0  0  0  0
   73.7790   42.7840   -6.9930 C   0  0  0  0  0  0  0  0  0  0  0  0
   74.5680   43.3140   -8.0150 C   0  0  0  0  0  0  0  0  0  0  0  0
   75.9440   43.4640   -7.8310 C   0  0  0  0  0  0  0  0  0  0  0  0
   76.5280   43.0830   -6.6250 C   0  0  0  0  0  0  0  0  0  0  0  0
   77.8800   43.2570   -6.5130 O   0  0  0  0  0  0  0  0  0  0  0  0
   75.7370   42.5540   -5.6020 C   0  0  0  0  0  0  0  0  0  0  0  0
   76.3110   42.1420   -4.3200 C   0  0  0  0  0  0  0  0  0  0  0  0
   77.5140   42.2360   -4.0840 O   0  0  0  0  0  0  0  0  0  0  0  0
   75.3850   41.5990   -3.2990 C   0  0  0  0  0  0  0  0  0  0  0  0
   75.9380   41.1990   -2.0970 O   0  0  0  0  0  0  0  0  0  0  0  0
   71.9920   41.7480   -2.2150 C   0  0  0  0  0  0  0  0  0  0  0  0
   71.0400   41.2090   -1.3460 C   0  0  0  0  0  0  0  0  0  0  0  0
   71.1290   39.8750   -0.9080 C   0  0  0  0  0  0  0  0  0  0  0  0
   70.0750   39.3240    0.0220 C   0  0  0  0  0  0  0  0  0  0  0  0
   68.9480   40.0870    0.0660 F   0  0  0  0  0  0  0  0  0  0  0  0
   70.4970   39.2280    1.3170 F   0  0  0  0  0  0  0  0  0  0  0  0
   69.6690   38.0660   -0.3160 F   0  0  0  0  0  0  0  0  0  0  0  0
   73.0842   36.2815    0.4609 H   0  0  0  0  0  0  0  0  0  0  0  0
   73.4106   38.1205    0.8372 H   0  0  0  0  0  0  0  0  0  0  0  0
   71.9426   36.8892   -1.5803 H   0  0  0  0  0  0  0  0  0  0  0  0
   73.9837   39.0138   -2.5926 H   0  0  0  0  0  0  0  0  0  0  0  0
   72.6952   42.6658   -7.1394 H   0  0  0  0  0  0  0  0  0  0  0  0
   74.1052   43.6140   -8.9668 H   0  0  0  0  0  0  0  0  0  0  0  0
   76.5655   43.8821   -8.6366 H   0  0  0  0  0  0  0  0  0  0  0  0
   78.3230   42.9930   -5.7310 H   0  0  0  0  0  0  0  0  0  0  0  0
   76.6410   40.5790   -2.0860 H   0  0  0  0  0  0  0  0  0  0  0  0
   71.8956   42.7918   -2.5485 H   0  0  0  0  0  0  0  0  0  0  0  0
   70.2072   41.8380   -0.9985 H   0  0  0  0  0  0  0  0  0  0  0  0
  1  2  2  0
  2  3  1  0
  3  4  2  0
  4  5  1  0
  5  6  1  0
  6  7  1  0
  7  8  1  0
  8  9  2  0
  9 10  1  0
 10 11  2  0
 11 12  1  0
 12 13  1  0
 12 14  2  0
 14 15  1  0
 15 16  2  0
 15 17  1  0
 17 18  1  0
  5 19  2  0
 19 20  1  0
 20 21  2  0
 21 22  1  0
 22 23  1  0
 22 24  1  0
 22 25  1  0
 21  3  1  0
 17  6  2  0
 14  8  1  0
  1 26  1  0
  1 27  1  0
  2 28  1  0
  4 29  1  0
  9 30  1  0
 10 31  1  0
 11 32  1  0
 13 33  1  0
 18 34  1  0
 19 35  1  0
 20 36  1  0
M  END
>  <meeko>  (5) 
{"is_sidechain": [false], "free_energy": -7.865, "intermolecular_energy": -9.694, "internal_energy": -0.346}

$$$$
cand_005_out
     RDKit          3D

 36 38  0  0  0  0  0  0  0  0999 V2000
   76.4540   42.3190   -1.4930 C   0  0  0  0  0  0  0  0  0  0  0  0
   75.9220   42.5070   -2.7070 C   0  0  0  0  0  0  0  0  0  0  0  0
   74.6240   43.1630   -2.9080 C   0  0  0  0  0  0  0  0  0  0  0  0
   73.4490   42.4290   -2.6630 C   0  0  0  0  0  0  0  0  0  0  0  0
   72.1770   42.9910   -2.8530 C   0  0  0  0  0  0  0  0  0  0  0  0
   70.9690   42.1920   -2.5590 C   0  0  0  0  0  0  0  0  0  0  0  0
   71.1260   41.3620   -1.4560 O   0  0  0  0  0  0  0  0  0  0  0  0
   70.0780   40.5630   -1.0740 C   0  0  0  0  0  0  0  0  0  0  0  0
   70.2730   39.7550    0.0470 C   0  0  0  0  0  0  0  0  0  0  0  0
   69.2480   38.9160    0.4880 C   0  0  0  0  0  0  0  0  0  0  0  0
   68.0270   38.8850   -0.1910 C   0  0  0  0  0  0  0  0  0  0  0  0
   67.8360   39.6920   -1.3100 C   0  0  0  0  0  0  0  0  0  0  0  0
   66.6180   39.6110   -1.9270 O   0  0  0  0  0  0  0  0  0  0  0  0
   68.8620   40.5310   -1.7500 C   0  0  0  0  0  0  0  0  0  0  0  0
   68.7010   41.3950   -2.9210 C   0  0  0  0  0  0  0  0  0  0  0  0
   67.6620   41.4190   -3.5760 O   0  0  0  0  0  0  0  0  0  0  0  0
   69.8490   42.2520   -3.3010 C   0  0  0  0  0  0  0  0  0  0  0  0
   69.6930   43.0540   -4.4170 O   0  0  0  0  0  0  0  0  0  0  0  0
   72.0970   44.3190   -3.2840 C   0  0  0  0  0  0  0  0  0  0  0  0
   73.2550   45.0590   -3.5360 C   0  0  0  0  0  0  0  0  0  0  0  0
   74.5310   44.4930   -3.3560 C   0  0  0  0  0  0  0  0  0  0  0  0
   75.7610   45.3270   -3.6280 C   0  0  0  0  0  0  0  0  0  0  0  0
   76.5430   45.5010   -2.5270 F   0  0  0  0  0  0  0  0  0  0  0  0
   75.4710   46.5860   -4.0680 F   0  0  0  0  0  0  0  0  0  0  0  0
   76.5680   44.7890   -4.5870 F   0  0  0  0  0  0  0  0  0  0  0  0
   77.4301   41.8222   -1.3912 H   0  0  0  0  0  0  0  0  0  0  0  0
   75.9150   42.6614   -0.5973 H   0  0  0  0  0  0  0  0  0  0  0  0
   76.4791   42.1563   -3.5883 H   0  0  0  0  0  0  0  0  0  0  0  0
   73.5292   41.3890   -2.3139 H   0  0  0  0  0  0  0  0  0  0  0  0
   71.2335   39.7792    0.5826 H   0  0  0  0  0  0  0  0  0  0  0  0
   69.4017   38.2785    1.3711 H   0  0  0  0  0  0  0  0  0  0  0  0
   67.2189   38.2250    0.1574 H   0  0  0  0  0  0  0  0  0  0  0  0
   65.8440   39.4680   -1.4200 H   0  0  0  0  0  0  0  0  0  0  0  0
   70.4240   43.2260   -4.9770 H   0  0  0  0  0  0  0  0  0  0  0  0
   71.1113   44.7862   -3.4262 H   0  0  0  0  0  0  0  0  0  0  0  0
   73.1681   46.1001   -3.8804 H   0  0  0  0  0  0  0  0  0  0  0  0
  1  2  2  0
  2  3  1  0
  3  4  2  0
  4  5  1  0
  5  6  1  0
  6  7  1  0
  7  8  1  0
  8  9  2  0
  9 10  1  0
 10 11  2  0
 11 12  1  0
 12 13  1  0
 12 14  2  0
 14 15  1  0
 15 16  2  0
 15 17  1  0
 17 18  1  0
  5 19  2  0
 19 20  1  0
 20 21  2  0
 21 22  1  0
 22 23  1  0
 22 24  1  0
 22 25  1  0
 21  3  1  0
 17  6  2  0
 14  8  1  0
  1 26  1  0
  1 27  1  0
  2 28  1  0
  4 29  1  0
  9 30  1  0
 10 31  1  0
 11 32  1  0
 13 33  1  0
 18 34  1  0
 19 35  1  0
 20 36  1  0
M  END
>  <meeko>  (6) 
{"is_sidechain": [false], "free_energy": -7.832, "intermolecular_energy": -9.707, "internal_energy": -0.292}

$$$$
cand_005_out
     RDKit          3D

 36 38  0  0  0  0  0  0  0  0999 V2000
   76.3730   43.3200   -2.0840 C   0  0  0  0  0  0  0  0  0  0  0  0
   75.4070   43.8550   -2.8400 C   0  0  0  0  0  0  0  0  0  0  0  0
   74.3490   43.0460   -3.4600 C   0  0  0  0  0  0  0  0  0  0  0  0
   73.5720   42.2060   -2.6410 C   0  0  0  0  0  0  0  0  0  0  0  0
   72.5590   41.3940   -3.1730 C   0  0  0  0  0  0  0  0  0  0  0  0
   71.7490   40.5450   -2.2740 C   0  0  0  0  0  0  0  0  0  0  0  0
   72.4790   39.5060   -1.7090 O   0  0  0  0  0  0  0  0  0  0  0  0
   71.8450   38.6400   -0.8540 C   0  0  0  0  0  0  0  0  0  0  0  0
   72.6180   37.6190   -0.2990 C   0  0  0  0  0  0  0  0  0  0  0  0
   72.0350   36.7030    0.5780 C   0  0  0  0  0  0  0  0  0  0  0  0
   70.6800   36.8070    0.9010 C   0  0  0  0  0  0  0  0  0  0  0  0
   69.9110   37.8260    0.3450 C   0  0  0  0  0  0  0  0  0  0  0  0
   68.5920   37.8690    0.7040 O   0  0  0  0  0  0  0  0  0  0  0  0
   70.4950   38.7440   -0.5320 C   0  0  0  0  0  0  0  0  0  0  0  0
   69.7230   39.8300   -1.1370 C   0  0  0  0  0  0  0  0  0  0  0  0
   68.5250   39.9840   -0.9080 O   0  0  0  0  0  0  0  0  0  0  0  0
   70.4390   40.7530   -2.0490 C   0  0  0  0  0  0  0  0  0  0  0  0
   69.6980   41.7670   -2.6270 O   0  0  0  0  0  0  0  0  0  0  0  0
   72.3210   41.4450   -4.5500 C   0  0  0  0  0  0  0  0  0  0  0  0
   73.0890   42.2720   -5.3760 C   0  0  0  0  0  0  0  0  0  0  0  0
   74.1120   43.0780   -4.8460 C   0  0  0  0  0  0  0  0  0  0  0  0
   74.9140   43.9670   -5.7670 C   0  0  0  0  0  0  0  0  0  0  0  0
   74.8050   45.2900   -5.4630 F   0  0  0  0  0  0  0  0  0  0  0  0
   74.5370   43.8650   -7.0760 F   0  0  0  0  0  0  0  0  0  0  0  0
   76.2470   43.6820   -5.7560 F   0  0  0  0  0  0  0  0  0  0  0  0
   77.1450   43.9656   -1.6399 H   0  0  0  0  0  0  0  0  0  0  0  0
   76.3951   42.2346   -1.9067 H   0  0  0  0  0  0  0  0  0  0  0  0
   75.4051   44.9428   -3.0035 H   0  0  0  0  0  0  0  0  0  0  0  0
   73.7633   42.1855   -1.5580 H   0  0  0  0  0  0  0  0  0  0  0  0
   73.6852   37.5363   -0.5524 H   0  0  0  0  0  0  0  0  0  0  0  0
   72.6436   35.8979    1.0155 H   0  0  0  0  0  0  0  0  0  0  0  0
   70.2214   36.0854    1.5931 H   0  0  0  0  0  0  0  0  0  0  0  0
   68.1310   37.0760    0.8900 H   0  0  0  0  0  0  0  0  0  0  0  0
   68.8540   41.5830   -2.9900 H   0  0  0  0  0  0  0  0  0  0  0  0
   71.5220   40.8287   -4.9878 H   0  0  0  0  0  0  0  0  0  0  0  0
   72.8895   42.2922   -6.4576 H   0  0  0  0  0  0  0  0  0  0  0  0
  1  2  2  0
  2  3  1  0
  3  4  2  0
  4  5  1  0
  5  6  1  0
  6  7  1  0
  7  8  1  0
  8  9  2  0
  9 10  1  0
 10 11  2  0
 11 12  1  0
 12 13  1  0
 12 14  2  0
 14 15  1  0
 15 16  2  0
 15 17  1  0
 17 18  1  0
  5 19  2  0
 19 20  1  0
 20 21  2  0
 21 22  1  0
 22 23  1  0
 22 24  1  0
 22 25  1  0
 21  3  1  0
 17  6  2  0
 14  8  1  0
  1 26  1  0
  1 27  1  0
  2 28  1  0
  4 29  1  0
  9 30  1  0
 10 31  1  0
 11 32  1  0
 13 33  1  0
 18 34  1  0
 19 35  1  0
 20 36  1  0
M  END
>  <meeko>  (7) 
{"is_sidechain": [false], "free_energy": -7.796, "intermolecular_energy": -9.416, "internal_energy": -0.538}

$$$$
cand_005_out
     RDKit          3D

 36 38  0  0  0  0  0  0  0  0999 V2000
   76.6640   42.8650   -1.8390 C   0  0  0  0  0  0  0  0  0  0  0  0
   75.8540   43.4730   -2.7130 C   0  0  0  0  0  0  0  0  0  0  0  0
   74.7000   42.7990   -3.3220 C   0  0  0  0  0  0  0  0  0  0  0  0
   73.9180   41.9440   -2.5230 C   0  0  0  0  0  0  0  0  0  0  0  0
   72.8130   41.2560   -3.0480 C   0  0  0  0  0  0  0  0  0  0  0  0
   72.0030   40.3870   -2.1680 C   0  0  0  0  0  0  0  0  0  0  0  0
   70.6570   40.7300   -2.1590 O   0  0  0  0  0  0  0  0  0  0  0  0
   69.7930   40.0030   -1.3800 C   0  0  0  0  0  0  0  0  0  0  0  0
   68.4470   40.3730   -1.4110 C   0  0  0  0  0  0  0  0  0  0  0  0
   67.5160   39.6760   -0.6400 C   0  0  0  0  0  0  0  0  0  0  0  0
   67.9270   38.6090    0.1620 C   0  0  0  0  0  0  0  0  0  0  0  0
   69.2710   38.2420    0.1910 C   0  0  0  0  0  0  0  0  0  0  0  0
   69.6050   37.1890    0.9980 O   0  0  0  0  0  0  0  0  0  0  0  0
   70.2030   38.9400   -0.5810 C   0  0  0  0  0  0  0  0  0  0  0  0
   71.6230   38.5860   -0.5790 C   0  0  0  0  0  0  0  0  0  0  0  0
   72.0650   37.6660    0.1050 O   0  0  0  0  0  0  0  0  0  0  0  0
   72.5280   39.3850   -1.4380 C   0  0  0  0  0  0  0  0  0  0  0  0
   73.8700   39.0540   -1.4180 O   0  0  0  0  0  0  0  0  0  0  0  0
   72.4890   41.4480   -4.3940 C   0  0  0  0  0  0  0  0  0  0  0  0
   73.2590   42.2910   -5.2000 C   0  0  0  0  0  0  0  0  0  0  0  0
   74.3730   42.9730   -4.6790 C   0  0  0  0  0  0  0  0  0  0  0  0
   75.1770   43.8850   -5.5770 C   0  0  0  0  0  0  0  0  0  0  0  0
   75.1590   45.1850   -5.1720 F   0  0  0  0  0  0  0  0  0  0  0  0
   74.7280   43.9010   -6.8660 F   0  0  0  0  0  0  0  0  0  0  0  0
   76.4910   43.5300   -5.6590 F   0  0  0  0  0  0  0  0  0  0  0  0
   77.5169   43.4101   -1.4083 H   0  0  0  0  0  0  0  0  0  0  0  0
   76.4772   41.8199   -1.5510 H   0  0  0  0  0  0  0  0  0  0  0  0
   76.0603   44.5184   -2.9861 H   0  0  0  0  0  0  0  0  0  0  0  0
   74.1789   41.8119   -1.4626 H   0  0  0  0  0  0  0  0  0  0  0  0
   68.1210   41.2127   -2.0423 H   0  0  0  0  0  0  0  0  0  0  0  0
   66.4556   39.9676   -0.6639 H   0  0  0  0  0  0  0  0  0  0  0  0
   67.1920   38.0600    0.7689 H   0  0  0  0  0  0  0  0  0  0  0  0
   70.4830   36.8630    1.0030 H   0  0  0  0  0  0  0  0  0  0  0  0
   74.2050   38.4160   -2.0170 H   0  0  0  0  0  0  0  0  0  0  0  0
   71.6187   40.9301   -4.8235 H   0  0  0  0  0  0  0  0  0  0  0  0
   72.9895   42.4231   -6.2583 H   0  0  0  0  0  0  0  0  0  0  0  0
  1  2  2  0
  2  3  1  0
  3  4  2  0
  4  5  1  0
  5  6  1  0
  6  7  1  0
  7  8  1  0
  8  9  2  0
  9 10  1  0
 10 11  2  0
 11 12  1  0
 12 13  1  0
 12 14  2  0
 14 15  1  0
 15 16  2  0
 15 17  1  0
 17 18  1  0
  5 19  2  0
 19 20  1  0
 20 21  2  0
 21 22  1  0
 22 23  1  0
 22 24  1  0
 22 25  1  0
 21  3  1  0
 17  6  2  0
 14  8  1  0
  1 26  1  0
  1 27  1  0
  2 28  1  0
  4 29  1  0
  9 30  1  0
 10 31  1  0
 11 32  1  0
 13 33  1  0
 18 34  1  0
 19 35  1  0
 20 36  1  0
M  END
>  <meeko>  (8) 
{"is_sidechain": [false], "free_energy": -7.747, "intermolecular_energy": -9.516, "internal_energy": -0.378}

$$$$
cand_005_out
     RDKit          3D

 36 38  0  0  0  0  0  0  0  0999 V2000
   72.9480   37.1150    0.4800 C   0  0  0  0  0  0  0  0  0  0  0  0
   72.2520   37.4740   -0.6050 C   0  0  0  0  0  0  0  0  0  0  0  0
   71.9200   38.8730   -0.9050 C   0  0  0  0  0  0  0  0  0  0  0  0
   72.7640   39.5980   -1.7660 C   0  0  0  0  0  0  0  0  0  0  0  0
   72.5140   40.9440   -2.0780 C   0  0  0  0  0  0  0  0  0  0  0  0
   73.4120   41.6610   -3.0080 C   0  0  0  0  0  0  0  0  0  0  0  0
   74.3920   42.3980   -2.3530 O   0  0  0  0  0  0  0  0  0  0  0  0
   75.2920   43.1140   -3.1000 C   0  0  0  0  0  0  0  0  0  0  0  0
   76.2680   43.8290   -2.4030 C   0  0  0  0  0  0  0  0  0  0  0  0
   77.2140   44.5800   -3.1020 C   0  0  0  0  0  0  0  0  0  0  0  0
   77.1860   44.6170   -4.4980 C   0  0  0  0  0  0  0  0  0  0  0  0
   76.2110   43.9040   -5.1910 C   0  0  0  0  0  0  0  0  0  0  0  0
   76.2420   43.9840   -6.5560 O   0  0  0  0  0  0  0  0  0  0  0  0
   75.2650   43.1510   -4.4910 C   0  0  0  0  0  0  0  0  0  0  0  0
   74.2250   42.3870   -5.1810 C   0  0  0  0  0  0  0  0  0  0  0  0
   74.1300   42.3740   -6.4060 O   0  0  0  0  0  0  0  0  0  0  0  0
   73.2740   41.6170   -4.3460 C   0  0  0  0  0  0  0  0  0  0  0  0
   72.2860   40.9100   -5.0060 O   0  0  0  0  0  0  0  0  0  0  0  0
   71.3870   41.5560   -1.5220 C   0  0  0  0  0  0  0  0  0  0  0  0
   70.5430   40.8490   -0.6610 C   0  0  0  0  0  0  0  0  0  0  0  0
   70.7980   39.5040   -0.3380 C   0  0  0  0  0  0  0  0  0  0  0  0
   69.8580   38.7680    0.5870 C   0  0  0  0  0  0  0  0  0  0  0  0
   70.3360   38.6560    1.8570 F   0  0  0  0  0  0  0  0  0  0  0  0
   69.5980   37.4890    0.1850 F   0  0  0  0  0  0  0  0  0  0  0  0
   68.6360   39.3650    0.6910 F   0  0  0  0  0  0  0  0  0  0  0  0
   73.1728   36.0539    0.6630 H   0  0  0  0  0  0  0  0  0  0  0  0
   73.2953   37.8810    1.1889 H   0  0  0  0  0  0  0  0  0  0  0  0
   71.9152   36.6905   -1.2997 H   0  0  0  0  0  0  0  0  0  0  0  0
   73.6403   39.0987   -2.2051 H   0  0  0  0  0  0  0  0  0  0  0  0
   76.2912   43.8003   -1.3036 H   0  0  0  0  0  0  0  0  0  0  0  0
   77.9827   45.1435   -2.5529 H   0  0  0  0  0  0  0  0  0  0  0  0
   77.9325   45.2081   -5.0488 H   0  0  0  0  0  0  0  0  0  0  0  0
   76.1740   44.8180   -6.9780 H   0  0  0  0  0  0  0  0  0  0  0  0
   72.2320   39.9790   -4.9120 H   0  0  0  0  0  0  0  0  0  0  0  0
   71.1620   42.6050   -1.7646 H   0  0  0  0  0  0  0  0  0  0  0  0
   69.6655   41.3524   -0.2292 H   0  0  0  0  0  0  0  0  0  0  0  0
  1  2  2  0
  2  3  1  0
  3  4  2  0
  4  5  1  0
  5  6  1  0
  6  7  1  0
  7  8  1  0
  8  9  2  0
  9 10  1  0
 10 11  2  0
 11 12  1  0
 12 13  1  0
 12 14  2  0
 14 15  1  0
 15 16  2  0
 15 17  1  0
 17 18  1  0
  5 19  2  0
 19 20  1  0
 20 21  2  0
 21 22  1  0
 22 23  1  0
 22 24  1  0
 22 25  1  0
 21  3  1  0
 17  6  2  0
 14  8  1  0
  1 26  1  0
  1 27  1  0
  2 28  1  0
  4 29  1  0
  9 30  1  0
 10 31  1  0
 11 32  1  0
 13 33  1  0
 18 34  1  0
 19 35  1  0
 20 36  1  0
M  END
>  <meeko>  (9) 
{"is_sidechain": [false], "free_energy": -7.746, "intermolecular_energy": -9.423, "internal_energy": -0.471}

$$$$
