cand_036_out
     RDKit          3D

 35 37  0  0  0  0  0  0  0  0999 V2000
   70.2970   36.9570    1.6000 C   0  0  0  0  0  0  0  0  0  0  0  0
   70.4950   38.0310    0.5660 C   0  0  0  0  0  0  0  0  0  0  0  0
   69.5620   39.0720    0.4700 C   0  0  0  0  0  0  0  0  0  0  0  0
   69.7140   40.0870   -0.4790 C   0  0  0  0  0  0  0  0  0  0  0  0
   70.7990   40.0840   -1.3610 C   0  0  0  0  0  0  0  0  0  0  0  0
   70.9970   41.1590   -2.3560 C   0  0  0  0  0  0  0  0  0  0  0  0
   72.2140   41.8140   -2.2070 O   0  0  0  0  0  0  0  0  0  0  0  0
   72.5280   42.8360   -3.0670 C   0  0  0  0  0  0  0  0  0  0  0  0
   73.7530   43.4750   -2.8720 C   0  0  0  0  0  0  0  0  0  0  0  0
   74.1340   44.5220   -3.7140 C   0  0  0  0  0  0  0  0  0  0  0  0
   73.2900   44.9300   -4.7490 C   0  0  0  0  0  0  0  0  0  0  0  0
   72.0680   44.2900   -4.9410 C   0  0  0  0  0  0  0  0  0  0  0  0
   71.2910   44.7400   -5.9740 O   0  0  0  0  0  0  0  0  0  0  0  0
   71.6870   43.2430   -4.0980 C   0  0  0  0  0  0  0  0  0  0  0  0
   70.4110   42.5450   -4.2650 C   0  0  0  0  0  0  0  0  0  0  0  0
   69.6190   42.8420   -5.1570 O   0  0  0  0  0  0  0  0  0  0  0  0
   70.0980   41.4530   -3.3140 C   0  0  0  0  0  0  0  0  0  0  0  0
   68.8970   40.7920   -3.4890 O   0  0  0  0  0  0  0  0  0  0  0  0
   71.7380   39.0450   -1.2560 C   0  0  0  0  0  0  0  0  0  0  0  0
   71.6000   38.0180   -0.3060 C   0  0  0  0  0  0  0  0  0  0  0  0
   72.6330   36.9270   -0.2470 C   0  0  0  0  0  0  0  0  0  0  0  0
   70.3780   37.3964    2.6052 H   0  0  0  0  0  0  0  0  0  0  0  0
   69.3008   36.5074    1.4755 H   0  0  0  0  0  0  0  0  0  0  0  0
   71.0673   36.1817    1.4755 H   0  0  0  0  0  0  0  0  0  0  0  0
   68.6981   39.0907    1.1507 H   0  0  0  0  0  0  0  0  0  0  0  0
   68.9718   40.8971   -0.5325 H   0  0  0  0  0  0  0  0  0  0  0  0
   74.4177   43.1545   -2.0562 H   0  0  0  0  0  0  0  0  0  0  0  0
   75.0999   45.0258   -3.5618 H   0  0  0  0  0  0  0  0  0  0  0  0
   73.5898   45.7554   -5.4115 H   0  0  0  0  0  0  0  0  0  0  0  0
   70.7340   45.4840   -5.8520 H   0  0  0  0  0  0  0  0  0  0  0  0
   68.2560   40.7960   -2.8060 H   0  0  0  0  0  0  0  0  0  0  0  0
   72.6037   39.0345   -1.9345 H   0  0  0  0  0  0  0  0  0  0  0  0
   72.8569   36.6905    0.8037 H   0  0  0  0  0  0  0  0  0  0  0  0
   72.2467   36.0287   -0.7508 H   0  0  0  0  0  0  0  0  0  0  0  0
   73.5511   37.2637   -0.7508 H   0  0  0  0  0  0  0  0  0  0  0  0
  1  2  1  0
  2  3  2  0
  3  4  1  0
  4  5  2  0
  5  6  1  0
  6  7  1  0
  7  8  1  0
  8  9  2  0
  9 10  1  0
 10 11  2  0
 11 12  1  0
 12 13  1  0
 12 14  2  0
 14 15  1  0
 15 16  2  0
 15 17  1  0
 17 18  1  0
  5 19  1  0
 19 20  2  0
 20 21  1  0
 20  2  1  0
 17  6  2  0
 14  8  1  0
  1 22  1  0
  1 23  1  0
  1 24  1  0
  3 25  1  0
  4 26  1  0
  9 27  1  0
 10 28  1  0
 11 29  1  0
 13 30  1  0
 18 31  1  0
 19 32  1  0
 21 33  1  0
 21 34  1  0
 21 35  1  0
M  END
>  <meeko>  (1) 
{"is_sidechain": [false], "free_energy": -7.977, "intermolecular_energy": -8.91, "internal_energy": -0.174}

$$$$
cand_036_out
     RDKit          3D

 35 37  0  0  0  0  0  0  0  0999 V2000
   70.6040   36.5840    1.1010 C   0  0  0  0  0  0  0  0  0  0  0  0
   71.2050   37.6430    0.2180 C   0  0  0  0  0  0  0  0  0  0  0  0
   72.5500   37.5380   -0.1620 C   0  0  0  0  0  0  0  0  0  0  0  0
   73.1410   38.5030   -0.9810 C   0  0  0  0  0  0  0  0  0  0  0  0
   72.4070   39.6030   -1.4350 C   0  0  0  0  0  0  0  0  0  0  0  0
   73.0010   40.6240   -2.3240 C   0  0  0  0  0  0  0  0  0  0  0  0
   74.1270   41.2270   -1.7750 O   0  0  0  0  0  0  0  0  0  0  0  0
   74.7800   42.1950   -2.4960 C   0  0  0  0  0  0  0  0  0  0  0  0
   75.8950   42.7840   -1.9000 C   0  0  0  0  0  0  0  0  0  0  0  0
   76.6060   43.7750   -2.5810 C   0  0  0  0  0  0  0  0  0  0  0  0
   76.2020   44.1760   -3.8560 C   0  0  0  0  0  0  0  0  0  0  0  0
   75.0880   43.5850   -4.4480 C   0  0  0  0  0  0  0  0  0  0  0  0
   74.7460   44.0250   -5.6980 O   0  0  0  0  0  0  0  0  0  0  0  0
   74.3760   42.5950   -3.7660 C   0  0  0  0  0  0  0  0  0  0  0  0
   73.2000   41.9490   -4.3510 C   0  0  0  0  0  0  0  0  0  0  0  0
   72.7860   42.2430   -5.4710 O   0  0  0  0  0  0  0  0  0  0  0  0
   72.5120   40.9160   -3.5430 C   0  0  0  0  0  0  0  0  0  0  0  0
   71.4100   40.3050   -4.1110 O   0  0  0  0  0  0  0  0  0  0  0  0
   71.0570   39.7010   -1.0610 C   0  0  0  0  0  0  0  0  0  0  0  0
   70.4470   38.7380   -0.2390 C   0  0  0  0  0  0  0  0  0  0  0  0
   68.9990   38.9010    0.1360 C   0  0  0  0  0  0  0  0  0  0  0  0
   70.7580   36.8553    2.1558 H   0  0  0  0  0  0  0  0  0  0  0  0
   69.5261   36.5044    0.8965 H   0  0  0  0  0  0  0  0  0  0  0  0
   71.0884   35.6178    0.8965 H   0  0  0  0  0  0  0  0  0  0  0  0
   73.1482   36.6843    0.1894 H   0  0  0  0  0  0  0  0  0  0  0  0
   74.1964   38.3962   -1.2722 H   0  0  0  0  0  0  0  0  0  0  0  0
   76.2139   42.4687   -0.8956 H   0  0  0  0  0  0  0  0  0  0  0  0
   77.4856   44.2402   -2.1120 H   0  0  0  0  0  0  0  0  0  0  0  0
   76.7620   44.9567   -4.3917 H   0  0  0  0  0  0  0  0  0  0  0  0
   74.5030   43.4090   -6.3610 H   0  0  0  0  0  0  0  0  0  0  0  0
   71.3340   39.3710   -4.0970 H   0  0  0  0  0  0  0  0  0  0  0  0
   70.4617   40.5533   -1.4206 H   0  0  0  0  0  0  0  0  0  0  0  0
   68.9030   38.9118    1.2317 H   0  0  0  0  0  0  0  0  0  0  0  0
   68.6182   39.8477   -0.2748 H   0  0  0  0  0  0  0  0  0  0  0  0
   68.4172   38.0627   -0.2748 H   0  0  0  0  0  0  0  0  0  0  0  0
  1  2  1  0
  2  3  2  0
  3  4  1  0
  4  5  2  0
  5  6  1  0
  6  7  1  0
  7  8  1  0
  8  9  2  0
  9 10  1  0
 10 11  2  0
 11 12  1  0
 12 13  1  0
 12 14  2  0
 14 15  1  0
 15 16  2  0
 15 17  1  0
 17 18  1  0
  5 19  1  0
 19 20  2  0
 20 21  1  0
 20  2  1  0
 17  6  2  0
 14  8  1  0
  1 22  1  0
  1 23  1  0
  1 24  1  0
  3 25  1  0
  4 26  1  0
  9 27  1  0
 10 28  1  0
 11 29  1  0
 13 30  1  0
 18 31  1  0
 19 32  1  0
 21 33  1  0
 21 34  1  0
 21 35  1  0
M  END
>  <meeko>  (2) 
{"is_sidechain": [false], "free_energy": -7.834, "intermolecular_energy": -8.809, "internal_energy": -0.116}

$$$$
cand_036_out
     RDKit          3D

 35 37  0  0  0  0  0  0  0  0999 V2000
   70.7280   36.8420    1.4440 C   0  0  0  0  0  0  0  0  0  0  0  0
   70.4300   37.9310    0.4490 C   0  0  0  0  0  0  0  0  0  0  0  0
   69.1610   38.5240    0.4390 C   0  0  0  0  0  0  0  0  0  0  0  0
   68.8490   39.5370   -0.4720 C   0  0  0  0  0  0  0  0  0  0  0  0
   69.7960   39.9780   -1.4020 C   0  0  0  0  0  0  0  0  0  0  0  0
   69.5010   41.0670   -2.3580 C   0  0  0  0  0  0  0  0  0  0  0  0
   70.5660   41.9430   -2.5240 O   0  0  0  0  0  0  0  0  0  0  0  0
   70.4280   43.0020   -3.3850 C   0  0  0  0  0  0  0  0  0  0  0  0
   71.5170   43.8650   -3.5090 C   0  0  0  0  0  0  0  0  0  0  0  0
   71.4420   44.9610   -4.3710 C   0  0  0  0  0  0  0  0  0  0  0  0
   70.2790   45.1940   -5.1080 C   0  0  0  0  0  0  0  0  0  0  0  0
   69.1940   44.3310   -4.9820 C   0  0  0  0  0  0  0  0  0  0  0  0
   68.0860   44.6170   -5.7320 O   0  0  0  0  0  0  0  0  0  0  0  0
   69.2690   43.2340   -4.1190 C   0  0  0  0  0  0  0  0  0  0  0  0
   68.1510   42.3030   -3.9560 C   0  0  0  0  0  0  0  0  0  0  0  0
   67.0970   42.4380   -4.5750 O   0  0  0  0  0  0  0  0  0  0  0  0
   68.3290   41.1770   -3.0110 C   0  0  0  0  0  0  0  0  0  0  0  0
   67.2720   40.2970   -2.8750 O   0  0  0  0  0  0  0  0  0  0  0  0
   71.0700   39.3890   -1.3840 C   0  0  0  0  0  0  0  0  0  0  0  0
   71.4000   38.3700   -0.4730 C   0  0  0  0  0  0  0  0  0  0  0  0
   72.7790   37.7700   -0.5060 C   0  0  0  0  0  0  0  0  0  0  0  0
   70.6196   37.2380    2.4645 H   0  0  0  0  0  0  0  0  0  0  0  0
   70.0248   36.0089    1.2974 H   0  0  0  0  0  0  0  0  0  0  0  0
   71.7574   36.4830    1.2974 H   0  0  0  0  0  0  0  0  0  0  0  0
   68.3995   38.1878    1.1581 H   0  0  0  0  0  0  0  0  0  0  0  0
   67.8478   39.9924   -0.4574 H   0  0  0  0  0  0  0  0  0  0  0  0
   72.4334   43.6824   -2.9286 H   0  0  0  0  0  0  0  0  0  0  0  0
   72.3003   45.6418   -4.4696 H   0  0  0  0  0  0  0  0  0  0  0  0
   70.2204   46.0577   -5.7867 H   0  0  0  0  0  0  0  0  0  0  0  0
   67.3540   45.0520   -5.3410 H   0  0  0  0  0  0  0  0  0  0  0  0
   67.2410   39.7110   -2.1450 H   0  0  0  0  0  0  0  0  0  0  0  0
   71.8298   39.7334   -2.1010 H   0  0  0  0  0  0  0  0  0  0  0  0
   73.1360   37.6147    0.5228 H   0  0  0  0  0  0  0  0  0  0  0  0
   72.7464   36.8047   -1.0325 H   0  0  0  0  0  0  0  0  0  0  0  0
   73.4630   38.4519   -1.0325 H   0  0  0  0  0  0  0  0  0  0  0  0
  1  2  1  0
  2  3  2  0
  3  4  1  0
  4  5  2  0
  5  6  1  0
  6  7  1  0
  7  8  1  0
  8  9  2  0
  9 10  1  0
 10 11  2  0
 11 12  1  0
 12 13  1  0
 12 14  2  0
 14 15  1  0
 15 16  2  0
 15 17  1  0
 17 18  1  0
  5 19  1  0
 19 20  2  0
 20 21  1  0
 20  2  1  0
 17  6  2  0
 14  8  1  0
  1 22  1  0
  1 23  1  0
  1 24  1  0
  3 25  1  0
  4 26  1  0
  9 27  1  0
 10 28  1  0
 11 29  1  0
 13 30  1  0
 18 31  1  0
 19 32  1  0
 21 33  1  0
 21 34  1  0
 21 35  1  0
M  END
>  <meeko>  (3) 
{"is_sidechain": [false], "free_energy": -7.813, "intermolecular_energy": -8.923, "internal_energy": 0.022}

$$$$
cand_036_out
     RDKit          3D

 35 37  0  0  0  0  0  0  0  0999 V2000
   72.9440   45.7810   -6.0910 C   0  0  0  0  0  0  0  0  0  0  0  0
   72.7360   44.6180   -5.1610 C   0  0  0  0  0  0  0  0  0  0  0  0
   72.1910   43.4270   -5.6600 C   0  0  0  0  0  0  0  0  0  0  0  0
   71.9840   42.3270   -4.8240 C   0  0  0  0  0  0  0  0  0  0  0  0
   72.3090   42.3900   -3.4660 C   0  0  0  0  0  0  0  0  0  0  0  0
   72.1240   41.2310   -2.5660 C   0  0  0  0  0  0  0  0  0  0  0  0
   70.8180   41.1060   -2.1080 O   0  0  0  0  0  0  0  0  0  0  0  0
   70.5060   40.0720   -1.2640 C   0  0  0  0  0  0  0  0  0  0  0  0
   69.1870   39.9930   -0.8170 C   0  0  0  0  0  0  0  0  0  0  0  0
   68.8030   38.9620    0.0440 C   0  0  0  0  0  0  0  0  0  0  0  0
   69.7370   38.0100    0.4560 C   0  0  0  0  0  0  0  0  0  0  0  0
   71.0540   38.0910    0.0080 C   0  0  0  0  0  0  0  0  0  0  0  0
   71.9170   37.1260    0.4510 O   0  0  0  0  0  0  0  0  0  0  0  0
   71.4380   39.1230   -0.8520 C   0  0  0  0  0  0  0  0  0  0  0  0
   72.8100   39.2450   -1.3460 C   0  0  0  0  0  0  0  0  0  0  0  0
   73.6880   38.4420   -1.0320 O   0  0  0  0  0  0  0  0  0  0  0  0
   73.1160   40.3800   -2.2470 C   0  0  0  0  0  0  0  0  0  0  0  0
   74.4120   40.4770   -2.7170 O   0  0  0  0  0  0  0  0  0  0  0  0
   72.8640   43.5800   -2.9690 C   0  0  0  0  0  0  0  0  0  0  0  0
   73.0810   44.6950   -3.7980 C   0  0  0  0  0  0  0  0  0  0  0  0
   73.6710   45.9470   -3.2080 C   0  0  0  0  0  0  0  0  0  0  0  0
   73.1077   46.6961   -5.5029 H   0  0  0  0  0  0  0  0  0  0  0  0
   73.8224   45.5908   -6.7252 H   0  0  0  0  0  0  0  0  0  0  0  0
   72.0541   45.9070   -6.7252 H   0  0  0  0  0  0  0  0  0  0  0  0
   71.9226   43.3574   -6.7245 H   0  0  0  0  0  0  0  0  0  0  0  0
   71.5604   41.4007   -5.2392 H   0  0  0  0  0  0  0  0  0  0  0  0
   68.4498   40.7419   -1.1422 H   0  0  0  0  0  0  0  0  0  0  0  0
   67.7633   38.9004    0.3977 H   0  0  0  0  0  0  0  0  0  0  0  0
   69.4340   37.1976    1.1329 H   0  0  0  0  0  0  0  0  0  0  0  0
   72.8420   37.2670    0.4020 H   0  0  0  0  0  0  0  0  0  0  0  0
   74.6040   40.2620   -3.6090 H   0  0  0  0  0  0  0  0  0  0  0  0
   73.1358   43.6417   -1.9049 H   0  0  0  0  0  0  0  0  0  0  0  0
   73.6414   45.8842   -2.1102 H   0  0  0  0  0  0  0  0  0  0  0  0
   74.7139   46.0532   -3.5412 H   0  0  0  0  0  0  0  0  0  0  0  0
   73.0890   46.8189   -3.5412 H   0  0  0  0  0  0  0  0  0  0  0  0
  1  2  1  0
  2  3  2  0
  3  4  1  0
  4  5  2  0
  5  6  1  0
  6  7  1  0
  7  8  1  0
  8  9  2  0
  9 10  1  0
 10 11  2  0
 11 12  1  0
 12 13  1  0
 12 14  2  0
 14 15  1  0
 15 16  2  0
 15 17  1  0
 17 18  1  0
  5 19  1  0
 19 20  2  0
 20 21  1  0
 20  2  1  0
 17  6  2  0
 14  8  1  0
  1 22  1  0
  1 23  1  0
  1 24  1  0
  3 25  1  0
  4 26  1  0
  9 27  1  0
 10 28  1  0
 11 29  1  0
 13 30  1  0
 18 31  1  0
 19 32  1  0
 21 33  1  0
 21 34  1  0
 21 35  1  0
M  END
>  <meeko>  (4) 
{"is_sidechain": [false], "free_energy": -7.788, "intermolecular_energy": -8.563, "internal_energy": -0.309}

$$$$
cand_036_out
     RDKit          3D

 35 37  0  0  0  0  0  0  0  0999 V2000
   77.2860   43.5280   -2.8630 C   0  0  0  0  0  0  0  0  0  0  0  0
   75.8680   43.0350   -2.7710 C   0  0  0  0  0  0  0  0  0  0  0  0
   75.6280   41.6840   -2.4850 C   0  0  0  0  0  0  0  0  0  0  0  0
   74.3240   41.1920   -2.3920 C   0  0  0  0  0  0  0  0  0  0  0  0
   73.2250   42.0340   -2.5900 C   0  0  0  0  0  0  0  0  0  0  0  0
   71.8360   41.5440   -2.4710 C   0  0  0  0  0  0  0  0  0  0  0  0
   71.6250   40.7930   -1.3200 O   0  0  0  0  0  0  0  0  0  0  0  0
   70.3770   40.2760   -1.0830 C   0  0  0  0  0  0  0  0  0  0  0  0
   70.2150   39.5160    0.0760 C   0  0  0  0  0  0  0  0  0  0  0  0
   68.9690   38.9620    0.3770 C   0  0  0  0  0  0  0  0  0  0  0  0
   67.8860   39.1670   -0.4800 C   0  0  0  0  0  0  0  0  0  0  0  0
   68.0510   39.9260   -1.6370 C   0  0  0  0  0  0  0  0  0  0  0  0
   66.9500   40.0870   -2.4320 O   0  0  0  0  0  0  0  0  0  0  0  0
   69.2980   40.4790   -1.9380 C   0  0  0  0  0  0  0  0  0  0  0  0
   69.5150   41.2820   -3.1430 C   0  0  0  0  0  0  0  0  0  0  0  0
   68.6100   41.5120   -3.9420 O   0  0  0  0  0  0  0  0  0  0  0  0
   70.8770   41.8170   -3.3740 C   0  0  0  0  0  0  0  0  0  0  0  0
   71.0660   42.5850   -4.5080 O   0  0  0  0  0  0  0  0  0  0  0  0
   73.4680   43.3890   -2.8660 C   0  0  0  0  0  0  0  0  0  0  0  0
   74.7740   43.9010   -2.9610 C   0  0  0  0  0  0  0  0  0  0  0  0
   74.9730   45.3600   -3.2690 C   0  0  0  0  0  0  0  0  0  0  0  0
   77.6916   43.6690   -1.8503 H   0  0  0  0  0  0  0  0  0  0  0  0
   77.8967   42.7894   -3.4030 H   0  0  0  0  0  0  0  0  0  0  0  0
   77.3068   44.4861   -3.4030 H   0  0  0  0  0  0  0  0  0  0  0  0
   76.4776   41.0023   -2.3318 H   0  0  0  0  0  0  0  0  0  0  0  0
   74.1595   40.1294   -2.1602 H   0  0  0  0  0  0  0  0  0  0  0  0
   71.0677   39.3535    0.7517 H   0  0  0  0  0  0  0  0  0  0  0  0
   68.8405   38.3632    1.2907 H   0  0  0  0  0  0  0  0  0  0  0  0
   66.9047   38.7304   -0.2424 H   0  0  0  0  0  0  0  0  0  0  0  0
   66.2980   40.7220   -2.2070 H   0  0  0  0  0  0  0  0  0  0  0  0
   71.9190   42.9150   -4.7130 H   0  0  0  0  0  0  0  0  0  0  0  0
   72.6146   44.0676   -3.0117 H   0  0  0  0  0  0  0  0  0  0  0  0
   75.0502   45.9260   -2.3289 H   0  0  0  0  0  0  0  0  0  0  0  0
   75.8971   45.4890   -3.8516 H   0  0  0  0  0  0  0  0  0  0  0  0
   74.1172   45.7318   -3.8516 H   0  0  0  0  0  0  0  0  0  0  0  0
  1  2  1  0
  2  3  2  0
  3  4  1  0
  4  5  2  0
  5  6  1  0
  6  7  1  0
  7  8  1  0
  8  9  2  0
  9 10  1  0
 10 11  2  0
 11 12  1  0
 12 13  1  0
 12 14  2  0
 14 15  1  0
 15 16  2  0
 15 17  1  0
 17 18  1  0
  5 19  1  0
 19 20  2  0
 20 21  1  0
 20  2  1  0
 17  6  2  0
 14  8  1  0
  1 22  1  0
  1 23  1  0
  1 24  1  0
  3 25  1  0
  4 26  1  0
  9 27  1  0
 10 28  1  0
 11 29  1  0
 13 30  1  0
 18 31  1  0
 19 32  1  0
 21 33  1  0
 21 34  1  0
 21 35  1  0
M  END
>  <meeko>  (5) 
{"is_sidechain": [false], "free_energy": -7.784, "intermolecular_energy": -8.852, "internal_energy": -0.017}

$$$$
cand_036_out
     RDKit          3D

 35 37  0  0  0  0  0  0  0  0999 V2000
   71.7480   36.7270    0.5060 C   0  0  0  0  0  0  0  0  0  0  0  0
   71.7190   37.9470   -0.3730 C   0  0  0  0  0  0  0  0  0  0  0  0
   72.6560   38.0720   -1.4080 C   0  0  0  0  0  0  0  0  0  0  0  0
   72.6590   39.1910   -2.2430 C   0  0  0  0  0  0  0  0  0  0  0  0
   71.7300   40.2210   -2.0620 C   0  0  0  0  0  0  0  0  0  0  0  0
   71.6950   41.4030   -2.9490 C   0  0  0  0  0  0  0  0  0  0  0  0
   72.8060   42.2240   -2.7970 O   0  0  0  0  0  0  0  0  0  0  0  0
   72.9020   43.3590   -3.5610 C   0  0  0  0  0  0  0  0  0  0  0  0
   74.0260   44.1620   -3.3660 C   0  0  0  0  0  0  0  0  0  0  0  0
   74.1860   45.3310   -4.1130 C   0  0  0  0  0  0  0  0  0  0  0  0
   73.2220   45.6970   -5.0550 C   0  0  0  0  0  0  0  0  0  0  0  0
   72.1010   44.8930   -5.2480 C   0  0  0  0  0  0  0  0  0  0  0  0
   71.1960   45.3100   -6.1870 O   0  0  0  0  0  0  0  0  0  0  0  0
   71.9410   43.7240   -4.5000 C   0  0  0  0  0  0  0  0  0  0  0  0
   70.7780   42.8520   -4.6710 C   0  0  0  0  0  0  0  0  0  0  0  0
   69.8910   43.1030   -5.4850 O   0  0  0  0  0  0  0  0  0  0  0  0
   70.6990   41.6400   -3.8230 C   0  0  0  0  0  0  0  0  0  0  0  0
   69.6040   40.8180   -4.0030 O   0  0  0  0  0  0  0  0  0  0  0  0
   70.7850   40.0900   -1.0320 C   0  0  0  0  0  0  0  0  0  0  0  0
   70.7680   38.9690   -0.1840 C   0  0  0  0  0  0  0  0  0  0  0  0
   69.7380   38.8880    0.9090 C   0  0  0  0  0  0  0  0  0  0  0  0
   71.7407   37.0355    1.5618 H   0  0  0  0  0  0  0  0  0  0  0  0
   70.8644   36.1052    0.2995 H   0  0  0  0  0  0  0  0  0  0  0  0
   72.6602   36.1479    0.2995 H   0  0  0  0  0  0  0  0  0  0  0  0
   73.3998   37.2769   -1.5647 H   0  0  0  0  0  0  0  0  0  0  0  0
   73.4003   39.2635   -3.0524 H   0  0  0  0  0  0  0  0  0  0  0  0
   74.7858   43.8745   -2.6243 H   0  0  0  0  0  0  0  0  0  0  0  0
   75.0722   45.9642   -3.9593 H   0  0  0  0  0  0  0  0  0  0  0  0
   73.3477   46.6180   -5.6431 H   0  0  0  0  0  0  0  0  0  0  0  0
   70.2780   45.2220   -6.0230 H   0  0  0  0  0  0  0  0  0  0  0  0
   68.9080   40.8200   -3.3750 H   0  0  0  0  0  0  0  0  0  0  0  0
   70.0389   40.8848   -0.8848 H   0  0  0  0  0  0  0  0  0  0  0  0
   70.2382   38.9273    1.8879 H   0  0  0  0  0  0  0  0  0  0  0  0
   69.0408   39.7341    0.8193 H   0  0  0  0  0  0  0  0  0  0  0  0
   69.1816   37.9433    0.8193 H   0  0  0  0  0  0  0  0  0  0  0  0
  1  2  1  0
  2  3  2  0
  3  4  1  0
  4  5  2  0
  5  6  1  0
  6  7  1  0
  7  8  1  0
  8  9  2  0
  9 10  1  0
 10 11  2  0
 11 12  1  0
 12 13  1  0
 12 14  2  0
 14 15  1  0
 15 16  2  0
 15 17  1  0
 17 18  1  0
  5 19  1  0
 19 20  2  0
 20 21  1  0
 20  2  1  0
 17  6  2  0
 14  8  1  0
  1 22  1  0
  1 23  1  0
  1 24  1  0
  3 25  1  0
  4 26  1  0
  9 27  1  0
 10 28  1  0
 11 29  1  0
 13 30  1  0
 18 31  1  0
 19 32  1  0
 21 33  1  0
 21 34  1  0
 21 35  1  0
M  END
>  <meeko>  (6) 
{"is_sidechain": [false], "free_energy": -7.773, "intermolecular_energy": -8.634, "internal_energy": -0.221}

$$$$
cand_036_out
     RDKit          3D

 35 37  0  0  0  0  0  0  0  0999 V2000
   74.7660   44.0420   -5.9120 C   0  0  0  0  0  0  0  0  0  0  0  0
   73.9820   43.1690   -4.9700 C   0  0  0  0  0  0  0  0  0  0  0  0
   72.9860   42.3270   -5.4810 C   0  0  0  0  0  0  0  0  0  0  0  0
   72.2380   41.5040   -4.6350 C   0  0  0  0  0  0  0  0  0  0  0  0
   72.4620   41.5060   -3.2550 C   0  0  0  0  0  0  0  0  0  0  0  0
   71.7030   40.6250   -2.3410 C   0  0  0  0  0  0  0  0  0  0  0  0
   72.4740   39.5900   -1.8260 O   0  0  0  0  0  0  0  0  0  0  0  0
   71.8940   38.6960   -0.9620 C   0  0  0  0  0  0  0  0  0  0  0  0
   72.7010   37.6640   -0.4810 C   0  0  0  0  0  0  0  0  0  0  0  0
   72.1720   36.7210    0.4030 C   0  0  0  0  0  0  0  0  0  0  0  0
   70.8380   36.8100    0.8060 C   0  0  0  0  0  0  0  0  0  0  0  0
   70.0350   37.8410    0.3240 C   0  0  0  0  0  0  0  0  0  0  0  0
   68.7380   37.8690    0.7590 O   0  0  0  0  0  0  0  0  0  0  0  0
   70.5640   38.7840   -0.5610 C   0  0  0  0  0  0  0  0  0  0  0  0
   69.7550   39.8830   -1.0920 C   0  0  0  0  0  0  0  0  0  0  0  0
   68.5750   40.0310   -0.7790 O   0  0  0  0  0  0  0  0  0  0  0  0
   70.4090   40.8240   -2.0300 C   0  0  0  0  0  0  0  0  0  0  0  0
   69.6390   41.8640   -2.5140 O   0  0  0  0  0  0  0  0  0  0  0  0
   73.4670   42.3430   -2.7450 C   0  0  0  0  0  0  0  0  0  0  0  0
   74.2290   43.1760   -3.5830 C   0  0  0  0  0  0  0  0  0  0  0  0
   75.2860   44.0590   -2.9790 C   0  0  0  0  0  0  0  0  0  0  0  0
   75.3908   44.7378   -5.3328 H   0  0  0  0  0  0  0  0  0  0  0  0
   75.4084   43.4131   -6.5459 H   0  0  0  0  0  0  0  0  0  0  0  0
   74.0719   44.6133   -6.5459 H   0  0  0  0  0  0  0  0  0  0  0  0
   72.7900   42.3135   -6.5633 H   0  0  0  0  0  0  0  0  0  0  0  0
   71.4644   40.8473   -5.0595 H   0  0  0  0  0  0  0  0  0  0  0  0
   73.7521   37.5934   -0.7976 H   0  0  0  0  0  0  0  0  0  0  0  0
   72.8072   35.9070    0.7824 H   0  0  0  0  0  0  0  0  0  0  0  0
   70.4221   36.0673    1.5028 H   0  0  0  0  0  0  0  0  0  0  0  0
   68.2380   38.6580    0.6900 H   0  0  0  0  0  0  0  0  0  0  0  0
   69.6760   42.7060   -2.1020 H   0  0  0  0  0  0  0  0  0  0  0  0
   73.6632   42.3472   -1.6627 H   0  0  0  0  0  0  0  0  0  0  0  0
   75.2241   44.0072   -1.8820 H   0  0  0  0  0  0  0  0  0  0  0  0
   76.2793   43.7185   -3.3066 H   0  0  0  0  0  0  0  0  0  0  0  0
   75.1277   45.0971   -3.3066 H   0  0  0  0  0  0  0  0  0  0  0  0
  1  2  1  0
  2  3  2  0
  3  4  1  0
  4  5  2  0
  5  6  1  0
  6  7  1  0
  7  8  1  0
  8  9  2  0
  9 10  1  0
 10 11  2  0
 11 12  1  0
 12 13  1  0
 12 14  2  0
 14 15  1  0
 15 16  2  0
 15 17  1  0
 17 18  1  0
  5 19  1  0
 19 20  2  0
 20 21  1  0
 20  2  1  0
 17  6  2  0
 14  8  1  0
  1 22  1  0
  1 23  1  0
  1 24  1  0
  3 25  1  0
  4 26  1  0
  9 27  1  0
 10 28  1  0
 11 29  1  0
 13 30  1  0
 18 31  1  0
 19 32  1  0
 21 33  1  0
 21 34  1  0
 21 35  1  0
M  END
>  <meeko>  (7) 
{"is_sidechain": [false], "free_energy": -7.718, "intermolecular_energy": -8.521, "internal_energy": -0.273}

$$$$
cand_036_out
     RDKit          3D

 35 37  0  0  0  0  0  0  0  0999 V2000
   75.6440   43.9040   -5.1860 C   0  0  0  0  0  0  0  0  0  0  0  0
   74.7660   42.9940   -4.3710 C   0  0  0  0  0  0  0  0  0  0  0  0
   75.0470   42.8040   -3.0110 C   0  0  0  0  0  0  0  0  0  0  0  0
   74.2530   41.9650   -2.2250 C   0  0  0  0  0  0  0  0  0  0  0  0
   73.1610   41.2880   -2.7790 C   0  0  0  0  0  0  0  0  0  0  0  0
   72.2900   40.4170   -1.9620 C   0  0  0  0  0  0  0  0  0  0  0  0
   70.9490   40.7760   -2.0340 O   0  0  0  0  0  0  0  0  0  0  0  0
   70.0280   40.0490   -1.3230 C   0  0  0  0  0  0  0  0  0  0  0  0
   68.6960   40.4530   -1.4110 C   0  0  0  0  0  0  0  0  0  0  0  0
   67.7080   39.7550   -0.7130 C   0  0  0  0  0  0  0  0  0  0  0  0
   68.0520   38.6520    0.0710 C   0  0  0  0  0  0  0  0  0  0  0  0
   69.3830   38.2510    0.1580 C   0  0  0  0  0  0  0  0  0  0  0  0
   69.6510   37.1640    0.9440 O   0  0  0  0  0  0  0  0  0  0  0  0
   70.3710   38.9510   -0.5400 C   0  0  0  0  0  0  0  0  0  0  0  0
   71.7810   38.5620   -0.4760 C   0  0  0  0  0  0  0  0  0  0  0  0
   72.1620   37.6000    0.1880 O   0  0  0  0  0  0  0  0  0  0  0  0
   72.7510   39.3750   -1.2460 C   0  0  0  0  0  0  0  0  0  0  0  0
   74.0780   38.9910   -1.1890 O   0  0  0  0  0  0  0  0  0  0  0  0
   72.8760   41.4880   -4.1390 C   0  0  0  0  0  0  0  0  0  0  0  0
   73.6640   42.3300   -4.9430 C   0  0  0  0  0  0  0  0  0  0  0  0
   73.3140   42.4980   -6.3960 C   0  0  0  0  0  0  0  0  0  0  0  0
   76.2481   44.5301   -4.5129 H   0  0  0  0  0  0  0  0  0  0  0  0
   76.3093   43.3000   -5.8205 H   0  0  0  0  0  0  0  0  0  0  0  0
   75.0166   44.5472   -5.8205 H   0  0  0  0  0  0  0  0  0  0  0  0
   75.9041   43.3224   -2.5564 H   0  0  0  0  0  0  0  0  0  0  0  0
   74.4891   41.8352   -1.1585 H   0  0  0  0  0  0  0  0  0  0  0  0
   68.4238   41.3208   -2.0297 H   0  0  0  0  0  0  0  0  0  0  0  0
   66.6576   40.0746   -0.7810 H   0  0  0  0  0  0  0  0  0  0  0  0
   67.2734   38.1009    0.6188 H   0  0  0  0  0  0  0  0  0  0  0  0
   69.7080   37.2610    1.8740 H   0  0  0  0  0  0  0  0  0  0  0  0
   74.6900   39.4930   -0.6880 H   0  0  0  0  0  0  0  0  0  0  0  0
   72.0138   40.9725   -4.5871 H   0  0  0  0  0  0  0  0  0  0  0  0
   72.3254   42.9725   -6.4825 H   0  0  0  0  0  0  0  0  0  0  0  0
   74.0690   43.1319   -6.8841 H   0  0  0  0  0  0  0  0  0  0  0  0
   73.2917   41.5125   -6.8841 H   0  0  0  0  0  0  0  0  0  0  0  0
  1  2  1  0
  2  3  2  0
  3  4  1  0
  4  5  2  0
  5  6  1  0
  6  7  1  0
  7  8  1  0
  8  9  2  0
  9 10  1  0
 10 11  2  0
 11 12  1  0
 12 13  1  0
 12 14  2  0
 14 15  1  0
 15 16  2  0
 15 17  1  0
 17 18  1  0
  5 19  1  0
 19 20  2  0
 20 21  1  0
 20  2  1  0
 17  6  2  0
 14  8  1  0
  1 22  1  0
  1 23  1  0
  1 24  1  0
  3 25  1  0
  4 26  1  0
  9 27  1  0
 10 28  1  0
 11 29  1  0
 13 30  1  0
 18 31  1  0
 19 32  1  0
 21 33  1  0
 21 34  1  0
 21 35  1  0
M  END
>  <meeko>  (8) 
{"is_sidechain": [false], "free_energy": -7.702, "intermolecular_energy": -8.635, "internal_energy": -0.142}

$$$$
cand_036_out
     RDKit          3D

 35 37  0  0  0  0  0  0  0  0999 V2000
   75.5530   44.1750   -5.2990 C   0  0  0  0  0  0  0  0  0  0  0  0
   74.6520   43.2680   -4.5060 C   0  0  0  0  0  0  0  0  0  0  0  0
   74.7630   43.2390   -3.1090 C   0  0  0  0  0  0  0  0  0  0  0  0
   73.9430   42.4090   -2.3410 C   0  0  0  0  0  0  0  0  0  0  0  0
   72.9950   41.5800   -2.9490 C   0  0  0  0  0  0  0  0  0  0  0  0
   72.0970   40.7120   -2.1580 C   0  0  0  0  0  0  0  0  0  0  0  0
   72.7580   39.6330   -1.5840 O   0  0  0  0  0  0  0  0  0  0  0  0
   72.0420   38.7450   -0.8210 C   0  0  0  0  0  0  0  0  0  0  0  0
   72.7430   37.6680   -0.2770 C   0  0  0  0  0  0  0  0  0  0  0  0
   72.0740   36.7290    0.5120 C   0  0  0  0  0  0  0  0  0  0  0  0
   70.7060   36.8670    0.7560 C   0  0  0  0  0  0  0  0  0  0  0  0
   70.0090   37.9440    0.2120 C   0  0  0  0  0  0  0  0  0  0  0  0
   68.6720   38.0180    0.4900 O   0  0  0  0  0  0  0  0  0  0  0  0
   70.6790   38.8820   -0.5780 C   0  0  0  0  0  0  0  0  0  0  0  0
   69.9850   40.0270   -1.1690 C   0  0  0  0  0  0  0  0  0  0  0  0
   68.7830   40.2210   -0.9950 O   0  0  0  0  0  0  0  0  0  0  0  0
   70.7840   40.9610   -1.9970 C   0  0  0  0  0  0  0  0  0  0  0  0
   70.1210   42.0450   -2.5390 O   0  0  0  0  0  0  0  0  0  0  0  0
   72.8780   41.6180   -4.3480 C   0  0  0  0  0  0  0  0  0  0  0  0
   73.6950   42.4490   -5.1350 C   0  0  0  0  0  0  0  0  0  0  0  0
   73.5300   42.4400   -6.6300 C   0  0  0  0  0  0  0  0  0  0  0  0
   76.1579   44.7839   -4.6110 H   0  0  0  0  0  0  0  0  0  0  0  0
   76.2172   43.5692   -5.9329 H   0  0  0  0  0  0  0  0  0  0  0  0
   74.9428   44.8351   -5.9329 H   0  0  0  0  0  0  0  0  0  0  0  0
   75.5062   43.8787   -2.6106 H   0  0  0  0  0  0  0  0  0  0  0  0
   74.0441   42.4074   -1.2457 H   0  0  0  0  0  0  0  0  0  0  0  0
   73.8205   37.5585   -0.4691 H   0  0  0  0  0  0  0  0  0  0  0  0
   72.6256   35.8798    0.9416 H   0  0  0  0  0  0  0  0  0  0  0  0
   70.1796   36.1269    1.3765 H   0  0  0  0  0  0  0  0  0  0  0  0
   68.3830   38.1120    1.3760 H   0  0  0  0  0  0  0  0  0  0  0  0
   70.5780   42.8500   -2.6820 H   0  0  0  0  0  0  0  0  0  0  0  0
   72.1282   40.9815   -4.8407 H   0  0  0  0  0  0  0  0  0  0  0  0
   72.4605   42.3816   -6.8805 H   0  0  0  0  0  0  0  0  0  0  0  0
   73.9555   43.3627   -7.0514 H   0  0  0  0  0  0  0  0  0  0  0  0
   74.0533   41.5691   -7.0514 H   0  0  0  0  0  0  0  0  0  0  0  0
  1  2  1  0
  2  3  2  0
  3  4  1  0
  4  5  2  0
  5  6  1  0
  6  7  1  0
  7  8  1  0
  8  9  2  0
  9 10  1  0
 10 11  2  0
 11 12  1  0
 12 13  1  0
 12 14  2  0
 14 15  1  0
 15 16  2  0
 15 17  1  0
 17 18  1  0
  5 19  1  0
 19 20  2  0
 20 21  1  0
 20  2  1  0
 17  6  2  0
 14  8  1  0
  1 22  1  0
  1 23  1  0
  1 24  1  0
  3 25  1  0
  4 26  1  0
  9 27  1  0
 10 28  1  0
 11 29  1  0
 13 30  1  0
 18 31  1  0
 19 32  1  0
 21 33  1  0
 21 34  1  0
 21 35  1  0
M  END
>  <meeko>  (9) 
{"is_sidechain": [false], "free_energy": -7.661, "intermolecular_energy": -8.483, "internal_energy": -0.248}

$$$$
