cand_030_out
     RDKit          3D

 38 40  0  0  0  0  0  0  0  0999 V2000
   76.3290   42.8940   -6.4330 C   0  0  0  0  0  0  0  0  0  0  0  0
   75.7190   43.6820   -5.2840 C   0  0  0  0  0  0  0  0  0  0  0  0
   74.8720   42.8090   -4.3820 C   0  0  0  0  0  0  0  0  0  0  0  0
   73.6360   42.3530   -4.8710 C   0  0  0  0  0  0  0  0  0  0  0  0
   72.8040   41.5500   -4.0890 C   0  0  0  0  0  0  0  0  0  0  0  0
   73.1840   41.1750   -2.7960 C   0  0  0  0  0  0  0  0  0  0  0  0
   72.2830   40.3400   -1.9760 C   0  0  0  0  0  0  0  0  0  0  0  0
   70.9520   40.7290   -2.0670 O   0  0  0  0  0  0  0  0  0  0  0  0
   70.0090   40.0360   -1.3500 C   0  0  0  0  0  0  0  0  0  0  0  0
   68.6880   40.4700   -1.4570 C   0  0  0  0  0  0  0  0  0  0  0  0
   67.6790   39.8070   -0.7550 C   0  0  0  0  0  0  0  0  0  0  0  0
   67.9900   38.7110    0.0520 C   0  0  0  0  0  0  0  0  0  0  0  0
   69.3110   38.2800    0.1570 C   0  0  0  0  0  0  0  0  0  0  0  0
   69.5460   37.2010    0.9640 O   0  0  0  0  0  0  0  0  0  0  0  0
   70.3200   38.9450   -0.5450 C   0  0  0  0  0  0  0  0  0  0  0  0
   71.7200   38.5230   -0.4620 C   0  0  0  0  0  0  0  0  0  0  0  0
   72.0730   37.5650    0.2200 O   0  0  0  0  0  0  0  0  0  0  0  0
   72.7140   39.2990   -1.2390 C   0  0  0  0  0  0  0  0  0  0  0  0
   74.0320   38.8880   -1.1660 O   0  0  0  0  0  0  0  0  0  0  0  0
   74.4090   41.6430   -2.3000 C   0  0  0  0  0  0  0  0  0  0  0  0
   75.2610   42.4600   -3.0720 C   0  0  0  0  0  0  0  0  0  0  0  0
   76.5810   42.8980   -2.4770 C   0  0  0  0  0  0  0  0  0  0  0  0
   76.5790   44.1960   -2.0650 F   0  0  0  0  0  0  0  0  0  0  0  0
   76.9510   42.1750   -1.3810 F   0  0  0  0  0  0  0  0  0  0  0  0
   76.9557   42.0845   -6.0305 H   0  0  0  0  0  0  0  0  0  0  0  0
   75.5261   42.4640   -7.0498 H   0  0  0  0  0  0  0  0  0  0  0  0
   76.9465   43.5636   -7.0498 H   0  0  0  0  0  0  0  0  0  0  0  0
   76.5301   44.1261   -4.6883 H   0  0  0  0  0  0  0  0  0  0  0  0
   75.0683   44.4583   -5.7130 H   0  0  0  0  0  0  0  0  0  0  0  0
   73.3190   42.6333   -5.8863 H   0  0  0  0  0  0  0  0  0  0  0  0
   71.8398   41.2086   -4.4936 H   0  0  0  0  0  0  0  0  0  0  0  0
   68.4412   41.3329   -2.0931 H   0  0  0  0  0  0  0  0  0  0  0  0
   66.6369   40.1491   -0.8381 H   0  0  0  0  0  0  0  0  0  0  0  0
   67.1942   38.1890    0.6036 H   0  0  0  0  0  0  0  0  0  0  0  0
   70.0770   37.2950    1.7300 H   0  0  0  0  0  0  0  0  0  0  0  0
   74.2440   38.0630   -0.7750 H   0  0  0  0  0  0  0  0  0  0  0  0
   74.7142   41.3653   -1.2803 H   0  0  0  0  0  0  0  0  0  0  0  0
   77.2843   42.7422   -3.3083 H   0  0  0  0  0  0  0  0  0  0  0  0
  1  2  1  0
  2  3  1  0
  3  4  2  0
  4  5  1  0
  5  6  2  0
  6  7  1  0
  7  8  1  0
  8  9  1  0
  9 10  2  0
 10 11  1  0
 11 12  2  0
 12 13  1  0
 13 14  1  0
 13 15  2  0
 15 16  1  0
 16 17  2  0
 16 18  1  0
 18 19  1  0
  6 20  1  0
 20 21  2  0
 21 22  1  0
 22 23  1  0
 22 24  1  0
 21  3  1  0
 18  7  2  0
 15  9  1  0
  1 25  1  0
  1 26  1  0
  1 27  1  0
  2 28  1  0
  2 29  1  0
  4 30  1  0
  5 31  1  0
 10 32  1  0
 11 33  1  0
 12 34  1  0
 14 35  1  0
 19 36  1  0
 20 37  1  0
 22 38  1  0
M  END
>  <meeko>  (1) 
{"is_sidechain": [false], "free_energy": -7.914, "intermolecular_energy": -9.765, "internal_energy": -0.372}

$$$$
cand_030_out
     RDKit          3D

 38 40  0  0  0  0  0  0  0  0999 V2000
   70.7510   36.5560    1.4490 C   0  0  0  0  0  0  0  0  0  0  0  0
   71.6360   37.1610    0.3690 C   0  0  0  0  0  0  0  0  0  0  0  0
   70.9590   38.3130   -0.3410 C   0  0  0  0  0  0  0  0  0  0  0  0
   69.6490   38.6490    0.0410 C   0  0  0  0  0  0  0  0  0  0  0  0
   68.9640   39.6970   -0.5780 C   0  0  0  0  0  0  0  0  0  0  0  0
   69.5700   40.4430   -1.5940 C   0  0  0  0  0  0  0  0  0  0  0  0
   68.8250   41.5360   -2.2500 C   0  0  0  0  0  0  0  0  0  0  0  0
   67.9120   42.1540   -1.4030 O   0  0  0  0  0  0  0  0  0  0  0  0
   67.1500   43.1860   -1.8910 C   0  0  0  0  0  0  0  0  0  0  0  0
   66.2350   43.7660   -1.0120 C   0  0  0  0  0  0  0  0  0  0  0  0
   65.4300   44.8230   -1.4430 C   0  0  0  0  0  0  0  0  0  0  0  0
   65.5400   45.2990   -2.7520 C   0  0  0  0  0  0  0  0  0  0  0  0
   66.4550   44.7180   -3.6270 C   0  0  0  0  0  0  0  0  0  0  0  0
   66.5120   45.2330   -4.8930 O   0  0  0  0  0  0  0  0  0  0  0  0
   67.2590   43.6600   -3.1940 C   0  0  0  0  0  0  0  0  0  0  0  0
   68.2330   43.0210   -4.0820 C   0  0  0  0  0  0  0  0  0  0  0  0
   68.3950   43.3870   -5.2430 O   0  0  0  0  0  0  0  0  0  0  0  0
   69.0310   41.9030   -3.5290 C   0  0  0  0  0  0  0  0  0  0  0  0
   69.9570   41.3120   -4.3690 O   0  0  0  0  0  0  0  0  0  0  0  0
   70.8700   40.0980   -1.9890 C   0  0  0  0  0  0  0  0  0  0  0  0
   71.5760   39.0390   -1.3800 C   0  0  0  0  0  0  0  0  0  0  0  0
   72.9880   38.7500   -1.8410 C   0  0  0  0  0  0  0  0  0  0  0  0
   73.0500   38.2790   -3.1170 F   0  0  0  0  0  0  0  0  0  0  0  0
   73.8020   39.8440   -1.8230 F   0  0  0  0  0  0  0  0  0  0  0  0
   71.1454   36.8256    2.4398 H   0  0  0  0  0  0  0  0  0  0  0  0
   69.7271   36.9440    1.3439 H   0  0  0  0  0  0  0  0  0  0  0  0
   70.7408   35.4611    1.3439 H   0  0  0  0  0  0  0  0  0  0  0  0
   72.5636   37.5265    0.8338 H   0  0  0  0  0  0  0  0  0  0  0  0
   71.8447   36.3790   -0.3759 H   0  0  0  0  0  0  0  0  0  0  0  0
   69.1551   38.0773    0.8405 H   0  0  0  0  0  0  0  0  0  0  0  0
   67.9379   39.9380   -0.2634 H   0  0  0  0  0  0  0  0  0  0  0  0
   66.1476   43.3916    0.0186 H   0  0  0  0  0  0  0  0  0  0  0  0
   64.7084   45.2814   -0.7508 H   0  0  0  0  0  0  0  0  0  0  0  0
   64.9052   46.1310   -3.0910 H   0  0  0  0  0  0  0  0  0  0  0  0
   65.8780   44.9740   -5.5320 H   0  0  0  0  0  0  0  0  0  0  0  0
   70.1770   41.7200   -5.1840 H   0  0  0  0  0  0  0  0  0  0  0  0
   71.3530   40.6686   -2.7959 H   0  0  0  0  0  0  0  0  0  0  0  0
   73.3275   37.9940   -1.1177 H   0  0  0  0  0  0  0  0  0  0  0  0
  1  2  1  0
  2  3  1  0
  3  4  2  0
  4  5  1  0
  5  6  2  0
  6  7  1  0
  7  8  1  0
  8  9  1  0
  9 10  2  0
 10 11  1  0
 11 12  2  0
 12 13  1  0
 13 14  1  0
 13 15  2  0
 15 16  1  0
 16 17  2  0
 16 18  1  0
 18 19  1  0
  6 20  1  0
 20 21  2  0
 21 22  1  0
 22 23  1  0
 22 24  1  0
 21  3  1  0
 18  7  2  0
 15  9  1  0
  1 25  1  0
  1 26  1  0
  1 27  1  0
  2 28  1  0
  2 29  1  0
  4 30  1  0
  5 31  1  0
 10 32  1  0
 11 33  1  0
 12 34  1  0
 14 35  1  0
 19 36  1  0
 20 37  1  0
 22 38  1  0
M  END
>  <meeko>  (2) 
{"is_sidechain": [false], "free_energy": -7.787, "intermolecular_energy": -9.835, "internal_energy": -0.144}

$$$$
cand_030_out
     RDKit          3D

 38 40  0  0  0  0  0  0  0  0999 V2000
   66.5760   39.3870   -0.9600 C   0  0  0  0  0  0  0  0  0  0  0  0
   67.7860   38.8500   -0.2110 C   0  0  0  0  0  0  0  0  0  0  0  0
   69.0700   39.5190   -0.6510 C   0  0  0  0  0  0  0  0  0  0  0  0
   68.9920   40.5270   -1.6270 C   0  0  0  0  0  0  0  0  0  0  0  0
   70.1390   41.1800   -2.0820 C   0  0  0  0  0  0  0  0  0  0  0  0
   71.3980   40.8490   -1.5710 C   0  0  0  0  0  0  0  0  0  0  0  0
   72.6030   41.5380   -2.0770 C   0  0  0  0  0  0  0  0  0  0  0  0
   72.3620   42.8600   -2.4330 O   0  0  0  0  0  0  0  0  0  0  0  0
   73.3990   43.6130   -2.9230 C   0  0  0  0  0  0  0  0  0  0  0  0
   73.1090   44.9300   -3.2840 C   0  0  0  0  0  0  0  0  0  0  0  0
   74.1200   45.7520   -3.7870 C   0  0  0  0  0  0  0  0  0  0  0  0
   75.4190   45.2590   -3.9280 C   0  0  0  0  0  0  0  0  0  0  0  0
   75.7050   43.9440   -3.5660 C   0  0  0  0  0  0  0  0  0  0  0  0
   76.9970   43.5260   -3.7300 O   0  0  0  0  0  0  0  0  0  0  0  0
   74.6930   43.1220   -3.0650 C   0  0  0  0  0  0  0  0  0  0  0  0
   74.9510   41.7350   -2.6730 C   0  0  0  0  0  0  0  0  0  0  0  0
   76.0680   41.2310   -2.7600 O   0  0  0  0  0  0  0  0  0  0  0  0
   73.8090   40.9450   -2.1590 C   0  0  0  0  0  0  0  0  0  0  0  0
   74.0630   39.6400   -1.7800 O   0  0  0  0  0  0  0  0  0  0  0  0
   71.4810   39.8320   -0.6100 C   0  0  0  0  0  0  0  0  0  0  0  0
   70.3350   39.1560   -0.1420 C   0  0  0  0  0  0  0  0  0  0  0  0
   70.5040   38.0930    0.9200 C   0  0  0  0  0  0  0  0  0  0  0  0
   71.5430   37.2480    0.6740 F   0  0  0  0  0  0  0  0  0  0  0  0
   70.7400   38.5980    2.1650 F   0  0  0  0  0  0  0  0  0  0  0  0
   65.8175   39.7236   -0.2379 H   0  0  0  0  0  0  0  0  0  0  0  0
   66.8820   40.2338   -1.5919 H   0  0  0  0  0  0  0  0  0  0  0  0
   66.1534   38.5919   -1.5919 H   0  0  0  0  0  0  0  0  0  0  0  0
   67.6444   39.0272    0.8654 H   0  0  0  0  0  0  0  0  0  0  0  0
   67.8711   37.7755   -0.4305 H   0  0  0  0  0  0  0  0  0  0  0  0
   68.0111   40.8061   -2.0393 H   0  0  0  0  0  0  0  0  0  0  0  0
   70.0516   41.9626   -2.8500 H   0  0  0  0  0  0  0  0  0  0  0  0
   72.0863   45.3196   -3.1725 H   0  0  0  0  0  0  0  0  0  0  0  0
   73.8926   46.7897   -4.0726 H   0  0  0  0  0  0  0  0  0  0  0  0
   76.2146   45.9072   -4.3239 H   0  0  0  0  0  0  0  0  0  0  0  0
   77.1820   42.6180   -3.8640 H   0  0  0  0  0  0  0  0  0  0  0  0
   74.0470   38.9550   -2.4200 H   0  0  0  0  0  0  0  0  0  0  0  0
   72.4670   39.5534   -0.2098 H   0  0  0  0  0  0  0  0  0  0  0  0
   69.5403   37.5638    0.8853 H   0  0  0  0  0  0  0  0  0  0  0  0
  1  2  1  0
  2  3  1  0
  3  4  2  0
  4  5  1  0
  5  6  2  0
  6  7  1  0
  7  8  1  0
  8  9  1  0
  9 10  2  0
 10 11  1  0
 11 12  2  0
 12 13  1  0
 13 14  1  0
 13 15  2  0
 15 16  1  0
 16 17  2  0
 16 18  1  0
 18 19  1  0
  6 20  1  0
 20 21  2  0
 21 22  1  0
 22 23  1  0
 22 24  1  0
 21  3  1  0
 18  7  2  0
 15  9  1  0
  1 25  1  0
  1 26  1  0
  1 27  1  0
  2 28  1  0
  2 29  1  0
  4 30  1  0
  5 31  1  0
 10 32  1  0
 11 33  1  0
 12 34  1  0
 14 35  1  0
 19 36  1  0
 20 37  1  0
 22 38  1  0
M  END
>  <meeko>  (3) 
{"is_sidechain": [false], "free_energy": -7.772, "intermolecular_energy": -9.794, "internal_energy": -0.167}

$$$$
cand_030_out
     RDKit          3D

 38 40  0  0  0  0  0  0  0  0999 V2000
   75.5740   46.7670   -2.9740 C   0  0  0  0  0  0  0  0  0  0  0  0
   75.7420   45.3780   -3.5710 C   0  0  0  0  0  0  0  0  0  0  0  0
   74.5470   44.4910   -3.2940 C   0  0  0  0  0  0  0  0  0  0  0  0
   73.2700   44.9800   -3.6170 C   0  0  0  0  0  0  0  0  0  0  0  0
   72.1250   44.2160   -3.3810 C   0  0  0  0  0  0  0  0  0  0  0  0
   72.2230   42.9400   -2.8190 C   0  0  0  0  0  0  0  0  0  0  0  0
   71.0000   42.1530   -2.5600 C   0  0  0  0  0  0  0  0  0  0  0  0
   71.0940   41.3650   -1.4190 O   0  0  0  0  0  0  0  0  0  0  0  0
   70.0250   40.5800   -1.0660 C   0  0  0  0  0  0  0  0  0  0  0  0
   70.1690   39.7920    0.0760 C   0  0  0  0  0  0  0  0  0  0  0  0
   69.1170   38.9720    0.4920 C   0  0  0  0  0  0  0  0  0  0  0  0
   67.9230   38.9410   -0.2320 C   0  0  0  0  0  0  0  0  0  0  0  0
   67.7830   39.7290   -1.3720 C   0  0  0  0  0  0  0  0  0  0  0  0
   66.5890   39.6510   -2.0340 O   0  0  0  0  0  0  0  0  0  0  0  0
   68.8360   40.5490   -1.7890 C   0  0  0  0  0  0  0  0  0  0  0  0
   68.7300   41.3920   -2.9800 C   0  0  0  0  0  0  0  0  0  0  0  0
   67.7110   41.4260   -3.6660 O   0  0  0  0  0  0  0  0  0  0  0  0
   69.9050   42.2180   -3.3410 C   0  0  0  0  0  0  0  0  0  0  0  0
   69.7930   43.0220   -4.4600 O   0  0  0  0  0  0  0  0  0  0  0  0
   73.4940   42.4570   -2.4790 C   0  0  0  0  0  0  0  0  0  0  0  0
   74.6620   43.2150   -2.7040 C   0  0  0  0  0  0  0  0  0  0  0  0
   76.0000   42.6110   -2.3400 C   0  0  0  0  0  0  0  0  0  0  0  0
   76.3370   42.8010   -1.0340 F   0  0  0  0  0  0  0  0  0  0  0  0
   76.0590   41.2610   -2.5320 F   0  0  0  0  0  0  0  0  0  0  0  0
   75.5824   46.6977   -1.8762 H   0  0  0  0  0  0  0  0  0  0  0  0
   76.4007   47.4117   -3.3070 H   0  0  0  0  0  0  0  0  0  0  0  0
   74.6174   47.1960   -3.3070 H   0  0  0  0  0  0  0  0  0  0  0  0
   75.8687   45.4727   -4.6596 H   0  0  0  0  0  0  0  0  0  0  0  0
   76.6238   44.9135   -3.1055 H   0  0  0  0  0  0  0  0  0  0  0  0
   73.1705   45.9806   -4.0629 H   0  0  0  0  0  0  0  0  0  0  0  0
   71.1362   44.6225   -3.6400 H   0  0  0  0  0  0  0  0  0  0  0  0
   71.1085   39.8161    0.6476 H   0  0  0  0  0  0  0  0  0  0  0  0
   69.2294   38.3494    1.3918 H   0  0  0  0  0  0  0  0  0  0  0  0
   67.0952   38.2958    0.0973 H   0  0  0  0  0  0  0  0  0  0  0  0
   65.8540   39.2370   -1.6260 H   0  0  0  0  0  0  0  0  0  0  0  0
   70.2810   43.8210   -4.5130 H   0  0  0  0  0  0  0  0  0  0  0  0
   73.5831   41.4594   -2.0242 H   0  0  0  0  0  0  0  0  0  0  0  0
   76.6930   43.1363   -3.0137 H   0  0  0  0  0  0  0  0  0  0  0  0
  1  2  1  0
  2  3  1  0
  3  4  2  0
  4  5  1  0
  5  6  2  0
  6  7  1  0
  7  8  1  0
  8  9  1  0
  9 10  2  0
 10 11  1  0
 11 12  2  0
 12 13  1  0
 13 14  1  0
 13 15  2  0
 15 16  1  0
 16 17  2  0
 16 18  1  0
 18 19  1  0
  6 20  1  0
 20 21  2  0
 21 22  1  0
 22 23  1  0
 22 24  1  0
 21  3  1  0
 18  7  2  0
 15  9  1  0
  1 25  1  0
  1 26  1  0
  1 27  1  0
  2 28  1  0
  2 29  1  0
  4 30  1  0
  5 31  1  0
 10 32  1  0
 11 33  1  0
 12 34  1  0
 14 35  1  0
 19 36  1  0
 20 37  1  0
 22 38  1  0
M  END
>  <meeko>  (4) 
{"is_sidechain": [false], "free_energy": -7.75, "intermolecular_energy": -9.746, "internal_energy": -0.188}

$$$$
cand_030_out
     RDKit          3D

 38 40  0  0  0  0  0  0  0  0999 V2000
   76.2970   42.7680   -6.6250 C   0  0  0  0  0  0  0  0  0  0  0  0
   75.7580   43.6040   -5.4740 C   0  0  0  0  0  0  0  0  0  0  0  0
   74.8400   42.8060   -4.5730 C   0  0  0  0  0  0  0  0  0  0  0  0
   73.6210   42.3520   -5.1040 C   0  0  0  0  0  0  0  0  0  0  0  0
   72.7250   41.6150   -4.3250 C   0  0  0  0  0  0  0  0  0  0  0  0
   73.0240   41.3070   -2.9940 C   0  0  0  0  0  0  0  0  0  0  0  0
   72.0570   40.5430   -2.1810 C   0  0  0  0  0  0  0  0  0  0  0  0
   72.6330   39.4580   -1.5310 O   0  0  0  0  0  0  0  0  0  0  0  0
   71.8410   38.6620   -0.7420 C   0  0  0  0  0  0  0  0  0  0  0  0
   72.4570   37.5740   -0.1220 C   0  0  0  0  0  0  0  0  0  0  0  0
   71.7090   36.7240    0.6960 C   0  0  0  0  0  0  0  0  0  0  0  0
   70.3470   36.9620    0.8940 C   0  0  0  0  0  0  0  0  0  0  0  0
   69.7350   38.0490    0.2740 C   0  0  0  0  0  0  0  0  0  0  0  0
   68.4000   38.2240    0.5110 O   0  0  0  0  0  0  0  0  0  0  0  0
   70.4840   38.8980   -0.5460 C   0  0  0  0  0  0  0  0  0  0  0  0
   69.8800   40.0510   -1.2160 C   0  0  0  0  0  0  0  0  0  0  0  0
   68.6920   40.3320   -1.0860 O   0  0  0  0  0  0  0  0  0  0  0  0
   70.7590   40.8840   -2.0690 C   0  0  0  0  0  0  0  0  0  0  0  0
   70.1850   41.9790   -2.6890 O   0  0  0  0  0  0  0  0  0  0  0  0
   74.2320   41.7740   -2.4580 C   0  0  0  0  0  0  0  0  0  0  0  0
   75.1470   42.5230   -3.2260 C   0  0  0  0  0  0  0  0  0  0  0  0
   76.4430   42.9630   -2.5830 C   0  0  0  0  0  0  0  0  0  0  0  0
   76.4540   44.2820   -2.2440 F   0  0  0  0  0  0  0  0  0  0  0  0
   76.7340   42.2950   -1.4300 F   0  0  0  0  0  0  0  0  0  0  0  0
   76.8521   41.9070   -6.2243 H   0  0  0  0  0  0  0  0  0  0  0  0
   75.4595   42.4096   -7.2415 H   0  0  0  0  0  0  0  0  0  0  0  0
   76.9692   43.3829   -7.2415 H   0  0  0  0  0  0  0  0  0  0  0  0
   76.6048   43.9756   -4.8783 H   0  0  0  0  0  0  0  0  0  0  0  0
   75.1764   44.4342   -5.9011 H   0  0  0  0  0  0  0  0  0  0  0  0
   73.3678   42.5804   -6.1498 H   0  0  0  0  0  0  0  0  0  0  0  0
   71.7754   41.2738   -4.7629 H   0  0  0  0  0  0  0  0  0  0  0  0
   73.5297   37.3861   -0.2772 H   0  0  0  0  0  0  0  0  0  0  0  0
   72.1933   35.8659    1.1850 H   0  0  0  0  0  0  0  0  0  0  0  0
   69.7586   36.2922    1.5384 H   0  0  0  0  0  0  0  0  0  0  0  0
   67.7680   37.8890   -0.0950 H   0  0  0  0  0  0  0  0  0  0  0  0
   69.5610   42.5040   -2.2260 H   0  0  0  0  0  0  0  0  0  0  0  0
   74.4730   41.5498   -1.4084 H   0  0  0  0  0  0  0  0  0  0  0  0
   77.1854   42.7437   -3.3645 H   0  0  0  0  0  0  0  0  0  0  0  0
  1  2  1  0
  2  3  1  0
  3  4  2  0
  4  5  1  0
  5  6  2  0
  6  7  1  0
  7  8  1  0
  8  9  1  0
  9 10  2  0
 10 11  1  0
 11 12  2  0
 12 13  1  0
 13 14  1  0
 13 15  2  0
 15 16  1  0
 16 17  2  0
 16 18  1  0
 18 19  1  0
  6 20  1  0
 20 21  2  0
 21 22  1  0
 22 23  1  0
 22 24  1  0
 21  3  1  0
 18  7  2  0
 15  9  1  0
  1 25  1  0
  1 26  1  0
  1 27  1  0
  2 28  1  0
  2 29  1  0
  4 30  1  0
  5 31  1  0
 10 32  1  0
 11 33  1  0
 12 34  1  0
 14 35  1  0
 19 36  1  0
 20 37  1  0
 22 38  1  0
M  END
>  <meeko>  (5) 
{"is_sidechain": [false], "free_energy": -7.744, "intermolecular_energy": -9.513, "internal_energy": -0.413}

$$$$
cand_030_out
     RDKit          3D

 38 40  0  0  0  0  0  0  0  0999 V2000
   77.5340   43.1610   -4.3210 C   0  0  0  0  0  0  0  0  0  0  0  0
   76.9700   43.4760   -2.9440 C   0  0  0  0  0  0  0  0  0  0  0  0
   75.5330   43.0220   -2.8010 C   0  0  0  0  0  0  0  0  0  0  0  0
   75.2920   41.6740   -2.4840 C   0  0  0  0  0  0  0  0  0  0  0  0
   73.9900   41.1880   -2.3440 C   0  0  0  0  0  0  0  0  0  0  0  0
   72.8910   42.0360   -2.5130 C   0  0  0  0  0  0  0  0  0  0  0  0
   71.5210   41.5010   -2.3780 C   0  0  0  0  0  0  0  0  0  0  0  0
   71.3480   40.7350   -1.2320 O   0  0  0  0  0  0  0  0  0  0  0  0
   70.1190   40.1740   -0.9880 C   0  0  0  0  0  0  0  0  0  0  0  0
   69.9950   39.3990    0.1650 C   0  0  0  0  0  0  0  0  0  0  0  0
   68.7710   38.8020    0.4730 C   0  0  0  0  0  0  0  0  0  0  0  0
   67.6720   38.9810   -0.3710 C   0  0  0  0  0  0  0  0  0  0  0  0
   67.7990   39.7560   -1.5210 C   0  0  0  0  0  0  0  0  0  0  0  0
   66.6840   39.8900   -2.3020 O   0  0  0  0  0  0  0  0  0  0  0  0
   69.0250   40.3520   -1.8290 C   0  0  0  0  0  0  0  0  0  0  0  0
   69.2010   41.1730   -3.0280 C   0  0  0  0  0  0  0  0  0  0  0  0
   68.2820   41.3840   -3.8150 O   0  0  0  0  0  0  0  0  0  0  0  0
   70.5430   41.7540   -3.2680 C   0  0  0  0  0  0  0  0  0  0  0  0
   70.6990   42.5390   -4.3950 O   0  0  0  0  0  0  0  0  0  0  0  0
   73.1290   43.3770   -2.8460 C   0  0  0  0  0  0  0  0  0  0  0  0
   74.4360   43.8850   -2.9970 C   0  0  0  0  0  0  0  0  0  0  0  0
   74.6090   45.3510   -3.3260 C   0  0  0  0  0  0  0  0  0  0  0  0
   74.8870   45.5770   -4.6400 F   0  0  0  0  0  0  0  0  0  0  0  0
   73.5040   46.1050   -3.0590 F   0  0  0  0  0  0  0  0  0  0  0  0
   78.4897   42.6272   -4.2125 H   0  0  0  0  0  0  0  0  0  0  0  0
   76.8221   42.5298   -4.8732 H   0  0  0  0  0  0  0  0  0  0  0  0
   77.6981   44.0981   -4.8732 H   0  0  0  0  0  0  0  0  0  0  0  0
   77.5808   42.9653   -2.1850 H   0  0  0  0  0  0  0  0  0  0  0  0
   76.9961   44.5673   -2.8082 H   0  0  0  0  0  0  0  0  0  0  0  0
   76.1426   40.9907   -2.3439 H   0  0  0  0  0  0  0  0  0  0  0  0
   73.8276   40.1281   -2.0985 H   0  0  0  0  0  0  0  0  0  0  0  0
   70.8597   39.2584    0.8303 H   0  0  0  0  0  0  0  0  0  0  0  0
   68.6718   38.1898    1.3815 H   0  0  0  0  0  0  0  0  0  0  0  0
   66.7080   38.5105   -0.1275 H   0  0  0  0  0  0  0  0  0  0  0  0
   66.7000   39.6040   -3.1940 H   0  0  0  0  0  0  0  0  0  0  0  0
   69.9940   42.6250   -5.0070 H   0  0  0  0  0  0  0  0  0  0  0  0
   72.2727   44.0515   -2.9936 H   0  0  0  0  0  0  0  0  0  0  0  0
   75.4509   45.6439   -2.6814 H   0  0  0  0  0  0  0  0  0  0  0  0
  1  2  1  0
  2  3  1  0
  3  4  2  0
  4  5  1  0
  5  6  2  0
  6  7  1  0
  7  8  1  0
  8  9  1  0
  9 10  2  0
 10 11  1  0
 11 12  2  0
 12 13  1  0
 13 14  1  0
 13 15  2  0
 15 16  1  0
 16 17  2  0
 16 18  1  0
 18 19  1  0
  6 20  1  0
 20 21  2  0
 21 22  1  0
 22 23  1  0
 22 24  1  0
 21  3  1  0
 18  7  2  0
 15  9  1  0
  1 25  1  0
  1 26  1  0
  1 27  1  0
  2 28  1  0
  2 29  1  0
  4 30  1  0
  5 31  1  0
 10 32  1  0
 11 33  1  0
 12 34  1  0
 14 35  1  0
 19 36  1  0
 20 37  1  0
 22 38  1  0
M  END
>  <meeko>  (6) 
{"is_sidechain": [false], "free_energy": -7.705, "intermolecular_energy": -9.454, "internal_energy": -0.424}

$$$$
cand_030_out
     RDKit          3D

 38 40  0  0  0  0  0  0  0  0999 V2000
   78.3010   43.9500   -3.3370 C   0  0  0  0  0  0  0  0  0  0  0  0
   77.3790   43.3740   -4.4010 C   0  0  0  0  0  0  0  0  0  0  0  0
   76.1670   42.6970   -3.7970 C   0  0  0  0  0  0  0  0  0  0  0  0
   76.1660   42.4520   -2.4130 C   0  0  0  0  0  0  0  0  0  0  0  0
   75.0830   41.8260   -1.7930 C   0  0  0  0  0  0  0  0  0  0  0  0
   73.9670   41.4290   -2.5370 C   0  0  0  0  0  0  0  0  0  0  0  0
   72.8380   40.7510   -1.8680 C   0  0  0  0  0  0  0  0  0  0  0  0
   73.1930   39.5260   -1.3140 O   0  0  0  0  0  0  0  0  0  0  0  0
   72.2340   38.7910   -0.6650 C   0  0  0  0  0  0  0  0  0  0  0  0
   72.6290   37.5590   -0.1400 C   0  0  0  0  0  0  0  0  0  0  0  0
   71.7020   36.7620    0.5360 C   0  0  0  0  0  0  0  0  0  0  0  0
   70.3820   37.1950    0.6870 C   0  0  0  0  0  0  0  0  0  0  0  0
   69.9920   38.4250    0.1610 C   0  0  0  0  0  0  0  0  0  0  0  0
   68.6860   38.7880    0.3450 O   0  0  0  0  0  0  0  0  0  0  0  0
   70.9190   39.2210   -0.5160 C   0  0  0  0  0  0  0  0  0  0  0  0
   70.5500   40.5200   -1.0820 C   0  0  0  0  0  0  0  0  0  0  0  0
   69.4120   40.9740   -0.9850 O   0  0  0  0  0  0  0  0  0  0  0  0
   71.6050   41.2840   -1.7870 C   0  0  0  0  0  0  0  0  0  0  0  0
   71.2520   42.5140   -2.3090 O   0  0  0  0  0  0  0  0  0  0  0  0
   73.9740   41.6560   -3.9200 C   0  0  0  0  0  0  0  0  0  0  0  0
   75.0600   42.2820   -4.5660 C   0  0  0  0  0  0  0  0  0  0  0  0
   74.9770   42.5210   -6.0570 C   0  0  0  0  0  0  0  0  0  0  0  0
   75.9690   41.9020   -6.7560 F   0  0  0  0  0  0  0  0  0  0  0  0
   73.8140   42.0780   -6.6160 F   0  0  0  0  0  0  0  0  0  0  0  0
   77.9080   43.7045   -2.3394 H   0  0  0  0  0  0  0  0  0  0  0  0
   79.3067   43.5193   -3.4511 H   0  0  0  0  0  0  0  0  0  0  0  0
   78.3550   45.0427   -3.4511 H   0  0  0  0  0  0  0  0  0  0  0  0
   77.0400   44.1899   -5.0563 H   0  0  0  0  0  0  0  0  0  0  0  0
   77.9437   42.6176   -4.9658 H   0  0  0  0  0  0  0  0  0  0  0  0
   77.0325   42.7584   -1.8086 H   0  0  0  0  0  0  0  0  0  0  0  0
   75.1076   41.6431   -0.7086 H   0  0  0  0  0  0  0  0  0  0  0  0
   73.6677   37.2168   -0.2584 H   0  0  0  0  0  0  0  0  0  0  0  0
   72.0119   35.7913    0.9504 H   0  0  0  0  0  0  0  0  0  0  0  0
   69.6529   36.5667    1.2196 H   0  0  0  0  0  0  0  0  0  0  0  0
   68.0050   38.1510    0.2530 H   0  0  0  0  0  0  0  0  0  0  0  0
   70.4150   42.8860   -2.1070 H   0  0  0  0  0  0  0  0  0  0  0  0
   73.1080   41.3369   -4.5184 H   0  0  0  0  0  0  0  0  0  0  0  0
   75.0580   43.6155   -6.1307 H   0  0  0  0  0  0  0  0  0  0  0  0
  1  2  1  0
  2  3  1  0
  3  4  2  0
  4  5  1  0
  5  6  2  0
  6  7  1  0
  7  8  1  0
  8  9  1  0
  9 10  2  0
 10 11  1  0
 11 12  2  0
 12 13  1  0
 13 14  1  0
 13 15  2  0
 15 16  1  0
 16 17  2  0
 16 18  1  0
 18 19  1  0
  6 20  1  0
 20 21  2  0
 21 22  1  0
 22 23  1  0
 22 24  1  0
 21  3  1  0
 18  7  2  0
 15  9  1  0
  1 25  1  0
  1 26  1  0
  1 27  1  0
  2 28  1  0
  2 29  1  0
  4 30  1  0
  5 31  1  0
 10 32  1  0
 11 33  1  0
 12 34  1  0
 14 35  1  0
 19 36  1  0
 20 37  1  0
 22 38  1  0
M  END
>  <meeko>  (7) 
{"is_sidechain": [false], "free_energy": -7.651, "intermolecular_energy": -9.314, "internal_energy": -0.498}

$$$$
cand_030_out
     RDKit          3D

 38 40  0  0  0  0  0  0  0  0999 V2000
   71.2770   36.4150    1.2750 C   0  0  0  0  0  0  0  0  0  0  0  0
   70.3280   37.4430    0.6790 C   0  0  0  0  0  0  0  0  0  0  0  0
   71.0410   38.4080   -0.2430 C   0  0  0  0  0  0  0  0  0  0  0  0
   72.3920   38.1620   -0.5440 C   0  0  0  0  0  0  0  0  0  0  0  0
   73.1100   39.0160   -1.3830 C   0  0  0  0  0  0  0  0  0  0  0  0
   72.5000   40.1400   -1.9500 C   0  0  0  0  0  0  0  0  0  0  0  0
   73.2800   41.0420   -2.8200 C   0  0  0  0  0  0  0  0  0  0  0  0
   74.3090   41.6900   -2.1460 O   0  0  0  0  0  0  0  0  0  0  0  0
   75.1100   42.5610   -2.8410 C   0  0  0  0  0  0  0  0  0  0  0  0
   76.1190   43.2030   -2.1210 C   0  0  0  0  0  0  0  0  0  0  0  0
   76.9710   44.1000   -2.7680 C   0  0  0  0  0  0  0  0  0  0  0  0
   76.8150   44.3560   -4.1330 C   0  0  0  0  0  0  0  0  0  0  0  0
   75.8070   43.7130   -4.8480 C   0  0  0  0  0  0  0  0  0  0  0  0
   75.7110   44.0090   -6.1800 O   0  0  0  0  0  0  0  0  0  0  0  0
   74.9540   42.8160   -4.1990 C   0  0  0  0  0  0  0  0  0  0  0  0
   73.8820   42.1210   -4.9140 C   0  0  0  0  0  0  0  0  0  0  0  0
   73.6850   42.2860   -6.1150 O   0  0  0  0  0  0  0  0  0  0  0  0
   73.0280   41.1960   -4.1340 C   0  0  0  0  0  0  0  0  0  0  0  0
   72.0250   40.5330   -4.8180 O   0  0  0  0  0  0  0  0  0  0  0  0
   71.1570   40.3970   -1.6370 C   0  0  0  0  0  0  0  0  0  0  0  0
   70.4160   39.5490   -0.7880 C   0  0  0  0  0  0  0  0  0  0  0  0
   68.9630   39.8780   -0.5250 C   0  0  0  0  0  0  0  0  0  0  0  0
   68.5830   41.0800   -1.0390 F   0  0  0  0  0  0  0  0  0  0  0  0
   68.0940   38.9690   -1.0560 F   0  0  0  0  0  0  0  0  0  0  0  0
   71.2301   36.4658    2.3728 H   0  0  0  0  0  0  0  0  0  0  0  0
   70.9837   35.4086    0.9416 H   0  0  0  0  0  0  0  0  0  0  0  0
   72.3036   36.6270    0.9416 H   0  0  0  0  0  0  0  0  0  0  0  0
   69.5485   36.9172    0.1081 H   0  0  0  0  0  0  0  0  0  0  0  0
   69.8936   38.0231    1.5065 H   0  0  0  0  0  0  0  0  0  0  0  0
   72.8913   37.2825   -0.1115 H   0  0  0  0  0  0  0  0  0  0  0  0
   74.1670   38.8028   -1.6006 H   0  0  0  0  0  0  0  0  0  0  0  0
   76.2425   43.0026   -1.0465 H   0  0  0  0  0  0  0  0  0  0  0  0
   77.7668   44.6064   -2.2021 H   0  0  0  0  0  0  0  0  0  0  0  0
   77.4865   45.0635   -4.6416 H   0  0  0  0  0  0  0  0  0  0  0  0
   74.8710   44.1650   -6.5650 H   0  0  0  0  0  0  0  0  0  0  0  0
   72.0540   40.4790   -5.7530 H   0  0  0  0  0  0  0  0  0  0  0  0
   70.6683   41.2844   -2.0656 H   0  0  0  0  0  0  0  0  0  0  0  0
   68.9107   39.8785    0.5738 H   0  0  0  0  0  0  0  0  0  0  0  0
  1  2  1  0
  2  3  1  0
  3  4  2  0
  4  5  1  0
  5  6  2  0
  6  7  1  0
  7  8  1  0
  8  9  1  0
  9 10  2  0
 10 11  1  0
 11 12  2  0
 12 13  1  0
 13 14  1  0
 13 15  2  0
 15 16  1  0
 16 17  2  0
 16 18  1  0
 18 19  1  0
  6 20  1  0
 20 21  2  0
 21 22  1  0
 22 23  1  0
 22 24  1  0
 21  3  1  0
 18  7  2  0
 15  9  1  0
  1 25  1  0
  1 26  1  0
  1 27  1  0
  2 28  1  0
  2 29  1  0
  4 30  1  0
  5 31  1  0
 10 32  1  0
 11 33  1  0
 12 34  1  0
 14 35  1  0
 19 36  1  0
 20 37  1  0
 22 38  1  0
M  END
>  <meeko>  (8) 
{"is_sidechain": [false], "free_energy": -7.65, "intermolecular_energy": -9.259, "internal_energy": -0.552}

$$$$
cand_030_out
     RDKit          3D

 38 40  0  0  0  0  0  0  0  0999 V2000
   67.3590   38.9150   -0.0310 C   0  0  0  0  0  0  0  0  0  0  0  0
   68.7420   38.5780    0.5070 C   0  0  0  0  0  0  0  0  0  0  0  0
   69.8420   39.2120   -0.3150 C   0  0  0  0  0  0  0  0  0  0  0  0
   69.6020   40.4740   -0.8840 C   0  0  0  0  0  0  0  0  0  0  0  0
   70.5730   41.1120   -1.6590 C   0  0  0  0  0  0  0  0  0  0  0  0
   71.8140   40.5090   -1.8850 C   0  0  0  0  0  0  0  0  0  0  0  0
   72.8220   41.1910   -2.7230 C   0  0  0  0  0  0  0  0  0  0  0  0
   73.9800   41.5110   -2.0240 O   0  0  0  0  0  0  0  0  0  0  0  0
   74.9980   42.1510   -2.6860 C   0  0  0  0  0  0  0  0  0  0  0  0
   76.1350   42.4690   -1.9430 C   0  0  0  0  0  0  0  0  0  0  0  0
   77.2080   43.1180   -2.5570 C   0  0  0  0  0  0  0  0  0  0  0  0
   77.1440   43.4500   -3.9120 C   0  0  0  0  0  0  0  0  0  0  0  0
   76.0070   43.1310   -4.6520 C   0  0  0  0  0  0  0  0  0  0  0  0
   76.0120   43.4840   -5.9730 O   0  0  0  0  0  0  0  0  0  0  0  0
   74.9340   42.4820   -4.0360 C   0  0  0  0  0  0  0  0  0  0  0  0
   73.7210   42.1300   -4.7770 C   0  0  0  0  0  0  0  0  0  0  0  0
   73.5910   42.3800   -5.9730 O   0  0  0  0  0  0  0  0  0  0  0  0
   72.6370   41.4490   -4.0310 C   0  0  0  0  0  0  0  0  0  0  0  0
   71.5000   41.1090   -4.7400 O   0  0  0  0  0  0  0  0  0  0  0  0
   72.0500   39.2430   -1.3340 C   0  0  0  0  0  0  0  0  0  0  0  0
   71.0810   38.5800   -0.5530 C   0  0  0  0  0  0  0  0  0  0  0  0
   71.4230   37.2280    0.0350 C   0  0  0  0  0  0  0  0  0  0  0  0
   72.5990   36.7230   -0.4320 F   0  0  0  0  0  0  0  0  0  0  0  0
   71.5530   37.2410    1.3930 F   0  0  0  0  0  0  0  0  0  0  0  0
   66.6695   39.0830    0.8095 H   0  0  0  0  0  0  0  0  0  0  0  0
   67.4165   39.8254   -0.6457 H   0  0  0  0  0  0  0  0  0  0  0  0
   66.9912   38.0802   -0.6457 H   0  0  0  0  0  0  0  0  0  0  0  0
   68.8182   38.9418    1.5423 H   0  0  0  0  0  0  0  0  0  0  0  0
   68.8682   37.4864    0.4574 H   0  0  0  0  0  0  0  0  0  0  0  0
   68.6334   40.9677   -0.7163 H   0  0  0  0  0  0  0  0  0  0  0  0
   70.3593   42.0986   -2.0959 H   0  0  0  0  0  0  0  0  0  0  0  0
   76.1862   42.2090   -0.8754 H   0  0  0  0  0  0  0  0  0  0  0  0
   78.1055   43.3683   -1.9723 H   0  0  0  0  0  0  0  0  0  0  0  0
   77.9895   43.9624   -4.3943 H   0  0  0  0  0  0  0  0  0  0  0  0
   76.6710   43.1460   -6.5460 H   0  0  0  0  0  0  0  0  0  0  0  0
   70.6550   41.2240   -4.3510 H   0  0  0  0  0  0  0  0  0  0  0  0
   73.0177   38.7525   -1.5155 H   0  0  0  0  0  0  0  0  0  0  0  0
   70.5687   36.6073   -0.2730 H   0  0  0  0  0  0  0  0  0  0  0  0
  1  2  1  0
  2  3  1  0
  3  4  2  0
  4  5  1  0
  5  6  2  0
  6  7  1  0
  7  8  1  0
  8  9  1  0
  9 10  2  0
 10 11  1  0
 11 12  2  0
 12 13  1  0
 13 14  1  0
 13 15  2  0
 15 16  1  0
 16 17  2  0
 16 18  1  0
 18 19  1  0
  6 20  1  0
 20 21  2  0
 21 22  1  0
 22 23  1  0
 22 24  1  0
 21  3  1  0
 18  7  2  0
 15  9  1  0
  1 25  1  0
  1 26  1  0
  1 27  1  0
  2 28  1  0
  2 29  1  0
  4 30  1  0
  5 31  1  0
 10 32  1  0
 11 33  1  0
 12 34  1  0
 14 35  1  0
 19 36  1  0
 20 37  1  0
 22 38  1  0
M  END
>  <meeko>  (9) 
{"is_sidechain": [false], "free_energy": -7.597, "intermolecular_energy": -9.23, "internal_energy": -0.516}

$$$$
