cand_052_out
     RDKit          3D

 44 46  0  0  0  0  0  0  0  0999 V2000
   71.6020   36.3880    0.8820 C   0  0  0  0  0  0  0  0  0  0  0  0
   70.3230   37.1370    1.2210 C   0  0  0  0  0  0  0  0  0  0  0  0
   70.5230   38.6510    1.1450 C   0  0  0  0  0  0  0  0  0  0  0  0
   69.8800   39.2330   -0.1180 C   0  0  0  0  0  0  0  0  0  0  0  0
   70.9090   39.8580   -1.0340 C   0  0  0  0  0  0  0  0  0  0  0  0
   71.8430   39.0190   -1.6620 C   0  0  0  0  0  0  0  0  0  0  0  0
   72.8220   39.5380   -2.5110 C   0  0  0  0  0  0  0  0  0  0  0  0
   72.8940   40.9110   -2.7620 C   0  0  0  0  0  0  0  0  0  0  0  0
   73.9340   41.4900   -3.6380 C   0  0  0  0  0  0  0  0  0  0  0  0
   73.4440   41.8580   -4.8860 O   0  0  0  0  0  0  0  0  0  0  0  0
   74.3040   42.4120   -5.8000 C   0  0  0  0  0  0  0  0  0  0  0  0
   73.7670   42.7780   -7.0340 C   0  0  0  0  0  0  0  0  0  0  0  0
   74.5890   43.3460   -8.0110 C   0  0  0  0  0  0  0  0  0  0  0  0
   75.9470   43.5440   -7.7540 C   0  0  0  0  0  0  0  0  0  0  0  0
   76.4810   43.1760   -6.5210 C   0  0  0  0  0  0  0  0  0  0  0  0
   77.8180   43.3980   -6.3360 O   0  0  0  0  0  0  0  0  0  0  0  0
   75.6570   42.6100   -5.5440 C   0  0  0  0  0  0  0  0  0  0  0  0
   76.1780   42.2100   -4.2360 C   0  0  0  0  0  0  0  0  0  0  0  0
   77.3630   42.3460   -3.9360 O   0  0  0  0  0  0  0  0  0  0  0  0
   75.2200   41.6260   -3.2670 C   0  0  0  0  0  0  0  0  0  0  0  0
   75.7260   41.2380   -2.0390 O   0  0  0  0  0  0  0  0  0  0  0  0
   71.9700   41.7520   -2.1230 C   0  0  0  0  0  0  0  0  0  0  0  0
   70.9810   41.2470   -1.2580 C   0  0  0  0  0  0  0  0  0  0  0  0
   70.0130   42.2070   -0.6220 C   0  0  0  0  0  0  0  0  0  0  0  0
   72.1100   36.0905    1.8112 H   0  0  0  0  0  0  0  0  0  0  0  0
   71.3568   35.4908    0.2948 H   0  0  0  0  0  0  0  0  0  0  0  0
   72.2645   37.0408    0.2948 H   0  0  0  0  0  0  0  0  0  0  0  0
   69.5377   36.8440    0.5086 H   0  0  0  0  0  0  0  0  0  0  0  0
   70.0343   36.8784    2.2504 H   0  0  0  0  0  0  0  0  0  0  0  0
   70.0642   39.1182    2.0289 H   0  0  0  0  0  0  0  0  0  0  0  0
   71.6028   38.8581    1.1128 H   0  0  0  0  0  0  0  0  0  0  0  0
   69.3643   38.4262   -0.6594 H   0  0  0  0  0  0  0  0  0  0  0  0
   69.1727   40.0178    0.1884 H   0  0  0  0  0  0  0  0  0  0  0  0
   71.8027   37.9346   -1.4821 H   0  0  0  0  0  0  0  0  0  0  0  0
   73.5445   38.8591   -2.9876 H   0  0  0  0  0  0  0  0  0  0  0  0
   72.6977   42.6198   -7.2380 H   0  0  0  0  0  0  0  0  0  0  0  0
   74.1657   43.6374   -8.9836 H   0  0  0  0  0  0  0  0  0  0  0  0
   76.5941   43.9898   -8.5237 H   0  0  0  0  0  0  0  0  0  0  0  0
   78.1380   44.2710   -6.2290 H   0  0  0  0  0  0  0  0  0  0  0  0
   75.3180   40.5410   -1.5640 H   0  0  0  0  0  0  0  0  0  0  0  0
   72.0200   42.8360   -2.3031 H   0  0  0  0  0  0  0  0  0  0  0  0
   70.0884   42.1322    0.4729 H   0  0  0  0  0  0  0  0  0  0  0  0
   70.2538   43.2331   -0.9369 H   0  0  0  0  0  0  0  0  0  0  0  0
   68.9890   41.9576   -0.9369 H   0  0  0  0  0  0  0  0  0  0  0  0
  1  2  1  0
  2  3  1  0
  3  4  1  0
  4  5  1  0
  5  6  2  0
  6  7  1  0
  7  8  2  0
  8  9  1  0
  9 10  1  0
 10 11  1  0
 11 12  2  0
 12 13  1  0
 13 14  2  0
 14 15  1  0
 15 16  1  0
 15 17  2  0
 17 18  1  0
 18 19  2  0
 18 20  1  0
 20 21  1  0
  8 22  1  0
 22 23  2  0
 23 24  1  0
 23  5  1  0
 20  9  2  0
 17 11  1  0
  1 25  1  0
  1 26  1  0
  1 27  1  0
  2 28  1  0
  2 29  1  0
  3 30  1  0
  3 31  1  0
  4 32  1  0
  4 33  1  0
  6 34  1  0
  7 35  1  0
 12 36  1  0
 13 37  1  0
 14 38  1  0
 16 39  1  0
 21 40  1  0
 22 41  1  0
 24 42  1  0
 24 43  1  0
 24 44  1  0
M  END
>  <meeko>  (1) 
{"is_sidechain": [false], "free_energy": -7.546, "intermolecular_energy": -9.751, "internal_energy": -0.729}

$$$$
cand_052_out
     RDKit          3D

 44 46  0  0  0  0  0  0  0  0999 V2000
   67.6330   39.7340   -1.2340 C   0  0  0  0  0  0  0  0  0  0  0  0
   67.9590   38.9980    0.0560 C   0  0  0  0  0  0  0  0  0  0  0  0
   69.3890   38.4540    0.0440 C   0  0  0  0  0  0  0  0  0  0  0  0
   70.3700   39.4640    0.6460 C   0  0  0  0  0  0  0  0  0  0  0  0
   71.3620   39.9630   -0.3830 C   0  0  0  0  0  0  0  0  0  0  0  0
   71.0850   41.1690   -1.0470 C   0  0  0  0  0  0  0  0  0  0  0  0
   71.9570   41.6760   -2.0130 C   0  0  0  0  0  0  0  0  0  0  0  0
   73.1340   40.9950   -2.3400 C   0  0  0  0  0  0  0  0  0  0  0  0
   74.0630   41.4970   -3.3740 C   0  0  0  0  0  0  0  0  0  0  0  0
   73.4200   41.8270   -4.5620 O   0  0  0  0  0  0  0  0  0  0  0  0
   74.1640   42.3080   -5.6090 C   0  0  0  0  0  0  0  0  0  0  0  0
   73.4760   42.6390   -6.7760 C   0  0  0  0  0  0  0  0  0  0  0  0
   74.1750   43.1320   -7.8810 C   0  0  0  0  0  0  0  0  0  0  0  0
   75.5610   43.2930   -7.8170 C   0  0  0  0  0  0  0  0  0  0  0  0
   76.2450   42.9610   -6.6500 C   0  0  0  0  0  0  0  0  0  0  0  0
   77.6010   43.1420   -6.6570 O   0  0  0  0  0  0  0  0  0  0  0  0
   75.5450   42.4680   -5.5460 C   0  0  0  0  0  0  0  0  0  0  0  0
   76.2250   42.1070   -4.3010 C   0  0  0  0  0  0  0  0  0  0  0  0
   77.4430   42.2140   -4.1700 O   0  0  0  0  0  0  0  0  0  0  0  0
   75.3910   41.6020   -3.1860 C   0  0  0  0  0  0  0  0  0  0  0  0
   76.0460   41.2510   -2.0200 O   0  0  0  0  0  0  0  0  0  0  0  0
   73.4030   39.7830   -1.6860 C   0  0  0  0  0  0  0  0  0  0  0  0
   72.5310   39.2530   -0.7160 C   0  0  0  0  0  0  0  0  0  0  0  0
   72.8940   37.9570   -0.0440 C   0  0  0  0  0  0  0  0  0  0  0  0
   67.1981   40.7159   -0.9960 H   0  0  0  0  0  0  0  0  0  0  0  0
   68.5537   39.8730   -1.8196 H   0  0  0  0  0  0  0  0  0  0  0  0
   66.9114   39.1455   -1.8196 H   0  0  0  0  0  0  0  0  0  0  0  0
   67.8476   39.6924    0.9018 H   0  0  0  0  0  0  0  0  0  0  0  0
   67.2669   38.1486    0.1536 H   0  0  0  0  0  0  0  0  0  0  0  0
   69.4245   37.5249    0.6318 H   0  0  0  0  0  0  0  0  0  0  0  0
   69.6809   38.2638   -0.9994 H   0  0  0  0  0  0  0  0  0  0  0  0
   69.8031   40.3207    1.0393 H   0  0  0  0  0  0  0  0  0  0  0  0
   70.9311   38.9611    1.4474 H   0  0  0  0  0  0  0  0  0  0  0  0
   70.1668   41.7231   -0.8024 H   0  0  0  0  0  0  0  0  0  0  0  0
   71.7155   42.6208   -2.5220 H   0  0  0  0  0  0  0  0  0  0  0  0
   72.3845   42.5122   -6.8266 H   0  0  0  0  0  0  0  0  0  0  0  0
   73.6333   43.3935   -8.8020 H   0  0  0  0  0  0  0  0  0  0  0  0
   76.1113   43.6813   -8.6867 H   0  0  0  0  0  0  0  0  0  0  0  0
   78.1620   42.4660   -6.9810 H   0  0  0  0  0  0  0  0  0  0  0  0
   75.6600   41.4490   -1.1890 H   0  0  0  0  0  0  0  0  0  0  0  0
   74.3208   39.2316   -1.9382 H   0  0  0  0  0  0  0  0  0  0  0  0
   72.8575   38.0872    1.0477 H   0  0  0  0  0  0  0  0  0  0  0  0
   72.1801   37.1758   -0.3441 H   0  0  0  0  0  0  0  0  0  0  0  0
   73.9098   37.6603   -0.3441 H   0  0  0  0  0  0  0  0  0  0  0  0
  1  2  1  0
  2  3  1  0
  3  4  1  0
  4  5  1  0
  5  6  2  0
  6  7  1  0
  7  8  2  0
  8  9  1  0
  9 10  1  0
 10 11  1  0
 11 12  2  0
 12 13  1  0
 13 14  2  0
 14 15  1  0
 15 16  1  0
 15 17  2  0
 17 18  1  0
 18 19  2  0
 18 20  1  0
 20 21  1  0
  8 22  1  0
 22 23  2  0
 23 24  1  0
 23  5  1  0
 20  9  2  0
 17 11  1  0
  1 25  1  0
  1 26  1  0
  1 27  1  0
  2 28  1  0
  2 29  1  0
  3 30  1  0
  3 31  1  0
  4 32  1  0
  4 33  1  0
  6 34  1  0
  7 35  1  0
 12 36  1  0
 13 37  1  0
 14 38  1  0
 16 39  1  0
 21 40  1  0
 22 41  1  0
 24 42  1  0
 24 43  1  0
 24 44  1  0
M  END
>  <meeko>  (2) 
{"is_sidechain": [false], "free_energy": -7.411, "intermolecular_energy": -9.848, "internal_energy": -0.458}

$$$$
cand_052_out
     RDKit          3D

 44 46  0  0  0  0  0  0  0  0999 V2000
   77.5360   43.1170   -5.9450 C   0  0  0  0  0  0  0  0  0  0  0  0
   76.4760   42.2930   -6.6570 C   0  0  0  0  0  0  0  0  0  0  0  0
   75.3020   43.1610   -7.1120 C   0  0  0  0  0  0  0  0  0  0  0  0
   74.7240   43.9670   -5.9450 C   0  0  0  0  0  0  0  0  0  0  0  0
   73.9790   43.0830   -4.9680 C   0  0  0  0  0  0  0  0  0  0  0  0
   72.9740   42.2380   -5.4650 C   0  0  0  0  0  0  0  0  0  0  0  0
   72.2460   41.4060   -4.6120 C   0  0  0  0  0  0  0  0  0  0  0  0
   72.5030   41.3910   -3.2390 C   0  0  0  0  0  0  0  0  0  0  0  0
   71.7310   40.5380   -2.3100 C   0  0  0  0  0  0  0  0  0  0  0  0
   72.4750   39.4730   -1.8130 O   0  0  0  0  0  0  0  0  0  0  0  0
   71.8810   38.6000   -0.9370 C   0  0  0  0  0  0  0  0  0  0  0  0
   72.6670   37.5560   -0.4530 C   0  0  0  0  0  0  0  0  0  0  0  0
   72.1220   36.6290    0.4410 C   0  0  0  0  0  0  0  0  0  0  0  0
   70.7920   36.7490    0.8480 C   0  0  0  0  0  0  0  0  0  0  0  0
   70.0090   37.7930    0.3620 C   0  0  0  0  0  0  0  0  0  0  0  0
   68.7150   37.8510    0.8010 O   0  0  0  0  0  0  0  0  0  0  0  0
   70.5550   38.7190   -0.5320 C   0  0  0  0  0  0  0  0  0  0  0  0
   69.7670   39.8310   -1.0650 C   0  0  0  0  0  0  0  0  0  0  0  0
   68.5880   40.0000   -0.7600 O   0  0  0  0  0  0  0  0  0  0  0  0
   70.4420   40.7620   -2.0000 C   0  0  0  0  0  0  0  0  0  0  0  0
   69.6840   41.8010   -2.5090 O   0  0  0  0  0  0  0  0  0  0  0  0
   73.4970   42.2470   -2.7400 C   0  0  0  0  0  0  0  0  0  0  0  0
   74.2360   43.0970   -3.5830 C   0  0  0  0  0  0  0  0  0  0  0  0
   75.2990   43.9750   -2.9800 C   0  0  0  0  0  0  0  0  0  0  0  0
   77.4081   43.0176   -4.8570 H   0  0  0  0  0  0  0  0  0  0  0  0
   78.5348   42.7558   -6.2313 H   0  0  0  0  0  0  0  0  0  0  0  0
   77.4323   44.1740   -6.2313 H   0  0  0  0  0  0  0  0  0  0  0  0
   76.9281   41.8134   -7.5377 H   0  0  0  0  0  0  0  0  0  0  0  0
   76.0946   41.5391   -5.9526 H   0  0  0  0  0  0  0  0  0  0  0  0
   75.6501   43.8559   -7.8904 H   0  0  0  0  0  0  0  0  0  0  0  0
   74.5134   42.5022   -7.5046 H   0  0  0  0  0  0  0  0  0  0  0  0
   75.5477   44.4682   -5.4155 H   0  0  0  0  0  0  0  0  0  0  0  0
   74.0136   44.7006   -6.3538 H   0  0  0  0  0  0  0  0  0  0  0  0
   72.7567   42.2312   -6.5433 H   0  0  0  0  0  0  0  0  0  0  0  0
   71.4615   40.7553   -5.0257 H   0  0  0  0  0  0  0  0  0  0  0  0
   73.7149   37.4612   -0.7738 H   0  0  0  0  0  0  0  0  0  0  0  0
   72.7417   35.8047    0.8238 H   0  0  0  0  0  0  0  0  0  0  0  0
   70.3632   36.0201    1.5514 H   0  0  0  0  0  0  0  0  0  0  0  0
   68.4610   37.3870    1.5740 H   0  0  0  0  0  0  0  0  0  0  0  0
   69.6460   42.6190   -2.0540 H   0  0  0  0  0  0  0  0  0  0  0  0
   73.7040   42.2535   -1.6597 H   0  0  0  0  0  0  0  0  0  0  0  0
   75.2376   43.9243   -1.8829 H   0  0  0  0  0  0  0  0  0  0  0  0
   76.2902   43.6288   -3.3082 H   0  0  0  0  0  0  0  0  0  0  0  0
   75.1463   45.0137   -3.3082 H   0  0  0  0  0  0  0  0  0  0  0  0
  1  2  1  0
  2  3  1  0
  3  4  1  0
  4  5  1  0
  5  6  2  0
  6  7  1  0
  7  8  2  0
  8  9  1  0
  9 10  1  0
 10 11  1  0
 11 12  2  0
 12 13  1  0
 13 14  2  0
 14 15  1  0
 15 16  1  0
 15 17  2  0
 17 18  1  0
 18 19  2  0
 18 20  1  0
 20 21  1  0
  8 22  1  0
 22 23  2  0
 23 24  1  0
 23  5  1  0
 20  9  2  0
 17 11  1  0
  1 25  1  0
  1 26  1  0
  1 27  1  0
  2 28  1  0
  2 29  1  0
  3 30  1  0
  3 31  1  0
  4 32  1  0
  4 33  1  0
  6 34  1  0
  7 35  1  0
 12 36  1  0
 13 37  1  0
 14 38  1  0
 16 39  1  0
 21 40  1  0
 22 41  1  0
 24 42  1  0
 24 43  1  0
 24 44  1  0
M  END
>  <meeko>  (3) 
{"is_sidechain": [false], "free_energy": -7.353, "intermolecular_energy": -9.343, "internal_energy": -0.888}

$$$$
cand_052_out
     RDKit          3D

 44 46  0  0  0  0  0  0  0  0999 V2000
   72.1700   36.5980    0.1430 C   0  0  0  0  0  0  0  0  0  0  0  0
   70.8130   36.7300    0.8150 C   0  0  0  0  0  0  0  0  0  0  0  0
   70.6710   38.0730    1.5320 C   0  0  0  0  0  0  0  0  0  0  0  0
   69.6120   38.9510    0.8600 C   0  0  0  0  0  0  0  0  0  0  0  0
   70.1960   39.7580   -0.2800 C   0  0  0  0  0  0  0  0  0  0  0  0
   71.5700   40.0430   -0.2620 C   0  0  0  0  0  0  0  0  0  0  0  0
   72.1650   40.7900   -1.2820 C   0  0  0  0  0  0  0  0  0  0  0  0
   71.4030   41.2700   -2.3510 C   0  0  0  0  0  0  0  0  0  0  0  0
   72.0020   42.0830   -3.4310 C   0  0  0  0  0  0  0  0  0  0  0  0
   72.1510   43.4200   -3.0800 O   0  0  0  0  0  0  0  0  0  0  0  0
   72.6960   44.2890   -3.9900 C   0  0  0  0  0  0  0  0  0  0  0  0
   72.8390   45.6170   -3.5900 C   0  0  0  0  0  0  0  0  0  0  0  0
   73.3870   46.5550   -4.4710 C   0  0  0  0  0  0  0  0  0  0  0  0
   73.7880   46.1630   -5.7500 C   0  0  0  0  0  0  0  0  0  0  0  0
   73.6430   44.8350   -6.1450 C   0  0  0  0  0  0  0  0  0  0  0  0
   74.0560   44.5200   -7.4110 O   0  0  0  0  0  0  0  0  0  0  0  0
   73.0960   43.8990   -5.2640 C   0  0  0  0  0  0  0  0  0  0  0  0
   72.9270   42.4940   -5.6400 C   0  0  0  0  0  0  0  0  0  0  0  0
   73.2500   42.0740   -6.7500 O   0  0  0  0  0  0  0  0  0  0  0  0
   72.3450   41.5800   -4.6300 C   0  0  0  0  0  0  0  0  0  0  0  0
   72.1770   40.2580   -5.0010 O   0  0  0  0  0  0  0  0  0  0  0  0
   70.0260   40.9980   -2.3610 C   0  0  0  0  0  0  0  0  0  0  0  0
   69.4100   40.2530   -1.3390 C   0  0  0  0  0  0  0  0  0  0  0  0
   67.9310   39.9850   -1.4260 C   0  0  0  0  0  0  0  0  0  0  0  0
   72.9537   36.5218    0.9111 H   0  0  0  0  0  0  0  0  0  0  0  0
   72.1822   35.6944   -0.4842 H   0  0  0  0  0  0  0  0  0  0  0  0
   72.3561   37.4823   -0.4842 H   0  0  0  0  0  0  0  0  0  0  0  0
   70.0262   36.6479    0.0507 H   0  0  0  0  0  0  0  0  0  0  0  0
   70.7184   35.9282    1.5621 H   0  0  0  0  0  0  0  0  0  0  0  0
   70.3771   37.8926    2.5766 H   0  0  0  0  0  0  0  0  0  0  0  0
   71.6375   38.5962    1.4854 H   0  0  0  0  0  0  0  0  0  0  0  0
   68.8114   38.3068    0.4674 H   0  0  0  0  0  0  0  0  0  0  0  0
   69.2203   39.6523    1.6115 H   0  0  0  0  0  0  0  0  0  0  0  0
   72.1886   39.6723    0.5686 H   0  0  0  0  0  0  0  0  0  0  0  0
   73.2436   41.0024   -1.2433 H   0  0  0  0  0  0  0  0  0  0  0  0
   72.5214   45.9265   -2.5833 H   0  0  0  0  0  0  0  0  0  0  0  0
   73.5023   47.6026   -4.1561 H   0  0  0  0  0  0  0  0  0  0  0  0
   74.2172   46.9009   -6.4437 H   0  0  0  0  0  0  0  0  0  0  0  0
   74.6000   45.1140   -7.8880 H   0  0  0  0  0  0  0  0  0  0  0  0
   72.8770   39.7970   -5.4190 H   0  0  0  0  0  0  0  0  0  0  0  0
   69.4117   41.3778   -3.1907 H   0  0  0  0  0  0  0  0  0  0  0  0
   67.5118   39.9090   -0.4118 H   0  0  0  0  0  0  0  0  0  0  0  0
   67.4402   40.8088   -1.9649 H   0  0  0  0  0  0  0  0  0  0  0  0
   67.7604   39.0413   -1.9649 H   0  0  0  0  0  0  0  0  0  0  0  0
  1  2  1  0
  2  3  1  0
  3  4  1  0
  4  5  1  0
  5  6  2  0
  6  7  1  0
  7  8  2  0
  8  9  1  0
  9 10  1  0
 10 11  1  0
 11 12  2  0
 12 13  1  0
 13 14  2  0
 14 15  1  0
 15 16  1  0
 15 17  2  0
 17 18  1  0
 18 19  2  0
 18 20  1  0
 20 21  1  0
  8 22  1  0
 22 23  2  0
 23 24  1  0
 23  5  1  0
 20  9  2  0
 17 11  1  0
  1 25  1  0
  1 26  1  0
  1 27  1  0
  2 28  1  0
  2 29  1  0
  3 30  1  0
  3 31  1  0
  4 32  1  0
  4 33  1  0
  6 34  1  0
  7 35  1  0
 12 36  1  0
 13 37  1  0
 14 38  1  0
 16 39  1  0
 21 40  1  0
 22 41  1  0
 24 42  1  0
 24 43  1  0
 24 44  1  0
M  END
>  <meeko>  (4) 
{"is_sidechain": [false], "free_energy": -7.346, "intermolecular_energy": -9.497, "internal_energy": -0.726}

$$$$
cand_052_out
     RDKit          3D

 44 46  0  0  0  0  0  0  0  0999 V2000
   78.0490   42.7470   -5.6960 C   0  0  0  0  0  0  0  0  0  0  0  0
   76.8710   42.0660   -6.3740 C   0  0  0  0  0  0  0  0  0  0  0  0
   75.8070   43.0780   -6.8010 C   0  0  0  0  0  0  0  0  0  0  0  0
   75.2620   43.8510   -5.5970 C   0  0  0  0  0  0  0  0  0  0  0  0
   74.4680   42.9560   -4.6700 C   0  0  0  0  0  0  0  0  0  0  0  0
   73.3760   42.2490   -5.1970 C   0  0  0  0  0  0  0  0  0  0  0  0
   72.6000   41.4140   -4.3890 C   0  0  0  0  0  0  0  0  0  0  0  0
   72.8960   41.2590   -3.0320 C   0  0  0  0  0  0  0  0  0  0  0  0
   72.0780   40.4020   -2.1490 C   0  0  0  0  0  0  0  0  0  0  0  0
   70.7340   40.7580   -2.1460 O   0  0  0  0  0  0  0  0  0  0  0  0
   69.8590   40.0430   -1.3690 C   0  0  0  0  0  0  0  0  0  0  0  0
   68.5190   40.4260   -1.4060 C   0  0  0  0  0  0  0  0  0  0  0  0
   67.5750   39.7400   -0.6370 C   0  0  0  0  0  0  0  0  0  0  0  0
   67.9740   38.6730    0.1700 C   0  0  0  0  0  0  0  0  0  0  0  0
   69.3130   38.2930    0.2060 C   0  0  0  0  0  0  0  0  0  0  0  0
   69.6350   37.2390    1.0190 O   0  0  0  0  0  0  0  0  0  0  0  0
   70.2560   38.9790   -0.5640 C   0  0  0  0  0  0  0  0  0  0  0  0
   71.6720   38.6110   -0.5560 C   0  0  0  0  0  0  0  0  0  0  0  0
   72.1020   37.6880    0.1340 O   0  0  0  0  0  0  0  0  0  0  0  0
   72.5890   39.3970   -1.4150 C   0  0  0  0  0  0  0  0  0  0  0  0
   73.9280   39.0500   -1.3880 O   0  0  0  0  0  0  0  0  0  0  0  0
   73.9790   41.9780   -2.5020 C   0  0  0  0  0  0  0  0  0  0  0  0
   74.7670   42.8280   -3.2990 C   0  0  0  0  0  0  0  0  0  0  0  0
   75.9230   43.5540   -2.6650 C   0  0  0  0  0  0  0  0  0  0  0  0
   77.9327   42.6798   -4.6042 H   0  0  0  0  0  0  0  0  0  0  0  0
   78.9828   42.2494   -5.9966 H   0  0  0  0  0  0  0  0  0  0  0  0
   78.0838   43.8046   -5.9966 H   0  0  0  0  0  0  0  0  0  0  0  0
   77.2321   41.5302   -7.2643 H   0  0  0  0  0  0  0  0  0  0  0  0
   76.4152   41.3693   -5.6551 H   0  0  0  0  0  0  0  0  0  0  0  0
   76.2532   43.7892   -7.5117 H   0  0  0  0  0  0  0  0  0  0  0  0
   74.9750   42.5315   -7.2692 H   0  0  0  0  0  0  0  0  0  0  0  0
   76.1058   44.2831   -5.0391 H   0  0  0  0  0  0  0  0  0  0  0  0
   74.5915   44.6390   -5.9704 H   0  0  0  0  0  0  0  0  0  0  0  0
   73.1271   42.3540   -6.2633 H   0  0  0  0  0  0  0  0  0  0  0  0
   71.7474   40.8731   -4.8254 H   0  0  0  0  0  0  0  0  0  0  0  0
   68.2048   41.2680   -2.0403 H   0  0  0  0  0  0  0  0  0  0  0  0
   66.5174   40.0408   -0.6676 H   0  0  0  0  0  0  0  0  0  0  0  0
   67.2317   38.1333    0.7765 H   0  0  0  0  0  0  0  0  0  0  0  0
   70.4940   36.8700    0.9890 H   0  0  0  0  0  0  0  0  0  0  0  0
   74.5830   39.7050   -1.5270 H   0  0  0  0  0  0  0  0  0  0  0  0
   74.2181   41.8738   -1.4334 H   0  0  0  0  0  0  0  0  0  0  0  0
   75.8347   43.4985   -1.5700 H   0  0  0  0  0  0  0  0  0  0  0  0
   76.8673   43.0864   -2.9808 H   0  0  0  0  0  0  0  0  0  0  0  0
   75.9119   44.6076   -2.9808 H   0  0  0  0  0  0  0  0  0  0  0  0
  1  2  1  0
  2  3  1  0
  3  4  1  0
  4  5  1  0
  5  6  2  0
  6  7  1  0
  7  8  2  0
  8  9  1  0
  9 10  1  0
 10 11  1  0
 11 12  2  0
 12 13  1  0
 13 14  2  0
 14 15  1  0
 15 16  1  0
 15 17  2  0
 17 18  1  0
 18 19  2  0
 18 20  1  0
 20 21  1  0
  8 22  1  0
 22 23  2  0
 23 24  1  0
 23  5  1  0
 20  9  2  0
 17 11  1  0
  1 25  1  0
  1 26  1  0
  1 27  1  0
  2 28  1  0
  2 29  1  0
  3 30  1  0
  3 31  1  0
  4 32  1  0
  4 33  1  0
  6 34  1  0
  7 35  1  0
 12 36  1  0
 13 37  1  0
 14 38  1  0
 16 39  1  0
 21 40  1  0
 22 41  1  0
 24 42  1  0
 24 43  1  0
 24 44  1  0
M  END
>  <meeko>  (5) 
{"is_sidechain": [false], "free_energy": -7.326, "intermolecular_energy": -9.419, "internal_energy": -0.778}

$$$$
cand_052_out
     RDKit          3D

 44 46  0  0  0  0  0  0  0  0999 V2000
   72.0840   36.5040    0.4140 C   0  0  0  0  0  0  0  0  0  0  0  0
   70.6700   36.8450    0.8560 C   0  0  0  0  0  0  0  0  0  0  0  0
   70.4250   38.3540    0.8360 C   0  0  0  0  0  0  0  0  0  0  0  0
   71.6810   39.1140    0.4000 C   0  0  0  0  0  0  0  0  0  0  0  0
   71.3870   40.0860   -0.7220 C   0  0  0  0  0  0  0  0  0  0  0  0
   70.6720   41.2560   -0.4220 C   0  0  0  0  0  0  0  0  0  0  0  0
   70.3630   42.1860   -1.4170 C   0  0  0  0  0  0  0  0  0  0  0  0
   70.7640   41.9760   -2.7390 C   0  0  0  0  0  0  0  0  0  0  0  0
   70.4300   42.9330   -3.8160 C   0  0  0  0  0  0  0  0  0  0  0  0
   69.1240   42.7950   -4.2740 O   0  0  0  0  0  0  0  0  0  0  0  0
   68.6810   43.6230   -5.2740 C   0  0  0  0  0  0  0  0  0  0  0  0
   67.3600   43.4580   -5.6920 C   0  0  0  0  0  0  0  0  0  0  0  0
   66.8460   44.2680   -6.7090 C   0  0  0  0  0  0  0  0  0  0  0  0
   67.6520   45.2390   -7.3050 C   0  0  0  0  0  0  0  0  0  0  0  0
   68.9700   45.4000   -6.8850 C   0  0  0  0  0  0  0  0  0  0  0  0
   69.7040   46.3690   -7.5130 O   0  0  0  0  0  0  0  0  0  0  0  0
   69.4840   44.5900   -5.8680 C   0  0  0  0  0  0  0  0  0  0  0  0
   70.8630   44.7270   -5.3980 C   0  0  0  0  0  0  0  0  0  0  0  0
   71.6360   45.5540   -5.8780 O   0  0  0  0  0  0  0  0  0  0  0  0
   71.3070   43.8260   -4.3090 C   0  0  0  0  0  0  0  0  0  0  0  0
   72.6160   43.9540   -3.8810 O   0  0  0  0  0  0  0  0  0  0  0  0
   71.4660   40.8000   -3.0420 C   0  0  0  0  0  0  0  0  0  0  0  0
   71.7800   39.8480   -2.0540 C   0  0  0  0  0  0  0  0  0  0  0  0
   72.5510   38.6180   -2.4490 C   0  0  0  0  0  0  0  0  0  0  0  0
   72.7182   36.3511    1.2997 H   0  0  0  0  0  0  0  0  0  0  0  0
   72.0679   35.5840   -0.1888 H   0  0  0  0  0  0  0  0  0  0  0  0
   72.4890   37.3302   -0.1888 H   0  0  0  0  0  0  0  0  0  0  0  0
   69.9557   36.3579    0.1759 H   0  0  0  0  0  0  0  0  0  0  0  0
   70.5352   36.4872    1.8874 H   0  0  0  0  0  0  0  0  0  0  0  0
   69.6093   38.5756    0.1321 H   0  0  0  0  0  0  0  0  0  0  0  0
   70.1585   38.6768    1.8532 H   0  0  0  0  0  0  0  0  0  0  0  0
   72.0762   39.6728    1.2611 H   0  0  0  0  0  0  0  0  0  0  0  0
   72.4152   38.3810    0.0345 H   0  0  0  0  0  0  0  0  0  0  0  0
   70.3500   41.4433    0.6130 H   0  0  0  0  0  0  0  0  0  0  0  0
   69.7980   43.0934   -1.1573 H   0  0  0  0  0  0  0  0  0  0  0  0
   66.7246   42.6926   -5.2225 H   0  0  0  0  0  0  0  0  0  0  0  0
   65.8048   44.1398   -7.0399 H   0  0  0  0  0  0  0  0  0  0  0  0
   67.2470   45.8760   -8.1051 H   0  0  0  0  0  0  0  0  0  0  0  0
   69.5340   46.5790   -8.4090 H   0  0  0  0  0  0  0  0  0  0  0  0
   72.9220   44.7760   -3.5500 H   0  0  0  0  0  0  0  0  0  0  0  0
   71.7797   40.6168   -4.0803 H   0  0  0  0  0  0  0  0  0  0  0  0
   72.8835   38.0875   -1.5446 H   0  0  0  0  0  0  0  0  0  0  0  0
   71.9056   37.9566   -3.0456 H   0  0  0  0  0  0  0  0  0  0  0  0
   73.4276   38.9106   -3.0456 H   0  0  0  0  0  0  0  0  0  0  0  0
  1  2  1  0
  2  3  1  0
  3  4  1  0
  4  5  1  0
  5  6  2  0
  6  7  1  0
  7  8  2  0
  8  9  1  0
  9 10  1  0
 10 11  1  0
 11 12  2  0
 12 13  1  0
 13 14  2  0
 14 15  1  0
 15 16  1  0
 15 17  2  0
 17 18  1  0
 18 19  2  0
 18 20  1  0
 20 21  1  0
  8 22  1  0
 22 23  2  0
 23 24  1  0
 23  5  1  0
 20  9  2  0
 17 11  1  0
  1 25  1  0
  1 26  1  0
  1 27  1  0
  2 28  1  0
  2 29  1  0
  3 30  1  0
  3 31  1  0
  4 32  1  0
  4 33  1  0
  6 34  1  0
  7 35  1  0
 12 36  1  0
 13 37  1  0
 14 38  1  0
 16 39  1  0
 21 40  1  0
 22 41  1  0
 24 42  1  0
 24 43  1  0
 24 44  1  0
M  END
>  <meeko>  (6) 
{"is_sidechain": [false], "free_energy": -7.254, "intermolecular_energy": -9.307, "internal_energy": -0.797}

$$$$
cand_052_out
     RDKit          3D

 44 46  0  0  0  0  0  0  0  0999 V2000
   76.2100   42.7580   -6.9790 C   0  0  0  0  0  0  0  0  0  0  0  0
   75.9630   44.2580   -6.9870 C   0  0  0  0  0  0  0  0  0  0  0  0
   74.5230   44.5870   -7.3840 C   0  0  0  0  0  0  0  0  0  0  0  0
   73.7390   45.1570   -6.1990 C   0  0  0  0  0  0  0  0  0  0  0  0
   73.3870   44.0840   -5.1910 C   0  0  0  0  0  0  0  0  0  0  0  0
   72.6980   42.9460   -5.6410 C   0  0  0  0  0  0  0  0  0  0  0  0
   72.3380   41.9260   -4.7570 C   0  0  0  0  0  0  0  0  0  0  0  0
   72.6600   42.0120   -3.4000 C   0  0  0  0  0  0  0  0  0  0  0  0
   72.2700   40.9590   -2.4380 C   0  0  0  0  0  0  0  0  0  0  0  0
   70.9060   40.9530   -2.1670 O   0  0  0  0  0  0  0  0  0  0  0  0
   70.4070   40.0240   -1.2910 C   0  0  0  0  0  0  0  0  0  0  0  0
   69.0320   40.0470   -1.0600 C   0  0  0  0  0  0  0  0  0  0  0  0
   68.4590   39.1280   -0.1760 C   0  0  0  0  0  0  0  0  0  0  0  0
   69.2620   38.1900    0.4760 C   0  0  0  0  0  0  0  0  0  0  0  0
   70.6350   38.1710    0.2430 C   0  0  0  0  0  0  0  0  0  0  0  0
   71.3620   37.2260    0.9150 O   0  0  0  0  0  0  0  0  0  0  0  0
   71.2070   39.0890   -0.6410 C   0  0  0  0  0  0  0  0  0  0  0  0
   72.6450   39.1030   -0.9140 C   0  0  0  0  0  0  0  0  0  0  0  0
   73.4180   38.3140   -0.3740 O   0  0  0  0  0  0  0  0  0  0  0  0
   73.1500   40.1120   -1.8740 C   0  0  0  0  0  0  0  0  0  0  0  0
   74.5120   40.1250   -2.1140 O   0  0  0  0  0  0  0  0  0  0  0  0
   73.3350   43.1570   -2.9480 C   0  0  0  0  0  0  0  0  0  0  0  0
   73.6990   44.1970   -3.8230 C   0  0  0  0  0  0  0  0  0  0  0  0
   74.4380   45.3860   -3.2700 C   0  0  0  0  0  0  0  0  0  0  0  0
   76.2687   42.4016   -5.9400 H   0  0  0  0  0  0  0  0  0  0  0  0
   75.3838   42.2476   -7.4956 H   0  0  0  0  0  0  0  0  0  0  0  0
   77.1562   42.5394   -7.4956 H   0  0  0  0  0  0  0  0  0  0  0  0
   76.1564   44.6574   -5.9805 H   0  0  0  0  0  0  0  0  0  0  0  0
   76.6376   44.7149   -7.7260 H   0  0  0  0  0  0  0  0  0  0  0  0
   74.5352   45.3286   -8.1963 H   0  0  0  0  0  0  0  0  0  0  0  0
   74.0317   43.6595   -7.7132 H   0  0  0  0  0  0  0  0  0  0  0  0
   74.3511   45.9247   -5.7030 H   0  0  0  0  0  0  0  0  0  0  0  0
   72.8020   45.5865   -6.5831 H   0  0  0  0  0  0  0  0  0  0  0  0
   72.4378   42.8564   -6.7060 H   0  0  0  0  0  0  0  0  0  0  0  0
   71.7955   41.0461   -5.1330 H   0  0  0  0  0  0  0  0  0  0  0  0
   68.3994   40.7868   -1.5724 H   0  0  0  0  0  0  0  0  0  0  0  0
   67.3743   39.1438    0.0062 H   0  0  0  0  0  0  0  0  0  0  0  0
   68.8111   37.4675    1.1722 H   0  0  0  0  0  0  0  0  0  0  0  0
   71.1010   36.3280    0.8890 H   0  0  0  0  0  0  0  0  0  0  0  0
   75.1130   39.9790   -1.4100 H   0  0  0  0  0  0  0  0  0  0  0  0
   73.5862   43.2434   -1.8806 H   0  0  0  0  0  0  0  0  0  0  0  0
   74.4169   45.3520   -2.1707 H   0  0  0  0  0  0  0  0  0  0  0  0
   75.4814   45.3633   -3.6176 H   0  0  0  0  0  0  0  0  0  0  0  0
   73.9558   46.3116   -3.6176 H   0  0  0  0  0  0  0  0  0  0  0  0
  1  2  1  0
  2  3  1  0
  3  4  1  0
  4  5  1  0
  5  6  2  0
  6  7  1  0
  7  8  2  0
  8  9  1  0
  9 10  1  0
 10 11  1  0
 11 12  2  0
 12 13  1  0
 13 14  2  0
 14 15  1  0
 15 16  1  0
 15 17  2  0
 17 18  1  0
 18 19  2  0
 18 20  1  0
 20 21  1  0
  8 22  1  0
 22 23  2  0
 23 24  1  0
 23  5  1  0
 20  9  2  0
 17 11  1  0
  1 25  1  0
  1 26  1  0
  1 27  1  0
  2 28  1  0
  2 29  1  0
  3 30  1  0
  3 31  1  0
  4 32  1  0
  4 33  1  0
  6 34  1  0
  7 35  1  0
 12 36  1  0
 13 37  1  0
 14 38  1  0
 16 39  1  0
 21 40  1  0
 22 41  1  0
 24 42  1  0
 24 43  1  0
 24 44  1  0
M  END
>  <meeko>  (7) 
{"is_sidechain": [false], "free_energy": -7.229, "intermolecular_energy": -9.161, "internal_energy": -0.911}

$$$$
cand_052_out
     RDKit          3D

 44 46  0  0  0  0  0  0  0  0999 V2000
   72.0990   36.6660    0.4370 C   0  0  0  0  0  0  0  0  0  0  0  0
   70.7180   37.1060    0.8940 C   0  0  0  0  0  0  0  0  0  0  0  0
   70.6760   38.6070    1.1850 C   0  0  0  0  0  0  0  0  0  0  0  0
   71.8260   39.3390    0.4870 C   0  0  0  0  0  0  0  0  0  0  0  0
   71.3270   40.2280   -0.6310 C   0  0  0  0  0  0  0  0  0  0  0  0
   70.5010   41.3140   -0.3030 C   0  0  0  0  0  0  0  0  0  0  0  0
   70.0030   42.1660   -1.2920 C   0  0  0  0  0  0  0  0  0  0  0  0
   70.3200   41.9590   -2.6370 C   0  0  0  0  0  0  0  0  0  0  0  0
   69.7880   42.8300   -3.7070 C   0  0  0  0  0  0  0  0  0  0  0  0
   70.6420   43.8810   -4.0200 O   0  0  0  0  0  0  0  0  0  0  0  0
   70.2720   44.7680   -4.9990 C   0  0  0  0  0  0  0  0  0  0  0  0
   71.1650   45.7990   -5.2900 C   0  0  0  0  0  0  0  0  0  0  0  0
   70.8480   46.7380   -6.2750 C   0  0  0  0  0  0  0  0  0  0  0  0
   69.6380   46.6460   -6.9660 C   0  0  0  0  0  0  0  0  0  0  0  0
   68.7490   45.6160   -6.6720 C   0  0  0  0  0  0  0  0  0  0  0  0
   67.5820   45.5850   -7.3860 O   0  0  0  0  0  0  0  0  0  0  0  0
   69.0670   44.6770   -5.6870 C   0  0  0  0  0  0  0  0  0  0  0  0
   68.1600   43.5790   -5.3480 C   0  0  0  0  0  0  0  0  0  0  0  0
   67.0740   43.4350   -5.9070 O   0  0  0  0  0  0  0  0  0  0  0  0
   68.5950   42.6320   -4.2950 C   0  0  0  0  0  0  0  0  0  0  0  0
   67.7240   41.6070   -3.9730 O   0  0  0  0  0  0  0  0  0  0  0  0
   71.1350   40.8650   -2.9670 C   0  0  0  0  0  0  0  0  0  0  0  0
   71.6400   39.9930   -1.9840 C   0  0  0  0  0  0  0  0  0  0  0  0
   72.5220   38.8500   -2.4110 C   0  0  0  0  0  0  0  0  0  0  0  0
   72.7293   36.4652    1.3158 H   0  0  0  0  0  0  0  0  0  0  0  0
   72.0110   35.7514   -0.1678 H   0  0  0  0  0  0  0  0  0  0  0  0
   72.5563   37.4629   -0.1678 H   0  0  0  0  0  0  0  0  0  0  0  0
   69.9892   36.8746    0.1032 H   0  0  0  0  0  0  0  0  0  0  0  0
   70.4734   36.5675    1.8215 H   0  0  0  0  0  0  0  0  0  0  0  0
   69.7200   39.0155    0.8256 H   0  0  0  0  0  0  0  0  0  0  0  0
   70.7772   38.7543    2.2704 H   0  0  0  0  0  0  0  0  0  0  0  0
   72.3549   39.9587    1.2261 H   0  0  0  0  0  0  0  0  0  0  0  0
   72.4981   38.5850    0.0514 H   0  0  0  0  0  0  0  0  0  0  0  0
   70.2413   41.4975    0.7500 H   0  0  0  0  0  0  0  0  0  0  0  0
   69.3547   43.0084   -1.0089 H   0  0  0  0  0  0  0  0  0  0  0  0
   72.1176   45.8729   -4.7449 H   0  0  0  0  0  0  0  0  0  0  0  0
   71.5524   47.5506   -6.5064 H   0  0  0  0  0  0  0  0  0  0  0  0
   69.3880   47.3857   -7.7408 H   0  0  0  0  0  0  0  0  0  0  0  0
   67.5820   45.8130   -8.2940 H   0  0  0  0  0  0  0  0  0  0  0  0
   66.8550   41.8040   -3.6850 H   0  0  0  0  0  0  0  0  0  0  0  0
   71.3860   40.6840   -4.0226 H   0  0  0  0  0  0  0  0  0  0  0  0
   72.9165   38.3388   -1.5205 H   0  0  0  0  0  0  0  0  0  0  0  0
   71.9359   38.1394   -3.0122 H   0  0  0  0  0  0  0  0  0  0  0  0
   73.3580   39.2368   -3.0122 H   0  0  0  0  0  0  0  0  0  0  0  0
  1  2  1  0
  2  3  1  0
  3  4  1  0
  4  5  1  0
  5  6  2  0
  6  7  1  0
  7  8  2  0
  8  9  1  0
  9 10  1  0
 10 11  1  0
 11 12  2  0
 12 13  1  0
 13 14  2  0
 14 15  1  0
 15 16  1  0
 15 17  2  0
 17 18  1  0
 18 19  2  0
 18 20  1  0
 20 21  1  0
  8 22  1  0
 22 23  2  0
 23 24  1  0
 23  5  1  0
 20  9  2  0
 17 11  1  0
  1 25  1  0
  1 26  1  0
  1 27  1  0
  2 28  1  0
  2 29  1  0
  3 30  1  0
  3 31  1  0
  4 32  1  0
  4 33  1  0
  6 34  1  0
  7 35  1  0
 12 36  1  0
 13 37  1  0
 14 38  1  0
 16 39  1  0
 21 40  1  0
 22 41  1  0
 24 42  1  0
 24 43  1  0
 24 44  1  0
M  END
>  <meeko>  (8) 
{"is_sidechain": [false], "free_energy": -7.221, "intermolecular_energy": -9.201, "internal_energy": -0.859}

$$$$
cand_052_out
     RDKit          3D

 44 46  0  0  0  0  0  0  0  0999 V2000
   67.3240   39.6160   -1.2560 C   0  0  0  0  0  0  0  0  0  0  0  0
   67.6870   38.9030    0.0370 C   0  0  0  0  0  0  0  0  0  0  0  0
   69.1250   38.3830    0.0050 C   0  0  0  0  0  0  0  0  0  0  0  0
   70.0770   39.3400    0.7270 C   0  0  0  0  0  0  0  0  0  0  0  0
   71.0250   40.0210   -0.2370 C   0  0  0  0  0  0  0  0  0  0  0  0
   70.6160   41.2210   -0.8400 C   0  0  0  0  0  0  0  0  0  0  0  0
   71.4420   41.8910   -1.7440 C   0  0  0  0  0  0  0  0  0  0  0  0
   72.7040   41.3840   -2.0680 C   0  0  0  0  0  0  0  0  0  0  0  0
   73.5900   42.0610   -3.0390 C   0  0  0  0  0  0  0  0  0  0  0  0
   74.5230   42.8920   -2.4300 O   0  0  0  0  0  0  0  0  0  0  0  0
   75.4110   43.5820   -3.2150 C   0  0  0  0  0  0  0  0  0  0  0  0
   76.3380   44.3920   -2.5610 C   0  0  0  0  0  0  0  0  0  0  0  0
   77.2700   45.1240   -3.3020 C   0  0  0  0  0  0  0  0  0  0  0  0
   77.2710   45.0460   -4.6960 C   0  0  0  0  0  0  0  0  0  0  0  0
   76.3440   44.2350   -5.3460 C   0  0  0  0  0  0  0  0  0  0  0  0
   76.4010   44.2050   -6.7130 O   0  0  0  0  0  0  0  0  0  0  0  0
   75.4130   43.5030   -4.6040 C   0  0  0  0  0  0  0  0  0  0  0  0
   74.4220   42.6400   -5.2480 C   0  0  0  0  0  0  0  0  0  0  0  0
   74.3560   42.5240   -6.4700 O   0  0  0  0  0  0  0  0  0  0  0  0
   73.4850   41.9000   -4.3710 C   0  0  0  0  0  0  0  0  0  0  0  0
   72.5440   41.0990   -4.9900 O   0  0  0  0  0  0  0  0  0  0  0  0
   73.1070   40.1770   -1.4760 C   0  0  0  0  0  0  0  0  0  0  0  0
   72.2840   39.4850   -0.5690 C   0  0  0  0  0  0  0  0  0  0  0  0
   72.7900   38.2050    0.0400 C   0  0  0  0  0  0  0  0  0  0  0  0
   66.8363   40.5739   -1.0221 H   0  0  0  0  0  0  0  0  0  0  0  0
   68.2369   39.8025   -1.8407 H   0  0  0  0  0  0  0  0  0  0  0  0
   66.6361   38.9875   -1.8407 H   0  0  0  0  0  0  0  0  0  0  0  0
   67.5799   39.6067    0.8756 H   0  0  0  0  0  0  0  0  0  0  0  0
   67.0115   38.0434    0.1588 H   0  0  0  0  0  0  0  0  0  0  0  0
   69.1621   37.4004    0.4981 H   0  0  0  0  0  0  0  0  0  0  0  0
   69.4426   38.3028   -1.0451 H   0  0  0  0  0  0  0  0  0  0  0  0
   69.4845   40.1077    1.2463 H   0  0  0  0  0  0  0  0  0  0  0  0
   70.6758   38.7544    1.4401 H   0  0  0  0  0  0  0  0  0  0  0  0
   69.6286   41.6400   -0.5961 H   0  0  0  0  0  0  0  0  0  0  0  0
   71.0965   42.8275   -2.2062 H   0  0  0  0  0  0  0  0  0  0  0  0
   76.3360   44.4550   -1.4628 H   0  0  0  0  0  0  0  0  0  0  0  0
   78.0031   45.7619   -2.7866 H   0  0  0  0  0  0  0  0  0  0  0  0
   78.0026   45.6240   -5.2797 H   0  0  0  0  0  0  0  0  0  0  0  0
   76.8820   44.8620   -7.1760 H   0  0  0  0  0  0  0  0  0  0  0  0
   72.3980   41.1760   -5.9130 H   0  0  0  0  0  0  0  0  0  0  0  0
   74.0935   39.7607   -1.7282 H   0  0  0  0  0  0  0  0  0  0  0  0
   72.7590   38.2834    1.1368 H   0  0  0  0  0  0  0  0  0  0  0  0
   72.1552   37.3679   -0.2858 H   0  0  0  0  0  0  0  0  0  0  0  0
   73.8257   38.0282   -0.2858 H   0  0  0  0  0  0  0  0  0  0  0  0
  1  2  1  0
  2  3  1  0
  3  4  1  0
  4  5  1  0
  5  6  2  0
  6  7  1  0
  7  8  2  0
  8  9  1  0
  9 10  1  0
 10 11  1  0
 11 12  2  0
 12 13  1  0
 13 14  2  0
 14 15  1  0
 15 16  1  0
 15 17  2  0
 17 18  1  0
 18 19  2  0
 18 20  1  0
 20 21  1  0
  8 22  1  0
 22 23  2  0
 23 24  1  0
 23  5  1  0
 20  9  2  0
 17 11  1  0
  1 25  1  0
  1 26  1  0
  1 27  1  0
  2 28  1  0
  2 29  1  0
  3 30  1  0
  3 31  1  0
  4 32  1  0
  4 33  1  0
  6 34  1  0
  7 35  1  0
 12 36  1  0
 13 37  1  0
 14 38  1  0
 16 39  1  0
 21 40  1  0
 22 41  1  0
 24 42  1  0
 24 43  1  0
 24 44  1  0
M  END
>  <meeko>  (9) 
{"is_sidechain": [false], "free_energy": -7.218, "intermolecular_energy": -9.27, "internal_energy": -0.787}

$$$$
