cand_013_out
     RDKit          3D

 50 53  0  0  0  0  0  0  0  0999 V2000
   77.5510   46.1490   -8.1570 C   0  0  0  0  0  0  0  0  0  0  0  0
   76.5500   45.2660   -7.5640 N   0  0  0  0  0  0  0  0  0  0  0  0
   77.1800   44.0110   -7.0890 C   0  0  0  0  0  0  0  0  0  0  0  0
   76.1690   43.0640   -6.4000 C   0  0  0  0  0  0  0  0  0  0  0  0
   75.5040   43.7670   -5.2770 N   0  0  0  0  0  0  0  0  0  0  0  0
   74.6700   42.9310   -4.5170 C   0  0  0  0  0  0  0  0  0  0  0  0
   73.5430   42.3030   -5.0690 C   0  0  0  0  0  0  0  0  0  0  0  0
   72.7270   41.4700   -4.2990 C   0  0  0  0  0  0  0  0  0  0  0  0
   73.0170   41.2320   -2.9530 C   0  0  0  0  0  0  0  0  0  0  0  0
   72.1560   40.3770   -2.1080 C   0  0  0  0  0  0  0  0  0  0  0  0
   70.8200   40.7610   -2.1370 O   0  0  0  0  0  0  0  0  0  0  0  0
   69.9100   40.0540   -1.3930 C   0  0  0  0  0  0  0  0  0  0  0  0
   68.5790   40.4670   -1.4600 C   0  0  0  0  0  0  0  0  0  0  0  0
   67.6020   39.7890   -0.7260 C   0  0  0  0  0  0  0  0  0  0  0  0
   67.9560   38.7010    0.0740 C   0  0  0  0  0  0  0  0  0  0  0  0
   69.2850   38.2910    0.1380 C   0  0  0  0  0  0  0  0  0  0  0  0
   69.5630   37.2190    0.9420 O   0  0  0  0  0  0  0  0  0  0  0  0
   70.2620   38.9690   -0.5960 C   0  0  0  0  0  0  0  0  0  0  0  0
   71.6700   38.5710   -0.5540 C   0  0  0  0  0  0  0  0  0  0  0  0
   72.0620   37.6300    0.1300 O   0  0  0  0  0  0  0  0  0  0  0  0
   72.6260   39.3510   -1.3750 C   0  0  0  0  0  0  0  0  0  0  0  0
   73.9560   38.9780   -1.3160 O   0  0  0  0  0  0  0  0  0  0  0  0
   74.1370   41.8640   -2.3960 C   0  0  0  0  0  0  0  0  0  0  0  0
   74.9700   42.7080   -3.1620 C   0  0  0  0  0  0  0  0  0  0  0  0
   76.1680   43.3620   -2.5190 C   0  0  0  0  0  0  0  0  0  0  0  0
   76.3090   43.0230   -1.2000 F   0  0  0  0  0  0  0  0  0  0  0  0
   76.1160   44.7260   -2.5220 F   0  0  0  0  0  0  0  0  0  0  0  0
   77.3560   43.0180   -3.0950 F   0  0  0  0  0  0  0  0  0  0  0  0
   74.8440   45.0140   -5.7310 C   0  0  0  0  0  0  0  0  0  0  0  0
   75.8750   45.9330   -6.4260 C   0  0  0  0  0  0  0  0  0  0  0  0
   78.1181   46.6492   -7.3581 H   0  0  0  0  0  0  0  0  0  0  0  0
   78.2386   45.5579   -8.7798 H   0  0  0  0  0  0  0  0  0  0  0  0
   77.0503   46.9049   -8.7798 H   0  0  0  0  0  0  0  0  0  0  0  0
   75.8600   45.0450   -8.2830 H   0  0  0  0  0  0  0  0  0  0  0  0
   77.6208   43.4893   -7.9513 H   0  0  0  0  0  0  0  0  0  0  0  0
   77.9444   44.2815   -6.3457 H   0  0  0  0  0  0  0  0  0  0  0  0
   75.4111   42.7454   -7.1309 H   0  0  0  0  0  0  0  0  0  0  0  0
   76.7033   42.1846   -6.0112 H   0  0  0  0  0  0  0  0  0  0  0  0
   73.2972   42.4697   -6.1282 H   0  0  0  0  0  0  0  0  0  0  0  0
   71.8465   40.9963   -4.7576 H   0  0  0  0  0  0  0  0  0  0  0  0
   68.2992   41.3247   -2.0894 H   0  0  0  0  0  0  0  0  0  0  0  0
   66.5522   40.1132   -0.7787 H   0  0  0  0  0  0  0  0  0  0  0  0
   67.1865   38.1688    0.6525 H   0  0  0  0  0  0  0  0  0  0  0  0
   69.3050   37.2300    1.8430 H   0  0  0  0  0  0  0  0  0  0  0  0
   74.5190   39.3510   -0.6680 H   0  0  0  0  0  0  0  0  0  0  0  0
   74.3731   41.6981   -1.3345 H   0  0  0  0  0  0  0  0  0  0  0  0
   74.0415   44.7642   -6.4406 H   0  0  0  0  0  0  0  0  0  0  0  0
   74.4216   45.5374   -4.8606 H   0  0  0  0  0  0  0  0  0  0  0  0
   75.3555   46.8280   -6.7989 H   0  0  0  0  0  0  0  0  0  0  0  0
   76.6453   46.1932   -5.6851 H   0  0  0  0  0  0  0  0  0  0  0  0
  1  2  1  0
  2  3  1  0
  3  4  1  0
  4  5  1  0
  5  6  1  0
  6  7  2  0
  7  8  1  0
  8  9  2  0
  9 10  1  0
 10 11  1  0
 11 12  1  0
 12 13  2  0
 13 14  1  0
 14 15  2  0
 15 16  1  0
 16 17  1  0
 16 18  2  0
 18 19  1  0
 19 20  2  0
 19 21  1  0
 21 22  1  0
  9 23  1  0
 23 24  2  0
 24 25  1  0
 25 26  1  0
 25 27  1  0
 25 28  1  0
  5 29  1  0
 29 30  1  0
 30  2  1  0
 24  6  1  0
 21 10  2  0
 18 12  1  0
  1 31  1  0
  1 32  1  0
  1 33  1  0
  2 34  1  0
  3 35  1  0
  3 36  1  0
  4 37  1  0
  4 38  1  0
  7 39  1  0
  8 40  1  0
 13 41  1  0
 14 42  1  0
 15 43  1  0
 17 44  1  0
 22 45  1  0
 23 46  1  0
 29 47  1  0
 29 48  1  0
 30 49  1  0
 30 50  1  0
M  CHG  1   2   1
M  END
>  <meeko>  (1) 
{"is_sidechain": [false], "free_energy": -8.304, "intermolecular_energy": -10.246, "internal_energy": -0.529}

$$$$
cand_013_out
     RDKit          3D

 50 53  0  0  0  0  0  0  0  0999 V2000
   77.8510   45.9240   -8.1970 C   0  0  0  0  0  0  0  0  0  0  0  0
   76.7800   45.1200   -7.6120 N   0  0  0  0  0  0  0  0  0  0  0  0
   77.3080   43.8220   -7.1300 C   0  0  0  0  0  0  0  0  0  0  0  0
   76.2210   42.9560   -6.4500 C   0  0  0  0  0  0  0  0  0  0  0  0
   75.6030   43.7090   -5.3330 N   0  0  0  0  0  0  0  0  0  0  0  0
   74.7010   42.9400   -4.5800 C   0  0  0  0  0  0  0  0  0  0  0  0
   73.5590   42.3580   -5.1530 C   0  0  0  0  0  0  0  0  0  0  0  0
   72.6740   41.5920   -4.3900 C   0  0  0  0  0  0  0  0  0  0  0  0
   72.9080   41.3750   -3.0290 C   0  0  0  0  0  0  0  0  0  0  0  0
   71.9760   40.5910   -2.1920 C   0  0  0  0  0  0  0  0  0  0  0  0
   72.5860   39.5040   -1.5760 O   0  0  0  0  0  0  0  0  0  0  0  0
   71.8330   38.6880   -0.7720 C   0  0  0  0  0  0  0  0  0  0  0  0
   72.4890   37.6160   -0.1660 C   0  0  0  0  0  0  0  0  0  0  0  0
   71.7790   36.7460    0.6660 C   0  0  0  0  0  0  0  0  0  0  0  0
   70.4160   36.9480    0.8900 C   0  0  0  0  0  0  0  0  0  0  0  0
   69.7650   38.0180    0.2840 C   0  0  0  0  0  0  0  0  0  0  0  0
   68.4290   38.1570    0.5460 O   0  0  0  0  0  0  0  0  0  0  0  0
   70.4750   38.8890   -0.5480 C   0  0  0  0  0  0  0  0  0  0  0  0
   69.8270   40.0250   -1.2050 C   0  0  0  0  0  0  0  0  0  0  0  0
   68.6310   40.2650   -1.0630 O   0  0  0  0  0  0  0  0  0  0  0  0
   70.6700   40.8910   -2.0610 C   0  0  0  0  0  0  0  0  0  0  0  0
   70.0460   41.9520   -2.6900 O   0  0  0  0  0  0  0  0  0  0  0  0
   74.0440   41.9610   -2.4520 C   0  0  0  0  0  0  0  0  0  0  0  0
   74.9450   42.7370   -3.2110 C   0  0  0  0  0  0  0  0  0  0  0  0
   76.1560   43.3430   -2.5460 C   0  0  0  0  0  0  0  0  0  0  0  0
   76.2550   43.0050   -1.2230 F   0  0  0  0  0  0  0  0  0  0  0  0
   76.1620   44.7080   -2.5550 F   0  0  0  0  0  0  0  0  0  0  0  0
   77.3410   42.9470   -3.0950 F   0  0  0  0  0  0  0  0  0  0  0  0
   75.0430   45.0020   -5.7940 C   0  0  0  0  0  0  0  0  0  0  0  0
   76.1480   45.8390   -6.4800 C   0  0  0  0  0  0  0  0  0  0  0  0
   78.4517   46.3750   -7.3934 H   0  0  0  0  0  0  0  0  0  0  0  0
   78.4929   45.2828   -8.8190 H   0  0  0  0  0  0  0  0  0  0  0  0
   77.4145   46.7194   -8.8190 H   0  0  0  0  0  0  0  0  0  0  0  0
   76.0820   44.9520   -8.3370 H   0  0  0  0  0  0  0  0  0  0  0  0
   77.7160   43.2668   -7.9875 H   0  0  0  0  0  0  0  0  0  0  0  0
   78.0838   44.0346   -6.3797 H   0  0  0  0  0  0  0  0  0  0  0  0
   75.4471   42.6965   -7.1874 H   0  0  0  0  0  0  0  0  0  0  0  0
   76.6823   42.0380   -6.0569 H   0  0  0  0  0  0  0  0  0  0  0  0
   73.3570   42.5081   -6.2238 H   0  0  0  0  0  0  0  0  0  0  0  0
   71.7835   41.1550   -4.8654 H   0  0  0  0  0  0  0  0  0  0  0  0
   73.5628   37.4559   -0.3427 H   0  0  0  0  0  0  0  0  0  0  0  0
   72.2949   35.9008    1.1450 H   0  0  0  0  0  0  0  0  0  0  0  0
   69.8576   36.2625    1.5444 H   0  0  0  0  0  0  0  0  0  0  0  0
   67.8480   38.4510   -0.1280 H   0  0  0  0  0  0  0  0  0  0  0  0
   69.3010   42.3590   -2.2940 H   0  0  0  0  0  0  0  0  0  0  0  0
   74.2375   41.8116   -1.3795 H   0  0  0  0  0  0  0  0  0  0  0  0
   74.2305   44.8128   -6.5110 H   0  0  0  0  0  0  0  0  0  0  0  0
   74.6528   45.5571   -4.9282 H   0  0  0  0  0  0  0  0  0  0  0  0
   75.7021   46.7708   -6.8580 H   0  0  0  0  0  0  0  0  0  0  0  0
   76.9292   46.0407   -5.7323 H   0  0  0  0  0  0  0  0  0  0  0  0
  1  2  1  0
  2  3  1  0
  3  4  1  0
  4  5  1  0
  5  6  1  0
  6  7  2  0
  7  8  1  0
  8  9  2  0
  9 10  1  0
 10 11  1  0
 11 12  1  0
 12 13  2  0
 13 14  1  0
 14 15  2  0
 15 16  1  0
 16 17  1  0
 16 18  2  0
 18 19  1  0
 19 20  2  0
 19 21  1  0
 21 22  1  0
  9 23  1  0
 23 24  2  0
 24 25  1  0
 25 26  1  0
 25 27  1  0
 25 28  1  0
  5 29  1  0
 29 30  1  0
 30  2  1  0
 24  6  1  0
 21 10  2  0
 18 12  1  0
  1 31  1  0
  1 32  1  0
  1 33  1  0
  2 34  1  0
  3 35  1  0
  3 36  1  0
  4 37  1  0
  4 38  1  0
  7 39  1  0
  8 40  1  0
 13 41  1  0
 14 42  1  0
 15 43  1  0
 17 44  1  0
 22 45  1  0
 23 46  1  0
 29 47  1  0
 29 48  1  0
 30 49  1  0
 30 50  1  0
M  CHG  1   2   1
M  END
>  <meeko>  (2) 
{"is_sidechain": [false], "free_energy": -8.257, "intermolecular_energy": -10.124, "internal_energy": -0.593}

$$$$
cand_013_out
     RDKit          3D

 50 53  0  0  0  0  0  0  0  0999 V2000
   78.5230   47.5820   -5.0030 C   0  0  0  0  0  0  0  0  0  0  0  0
   77.1900   47.0000   -4.8700 N   0  0  0  0  0  0  0  0  0  0  0  0
   77.1890   45.5920   -5.3320 C   0  0  0  0  0  0  0  0  0  0  0  0
   75.8100   44.9120   -5.1580 C   0  0  0  0  0  0  0  0  0  0  0  0
   75.3850   44.9910   -3.7400 N   0  0  0  0  0  0  0  0  0  0  0  0
   74.2040   44.2770   -3.4760 C   0  0  0  0  0  0  0  0  0  0  0  0
   72.9380   44.7870   -3.7980 C   0  0  0  0  0  0  0  0  0  0  0  0
   71.7730   44.0610   -3.5330 C   0  0  0  0  0  0  0  0  0  0  0  0
   71.8400   42.7950   -2.9430 C   0  0  0  0  0  0  0  0  0  0  0  0
   70.6250   42.0160   -2.6270 C   0  0  0  0  0  0  0  0  0  0  0  0
   70.7740   41.2170   -1.4990 O   0  0  0  0  0  0  0  0  0  0  0  0
   69.7210   40.4370   -1.0940 C   0  0  0  0  0  0  0  0  0  0  0  0
   69.9110   39.6600    0.0490 C   0  0  0  0  0  0  0  0  0  0  0  0
   68.8780   38.8430    0.5150 C   0  0  0  0  0  0  0  0  0  0  0  0
   67.6580   38.8030   -0.1620 C   0  0  0  0  0  0  0  0  0  0  0  0
   67.4710   39.5800   -1.3020 C   0  0  0  0  0  0  0  0  0  0  0  0
   66.2510   39.4920   -1.9170 O   0  0  0  0  0  0  0  0  0  0  0  0
   68.5040   40.3970   -1.7680 C   0  0  0  0  0  0  0  0  0  0  0  0
   68.3500   41.2280   -2.9630 C   0  0  0  0  0  0  0  0  0  0  0  0
   67.3100   41.2430   -3.6170 O   0  0  0  0  0  0  0  0  0  0  0  0
   69.5030   42.0640   -3.3690 C   0  0  0  0  0  0  0  0  0  0  0  0
   69.3530   42.8330   -4.5080 O   0  0  0  0  0  0  0  0  0  0  0  0
   73.1040   42.2860   -2.6130 C   0  0  0  0  0  0  0  0  0  0  0  0
   74.2870   43.0090   -2.8760 C   0  0  0  0  0  0  0  0  0  0  0  0
   75.6250   42.4160   -2.5070 C   0  0  0  0  0  0  0  0  0  0  0  0
   75.5100   41.1960   -1.8970 F   0  0  0  0  0  0  0  0  0  0  0  0
   76.3380   43.1770   -1.6260 F   0  0  0  0  0  0  0  0  0  0  0  0
   76.4420   42.1940   -3.5770 F   0  0  0  0  0  0  0  0  0  0  0  0
   75.3530   46.3930   -3.2590 C   0  0  0  0  0  0  0  0  0  0  0  0
   76.7390   47.0490   -3.4590 C   0  0  0  0  0  0  0  0  0  0  0  0
   78.9442   47.7659   -4.0036 H   0  0  0  0  0  0  0  0  0  0  0  0
   79.1737   46.8861   -5.5528 H   0  0  0  0  0  0  0  0  0  0  0  0
   78.4550   48.5323   -5.5528 H   0  0  0  0  0  0  0  0  0  0  0  0
   76.5500   47.5450   -5.4470 H   0  0  0  0  0  0  0  0  0  0  0  0
   77.4611   45.5702   -6.3976 H   0  0  0  0  0  0  0  0  0  0  0  0
   77.9144   45.0383   -4.7179 H   0  0  0  0  0  0  0  0  0  0  0  0
   75.0688   45.4229   -5.7901 H   0  0  0  0  0  0  0  0  0  0  0  0
   75.8865   43.8557   -5.4553 H   0  0  0  0  0  0  0  0  0  0  0  0
   72.8600   45.7782   -4.2686 H   0  0  0  0  0  0  0  0  0  0  0  0
   70.7936   44.4901   -3.7913 H   0  0  0  0  0  0  0  0  0  0  0  0
   70.8725   39.6906    0.5824 H   0  0  0  0  0  0  0  0  0  0  0  0
   69.0263   38.2305    1.4166 H   0  0  0  0  0  0  0  0  0  0  0  0
   66.8455   38.1585    0.2047 H   0  0  0  0  0  0  0  0  0  0  0  0
   65.8900   40.2420   -2.3490 H   0  0  0  0  0  0  0  0  0  0  0  0
   69.3330   43.7670   -4.4430 H   0  0  0  0  0  0  0  0  0  0  0  0
   73.1754   41.2971   -2.1366 H   0  0  0  0  0  0  0  0  0  0  0  0
   74.5974   46.9562   -3.8264 H   0  0  0  0  0  0  0  0  0  0  0  0
   75.0981   46.4034   -2.1890 H   0  0  0  0  0  0  0  0  0  0  0  0
   76.6805   48.1011   -3.1434 H   0  0  0  0  0  0  0  0  0  0  0  0
   77.4662   46.4863   -2.8552 H   0  0  0  0  0  0  0  0  0  0  0  0
  1  2  1  0
  2  3  1  0
  3  4  1  0
  4  5  1  0
  5  6  1  0
  6  7  2  0
  7  8  1  0
  8  9  2  0
  9 10  1  0
 10 11  1  0
 11 12  1  0
 12 13  2  0
 13 14  1  0
 14 15  2  0
 15 16  1  0
 16 17  1  0
 16 18  2  0
 18 19  1  0
 19 20  2  0
 19 21  1  0
 21 22  1  0
  9 23  1  0
 23 24  2  0
 24 25  1  0
 25 26  1  0
 25 27  1  0
 25 28  1  0
  5 29  1  0
 29 30  1  0
 30  2  1  0
 24  6  1  0
 21 10  2  0
 18 12  1  0
  1 31  1  0
  1 32  1  0
  1 33  1  0
  2 34  1  0
  3 35  1  0
  3 36  1  0
  4 37  1  0
  4 38  1  0
  7 39  1  0
  8 40  1  0
 13 41  1  0
 14 42  1  0
 15 43  1  0
 17 44  1  0
 22 45  1  0
 23 46  1  0
 29 47  1  0
 29 48  1  0
 30 49  1  0
 30 50  1  0
M  CHG  1   2   1
M  END
>  <meeko>  (3) 
{"is_sidechain": [false], "free_energy": -8.064, "intermolecular_energy": -10.199, "internal_energy": -0.28}

$$$$
cand_013_out
     RDKit          3D

 50 53  0  0  0  0  0  0  0  0999 V2000
   69.0480   47.9670   -8.4380 C   0  0  0  0  0  0  0  0  0  0  0  0
   69.3600   46.7340   -7.7180 N   0  0  0  0  0  0  0  0  0  0  0  0
   70.0660   47.0380   -6.4510 C   0  0  0  0  0  0  0  0  0  0  0  0
   70.3690   45.7670   -5.6220 C   0  0  0  0  0  0  0  0  0  0  0  0
   69.1110   45.0310   -5.3500 N   0  0  0  0  0  0  0  0  0  0  0  0
   69.2860   43.9360   -4.4870 C   0  0  0  0  0  0  0  0  0  0  0  0
   70.2080   42.9140   -4.7590 C   0  0  0  0  0  0  0  0  0  0  0  0
   70.3730   41.8340   -3.8870 C   0  0  0  0  0  0  0  0  0  0  0  0
   69.6240   41.7470   -2.7100 C   0  0  0  0  0  0  0  0  0  0  0  0
   69.7580   40.6030   -1.7830 C   0  0  0  0  0  0  0  0  0  0  0  0
   71.0580   40.1150   -1.7120 O   0  0  0  0  0  0  0  0  0  0  0  0
   71.3230   39.0500   -0.8900 C   0  0  0  0  0  0  0  0  0  0  0  0
   72.6430   38.6010   -0.8410 C   0  0  0  0  0  0  0  0  0  0  0  0
   72.9800   37.5190   -0.0230 C   0  0  0  0  0  0  0  0  0  0  0  0
   71.9980   36.8870    0.7420 C   0  0  0  0  0  0  0  0  0  0  0  0
   70.6820   37.3380    0.6920 C   0  0  0  0  0  0  0  0  0  0  0  0
   69.7710   36.6740    1.4670 O   0  0  0  0  0  0  0  0  0  0  0  0
   70.3450   38.4200   -0.1260 C   0  0  0  0  0  0  0  0  0  0  0  0
   68.9730   38.9240   -0.2090 C   0  0  0  0  0  0  0  0  0  0  0  0
   68.0530   38.4190    0.4280 O   0  0  0  0  0  0  0  0  0  0  0  0
   68.7220   40.0810   -1.1010 C   0  0  0  0  0  0  0  0  0  0  0  0
   67.4210   40.5390   -1.1850 O   0  0  0  0  0  0  0  0  0  0  0  0
   68.6960   42.7620   -2.4400 C   0  0  0  0  0  0  0  0  0  0  0  0
   68.5200   43.8570   -3.3120 C   0  0  0  0  0  0  0  0  0  0  0  0
   67.5110   44.9280   -2.9750 C   0  0  0  0  0  0  0  0  0  0  0  0
   66.8930   44.7100   -1.7730 F   0  0  0  0  0  0  0  0  0  0  0  0
   66.4910   45.0240   -3.8770 F   0  0  0  0  0  0  0  0  0  0  0  0
   68.0510   46.1770   -2.8660 F   0  0  0  0  0  0  0  0  0  0  0  0
   68.3970   44.6930   -6.6050 C   0  0  0  0  0  0  0  0  0  0  0  0
   68.1210   45.9800   -7.4160 C   0  0  0  0  0  0  0  0  0  0  0  0
   68.8444   48.7716   -7.7161 H   0  0  0  0  0  0  0  0  0  0  0  0
   69.9031   48.2490   -9.0699 H   0  0  0  0  0  0  0  0  0  0  0  0
   68.1617   47.8084   -9.0699 H   0  0  0  0  0  0  0  0  0  0  0  0
   69.9640   46.1670   -8.3130 H   0  0  0  0  0  0  0  0  0  0  0  0
   71.0160   47.5394   -6.6880 H   0  0  0  0  0  0  0  0  0  0  0  0
   69.4085   47.6816   -5.8480 H   0  0  0  0  0  0  0  0  0  0  0  0
   71.0563   45.1190   -6.1857 H   0  0  0  0  0  0  0  0  0  0  0  0
   70.8320   46.0585   -4.6677 H   0  0  0  0  0  0  0  0  0  0  0  0
   70.8129   42.9636   -5.6764 H   0  0  0  0  0  0  0  0  0  0  0  0
   71.0996   41.0446   -4.1295 H   0  0  0  0  0  0  0  0  0  0  0  0
   73.4169   39.0975   -1.4449 H   0  0  0  0  0  0  0  0  0  0  0  0
   74.0206   37.1648    0.0181 H   0  0  0  0  0  0  0  0  0  0  0  0
   72.2638   36.0338    1.3834 H   0  0  0  0  0  0  0  0  0  0  0  0
   69.6010   35.7650    1.3140 H   0  0  0  0  0  0  0  0  0  0  0  0
   66.8990   40.6120   -0.4100 H   0  0  0  0  0  0  0  0  0  0  0  0
   68.0891   42.7033   -1.5244 H   0  0  0  0  0  0  0  0  0  0  0  0
   69.0166   44.0099   -7.2045 H   0  0  0  0  0  0  0  0  0  0  0  0
   67.4409   44.2081   -6.3585 H   0  0  0  0  0  0  0  0  0  0  0  0
   67.6361   45.7031   -8.3638 H   0  0  0  0  0  0  0  0  0  0  0  0
   67.4742   46.6282   -6.8065 H   0  0  0  0  0  0  0  0  0  0  0  0
  1  2  1  0
  2  3  1  0
  3  4  1  0
  4  5  1  0
  5  6  1  0
  6  7  2  0
  7  8  1  0
  8  9  2  0
  9 10  1  0
 10 11  1  0
 11 12  1  0
 12 13  2  0
 13 14  1  0
 14 15  2  0
 15 16  1  0
 16 17  1  0
 16 18  2  0
 18 19  1  0
 19 20  2  0
 19 21  1  0
 21 22  1  0
  9 23  1  0
 23 24  2  0
 24 25  1  0
 25 26  1  0
 25 27  1  0
 25 28  1  0
  5 29  1  0
 29 30  1  0
 30  2  1  0
 24  6  1  0
 21 10  2  0
 18 12  1  0
  1 31  1  0
  1 32  1  0
  1 33  1  0
  2 34  1  0
  3 35  1  0
  3 36  1  0
  4 37  1  0
  4 38  1  0
  7 39  1  0
  8 40  1  0
 13 41  1  0
 14 42  1  0
 15 43  1  0
 17 44  1  0
 22 45  1  0
 23 46  1  0
 29 47  1  0
 29 48  1  0
 30 49  1  0
 30 50  1  0
M  CHG  1   2   1
M  END
>  <meeko>  (4) 
{"is_sidechain": [false], "free_energy": -8.04, "intermolecular_energy": -10.171, "internal_energy": -0.278}

$$$$
cand_013_out
     RDKit          3D

 50 53  0  0  0  0  0  0  0  0999 V2000
   67.7070   47.5760   -8.6870 C   0  0  0  0  0  0  0  0  0  0  0  0
   68.4320   46.4930   -8.0260 N   0  0  0  0  0  0  0  0  0  0  0  0
   69.0560   46.9750   -6.7710 C   0  0  0  0  0  0  0  0  0  0  0  0
   69.7890   45.8490   -6.0030 C   0  0  0  0  0  0  0  0  0  0  0  0
   68.8500   44.7380   -5.7200 N   0  0  0  0  0  0  0  0  0  0  0  0
   69.4060   43.7370   -4.9070 C   0  0  0  0  0  0  0  0  0  0  0  0
   70.6050   43.0890   -5.2400 C   0  0  0  0  0  0  0  0  0  0  0  0
   71.1480   42.0980   -4.4170 C   0  0  0  0  0  0  0  0  0  0  0  0
   70.5100   41.7290   -3.2290 C   0  0  0  0  0  0  0  0  0  0  0  0
   71.0460   40.6660   -2.3540 C   0  0  0  0  0  0  0  0  0  0  0  0
   70.0710   40.0870   -1.5480 O   0  0  0  0  0  0  0  0  0  0  0  0
   70.4340   39.0870   -0.6830 C   0  0  0  0  0  0  0  0  0  0  0  0
   69.4220   38.5270    0.0980 C   0  0  0  0  0  0  0  0  0  0  0  0
   69.7240   37.5040    1.0000 C   0  0  0  0  0  0  0  0  0  0  0  0
   71.0360   37.0430    1.1220 C   0  0  0  0  0  0  0  0  0  0  0  0
   72.0440   37.6030    0.3420 C   0  0  0  0  0  0  0  0  0  0  0  0
   73.3070   37.1050    0.5120 O   0  0  0  0  0  0  0  0  0  0  0  0
   71.7410   38.6260   -0.5610 C   0  0  0  0  0  0  0  0  0  0  0  0
   72.7710   39.2430   -1.3990 C   0  0  0  0  0  0  0  0  0  0  0  0
   73.9490   38.8980   -1.3450 O   0  0  0  0  0  0  0  0  0  0  0  0
   72.3450   40.3160   -2.3280 C   0  0  0  0  0  0  0  0  0  0  0  0
   73.3280   40.9030   -3.1030 O   0  0  0  0  0  0  0  0  0  0  0  0
   69.3070   42.3680   -2.8980 C   0  0  0  0  0  0  0  0  0  0  0  0
   68.7490   43.3700   -3.7210 C   0  0  0  0  0  0  0  0  0  0  0  0
   67.4540   44.0340   -3.3190 C   0  0  0  0  0  0  0  0  0  0  0  0
   66.9690   43.5640   -2.1280 F   0  0  0  0  0  0  0  0  0  0  0  0
   66.4380   43.8360   -4.2090 F   0  0  0  0  0  0  0  0  0  0  0  0
   67.5600   45.3830   -3.1430 F   0  0  0  0  0  0  0  0  0  0  0  0
   68.2300   44.2200   -6.9640 C   0  0  0  0  0  0  0  0  0  0  0  0
   67.5180   45.3700   -7.7150 C   0  0  0  0  0  0  0  0  0  0  0  0
   67.2641   48.2376   -7.9279 H   0  0  0  0  0  0  0  0  0  0  0  0
   68.4019   48.1525   -9.3153 H   0  0  0  0  0  0  0  0  0  0  0  0
   66.9092   47.1532   -9.3153 H   0  0  0  0  0  0  0  0  0  0  0  0
   69.1610   46.1690   -8.6620 H   0  0  0  0  0  0  0  0  0  0  0  0
   69.7818   47.7637   -7.0182 H   0  0  0  0  0  0  0  0  0  0  0  0
   68.2525   47.3537   -6.1222 H   0  0  0  0  0  0  0  0  0  0  0  0
   70.6238   45.4745   -6.6137 H   0  0  0  0  0  0  0  0  0  0  0  0
   70.1736   46.2492   -5.0533 H   0  0  0  0  0  0  0  0  0  0  0  0
   71.1282   43.3662   -6.1671 H   0  0  0  0  0  0  0  0  0  0  0  0
   72.0868   41.6035   -4.7071 H   0  0  0  0  0  0  0  0  0  0  0  0
   68.3881   38.8906    0.0034 H   0  0  0  0  0  0  0  0  0  0  0  0
   68.9268   37.0610    1.6151 H   0  0  0  0  0  0  0  0  0  0  0  0
   71.2731   36.2383    1.8335 H   0  0  0  0  0  0  0  0  0  0  0  0
   73.5390   36.6820    1.3160 H   0  0  0  0  0  0  0  0  0  0  0  0
   73.3810   40.7090   -4.0180 H   0  0  0  0  0  0  0  0  0  0  0  0
   68.7845   42.0813   -1.9734 H   0  0  0  0  0  0  0  0  0  0  0  0
   69.0106   43.7910   -7.6094 H   0  0  0  0  0  0  0  0  0  0  0  0
   67.4935   43.4447   -6.7063 H   0  0  0  0  0  0  0  0  0  0  0  0
   67.1087   44.9764   -8.6571 H   0  0  0  0  0  0  0  0  0  0  0  0
   66.7231   45.7564   -7.0601 H   0  0  0  0  0  0  0  0  0  0  0  0
  1  2  1  0
  2  3  1  0
  3  4  1  0
  4  5  1  0
  5  6  1  0
  6  7  2  0
  7  8  1  0
  8  9  2  0
  9 10  1  0
 10 11  1  0
 11 12  1  0
 12 13  2  0
 13 14  1  0
 14 15  2  0
 15 16  1  0
 16 17  1  0
 16 18  2  0
 18 19  1  0
 19 20  2  0
 19 21  1  0
 21 22  1  0
  9 23  1  0
 23 24  2  0
 24 25  1  0
 25 26  1  0
 25 27  1  0
 25 28  1  0
  5 29  1  0
 29 30  1  0
 30  2  1  0
 24  6  1  0
 21 10  2  0
 18 12  1  0
  1 31  1  0
  1 32  1  0
  1 33  1  0
  2 34  1  0
  3 35  1  0
  3 36  1  0
  4 37  1  0
  4 38  1  0
  7 39  1  0
  8 40  1  0
 13 41  1  0
 14 42  1  0
 15 43  1  0
 17 44  1  0
 22 45  1  0
 23 46  1  0
 29 47  1  0
 29 48  1  0
 30 49  1  0
 30 50  1  0
M  CHG  1   2   1
M  END
>  <meeko>  (5) 
{"is_sidechain": [false], "free_energy": -7.97, "intermolecular_energy": -10.118, "internal_energy": -0.245}

$$$$
cand_013_out
     RDKit          3D

 50 53  0  0  0  0  0  0  0  0999 V2000
   66.5350   49.0120   -6.9010 C   0  0  0  0  0  0  0  0  0  0  0  0
   66.6200   47.9130   -5.9410 N   0  0  0  0  0  0  0  0  0  0  0  0
   66.5480   46.6070   -6.6380 C   0  0  0  0  0  0  0  0  0  0  0  0
   66.6910   45.4090   -5.6700 C   0  0  0  0  0  0  0  0  0  0  0  0
   67.9600   45.5220   -4.9140 N   0  0  0  0  0  0  0  0  0  0  0  0
   68.2280   44.4000   -4.1100 C   0  0  0  0  0  0  0  0  0  0  0  0
   67.4770   44.1120   -2.9610 C   0  0  0  0  0  0  0  0  0  0  0  0
   67.7530   42.9900   -2.1760 C   0  0  0  0  0  0  0  0  0  0  0  0
   68.7850   42.1130   -2.5210 C   0  0  0  0  0  0  0  0  0  0  0  0
   69.1170   40.9340   -1.6960 C   0  0  0  0  0  0  0  0  0  0  0  0
   70.4830   40.6770   -1.6440 O   0  0  0  0  0  0  0  0  0  0  0  0
   70.9290   39.6060   -0.9130 C   0  0  0  0  0  0  0  0  0  0  0  0
   72.3080   39.3930   -0.8800 C   0  0  0  0  0  0  0  0  0  0  0  0
   72.8290   38.3180   -0.1540 C   0  0  0  0  0  0  0  0  0  0  0  0
   71.9720   37.4590    0.5370 C   0  0  0  0  0  0  0  0  0  0  0  0
   70.5970   37.6750    0.5020 C   0  0  0  0  0  0  0  0  0  0  0  0
   69.8160   36.7950    1.2000 O   0  0  0  0  0  0  0  0  0  0  0  0
   70.0760   38.7490   -0.2240 C   0  0  0  0  0  0  0  0  0  0  0  0
   68.6370   39.0100   -0.2880 C   0  0  0  0  0  0  0  0  0  0  0  0
   67.8200   38.2960    0.2870 O   0  0  0  0  0  0  0  0  0  0  0  0
   68.1880   40.1790   -1.0790 C   0  0  0  0  0  0  0  0  0  0  0  0
   66.8270   40.4080   -1.1460 O   0  0  0  0  0  0  0  0  0  0  0  0
   69.5430   42.4030   -3.6650 C   0  0  0  0  0  0  0  0  0  0  0  0
   69.2740   43.5330   -4.4660 C   0  0  0  0  0  0  0  0  0  0  0  0
   70.1140   43.8000   -5.6910 C   0  0  0  0  0  0  0  0  0  0  0  0
   71.1230   42.8860   -5.8470 F   0  0  0  0  0  0  0  0  0  0  0  0
   70.7440   45.0110   -5.6720 F   0  0  0  0  0  0  0  0  0  0  0  0
   69.4130   43.7450   -6.8610 F   0  0  0  0  0  0  0  0  0  0  0  0
   68.0470   46.8100   -4.1850 C   0  0  0  0  0  0  0  0  0  0  0  0
   67.8870   47.9860   -5.1770 C   0  0  0  0  0  0  0  0  0  0  0  0
   66.4612   49.9668   -6.3597 H   0  0  0  0  0  0  0  0  0  0  0  0
   67.4354   49.0174   -7.5328 H   0  0  0  0  0  0  0  0  0  0  0  0
   65.6445   48.8789   -7.5328 H   0  0  0  0  0  0  0  0  0  0  0  0
   65.8330   47.9960   -5.2980 H   0  0  0  0  0  0  0  0  0  0  0  0
   65.5768   46.5333   -7.1492 H   0  0  0  0  0  0  0  0  0  0  0  0
   67.3850   46.5623   -7.3503 H   0  0  0  0  0  0  0  0  0  0  0  0
   65.8458   45.4057   -4.9660 H   0  0  0  0  0  0  0  0  0  0  0  0
   66.6956   44.4736   -6.2488 H   0  0  0  0  0  0  0  0  0  0  0  0
   66.6544   44.7829   -2.6723 H   0  0  0  0  0  0  0  0  0  0  0  0
   67.1513   42.7945   -1.2761 H   0  0  0  0  0  0  0  0  0  0  0  0
   72.9834   40.0696   -1.4241 H   0  0  0  0  0  0  0  0  0  0  0  0
   73.9155   38.1486   -0.1270 H   0  0  0  0  0  0  0  0  0  0  0  0
   72.3825   36.6131    1.1080 H   0  0  0  0  0  0  0  0  0  0  0  0
   68.8960   36.7450    1.0260 H   0  0  0  0  0  0  0  0  0  0  0  0
   66.4730   41.2220   -0.8470 H   0  0  0  0  0  0  0  0  0  0  0  0
   70.3685   41.7321   -3.9450 H   0  0  0  0  0  0  0  0  0  0  0  0
   67.2477   46.8573   -3.4307 H   0  0  0  0  0  0  0  0  0  0  0  0
   69.0274   46.8823   -3.6915 H   0  0  0  0  0  0  0  0  0  0  0  0
   67.9047   48.9296   -4.6119 H   0  0  0  0  0  0  0  0  0  0  0  0
   68.7163   47.9316   -5.8976 H   0  0  0  0  0  0  0  0  0  0  0  0
  1  2  1  0
  2  3  1  0
  3  4  1  0
  4  5  1  0
  5  6  1  0
  6  7  2  0
  7  8  1  0
  8  9  2  0
  9 10  1  0
 10 11  1  0
 11 12  1  0
 12 13  2  0
 13 14  1  0
 14 15  2  0
 15 16  1  0
 16 17  1  0
 16 18  2  0
 18 19  1  0
 19 20  2  0
 19 21  1  0
 21 22  1  0
  9 23  1  0
 23 24  2  0
 24 25  1  0
 25 26  1  0
 25 27  1  0
 25 28  1  0
  5 29  1  0
 29 30  1  0
 30  2  1  0
 24  6  1  0
 21 10  2  0
 18 12  1  0
  1 31  1  0
  1 32  1  0
  1 33  1  0
  2 34  1  0
  3 35  1  0
  3 36  1  0
  4 37  1  0
  4 38  1  0
  7 39  1  0
  8 40  1  0
 13 41  1  0
 14 42  1  0
 15 43  1  0
 17 44  1  0
 22 45  1  0
 23 46  1  0
 29 47  1  0
 29 48  1  0
 30 49  1  0
 30 50  1  0
M  CHG  1   2   1
M  END
>  <meeko>  (6) 
{"is_sidechain": [false], "free_energy": -7.724, "intermolecular_energy": -9.673, "internal_energy": -0.386}

$$$$
cand_013_out
     RDKit          3D

 50 53  0  0  0  0  0  0  0  0999 V2000
   74.3310   49.2770   -7.7430 C   0  0  0  0  0  0  0  0  0  0  0  0
   73.9160   48.3320   -6.7090 N   0  0  0  0  0  0  0  0  0  0  0  0
   72.9130   47.3830   -7.2460 C   0  0  0  0  0  0  0  0  0  0  0  0
   72.4820   46.3230   -6.2040 C   0  0  0  0  0  0  0  0  0  0  0  0
   73.6730   45.5920   -5.7080 N   0  0  0  0  0  0  0  0  0  0  0  0
   73.3500   44.5210   -4.8580 C   0  0  0  0  0  0  0  0  0  0  0  0
   72.7740   44.7210   -3.5940 C   0  0  0  0  0  0  0  0  0  0  0  0
   72.4550   43.6440   -2.7630 C   0  0  0  0  0  0  0  0  0  0  0  0
   72.6940   42.3290   -3.1740 C   0  0  0  0  0  0  0  0  0  0  0  0
   72.3920   41.1730   -2.3060 C   0  0  0  0  0  0  0  0  0  0  0  0
   71.0450   41.0860   -1.9720 O   0  0  0  0  0  0  0  0  0  0  0  0
   70.6260   40.0590   -1.1650 C   0  0  0  0  0  0  0  0  0  0  0  0
   69.2640   40.0050   -0.8650 C   0  0  0  0  0  0  0  0  0  0  0  0
   68.7720   38.9830   -0.0490 C   0  0  0  0  0  0  0  0  0  0  0  0
   69.6400   38.0190    0.4670 C   0  0  0  0  0  0  0  0  0  0  0  0
   70.9970   38.0760    0.1650 C   0  0  0  0  0  0  0  0  0  0  0  0
   71.7920   37.1000    0.7030 O   0  0  0  0  0  0  0  0  0  0  0  0
   71.4900   39.0970   -0.6520 C   0  0  0  0  0  0  0  0  0  0  0  0
   72.9100   39.1940   -0.9920 C   0  0  0  0  0  0  0  0  0  0  0  0
   73.7370   38.3880   -0.5730 O   0  0  0  0  0  0  0  0  0  0  0  0
   73.3290   40.3110   -1.8710 C   0  0  0  0  0  0  0  0  0  0  0  0
   74.6750   40.4020   -2.1730 O   0  0  0  0  0  0  0  0  0  0  0  0
   73.2770   42.1260   -4.4330 C   0  0  0  0  0  0  0  0  0  0  0  0
   73.6040   43.2060   -5.2820 C   0  0  0  0  0  0  0  0  0  0  0  0
   74.2250   42.9360   -6.6310 C   0  0  0  0  0  0  0  0  0  0  0  0
   73.3290   42.4220   -7.5300 F   0  0  0  0  0  0  0  0  0  0  0  0
   75.2410   42.0260   -6.5950 F   0  0  0  0  0  0  0  0  0  0  0  0
   74.7250   44.0510   -7.2380 F   0  0  0  0  0  0  0  0  0  0  0  0
   74.6830   46.5180   -5.1420 C   0  0  0  0  0  0  0  0  0  0  0  0
   75.0820   47.5720   -6.2020 C   0  0  0  0  0  0  0  0  0  0  0  0
   74.7303   50.1862   -7.2698 H   0  0  0  0  0  0  0  0  0  0  0  0
   75.1099   48.8170   -8.3688 H   0  0  0  0  0  0  0  0  0  0  0  0
   73.4652   49.5393   -8.3688 H   0  0  0  0  0  0  0  0  0  0  0  0
   73.5010   48.8650   -5.9450 H   0  0  0  0  0  0  0  0  0  0  0  0
   72.0244   47.9498   -7.5608 H   0  0  0  0  0  0  0  0  0  0  0  0
   73.3747   46.8519   -8.0914 H   0  0  0  0  0  0  0  0  0  0  0  0
   71.9826   46.8222   -5.3605 H   0  0  0  0  0  0  0  0  0  0  0  0
   71.7895   45.6106   -6.6762 H   0  0  0  0  0  0  0  0  0  0  0  0
   72.5696   45.7459   -3.2507 H   0  0  0  0  0  0  0  0  0  0  0  0
   72.0109   43.8327   -1.7745 H   0  0  0  0  0  0  0  0  0  0  0  0
   68.5796   40.7651   -1.2699 H   0  0  0  0  0  0  0  0  0  0  0  0
   67.6986   38.9379    0.1873 H   0  0  0  0  0  0  0  0  0  0  0  0
   69.2519   37.2161    1.1110 H   0  0  0  0  0  0  0  0  0  0  0  0
   72.6430   36.9390    0.3450 H   0  0  0  0  0  0  0  0  0  0  0  0
   74.9880   40.1190   -3.0100 H   0  0  0  0  0  0  0  0  0  0  0  0
   73.4850   41.0991   -4.7679 H   0  0  0  0  0  0  0  0  0  0  0  0
   74.2600   47.0264   -4.2630 H   0  0  0  0  0  0  0  0  0  0  0  0
   75.5745   45.9455   -4.8464 H   0  0  0  0  0  0  0  0  0  0  0  0
   75.7935   48.2776   -5.7482 H   0  0  0  0  0  0  0  0  0  0  0  0
   75.5307   47.0387   -7.0531 H   0  0  0  0  0  0  0  0  0  0  0  0
  1  2  1  0
  2  3  1  0
  3  4  1  0
  4  5  1  0
  5  6  1  0
  6  7  2  0
  7  8  1  0
  8  9  2  0
  9 10  1  0
 10 11  1  0
 11 12  1  0
 12 13  2  0
 13 14  1  0
 14 15  2  0
 15 16  1  0
 16 17  1  0
 16 18  2  0
 18 19  1  0
 19 20  2  0
 19 21  1  0
 21 22  1  0
  9 23  1  0
 23 24  2  0
 24 25  1  0
 25 26  1  0
 25 27  1  0
 25 28  1  0
  5 29  1  0
 29 30  1  0
 30  2  1  0
 24  6  1  0
 21 10  2  0
 18 12  1  0
  1 31  1  0
  1 32  1  0
  1 33  1  0
  2 34  1  0
  3 35  1  0
  3 36  1  0
  4 37  1  0
  4 38  1  0
  7 39  1  0
  8 40  1  0
 13 41  1  0
 14 42  1  0
 15 43  1  0
 17 44  1  0
 22 45  1  0
 23 46  1  0
 29 47  1  0
 29 48  1  0
 30 49  1  0
 30 50  1  0
M  CHG  1   2   1
M  END
>  <meeko>  (7) 
{"is_sidechain": [false], "free_energy": -7.618, "intermolecular_energy": -9.818, "internal_energy": -0.111}

$$$$
cand_013_out
     RDKit          3D

 50 53  0  0  0  0  0  0  0  0999 V2000
   63.2710   47.4890   -6.3450 C   0  0  0  0  0  0  0  0  0  0  0  0
   64.3400   46.5380   -6.0500 N   0  0  0  0  0  0  0  0  0  0  0  0
   65.3160   47.1300   -5.1050 C   0  0  0  0  0  0  0  0  0  0  0  0
   66.4400   46.1410   -4.7160 C   0  0  0  0  0  0  0  0  0  0  0  0
   65.8490   44.9070   -4.1440 N   0  0  0  0  0  0  0  0  0  0  0  0
   66.8110   44.0150   -3.6420 C   0  0  0  0  0  0  0  0  0  0  0  0
   67.7410   43.3750   -4.4760 C   0  0  0  0  0  0  0  0  0  0  0  0
   68.6940   42.4940   -3.9590 C   0  0  0  0  0  0  0  0  0  0  0  0
   68.7520   42.2300   -2.5870 C   0  0  0  0  0  0  0  0  0  0  0  0
   69.7320   41.2830   -2.0160 C   0  0  0  0  0  0  0  0  0  0  0  0
   69.1420   40.3160   -1.2090 O   0  0  0  0  0  0  0  0  0  0  0  0
   69.9390   39.3740   -0.6120 C   0  0  0  0  0  0  0  0  0  0  0  0
   69.3020   38.4170    0.1800 C   0  0  0  0  0  0  0  0  0  0  0  0
   70.0570   37.4280    0.8170 C   0  0  0  0  0  0  0  0  0  0  0  0
   71.4440   37.3980    0.6640 C   0  0  0  0  0  0  0  0  0  0  0  0
   72.0750   38.3540   -0.1270 C   0  0  0  0  0  0  0  0  0  0  0  0
   73.4370   38.2660   -0.2330 O   0  0  0  0  0  0  0  0  0  0  0  0
   71.3210   39.3420   -0.7640 C   0  0  0  0  0  0  0  0  0  0  0  0
   71.9460   40.3670   -1.6030 C   0  0  0  0  0  0  0  0  0  0  0  0
   73.1610   40.4110   -1.7810 O   0  0  0  0  0  0  0  0  0  0  0  0
   71.0570   41.3660   -2.2400 C   0  0  0  0  0  0  0  0  0  0  0  0
   71.6580   42.3380   -3.0170 O   0  0  0  0  0  0  0  0  0  0  0  0
   67.8200   42.8610   -1.7520 C   0  0  0  0  0  0  0  0  0  0  0  0
   66.8520   43.7530   -2.2620 C   0  0  0  0  0  0  0  0  0  0  0  0
   65.8720   44.4130   -1.3220 C   0  0  0  0  0  0  0  0  0  0  0  0
   66.0920   44.0770   -0.0130 F   0  0  0  0  0  0  0  0  0  0  0  0
   64.5720   44.0680   -1.5550 F   0  0  0  0  0  0  0  0  0  0  0  0
   65.9220   45.7760   -1.3450 F   0  0  0  0  0  0  0  0  0  0  0  0
   64.8870   44.2800   -5.0820 C   0  0  0  0  0  0  0  0  0  0  0  0
   63.7850   45.2970   -5.4620 C   0  0  0  0  0  0  0  0  0  0  0  0
   62.8462   47.8669   -5.4033 H   0  0  0  0  0  0  0  0  0  0  0  0
   63.6779   48.3291   -6.9269 H   0  0  0  0  0  0  0  0  0  0  0  0
   62.4840   46.9871   -6.9269 H   0  0  0  0  0  0  0  0  0  0  0  0
   64.8130   46.3150   -6.9260 H   0  0  0  0  0  0  0  0  0  0  0  0
   65.7713   48.0137   -5.5759 H   0  0  0  0  0  0  0  0  0  0  0  0
   64.7723   47.3956   -4.1864 H   0  0  0  0  0  0  0  0  0  0  0  0
   67.0260   45.8842   -5.6108 H   0  0  0  0  0  0  0  0  0  0  0  0
   67.0936   46.6113   -3.9666 H   0  0  0  0  0  0  0  0  0  0  0  0
   67.7190   43.5710   -5.5582 H   0  0  0  0  0  0  0  0  0  0  0  0
   69.4062   42.0028   -4.6383 H   0  0  0  0  0  0  0  0  0  0  0  0
   68.2091   38.4411    0.3024 H   0  0  0  0  0  0  0  0  0  0  0  0
   69.5570   36.6719    1.4401 H   0  0  0  0  0  0  0  0  0  0  0  0
   72.0373   36.6205    1.1675 H   0  0  0  0  0  0  0  0  0  0  0  0
   73.8410   38.2560   -1.0790 H   0  0  0  0  0  0  0  0  0  0  0  0
   72.4680   42.7220   -2.7440 H   0  0  0  0  0  0  0  0  0  0  0  0
   67.8434   42.6560   -0.6715 H   0  0  0  0  0  0  0  0  0  0  0  0
   65.4184   43.9612   -5.9908 H   0  0  0  0  0  0  0  0  0  0  0  0
   64.4240   43.4078   -4.5974 H   0  0  0  0  0  0  0  0  0  0  0  0
   63.1107   44.8298   -6.1948 H   0  0  0  0  0  0  0  0  0  0  0  0
   63.2508   45.5723   -4.5407 H   0  0  0  0  0  0  0  0  0  0  0  0
  1  2  1  0
  2  3  1  0
  3  4  1  0
  4  5  1  0
  5  6  1  0
  6  7  2  0
  7  8  1  0
  8  9  2  0
  9 10  1  0
 10 11  1  0
 11 12  1  0
 12 13  2  0
 13 14  1  0
 14 15  2  0
 15 16  1  0
 16 17  1  0
 16 18  2  0
 18 19  1  0
 19 20  2  0
 19 21  1  0
 21 22  1  0
  9 23  1  0
 23 24  2  0
 24 25  1  0
 25 26  1  0
 25 27  1  0
 25 28  1  0
  5 29  1  0
 29 30  1  0
 30  2  1  0
 24  6  1  0
 21 10  2  0
 18 12  1  0
  1 31  1  0
  1 32  1  0
  1 33  1  0
  2 34  1  0
  3 35  1  0
  3 36  1  0
  4 37  1  0
  4 38  1  0
  7 39  1  0
  8 40  1  0
 13 41  1  0
 14 42  1  0
 15 43  1  0
 17 44  1  0
 22 45  1  0
 23 46  1  0
 29 47  1  0
 29 48  1  0
 30 49  1  0
 30 50  1  0
M  CHG  1   2   1
M  END
>  <meeko>  (8) 
{"is_sidechain": [false], "free_energy": -7.548, "intermolecular_energy": -9.277, "internal_energy": -0.566}

$$$$
cand_013_out
     RDKit          3D

 50 53  0  0  0  0  0  0  0  0999 V2000
   78.5680   46.9600   -6.2430 C   0  0  0  0  0  0  0  0  0  0  0  0
   77.9190   45.8660   -5.5240 N   0  0  0  0  0  0  0  0  0  0  0  0
   77.2770   46.3660   -4.2860 C   0  0  0  0  0  0  0  0  0  0  0  0
   76.5260   45.2530   -3.5170 C   0  0  0  0  0  0  0  0  0  0  0  0
   75.5190   44.6210   -4.4020 N   0  0  0  0  0  0  0  0  0  0  0  0
   74.7020   43.6920   -3.7360 C   0  0  0  0  0  0  0  0  0  0  0  0
   75.2010   42.4710   -3.2570 C   0  0  0  0  0  0  0  0  0  0  0  0
   74.3760   41.5600   -2.5920 C   0  0  0  0  0  0  0  0  0  0  0  0
   73.0240   41.8460   -2.3780 C   0  0  0  0  0  0  0  0  0  0  0  0
   72.1220   40.8900   -1.7020 C   0  0  0  0  0  0  0  0  0  0  0  0
   72.7980   39.8070   -1.1500 O   0  0  0  0  0  0  0  0  0  0  0  0
   72.0790   38.8410   -0.4950 C   0  0  0  0  0  0  0  0  0  0  0  0
   72.8000   37.7790    0.0530 C   0  0  0  0  0  0  0  0  0  0  0  0
   72.1280   36.7600    0.7340 C   0  0  0  0  0  0  0  0  0  0  0  0
   70.7390   36.8030    0.8650 C   0  0  0  0  0  0  0  0  0  0  0  0
   70.0230   37.8640    0.3170 C   0  0  0  0  0  0  0  0  0  0  0  0
   68.6650   37.8440    0.4820 O   0  0  0  0  0  0  0  0  0  0  0  0
   70.6950   38.8830   -0.3630 C   0  0  0  0  0  0  0  0  0  0  0  0
   69.9800   40.0160   -0.9550 C   0  0  0  0  0  0  0  0  0  0  0  0
   68.7580   40.1220   -0.8880 O   0  0  0  0  0  0  0  0  0  0  0  0
   70.7860   41.0460   -1.6490 C   0  0  0  0  0  0  0  0  0  0  0  0
   70.1010   42.1030   -2.2180 O   0  0  0  0  0  0  0  0  0  0  0  0
   72.5210   43.0610   -2.8630 C   0  0  0  0  0  0  0  0  0  0  0  0
   73.3440   43.9890   -3.5360 C   0  0  0  0  0  0  0  0  0  0  0  0
   72.7570   45.2870   -4.0340 C   0  0  0  0  0  0  0  0  0  0  0  0
   71.3870   45.2830   -4.0260 F   0  0  0  0  0  0  0  0  0  0  0  0
   73.0940   45.5820   -5.3240 F   0  0  0  0  0  0  0  0  0  0  0  0
   73.1060   46.3720   -3.2840 F   0  0  0  0  0  0  0  0  0  0  0  0
   76.1400   44.0890   -5.6390 C   0  0  0  0  0  0  0  0  0  0  0  0
   76.8940   45.2200   -6.3770 C   0  0  0  0  0  0  0  0  0  0  0  0
   78.9912   47.6734   -5.5206 H   0  0  0  0  0  0  0  0  0  0  0  0
   79.3731   46.5568   -6.8748 H   0  0  0  0  0  0  0  0  0  0  0  0
   77.8282   47.4733   -6.8748 H   0  0  0  0  0  0  0  0  0  0  0  0
   78.6350   45.1820   -5.2800 H   0  0  0  0  0  0  0  0  0  0  0  0
   78.0542   46.7852   -3.6301 H   0  0  0  0  0  0  0  0  0  0  0  0
   76.5388   47.1280   -4.5765 H   0  0  0  0  0  0  0  0  0  0  0  0
   77.2458   44.4919   -3.1814 H   0  0  0  0  0  0  0  0  0  0  0  0
   76.0181   45.6933   -2.6463 H   0  0  0  0  0  0  0  0  0  0  0  0
   76.2627   42.2261   -3.4080 H   0  0  0  0  0  0  0  0  0  0  0  0
   74.7944   40.6081   -2.2332 H   0  0  0  0  0  0  0  0  0  0  0  0
   73.8945   37.7440   -0.0508 H   0  0  0  0  0  0  0  0  0  0  0  0
   72.6947   35.9228    1.1674 H   0  0  0  0  0  0  0  0  0  0  0  0
   70.2110   36.0001    1.4002 H   0  0  0  0  0  0  0  0  0  0  0  0
   68.1630   37.1270    0.1450 H   0  0  0  0  0  0  0  0  0  0  0  0
   69.1640   42.1030   -2.2290 H   0  0  0  0  0  0  0  0  0  0  0  0
   71.4569   43.2974   -2.7152 H   0  0  0  0  0  0  0  0  0  0  0  0
   76.8480   43.2890   -5.3769 H   0  0  0  0  0  0  0  0  0  0  0  0
   75.3538   43.6887   -6.2960 H   0  0  0  0  0  0  0  0  0  0  0  0
   77.3885   44.7952   -7.2631 H   0  0  0  0  0  0  0  0  0  0  0  0
   76.1573   45.9878   -6.6557 H   0  0  0  0  0  0  0  0  0  0  0  0
  1  2  1  0
  2  3  1  0
  3  4  1  0
  4  5  1  0
  5  6  1  0
  6  7  2  0
  7  8  1  0
  8  9  2  0
  9 10  1  0
 10 11  1  0
 11 12  1  0
 12 13  2  0
 13 14  1  0
 14 15  2  0
 15 16  1  0
 16 17  1  0
 16 18  2  0
 18 19  1  0
 19 20  2  0
 19 21  1  0
 21 22  1  0
  9 23  1  0
 23 24  2  0
 24 25  1  0
 25 26  1  0
 25 27  1  0
 25 28  1  0
  5 29  1  0
 29 30  1  0
 30  2  1  0
 24  6  1  0
 21 10  2  0
 18 12  1  0
  1 31  1  0
  1 32  1  0
  1 33  1  0
  2 34  1  0
  3 35  1  0
  3 36  1  0
  4 37  1  0
  4 38  1  0
  7 39  1  0
  8 40  1  0
 13 41  1  0
 14 42  1  0
 15 43  1  0
 17 44  1  0
 22 45  1  0
 23 46  1  0
 29 47  1  0
 29 48  1  0
 30 49  1  0
 30 50  1  0
M  CHG  1   2   1
M  END
>  <meeko>  (9) 
{"is_sidechain": [false], "free_energy": -7.488, "intermolecular_energy": -9.759, "internal_energy": -0.009}

$$$$
