cand_035_out
     RDKit          3D

 36 38  0  0  0  0  0  0  0  0999 V2000
   67.6590   38.8670   -0.2320 C   0  0  0  0  0  0  0  0  0  0  0  0
   68.8170   38.8010    0.4340 C   0  0  0  0  0  0  0  0  0  0  0  0
   70.1110   38.8310   -0.2560 C   0  0  0  0  0  0  0  0  0  0  0  0
   70.3790   39.9230   -1.1000 C   0  0  0  0  0  0  0  0  0  0  0  0
   71.5920   40.0260   -1.7960 C   0  0  0  0  0  0  0  0  0  0  0  0
   71.8290   41.1740   -2.6960 C   0  0  0  0  0  0  0  0  0  0  0  0
   72.9970   41.8640   -2.3940 O   0  0  0  0  0  0  0  0  0  0  0  0
   73.3380   42.9540   -3.1520 C   0  0  0  0  0  0  0  0  0  0  0  0
   74.5120   43.6260   -2.8060 C   0  0  0  0  0  0  0  0  0  0  0  0
   74.9170   44.7430   -3.5390 C   0  0  0  0  0  0  0  0  0  0  0  0
   74.1500   45.1890   -4.6180 C   0  0  0  0  0  0  0  0  0  0  0  0
   72.9790   44.5170   -4.9610 C   0  0  0  0  0  0  0  0  0  0  0  0
   72.2780   45.0060   -6.0290 O   0  0  0  0  0  0  0  0  0  0  0  0
   72.5740   43.3990   -4.2270 C   0  0  0  0  0  0  0  0  0  0  0  0
   71.3510   42.6640   -4.5560 C   0  0  0  0  0  0  0  0  0  0  0  0
   70.6280   42.9890   -5.4940 O   0  0  0  0  0  0  0  0  0  0  0  0
   71.0070   41.4970   -3.7110 C   0  0  0  0  0  0  0  0  0  0  0  0
   69.8580   40.8010   -4.0370 O   0  0  0  0  0  0  0  0  0  0  0  0
   72.5330   39.0010   -1.6460 C   0  0  0  0  0  0  0  0  0  0  0  0
   72.2770   37.9110   -0.8090 C   0  0  0  0  0  0  0  0  0  0  0  0
   71.0680   37.8130   -0.1050 C   0  0  0  0  0  0  0  0  0  0  0  0
   70.8220   36.6240    0.7890 C   0  0  0  0  0  0  0  0  0  0  0  0
   71.8990   36.2910    1.5590 F   0  0  0  0  0  0  0  0  0  0  0  0
   66.7063   38.8419    0.3174 H   0  0  0  0  0  0  0  0  0  0  0  0
   67.6593   38.9464   -1.3291 H   0  0  0  0  0  0  0  0  0  0  0  0
   68.7984   38.7219    1.5310 H   0  0  0  0  0  0  0  0  0  0  0  0
   69.6219   40.7125   -1.2167 H   0  0  0  0  0  0  0  0  0  0  0  0
   75.1171   43.2757   -1.9568 H   0  0  0  0  0  0  0  0  0  0  0  0
   75.8417   45.2728   -3.2664 H   0  0  0  0  0  0  0  0  0  0  0  0
   74.4700   46.0688   -5.1955 H   0  0  0  0  0  0  0  0  0  0  0  0
   71.3580   45.1680   -5.9520 H   0  0  0  0  0  0  0  0  0  0  0  0
   69.2760   40.5140   -3.3610 H   0  0  0  0  0  0  0  0  0  0  0  0
   73.4857   39.0537   -2.1934 H   0  0  0  0  0  0  0  0  0  0  0  0
   73.0336   37.1199   -0.7012 H   0  0  0  0  0  0  0  0  0  0  0  0
   69.9771   36.8568    1.4538 H   0  0  0  0  0  0  0  0  0  0  0  0
   70.6130   35.7645    0.1351 H   0  0  0  0  0  0  0  0  0  0  0  0
  1  2  2  0
  2  3  1  0
  3  4  2  0
  4  5  1  0
  5  6  1  0
  6  7  1  0
  7  8  1  0
  8  9  2  0
  9 10  1  0
 10 11  2  0
 11 12  1  0
 12 13  1  0
 12 14  2  0
 14 15  1  0
 15 16  2  0
 15 17  1  0
 17 18  1  0
  5 19  2  0
 19 20  1  0
 20 21  2  0
 21 22  1  0
 22 23  1  0
 21  3  1  0
 17  6  2  0
 14  8  1  0
  1 24  1  0
  1 25  1  0
  2 26  1  0
  4 27  1  0
  9 28  1  0
 10 29  1  0
 11 30  1  0
 13 31  1  0
 18 32  1  0
 19 33  1  0
 20 34  1  0
 22 35  1  0
 22 36  1  0
M  END
>  <meeko>  (1) 
{"is_sidechain": [false], "free_energy": -7.872, "intermolecular_energy": -9.713, "internal_energy": -0.328}

$$$$
cand_035_out
     RDKit          3D

 36 38  0  0  0  0  0  0  0  0999 V2000
   73.3420   39.3220   -1.0370 C   0  0  0  0  0  0  0  0  0  0  0  0
   72.4870   39.2500   -0.0110 C   0  0  0  0  0  0  0  0  0  0  0  0
   71.0350   39.2670   -0.2110 C   0  0  0  0  0  0  0  0  0  0  0  0
   70.4920   40.3000   -0.9930 C   0  0  0  0  0  0  0  0  0  0  0  0
   69.1120   40.3870   -1.2320 C   0  0  0  0  0  0  0  0  0  0  0  0
   68.5740   41.5030   -2.0370 C   0  0  0  0  0  0  0  0  0  0  0  0
   67.6860   42.3030   -1.3260 O   0  0  0  0  0  0  0  0  0  0  0  0
   67.1110   43.3770   -1.9560 C   0  0  0  0  0  0  0  0  0  0  0  0
   66.2160   44.1450   -1.2100 C   0  0  0  0  0  0  0  0  0  0  0  0
   65.5960   45.2530   -1.7910 C   0  0  0  0  0  0  0  0  0  0  0  0
   65.8720   45.5940   -3.1160 C   0  0  0  0  0  0  0  0  0  0  0  0
   66.7660   44.8260   -3.8590 C   0  0  0  0  0  0  0  0  0  0  0  0
   66.9910   45.2180   -5.1500 O   0  0  0  0  0  0  0  0  0  0  0  0
   67.3860   43.7170   -3.2770 C   0  0  0  0  0  0  0  0  0  0  0  0
   68.3310   42.8850   -4.0230 C   0  0  0  0  0  0  0  0  0  0  0  0
   68.6310   43.1240   -5.1890 O   0  0  0  0  0  0  0  0  0  0  0  0
   68.9270   41.7270   -3.3160 C   0  0  0  0  0  0  0  0  0  0  0  0
   69.8300   40.9550   -4.0230 O   0  0  0  0  0  0  0  0  0  0  0  0
   68.2760   39.4250   -0.6550 C   0  0  0  0  0  0  0  0  0  0  0  0
   68.8050   38.3930    0.1250 C   0  0  0  0  0  0  0  0  0  0  0  0
   70.1860   38.2990    0.3550 C   0  0  0  0  0  0  0  0  0  0  0  0
   70.7250   37.1750    1.2030 C   0  0  0  0  0  0  0  0  0  0  0  0
   70.7280   35.9670    0.5640 F   0  0  0  0  0  0  0  0  0  0  0  0
   74.4262   39.3067   -0.8516 H   0  0  0  0  0  0  0  0  0  0  0  0
   72.9610   39.3965   -2.0662 H   0  0  0  0  0  0  0  0  0  0  0  0
   72.8847   39.1759    1.0119 H   0  0  0  0  0  0  0  0  0  0  0  0
   71.1625   41.0564   -1.4270 H   0  0  0  0  0  0  0  0  0  0  0  0
   65.9992   43.8778   -0.1652 H   0  0  0  0  0  0  0  0  0  0  0  0
   64.8893   45.8578   -1.2038 H   0  0  0  0  0  0  0  0  0  0  0  0
   65.3844   46.4678   -3.5729 H   0  0  0  0  0  0  0  0  0  0  0  0
   67.8500   45.4820   -5.4180 H   0  0  0  0  0  0  0  0  0  0  0  0
   69.5860   40.0980   -4.3150 H   0  0  0  0  0  0  0  0  0  0  0  0
   67.1895   39.4815   -0.8172 H   0  0  0  0  0  0  0  0  0  0  0  0
   68.1296   37.6443    0.5646 H   0  0  0  0  0  0  0  0  0  0  0  0
   71.7580   37.4198    1.4910 H   0  0  0  0  0  0  0  0  0  0  0  0
   70.0620   37.0794    2.0755 H   0  0  0  0  0  0  0  0  0  0  0  0
  1  2  2  0
  2  3  1  0
  3  4  2  0
  4  5  1  0
  5  6  1  0
  6  7  1  0
  7  8  1  0
  8  9  2  0
  9 10  1  0
 10 11  2  0
 11 12  1  0
 12 13  1  0
 12 14  2  0
 14 15  1  0
 15 16  2  0
 15 17  1  0
 17 18  1  0
  5 19  2  0
 19 20  1  0
 20 21  2  0
 21 22  1  0
 22 23  1  0
 21  3  1  0
 17  6  2  0
 14  8  1  0
  1 24  1  0
  1 25  1  0
  2 26  1  0
  4 27  1  0
  9 28  1  0
 10 29  1  0
 11 30  1  0
 13 31  1  0
 18 32  1  0
 19 33  1  0
 20 34  1  0
 22 35  1  0
 22 36  1  0
M  END
>  <meeko>  (2) 
{"is_sidechain": [false], "free_energy": -7.622, "intermolecular_energy": -9.326, "internal_energy": -0.407}

$$$$
cand_035_out
     RDKit          3D

 36 38  0  0  0  0  0  0  0  0999 V2000
   76.3520   43.2380   -2.0720 C   0  0  0  0  0  0  0  0  0  0  0  0
   75.4200   43.8290   -2.8290 C   0  0  0  0  0  0  0  0  0  0  0  0
   74.3390   43.0660   -3.4610 C   0  0  0  0  0  0  0  0  0  0  0  0
   73.5530   42.2390   -2.6400 C   0  0  0  0  0  0  0  0  0  0  0  0
   72.5000   41.4770   -3.1670 C   0  0  0  0  0  0  0  0  0  0  0  0
   71.7120   40.5970   -2.2780 C   0  0  0  0  0  0  0  0  0  0  0  0
   72.4650   39.5590   -1.7410 O   0  0  0  0  0  0  0  0  0  0  0  0
   71.8570   38.6660   -0.8970 C   0  0  0  0  0  0  0  0  0  0  0  0
   72.6460   37.6320   -0.3920 C   0  0  0  0  0  0  0  0  0  0  0  0
   72.0880   36.6890    0.4750 C   0  0  0  0  0  0  0  0  0  0  0  0
   70.7420   36.7810    0.8360 C   0  0  0  0  0  0  0  0  0  0  0  0
   69.9560   37.8140    0.3300 C   0  0  0  0  0  0  0  0  0  0  0  0
   68.6470   37.8440    0.7260 O   0  0  0  0  0  0  0  0  0  0  0  0
   70.5150   38.7570   -0.5370 C   0  0  0  0  0  0  0  0  0  0  0  0
   69.7240   39.8570   -1.0910 C   0  0  0  0  0  0  0  0  0  0  0  0
   68.5370   40.0100   -0.8150 O   0  0  0  0  0  0  0  0  0  0  0  0
   70.4100   40.7990   -2.0060 C   0  0  0  0  0  0  0  0  0  0  0  0
   69.6600   41.8440   -2.5120 O   0  0  0  0  0  0  0  0  0  0  0  0
   72.2540   41.5450   -4.5420 C   0  0  0  0  0  0  0  0  0  0  0  0
   73.0290   42.3650   -5.3680 C   0  0  0  0  0  0  0  0  0  0  0  0
   74.0760   43.1350   -4.8400 C   0  0  0  0  0  0  0  0  0  0  0  0
   74.8940   44.0080   -5.7570 C   0  0  0  0  0  0  0  0  0  0  0  0
   76.0880   43.4500   -6.1160 F   0  0  0  0  0  0  0  0  0  0  0  0
   77.1498   43.8397   -1.6121 H   0  0  0  0  0  0  0  0  0  0  0  0
   76.3203   42.1505   -1.9096 H   0  0  0  0  0  0  0  0  0  0  0  0
   75.4661   44.9174   -2.9814 H   0  0  0  0  0  0  0  0  0  0  0  0
   73.7681   42.1884   -1.5624 H   0  0  0  0  0  0  0  0  0  0  0  0
   73.7062   37.5593   -0.6761 H   0  0  0  0  0  0  0  0  0  0  0  0
   72.7094   35.8735    0.8735 H   0  0  0  0  0  0  0  0  0  0  0  0
   70.3030   36.0388    1.5190 H   0  0  0  0  0  0  0  0  0  0  0  0
   67.9890   37.4300    0.2020 H   0  0  0  0  0  0  0  0  0  0  0  0
   69.8180   42.7200   -2.2190 H   0  0  0  0  0  0  0  0  0  0  0  0
   71.4412   40.9463   -4.9789 H   0  0  0  0  0  0  0  0  0  0  0  0
   72.8148   42.4068   -6.4461 H   0  0  0  0  0  0  0  0  0  0  0  0
   74.3100   44.1986   -6.6695 H   0  0  0  0  0  0  0  0  0  0  0  0
   75.1207   44.9333   -5.2071 H   0  0  0  0  0  0  0  0  0  0  0  0
  1  2  2  0
  2  3  1  0
  3  4  2  0
  4  5  1  0
  5  6  1  0
  6  7  1  0
  7  8  1  0
  8  9  2  0
  9 10  1  0
 10 11  2  0
 11 12  1  0
 12 13  1  0
 12 14  2  0
 14 15  1  0
 15 16  2  0
 15 17  1  0
 17 18  1  0
  5 19  2  0
 19 20  1  0
 20 21  2  0
 21 22  1  0
 22 23  1  0
 21  3  1  0
 17  6  2  0
 14  8  1  0
  1 24  1  0
  1 25  1  0
  2 26  1  0
  4 27  1  0
  9 28  1  0
 10 29  1  0
 11 30  1  0
 13 31  1  0
 18 32  1  0
 19 33  1  0
 20 34  1  0
 22 35  1  0
 22 36  1  0
M  END
>  <meeko>  (3) 
{"is_sidechain": [false], "free_energy": -7.55, "intermolecular_energy": -9.102, "internal_energy": -0.543}

$$$$
cand_035_out
     RDKit          3D

 36 38  0  0  0  0  0  0  0  0999 V2000
   76.4240   42.3140   -1.4920 C   0  0  0  0  0  0  0  0  0  0  0  0
   75.8970   42.4760   -2.7110 C   0  0  0  0  0  0  0  0  0  0  0  0
   74.6110   43.1490   -2.9150 C   0  0  0  0  0  0  0  0  0  0  0  0
   73.4400   42.4190   -2.6540 C   0  0  0  0  0  0  0  0  0  0  0  0
   72.1700   42.9900   -2.8250 C   0  0  0  0  0  0  0  0  0  0  0  0
   70.9590   42.1830   -2.5680 C   0  0  0  0  0  0  0  0  0  0  0  0
   71.0860   41.3600   -1.4540 O   0  0  0  0  0  0  0  0  0  0  0  0
   70.0330   40.5550   -1.1010 C   0  0  0  0  0  0  0  0  0  0  0  0
   70.2090   39.7350    0.0140 C   0  0  0  0  0  0  0  0  0  0  0  0
   69.1750   38.8920    0.4290 C   0  0  0  0  0  0  0  0  0  0  0  0
   67.9670   38.8710   -0.2710 C   0  0  0  0  0  0  0  0  0  0  0  0
   67.7950   39.6900   -1.3840 C   0  0  0  0  0  0  0  0  0  0  0  0
   66.5860   39.6190   -2.0220 O   0  0  0  0  0  0  0  0  0  0  0  0
   68.8290   40.5330   -1.7990 C   0  0  0  0  0  0  0  0  0  0  0  0
   68.6890   41.4090   -2.9620 C   0  0  0  0  0  0  0  0  0  0  0  0
   67.6550   41.4530   -3.6240 O   0  0  0  0  0  0  0  0  0  0  0  0
   69.8480   42.2590   -3.3230 C   0  0  0  0  0  0  0  0  0  0  0  0
   69.7010   43.0940   -4.4140 O   0  0  0  0  0  0  0  0  0  0  0  0
   72.0910   44.3110   -3.2810 C   0  0  0  0  0  0  0  0  0  0  0  0
   73.2500   45.0470   -3.5430 C   0  0  0  0  0  0  0  0  0  0  0  0
   74.5210   44.4790   -3.3630 C   0  0  0  0  0  0  0  0  0  0  0  0
   75.7510   45.2990   -3.6560 C   0  0  0  0  0  0  0  0  0  0  0  0
   76.2580   45.9300   -2.5560 F   0  0  0  0  0  0  0  0  0  0  0  0
   77.3915   41.8041   -1.3744 H   0  0  0  0  0  0  0  0  0  0  0  0
   75.8898   42.6907   -0.6073 H   0  0  0  0  0  0  0  0  0  0  0  0
   76.4444   42.0932   -3.5850 H   0  0  0  0  0  0  0  0  0  0  0  0
   73.5202   41.3778   -2.3083 H   0  0  0  0  0  0  0  0  0  0  0  0
   71.1606   39.7522    0.5656 H   0  0  0  0  0  0  0  0  0  0  0  0
   69.3126   38.2446    1.3076 H   0  0  0  0  0  0  0  0  0  0  0  0
   67.1523   38.2084    0.0563 H   0  0  0  0  0  0  0  0  0  0  0  0
   66.0650   38.8430   -1.9550 H   0  0  0  0  0  0  0  0  0  0  0  0
   68.8490   43.3950   -4.6630 H   0  0  0  0  0  0  0  0  0  0  0  0
   71.1057   44.7751   -3.4349 H   0  0  0  0  0  0  0  0  0  0  0  0
   73.1650   46.0857   -3.8951 H   0  0  0  0  0  0  0  0  0  0  0  0
   76.5254   44.6323   -4.0632 H   0  0  0  0  0  0  0  0  0  0  0  0
   75.4566   46.0809   -4.3715 H   0  0  0  0  0  0  0  0  0  0  0  0
  1  2  2  0
  2  3  1  0
  3  4  2  0
  4  5  1  0
  5  6  1  0
  6  7  1  0
  7  8  1  0
  8  9  2  0
  9 10  1  0
 10 11  2  0
 11 12  1  0
 12 13  1  0
 12 14  2  0
 14 15  1  0
 15 16  2  0
 15 17  1  0
 17 18  1  0
  5 19  2  0
 19 20  1  0
 20 21  2  0
 21 22  1  0
 22 23  1  0
 21  3  1  0
 17  6  2  0
 14  8  1  0
  1 24  1  0
  1 25  1  0
  2 26  1  0
  4 27  1  0
  9 28  1  0
 10 29  1  0
 11 30  1  0
 13 31  1  0
 18 32  1  0
 19 33  1  0
 20 34  1  0
 22 35  1  0
 22 36  1  0
M  END
>  <meeko>  (4) 
{"is_sidechain": [false], "free_energy": -7.535, "intermolecular_energy": -9.395, "internal_energy": -0.231}

$$$$
cand_035_out
     RDKit          3D

 36 38  0  0  0  0  0  0  0  0999 V2000
   73.6020   46.0220   -3.4750 C   0  0  0  0  0  0  0  0  0  0  0  0
   74.6600   45.2190   -3.3180 C   0  0  0  0  0  0  0  0  0  0  0  0
   74.5120   43.8020   -2.9730 C   0  0  0  0  0  0  0  0  0  0  0  0
   73.2100   43.2910   -2.8430 C   0  0  0  0  0  0  0  0  0  0  0  0
   72.9830   41.9460   -2.5140 C   0  0  0  0  0  0  0  0  0  0  0  0
   71.6000   41.4500   -2.3590 C   0  0  0  0  0  0  0  0  0  0  0  0
   71.4370   40.6470   -1.2350 O   0  0  0  0  0  0  0  0  0  0  0  0
   70.2000   40.1190   -0.9710 C   0  0  0  0  0  0  0  0  0  0  0  0
   70.0840   39.3080    0.1590 C   0  0  0  0  0  0  0  0  0  0  0  0
   68.8510   38.7400    0.4860 C   0  0  0  0  0  0  0  0  0  0  0  0
   67.7340   38.9830   -0.3160 C   0  0  0  0  0  0  0  0  0  0  0  0
   67.8520   39.7920   -1.4430 C   0  0  0  0  0  0  0  0  0  0  0  0
   66.7180   39.9890   -2.1830 O   0  0  0  0  0  0  0  0  0  0  0  0
   69.0860   40.3600   -1.7700 C   0  0  0  0  0  0  0  0  0  0  0  0
   69.2520   41.2170   -2.9450 C   0  0  0  0  0  0  0  0  0  0  0  0
   68.3160   41.4830   -3.6950 O   0  0  0  0  0  0  0  0  0  0  0  0
   70.6040   41.7630   -3.2080 C   0  0  0  0  0  0  0  0  0  0  0  0
   70.7480   42.5830   -4.3110 O   0  0  0  0  0  0  0  0  0  0  0  0
   74.0910   41.1180   -2.3010 C   0  0  0  0  0  0  0  0  0  0  0  0
   75.3900   41.6160   -2.4280 C   0  0  0  0  0  0  0  0  0  0  0  0
   75.6180   42.9580   -2.7670 C   0  0  0  0  0  0  0  0  0  0  0  0
   77.0320   43.4640   -2.8950 C   0  0  0  0  0  0  0  0  0  0  0  0
   77.4490   43.5910   -4.1890 F   0  0  0  0  0  0  0  0  0  0  0  0
   73.7489   47.0809   -3.7340 H   0  0  0  0  0  0  0  0  0  0  0  0
   72.5850   45.6235   -3.3451 H   0  0  0  0  0  0  0  0  0  0  0  0
   75.6700   45.6337   -3.4516 H   0  0  0  0  0  0  0  0  0  0  0  0
   72.3507   43.9590   -3.0024 H   0  0  0  0  0  0  0  0  0  0  0  0
   70.9633   39.1164    0.7916 H   0  0  0  0  0  0  0  0  0  0  0  0
   68.7595   38.1005    1.3763 H   0  0  0  0  0  0  0  0  0  0  0  0
   66.7626   38.5361   -0.0578 H   0  0  0  0  0  0  0  0  0  0  0  0
   66.6680   40.7060   -2.7840 H   0  0  0  0  0  0  0  0  0  0  0  0
   70.6410   43.5100   -4.2240 H   0  0  0  0  0  0  0  0  0  0  0  0
   73.9373   40.0629   -2.0305 H   0  0  0  0  0  0  0  0  0  0  0  0
   76.2463   40.9463   -2.2598 H   0  0  0  0  0  0  0  0  0  0  0  0
   77.0945   44.4496   -2.4105 H   0  0  0  0  0  0  0  0  0  0  0  0
   77.6865   42.7215   -2.4150 H   0  0  0  0  0  0  0  0  0  0  0  0
  1  2  2  0
  2  3  1  0
  3  4  2  0
  4  5  1  0
  5  6  1  0
  6  7  1  0
  7  8  1  0
  8  9  2  0
  9 10  1  0
 10 11  2  0
 11 12  1  0
 12 13  1  0
 12 14  2  0
 14 15  1  0
 15 16  2  0
 15 17  1  0
 17 18  1  0
  5 19  2  0
 19 20  1  0
 20 21  2  0
 21 22  1  0
 22 23  1  0
 21  3  1  0
 17  6  2  0
 14  8  1  0
  1 24  1  0
  1 25  1  0
  2 26  1  0
  4 27  1  0
  9 28  1  0
 10 29  1  0
 11 30  1  0
 13 31  1  0
 18 32  1  0
 19 33  1  0
 20 34  1  0
 22 35  1  0
 22 36  1  0
M  END
>  <meeko>  (5) 
{"is_sidechain": [false], "free_energy": -7.491, "intermolecular_energy": -9.363, "internal_energy": -0.209}

$$$$
cand_035_out
     RDKit          3D

 36 38  0  0  0  0  0  0  0  0999 V2000
   74.9850   42.6620   -7.1810 C   0  0  0  0  0  0  0  0  0  0  0  0
   73.6920   42.7520   -6.8490 C   0  0  0  0  0  0  0  0  0  0  0  0
   73.2640   43.1080   -5.4920 C   0  0  0  0  0  0  0  0  0  0  0  0
   73.0220   42.0620   -4.5850 C   0  0  0  0  0  0  0  0  0  0  0  0
   72.6090   42.3190   -3.2690 C   0  0  0  0  0  0  0  0  0  0  0  0
   72.3370   41.1940   -2.3510 C   0  0  0  0  0  0  0  0  0  0  0  0
   70.9910   41.0770   -2.0240 O   0  0  0  0  0  0  0  0  0  0  0  0
   70.5980   40.0720   -1.1780 C   0  0  0  0  0  0  0  0  0  0  0  0
   69.2400   39.9990   -0.8660 C   0  0  0  0  0  0  0  0  0  0  0  0
   68.7740   38.9980   -0.0110 C   0  0  0  0  0  0  0  0  0  0  0  0
   69.6660   38.0700    0.5310 C   0  0  0  0  0  0  0  0  0  0  0  0
   71.0210   38.1450    0.2190 C   0  0  0  0  0  0  0  0  0  0  0  0
   71.8370   37.2030    0.7840 O   0  0  0  0  0  0  0  0  0  0  0  0
   71.4870   39.1470   -0.6370 C   0  0  0  0  0  0  0  0  0  0  0  0
   72.9020   39.2600   -0.9910 C   0  0  0  0  0  0  0  0  0  0  0  0
   73.7460   38.4770   -0.5610 O   0  0  0  0  0  0  0  0  0  0  0  0
   73.2940   40.3620   -1.9000 C   0  0  0  0  0  0  0  0  0  0  0  0
   74.6310   40.4530   -2.2400 O   0  0  0  0  0  0  0  0  0  0  0  0
   72.4260   43.6500   -2.8780 C   0  0  0  0  0  0  0  0  0  0  0  0
   72.6650   44.6970   -3.7720 C   0  0  0  0  0  0  0  0  0  0  0  0
   73.0870   44.4420   -5.0850 C   0  0  0  0  0  0  0  0  0  0  0  0
   73.3340   45.5940   -6.0250 C   0  0  0  0  0  0  0  0  0  0  0  0
   74.6550   45.9210   -6.1480 F   0  0  0  0  0  0  0  0  0  0  0  0
   75.2716   42.3926   -8.2083 H   0  0  0  0  0  0  0  0  0  0  0  0
   75.7614   42.8574   -6.4267 H   0  0  0  0  0  0  0  0  0  0  0  0
   72.9284   42.5534   -7.6154 H   0  0  0  0  0  0  0  0  0  0  0  0
   73.1591   41.0212   -4.9134 H   0  0  0  0  0  0  0  0  0  0  0  0
   68.5370   40.7293   -1.2932 H   0  0  0  0  0  0  0  0  0  0  0  0
   67.7036   38.9404    0.2358 H   0  0  0  0  0  0  0  0  0  0  0  0
   69.2986   37.2808    1.2035 H   0  0  0  0  0  0  0  0  0  0  0  0
   71.7160   36.9540    1.6790 H   0  0  0  0  0  0  0  0  0  0  0  0
   74.8790   40.7840   -3.0810 H   0  0  0  0  0  0  0  0  0  0  0  0
   72.0901   43.8748   -1.8549 H   0  0  0  0  0  0  0  0  0  0  0  0
   72.5201   45.7360   -3.4413 H   0  0  0  0  0  0  0  0  0  0  0  0
   72.9482   45.3220   -7.0186 H   0  0  0  0  0  0  0  0  0  0  0  0
   72.8203   46.4714   -5.6051 H   0  0  0  0  0  0  0  0  0  0  0  0
  1  2  2  0
  2  3  1  0
  3  4  2  0
  4  5  1  0
  5  6  1  0
  6  7  1  0
  7  8  1  0
  8  9  2  0
  9 10  1  0
 10 11  2  0
 11 12  1  0
 12 13  1  0
 12 14  2  0
 14 15  1  0
 15 16  2  0
 15 17  1  0
 17 18  1  0
  5 19  2  0
 19 20  1  0
 20 21  2  0
 21 22  1  0
 22 23  1  0
 21  3  1  0
 17  6  2  0
 14  8  1  0
  1 24  1  0
  1 25  1  0
  2 26  1  0
  4 27  1  0
  9 28  1  0
 10 29  1  0
 11 30  1  0
 13 31  1  0
 18 32  1  0
 19 33  1  0
 20 34  1  0
 22 35  1  0
 22 36  1  0
M  END
>  <meeko>  (6) 
{"is_sidechain": [false], "free_energy": -7.473, "intermolecular_energy": -9.061, "internal_energy": -0.488}

$$$$
cand_035_out
     RDKit          3D

 36 38  0  0  0  0  0  0  0  0999 V2000
   75.3240   45.7450   -3.2810 C   0  0  0  0  0  0  0  0  0  0  0  0
   73.9860   45.7340   -3.2950 C   0  0  0  0  0  0  0  0  0  0  0  0
   73.2270   44.5970   -3.8250 C   0  0  0  0  0  0  0  0  0  0  0  0
   73.0230   43.4930   -2.9790 C   0  0  0  0  0  0  0  0  0  0  0  0
   72.3070   42.3660   -3.4110 C   0  0  0  0  0  0  0  0  0  0  0  0
   72.1360   41.2120   -2.5040 C   0  0  0  0  0  0  0  0  0  0  0  0
   70.8310   41.0780   -2.0420 O   0  0  0  0  0  0  0  0  0  0  0  0
   70.5320   40.0460   -1.1900 C   0  0  0  0  0  0  0  0  0  0  0  0
   69.2130   39.9570   -0.7400 C   0  0  0  0  0  0  0  0  0  0  0  0
   68.8420   38.9280    0.1280 C   0  0  0  0  0  0  0  0  0  0  0  0
   69.7870   37.9880    0.5450 C   0  0  0  0  0  0  0  0  0  0  0  0
   71.1020   38.0800    0.0950 C   0  0  0  0  0  0  0  0  0  0  0  0
   71.9750   37.1260    0.5420 O   0  0  0  0  0  0  0  0  0  0  0  0
   71.4740   39.1100   -0.7740 C   0  0  0  0  0  0  0  0  0  0  0  0
   72.8440   39.2410   -1.2700 C   0  0  0  0  0  0  0  0  0  0  0  0
   73.7300   38.4500   -0.9550 O   0  0  0  0  0  0  0  0  0  0  0  0
   73.1360   40.3720   -2.1810 C   0  0  0  0  0  0  0  0  0  0  0  0
   74.4290   40.4800   -2.6570 O   0  0  0  0  0  0  0  0  0  0  0  0
   71.8090   42.3550   -4.7180 C   0  0  0  0  0  0  0  0  0  0  0  0
   72.0070   43.4480   -5.5680 C   0  0  0  0  0  0  0  0  0  0  0  0
   72.7130   44.5790   -5.1330 C   0  0  0  0  0  0  0  0  0  0  0  0
   72.9100   45.7410   -6.0740 C   0  0  0  0  0  0  0  0  0  0  0  0
   74.0260   45.6270   -6.8520 F   0  0  0  0  0  0  0  0  0  0  0  0
   75.8627   46.6144   -2.8760 H   0  0  0  0  0  0  0  0  0  0  0  0
   75.8852   44.8847   -3.6745 H   0  0  0  0  0  0  0  0  0  0  0  0
   73.4402   46.6024   -2.8977 H   0  0  0  0  0  0  0  0  0  0  0  0
   73.4327   43.5129   -1.9583 H   0  0  0  0  0  0  0  0  0  0  0  0
   68.4676   40.6962   -1.0687 H   0  0  0  0  0  0  0  0  0  0  0  0
   67.8036   38.8576    0.4840 H   0  0  0  0  0  0  0  0  0  0  0  0
   69.4935   37.1767    1.2274 H   0  0  0  0  0  0  0  0  0  0  0  0
   71.7830   36.2180    0.4150 H   0  0  0  0  0  0  0  0  0  0  0  0
   74.5970   40.9300   -3.4620 H   0  0  0  0  0  0  0  0  0  0  0  0
   71.2553   41.4768   -5.0815 H   0  0  0  0  0  0  0  0  0  0  0  0
   71.6037   43.4201   -6.5910 H   0  0  0  0  0  0  0  0  0  0  0  0
   72.0316   45.8088   -6.7326 H   0  0  0  0  0  0  0  0  0  0  0  0
   73.0370   46.6414   -5.4550 H   0  0  0  0  0  0  0  0  0  0  0  0
  1  2  2  0
  2  3  1  0
  3  4  2  0
  4  5  1  0
  5  6  1  0
  6  7  1  0
  7  8  1  0
  8  9  2  0
  9 10  1  0
 10 11  2  0
 11 12  1  0
 12 13  1  0
 12 14  2  0
 14 15  1  0
 15 16  2  0
 15 17  1  0
 17 18  1  0
  5 19  2  0
 19 20  1  0
 20 21  2  0
 21 22  1  0
 22 23  1  0
 21  3  1  0
 17  6  2  0
 14  8  1  0
  1 24  1  0
  1 25  1  0
  2 26  1  0
  4 27  1  0
  9 28  1  0
 10 29  1  0
 11 30  1  0
 13 31  1  0
 18 32  1  0
 19 33  1  0
 20 34  1  0
 22 35  1  0
 22 36  1  0
M  END
>  <meeko>  (7) 
{"is_sidechain": [false], "free_energy": -7.468, "intermolecular_energy": -8.984, "internal_energy": -0.558}

$$$$
cand_035_out
     RDKit          3D

 36 38  0  0  0  0  0  0  0  0999 V2000
   70.3820   37.6240    0.6200 C   0  0  0  0  0  0  0  0  0  0  0  0
   69.7160   38.7850    0.5950 C   0  0  0  0  0  0  0  0  0  0  0  0
   69.7700   39.6830   -0.5630 C   0  0  0  0  0  0  0  0  0  0  0  0
   71.0110   40.2540   -0.8930 C   0  0  0  0  0  0  0  0  0  0  0  0
   71.1470   41.1240   -1.9850 C   0  0  0  0  0  0  0  0  0  0  0  0
   72.4610   41.7280   -2.2860 C   0  0  0  0  0  0  0  0  0  0  0  0
   72.3720   43.0720   -2.6320 O   0  0  0  0  0  0  0  0  0  0  0  0
   73.5200   43.7560   -2.9360 C   0  0  0  0  0  0  0  0  0  0  0  0
   73.3830   45.0990   -3.2910 C   0  0  0  0  0  0  0  0  0  0  0  0
   74.5140   45.8540   -3.6110 C   0  0  0  0  0  0  0  0  0  0  0  0
   75.7800   45.2660   -3.5760 C   0  0  0  0  0  0  0  0  0  0  0  0
   75.9140   43.9260   -3.2220 C   0  0  0  0  0  0  0  0  0  0  0  0
   77.1830   43.4160   -3.2070 O   0  0  0  0  0  0  0  0  0  0  0  0
   74.7820   43.1710   -2.9020 C   0  0  0  0  0  0  0  0  0  0  0  0
   74.8800   41.7600   -2.5250 C   0  0  0  0  0  0  0  0  0  0  0  0
   75.9580   41.1750   -2.4630 O   0  0  0  0  0  0  0  0  0  0  0  0
   73.6200   41.0480   -2.2110 C   0  0  0  0  0  0  0  0  0  0  0  0
   73.7220   39.7200   -1.8410 O   0  0  0  0  0  0  0  0  0  0  0  0
   70.0070   41.4270   -2.7380 C   0  0  0  0  0  0  0  0  0  0  0  0
   68.7680   40.8650   -2.4190 C   0  0  0  0  0  0  0  0  0  0  0  0
   68.6340   39.9870   -1.3330 C   0  0  0  0  0  0  0  0  0  0  0  0
   67.2830   39.3970   -1.0140 C   0  0  0  0  0  0  0  0  0  0  0  0
   66.5920   38.9950   -2.1210 F   0  0  0  0  0  0  0  0  0  0  0  0
   70.3200   36.9733    1.5048 H   0  0  0  0  0  0  0  0  0  0  0  0
   70.9912   37.3207   -0.2442 H   0  0  0  0  0  0  0  0  0  0  0  0
   69.1114   39.0734    1.4675 H   0  0  0  0  0  0  0  0  0  0  0  0
   71.8939   40.0138   -0.2824 H   0  0  0  0  0  0  0  0  0  0  0  0
   72.3857   45.5623   -3.3188 H   0  0  0  0  0  0  0  0  0  0  0  0
   74.4071   46.9125   -3.8907 H   0  0  0  0  0  0  0  0  0  0  0  0
   76.6705   45.8607   -3.8278 H   0  0  0  0  0  0  0  0  0  0  0  0
   77.3840   42.6420   -3.6970 H   0  0  0  0  0  0  0  0  0  0  0  0
   72.9770   39.1550   -1.9100 H   0  0  0  0  0  0  0  0  0  0  0  0
   70.0872   42.1161   -3.5916 H   0  0  0  0  0  0  0  0  0  0  0  0
   67.8861   41.1143   -3.0274 H   0  0  0  0  0  0  0  0  0  0  0  0
   67.4289   38.5258   -0.3585 H   0  0  0  0  0  0  0  0  0  0  0  0
   66.6898   40.1867   -0.5298 H   0  0  0  0  0  0  0  0  0  0  0  0
  1  2  2  0
  2  3  1  0
  3  4  2  0
  4  5  1  0
  5  6  1  0
  6  7  1  0
  7  8  1  0
  8  9  2  0
  9 10  1  0
 10 11  2  0
 11 12  1  0
 12 13  1  0
 12 14  2  0
 14 15  1  0
 15 16  2  0
 15 17  1  0
 17 18  1  0
  5 19  2  0
 19 20  1  0
 20 21  2  0
 21 22  1  0
 22 23  1  0
 21  3  1  0
 17  6  2  0
 14  8  1  0
  1 24  1  0
  1 25  1  0
  2 26  1  0
  4 27  1  0
  9 28  1  0
 10 29  1  0
 11 30  1  0
 13 31  1  0
 18 32  1  0
 19 33  1  0
 20 34  1  0
 22 35  1  0
 22 36  1  0
M  END
>  <meeko>  (8) 
{"is_sidechain": [false], "free_energy": -7.375, "intermolecular_energy": -9.279, "internal_energy": -0.15}

$$$$
cand_035_out
     RDKit          3D

 36 38  0  0  0  0  0  0  0  0999 V2000
   74.2840   42.7170   -6.7370 C   0  0  0  0  0  0  0  0  0  0  0  0
   75.4090   42.5250   -6.0390 C   0  0  0  0  0  0  0  0  0  0  0  0
   75.4020   42.3950   -4.5780 C   0  0  0  0  0  0  0  0  0  0  0  0
   74.3030   41.7530   -3.9820 C   0  0  0  0  0  0  0  0  0  0  0  0
   74.2200   41.5900   -2.5910 C   0  0  0  0  0  0  0  0  0  0  0  0
   73.0370   40.9330   -1.9970 C   0  0  0  0  0  0  0  0  0  0  0  0
   73.3450   39.7330   -1.3670 O   0  0  0  0  0  0  0  0  0  0  0  0
   72.3370   39.0180   -0.7720 C   0  0  0  0  0  0  0  0  0  0  0  0
   72.6890   37.8130   -0.1630 C   0  0  0  0  0  0  0  0  0  0  0  0
   71.7100   37.0370    0.4630 C   0  0  0  0  0  0  0  0  0  0  0  0
   70.3820   37.4670    0.4800 C   0  0  0  0  0  0  0  0  0  0  0  0
   70.0340   38.6710   -0.1290 C   0  0  0  0  0  0  0  0  0  0  0  0
   68.7150   39.0320   -0.0730 O   0  0  0  0  0  0  0  0  0  0  0  0
   71.0130   39.4460   -0.7550 C   0  0  0  0  0  0  0  0  0  0  0  0
   70.6890   40.7170   -1.4050 C   0  0  0  0  0  0  0  0  0  0  0  0
   69.5460   41.1650   -1.4260 O   0  0  0  0  0  0  0  0  0  0  0  0
   71.7990   41.4590   -2.0470 C   0  0  0  0  0  0  0  0  0  0  0  0
   71.4870   42.6650   -2.6460 O   0  0  0  0  0  0  0  0  0  0  0  0
   75.2550   42.0980   -1.7990 C   0  0  0  0  0  0  0  0  0  0  0  0
   76.3520   42.7390   -2.3820 C   0  0  0  0  0  0  0  0  0  0  0  0
   76.4410   42.8940   -3.7730 C   0  0  0  0  0  0  0  0  0  0  0  0
   77.6380   43.5900   -4.3700 C   0  0  0  0  0  0  0  0  0  0  0  0
   78.5900   42.7300   -4.8370 F   0  0  0  0  0  0  0  0  0  0  0  0
   74.3254   42.8103   -7.8323 H   0  0  0  0  0  0  0  0  0  0  0  0
   73.3175   42.7816   -6.2157 H   0  0  0  0  0  0  0  0  0  0  0  0
   76.3669   42.4628   -6.5762 H   0  0  0  0  0  0  0  0  0  0  0  0
   73.4917   41.3707   -4.6189 H   0  0  0  0  0  0  0  0  0  0  0  0
   73.7355   37.4744   -0.1757 H   0  0  0  0  0  0  0  0  0  0  0  0
   71.9860   36.0864    0.9428 H   0  0  0  0  0  0  0  0  0  0  0  0
   69.6115   36.8563    0.9734 H   0  0  0  0  0  0  0  0  0  0  0  0
   68.1360   38.8040   -0.7740 H   0  0  0  0  0  0  0  0  0  0  0  0
   71.7720   43.4690   -2.2580 H   0  0  0  0  0  0  0  0  0  0  0  0
   75.2052   41.9919   -0.7053 H   0  0  0  0  0  0  0  0  0  0  0  0
   77.1569   43.1273   -1.7406 H   0  0  0  0  0  0  0  0  0  0  0  0
   77.2951   44.2174   -5.2059 H   0  0  0  0  0  0  0  0  0  0  0  0
   78.1020   44.1823   -3.5675 H   0  0  0  0  0  0  0  0  0  0  0  0
  1  2  2  0
  2  3  1  0
  3  4  2  0
  4  5  1  0
  5  6  1  0
  6  7  1  0
  7  8  1  0
  8  9  2  0
  9 10  1  0
 10 11  2  0
 11 12  1  0
 12 13  1  0
 12 14  2  0
 14 15  1  0
 15 16  2  0
 15 17  1  0
 17 18  1  0
  5 19  2  0
 19 20  1  0
 20 21  2  0
 21 22  1  0
 22 23  1  0
 21  3  1  0
 17  6  2  0
 14  8  1  0
  1 24  1  0
  1 25  1  0
  2 26  1  0
  4 27  1  0
  9 28  1  0
 10 29  1  0
 11 30  1  0
 13 31  1  0
 18 32  1  0
 19 33  1  0
 20 34  1  0
 22 35  1  0
 22 36  1  0
M  END
>  <meeko>  (9) 
{"is_sidechain": [false], "free_energy": -7.29, "intermolecular_energy": -8.856, "internal_energy": -0.466}

$$$$
