cand_053_out
     RDKit          3D

 44 46  0  0  0  0  0  0  0  0999 V2000
   48.7030  161.5030   33.8520 C   0  0  0  0  0  0  0  0  0  0  0  0
   50.0260  161.1630   33.1830 C   0  0  0  0  0  0  0  0  0  0  0  0
   49.9370  161.3200   31.6630 C   0  0  0  0  0  0  0  0  0  0  0  0
   50.3640  160.0580   30.9440 C   0  0  0  0  0  0  0  0  0  0  0  0
   51.6480  160.0250   30.3730 C   0  0  0  0  0  0  0  0  0  0  0  0
   52.1130  158.8890   29.7070 C   0  0  0  0  0  0  0  0  0  0  0  0
   51.3130  157.7490   29.5980 C   0  0  0  0  0  0  0  0  0  0  0  0
   51.8100  156.5670   28.8620 C   0  0  0  0  0  0  0  0  0  0  0  0
   52.3980  156.8970   27.6460 O   0  0  0  0  0  0  0  0  0  0  0  0
   52.9030  155.8940   26.8580 C   0  0  0  0  0  0  0  0  0  0  0  0
   53.4690  156.2700   25.6400 C   0  0  0  0  0  0  0  0  0  0  0  0
   54.0040  155.2970   24.7900 C   0  0  0  0  0  0  0  0  0  0  0  0
   53.9720  153.9510   25.1610 C   0  0  0  0  0  0  0  0  0  0  0  0
   53.4050  153.5800   26.3770 C   0  0  0  0  0  0  0  0  0  0  0  0
   53.4070  152.2450   26.6770 O   0  0  0  0  0  0  0  0  0  0  0  0
   52.8700  154.5530   27.2260 C   0  0  0  0  0  0  0  0  0  0  0  0
   52.2660  154.2060   28.5130 C   0  0  0  0  0  0  0  0  0  0  0  0
   52.2080  153.0440   28.9120 O   0  0  0  0  0  0  0  0  0  0  0  0
   51.7200  155.3100   29.3340 C   0  0  0  0  0  0  0  0  0  0  0  0
   51.1640  154.9710   30.5540 O   0  0  0  0  0  0  0  0  0  0  0  0
   50.0310  157.7810   30.1630 C   0  0  0  0  0  0  0  0  0  0  0  0
   49.5460  158.9160   30.8470 C   0  0  0  0  0  0  0  0  0  0  0  0
   48.1470  158.8530   31.4180 C   0  0  0  0  0  0  0  0  0  0  0  0
   47.2310  159.8960   30.7950 C   0  0  0  0  0  0  0  0  0  0  0  0
   48.8259  161.4714   34.9447 H   0  0  0  0  0  0  0  0  0  0  0  0
   48.3867  162.5116   33.5476 H   0  0  0  0  0  0  0  0  0  0  0  0
   47.9396  160.7719   33.5476 H   0  0  0  0  0  0  0  0  0  0  0  0
   50.8057  161.8368   33.5678 H   0  0  0  0  0  0  0  0  0  0  0  0
   50.2707  160.1149   33.4101 H   0  0  0  0  0  0  0  0  0  0  0  0
   48.8973  161.5521   31.3888 H   0  0  0  0  0  0  0  0  0  0  0  0
   50.6147  162.1324   31.3618 H   0  0  0  0  0  0  0  0  0  0  0  0
   52.2977  160.9091   30.4521 H   0  0  0  0  0  0  0  0  0  0  0  0
   53.1197  158.8919   29.2636 H   0  0  0  0  0  0  0  0  0  0  0  0
   53.4945  157.3304   25.3484 H   0  0  0  0  0  0  0  0  0  0  0  0
   54.4502  155.5919   23.8288 H   0  0  0  0  0  0  0  0  0  0  0  0
   54.3941  153.1853   24.4935 H   0  0  0  0  0  0  0  0  0  0  0  0
   52.6070  151.8160   26.9080 H   0  0  0  0  0  0  0  0  0  0  0  0
   50.5720  155.5600   30.9780 H   0  0  0  0  0  0  0  0  0  0  0  0
   49.3842  156.8960   30.0707 H   0  0  0  0  0  0  0  0  0  0  0  0
   47.7296  157.8535   31.2263 H   0  0  0  0  0  0  0  0  0  0  0  0
   48.2104  159.0567   32.4971 H   0  0  0  0  0  0  0  0  0  0  0  0
   46.7300  160.4664   31.5910 H   0  0  0  0  0  0  0  0  0  0  0  0
   47.8252  160.5805   30.1718 H   0  0  0  0  0  0  0  0  0  0  0  0
   46.4755  159.3951   30.1718 H   0  0  0  0  0  0  0  0  0  0  0  0
  1  2  1  0
  2  3  1  0
  3  4  1  0
  4  5  2  0
  5  6  1  0
  6  7  2  0
  7  8  1  0
  8  9  1  0
  9 10  1  0
 10 11  2  0
 11 12  1  0
 12 13  2  0
 13 14  1  0
 14 15  1  0
 14 16  2  0
 16 17  1  0
 17 18  2  0
 17 19  1  0
 19 20  1  0
  7 21  1  0
 21 22  2  0
 22 23  1  0
 23 24  1  0
 22  4  1  0
 19  8  2  0
 16 10  1  0
  1 25  1  0
  1 26  1  0
  1 27  1  0
  2 28  1  0
  2 29  1  0
  3 30  1  0
  3 31  1  0
  5 32  1  0
  6 33  1  0
 11 34  1  0
 12 35  1  0
 13 36  1  0
 15 37  1  0
 20 38  1  0
 21 39  1  0
 23 40  1  0
 23 41  1  0
 24 42  1  0
 24 43  1  0
 24 44  1  0
M  END
>  <meeko>  (1) 
{"is_sidechain": [false], "free_energy": -10.828, "intermolecular_energy": -13.993, "internal_energy": -0.21}

$$$$
cand_053_out
     RDKit          3D

 44 46  0  0  0  0  0  0  0  0999 V2000
   49.6060  161.7410   33.8530 C   0  0  0  0  0  0  0  0  0  0  0  0
   49.1350  160.4640   33.1750 C   0  0  0  0  0  0  0  0  0  0  0  0
   48.9980  160.6540   31.6630 C   0  0  0  0  0  0  0  0  0  0  0  0
   49.7570  159.5950   30.8940 C   0  0  0  0  0  0  0  0  0  0  0  0
   49.1490  158.3390   30.7230 C   0  0  0  0  0  0  0  0  0  0  0  0
   49.7860  157.3190   30.0130 C   0  0  0  0  0  0  0  0  0  0  0  0
   51.0460  157.5260   29.4430 C   0  0  0  0  0  0  0  0  0  0  0  0
   51.7180  156.4240   28.7220 C   0  0  0  0  0  0  0  0  0  0  0  0
   52.2700  156.8290   27.5110 O   0  0  0  0  0  0  0  0  0  0  0  0
   52.9240  155.9050   26.7370 C   0  0  0  0  0  0  0  0  0  0  0  0
   53.4480  156.3520   25.5240 C   0  0  0  0  0  0  0  0  0  0  0  0
   54.1290  155.4630   24.6880 C   0  0  0  0  0  0  0  0  0  0  0  0
   54.2840  154.1270   25.0670 C   0  0  0  0  0  0  0  0  0  0  0  0
   53.7590  153.6850   26.2790 C   0  0  0  0  0  0  0  0  0  0  0  0
   53.9480  152.3650   26.5880 O   0  0  0  0  0  0  0  0  0  0  0  0
   53.0790  154.5750   27.1140 C   0  0  0  0  0  0  0  0  0  0  0  0
   52.5120  154.1510   28.3940 C   0  0  0  0  0  0  0  0  0  0  0  0
   52.6150  152.9940   28.8000 O   0  0  0  0  0  0  0  0  0  0  0  0
   51.8020  155.1700   29.2010 C   0  0  0  0  0  0  0  0  0  0  0  0
   51.2830  154.7600   30.4160 O   0  0  0  0  0  0  0  0  0  0  0  0
   51.6550  158.7760   29.6160 C   0  0  0  0  0  0  0  0  0  0  0  0
   51.0250  159.8220   30.3220 C   0  0  0  0  0  0  0  0  0  0  0  0
   51.7660  161.1320   30.4570 C   0  0  0  0  0  0  0  0  0  0  0  0
   52.6500  161.1620   31.6940 C   0  0  0  0  0  0  0  0  0  0  0  0
   49.5596  161.6151   34.9448 H   0  0  0  0  0  0  0  0  0  0  0  0
   50.6422  161.9550   33.5523 H   0  0  0  0  0  0  0  0  0  0  0  0
   48.9569  162.5766   33.5523 H   0  0  0  0  0  0  0  0  0  0  0  0
   49.8647  159.6645   33.3708 H   0  0  0  0  0  0  0  0  0  0  0  0
   48.1480  160.1991   33.5820 H   0  0  0  0  0  0  0  0  0  0  0  0
   47.9335  160.5971   31.3917 H   0  0  0  0  0  0  0  0  0  0  0  0
   49.4200  161.6356   31.4015 H   0  0  0  0  0  0  0  0  0  0  0  0
   48.1544  158.1565   31.1559 H   0  0  0  0  0  0  0  0  0  0  0  0
   49.2915  156.3428   29.9010 H   0  0  0  0  0  0  0  0  0  0  0  0
   53.3253  157.4036   25.2257 H   0  0  0  0  0  0  0  0  0  0  0  0
   54.5430  155.8150   23.7316 H   0  0  0  0  0  0  0  0  0  0  0  0
   54.8194  153.4260   24.4097 H   0  0  0  0  0  0  0  0  0  0  0  0
   54.5810  152.1210   27.2340 H   0  0  0  0  0  0  0  0  0  0  0  0
   51.4650  153.8990   30.7360 H   0  0  0  0  0  0  0  0  0  0  0  0
   52.6541  158.9466   29.1885 H   0  0  0  0  0  0  0  0  0  0  0  0
   52.3958  161.2771   29.5669 H   0  0  0  0  0  0  0  0  0  0  0  0
   51.0208  161.9354   30.5526 H   0  0  0  0  0  0  0  0  0  0  0  0
   52.0200  161.1406   32.5955 H   0  0  0  0  0  0  0  0  0  0  0  0
   53.3152  160.2859   31.6907 H   0  0  0  0  0  0  0  0  0  0  0  0
   53.2543  162.0812   31.6907 H   0  0  0  0  0  0  0  0  0  0  0  0
  1  2  1  0
  2  3  1  0
  3  4  1  0
  4  5  2  0
  5  6  1  0
  6  7  2  0
  7  8  1  0
  8  9  1  0
  9 10  1  0
 10 11  2  0
 11 12  1  0
 12 13  2  0
 13 14  1  0
 14 15  1  0
 14 16  2  0
 16 17  1  0
 17 18  2  0
 17 19  1  0
 19 20  1  0
  7 21  1  0
 21 22  2  0
 22 23  1  0
 23 24  1  0
 22  4  1  0
 19  8  2  0
 16 10  1  0
  1 25  1  0
  1 26  1  0
  1 27  1  0
  2 28  1  0
  2 29  1  0
  3 30  1  0
  3 31  1  0
  5 32  1  0
  6 33  1  0
 11 34  1  0
 12 35  1  0
 13 36  1  0
 15 37  1  0
 20 38  1  0
 21 39  1  0
 23 40  1  0
 23 41  1  0
 24 42  1  0
 24 43  1  0
 24 44  1  0
M  END
>  <meeko>  (2) 
{"is_sidechain": [false], "free_energy": -10.402, "intermolecular_energy": -13.038, "internal_energy": -0.615}

$$$$
cand_053_out
     RDKit          3D

 44 46  0  0  0  0  0  0  0  0999 V2000
   54.3410  151.0200   24.8030 C   0  0  0  0  0  0  0  0  0  0  0  0
   54.1590  152.0740   25.8840 C   0  0  0  0  0  0  0  0  0  0  0  0
   52.6940  152.1890   26.3090 C   0  0  0  0  0  0  0  0  0  0  0  0
   52.4110  153.5110   26.9900 C   0  0  0  0  0  0  0  0  0  0  0  0
   51.9660  153.4850   28.3230 C   0  0  0  0  0  0  0  0  0  0  0  0
   51.6980  154.6670   29.0180 C   0  0  0  0  0  0  0  0  0  0  0  0
   51.8750  155.9110   28.4040 C   0  0  0  0  0  0  0  0  0  0  0  0
   51.5560  157.1490   29.1460 C   0  0  0  0  0  0  0  0  0  0  0  0
   50.2520  157.1710   29.6260 O   0  0  0  0  0  0  0  0  0  0  0  0
   49.8220  158.2650   30.3330 C   0  0  0  0  0  0  0  0  0  0  0  0
   48.5010  158.2500   30.7820 C   0  0  0  0  0  0  0  0  0  0  0  0
   48.0000  159.3320   31.5100 C   0  0  0  0  0  0  0  0  0  0  0  0
   48.8210  160.4270   31.7890 C   0  0  0  0  0  0  0  0  0  0  0  0
   50.1390  160.4390   31.3390 C   0  0  0  0  0  0  0  0  0  0  0  0
   50.8860  161.5420   31.6470 O   0  0  0  0  0  0  0  0  0  0  0  0
   50.6380  159.3560   30.6100 C   0  0  0  0  0  0  0  0  0  0  0  0
   52.0170  159.3280   30.1190 C   0  0  0  0  0  0  0  0  0  0  0  0
   52.8020  160.2510   30.3310 O   0  0  0  0  0  0  0  0  0  0  0  0
   52.4460  158.1380   29.3500 C   0  0  0  0  0  0  0  0  0  0  0  0
   53.7550  158.1170   28.9020 O   0  0  0  0  0  0  0  0  0  0  0  0
   52.3150  155.9380   27.0740 C   0  0  0  0  0  0  0  0  0  0  0  0
   52.5990  154.7560   26.3580 C   0  0  0  0  0  0  0  0  0  0  0  0
   53.0640  154.8910   24.9260 C   0  0  0  0  0  0  0  0  0  0  0  0
   54.4070  155.5990   24.8280 C   0  0  0  0  0  0  0  0  0  0  0  0
   54.5103  150.0394   25.2718 H   0  0  0  0  0  0  0  0  0  0  0  0
   53.4371  150.9763   24.1776 H   0  0  0  0  0  0  0  0  0  0  0  0
   55.2072  151.2819   24.1776 H   0  0  0  0  0  0  0  0  0  0  0  0
   54.7651  151.7976   26.7593 H   0  0  0  0  0  0  0  0  0  0  0  0
   54.4796  153.0451   25.4788 H   0  0  0  0  0  0  0  0  0  0  0  0
   52.0562  152.1038   25.4168 H   0  0  0  0  0  0  0  0  0  0  0  0
   52.4801  151.3817   27.0249 H   0  0  0  0  0  0  0  0  0  0  0  0
   51.8264  152.5176   28.8276 H   0  0  0  0  0  0  0  0  0  0  0  0
   51.3443  154.6187   30.0585 H   0  0  0  0  0  0  0  0  0  0  0  0
   47.8548  157.3872   30.5630 H   0  0  0  0  0  0  0  0  0  0  0  0
   46.9585  159.3216   31.8637 H   0  0  0  0  0  0  0  0  0  0  0  0
   48.4272  161.2786   32.3632 H   0  0  0  0  0  0  0  0  0  0  0  0
   51.8020  161.5580   31.4490 H   0  0  0  0  0  0  0  0  0  0  0  0
   54.1980  157.3000   28.7910 H   0  0  0  0  0  0  0  0  0  0  0  0
   52.4427  156.9092   26.5735 H   0  0  0  0  0  0  0  0  0  0  0  0
   53.1589  153.8868   24.4871 H   0  0  0  0  0  0  0  0  0  0  0  0
   52.3214  155.4937   24.3827 H   0  0  0  0  0  0  0  0  0  0  0  0
   54.7898  155.8008   25.8393 H   0  0  0  0  0  0  0  0  0  0  0  0
   55.1200  154.9596   24.2869 H   0  0  0  0  0  0  0  0  0  0  0  0
   54.2823  156.5486   24.2869 H   0  0  0  0  0  0  0  0  0  0  0  0
  1  2  1  0
  2  3  1  0
  3  4  1  0
  4  5  2  0
  5  6  1  0
  6  7  2  0
  7  8  1  0
  8  9  1  0
  9 10  1  0
 10 11  2  0
 11 12  1  0
 12 13  2  0
 13 14  1  0
 14 15  1  0
 14 16  2  0
 16 17  1  0
 17 18  2  0
 17 19  1  0
 19 20  1  0
  7 21  1  0
 21 22  2  0
 22 23  1  0
 23 24  1  0
 22  4  1  0
 19  8  2  0
 16 10  1  0
  1 25  1  0
  1 26  1  0
  1 27  1  0
  2 28  1  0
  2 29  1  0
  3 30  1  0
  3 31  1  0
  5 32  1  0
  6 33  1  0
 11 34  1  0
 12 35  1  0
 13 36  1  0
 15 37  1  0
 20 38  1  0
 21 39  1  0
 23 40  1  0
 23 41  1  0
 24 42  1  0
 24 43  1  0
 24 44  1  0
M  END
>  <meeko>  (3) 
{"is_sidechain": [false], "free_energy": -10.352, "intermolecular_energy": -13.238, "internal_energy": -0.35}

$$$$
cand_053_out
     RDKit          3D

 44 46  0  0  0  0  0  0  0  0999 V2000
   53.4920  150.5160   25.2140 C   0  0  0  0  0  0  0  0  0  0  0  0
   52.8010  151.6410   25.9690 C   0  0  0  0  0  0  0  0  0  0  0  0
   53.8170  152.5950   26.6000 C   0  0  0  0  0  0  0  0  0  0  0  0
   53.1410  153.7810   27.2550 C   0  0  0  0  0  0  0  0  0  0  0  0
   52.6530  153.6240   28.5640 C   0  0  0  0  0  0  0  0  0  0  0  0
   52.0320  154.6790   29.2340 C   0  0  0  0  0  0  0  0  0  0  0  0
   51.8860  155.9260   28.6200 C   0  0  0  0  0  0  0  0  0  0  0  0
   51.1970  157.0220   29.3340 C   0  0  0  0  0  0  0  0  0  0  0  0
   52.0310  158.1030   29.5990 O   0  0  0  0  0  0  0  0  0  0  0  0
   51.5200  159.1910   30.2590 C   0  0  0  0  0  0  0  0  0  0  0  0
   52.3970  160.2450   30.5170 C   0  0  0  0  0  0  0  0  0  0  0  0
   51.9400  161.3850   31.1830 C   0  0  0  0  0  0  0  0  0  0  0  0
   50.6060  161.4690   31.5900 C   0  0  0  0  0  0  0  0  0  0  0  0
   49.7340  160.4150   31.3310 C   0  0  0  0  0  0  0  0  0  0  0  0
   48.4420  160.5640   31.7570 O   0  0  0  0  0  0  0  0  0  0  0  0
   50.1920  159.2750   30.6650 C   0  0  0  0  0  0  0  0  0  0  0  0
   49.3090  158.1460   30.3730 C   0  0  0  0  0  0  0  0  0  0  0  0
   48.1210  158.1500   30.6930 O   0  0  0  0  0  0  0  0  0  0  0  0
   49.8940  156.9820   29.6700 C   0  0  0  0  0  0  0  0  0  0  0  0
   49.0460  155.9260   29.3870 O   0  0  0  0  0  0  0  0  0  0  0  0
   52.3680  156.0840   27.3140 C   0  0  0  0  0  0  0  0  0  0  0  0
   53.0070  155.0330   26.6230 C   0  0  0  0  0  0  0  0  0  0  0  0
   53.4890  155.3010   25.2150 C   0  0  0  0  0  0  0  0  0  0  0  0
   54.1900  156.6470   25.1010 C   0  0  0  0  0  0  0  0  0  0  0  0
   53.9280  149.8061   25.9323 H   0  0  0  0  0  0  0  0  0  0  0  0
   52.7586  149.9941   24.5818 H   0  0  0  0  0  0  0  0  0  0  0  0
   54.2892  150.9342   24.5818 H   0  0  0  0  0  0  0  0  0  0  0  0
   52.1668  152.2051   25.2693 H   0  0  0  0  0  0  0  0  0  0  0  0
   52.1956  151.1978   26.7734 H   0  0  0  0  0  0  0  0  0  0  0  0
   54.3940  152.0488   27.3608 H   0  0  0  0  0  0  0  0  0  0  0  0
   54.4738  152.9725   25.8024 H   0  0  0  0  0  0  0  0  0  0  0  0
   52.7625  152.6528   29.0688 H   0  0  0  0  0  0  0  0  0  0  0  0
   51.6536  154.5276   30.2557 H   0  0  0  0  0  0  0  0  0  0  0  0
   53.4471  160.1785   30.1964 H   0  0  0  0  0  0  0  0  0  0  0  0
   52.6305  162.2166   31.3870 H   0  0  0  0  0  0  0  0  0  0  0  0
   50.2454  162.3663   32.1141 H   0  0  0  0  0  0  0  0  0  0  0  0
   48.2470  161.1430   32.4680 H   0  0  0  0  0  0  0  0  0  0  0  0
   49.0050  155.5790   28.5190 H   0  0  0  0  0  0  0  0  0  0  0  0
   52.2447  157.0555   26.8130 H   0  0  0  0  0  0  0  0  0  0  0  0
   54.1929  154.5077   24.9232 H   0  0  0  0  0  0  0  0  0  0  0  0
   52.6116  155.3167   24.5518 H   0  0  0  0  0  0  0  0  0  0  0  0
   54.3948  157.0402   26.1077 H   0  0  0  0  0  0  0  0  0  0  0  0
   55.1375  156.5220   24.5564 H   0  0  0  0  0  0  0  0  0  0  0  0
   53.5444  157.3517   24.5564 H   0  0  0  0  0  0  0  0  0  0  0  0
  1  2  1  0
  2  3  1  0
  3  4  1  0
  4  5  2  0
  5  6  1  0
  6  7  2  0
  7  8  1  0
  8  9  1  0
  9 10  1  0
 10 11  2  0
 11 12  1  0
 12 13  2  0
 13 14  1  0
 14 15  1  0
 14 16  2  0
 16 17  1  0
 17 18  2  0
 17 19  1  0
 19 20  1  0
  7 21  1  0
 21 22  2  0
 22 23  1  0
 23 24  1  0
 22  4  1  0
 19  8  2  0
 16 10  1  0
  1 25  1  0
  1 26  1  0
  1 27  1  0
  2 28  1  0
  2 29  1  0
  3 30  1  0
  3 31  1  0
  5 32  1  0
  6 33  1  0
 11 34  1  0
 12 35  1  0
 13 36  1  0
 15 37  1  0
 20 38  1  0
 21 39  1  0
 23 40  1  0
 23 41  1  0
 24 42  1  0
 24 43  1  0
 24 44  1  0
M  END
>  <meeko>  (4) 
{"is_sidechain": [false], "free_energy": -9.086, "intermolecular_energy": -11.343, "internal_energy": -0.609}

$$$$
cand_053_out
     RDKit          3D

 44 46  0  0  0  0  0  0  0  0999 V2000
   54.0660  153.4900   23.8860 C   0  0  0  0  0  0  0  0  0  0  0  0
   53.2100  154.3560   24.7970 C   0  0  0  0  0  0  0  0  0  0  0  0
   53.3850  153.9620   26.2650 C   0  0  0  0  0  0  0  0  0  0  0  0
   52.8530  155.0280   27.1980 C   0  0  0  0  0  0  0  0  0  0  0  0
   52.9990  156.3730   26.8170 C   0  0  0  0  0  0  0  0  0  0  0  0
   52.5200  157.4080   27.6230 C   0  0  0  0  0  0  0  0  0  0  0  0
   51.8710  157.1300   28.8300 C   0  0  0  0  0  0  0  0  0  0  0  0
   51.3990  158.2400   29.6850 C   0  0  0  0  0  0  0  0  0  0  0  0
   50.0660  158.1040   30.0590 O   0  0  0  0  0  0  0  0  0  0  0  0
   49.4980  159.0660   30.8540 C   0  0  0  0  0  0  0  0  0  0  0  0
   48.1550  158.8960   31.1920 C   0  0  0  0  0  0  0  0  0  0  0  0
   47.5150  159.8390   32.0000 C   0  0  0  0  0  0  0  0  0  0  0  0
   48.2190  160.9500   32.4700 C   0  0  0  0  0  0  0  0  0  0  0  0
   49.5590  161.1160   32.1310 C   0  0  0  0  0  0  0  0  0  0  0  0
   50.1880  162.2260   32.6260 O   0  0  0  0  0  0  0  0  0  0  0  0
   50.1980  160.1730   31.3220 C   0  0  0  0  0  0  0  0  0  0  0  0
   51.6050  160.3100   30.9420 C   0  0  0  0  0  0  0  0  0  0  0  0
   52.2930  161.2560   31.3230 O   0  0  0  0  0  0  0  0  0  0  0  0
   52.1850  159.2600   30.0740 C   0  0  0  0  0  0  0  0  0  0  0  0
   53.5200  159.3930   29.7320 O   0  0  0  0  0  0  0  0  0  0  0  0
   51.7280  155.7900   29.2130 C   0  0  0  0  0  0  0  0  0  0  0  0
   52.1970  154.7300   28.4090 C   0  0  0  0  0  0  0  0  0  0  0  0
   51.9980  153.3180   28.9120 C   0  0  0  0  0  0  0  0  0  0  0  0
   51.5550  152.3760   27.8030 C   0  0  0  0  0  0  0  0  0  0  0  0
   54.7091  152.8394   24.4968 H   0  0  0  0  0  0  0  0  0  0  0  0
   53.4153  152.8707   23.2511 H   0  0  0  0  0  0  0  0  0  0  0  0
   54.6928  154.1335   23.2511 H   0  0  0  0  0  0  0  0  0  0  0  0
   53.5043  155.4084   24.6710 H   0  0  0  0  0  0  0  0  0  0  0  0
   52.1547  154.2111   24.5223 H   0  0  0  0  0  0  0  0  0  0  0  0
   52.8417  153.0235   26.4494 H   0  0  0  0  0  0  0  0  0  0  0  0
   54.4604  153.8401   26.4614 H   0  0  0  0  0  0  0  0  0  0  0  0
   53.4992  156.6146   25.8676 H   0  0  0  0  0  0  0  0  0  0  0  0
   52.6546  158.4524   27.3052 H   0  0  0  0  0  0  0  0  0  0  0  0
   47.6008  158.0205   30.8227 H   0  0  0  0  0  0  0  0  0  0  0  0
   46.4560  159.7065   32.2662 H   0  0  0  0  0  0  0  0  0  0  0  0
   47.7156  161.6924   33.1068 H   0  0  0  0  0  0  0  0  0  0  0  0
   50.9830  162.5290   32.2310 H   0  0  0  0  0  0  0  0  0  0  0  0
   53.9340  158.7420   29.2020 H   0  0  0  0  0  0  0  0  0  0  0  0
   51.2355  155.5576   30.1688 H   0  0  0  0  0  0  0  0  0  0  0  0
   52.9476  152.9527   29.3302 H   0  0  0  0  0  0  0  0  0  0  0  0
   51.2080  153.3377   29.6772 H   0  0  0  0  0  0  0  0  0  0  0  0
   51.1264  151.4647   28.2454 H   0  0  0  0  0  0  0  0  0  0  0  0
   50.7964  152.8733   27.1808 H   0  0  0  0  0  0  0  0  0  0  0  0
   52.4219  152.1088   27.1808 H   0  0  0  0  0  0  0  0  0  0  0  0
  1  2  1  0
  2  3  1  0
  3  4  1  0
  4  5  2  0
  5  6  1  0
  6  7  2  0
  7  8  1  0
  8  9  1  0
  9 10  1  0
 10 11  2  0
 11 12  1  0
 12 13  2  0
 13 14  1  0
 14 15  1  0
 14 16  2  0
 16 17  1  0
 17 18  2  0
 17 19  1  0
 19 20  1  0
  7 21  1  0
 21 22  2  0
 22 23  1  0
 23 24  1  0
 22  4  1  0
 19  8  2  0
 16 10  1  0
  1 25  1  0
  1 26  1  0
  1 27  1  0
  2 28  1  0
  2 29  1  0
  3 30  1  0
  3 31  1  0
  5 32  1  0
  6 33  1  0
 11 34  1  0
 12 35  1  0
 13 36  1  0
 15 37  1  0
 20 38  1  0
 21 39  1  0
 23 40  1  0
 23 41  1  0
 24 42  1  0
 24 43  1  0
 24 44  1  0
M  END
>  <meeko>  (5) 
{"is_sidechain": [false], "free_energy": -8.974, "intermolecular_energy": -12.029, "internal_energy": 0.221}

$$$$
cand_053_out
     RDKit          3D

 44 46  0  0  0  0  0  0  0  0999 V2000
   47.4160  159.9250   31.5010 C   0  0  0  0  0  0  0  0  0  0  0  0
   48.0450  158.8680   30.6060 C   0  0  0  0  0  0  0  0  0  0  0  0
   49.3060  158.2790   31.2420 C   0  0  0  0  0  0  0  0  0  0  0  0
   50.1480  157.5330   30.2290 C   0  0  0  0  0  0  0  0  0  0  0  0
   49.6880  156.2830   29.7800 C   0  0  0  0  0  0  0  0  0  0  0  0
   50.4060  155.5460   28.8360 C   0  0  0  0  0  0  0  0  0  0  0  0
   51.6020  156.0390   28.3050 C   0  0  0  0  0  0  0  0  0  0  0  0
   52.3640  155.2310   27.3310 C   0  0  0  0  0  0  0  0  0  0  0  0
   52.0550  153.8760   27.3930 O   0  0  0  0  0  0  0  0  0  0  0  0
   52.6920  153.0100   26.5420 C   0  0  0  0  0  0  0  0  0  0  0  0
   52.3610  151.6580   26.6510 C   0  0  0  0  0  0  0  0  0  0  0  0
   52.9720  150.7220   25.8130 C   0  0  0  0  0  0  0  0  0  0  0  0
   53.9110  151.1380   24.8670 C   0  0  0  0  0  0  0  0  0  0  0  0
   54.2390  152.4870   24.7610 C   0  0  0  0  0  0  0  0  0  0  0  0
   55.1660  152.8250   23.8140 O   0  0  0  0  0  0  0  0  0  0  0  0
   53.6280  153.4230   25.6010 C   0  0  0  0  0  0  0  0  0  0  0  0
   53.9430  154.8500   25.5230 C   0  0  0  0  0  0  0  0  0  0  0  0
   54.7530  155.2940   24.7110 O   0  0  0  0  0  0  0  0  0  0  0  0
   53.2470  155.7580   26.4620 C   0  0  0  0  0  0  0  0  0  0  0  0
   53.5430  157.1060   26.3700 O   0  0  0  0  0  0  0  0  0  0  0  0
   52.0640  157.2840   28.7540 C   0  0  0  0  0  0  0  0  0  0  0  0
   51.3480  158.0480   29.7010 C   0  0  0  0  0  0  0  0  0  0  0  0
   51.9320  159.3760   30.1240 C   0  0  0  0  0  0  0  0  0  0  0  0
   50.9780  160.5300   29.8520 C   0  0  0  0  0  0  0  0  0  0  0  0
   47.5764  159.6554   32.5553 H   0  0  0  0  0  0  0  0  0  0  0  0
   47.8802  160.9013   31.2974 H   0  0  0  0  0  0  0  0  0  0  0  0
   46.3365  159.9827   31.2974 H   0  0  0  0  0  0  0  0  0  0  0  0
   47.3171  158.0603   30.4394 H   0  0  0  0  0  0  0  0  0  0  0  0
   48.3256  159.3419   29.6538 H   0  0  0  0  0  0  0  0  0  0  0  0
   49.9045  159.0966   31.6701 H   0  0  0  0  0  0  0  0  0  0  0  0
   48.9965  157.5671   32.0214 H   0  0  0  0  0  0  0  0  0  0  0  0
   48.7462  155.8784   30.1791 H   0  0  0  0  0  0  0  0  0  0  0  0
   50.0268  154.5674   28.5066 H   0  0  0  0  0  0  0  0  0  0  0  0
   51.6204  151.3304   27.3954 H   0  0  0  0  0  0  0  0  0  0  0  0
   52.7131  149.6563   25.8985 H   0  0  0  0  0  0  0  0  0  0  0  0
   54.3910  150.4010   24.2064 H   0  0  0  0  0  0  0  0  0  0  0  0
   55.9580  152.3310   23.7370 H   0  0  0  0  0  0  0  0  0  0  0  0
   52.9750  157.6790   25.8950 H   0  0  0  0  0  0  0  0  0  0  0  0
   53.0116  157.6770   28.3571 H   0  0  0  0  0  0  0  0  0  0  0  0
   52.1495  159.3413   31.2017 H   0  0  0  0  0  0  0  0  0  0  0  0
   52.8477  159.5467   29.5389 H   0  0  0  0  0  0  0  0  0  0  0  0
   50.6300  160.9509   30.8069 H   0  0  0  0  0  0  0  0  0  0  0  0
   51.4994  161.3089   29.2763 H   0  0  0  0  0  0  0  0  0  0  0  0
   50.1150  160.1644   29.2763 H   0  0  0  0  0  0  0  0  0  0  0  0
  1  2  1  0
  2  3  1  0
  3  4  1  0
  4  5  2  0
  5  6  1  0
  6  7  2  0
  7  8  1  0
  8  9  1  0
  9 10  1  0
 10 11  2  0
 11 12  1  0
 12 13  2  0
 13 14  1  0
 14 15  1  0
 14 16  2  0
 16 17  1  0
 17 18  2  0
 17 19  1  0
 19 20  1  0
  7 21  1  0
 21 22  2  0
 22 23  1  0
 23 24  1  0
 22  4  1  0
 19  8  2  0
 16 10  1  0
  1 25  1  0
  1 26  1  0
  1 27  1  0
  2 28  1  0
  2 29  1  0
  3 30  1  0
  3 31  1  0
  5 32  1  0
  6 33  1  0
 11 34  1  0
 12 35  1  0
 13 36  1  0
 15 37  1  0
 20 38  1  0
 21 39  1  0
 23 40  1  0
 23 41  1  0
 24 42  1  0
 24 43  1  0
 24 44  1  0
M  END
>  <meeko>  (6) 
{"is_sidechain": [false], "free_energy": -8.862, "intermolecular_energy": -11.844, "internal_energy": 0.182}

$$$$
cand_053_out
     RDKit          3D

 44 46  0  0  0  0  0  0  0  0999 V2000
   47.2190  159.9030   31.5340 C   0  0  0  0  0  0  0  0  0  0  0  0
   47.9950  159.0030   30.5860 C   0  0  0  0  0  0  0  0  0  0  0  0
   49.2760  158.4790   31.2380 C   0  0  0  0  0  0  0  0  0  0  0  0
   50.0830  157.6260   30.2830 C   0  0  0  0  0  0  0  0  0  0  0  0
   49.5500  156.3860   29.8920 C   0  0  0  0  0  0  0  0  0  0  0  0
   50.2330  155.5530   29.0030 C   0  0  0  0  0  0  0  0  0  0  0  0
   51.4660  155.9390   28.4700 C   0  0  0  0  0  0  0  0  0  0  0  0
   52.1890  155.0310   27.5550 C   0  0  0  0  0  0  0  0  0  0  0  0
   52.9290  155.7100   26.5930 O   0  0  0  0  0  0  0  0  0  0  0  0
   53.6500  154.9870   25.6770 C   0  0  0  0  0  0  0  0  0  0  0  0
   54.3640  155.7100   24.7210 C   0  0  0  0  0  0  0  0  0  0  0  0
   55.1210  155.0350   23.7590 C   0  0  0  0  0  0  0  0  0  0  0  0
   55.1630  153.6390   23.7560 C   0  0  0  0  0  0  0  0  0  0  0  0
   54.4480  152.9210   24.7110 C   0  0  0  0  0  0  0  0  0  0  0  0
   54.5340  151.5570   24.6500 O   0  0  0  0  0  0  0  0  0  0  0  0
   53.6910  153.5960   25.6720 C   0  0  0  0  0  0  0  0  0  0  0  0
   52.9260  152.8810   26.6930 C   0  0  0  0  0  0  0  0  0  0  0  0
   52.9190  151.6530   26.7590 O   0  0  0  0  0  0  0  0  0  0  0  0
   52.1500  153.6900   27.6600 C   0  0  0  0  0  0  0  0  0  0  0  0
   51.4410  153.0020   28.6300 O   0  0  0  0  0  0  0  0  0  0  0  0
   52.0010  157.1740   28.8610 C   0  0  0  0  0  0  0  0  0  0  0  0
   51.3230  158.0330   29.7510 C   0  0  0  0  0  0  0  0  0  0  0  0
   51.9860  159.3420   30.1140 C   0  0  0  0  0  0  0  0  0  0  0  0
   51.0510  160.5270   29.9180 C   0  0  0  0  0  0  0  0  0  0  0  0
   47.4542  159.6303   32.5734 H   0  0  0  0  0  0  0  0  0  0  0  0
   47.5009  160.9515   31.3573 H   0  0  0  0  0  0  0  0  0  0  0  0
   46.1404  159.7785   31.3573 H   0  0  0  0  0  0  0  0  0  0  0  0
   47.3616  158.1490   30.3041 H   0  0  0  0  0  0  0  0  0  0  0  0
   48.2732  159.5916   29.6994 H   0  0  0  0  0  0  0  0  0  0  0  0
   49.8894  159.3347   31.5567 H   0  0  0  0  0  0  0  0  0  0  0  0
   48.9919  157.8549   32.0981 H   0  0  0  0  0  0  0  0  0  0  0  0
   48.5772  156.0656   30.2933 H   0  0  0  0  0  0  0  0  0  0  0  0
   49.7964  154.5839   28.7197 H   0  0  0  0  0  0  0  0  0  0  0  0
   54.3313  156.8095   24.7242 H   0  0  0  0  0  0  0  0  0  0  0  0
   55.6838  155.6036   23.0041 H   0  0  0  0  0  0  0  0  0  0  0  0
   55.7600  153.1075   23.0003 H   0  0  0  0  0  0  0  0  0  0  0  0
   55.3730  151.1410   24.6260 H   0  0  0  0  0  0  0  0  0  0  0  0
   51.7440  152.1680   28.9280 H   0  0  0  0  0  0  0  0  0  0  0  0
   52.9786  157.4825   28.4620 H   0  0  0  0  0  0  0  0  0  0  0  0
   52.2945  159.3035   31.1692 H   0  0  0  0  0  0  0  0  0  0  0  0
   52.8531  159.4795   29.4513 H   0  0  0  0  0  0  0  0  0  0  0  0
   50.7430  160.9173   30.8992 H   0  0  0  0  0  0  0  0  0  0  0  0
   51.5722  161.3164   29.3566 H   0  0  0  0  0  0  0  0  0  0  0  0
   50.1620  160.2037   29.3566 H   0  0  0  0  0  0  0  0  0  0  0  0
  1  2  1  0
  2  3  1  0
  3  4  1  0
  4  5  2  0
  5  6  1  0
  6  7  2  0
  7  8  1  0
  8  9  1  0
  9 10  1  0
 10 11  2  0
 11 12  1  0
 12 13  2  0
 13 14  1  0
 14 15  1  0
 14 16  2  0
 16 17  1  0
 17 18  2  0
 17 19  1  0
 19 20  1  0
  7 21  1  0
 21 22  2  0
 22 23  1  0
 23 24  1  0
 22  4  1  0
 19  8  2  0
 16 10  1  0
  1 25  1  0
  1 26  1  0
  1 27  1  0
  2 28  1  0
  2 29  1  0
  3 30  1  0
  3 31  1  0
  5 32  1  0
  6 33  1  0
 11 34  1  0
 12 35  1  0
 13 36  1  0
 15 37  1  0
 20 38  1  0
 21 39  1  0
 23 40  1  0
 23 41  1  0
 24 42  1  0
 24 43  1  0
 24 44  1  0
M  END
>  <meeko>  (7) 
{"is_sidechain": [false], "free_energy": -8.821, "intermolecular_energy": -11.897, "internal_energy": 0.287}

$$$$
cand_053_out
     RDKit          3D

 44 46  0  0  0  0  0  0  0  0999 V2000
   54.1370  153.2500   23.5620 C   0  0  0  0  0  0  0  0  0  0  0  0
   53.4860  154.2420   24.5130 C   0  0  0  0  0  0  0  0  0  0  0  0
   53.7550  153.8720   25.9730 C   0  0  0  0  0  0  0  0  0  0  0  0
   53.0410  154.8050   26.9280 C   0  0  0  0  0  0  0  0  0  0  0  0
   53.1670  156.1890   26.7180 C   0  0  0  0  0  0  0  0  0  0  0  0
   52.5250  157.1070   27.5520 C   0  0  0  0  0  0  0  0  0  0  0  0
   51.7300  156.6710   28.6150 C   0  0  0  0  0  0  0  0  0  0  0  0
   51.0840  157.6580   29.5060 C   0  0  0  0  0  0  0  0  0  0  0  0
   51.8970  158.7530   29.7770 O   0  0  0  0  0  0  0  0  0  0  0  0
   51.4200  159.7470   30.5930 C   0  0  0  0  0  0  0  0  0  0  0  0
   52.2750  160.8200   30.8500 C   0  0  0  0  0  0  0  0  0  0  0  0
   51.8520  161.8670   31.6720 C   0  0  0  0  0  0  0  0  0  0  0  0
   50.5730  161.8420   32.2340 C   0  0  0  0  0  0  0  0  0  0  0  0
   49.7230  160.7700   31.9750 C   0  0  0  0  0  0  0  0  0  0  0  0
   48.4850  160.8100   32.5580 O   0  0  0  0  0  0  0  0  0  0  0  0
   50.1480  159.7220   31.1540 C   0  0  0  0  0  0  0  0  0  0  0  0
   49.2860  158.5780   30.8570 C   0  0  0  0  0  0  0  0  0  0  0  0
   48.1450  158.4880   31.3080 O   0  0  0  0  0  0  0  0  0  0  0  0
   49.8340  157.5160   29.9820 C   0  0  0  0  0  0  0  0  0  0  0  0
   49.0040  156.4460   29.6970 O   0  0  0  0  0  0  0  0  0  0  0  0
   51.6070  155.2910   28.8280 C   0  0  0  0  0  0  0  0  0  0  0  0
   52.2400  154.3470   27.9920 C   0  0  0  0  0  0  0  0  0  0  0  0
   52.0480  152.8810   28.3080 C   0  0  0  0  0  0  0  0  0  0  0  0
   51.8680  152.0470   27.0480 C   0  0  0  0  0  0  0  0  0  0  0  0
   54.6498  152.4685   24.1419 H   0  0  0  0  0  0  0  0  0  0  0  0
   53.3652  152.7892   22.9281 H   0  0  0  0  0  0  0  0  0  0  0  0
   54.8669  153.7747   22.9281 H   0  0  0  0  0  0  0  0  0  0  0  0
   53.8921  155.2454   24.3171 H   0  0  0  0  0  0  0  0  0  0  0  0
   52.3991  154.2220   24.3446 H   0  0  0  0  0  0  0  0  0  0  0  0
   53.4053  152.8443   26.1505 H   0  0  0  0  0  0  0  0  0  0  0  0
   54.8365  153.9574   26.1546 H   0  0  0  0  0  0  0  0  0  0  0  0
   53.7817  156.5553   25.8826 H   0  0  0  0  0  0  0  0  0  0  0  0
   52.6466  158.1850   27.3700 H   0  0  0  0  0  0  0  0  0  0  0  0
   53.2810  160.8410   30.4056 H   0  0  0  0  0  0  0  0  0  0  0  0
   52.5261  162.7117   31.8770 H   0  0  0  0  0  0  0  0  0  0  0  0
   50.2384  162.6673   32.8796 H   0  0  0  0  0  0  0  0  0  0  0  0
   47.8000  161.3160   32.1680 H   0  0  0  0  0  0  0  0  0  0  0  0
   49.3520  155.5770   29.6780 H   0  0  0  0  0  0  0  0  0  0  0  0
   50.9989  154.9334   29.6720 H   0  0  0  0  0  0  0  0  0  0  0  0
   52.9313  152.5161   28.8527 H   0  0  0  0  0  0  0  0  0  0  0  0
   51.1370  152.7802   28.9162 H   0  0  0  0  0  0  0  0  0  0  0  0
   51.6435  151.0066   27.3259 H   0  0  0  0  0  0  0  0  0  0  0  0
   51.0373  152.4552   26.4536 H   0  0  0  0  0  0  0  0  0  0  0  0
   52.7931  152.0763   26.4536 H   0  0  0  0  0  0  0  0  0  0  0  0
  1  2  1  0
  2  3  1  0
  3  4  1  0
  4  5  2  0
  5  6  1  0
  6  7  2  0
  7  8  1  0
  8  9  1  0
  9 10  1  0
 10 11  2  0
 11 12  1  0
 12 13  2  0
 13 14  1  0
 14 15  1  0
 14 16  2  0
 16 17  1  0
 17 18  2  0
 17 19  1  0
 19 20  1  0
  7 21  1  0
 21 22  2  0
 22 23  1  0
 23 24  1  0
 22  4  1  0
 19  8  2  0
 16 10  1  0
  1 25  1  0
  1 26  1  0
  1 27  1  0
  2 28  1  0
  2 29  1  0
  3 30  1  0
  3 31  1  0
  5 32  1  0
  6 33  1  0
 11 34  1  0
 12 35  1  0
 13 36  1  0
 15 37  1  0
 20 38  1  0
 21 39  1  0
 23 40  1  0
 23 41  1  0
 24 42  1  0
 24 43  1  0
 24 44  1  0
M  END
>  <meeko>  (8) 
{"is_sidechain": [false], "free_energy": -8.401, "intermolecular_energy": -11.401, "internal_energy": 0.334}

$$$$
