cand_031_out
     RDKit          3D

 36 38  0  0  0  0  0  0  0  0999 V2000
   47.3400  159.6030   30.9830 C   0  0  0  0  0  0  0  0  0  0  0  0
   48.3630  158.8550   31.4130 C   0  0  0  0  0  0  0  0  0  0  0  0
   49.7070  158.8990   30.8160 C   0  0  0  0  0  0  0  0  0  0  0  0
   50.1920  157.7780   30.1180 C   0  0  0  0  0  0  0  0  0  0  0  0
   51.4800  157.7590   29.5610 C   0  0  0  0  0  0  0  0  0  0  0  0
   51.9370  156.5700   28.8090 C   0  0  0  0  0  0  0  0  0  0  0  0
   52.5060  156.8940   27.5830 O   0  0  0  0  0  0  0  0  0  0  0  0
   52.9720  155.8850   26.7800 C   0  0  0  0  0  0  0  0  0  0  0  0
   53.5470  156.2550   25.5640 C   0  0  0  0  0  0  0  0  0  0  0  0
   54.0400  155.2760   24.6990 C   0  0  0  0  0  0  0  0  0  0  0  0
   53.9580  153.9270   25.0500 C   0  0  0  0  0  0  0  0  0  0  0  0
   53.3840  153.5600   26.2640 C   0  0  0  0  0  0  0  0  0  0  0  0
   53.3360  152.2210   26.5440 O   0  0  0  0  0  0  0  0  0  0  0  0
   52.8910  154.5400   27.1290 C   0  0  0  0  0  0  0  0  0  0  0  0
   52.2810  154.1970   28.4140 C   0  0  0  0  0  0  0  0  0  0  0  0
   52.1660  153.0320   28.7910 O   0  0  0  0  0  0  0  0  0  0  0  0
   51.7960  155.3110   29.2610 C   0  0  0  0  0  0  0  0  0  0  0  0
   51.2070  154.9750   30.4660 O   0  0  0  0  0  0  0  0  0  0  0  0
   52.2840  158.8930   29.7070 C   0  0  0  0  0  0  0  0  0  0  0  0
   51.8220  160.0100   30.4060 C   0  0  0  0  0  0  0  0  0  0  0  0
   50.5360  160.0280   30.9670 C   0  0  0  0  0  0  0  0  0  0  0  0
   50.0810  161.2540   31.7140 C   0  0  0  0  0  0  0  0  0  0  0  0
   46.3577  159.5245   31.4718 H   0  0  0  0  0  0  0  0  0  0  0  0
   47.4815  160.2963   30.1408 H   0  0  0  0  0  0  0  0  0  0  0  0
   48.1899  158.1713   32.2572 H   0  0  0  0  0  0  0  0  0  0  0  0
   49.5459  156.8948   30.0061 H   0  0  0  0  0  0  0  0  0  0  0  0
   53.6120  157.3175   25.2867 H   0  0  0  0  0  0  0  0  0  0  0  0
   54.4934  155.5677   23.7402 H   0  0  0  0  0  0  0  0  0  0  0  0
   54.3462  153.1557   24.3685 H   0  0  0  0  0  0  0  0  0  0  0  0
   52.6410  151.6950   26.2010 H   0  0  0  0  0  0  0  0  0  0  0  0
   51.3080  154.1090   30.8110 H   0  0  0  0  0  0  0  0  0  0  0  0
   53.2918  158.9056   29.2664 H   0  0  0  0  0  0  0  0  0  0  0  0
   52.4752  160.8879   30.5184 H   0  0  0  0  0  0  0  0  0  0  0  0
   50.1492  161.0702   32.7964 H   0  0  0  0  0  0  0  0  0  0  0  0
   50.7228  162.1061   31.4456 H   0  0  0  0  0  0  0  0  0  0  0  0
   49.0387  161.4811   31.4456 H   0  0  0  0  0  0  0  0  0  0  0  0
  1  2  2  0
  2  3  1  0
  3  4  2  0
  4  5  1  0
  5  6  1  0
  6  7  1  0
  7  8  1  0
  8  9  2  0
  9 10  1  0
 10 11  2  0
 11 12  1  0
 12 13  1  0
 12 14  2  0
 14 15  1  0
 15 16  2  0
 15 17  1  0
 17 18  1  0
  5 19  2  0
 19 20  1  0
 20 21  2  0
 21 22  1  0
 21  3  1  0
 17  6  2  0
 14  8  1  0
  1 23  1  0
  1 24  1  0
  2 25  1  0
  4 26  1  0
  9 27  1  0
 10 28  1  0
 11 29  1  0
 13 30  1  0
 18 31  1  0
 19 32  1  0
 20 33  1  0
 22 34  1  0
 22 35  1  0
 22 36  1  0
M  END
>  <meeko>  (1) 
{"is_sidechain": [false], "free_energy": -10.772, "intermolecular_energy": -12.662, "internal_energy": 0.088}

$$$$
cand_031_out
     RDKit          3D

 36 38  0  0  0  0  0  0  0  0999 V2000
   54.0250  156.4010   25.0370 C   0  0  0  0  0  0  0  0  0  0  0  0
   53.4540  155.2690   25.4660 C   0  0  0  0  0  0  0  0  0  0  0  0
   52.7860  155.1410   26.7700 C   0  0  0  0  0  0  0  0  0  0  0  0
   52.4250  156.3020   27.4790 C   0  0  0  0  0  0  0  0  0  0  0  0
   51.8180  156.2330   28.7430 C   0  0  0  0  0  0  0  0  0  0  0  0
   51.4280  157.4780   29.4400 C   0  0  0  0  0  0  0  0  0  0  0  0
   50.0950  157.4790   29.8340 O   0  0  0  0  0  0  0  0  0  0  0  0
   49.5990  158.5760   30.4910 C   0  0  0  0  0  0  0  0  0  0  0  0
   48.2600  158.5310   30.8800 C   0  0  0  0  0  0  0  0  0  0  0  0
   47.6920  159.6150   31.5510 C   0  0  0  0  0  0  0  0  0  0  0  0
   48.4630  160.7450   31.8330 C   0  0  0  0  0  0  0  0  0  0  0  0
   49.7990  160.7880   31.4440 C   0  0  0  0  0  0  0  0  0  0  0  0
   50.4940  161.9260   31.7510 O   0  0  0  0  0  0  0  0  0  0  0  0
   50.3660  159.7030   30.7720 C   0  0  0  0  0  0  0  0  0  0  0  0
   51.7670  159.7080   30.3460 C   0  0  0  0  0  0  0  0  0  0  0  0
   52.5070  160.6680   30.5510 O   0  0  0  0  0  0  0  0  0  0  0  0
   52.2730  158.5040   29.6470 C   0  0  0  0  0  0  0  0  0  0  0  0
   53.5930  158.5250   29.2350 O   0  0  0  0  0  0  0  0  0  0  0  0
   51.5680  154.9710   29.2920 C   0  0  0  0  0  0  0  0  0  0  0  0
   51.9300  153.8110   28.6060 C   0  0  0  0  0  0  0  0  0  0  0  0
   52.5390  153.8790   27.3440 C   0  0  0  0  0  0  0  0  0  0  0  0
   52.9140  152.6000   26.6430 C   0  0  0  0  0  0  0  0  0  0  0  0
   54.5096  156.4328   24.0500 H   0  0  0  0  0  0  0  0  0  0  0  0
   54.0096  157.2995   25.6714 H   0  0  0  0  0  0  0  0  0  0  0  0
   53.4860  154.3878   24.8084 H   0  0  0  0  0  0  0  0  0  0  0  0
   52.6233  157.2873   27.0319 H   0  0  0  0  0  0  0  0  0  0  0  0
   47.6521  157.6415   30.6580 H   0  0  0  0  0  0  0  0  0  0  0  0
   46.6363  159.5794   31.8580 H   0  0  0  0  0  0  0  0  0  0  0  0
   48.0153  161.5995   32.3616 H   0  0  0  0  0  0  0  0  0  0  0  0
   51.0370  161.9520   32.5140 H   0  0  0  0  0  0  0  0  0  0  0  0
   54.2120  157.9340   29.6170 H   0  0  0  0  0  0  0  0  0  0  0  0
   51.0808  154.8921   30.2751 H   0  0  0  0  0  0  0  0  0  0  0  0
   51.7350  152.8289   29.0614 H   0  0  0  0  0  0  0  0  0  0  0  0
   53.1411  151.8253   27.3902 H   0  0  0  0  0  0  0  0  0  0  0  0
   52.0755  152.2675   26.0134 H   0  0  0  0  0  0  0  0  0  0  0  0
   53.7993  152.7729   26.0134 H   0  0  0  0  0  0  0  0  0  0  0  0
  1  2  2  0
  2  3  1  0
  3  4  2  0
  4  5  1  0
  5  6  1  0
  6  7  1  0
  7  8  1  0
  8  9  2  0
  9 10  1  0
 10 11  2  0
 11 12  1  0
 12 13  1  0
 12 14  2  0
 14 15  1  0
 15 16  2  0
 15 17  1  0
 17 18  1  0
  5 19  2  0
 19 20  1  0
 20 21  2  0
 21 22  1  0
 21  3  1  0
 17  6  2  0
 14  8  1  0
  1 23  1  0
  1 24  1  0
  2 25  1  0
  4 26  1  0
  9 27  1  0
 10 28  1  0
 11 29  1  0
 13 30  1  0
 18 31  1  0
 19 32  1  0
 20 33  1  0
 22 34  1  0
 22 35  1  0
 22 36  1  0
M  END
>  <meeko>  (2) 
{"is_sidechain": [false], "free_energy": -10.482, "intermolecular_energy": -12.016, "internal_energy": -0.216}

$$$$
cand_031_out
     RDKit          3D

 36 38  0  0  0  0  0  0  0  0999 V2000
   52.7120  161.3970   31.5600 C   0  0  0  0  0  0  0  0  0  0  0  0
   51.9620  161.0870   30.4960 C   0  0  0  0  0  0  0  0  0  0  0  0
   51.2010  159.8340   30.3780 C   0  0  0  0  0  0  0  0  0  0  0  0
   51.7630  158.7460   29.6850 C   0  0  0  0  0  0  0  0  0  0  0  0
   51.0630  157.5410   29.5150 C   0  0  0  0  0  0  0  0  0  0  0  0
   51.7040  156.4130   28.8060 C   0  0  0  0  0  0  0  0  0  0  0  0
   52.2660  156.7900   27.5910 O   0  0  0  0  0  0  0  0  0  0  0  0
   52.8930  155.8390   26.8270 C   0  0  0  0  0  0  0  0  0  0  0  0
   53.4540  156.2620   25.6210 C   0  0  0  0  0  0  0  0  0  0  0  0
   54.1060  155.3450   24.7960 C   0  0  0  0  0  0  0  0  0  0  0  0
   54.1960  154.0040   25.1740 C   0  0  0  0  0  0  0  0  0  0  0  0
   53.6350  153.5830   26.3770 C   0  0  0  0  0  0  0  0  0  0  0  0
   53.7600  152.2560   26.6850 O   0  0  0  0  0  0  0  0  0  0  0  0
   52.9830  154.5020   27.2030 C   0  0  0  0  0  0  0  0  0  0  0  0
   52.3810  154.1020   28.4760 C   0  0  0  0  0  0  0  0  0  0  0  0
   52.4120  152.9390   28.8740 O   0  0  0  0  0  0  0  0  0  0  0  0
   51.7190  155.1540   29.2810 C   0  0  0  0  0  0  0  0  0  0  0  0
   51.1400  154.7630   30.4740 O   0  0  0  0  0  0  0  0  0  0  0  0
   49.7800  157.4350   30.0600 C   0  0  0  0  0  0  0  0  0  0  0  0
   49.2040  158.5100   30.7410 C   0  0  0  0  0  0  0  0  0  0  0  0
   49.9010  159.7150   30.9080 C   0  0  0  0  0  0  0  0  0  0  0  0
   49.2390  160.8470   31.6480 C   0  0  0  0  0  0  0  0  0  0  0  0
   53.2583  162.3513   31.5886 H   0  0  0  0  0  0  0  0  0  0  0  0
   52.7822  160.6975   32.4060 H   0  0  0  0  0  0  0  0  0  0  0  0
   51.9120  161.8072   29.6660 H   0  0  0  0  0  0  0  0  0  0  0  0
   52.7756  158.8419   29.2662 H   0  0  0  0  0  0  0  0  0  0  0  0
   53.3821  157.3179   25.3211 H   0  0  0  0  0  0  0  0  0  0  0  0
   54.5497  155.6790   23.8465 H   0  0  0  0  0  0  0  0  0  0  0  0
   54.7092  153.2812   24.5226 H   0  0  0  0  0  0  0  0  0  0  0  0
   53.6210  151.9630   27.5640 H   0  0  0  0  0  0  0  0  0  0  0  0
   51.4490  153.9960   30.9150 H   0  0  0  0  0  0  0  0  0  0  0  0
   49.2183  156.4954   29.9514 H   0  0  0  0  0  0  0  0  0  0  0  0
   48.1887  158.4097   31.1523 H   0  0  0  0  0  0  0  0  0  0  0  0
   49.3351  160.6827   32.7314 H   0  0  0  0  0  0  0  0  0  0  0  0
   49.7244  161.7960   31.3766 H   0  0  0  0  0  0  0  0  0  0  0  0
   48.1738  160.8892   31.3766 H   0  0  0  0  0  0  0  0  0  0  0  0
  1  2  2  0
  2  3  1  0
  3  4  2  0
  4  5  1  0
  5  6  1  0
  6  7  1  0
  7  8  1  0
  8  9  2  0
  9 10  1  0
 10 11  2  0
 11 12  1  0
 12 13  1  0
 12 14  2  0
 14 15  1  0
 15 16  2  0
 15 17  1  0
 17 18  1  0
  5 19  2  0
 19 20  1  0
 20 21  2  0
 21 22  1  0
 21  3  1  0
 17  6  2  0
 14  8  1  0
  1 23  1  0
  1 24  1  0
  2 25  1  0
  4 26  1  0
  9 27  1  0
 10 28  1  0
 11 29  1  0
 13 30  1  0
 18 31  1  0
 19 32  1  0
 20 33  1  0
 22 34  1  0
 22 35  1  0
 22 36  1  0
M  END
>  <meeko>  (3) 
{"is_sidechain": [false], "free_energy": -10.419, "intermolecular_energy": -12.037, "internal_energy": -0.121}

$$$$
cand_031_out
     RDKit          3D

 36 38  0  0  0  0  0  0  0  0999 V2000
   48.2310  158.5780   30.1280 C   0  0  0  0  0  0  0  0  0  0  0  0
   49.2580  157.8660   30.6080 C   0  0  0  0  0  0  0  0  0  0  0  0
   50.5430  157.7240   29.9080 C   0  0  0  0  0  0  0  0  0  0  0  0
   50.8440  156.5170   29.2510 C   0  0  0  0  0  0  0  0  0  0  0  0
   52.0710  156.3200   28.5990 C   0  0  0  0  0  0  0  0  0  0  0  0
   52.3330  155.0450   27.8960 C   0  0  0  0  0  0  0  0  0  0  0  0
   53.0280  155.2200   26.7050 O   0  0  0  0  0  0  0  0  0  0  0  0
   53.3360  154.1180   25.9490 C   0  0  0  0  0  0  0  0  0  0  0  0
   54.0450  154.3370   24.7670 C   0  0  0  0  0  0  0  0  0  0  0  0
   54.3900  153.2580   23.9510 C   0  0  0  0  0  0  0  0  0  0  0  0
   54.0260  151.9600   24.3160 C   0  0  0  0  0  0  0  0  0  0  0  0
   53.3180  151.7440   25.4950 C   0  0  0  0  0  0  0  0  0  0  0  0
   52.9930  150.4480   25.7900 O   0  0  0  0  0  0  0  0  0  0  0  0
   52.9740  152.8240   26.3110 C   0  0  0  0  0  0  0  0  0  0  0  0
   52.2310  152.6400   27.5590 C   0  0  0  0  0  0  0  0  0  0  0  0
   51.8680  151.5300   27.9440 O   0  0  0  0  0  0  0  0  0  0  0  0
   51.9210  153.8490   28.3560 C   0  0  0  0  0  0  0  0  0  0  0  0
   51.2060  153.6660   29.5250 O   0  0  0  0  0  0  0  0  0  0  0  0
   53.0020  157.3620   28.6050 C   0  0  0  0  0  0  0  0  0  0  0  0
   52.7230  158.5630   29.2610 C   0  0  0  0  0  0  0  0  0  0  0  0
   51.4980  158.7590   29.9170 C   0  0  0  0  0  0  0  0  0  0  0  0
   51.2430  160.0700   30.6120 C   0  0  0  0  0  0  0  0  0  0  0  0
   47.2939  158.6461   30.7001 H   0  0  0  0  0  0  0  0  0  0  0  0
   48.3242  159.0950   29.1615 H   0  0  0  0  0  0  0  0  0  0  0  0
   49.1339  157.3606   31.5771 H   0  0  0  0  0  0  0  0  0  0  0  0
   50.0991  155.7076   29.2483 H   0  0  0  0  0  0  0  0  0  0  0  0
   54.3318  155.3590   24.4785 H   0  0  0  0  0  0  0  0  0  0  0  0
   54.9492  153.4304   23.0195 H   0  0  0  0  0  0  0  0  0  0  0  0
   54.2982  151.1100   23.6731 H   0  0  0  0  0  0  0  0  0  0  0  0
   53.1290  150.1150   26.6560 H   0  0  0  0  0  0  0  0  0  0  0  0
   51.5770  153.9240   30.3460 H   0  0  0  0  0  0  0  0  0  0  0  0
   53.9645  157.2351   28.0878 H   0  0  0  0  0  0  0  0  0  0  0  0
   53.4741  159.3667   29.2635 H   0  0  0  0  0  0  0  0  0  0  0  0
   51.2723  159.9194   31.7012 H   0  0  0  0  0  0  0  0  0  0  0  0
   52.0168  160.7957   30.3213 H   0  0  0  0  0  0  0  0  0  0  0  0
   50.2536  160.4528   30.3213 H   0  0  0  0  0  0  0  0  0  0  0  0
  1  2  2  0
  2  3  1  0
  3  4  2  0
  4  5  1  0
  5  6  1  0
  6  7  1  0
  7  8  1  0
  8  9  2  0
  9 10  1  0
 10 11  2  0
 11 12  1  0
 12 13  1  0
 12 14  2  0
 14 15  1  0
 15 16  2  0
 15 17  1  0
 17 18  1  0
  5 19  2  0
 19 20  1  0
 20 21  2  0
 21 22  1  0
 21  3  1  0
 17  6  2  0
 14  8  1  0
  1 23  1  0
  1 24  1  0
  2 25  1  0
  4 26  1  0
  9 27  1  0
 10 28  1  0
 11 29  1  0
 13 30  1  0
 18 31  1  0
 19 32  1  0
 20 33  1  0
 22 34  1  0
 22 35  1  0
 22 36  1  0
M  END
>  <meeko>  (4) 
{"is_sidechain": [false], "free_energy": -9.654, "intermolecular_energy": -11.374, "internal_energy": 0.116}

$$$$
cand_031_out
     RDKit          3D

 36 38  0  0  0  0  0  0  0  0999 V2000
   54.1320  156.6730   25.1730 C   0  0  0  0  0  0  0  0  0  0  0  0
   53.5080  155.5250   25.4630 C   0  0  0  0  0  0  0  0  0  0  0  0
   52.8750  155.2540   26.7630 C   0  0  0  0  0  0  0  0  0  0  0  0
   52.2950  156.3130   27.4850 C   0  0  0  0  0  0  0  0  0  0  0  0
   51.7100  156.1110   28.7450 C   0  0  0  0  0  0  0  0  0  0  0  0
   51.0850  157.2480   29.4550 C   0  0  0  0  0  0  0  0  0  0  0  0
   51.9850  158.2710   29.7310 O   0  0  0  0  0  0  0  0  0  0  0  0
   51.5380  159.3880   30.3890 C   0  0  0  0  0  0  0  0  0  0  0  0
   52.4710  160.3960   30.6340 C   0  0  0  0  0  0  0  0  0  0  0  0
   52.0820  161.5590   31.3010 C   0  0  0  0  0  0  0  0  0  0  0  0
   50.7600  161.7140   31.7240 C   0  0  0  0  0  0  0  0  0  0  0  0
   49.8310  160.7060   31.4800 C   0  0  0  0  0  0  0  0  0  0  0  0
   48.5550  160.9240   31.9220 O   0  0  0  0  0  0  0  0  0  0  0  0
   50.2210  159.5430   30.8110 C   0  0  0  0  0  0  0  0  0  0  0  0
   49.2760  158.4610   30.5340 C   0  0  0  0  0  0  0  0  0  0  0  0
   48.0980  158.5190   30.8810 O   0  0  0  0  0  0  0  0  0  0  0  0
   49.7890  157.2720   29.8140 C   0  0  0  0  0  0  0  0  0  0  0  0
   48.8910  156.2490   29.5690 O   0  0  0  0  0  0  0  0  0  0  0  0
   51.7070  154.8180   29.2770 C   0  0  0  0  0  0  0  0  0  0  0  0
   52.2880  153.7580   28.5770 C   0  0  0  0  0  0  0  0  0  0  0  0
   52.8760  153.9600   27.3200 C   0  0  0  0  0  0  0  0  0  0  0  0
   53.4930  152.7880   26.6040 C   0  0  0  0  0  0  0  0  0  0  0  0
   54.5867  156.8167   24.1817 H   0  0  0  0  0  0  0  0  0  0  0  0
   54.1901  157.4728   25.9259 H   0  0  0  0  0  0  0  0  0  0  0  0
   53.4663  154.7440   24.6895 H   0  0  0  0  0  0  0  0  0  0  0  0
   52.3000  157.3240   27.0516 H   0  0  0  0  0  0  0  0  0  0  0  0
   53.5126  160.2744   30.3018 H   0  0  0  0  0  0  0  0  0  0  0  0
   52.8174  162.3541   31.4936 H   0  0  0  0  0  0  0  0  0  0  0  0
   50.4533  162.6307   32.2489 H   0  0  0  0  0  0  0  0  0  0  0  0
   48.3790  161.6180   32.5260 H   0  0  0  0  0  0  0  0  0  0  0  0
   49.0640  155.3870   29.8940 H   0  0  0  0  0  0  0  0  0  0  0  0
   51.2423  154.6336   30.2568 H   0  0  0  0  0  0  0  0  0  0  0  0
   52.2843  152.7503   29.0181 H   0  0  0  0  0  0  0  0  0  0  0  0
   53.8730  152.0662   27.3420 H   0  0  0  0  0  0  0  0  0  0  0  0
   52.7336  152.3024   25.9735 H   0  0  0  0  0  0  0  0  0  0  0  0
   54.3231  153.1392   25.9735 H   0  0  0  0  0  0  0  0  0  0  0  0
  1  2  2  0
  2  3  1  0
  3  4  2  0
  4  5  1  0
  5  6  1  0
  6  7  1  0
  7  8  1  0
  8  9  2  0
  9 10  1  0
 10 11  2  0
 11 12  1  0
 12 13  1  0
 12 14  2  0
 14 15  1  0
 15 16  2  0
 15 17  1  0
 17 18  1  0
  5 19  2  0
 19 20  1  0
 20 21  2  0
 21 22  1  0
 21  3  1  0
 17  6  2  0
 14  8  1  0
  1 23  1  0
  1 24  1  0
  2 25  1  0
  4 26  1  0
  9 27  1  0
 10 28  1  0
 11 29  1  0
 13 30  1  0
 18 31  1  0
 19 32  1  0
 20 33  1  0
 22 34  1  0
 22 35  1  0
 22 36  1  0
M  END
>  <meeko>  (5) 
{"is_sidechain": [false], "free_energy": -9.246, "intermolecular_energy": -10.461, "internal_energy": -0.319}

$$$$
cand_031_out
     RDKit          3D

 36 38  0  0  0  0  0  0  0  0999 V2000
   51.6230  152.3700   28.0350 C   0  0  0  0  0  0  0  0  0  0  0  0
   51.9900  153.3590   28.8590 C   0  0  0  0  0  0  0  0  0  0  0  0
   52.2160  154.7430   28.4140 C   0  0  0  0  0  0  0  0  0  0  0  0
   51.7360  155.8090   29.1970 C   0  0  0  0  0  0  0  0  0  0  0  0
   51.8960  157.1450   28.7980 C   0  0  0  0  0  0  0  0  0  0  0  0
   51.4030  158.2350   29.6670 C   0  0  0  0  0  0  0  0  0  0  0  0
   50.0620  158.0910   30.0040 O   0  0  0  0  0  0  0  0  0  0  0  0
   49.4740  159.0350   30.8060 C   0  0  0  0  0  0  0  0  0  0  0  0
   48.1310  158.8440   31.1310 C   0  0  0  0  0  0  0  0  0  0  0  0
   47.4720  159.7690   31.9430 C   0  0  0  0  0  0  0  0  0  0  0  0
   48.1550  160.8850   32.4300 C   0  0  0  0  0  0  0  0  0  0  0  0
   49.4960  161.0740   32.1040 C   0  0  0  0  0  0  0  0  0  0  0  0
   50.1040  162.1890   32.6140 O   0  0  0  0  0  0  0  0  0  0  0  0
   50.1550  160.1470   31.2910 C   0  0  0  0  0  0  0  0  0  0  0  0
   51.5630  160.3080   30.9260 C   0  0  0  0  0  0  0  0  0  0  0  0
   52.2300  161.2670   31.3080 O   0  0  0  0  0  0  0  0  0  0  0  0
   52.1700  159.2660   30.0660 C   0  0  0  0  0  0  0  0  0  0  0  0
   53.4960  159.4350   29.7140 O   0  0  0  0  0  0  0  0  0  0  0  0
   52.5560  157.4040   27.5930 C   0  0  0  0  0  0  0  0  0  0  0  0
   53.0280  156.3570   26.7990 C   0  0  0  0  0  0  0  0  0  0  0  0
   52.8660  155.0210   27.1960 C   0  0  0  0  0  0  0  0  0  0  0  0
   53.3890  153.9250   26.3060 C   0  0  0  0  0  0  0  0  0  0  0  0
   51.4693  151.3545   28.4288 H   0  0  0  0  0  0  0  0  0  0  0  0
   51.4751  152.5728   26.9640 H   0  0  0  0  0  0  0  0  0  0  0  0
   52.1299  153.1247   29.9246 H   0  0  0  0  0  0  0  0  0  0  0  0
   51.2228  155.5899   30.1450 H   0  0  0  0  0  0  0  0  0  0  0  0
   47.5916  157.9653   30.7478 H   0  0  0  0  0  0  0  0  0  0  0  0
   46.4130  159.6182   32.1994 H   0  0  0  0  0  0  0  0  0  0  0  0
   47.6353  161.6134   33.0697 H   0  0  0  0  0  0  0  0  0  0  0  0
   49.8700  162.5030   33.4650 H   0  0  0  0  0  0  0  0  0  0  0  0
   53.9300  160.2450   29.8980 H   0  0  0  0  0  0  0  0  0  0  0  0
   52.7050  158.4439   27.2669 H   0  0  0  0  0  0  0  0  0  0  0  0
   53.5340  156.5827   25.8487 H   0  0  0  0  0  0  0  0  0  0  0  0
   53.7804  153.1048   26.9258 H   0  0  0  0  0  0  0  0  0  0  0  0
   52.5738  153.5479   25.6710 H   0  0  0  0  0  0  0  0  0  0  0  0
   54.1949  154.3215   25.6710 H   0  0  0  0  0  0  0  0  0  0  0  0
  1  2  2  0
  2  3  1  0
  3  4  2  0
  4  5  1  0
  5  6  1  0
  6  7  1  0
  7  8  1  0
  8  9  2  0
  9 10  1  0
 10 11  2  0
 11 12  1  0
 12 13  1  0
 12 14  2  0
 14 15  1  0
 15 16  2  0
 15 17  1  0
 17 18  1  0
  5 19  2  0
 19 20  1  0
 20 21  2  0
 21 22  1  0
 21  3  1  0
 17  6  2  0
 14  8  1  0
  1 23  1  0
  1 24  1  0
  2 25  1  0
  4 26  1  0
  9 27  1  0
 10 28  1  0
 11 29  1  0
 13 30  1  0
 18 31  1  0
 19 32  1  0
 20 33  1  0
 22 34  1  0
 22 35  1  0
 22 36  1  0
M  END
>  <meeko>  (6) 
{"is_sidechain": [false], "free_energy": -8.581, "intermolecular_energy": -10.436, "internal_energy": 0.439}

$$$$
cand_031_out
     RDKit          3D

 36 38  0  0  0  0  0  0  0  0999 V2000
   51.0890  160.3920   30.0640 C   0  0  0  0  0  0  0  0  0  0  0  0
   51.8150  159.2670   30.0670 C   0  0  0  0  0  0  0  0  0  0  0  0
   51.2750  157.9550   29.6800 C   0  0  0  0  0  0  0  0  0  0  0  0
   51.9690  157.1710   28.7400 C   0  0  0  0  0  0  0  0  0  0  0  0
   51.4770  155.9280   28.3130 C   0  0  0  0  0  0  0  0  0  0  0  0
   52.2540  155.1240   27.3450 C   0  0  0  0  0  0  0  0  0  0  0  0
   51.9710  153.7650   27.4220 O   0  0  0  0  0  0  0  0  0  0  0  0
   52.6240  152.9010   26.5800 C   0  0  0  0  0  0  0  0  0  0  0  0
   52.2990  151.5480   26.6830 C   0  0  0  0  0  0  0  0  0  0  0  0
   52.9280  150.6160   25.8550 C   0  0  0  0  0  0  0  0  0  0  0  0
   53.8820  151.0370   24.9260 C   0  0  0  0  0  0  0  0  0  0  0  0
   54.2040  152.3880   24.8260 C   0  0  0  0  0  0  0  0  0  0  0  0
   55.1470  152.7290   23.8950 O   0  0  0  0  0  0  0  0  0  0  0  0
   53.5740  153.3200   25.6540 C   0  0  0  0  0  0  0  0  0  0  0  0
   53.8830  154.7490   25.5800 C   0  0  0  0  0  0  0  0  0  0  0  0
   54.7160  155.1950   24.7940 O   0  0  0  0  0  0  0  0  0  0  0  0
   53.1550  155.6550   26.4970 C   0  0  0  0  0  0  0  0  0  0  0  0
   53.4650  157.0010   26.4300 O   0  0  0  0  0  0  0  0  0  0  0  0
   50.2710  155.4690   28.8510 C   0  0  0  0  0  0  0  0  0  0  0  0
   49.5660  156.2400   29.7770 C   0  0  0  0  0  0  0  0  0  0  0  0
   50.0540  157.4840   30.2020 C   0  0  0  0  0  0  0  0  0  0  0  0
   49.2580  158.2810   31.2000 C   0  0  0  0  0  0  0  0  0  0  0  0
   51.5497  161.3447   30.3643 H   0  0  0  0  0  0  0  0  0  0  0  0
   50.0319  160.3636   29.7612 H   0  0  0  0  0  0  0  0  0  0  0  0
   52.8694  159.3272   30.3747 H   0  0  0  0  0  0  0  0  0  0  0  0
   52.9202  157.5414   28.3299 H   0  0  0  0  0  0  0  0  0  0  0  0
   51.5484  151.2160   27.4154 H   0  0  0  0  0  0  0  0  0  0  0  0
   52.6718  149.5492   25.9345 H   0  0  0  0  0  0  0  0  0  0  0  0
   54.3782  150.3026   24.2744 H   0  0  0  0  0  0  0  0  0  0  0  0
   56.0420  152.4820   24.0210 H   0  0  0  0  0  0  0  0  0  0  0  0
   53.4230  157.4500   25.6090 H   0  0  0  0  0  0  0  0  0  0  0  0
   49.8738  154.4910   28.5417 H   0  0  0  0  0  0  0  0  0  0  0  0
   48.6131  155.8659   30.1794 H   0  0  0  0  0  0  0  0  0  0  0  0
   49.5501  157.9886   32.2194 H   0  0  0  0  0  0  0  0  0  0  0  0
   49.4565  159.3532   31.0550 H   0  0  0  0  0  0  0  0  0  0  0  0
   48.1856  158.0838   31.0550 H   0  0  0  0  0  0  0  0  0  0  0  0
  1  2  2  0
  2  3  1  0
  3  4  2  0
  4  5  1  0
  5  6  1  0
  6  7  1  0
  7  8  1  0
  8  9  2  0
  9 10  1  0
 10 11  2  0
 11 12  1  0
 12 13  1  0
 12 14  2  0
 14 15  1  0
 15 16  2  0
 15 17  1  0
 17 18  1  0
  5 19  2  0
 19 20  1  0
 20 21  2  0
 21 22  1  0
 21  3  1  0
 17  6  2  0
 14  8  1  0
  1 23  1  0
  1 24  1  0
  2 25  1  0
  4 26  1  0
  9 27  1  0
 10 28  1  0
 11 29  1  0
 13 30  1  0
 18 31  1  0
 19 32  1  0
 20 33  1  0
 22 34  1  0
 22 35  1  0
 22 36  1  0
M  END
>  <meeko>  (7) 
{"is_sidechain": [false], "free_energy": -8.342, "intermolecular_energy": -10.381, "internal_energy": 0.665}

$$$$
