cand_032_out
     RDKit          3D

 43 45  0  0  0  0  0  0  0  0999 V2000
   54.8400  156.9140   24.3000 C   0  0  0  0  0  0  0  0  0  0  0  0
   53.4790  156.2520   24.4660 C   0  0  0  0  0  0  0  0  0  0  0  0
   53.6290  154.9220   25.0890 N   0  0  0  0  0  0  0  0  0  0  0  0
   55.0080  154.4200   25.1520 C   0  0  0  0  0  0  0  0  0  0  0  0
   52.9970  154.8370   26.3510 C   0  0  0  0  0  0  0  0  0  0  0  0
   52.6490  155.9920   27.0790 C   0  0  0  0  0  0  0  0  0  0  0  0
   52.0170  155.9170   28.3290 C   0  0  0  0  0  0  0  0  0  0  0  0
   51.6710  157.1290   29.0990 C   0  0  0  0  0  0  0  0  0  0  0  0
   50.3530  157.1300   29.5440 O   0  0  0  0  0  0  0  0  0  0  0  0
   49.8990  158.2000   30.2730 C   0  0  0  0  0  0  0  0  0  0  0  0
   48.5760  158.1510   30.7110 C   0  0  0  0  0  0  0  0  0  0  0  0
   48.0490  159.2090   31.4560 C   0  0  0  0  0  0  0  0  0  0  0  0
   48.8460  160.3140   31.7620 C   0  0  0  0  0  0  0  0  0  0  0  0
   50.1670  160.3590   31.3240 C   0  0  0  0  0  0  0  0  0  0  0  0
   50.8910  161.4700   31.6580 O   0  0  0  0  0  0  0  0  0  0  0  0
   50.6930  159.3010   30.5790 C   0  0  0  0  0  0  0  0  0  0  0  0
   52.0760  159.3080   30.0980 C   0  0  0  0  0  0  0  0  0  0  0  0
   52.8380  160.2470   30.3210 O   0  0  0  0  0  0  0  0  0  0  0  0
   52.5380  158.1340   29.3240 C   0  0  0  0  0  0  0  0  0  0  0  0
   53.8420  158.1580   28.8630 O   0  0  0  0  0  0  0  0  0  0  0  0
   51.7510  154.6520   28.8630 C   0  0  0  0  0  0  0  0  0  0  0  0
   52.0920  153.4960   28.1580 C   0  0  0  0  0  0  0  0  0  0  0  0
   52.7150  153.5740   26.8990 C   0  0  0  0  0  0  0  0  0  0  0  0
   53.0650  152.3090   26.1530 C   0  0  0  0  0  0  0  0  0  0  0  0
   54.3670  151.9260   26.3040 F   0  0  0  0  0  0  0  0  0  0  0  0
   52.3370  151.2290   26.5800 F   0  0  0  0  0  0  0  0  0  0  0  0
   52.8300  152.3750   24.8120 F   0  0  0  0  0  0  0  0  0  0  0  0
   55.2694  157.1229   25.2909 H   0  0  0  0  0  0  0  0  0  0  0  0
   55.5098  156.2410   23.7446 H   0  0  0  0  0  0  0  0  0  0  0  0
   54.7241  157.8564   23.7446 H   0  0  0  0  0  0  0  0  0  0  0  0
   52.8442  156.8828   25.1056 H   0  0  0  0  0  0  0  0  0  0  0  0
   53.0156  156.1331   23.4755 H   0  0  0  0  0  0  0  0  0  0  0  0
   55.3104  154.3099   26.2039 H   0  0  0  0  0  0  0  0  0  0  0  0
   55.0659  153.4431   24.6497 H   0  0  0  0  0  0  0  0  0  0  0  0
   55.6804  155.1310   24.6497 H   0  0  0  0  0  0  0  0  0  0  0  0
   52.8794  156.9805   26.6551 H   0  0  0  0  0  0  0  0  0  0  0  0
   47.9481  157.2805   30.4703 H   0  0  0  0  0  0  0  0  0  0  0  0
   47.0054  159.1715   31.8018 H   0  0  0  0  0  0  0  0  0  0  0  0
   48.4311  161.1473   32.3480 H   0  0  0  0  0  0  0  0  0  0  0  0
   51.8080  161.5080   31.4670 H   0  0  0  0  0  0  0  0  0  0  0  0
   54.0260  157.9620   27.9670 H   0  0  0  0  0  0  0  0  0  0  0  0
   51.2685  154.5670   29.8479 H   0  0  0  0  0  0  0  0  0  0  0  0
   51.8704  152.5103   28.5932 H   0  0  0  0  0  0  0  0  0  0  0  0
  1  2  1  0
  2  3  1  0
  3  4  1  0
  3  5  1  0
  5  6  2  0
  6  7  1  0
  7  8  1  0
  8  9  1  0
  9 10  1  0
 10 11  2  0
 11 12  1  0
 12 13  2  0
 13 14  1  0
 14 15  1  0
 14 16  2  0
 16 17  1  0
 17 18  2  0
 17 19  1  0
 19 20  1  0
  7 21  2  0
 21 22  1  0
 22 23  2  0
 23 24  1  0
 24 25  1  0
 24 26  1  0
 24 27  1  0
 23  5  1  0
 19  8  2  0
 16 10  1  0
  1 28  1  0
  1 29  1  0
  1 30  1  0
  2 31  1  0
  2 32  1  0
  4 33  1  0
  4 34  1  0
  4 35  1  0
  6 36  1  0
 11 37  1  0
 12 38  1  0
 13 39  1  0
 15 40  1  0
 20 41  1  0
 21 42  1  0
 22 43  1  0
M  END
>  <meeko>  (1) 
{"is_sidechain": [false], "free_energy": -9.644, "intermolecular_energy": -12.463, "internal_energy": 0.645}

$$$$
cand_032_out
     RDKit          3D

 43 45  0  0  0  0  0  0  0  0999 V2000
   53.0790  161.9780   30.8540 C   0  0  0  0  0  0  0  0  0  0  0  0
   52.6220  160.5260   30.8580 C   0  0  0  0  0  0  0  0  0  0  0  0
   51.1490  160.4520   30.8090 N   0  0  0  0  0  0  0  0  0  0  0  0
   50.5020  161.5040   30.0150 C   0  0  0  0  0  0  0  0  0  0  0  0
   50.6790  159.1710   30.4360 C   0  0  0  0  0  0  0  0  0  0  0  0
   51.4730  158.2890   29.6760 C   0  0  0  0  0  0  0  0  0  0  0  0
   51.0180  157.0150   29.3060 C   0  0  0  0  0  0  0  0  0  0  0  0
   51.8440  156.1000   28.4920 C   0  0  0  0  0  0  0  0  0  0  0  0
   52.3160  156.6910   27.3250 O   0  0  0  0  0  0  0  0  0  0  0  0
   53.0980  155.9500   26.4750 C   0  0  0  0  0  0  0  0  0  0  0  0
   53.5610  156.5880   25.3240 C   0  0  0  0  0  0  0  0  0  0  0  0
   54.3600  155.8900   24.4150 C   0  0  0  0  0  0  0  0  0  0  0  0
   54.6950  154.5560   24.6580 C   0  0  0  0  0  0  0  0  0  0  0  0
   54.2320  153.9230   25.8090 C   0  0  0  0  0  0  0  0  0  0  0  0
   54.5970  152.6170   25.9840 O   0  0  0  0  0  0  0  0  0  0  0  0
   53.4320  154.6210   26.7170 C   0  0  0  0  0  0  0  0  0  0  0  0
   52.9240  153.9940   27.9380 C   0  0  0  0  0  0  0  0  0  0  0  0
   53.1700  152.8220   28.2190 O   0  0  0  0  0  0  0  0  0  0  0  0
   52.0920  154.8230   28.8390 C   0  0  0  0  0  0  0  0  0  0  0  0
   51.6060  154.2160   29.9830 O   0  0  0  0  0  0  0  0  0  0  0  0
   49.7290  156.6330   29.6930 C   0  0  0  0  0  0  0  0  0  0  0  0
   48.9270  157.4950   30.4430 C   0  0  0  0  0  0  0  0  0  0  0  0
   49.3900  158.7670   30.8230 C   0  0  0  0  0  0  0  0  0  0  0  0
   48.5050  159.6770   31.6420 C   0  0  0  0  0  0  0  0  0  0  0  0
   48.0490  160.7630   30.9540 F   0  0  0  0  0  0  0  0  0  0  0  0
   47.3710  159.0460   32.0830 F   0  0  0  0  0  0  0  0  0  0  0  0
   49.0990  160.1520   32.7730 F   0  0  0  0  0  0  0  0  0  0  0  0
   53.1899  162.3303   31.8901 H   0  0  0  0  0  0  0  0  0  0  0  0
   54.0454  162.0568   30.3345 H   0  0  0  0  0  0  0  0  0  0  0  0
   52.3320  162.5961   30.3345 H   0  0  0  0  0  0  0  0  0  0  0  0
   53.0405  160.0116   29.9804 H   0  0  0  0  0  0  0  0  0  0  0  0
   52.9738  160.0430   31.7815 H   0  0  0  0  0  0  0  0  0  0  0  0
   50.0466  162.2444   30.6891 H   0  0  0  0  0  0  0  0  0  0  0  0
   51.2524  161.9984   29.3805 H   0  0  0  0  0  0  0  0  0  0  0  0
   49.7223  161.0573   29.3805 H   0  0  0  0  0  0  0  0  0  0  0  0
   52.4782  158.6089   29.3641 H   0  0  0  0  0  0  0  0  0  0  0  0
   53.2975  157.6387   25.1325 H   0  0  0  0  0  0  0  0  0  0  0  0
   54.7257  156.3916   23.5069 H   0  0  0  0  0  0  0  0  0  0  0  0
   55.3233  154.0064   23.9417 H   0  0  0  0  0  0  0  0  0  0  0  0
   55.0130  152.3490   26.7800 H   0  0  0  0  0  0  0  0  0  0  0  0
   50.8060  153.7320   29.9520 H   0  0  0  0  0  0  0  0  0  0  0  0
   49.3438  155.6441   29.4036 H   0  0  0  0  0  0  0  0  0  0  0  0
   47.9179  157.1743   30.7411 H   0  0  0  0  0  0  0  0  0  0  0  0
  1  2  1  0
  2  3  1  0
  3  4  1  0
  3  5  1  0
  5  6  2  0
  6  7  1  0
  7  8  1  0
  8  9  1  0
  9 10  1  0
 10 11  2  0
 11 12  1  0
 12 13  2  0
 13 14  1  0
 14 15  1  0
 14 16  2  0
 16 17  1  0
 17 18  2  0
 17 19  1  0
 19 20  1  0
  7 21  2  0
 21 22  1  0
 22 23  2  0
 23 24  1  0
 24 25  1  0
 24 26  1  0
 24 27  1  0
 23  5  1  0
 19  8  2  0
 16 10  1  0
  1 28  1  0
  1 29  1  0
  1 30  1  0
  2 31  1  0
  2 32  1  0
  4 33  1  0
  4 34  1  0
  4 35  1  0
  6 36  1  0
 11 37  1  0
 12 38  1  0
 13 39  1  0
 15 40  1  0
 20 41  1  0
 21 42  1  0
 22 43  1  0
M  END
>  <meeko>  (2) 
{"is_sidechain": [false], "free_energy": -9.356, "intermolecular_energy": -11.753, "internal_energy": 0.308}

$$$$
cand_032_out
     RDKit          3D

 43 45  0  0  0  0  0  0  0  0999 V2000
   46.4940  160.0720   30.8840 C   0  0  0  0  0  0  0  0  0  0  0  0
   47.7020  159.2860   30.3940 C   0  0  0  0  0  0  0  0  0  0  0  0
   48.7960  159.3590   31.3820 N   0  0  0  0  0  0  0  0  0  0  0  0
   48.6290  158.4910   32.5560 C   0  0  0  0  0  0  0  0  0  0  0  0
   50.0710  159.1850   30.7980 C   0  0  0  0  0  0  0  0  0  0  0  0
   50.3950  158.0210   30.0710 C   0  0  0  0  0  0  0  0  0  0  0  0
   51.6560  157.8430   29.4830 C   0  0  0  0  0  0  0  0  0  0  0  0
   52.0000  156.6140   28.7380 C   0  0  0  0  0  0  0  0  0  0  0  0
   52.5380  156.8750   27.4830 O   0  0  0  0  0  0  0  0  0  0  0  0
   52.9000  155.8200   26.6840 C   0  0  0  0  0  0  0  0  0  0  0  0
   53.4490  156.1280   25.4390 C   0  0  0  0  0  0  0  0  0  0  0  0
   53.8380  155.1010   24.5760 C   0  0  0  0  0  0  0  0  0  0  0  0
   53.6780  153.7670   24.9580 C   0  0  0  0  0  0  0  0  0  0  0  0
   53.1300  153.4630   26.2020 C   0  0  0  0  0  0  0  0  0  0  0  0
   53.0010  152.1370   26.5120 O   0  0  0  0  0  0  0  0  0  0  0  0
   52.7410  154.4910   27.0650 C   0  0  0  0  0  0  0  0  0  0  0  0
   52.1620  154.2150   28.3800 C   0  0  0  0  0  0  0  0  0  0  0  0
   51.9830  153.0680   28.7860 O   0  0  0  0  0  0  0  0  0  0  0  0
   51.7900  155.3750   29.2220 C   0  0  0  0  0  0  0  0  0  0  0  0
   51.2310  155.1030   30.4570 O   0  0  0  0  0  0  0  0  0  0  0  0
   52.6140  158.8480   29.6500 C   0  0  0  0  0  0  0  0  0  0  0  0
   52.3130  160.0060   30.3690 C   0  0  0  0  0  0  0  0  0  0  0  0
   51.0440  160.1890   30.9480 C   0  0  0  0  0  0  0  0  0  0  0  0
   50.7410  161.4540   31.7140 C   0  0  0  0  0  0  0  0  0  0  0  0
   49.6000  162.0820   31.3060 F   0  0  0  0  0  0  0  0  0  0  0  0
   50.5490  161.2230   33.0520 F   0  0  0  0  0  0  0  0  0  0  0  0
   51.7380  162.3820   31.6630 F   0  0  0  0  0  0  0  0  0  0  0  0
   46.4828  160.0793   31.9839 H   0  0  0  0  0  0  0  0  0  0  0  0
   46.5529  161.1052   30.5111 H   0  0  0  0  0  0  0  0  0  0  0  0
   45.5733  159.5996   30.5111 H   0  0  0  0  0  0  0  0  0  0  0  0
   47.4153  158.2342   30.2472 H   0  0  0  0  0  0  0  0  0  0  0  0
   48.0487  159.7184   29.4438 H   0  0  0  0  0  0  0  0  0  0  0  0
   48.7439  159.0880   33.4727 H   0  0  0  0  0  0  0  0  0  0  0  0
   47.6271  158.0373   32.5370 H   0  0  0  0  0  0  0  0  0  0  0  0
   49.3910  157.6979   32.5370 H   0  0  0  0  0  0  0  0  0  0  0  0
   49.6378  157.2306   29.9620 H   0  0  0  0  0  0  0  0  0  0  0  0
   53.5753  157.1783   25.1374 H   0  0  0  0  0  0  0  0  0  0  0  0
   54.2709  155.3430   23.5942 H   0  0  0  0  0  0  0  0  0  0  0  0
   53.9841  152.9584   24.2780 H   0  0  0  0  0  0  0  0  0  0  0  0
   53.3680  151.4850   25.9470 H   0  0  0  0  0  0  0  0  0  0  0  0
   51.6740  155.3620   31.2390 H   0  0  0  0  0  0  0  0  0  0  0  0
   53.6148  158.7248   29.2104 H   0  0  0  0  0  0  0  0  0  0  0  0
   53.0792  160.7868   30.4845 H   0  0  0  0  0  0  0  0  0  0  0  0
  1  2  1  0
  2  3  1  0
  3  4  1  0
  3  5  1  0
  5  6  2  0
  6  7  1  0
  7  8  1  0
  8  9  1  0
  9 10  1  0
 10 11  2  0
 11 12  1  0
 12 13  2  0
 13 14  1  0
 14 15  1  0
 14 16  2  0
 16 17  1  0
 17 18  2  0
 17 19  1  0
 19 20  1  0
  7 21  2  0
 21 22  1  0
 22 23  2  0
 23 24  1  0
 24 25  1  0
 24 26  1  0
 24 27  1  0
 23  5  1  0
 19  8  2  0
 16 10  1  0
  1 28  1  0
  1 29  1  0
  1 30  1  0
  2 31  1  0
  2 32  1  0
  4 33  1  0
  4 34  1  0
  4 35  1  0
  6 36  1  0
 11 37  1  0
 12 38  1  0
 13 39  1  0
 15 40  1  0
 20 41  1  0
 21 42  1  0
 22 43  1  0
M  END
>  <meeko>  (3) 
{"is_sidechain": [false], "free_energy": -9.254, "intermolecular_energy": -10.835, "internal_energy": -0.48}

$$$$
cand_032_out
     RDKit          3D

 43 45  0  0  0  0  0  0  0  0999 V2000
   47.6990  160.3740   30.6200 C   0  0  0  0  0  0  0  0  0  0  0  0
   48.7120  159.6920   29.7100 C   0  0  0  0  0  0  0  0  0  0  0  0
   49.3670  158.5760   30.4200 N   0  0  0  0  0  0  0  0  0  0  0  0
   48.5400  157.3730   30.5810 C   0  0  0  0  0  0  0  0  0  0  0  0
   50.6330  158.2530   29.8780 C   0  0  0  0  0  0  0  0  0  0  0  0
   50.8630  157.0250   29.2270 C   0  0  0  0  0  0  0  0  0  0  0  0
   52.1140  156.6990   28.6820 C   0  0  0  0  0  0  0  0  0  0  0  0
   52.3590  155.4020   28.0170 C   0  0  0  0  0  0  0  0  0  0  0  0
   53.0370  155.5320   26.8100 O   0  0  0  0  0  0  0  0  0  0  0  0
   53.3280  154.4030   26.0870 C   0  0  0  0  0  0  0  0  0  0  0  0
   54.0220  154.5790   24.8910 C   0  0  0  0  0  0  0  0  0  0  0  0
   54.3480  153.4710   24.1050 C   0  0  0  0  0  0  0  0  0  0  0  0
   53.9800  152.1880   24.5170 C   0  0  0  0  0  0  0  0  0  0  0  0
   53.2880  152.0160   25.7130 C   0  0  0  0  0  0  0  0  0  0  0  0
   52.9590  150.7340   26.0570 O   0  0  0  0  0  0  0  0  0  0  0  0
   52.9620  153.1250   26.4980 C   0  0  0  0  0  0  0  0  0  0  0  0
   52.2350  152.9890   27.7610 C   0  0  0  0  0  0  0  0  0  0  0  0
   51.8720  151.8940   28.1890 O   0  0  0  0  0  0  0  0  0  0  0  0
   51.9460  154.2250   28.5220 C   0  0  0  0  0  0  0  0  0  0  0  0
   51.2460  154.0850   29.7080 O   0  0  0  0  0  0  0  0  0  0  0  0
   53.1560  157.6220   28.8150 C   0  0  0  0  0  0  0  0  0  0  0  0
   52.9480  158.8430   29.4590 C   0  0  0  0  0  0  0  0  0  0  0  0
   51.6900  159.1730   29.9950 C   0  0  0  0  0  0  0  0  0  0  0  0
   51.4890  160.5030   30.6800 C   0  0  0  0  0  0  0  0  0  0  0  0
   50.9180  160.4030   31.9160 F   0  0  0  0  0  0  0  0  0  0  0  0
   52.6690  161.1650   30.8970 F   0  0  0  0  0  0  0  0  0  0  0  0
   50.7260  161.3810   29.9680 F   0  0  0  0  0  0  0  0  0  0  0  0
   47.9692  160.1921   31.6707 H   0  0  0  0  0  0  0  0  0  0  0  0
   47.6997  161.4563   30.4233 H   0  0  0  0  0  0  0  0  0  0  0  0
   46.6965  159.9662   30.4233 H   0  0  0  0  0  0  0  0  0  0  0  0
   48.1962  159.3030   28.8197 H   0  0  0  0  0  0  0  0  0  0  0  0
   49.4763  160.4248   29.4120 H   0  0  0  0  0  0  0  0  0  0  0  0
   48.3979  157.1664   31.6520 H   0  0  0  0  0  0  0  0  0  0  0  0
   47.5612  157.5346   30.1058 H   0  0  0  0  0  0  0  0  0  0  0  0
   49.0415  156.5170   30.1058 H   0  0  0  0  0  0  0  0  0  0  0  0
   50.0386  156.3015   29.1437 H   0  0  0  0  0  0  0  0  0  0  0  0
   54.3126  155.5891   24.5665 H   0  0  0  0  0  0  0  0  0  0  0  0
   54.8950  153.6090   23.1607 H   0  0  0  0  0  0  0  0  0  0  0  0
   54.2363  151.3155   23.8980 H   0  0  0  0  0  0  0  0  0  0  0  0
   53.5290  150.2340   26.6080 H   0  0  0  0  0  0  0  0  0  0  0  0
   51.4240  154.6580   30.4260 H   0  0  0  0  0  0  0  0  0  0  0  0
   54.1497  157.3835   28.4080 H   0  0  0  0  0  0  0  0  0  0  0  0
   53.7797  159.5573   29.5486 H   0  0  0  0  0  0  0  0  0  0  0  0
  1  2  1  0
  2  3  1  0
  3  4  1  0
  3  5  1  0
  5  6  2  0
  6  7  1  0
  7  8  1  0
  8  9  1  0
  9 10  1  0
 10 11  2  0
 11 12  1  0
 12 13  2  0
 13 14  1  0
 14 15  1  0
 14 16  2  0
 16 17  1  0
 17 18  2  0
 17 19  1  0
 19 20  1  0
  7 21  2  0
 21 22  1  0
 22 23  2  0
 23 24  1  0
 24 25  1  0
 24 26  1  0
 24 27  1  0
 23  5  1  0
 19  8  2  0
 16 10  1  0
  1 28  1  0
  1 29  1  0
  1 30  1  0
  2 31  1  0
  2 32  1  0
  4 33  1  0
  4 34  1  0
  4 35  1  0
  6 36  1  0
 11 37  1  0
 12 38  1  0
 13 39  1  0
 15 40  1  0
 20 41  1  0
 21 42  1  0
 22 43  1  0
M  END
>  <meeko>  (4) 
{"is_sidechain": [false], "free_energy": -8.41, "intermolecular_energy": -10.76, "internal_energy": 0.537}

$$$$
cand_032_out
     RDKit          3D

 43 45  0  0  0  0  0  0  0  0999 V2000
   54.7360  157.0120   24.3550 C   0  0  0  0  0  0  0  0  0  0  0  0
   53.3680  156.4280   24.6790 C   0  0  0  0  0  0  0  0  0  0  0  0
   53.5060  155.0500   25.1880 N   0  0  0  0  0  0  0  0  0  0  0  0
   54.8830  154.5390   25.2280 C   0  0  0  0  0  0  0  0  0  0  0  0
   52.8570  154.8610   26.4300 C   0  0  0  0  0  0  0  0  0  0  0  0
   52.3440  155.9480   27.1660 C   0  0  0  0  0  0  0  0  0  0  0  0
   51.6930  155.7680   28.3950 C   0  0  0  0  0  0  0  0  0  0  0  0
   51.1730  156.9110   29.1740 C   0  0  0  0  0  0  0  0  0  0  0  0
   52.1200  157.9120   29.3630 O   0  0  0  0  0  0  0  0  0  0  0  0
   51.7690  159.0320   30.0720 C   0  0  0  0  0  0  0  0  0  0  0  0
   52.7460  160.0170   30.2240 C   0  0  0  0  0  0  0  0  0  0  0  0
   52.4550  161.1820   30.9370 C   0  0  0  0  0  0  0  0  0  0  0  0
   51.1880  161.3630   31.4970 C   0  0  0  0  0  0  0  0  0  0  0  0
   50.2150  160.3780   31.3420 C   0  0  0  0  0  0  0  0  0  0  0  0
   48.9970  160.6190   31.9150 O   0  0  0  0  0  0  0  0  0  0  0  0
   50.5070  159.2130   30.6290 C   0  0  0  0  0  0  0  0  0  0  0  0
   49.5140  158.1540   30.4430 C   0  0  0  0  0  0  0  0  0  0  0  0
   48.3790  158.2350   30.9100 O   0  0  0  0  0  0  0  0  0  0  0  0
   49.9210  156.9610   29.6650 C   0  0  0  0  0  0  0  0  0  0  0  0
   48.9790  155.9610   29.5080 O   0  0  0  0  0  0  0  0  0  0  0  0
   51.5770  154.4690   28.9010 C   0  0  0  0  0  0  0  0  0  0  0  0
   52.0830  153.3810   28.1880 C   0  0  0  0  0  0  0  0  0  0  0  0
   52.7240  153.5610   26.9500 C   0  0  0  0  0  0  0  0  0  0  0  0
   53.2540  152.3660   26.1950 C   0  0  0  0  0  0  0  0  0  0  0  0
   54.5850  152.1370   26.3950 F   0  0  0  0  0  0  0  0  0  0  0  0
   52.6430  151.1970   26.5680 F   0  0  0  0  0  0  0  0  0  0  0  0
   53.0690  152.4380   24.8460 F   0  0  0  0  0  0  0  0  0  0  0  0
   55.2685  157.2393   25.2903 H   0  0  0  0  0  0  0  0  0  0  0  0
   55.3166  156.2833   23.7703 H   0  0  0  0  0  0  0  0  0  0  0  0
   54.6114  157.9353   23.7703 H   0  0  0  0  0  0  0  0  0  0  0  0
   52.8800  157.0500   25.4438 H   0  0  0  0  0  0  0  0  0  0  0  0
   52.7603  156.4112   23.7623 H   0  0  0  0  0  0  0  0  0  0  0  0
   55.2002  154.4213   26.2747 H   0  0  0  0  0  0  0  0  0  0  0  0
   54.9274  153.5645   24.7196 H   0  0  0  0  0  0  0  0  0  0  0  0
   55.5523  155.2486   24.7196 H   0  0  0  0  0  0  0  0  0  0  0  0
   52.4574  156.9661   26.7652 H   0  0  0  0  0  0  0  0  0  0  0  0
   53.7437  159.8759   29.7829 H   0  0  0  0  0  0  0  0  0  0  0  0
   53.2247  161.9585   31.0579 H   0  0  0  0  0  0  0  0  0  0  0  0
   50.9592  162.2807   32.0588 H   0  0  0  0  0  0  0  0  0  0  0  0
   48.2380  160.1570   31.6160 H   0  0  0  0  0  0  0  0  0  0  0  0
   48.8710  155.3120   30.1730 H   0  0  0  0  0  0  0  0  0  0  0  0
   51.0825  154.3035   29.8696 H   0  0  0  0  0  0  0  0  0  0  0  0
   51.9786  152.3670   28.6013 H   0  0  0  0  0  0  0  0  0  0  0  0
  1  2  1  0
  2  3  1  0
  3  4  1  0
  3  5  1  0
  5  6  2  0
  6  7  1  0
  7  8  1  0
  8  9  1  0
  9 10  1  0
 10 11  2  0
 11 12  1  0
 12 13  2  0
 13 14  1  0
 14 15  1  0
 14 16  2  0
 16 17  1  0
 17 18  2  0
 17 19  1  0
 19 20  1  0
  7 21  2  0
 21 22  1  0
 22 23  2  0
 23 24  1  0
 24 25  1  0
 24 26  1  0
 24 27  1  0
 23  5  1  0
 19  8  2  0
 16 10  1  0
  1 28  1  0
  1 29  1  0
  1 30  1  0
  2 31  1  0
  2 32  1  0
  4 33  1  0
  4 34  1  0
  4 35  1  0
  6 36  1  0
 11 37  1  0
 12 38  1  0
 13 39  1  0
 15 40  1  0
 20 41  1  0
 21 42  1  0
 22 43  1  0
M  END
>  <meeko>  (5) 
{"is_sidechain": [false], "free_energy": -7.746, "intermolecular_energy": -10.541, "internal_energy": 1.176}

$$$$
cand_032_out
     RDKit          3D

 43 45  0  0  0  0  0  0  0  0999 V2000
   54.2910  150.8450   25.1600 C   0  0  0  0  0  0  0  0  0  0  0  0
   54.2900  152.1160   25.9990 C   0  0  0  0  0  0  0  0  0  0  0  0
   53.0190  152.8440   25.8250 N   0  0  0  0  0  0  0  0  0  0  0  0
   51.8790  152.2850   26.5640 C   0  0  0  0  0  0  0  0  0  0  0  0
   53.1480  154.2320   26.0630 C   0  0  0  0  0  0  0  0  0  0  0  0
   52.4140  154.8750   27.0790 C   0  0  0  0  0  0  0  0  0  0  0  0
   52.5410  156.2510   27.3260 C   0  0  0  0  0  0  0  0  0  0  0  0
   51.7560  156.9270   28.3790 C   0  0  0  0  0  0  0  0  0  0  0  0
   52.3050  158.1440   28.7660 O   0  0  0  0  0  0  0  0  0  0  0  0
   51.6750  158.8770   29.7400 C   0  0  0  0  0  0  0  0  0  0  0  0
   52.2530  160.0990   30.0860 C   0  0  0  0  0  0  0  0  0  0  0  0
   51.6640  160.8940   31.0710 C   0  0  0  0  0  0  0  0  0  0  0  0
   50.4970  160.4670   31.7100 C   0  0  0  0  0  0  0  0  0  0  0  0
   49.9220  159.2480   31.3610 C   0  0  0  0  0  0  0  0  0  0  0  0
   48.7810  158.8910   32.0250 O   0  0  0  0  0  0  0  0  0  0  0  0
   50.5120  158.4530   30.3750 C   0  0  0  0  0  0  0  0  0  0  0  0
   49.9410  157.1650   29.9790 C   0  0  0  0  0  0  0  0  0  0  0  0
   48.9200  156.7180   30.4980 O   0  0  0  0  0  0  0  0  0  0  0  0
   50.6390  156.4030   28.9180 C   0  0  0  0  0  0  0  0  0  0  0  0
   50.0980  155.1810   28.5620 O   0  0  0  0  0  0  0  0  0  0  0  0
   53.4080  156.9930   26.5170 C   0  0  0  0  0  0  0  0  0  0  0  0
   54.1400  156.3730   25.5030 C   0  0  0  0  0  0  0  0  0  0  0  0
   54.0210  154.9910   25.2650 C   0  0  0  0  0  0  0  0  0  0  0  0
   54.8310  154.3440   24.1670 C   0  0  0  0  0  0  0  0  0  0  0  0
   54.1060  153.5010   23.3760 F   0  0  0  0  0  0  0  0  0  0  0  0
   55.3630  155.2610   23.2990 F   0  0  0  0  0  0  0  0  0  0  0  0
   55.9030  153.6320   24.6180 F   0  0  0  0  0  0  0  0  0  0  0  0
   54.2917  149.9677   25.8235 H   0  0  0  0  0  0  0  0  0  0  0  0
   53.3929  150.8240   24.5252 H   0  0  0  0  0  0  0  0  0  0  0  0
   55.1892  150.8254   24.5252 H   0  0  0  0  0  0  0  0  0  0  0  0
   54.4139  151.8508   27.0593 H   0  0  0  0  0  0  0  0  0  0  0  0
   55.1190  152.7608   25.6721 H   0  0  0  0  0  0  0  0  0  0  0  0
   52.0629  152.3752   27.6448 H   0  0  0  0  0  0  0  0  0  0  0  0
   50.9648  152.8371   26.3003 H   0  0  0  0  0  0  0  0  0  0  0  0
   51.7557  151.2242   26.3003 H   0  0  0  0  0  0  0  0  0  0  0  0
   51.7223  154.2825   27.6958 H   0  0  0  0  0  0  0  0  0  0  0  0
   53.1717  160.4356   29.5833 H   0  0  0  0  0  0  0  0  0  0  0  0
   52.1191  161.8574   31.3443 H   0  0  0  0  0  0  0  0  0  0  0  0
   50.0336  161.0926   32.4871 H   0  0  0  0  0  0  0  0  0  0  0  0
   47.9420  159.0900   31.6570 H   0  0  0  0  0  0  0  0  0  0  0  0
   49.2420  154.9440   28.8570 H   0  0  0  0  0  0  0  0  0  0  0  0
   53.5140  158.0755   26.6815 H   0  0  0  0  0  0  0  0  0  0  0  0
   54.8199  156.9734   24.8807 H   0  0  0  0  0  0  0  0  0  0  0  0
  1  2  1  0
  2  3  1  0
  3  4  1  0
  3  5  1  0
  5  6  2  0
  6  7  1  0
  7  8  1  0
  8  9  1  0
  9 10  1  0
 10 11  2  0
 11 12  1  0
 12 13  2  0
 13 14  1  0
 14 15  1  0
 14 16  2  0
 16 17  1  0
 17 18  2  0
 17 19  1  0
 19 20  1  0
  7 21  2  0
 21 22  1  0
 22 23  2  0
 23 24  1  0
 24 25  1  0
 24 26  1  0
 24 27  1  0
 23  5  1  0
 19  8  2  0
 16 10  1  0
  1 28  1  0
  1 29  1  0
  1 30  1  0
  2 31  1  0
  2 32  1  0
  4 33  1  0
  4 34  1  0
  4 35  1  0
  6 36  1  0
 11 37  1  0
 12 38  1  0
 13 39  1  0
 15 40  1  0
 20 41  1  0
 21 42  1  0
 22 43  1  0
M  END
>  <meeko>  (6) 
{"is_sidechain": [false], "free_energy": -7.459, "intermolecular_energy": -10.218, "internal_energy": 1.225}

$$$$
cand_032_out
     RDKit          3D

 43 45  0  0  0  0  0  0  0  0999 V2000
   53.0110  161.8170   30.7880 C   0  0  0  0  0  0  0  0  0  0  0  0
   52.6220  160.3680   30.5290 C   0  0  0  0  0  0  0  0  0  0  0  0
   51.1540  160.2200   30.5540 N   0  0  0  0  0  0  0  0  0  0  0  0
   50.4160  161.2130   29.7620 C   0  0  0  0  0  0  0  0  0  0  0  0
   50.7330  158.9060   30.2410 C   0  0  0  0  0  0  0  0  0  0  0  0
   51.4630  158.0920   29.3520 C   0  0  0  0  0  0  0  0  0  0  0  0
   51.0560  156.7860   29.0410 C   0  0  0  0  0  0  0  0  0  0  0  0
   51.8120  155.9420   28.0930 C   0  0  0  0  0  0  0  0  0  0  0  0
   51.4630  154.5980   28.1690 O   0  0  0  0  0  0  0  0  0  0  0  0
   52.0920  153.7010   27.3420 C   0  0  0  0  0  0  0  0  0  0  0  0
   51.7000  152.3660   27.4420 C   0  0  0  0  0  0  0  0  0  0  0  0
   52.3020  151.4010   26.6310 C   0  0  0  0  0  0  0  0  0  0  0  0
   53.2930  151.7720   25.7200 C   0  0  0  0  0  0  0  0  0  0  0  0
   53.6810  153.1060   25.6220 C   0  0  0  0  0  0  0  0  0  0  0  0
   54.6570  153.4000   24.7100 O   0  0  0  0  0  0  0  0  0  0  0  0
   53.0790  154.0700   26.4340 C   0  0  0  0  0  0  0  0  0  0  0  0
   53.4570  155.4830   26.3640 C   0  0  0  0  0  0  0  0  0  0  0  0
   54.3250  155.8870   25.5920 O   0  0  0  0  0  0  0  0  0  0  0  0
   52.7530  156.4260   27.2620 C   0  0  0  0  0  0  0  0  0  0  0  0
   53.1280  157.7560   27.1960 O   0  0  0  0  0  0  0  0  0  0  0  0
   49.8800  156.3010   29.6220 C   0  0  0  0  0  0  0  0  0  0  0  0
   49.1420  157.0940   30.5020 C   0  0  0  0  0  0  0  0  0  0  0  0
   49.5580  158.4000   30.8230 C   0  0  0  0  0  0  0  0  0  0  0  0
   48.7460  159.2330   31.7850 C   0  0  0  0  0  0  0  0  0  0  0  0
   48.0790  160.2640   31.1890 F   0  0  0  0  0  0  0  0  0  0  0  0
   47.7690  158.5060   32.4130 F   0  0  0  0  0  0  0  0  0  0  0  0
   49.4780  159.7760   32.7990 F   0  0  0  0  0  0  0  0  0  0  0  0
   53.0589  161.9956   31.8723 H   0  0  0  0  0  0  0  0  0  0  0  0
   53.9950  162.0183   30.3394 H   0  0  0  0  0  0  0  0  0  0  0  0
   52.2601  162.4840   30.3394 H   0  0  0  0  0  0  0  0  0  0  0  0
   53.0010  160.0611   29.5430 H   0  0  0  0  0  0  0  0  0  0  0  0
   53.0592  159.7341   31.3145 H   0  0  0  0  0  0  0  0  0  0  0  0
   49.8983  161.9096   30.4378 H   0  0  0  0  0  0  0  0  0  0  0  0
   51.1194  161.7722   29.1276 H   0  0  0  0  0  0  0  0  0  0  0  0
   49.6777  160.7007   29.1276 H   0  0  0  0  0  0  0  0  0  0  0  0
   52.3773  158.4917   28.8891 H   0  0  0  0  0  0  0  0  0  0  0  0
   50.9181  152.0736   28.1583 H   0  0  0  0  0  0  0  0  0  0  0  0
   51.9950  150.3477   26.7101 H   0  0  0  0  0  0  0  0  0  0  0  0
   53.7664  151.0121   25.0809 H   0  0  0  0  0  0  0  0  0  0  0  0
   54.4240  153.6550   23.8390 H   0  0  0  0  0  0  0  0  0  0  0  0
   52.7410  158.3200   26.5570 H   0  0  0  0  0  0  0  0  0  0  0  0
   49.5333  155.2847   29.3831 H   0  0  0  0  0  0  0  0  0  0  0  0
   48.2217  156.6926   30.9514 H   0  0  0  0  0  0  0  0  0  0  0  0
  1  2  1  0
  2  3  1  0
  3  4  1  0
  3  5  1  0
  5  6  2  0
  6  7  1  0
  7  8  1  0
  8  9  1  0
  9 10  1  0
 10 11  2  0
 11 12  1  0
 12 13  2  0
 13 14  1  0
 14 15  1  0
 14 16  2  0
 16 17  1  0
 17 18  2  0
 17 19  1  0
 19 20  1  0
  7 21  2  0
 21 22  1  0
 22 23  2  0
 23 24  1  0
 24 25  1  0
 24 26  1  0
 24 27  1  0
 23  5  1  0
 19  8  2  0
 16 10  1  0
  1 28  1  0
  1 29  1  0
  1 30  1  0
  2 31  1  0
  2 32  1  0
  4 33  1  0
  4 34  1  0
  4 35  1  0
  6 36  1  0
 11 37  1  0
 12 38  1  0
 13 39  1  0
 15 40  1  0
 20 41  1  0
 21 42  1  0
 22 43  1  0
M  END
>  <meeko>  (7) 
{"is_sidechain": [false], "free_energy": -7.369, "intermolecular_energy": -9.252, "internal_energy": 0.374}

$$$$
