cand_039_out
     RDKit          3D

 41 43  0  0  0  0  0  0  0  0999 V2000
   49.9870  161.0260   33.2430 C   0  0  0  0  0  0  0  0  0  0  0  0
   50.0150  161.2620   31.7400 C   0  0  0  0  0  0  0  0  0  0  0  0
   50.4340  160.0240   30.9810 C   0  0  0  0  0  0  0  0  0  0  0  0
   51.7160  160.0060   30.4040 C   0  0  0  0  0  0  0  0  0  0  0  0
   52.1730  158.8920   29.6960 C   0  0  0  0  0  0  0  0  0  0  0  0
   51.3620  157.7640   29.5390 C   0  0  0  0  0  0  0  0  0  0  0  0
   51.8710  156.5860   28.8040 C   0  0  0  0  0  0  0  0  0  0  0  0
   52.4340  156.9170   27.5770 O   0  0  0  0  0  0  0  0  0  0  0  0
   52.9460  155.9170   26.7900 C   0  0  0  0  0  0  0  0  0  0  0  0
   53.5150  156.2960   25.5740 C   0  0  0  0  0  0  0  0  0  0  0  0
   54.0530  155.3260   24.7250 C   0  0  0  0  0  0  0  0  0  0  0  0
   54.0210  153.9790   25.0910 C   0  0  0  0  0  0  0  0  0  0  0  0
   53.4530  153.6040   26.3050 C   0  0  0  0  0  0  0  0  0  0  0  0
   53.4550  152.2690   26.6020 O   0  0  0  0  0  0  0  0  0  0  0  0
   52.9160  154.5740   27.1560 C   0  0  0  0  0  0  0  0  0  0  0  0
   52.3090  154.2230   28.4400 C   0  0  0  0  0  0  0  0  0  0  0  0
   52.2370  153.0590   28.8290 O   0  0  0  0  0  0  0  0  0  0  0  0
   51.7750  155.3270   29.2710 C   0  0  0  0  0  0  0  0  0  0  0  0
   51.1930  154.9820   30.4760 O   0  0  0  0  0  0  0  0  0  0  0  0
   50.0910  157.7740   30.1300 C   0  0  0  0  0  0  0  0  0  0  0  0
   49.6140  158.8860   30.8530 C   0  0  0  0  0  0  0  0  0  0  0  0
   48.2180  158.8070   31.4310 C   0  0  0  0  0  0  0  0  0  0  0  0
   47.2940  159.8550   30.8270 C   0  0  0  0  0  0  0  0  0  0  0  0
   50.1009  161.9864   33.7671 H   0  0  0  0  0  0  0  0  0  0  0  0
   49.0280  160.5663   33.5242 H   0  0  0  0  0  0  0  0  0  0  0  0
   50.8118  160.3547   33.5242 H   0  0  0  0  0  0  0  0  0  0  0  0
   49.0091  161.5587   31.4082 H   0  0  0  0  0  0  0  0  0  0  0  0
   50.7511  162.0529   31.5336 H   0  0  0  0  0  0  0  0  0  0  0  0
   52.3700  160.8838   30.5119 H   0  0  0  0  0  0  0  0  0  0  0  0
   53.1817  158.9023   29.2573 H   0  0  0  0  0  0  0  0  0  0  0  0
   53.5400  157.3569   25.2842 H   0  0  0  0  0  0  0  0  0  0  0  0
   54.5027  155.6239   23.7663 H   0  0  0  0  0  0  0  0  0  0  0  0
   54.4438  153.2157   24.4212 H   0  0  0  0  0  0  0  0  0  0  0  0
   54.1260  151.7130   26.2570 H   0  0  0  0  0  0  0  0  0  0  0  0
   51.2990  155.5370   31.2240 H   0  0  0  0  0  0  0  0  0  0  0  0
   49.4471  156.8882   30.0265 H   0  0  0  0  0  0  0  0  0  0  0  0
   47.8045  157.8083   31.2271 H   0  0  0  0  0  0  0  0  0  0  0  0
   48.2856  158.9946   32.5128 H   0  0  0  0  0  0  0  0  0  0  0  0
   46.7993  160.4161   31.6334 H   0  0  0  0  0  0  0  0  0  0  0  0
   47.8812  160.5471   30.2055 H   0  0  0  0  0  0  0  0  0  0  0  0
   46.5338  159.3591   30.2055 H   0  0  0  0  0  0  0  0  0  0  0  0
  1  2  1  0
  2  3  1  0
  3  4  2  0
  4  5  1  0
  5  6  2  0
  6  7  1  0
  7  8  1  0
  8  9  1  0
  9 10  2  0
 10 11  1  0
 11 12  2  0
 12 13  1  0
 13 14  1  0
 13 15  2  0
 15 16  1  0
 16 17  2  0
 16 18  1  0
 18 19  1  0
  6 20  1  0
 20 21  2  0
 21 22  1  0
 22 23  1  0
 21  3  1  0
 18  7  2  0
 15  9  1  0
  1 24  1  0
  1 25  1  0
  1 26  1  0
  2 27  1  0
  2 28  1  0
  4 29  1  0
  5 30  1  0
 10 31  1  0
 11 32  1  0
 12 33  1  0
 14 34  1  0
 19 35  1  0
 20 36  1  0
 22 37  1  0
 22 38  1  0
 23 39  1  0
 23 40  1  0
 23 41  1  0
M  END
>  <meeko>  (1) 
{"is_sidechain": [false], "free_energy": -10.666, "intermolecular_energy": -13.16, "internal_energy": 0.092}

$$$$
cand_039_out
     RDKit          3D

 41 43  0  0  0  0  0  0  0  0999 V2000
   49.2740  160.6890   33.1690 C   0  0  0  0  0  0  0  0  0  0  0  0
   49.1320  160.8170   31.6590 C   0  0  0  0  0  0  0  0  0  0  0  0
   49.8590  159.7120   30.9280 C   0  0  0  0  0  0  0  0  0  0  0  0
   49.2130  158.4700   30.7990 C   0  0  0  0  0  0  0  0  0  0  0  0
   49.8220  157.4060   30.1290 C   0  0  0  0  0  0  0  0  0  0  0  0
   51.0950  157.5480   29.5710 C   0  0  0  0  0  0  0  0  0  0  0  0
   51.7150  156.4180   28.8470 C   0  0  0  0  0  0  0  0  0  0  0  0
   52.2650  156.7950   27.6270 O   0  0  0  0  0  0  0  0  0  0  0  0
   52.8730  155.8410   26.8500 C   0  0  0  0  0  0  0  0  0  0  0  0
   53.4250  156.2670   25.6420 C   0  0  0  0  0  0  0  0  0  0  0  0
   54.0570  155.3460   24.8030 C   0  0  0  0  0  0  0  0  0  0  0  0
   54.1360  154.0010   25.1720 C   0  0  0  0  0  0  0  0  0  0  0  0
   53.5840  153.5800   26.3780 C   0  0  0  0  0  0  0  0  0  0  0  0
   53.6960  152.2500   26.6790 O   0  0  0  0  0  0  0  0  0  0  0  0
   52.9520  154.5020   27.2190 C   0  0  0  0  0  0  0  0  0  0  0  0
   52.3590  154.1010   28.4950 C   0  0  0  0  0  0  0  0  0  0  0  0
   52.3820  152.9350   28.8850 O   0  0  0  0  0  0  0  0  0  0  0  0
   51.7200  155.1560   29.3150 C   0  0  0  0  0  0  0  0  0  0  0  0
   51.1510  154.7630   30.5120 O   0  0  0  0  0  0  0  0  0  0  0  0
   51.7330  158.7920   29.6830 C   0  0  0  0  0  0  0  0  0  0  0  0
   51.1330  159.8800   30.3500 C   0  0  0  0  0  0  0  0  0  0  0  0
   51.9130  161.1730   30.4380 C   0  0  0  0  0  0  0  0  0  0  0  0
   52.7270  161.2570   31.7210 C   0  0  0  0  0  0  0  0  0  0  0  0
   48.5440  161.3471   33.6630 H   0  0  0  0  0  0  0  0  0  0  0  0
   49.0889  159.6466   33.4676 H   0  0  0  0  0  0  0  0  0  0  0  0
   50.2917  160.9808   33.4676 H   0  0  0  0  0  0  0  0  0  0  0  0
   48.0644  160.7738   31.3974 H   0  0  0  0  0  0  0  0  0  0  0  0
   49.5767  161.7762   31.3553 H   0  0  0  0  0  0  0  0  0  0  0  0
   48.2114  158.3337   31.2328 H   0  0  0  0  0  0  0  0  0  0  0  0
   49.2932  156.4456   30.0398 H   0  0  0  0  0  0  0  0  0  0  0  0
   53.3628  157.3259   25.3506 H   0  0  0  0  0  0  0  0  0  0  0  0
   54.4932  155.6805   23.8502 H   0  0  0  0  0  0  0  0  0  0  0  0
   54.6335  153.2763   24.5107 H   0  0  0  0  0  0  0  0  0  0  0  0
   53.0050  151.8130   27.1360 H   0  0  0  0  0  0  0  0  0  0  0  0
   51.6030  154.1620   31.0710 H   0  0  0  0  0  0  0  0  0  0  0  0
   52.7303  158.9228   29.2377 H   0  0  0  0  0  0  0  0  0  0  0  0
   52.5963  161.2356   29.5783 H   0  0  0  0  0  0  0  0  0  0  0  0
   51.1946  162.0060   30.4342 H   0  0  0  0  0  0  0  0  0  0  0  0
   52.0534  161.1875   32.5878 H   0  0  0  0  0  0  0  0  0  0  0  0
   53.4502  160.4287   31.7513 H   0  0  0  0  0  0  0  0  0  0  0  0
   53.2658  162.2155   31.7513 H   0  0  0  0  0  0  0  0  0  0  0  0
  1  2  1  0
  2  3  1  0
  3  4  2  0
  4  5  1  0
  5  6  2  0
  6  7  1  0
  7  8  1  0
  8  9  1  0
  9 10  2  0
 10 11  1  0
 11 12  2  0
 12 13  1  0
 13 14  1  0
 13 15  2  0
 15 16  1  0
 16 17  2  0
 16 18  1  0
 18 19  1  0
  6 20  1  0
 20 21  2  0
 21 22  1  0
 22 23  1  0
 21  3  1  0
 18  7  2  0
 15  9  1  0
  1 24  1  0
  1 25  1  0
  1 26  1  0
  2 27  1  0
  2 28  1  0
  4 29  1  0
  5 30  1  0
 10 31  1  0
 11 32  1  0
 12 33  1  0
 14 34  1  0
 19 35  1  0
 20 36  1  0
 22 37  1  0
 22 38  1  0
 23 39  1  0
 23 40  1  0
 23 41  1  0
M  END
>  <meeko>  (2) 
{"is_sidechain": [false], "free_energy": -10.646, "intermolecular_energy": -12.688, "internal_energy": -0.355}

$$$$
cand_039_out
     RDKit          3D

 41 43  0  0  0  0  0  0  0  0999 V2000
   51.9750  151.5240   26.7670 C   0  0  0  0  0  0  0  0  0  0  0  0
   53.1090  152.5380   26.7610 C   0  0  0  0  0  0  0  0  0  0  0  0
   52.6970  153.8510   27.3850 C   0  0  0  0  0  0  0  0  0  0  0  0
   52.1560  153.8240   28.6820 C   0  0  0  0  0  0  0  0  0  0  0  0
   51.7600  155.0000   29.3240 C   0  0  0  0  0  0  0  0  0  0  0  0
   51.8890  156.2380   28.6890 C   0  0  0  0  0  0  0  0  0  0  0  0
   51.4840  157.4740   29.3930 C   0  0  0  0  0  0  0  0  0  0  0  0
   50.1450  157.4700   29.7640 O   0  0  0  0  0  0  0  0  0  0  0  0
   49.6360  158.5590   30.4260 C   0  0  0  0  0  0  0  0  0  0  0  0
   48.2920  158.5050   30.7930 C   0  0  0  0  0  0  0  0  0  0  0  0
   47.7110  159.5820   31.4680 C   0  0  0  0  0  0  0  0  0  0  0  0
   48.4740  160.7100   31.7740 C   0  0  0  0  0  0  0  0  0  0  0  0
   49.8160  160.7600   31.4070 C   0  0  0  0  0  0  0  0  0  0  0  0
   50.5060  161.8940   31.7380 O   0  0  0  0  0  0  0  0  0  0  0  0
   50.3980  159.6820   30.7320 C   0  0  0  0  0  0  0  0  0  0  0  0
   51.8040  159.6950   30.3280 C   0  0  0  0  0  0  0  0  0  0  0  0
   52.5380  160.6540   30.5560 O   0  0  0  0  0  0  0  0  0  0  0  0
   52.3250  158.4990   29.6250 C   0  0  0  0  0  0  0  0  0  0  0  0
   53.6510  158.5270   29.2360 O   0  0  0  0  0  0  0  0  0  0  0  0
   52.4450  156.2680   27.4030 C   0  0  0  0  0  0  0  0  0  0  0  0
   52.8560  155.0930   26.7400 C   0  0  0  0  0  0  0  0  0  0  0  0
   53.4210  155.2300   25.3440 C   0  0  0  0  0  0  0  0  0  0  0  0
   54.1460  156.5540   25.1520 C   0  0  0  0  0  0  0  0  0  0  0  0
   51.7047  151.2823   27.8055 H   0  0  0  0  0  0  0  0  0  0  0  0
   51.1015  151.9478   26.2499 H   0  0  0  0  0  0  0  0  0  0  0  0
   52.2988  150.6087   26.2499 H   0  0  0  0  0  0  0  0  0  0  0  0
   53.9570  152.1259   27.3277 H   0  0  0  0  0  0  0  0  0  0  0  0
   53.3866  152.7313   25.7143 H   0  0  0  0  0  0  0  0  0  0  0  0
   52.0425  152.8605   29.2004 H   0  0  0  0  0  0  0  0  0  0  0  0
   51.3421  154.9508   30.3404 H   0  0  0  0  0  0  0  0  0  0  0  0
   47.6901  157.6164   30.5517 H   0  0  0  0  0  0  0  0  0  0  0  0
   46.6509  159.5407   31.7586 H   0  0  0  0  0  0  0  0  0  0  0  0
   48.0158  161.5579   32.3042 H   0  0  0  0  0  0  0  0  0  0  0  0
   50.0460  162.6450   32.0600 H   0  0  0  0  0  0  0  0  0  0  0  0
   54.2520  157.8920   29.5730 H   0  0  0  0  0  0  0  0  0  0  0  0
   52.5644  157.2367   26.8956 H   0  0  0  0  0  0  0  0  0  0  0  0
   54.1292  154.4076   25.1648 H   0  0  0  0  0  0  0  0  0  0  0  0
   52.5830  155.1942   24.6323 H   0  0  0  0  0  0  0  0  0  0  0  0
   54.3835  156.9878   26.1345 H   0  0  0  0  0  0  0  0  0  0  0  0
   55.0770  156.3843   24.5913 H   0  0  0  0  0  0  0  0  0  0  0  0
   53.5015  157.2470   24.5913 H   0  0  0  0  0  0  0  0  0  0  0  0
  1  2  1  0
  2  3  1  0
  3  4  2  0
  4  5  1  0
  5  6  2  0
  6  7  1  0
  7  8  1  0
  8  9  1  0
  9 10  2  0
 10 11  1  0
 11 12  2  0
 12 13  1  0
 13 14  1  0
 13 15  2  0
 15 16  1  0
 16 17  2  0
 16 18  1  0
 18 19  1  0
  6 20  1  0
 20 21  2  0
 21 22  1  0
 22 23  1  0
 21  3  1  0
 18  7  2  0
 15  9  1  0
  1 24  1  0
  1 25  1  0
  1 26  1  0
  2 27  1  0
  2 28  1  0
  4 29  1  0
  5 30  1  0
 10 31  1  0
 11 32  1  0
 12 33  1  0
 14 34  1  0
 19 35  1  0
 20 36  1  0
 22 37  1  0
 22 38  1  0
 23 39  1  0
 23 40  1  0
 23 41  1  0
M  END
>  <meeko>  (3) 
{"is_sidechain": [false], "free_energy": -10.155, "intermolecular_energy": -11.999, "internal_energy": -0.439}

$$$$
cand_039_out
     RDKit          3D

 41 43  0  0  0  0  0  0  0  0999 V2000
   52.6200  151.6590   25.9710 C   0  0  0  0  0  0  0  0  0  0  0  0
   53.6400  152.5610   26.6500 C   0  0  0  0  0  0  0  0  0  0  0  0
   52.9910  153.7690   27.2850 C   0  0  0  0  0  0  0  0  0  0  0  0
   52.4720  153.6340   28.5840 C   0  0  0  0  0  0  0  0  0  0  0  0
   51.8660  154.7100   29.2360 C   0  0  0  0  0  0  0  0  0  0  0  0
   51.7560  155.9540   28.6080 C   0  0  0  0  0  0  0  0  0  0  0  0
   51.1300  157.0880   29.3220 C   0  0  0  0  0  0  0  0  0  0  0  0
   52.0240  158.1200   29.5840 O   0  0  0  0  0  0  0  0  0  0  0  0
   51.5750  159.2360   30.2420 C   0  0  0  0  0  0  0  0  0  0  0  0
   52.5010  160.2530   30.4700 C   0  0  0  0  0  0  0  0  0  0  0  0
   52.1090  161.4160   31.1380 C   0  0  0  0  0  0  0  0  0  0  0  0
   50.7910  161.5610   31.5760 C   0  0  0  0  0  0  0  0  0  0  0  0
   49.8690  160.5440   31.3470 C   0  0  0  0  0  0  0  0  0  0  0  0
   48.5960  160.7510   31.8030 O   0  0  0  0  0  0  0  0  0  0  0  0
   50.2610  159.3810   30.6780 C   0  0  0  0  0  0  0  0  0  0  0  0
   49.3230  158.2880   30.4180 C   0  0  0  0  0  0  0  0  0  0  0  0
   48.1490  158.3390   30.7790 O   0  0  0  0  0  0  0  0  0  0  0  0
   49.8370  157.1020   29.6950 C   0  0  0  0  0  0  0  0  0  0  0  0
   48.9460  156.0710   29.4660 O   0  0  0  0  0  0  0  0  0  0  0  0
   52.2900  156.0960   27.3190 C   0  0  0  0  0  0  0  0  0  0  0  0
   52.9110  155.0230   26.6470 C   0  0  0  0  0  0  0  0  0  0  0  0
   53.4320  155.2710   25.2500 C   0  0  0  0  0  0  0  0  0  0  0  0
   54.1740  156.5960   25.1480 C   0  0  0  0  0  0  0  0  0  0  0  0
   52.0275  151.1350   26.7355 H   0  0  0  0  0  0  0  0  0  0  0  0
   51.9526  152.2677   25.3433 H   0  0  0  0  0  0  0  0  0  0  0  0
   53.1425  150.9221   25.3433 H   0  0  0  0  0  0  0  0  0  0  0  0
   54.1598  151.9855   27.4301 H   0  0  0  0  0  0  0  0  0  0  0  0
   54.3441  152.9164   25.8832 H   0  0  0  0  0  0  0  0  0  0  0  0
   52.5444  152.6633   29.0964 H   0  0  0  0  0  0  0  0  0  0  0  0
   51.4712  154.5773   30.2541 H   0  0  0  0  0  0  0  0  0  0  0  0
   53.5392  160.1400   30.1244 H   0  0  0  0  0  0  0  0  0  0  0  0
   52.8395  162.2183   31.3191 H   0  0  0  0  0  0  0  0  0  0  0  0
   50.4822  162.4771   32.1009 H   0  0  0  0  0  0  0  0  0  0  0  0
   48.0120  161.3060   31.3250 H   0  0  0  0  0  0  0  0  0  0  0  0
   49.1090  155.2210   29.8270 H   0  0  0  0  0  0  0  0  0  0  0  0
   52.2225  157.0727   26.8176 H   0  0  0  0  0  0  0  0  0  0  0  0
   54.1192  154.4566   24.9769 H   0  0  0  0  0  0  0  0  0  0  0  0
   52.5708  155.3090   24.5667 H   0  0  0  0  0  0  0  0  0  0  0  0
   54.3867  156.9758   26.1582 H   0  0  0  0  0  0  0  0  0  0  0  0
   55.1194  156.4460   24.6060 H   0  0  0  0  0  0  0  0  0  0  0  0
   53.5521  157.3237   24.6060 H   0  0  0  0  0  0  0  0  0  0  0  0
  1  2  1  0
  2  3  1  0
  3  4  2  0
  4  5  1  0
  5  6  2  0
  6  7  1  0
  7  8  1  0
  8  9  1  0
  9 10  2  0
 10 11  1  0
 11 12  2  0
 12 13  1  0
 13 14  1  0
 13 15  2  0
 15 16  1  0
 16 17  2  0
 16 18  1  0
 18 19  1  0
  6 20  1  0
 20 21  2  0
 21 22  1  0
 22 23  1  0
 21  3  1  0
 18  7  2  0
 15  9  1  0
  1 24  1  0
  1 25  1  0
  1 26  1  0
  2 27  1  0
  2 28  1  0
  4 29  1  0
  5 30  1  0
 10 31  1  0
 11 32  1  0
 12 33  1  0
 14 34  1  0
 19 35  1  0
 20 36  1  0
 22 37  1  0
 22 38  1  0
 23 39  1  0
 23 40  1  0
 23 41  1  0
M  END
>  <meeko>  (4) 
{"is_sidechain": [false], "free_energy": -9.028, "intermolecular_energy": -10.529, "internal_energy": -0.517}

$$$$
cand_039_out
     RDKit          3D

 41 43  0  0  0  0  0  0  0  0999 V2000
   53.2780  154.4610   24.7740 C   0  0  0  0  0  0  0  0  0  0  0  0
   53.4120  154.0360   26.2290 C   0  0  0  0  0  0  0  0  0  0  0  0
   52.8710  155.0820   27.1760 C   0  0  0  0  0  0  0  0  0  0  0  0
   53.0150  156.4340   26.8180 C   0  0  0  0  0  0  0  0  0  0  0  0
   52.5320  157.4540   27.6400 C   0  0  0  0  0  0  0  0  0  0  0  0
   51.8940  157.1560   28.8480 C   0  0  0  0  0  0  0  0  0  0  0  0
   51.3700  158.2490   29.6950 C   0  0  0  0  0  0  0  0  0  0  0  0
   50.0210  158.0990   29.9950 O   0  0  0  0  0  0  0  0  0  0  0  0
   49.4060  159.0450   30.7760 C   0  0  0  0  0  0  0  0  0  0  0  0
   48.0560  158.8470   31.0650 C   0  0  0  0  0  0  0  0  0  0  0  0
   47.3700  159.7750   31.8530 C   0  0  0  0  0  0  0  0  0  0  0  0
   48.0330  160.8980   32.3510 C   0  0  0  0  0  0  0  0  0  0  0  0
   49.3810  161.0920   32.0610 C   0  0  0  0  0  0  0  0  0  0  0  0
   49.9690  162.2120   32.5800 O   0  0  0  0  0  0  0  0  0  0  0  0
   50.0680  160.1640   31.2730 C   0  0  0  0  0  0  0  0  0  0  0  0
   51.4840  160.3310   30.9440 C   0  0  0  0  0  0  0  0  0  0  0  0
   52.1340  161.2960   31.3390 O   0  0  0  0  0  0  0  0  0  0  0  0
   52.1210  159.2860   30.1090 C   0  0  0  0  0  0  0  0  0  0  0  0
   53.4560  159.4610   29.7930 O   0  0  0  0  0  0  0  0  0  0  0  0
   51.7340  155.8080   29.1970 C   0  0  0  0  0  0  0  0  0  0  0  0
   52.2090  154.7630   28.3780 C   0  0  0  0  0  0  0  0  0  0  0  0
   52.0080  153.3430   28.8560 C   0  0  0  0  0  0  0  0  0  0  0  0
   51.5650  152.4220   27.7280 C   0  0  0  0  0  0  0  0  0  0  0  0
   52.9475  155.5091   24.7271 H   0  0  0  0  0  0  0  0  0  0  0  0
   54.2514  154.3606   24.2716 H   0  0  0  0  0  0  0  0  0  0  0  0
   52.5382  153.8205   24.2716 H   0  0  0  0  0  0  0  0  0  0  0  0
   52.8547  153.0994   26.3783 H   0  0  0  0  0  0  0  0  0  0  0  0
   54.4818  153.9012   26.4466 H   0  0  0  0  0  0  0  0  0  0  0  0
   53.5169  156.6926   25.8740 H   0  0  0  0  0  0  0  0  0  0  0  0
   52.6547  158.5034   27.3340 H   0  0  0  0  0  0  0  0  0  0  0  0
   47.5324  157.9623   30.6735 H   0  0  0  0  0  0  0  0  0  0  0  0
   46.3052  159.6202   32.0814 H   0  0  0  0  0  0  0  0  0  0  0  0
   47.4918  161.6279   32.9710 H   0  0  0  0  0  0  0  0  0  0  0  0
   50.8560  162.4200   32.3600 H   0  0  0  0  0  0  0  0  0  0  0  0
   53.8840  160.2680   30.0000 H   0  0  0  0  0  0  0  0  0  0  0  0
   51.2225  155.5577   30.1381 H   0  0  0  0  0  0  0  0  0  0  0  0
   52.9566  152.9690   29.2687 H   0  0  0  0  0  0  0  0  0  0  0  0
   51.2178  153.3494   29.6212 H   0  0  0  0  0  0  0  0  0  0  0  0
   51.1251  151.5075   28.1526 H   0  0  0  0  0  0  0  0  0  0  0  0
   50.8155  152.9357   27.1081 H   0  0  0  0  0  0  0  0  0  0  0  0
   52.4342  152.1571   27.1081 H   0  0  0  0  0  0  0  0  0  0  0  0
  1  2  1  0
  2  3  1  0
  3  4  2  0
  4  5  1  0
  5  6  2  0
  6  7  1  0
  7  8  1  0
  8  9  1  0
  9 10  2  0
 10 11  1  0
 11 12  2  0
 12 13  1  0
 13 14  1  0
 13 15  2  0
 15 16  1  0
 16 17  2  0
 16 18  1  0
 18 19  1  0
  6 20  1  0
 20 21  2  0
 21 22  1  0
 22 23  1  0
 21  3  1  0
 18  7  2  0
 15  9  1  0
  1 24  1  0
  1 25  1  0
  1 26  1  0
  2 27  1  0
  2 28  1  0
  4 29  1  0
  5 30  1  0
 10 31  1  0
 11 32  1  0
 12 33  1  0
 14 34  1  0
 19 35  1  0
 20 36  1  0
 22 37  1  0
 22 38  1  0
 23 39  1  0
 23 40  1  0
 23 41  1  0
M  END
>  <meeko>  (5) 
{"is_sidechain": [false], "free_energy": -8.906, "intermolecular_energy": -11.197, "internal_energy": 0.3}

$$$$
cand_039_out
     RDKit          3D

 41 43  0  0  0  0  0  0  0  0999 V2000
   48.0160  158.9350   30.5760 C   0  0  0  0  0  0  0  0  0  0  0  0
   49.2600  158.3440   31.2230 C   0  0  0  0  0  0  0  0  0  0  0  0
   50.0930  157.5600   30.2360 C   0  0  0  0  0  0  0  0  0  0  0  0
   49.6050  156.3160   29.8010 C   0  0  0  0  0  0  0  0  0  0  0  0
   50.3180  155.5410   28.8830 C   0  0  0  0  0  0  0  0  0  0  0  0
   51.5420  155.9830   28.3740 C   0  0  0  0  0  0  0  0  0  0  0  0
   52.2720  155.1590   27.3870 C   0  0  0  0  0  0  0  0  0  0  0  0
   51.9720  153.8060   27.4860 O   0  0  0  0  0  0  0  0  0  0  0  0
   52.5810  152.9260   26.6280 C   0  0  0  0  0  0  0  0  0  0  0  0
   52.2380  151.5800   26.7520 C   0  0  0  0  0  0  0  0  0  0  0  0
   52.8240  150.6310   25.9100 C   0  0  0  0  0  0  0  0  0  0  0  0
   53.7510  151.0300   24.9450 C   0  0  0  0  0  0  0  0  0  0  0  0
   54.0920  152.3740   24.8240 C   0  0  0  0  0  0  0  0  0  0  0  0
   55.0060  152.6950   23.8590 O   0  0  0  0  0  0  0  0  0  0  0  0
   53.5040  153.3230   25.6660 C   0  0  0  0  0  0  0  0  0  0  0  0
   53.8340  154.7460   25.5710 C   0  0  0  0  0  0  0  0  0  0  0  0
   54.6460  155.1720   24.7530 O   0  0  0  0  0  0  0  0  0  0  0  0
   53.1510  155.6710   26.5050 C   0  0  0  0  0  0  0  0  0  0  0  0
   53.4800  157.0100   26.4150 O   0  0  0  0  0  0  0  0  0  0  0  0
   52.0220  157.2320   28.7930 C   0  0  0  0  0  0  0  0  0  0  0  0
   51.3140  158.0320   29.7150 C   0  0  0  0  0  0  0  0  0  0  0  0
   51.9280  159.3520   30.1220 C   0  0  0  0  0  0  0  0  0  0  0  0
   50.9890  160.5210   29.8580 C   0  0  0  0  0  0  0  0  0  0  0  0
   47.3179  159.2666   31.3588 H   0  0  0  0  0  0  0  0  0  0  0  0
   48.3008  159.7940   29.9508 H   0  0  0  0  0  0  0  0  0  0  0  0
   47.5300  158.1715   29.9508 H   0  0  0  0  0  0  0  0  0  0  0  0
   49.8706  159.1625   31.6319 H   0  0  0  0  0  0  0  0  0  0  0  0
   48.9355  157.6549   32.0167 H   0  0  0  0  0  0  0  0  0  0  0  0
   48.6449  155.9460   30.1901 H   0  0  0  0  0  0  0  0  0  0  0  0
   49.9114  154.5722   28.5573 H   0  0  0  0  0  0  0  0  0  0  0  0
   51.5071  151.2657   27.5116 H   0  0  0  0  0  0  0  0  0  0  0  0
   52.5548  149.5689   26.0075 H   0  0  0  0  0  0  0  0  0  0  0  0
   54.2112  150.2831   24.2813 H   0  0  0  0  0  0  0  0  0  0  0  0
   55.1100  152.1420   23.1090 H   0  0  0  0  0  0  0  0  0  0  0  0
   54.3770  157.2760   26.4530 H   0  0  0  0  0  0  0  0  0  0  0  0
   52.9781  157.5989   28.3914 H   0  0  0  0  0  0  0  0  0  0  0  0
   52.1615  159.3192   31.1964 H   0  0  0  0  0  0  0  0  0  0  0  0
   52.8378  159.5038   29.5226 H   0  0  0  0  0  0  0  0  0  0  0  0
   50.6502  160.9427   30.8158 H   0  0  0  0  0  0  0  0  0  0  0  0
   51.5194  161.2949   29.2837 H   0  0  0  0  0  0  0  0  0  0  0  0
   50.1189  160.1700   29.2837 H   0  0  0  0  0  0  0  0  0  0  0  0
  1  2  1  0
  2  3  1  0
  3  4  2  0
  4  5  1  0
  5  6  2  0
  6  7  1  0
  7  8  1  0
  8  9  1  0
  9 10  2  0
 10 11  1  0
 11 12  2  0
 12 13  1  0
 13 14  1  0
 13 15  2  0
 15 16  1  0
 16 17  2  0
 16 18  1  0
 18 19  1  0
  6 20  1  0
 20 21  2  0
 21 22  1  0
 22 23  1  0
 21  3  1  0
 18  7  2  0
 15  9  1  0
  1 24  1  0
  1 25  1  0
  1 26  1  0
  2 27  1  0
  2 28  1  0
  4 29  1  0
  5 30  1  0
 10 31  1  0
 11 32  1  0
 12 33  1  0
 14 34  1  0
 19 35  1  0
 20 36  1  0
 22 37  1  0
 22 38  1  0
 23 39  1  0
 23 40  1  0
 23 41  1  0
M  END
>  <meeko>  (6) 
{"is_sidechain": [false], "free_energy": -8.736, "intermolecular_energy": -11.084, "internal_energy": 0.396}

$$$$
cand_039_out
     RDKit          3D

 41 43  0  0  0  0  0  0  0  0999 V2000
   54.4370  154.7860   24.7860 C   0  0  0  0  0  0  0  0  0  0  0  0
   53.7590  154.0120   25.9080 C   0  0  0  0  0  0  0  0  0  0  0  0
   53.0580  154.9290   26.8830 C   0  0  0  0  0  0  0  0  0  0  0  0
   53.1580  156.3150   26.6740 C   0  0  0  0  0  0  0  0  0  0  0  0
   52.5280  157.2220   27.5310 C   0  0  0  0  0  0  0  0  0  0  0  0
   51.7840  156.7710   28.6240 C   0  0  0  0  0  0  0  0  0  0  0  0
   51.1080  157.7450   29.5080 C   0  0  0  0  0  0  0  0  0  0  0  0
   51.9120  158.8330   29.8280 O   0  0  0  0  0  0  0  0  0  0  0  0
   51.4070  159.8140   30.6430 C   0  0  0  0  0  0  0  0  0  0  0  0
   52.2430  160.8940   30.9260 C   0  0  0  0  0  0  0  0  0  0  0  0
   51.7910  161.9270   31.7510 C   0  0  0  0  0  0  0  0  0  0  0  0
   50.5050  161.8790   32.2930 C   0  0  0  0  0  0  0  0  0  0  0  0
   49.6740  160.7990   32.0090 C   0  0  0  0  0  0  0  0  0  0  0  0
   48.4270  160.8150   32.5720 O   0  0  0  0  0  0  0  0  0  0  0  0
   50.1250  159.7660   31.1820 C   0  0  0  0  0  0  0  0  0  0  0  0
   49.2840  158.6140   30.8590 C   0  0  0  0  0  0  0  0  0  0  0  0
   48.1430  158.4960   31.3040 O   0  0  0  0  0  0  0  0  0  0  0  0
   49.8540  157.5770   29.9680 C   0  0  0  0  0  0  0  0  0  0  0  0
   49.0550  156.4870   29.6800 O   0  0  0  0  0  0  0  0  0  0  0  0
   51.6690  155.3880   28.8230 C   0  0  0  0  0  0  0  0  0  0  0  0
   52.2910  154.4570   27.9670 C   0  0  0  0  0  0  0  0  0  0  0  0
   52.1260  152.9870   28.2810 C   0  0  0  0  0  0  0  0  0  0  0  0
   51.8960  152.1600   27.0240 C   0  0  0  0  0  0  0  0  0  0  0  0
   55.1039  155.5474   25.2167 H   0  0  0  0  0  0  0  0  0  0  0  0
   55.0241  154.0931   24.1653 H   0  0  0  0  0  0  0  0  0  0  0  0
   53.6729  155.2767   24.1653 H   0  0  0  0  0  0  0  0  0  0  0  0
   53.0188  153.3263   25.4699 H   0  0  0  0  0  0  0  0  0  0  0  0
   54.5352  153.4597   26.4580 H   0  0  0  0  0  0  0  0  0  0  0  0
   53.7419  156.6926   25.8216 H   0  0  0  0  0  0  0  0  0  0  0  0
   52.6190  158.3020   27.3428 H   0  0  0  0  0  0  0  0  0  0  0  0
   53.2566  160.9324   30.5003 H   0  0  0  0  0  0  0  0  0  0  0  0
   52.4493  162.7796   31.9740 H   0  0  0  0  0  0  0  0  0  0  0  0
   50.1496  162.6924   32.9426 H   0  0  0  0  0  0  0  0  0  0  0  0
   48.3210  161.0660   33.4690 H   0  0  0  0  0  0  0  0  0  0  0  0
   49.3680  155.6190   29.8470 H   0  0  0  0  0  0  0  0  0  0  0  0
   51.0757  155.0186   29.6724 H   0  0  0  0  0  0  0  0  0  0  0  0
   53.0362  152.6262   28.7824 H   0  0  0  0  0  0  0  0  0  0  0  0
   51.2445  152.8739   28.9293 H   0  0  0  0  0  0  0  0  0  0  0  0
   51.6111  151.1357   27.3061 H   0  0  0  0  0  0  0  0  0  0  0  0
   51.0900  152.6140   26.4288 H   0  0  0  0  0  0  0  0  0  0  0  0
   52.8206  152.1327   26.4288 H   0  0  0  0  0  0  0  0  0  0  0  0
  1  2  1  0
  2  3  1  0
  3  4  2  0
  4  5  1  0
  5  6  2  0
  6  7  1  0
  7  8  1  0
  8  9  1  0
  9 10  2  0
 10 11  1  0
 11 12  2  0
 12 13  1  0
 13 14  1  0
 13 15  2  0
 15 16  1  0
 16 17  2  0
 16 18  1  0
 18 19  1  0
  6 20  1  0
 20 21  2  0
 21 22  1  0
 22 23  1  0
 21  3  1  0
 18  7  2  0
 15  9  1  0
  1 24  1  0
  1 25  1  0
  1 26  1  0
  2 27  1  0
  2 28  1  0
  4 29  1  0
  5 30  1  0
 10 31  1  0
 11 32  1  0
 12 33  1  0
 14 34  1  0
 19 35  1  0
 20 36  1  0
 22 37  1  0
 22 38  1  0
 23 39  1  0
 23 40  1  0
 23 41  1  0
M  END
>  <meeko>  (7) 
{"is_sidechain": [false], "free_energy": -8.168, "intermolecular_energy": -10.464, "internal_energy": 0.478}

$$$$
cand_039_out
     RDKit          3D

 41 43  0  0  0  0  0  0  0  0999 V2000
   50.4510  160.7550   30.1280 C   0  0  0  0  0  0  0  0  0  0  0  0
   51.0390  159.5710   30.8820 C   0  0  0  0  0  0  0  0  0  0  0  0
   51.3780  158.4250   29.9580 C   0  0  0  0  0  0  0  0  0  0  0  0
   52.6170  158.4550   29.2940 C   0  0  0  0  0  0  0  0  0  0  0  0
   53.0000  157.4260   28.4310 C   0  0  0  0  0  0  0  0  0  0  0  0
   52.1550  156.3370   28.2010 C   0  0  0  0  0  0  0  0  0  0  0  0
   52.5860  155.2460   27.3000 C   0  0  0  0  0  0  0  0  0  0  0  0
   52.1120  154.0000   27.6960 O   0  0  0  0  0  0  0  0  0  0  0  0
   52.4380  152.8980   26.9480 C   0  0  0  0  0  0  0  0  0  0  0  0
   51.9280  151.6710   27.3730 C   0  0  0  0  0  0  0  0  0  0  0  0
   52.2250  150.5080   26.6570 C   0  0  0  0  0  0  0  0  0  0  0  0
   53.0300  150.5730   25.5180 C   0  0  0  0  0  0  0  0  0  0  0  0
   53.5370  151.7990   25.0970 C   0  0  0  0  0  0  0  0  0  0  0  0
   54.3180  151.7920   23.9740 O   0  0  0  0  0  0  0  0  0  0  0  0
   53.2400  152.9630   25.8120 C   0  0  0  0  0  0  0  0  0  0  0  0
   53.7530  154.2710   25.4040 C   0  0  0  0  0  0  0  0  0  0  0  0
   54.4730  154.4080   24.4180 O   0  0  0  0  0  0  0  0  0  0  0  0
   53.3730  155.4430   26.2270 C   0  0  0  0  0  0  0  0  0  0  0  0
   53.8740  156.6720   25.8390 O   0  0  0  0  0  0  0  0  0  0  0  0
   50.9270  156.2960   28.8750 C   0  0  0  0  0  0  0  0  0  0  0  0
   50.5250  157.3220   29.7550 C   0  0  0  0  0  0  0  0  0  0  0  0
   49.1700  157.1970   30.4160 C   0  0  0  0  0  0  0  0  0  0  0  0
   48.1300  158.0860   29.7500 C   0  0  0  0  0  0  0  0  0  0  0  0
   50.0808  161.5005   30.8472 H   0  0  0  0  0  0  0  0  0  0  0  0
   51.2280  161.2097   29.4959 H   0  0  0  0  0  0  0  0  0  0  0  0
   49.6192  160.4107   29.4959 H   0  0  0  0  0  0  0  0  0  0  0  0
   51.9557  159.8965   31.3955 H   0  0  0  0  0  0  0  0  0  0  0  0
   50.2853  159.2170   31.6008 H   0  0  0  0  0  0  0  0  0  0  0  0
   53.2969  159.3042   29.4572 H   0  0  0  0  0  0  0  0  0  0  0  0
   53.9767  157.4732   27.9272 H   0  0  0  0  0  0  0  0  0  0  0  0
   51.2933  151.6190   28.2699 H   0  0  0  0  0  0  0  0  0  0  0  0
   51.8239  149.5398   26.9914 H   0  0  0  0  0  0  0  0  0  0  0  0
   53.2630  149.6574   24.9547 H   0  0  0  0  0  0  0  0  0  0  0  0
   54.4330  152.5790   23.4780 H   0  0  0  0  0  0  0  0  0  0  0  0
   53.7720  157.4170   26.3980 H   0  0  0  0  0  0  0  0  0  0  0  0
   50.2572  155.4386   28.7129 H   0  0  0  0  0  0  0  0  0  0  0  0
   48.8376  156.1505   30.3508 H   0  0  0  0  0  0  0  0  0  0  0  0
   49.2709  157.5163   31.4638 H   0  0  0  0  0  0  0  0  0  0  0  0
   47.5344  158.5951   30.5220 H   0  0  0  0  0  0  0  0  0  0  0  0
   48.6355  158.8355   29.1233 H   0  0  0  0  0  0  0  0  0  0  0  0
   47.4683  157.4700   29.1233 H   0  0  0  0  0  0  0  0  0  0  0  0
  1  2  1  0
  2  3  1  0
  3  4  2  0
  4  5  1  0
  5  6  2  0
  6  7  1  0
  7  8  1  0
  8  9  1  0
  9 10  2  0
 10 11  1  0
 11 12  2  0
 12 13  1  0
 13 14  1  0
 13 15  2  0
 15 16  1  0
 16 17  2  0
 16 18  1  0
 18 19  1  0
  6 20  1  0
 20 21  2  0
 21 22  1  0
 22 23  1  0
 21  3  1  0
 18  7  2  0
 15  9  1  0
  1 24  1  0
  1 25  1  0
  1 26  1  0
  2 27  1  0
  2 28  1  0
  4 29  1  0
  5 30  1  0
 10 31  1  0
 11 32  1  0
 12 33  1  0
 14 34  1  0
 19 35  1  0
 20 36  1  0
 22 37  1  0
 22 38  1  0
 23 39  1  0
 23 40  1  0
 23 41  1  0
M  END
>  <meeko>  (8) 
{"is_sidechain": [false], "free_energy": -7.959, "intermolecular_energy": -9.678, "internal_energy": -0.051}

$$$$
