cand_002_out
     RDKit          3D

 45 48  0  0  0  0  0  0  0  0999 V2000
   51.4700  153.1870   29.4820 C   0  0  0  0  0  0  0  0  0  0  0  0
   51.7850  154.5210   28.8630 C   0  0  0  0  0  0  0  0  0  0  0  0
   51.4250  155.6890   29.5630 C   0  0  0  0  0  0  0  0  0  0  0  0
   51.6710  156.9690   29.0430 C   0  0  0  0  0  0  0  0  0  0  0  0
   51.2550  158.1660   29.8060 C   0  0  0  0  0  0  0  0  0  0  0  0
   49.9330  158.1040   30.2280 O   0  0  0  0  0  0  0  0  0  0  0  0
   49.4160  159.1510   30.9480 C   0  0  0  0  0  0  0  0  0  0  0  0
   48.0800  159.0530   31.3390 C   0  0  0  0  0  0  0  0  0  0  0  0
   47.4930  160.0840   32.0760 C   0  0  0  0  0  0  0  0  0  0  0  0
   48.2410  161.2110   32.4210 C   0  0  0  0  0  0  0  0  0  0  0  0
   49.5730  161.3060   32.0290 C   0  0  0  0  0  0  0  0  0  0  0  0
   50.2470  162.4380   32.4010 O   0  0  0  0  0  0  0  0  0  0  0  0
   50.1600  160.2750   31.2910 C   0  0  0  0  0  0  0  0  0  0  0  0
   51.5570  160.3350   30.8600 C   0  0  0  0  0  0  0  0  0  0  0  0
   52.2820  161.2910   31.1300 O   0  0  0  0  0  0  0  0  0  0  0  0
   52.0820  159.1940   30.0760 C   0  0  0  0  0  0  0  0  0  0  0  0
   53.4070  159.2550   29.6850 O   0  0  0  0  0  0  0  0  0  0  0  0
   52.2700  157.0690   27.7850 C   0  0  0  0  0  0  0  0  0  0  0  0
   52.6230  155.9220   27.0710 C   0  0  0  0  0  0  0  0  0  0  0  0
   52.3840  154.6390   27.5920 C   0  0  0  0  0  0  0  0  0  0  0  0
   52.7820  153.4330   26.7590 C   0  0  0  0  0  0  0  0  0  0  0  0
   53.5640  153.7470   25.5010 C   0  0  0  0  0  0  0  0  0  0  0  0
   53.6780  152.7850   24.4860 C   0  0  0  0  0  0  0  0  0  0  0  0
   54.4170  153.0520   23.3330 C   0  0  0  0  0  0  0  0  0  0  0  0
   55.0580  154.2790   23.1820 C   0  0  0  0  0  0  0  0  0  0  0  0
   54.9640  155.2390   24.1880 C   0  0  0  0  0  0  0  0  0  0  0  0
   54.2250  154.9730   25.3430 C   0  0  0  0  0  0  0  0  0  0  0  0
   51.4913  153.2772   30.5781 H   0  0  0  0  0  0  0  0  0  0  0  0
   50.4701  152.8605   29.1603 H   0  0  0  0  0  0  0  0  0  0  0  0
   52.2183  152.4477   29.1603 H   0  0  0  0  0  0  0  0  0  0  0  0
   50.9375  155.5952   30.5446 H   0  0  0  0  0  0  0  0  0  0  0  0
   47.4902  158.1652   31.0672 H   0  0  0  0  0  0  0  0  0  0  0  0
   46.4400  160.0078   32.3850 H   0  0  0  0  0  0  0  0  0  0  0  0
   47.7784  162.0226   33.0017 H   0  0  0  0  0  0  0  0  0  0  0  0
   49.8120  163.2670   32.3910 H   0  0  0  0  0  0  0  0  0  0  0  0
   53.6950  158.7770   28.9310 H   0  0  0  0  0  0  0  0  0  0  0  0
   52.4656  158.0613   27.3525 H   0  0  0  0  0  0  0  0  0  0  0  0
   53.0965  156.0246   26.0834 H   0  0  0  0  0  0  0  0  0  0  0  0
   53.3991  152.7742   27.3876 H   0  0  0  0  0  0  0  0  0  0  0  0
   51.8420  152.9690   26.4258 H   0  0  0  0  0  0  0  0  0  0  0  0
   53.1800  151.8109   24.6004 H   0  0  0  0  0  0  0  0  0  0  0  0
   54.4934  152.2917   22.5417 H   0  0  0  0  0  0  0  0  0  0  0  0
   55.6371  154.4900   22.2709 H   0  0  0  0  0  0  0  0  0  0  0  0
   55.4725  156.2075   24.0722 H   0  0  0  0  0  0  0  0  0  0  0  0
   54.1611  155.7327   26.1360 H   0  0  0  0  0  0  0  0  0  0  0  0
  1  2  1  0
  2  3  2  0
  3  4  1  0
  4  5  1  0
  5  6  1  0
  6  7  1  0
  7  8  2  0
  8  9  1  0
  9 10  2  0
 10 11  1  0
 11 12  1  0
 11 13  2  0
 13 14  1  0
 14 15  2  0
 14 16  1  0
 16 17  1  0
  4 18  2  0
 18 19  1  0
 19 20  2  0
 20 21  1  0
 21 22  1  0
 22 23  2  0
 23 24  1  0
 24 25  2  0
 25 26  1  0
 26 27  2  0
 20  2  1  0
 27 22  1  0
 16  5  2  0
 13  7  1  0
  1 28  1  0
  1 29  1  0
  1 30  1  0
  3 31  1  0
  8 32  1  0
  9 33  1  0
 10 34  1  0
 12 35  1  0
 17 36  1  0
 18 37  1  0
 19 38  1  0
 21 39  1  0
 21 40  1  0
 23 41  1  0
 24 42  1  0
 25 43  1  0
 26 44  1  0
 27 45  1  0
M  END
>  <meeko>  (1) 
{"is_sidechain": [false], "free_energy": -10.495, "intermolecular_energy": -12.95, "internal_energy": 0.545}

$$$$
cand_002_out
     RDKit          3D

 45 48  0  0  0  0  0  0  0  0999 V2000
   54.0190  156.6180   24.8390 C   0  0  0  0  0  0  0  0  0  0  0  0
   53.4260  156.0070   26.0780 C   0  0  0  0  0  0  0  0  0  0  0  0
   52.7330  156.8430   26.9740 C   0  0  0  0  0  0  0  0  0  0  0  0
   52.1650  156.3500   28.1590 C   0  0  0  0  0  0  0  0  0  0  0  0
   51.4660  157.2720   29.0800 C   0  0  0  0  0  0  0  0  0  0  0  0
   52.1960  158.4230   29.3500 O   0  0  0  0  0  0  0  0  0  0  0  0
   51.6630  159.3660   30.1920 C   0  0  0  0  0  0  0  0  0  0  0  0
   52.4370  160.4990   30.4450 C   0  0  0  0  0  0  0  0  0  0  0  0
   51.9530  161.4980   31.2920 C   0  0  0  0  0  0  0  0  0  0  0  0
   50.6950  161.3630   31.8850 C   0  0  0  0  0  0  0  0  0  0  0  0
   49.9260  160.2320   31.6300 C   0  0  0  0  0  0  0  0  0  0  0  0
   48.7040  160.1650   32.2430 O   0  0  0  0  0  0  0  0  0  0  0  0
   50.4110  159.2320   30.7830 C   0  0  0  0  0  0  0  0  0  0  0  0
   49.6350  158.0270   30.4890 C   0  0  0  0  0  0  0  0  0  0  0  0
   48.5170  157.8400   30.9670 O   0  0  0  0  0  0  0  0  0  0  0  0
   50.2420  157.0240   29.5850 C   0  0  0  0  0  0  0  0  0  0  0  0
   49.4940  155.8960   29.3030 O   0  0  0  0  0  0  0  0  0  0  0  0
   52.3200  154.9930   28.4530 C   0  0  0  0  0  0  0  0  0  0  0  0
   53.0140  154.1510   27.5820 C   0  0  0  0  0  0  0  0  0  0  0  0
   53.5780  154.6410   26.3900 C   0  0  0  0  0  0  0  0  0  0  0  0
   54.3300  153.6730   25.4930 C   0  0  0  0  0  0  0  0  0  0  0  0
   53.8430  152.2410   25.5370 C   0  0  0  0  0  0  0  0  0  0  0  0
   54.5100  151.2490   24.8030 C   0  0  0  0  0  0  0  0  0  0  0  0
   54.0580  149.9290   24.8140 C   0  0  0  0  0  0  0  0  0  0  0  0
   52.9270  149.5850   25.5520 C   0  0  0  0  0  0  0  0  0  0  0  0
   52.2460  150.5620   26.2750 C   0  0  0  0  0  0  0  0  0  0  0  0
   52.6980  151.8830   26.2650 C   0  0  0  0  0  0  0  0  0  0  0  0
   54.7589  157.3804   25.1242 H   0  0  0  0  0  0  0  0  0  0  0  0
   54.5105  155.8348   24.2431 H   0  0  0  0  0  0  0  0  0  0  0  0
   53.2215  157.0859   24.2431 H   0  0  0  0  0  0  0  0  0  0  0  0
   52.6339  157.9130   26.7387 H   0  0  0  0  0  0  0  0  0  0  0  0
   53.4272  160.6051   29.9778 H   0  0  0  0  0  0  0  0  0  0  0  0
   52.5623  162.3916   31.4925 H   0  0  0  0  0  0  0  0  0  0  0  0
   50.3133  162.1497   32.5524 H   0  0  0  0  0  0  0  0  0  0  0  0
   47.9580  160.5720   31.8470 H   0  0  0  0  0  0  0  0  0  0  0  0
   48.5790  155.8780   29.5040 H   0  0  0  0  0  0  0  0  0  0  0  0
   51.8911  154.5840   29.3797 H   0  0  0  0  0  0  0  0  0  0  0  0
   53.1217  153.0853   27.8323 H   0  0  0  0  0  0  0  0  0  0  0  0
   54.2411  154.0307   24.4566 H   0  0  0  0  0  0  0  0  0  0  0  0
   55.3651  153.6544   25.8649 H   0  0  0  0  0  0  0  0  0  0  0  0
   55.3991  151.5146   24.2123 H   0  0  0  0  0  0  0  0  0  0  0  0
   54.5947  149.1594   24.2398 H   0  0  0  0  0  0  0  0  0  0  0  0
   52.5725  148.5438   25.5637 H   0  0  0  0  0  0  0  0  0  0  0  0
   51.3509  150.2922   26.8546 H   0  0  0  0  0  0  0  0  0  0  0  0
   52.1515  152.6502   26.8331 H   0  0  0  0  0  0  0  0  0  0  0  0
  1  2  1  0
  2  3  2  0
  3  4  1  0
  4  5  1  0
  5  6  1  0
  6  7  1  0
  7  8  2  0
  8  9  1  0
  9 10  2  0
 10 11  1  0
 11 12  1  0
 11 13  2  0
 13 14  1  0
 14 15  2  0
 14 16  1  0
 16 17  1  0
  4 18  2  0
 18 19  1  0
 19 20  2  0
 20 21  1  0
 21 22  1  0
 22 23  2  0
 23 24  1  0
 24 25  2  0
 25 26  1  0
 26 27  2  0
 20  2  1  0
 27 22  1  0
 16  5  2  0
 13  7  1  0
  1 28  1  0
  1 29  1  0
  1 30  1  0
  3 31  1  0
  8 32  1  0
  9 33  1  0
 10 34  1  0
 12 35  1  0
 17 36  1  0
 18 37  1  0
 19 38  1  0
 21 39  1  0
 21 40  1  0
 23 41  1  0
 24 42  1  0
 25 43  1  0
 26 44  1  0
 27 45  1  0
M  END
>  <meeko>  (2) 
{"is_sidechain": [false], "free_energy": -10.426, "intermolecular_energy": -12.669, "internal_energy": 0.351}

$$$$
cand_002_out
     RDKit          3D

 45 48  0  0  0  0  0  0  0  0999 V2000
   49.5380  157.6740   30.5980 C   0  0  0  0  0  0  0  0  0  0  0  0
   50.8080  157.5780   29.7980 C   0  0  0  0  0  0  0  0  0  0  0  0
   51.0660  156.3890   29.0880 C   0  0  0  0  0  0  0  0  0  0  0  0
   52.2360  156.2180   28.3320 C   0  0  0  0  0  0  0  0  0  0  0  0
   52.4740  154.9430   27.6210 C   0  0  0  0  0  0  0  0  0  0  0  0
   53.1960  155.1070   26.4460 O   0  0  0  0  0  0  0  0  0  0  0  0
   53.4880  154.0030   25.6860 C   0  0  0  0  0  0  0  0  0  0  0  0
   54.2040  154.2160   24.5070 C   0  0  0  0  0  0  0  0  0  0  0  0
   54.5350  153.1350   23.6880 C   0  0  0  0  0  0  0  0  0  0  0  0
   54.1510  151.8420   24.0480 C   0  0  0  0  0  0  0  0  0  0  0  0
   53.4380  151.6320   25.2250 C   0  0  0  0  0  0  0  0  0  0  0  0
   53.0950  150.3400   25.5180 O   0  0  0  0  0  0  0  0  0  0  0  0
   53.1060  152.7150   26.0440 C   0  0  0  0  0  0  0  0  0  0  0  0
   52.3570  152.5380   27.2890 C   0  0  0  0  0  0  0  0  0  0  0  0
   51.9910  151.4300   27.6760 O   0  0  0  0  0  0  0  0  0  0  0  0
   52.0490  153.7510   28.0810 C   0  0  0  0  0  0  0  0  0  0  0  0
   51.3530  153.5710   29.2620 O   0  0  0  0  0  0  0  0  0  0  0  0
   53.1690  157.2580   28.3110 C   0  0  0  0  0  0  0  0  0  0  0  0
   52.9350  158.4390   29.0180 C   0  0  0  0  0  0  0  0  0  0  0  0
   51.7610  158.6160   29.7710 C   0  0  0  0  0  0  0  0  0  0  0  0
   51.5740  159.9200   30.5260 C   0  0  0  0  0  0  0  0  0  0  0  0
   50.1560  160.2160   30.9640 C   0  0  0  0  0  0  0  0  0  0  0  0
   49.2130  160.6730   30.0320 C   0  0  0  0  0  0  0  0  0  0  0  0
   47.9090  160.9730   30.4270 C   0  0  0  0  0  0  0  0  0  0  0  0
   47.5320  160.8280   31.7610 C   0  0  0  0  0  0  0  0  0  0  0  0
   48.4630  160.3880   32.7010 C   0  0  0  0  0  0  0  0  0  0  0  0
   49.7680  160.0880   32.3060 C   0  0  0  0  0  0  0  0  0  0  0  0
   49.7785  157.6558   31.6712 H   0  0  0  0  0  0  0  0  0  0  0  0
   49.0210  158.6138   30.3539 H   0  0  0  0  0  0  0  0  0  0  0  0
   48.8857  156.8226   30.3539 H   0  0  0  0  0  0  0  0  0  0  0  0
   50.3303  155.5722   29.1272 H   0  0  0  0  0  0  0  0  0  0  0  0
   54.5072  155.2347   24.2234 H   0  0  0  0  0  0  0  0  0  0  0  0
   55.0988  153.3021   22.7584 H   0  0  0  0  0  0  0  0  0  0  0  0
   54.4115  150.9903   23.4025 H   0  0  0  0  0  0  0  0  0  0  0  0
   53.2470  149.9970   26.3760 H   0  0  0  0  0  0  0  0  0  0  0  0
   51.8180  153.4090   30.0600 H   0  0  0  0  0  0  0  0  0  0  0  0
   54.0972  157.1451   27.7316 H   0  0  0  0  0  0  0  0  0  0  0  0
   53.6825  159.2453   28.9853 H   0  0  0  0  0  0  0  0  0  0  0  0
   52.2073  159.8861   31.4248 H   0  0  0  0  0  0  0  0  0  0  0  0
   51.8487  160.7205   29.8233 H   0  0  0  0  0  0  0  0  0  0  0  0
   49.5045  160.7962   28.9785 H   0  0  0  0  0  0  0  0  0  0  0  0
   47.1774  161.3245   29.6846 H   0  0  0  0  0  0  0  0  0  0  0  0
   46.5025  161.0601   32.0714 H   0  0  0  0  0  0  0  0  0  0  0  0
   48.1689  160.2771   33.7551 H   0  0  0  0  0  0  0  0  0  0  0  0
   50.4990  159.7480   33.0543 H   0  0  0  0  0  0  0  0  0  0  0  0
  1  2  1  0
  2  3  2  0
  3  4  1  0
  4  5  1  0
  5  6  1  0
  6  7  1  0
  7  8  2  0
  8  9  1  0
  9 10  2  0
 10 11  1  0
 11 12  1  0
 11 13  2  0
 13 14  1  0
 14 15  2  0
 14 16  1  0
 16 17  1  0
  4 18  2  0
 18 19  1  0
 19 20  2  0
 20 21  1  0
 21 22  1  0
 22 23  2  0
 23 24  1  0
 24 25  2  0
 25 26  1  0
 26 27  2  0
 20  2  1  0
 27 22  1  0
 16  5  2  0
 13  7  1  0
  1 28  1  0
  1 29  1  0
  1 30  1  0
  3 31  1  0
  8 32  1  0
  9 33  1  0
 10 34  1  0
 12 35  1  0
 17 36  1  0
 18 37  1  0
 19 38  1  0
 21 39  1  0
 21 40  1  0
 23 41  1  0
 24 42  1  0
 25 43  1  0
 26 44  1  0
 27 45  1  0
M  END
>  <meeko>  (3) 
{"is_sidechain": [false], "free_energy": -10.308, "intermolecular_energy": -13.796, "internal_energy": 1.622}

$$$$
cand_002_out
     RDKit          3D

 45 48  0  0  0  0  0  0  0  0999 V2000
   54.2750  156.0660   24.4170 C   0  0  0  0  0  0  0  0  0  0  0  0
   53.6760  155.6050   25.7170 C   0  0  0  0  0  0  0  0  0  0  0  0
   53.1500  156.5720   26.5950 C   0  0  0  0  0  0  0  0  0  0  0  0
   52.5880  156.2200   27.8320 C   0  0  0  0  0  0  0  0  0  0  0  0
   52.0680  157.2740   28.7300 C   0  0  0  0  0  0  0  0  0  0  0  0
   50.7300  157.0910   29.0580 O   0  0  0  0  0  0  0  0  0  0  0  0
   50.1190  157.9970   29.8870 C   0  0  0  0  0  0  0  0  0  0  0  0
   48.7720  157.7830   30.1780 C   0  0  0  0  0  0  0  0  0  0  0  0
   48.0900  158.6680   31.0160 C   0  0  0  0  0  0  0  0  0  0  0  0
   48.7570  159.7660   31.5630 C   0  0  0  0  0  0  0  0  0  0  0  0
   50.1010  159.9780   31.2710 C   0  0  0  0  0  0  0  0  0  0  0  0
   50.6920  161.0730   31.8410 O   0  0  0  0  0  0  0  0  0  0  0  0
   50.7820  159.0930   30.4310 C   0  0  0  0  0  0  0  0  0  0  0  0
   52.1950  159.2790   30.0990 C   0  0  0  0  0  0  0  0  0  0  0  0
   52.8510  160.2180   30.5460 O   0  0  0  0  0  0  0  0  0  0  0  0
   52.8220  158.2880   29.1940 C   0  0  0  0  0  0  0  0  0  0  0  0
   54.1610  158.4660   28.8970 O   0  0  0  0  0  0  0  0  0  0  0  0
   52.5790  154.8720   28.1970 C   0  0  0  0  0  0  0  0  0  0  0  0
   53.1070  153.9000   27.3440 C   0  0  0  0  0  0  0  0  0  0  0  0
   53.6640  154.2480   26.1010 C   0  0  0  0  0  0  0  0  0  0  0  0
   54.2310  153.1440   25.2260 C   0  0  0  0  0  0  0  0  0  0  0  0
   53.6460  151.7680   25.4630 C   0  0  0  0  0  0  0  0  0  0  0  0
   54.1800  150.6540   24.7990 C   0  0  0  0  0  0  0  0  0  0  0  0
   53.6340  149.3830   24.9880 C   0  0  0  0  0  0  0  0  0  0  0  0
   52.5420  149.2110   25.8360 C   0  0  0  0  0  0  0  0  0  0  0  0
   51.9930  150.3120   26.4910 C   0  0  0  0  0  0  0  0  0  0  0  0
   52.5380  151.5830   26.3030 C   0  0  0  0  0  0  0  0  0  0  0  0
   55.1316  156.7252   24.6213 H   0  0  0  0  0  0  0  0  0  0  0  0
   54.6136  155.1932   23.8394 H   0  0  0  0  0  0  0  0  0  0  0  0
   53.5180  156.6168   23.8394 H   0  0  0  0  0  0  0  0  0  0  0  0
   53.1804  157.6322   26.3035 H   0  0  0  0  0  0  0  0  0  0  0  0
   48.2469  156.9175   29.7477 H   0  0  0  0  0  0  0  0  0  0  0  0
   47.0273  158.5000   31.2451 H   0  0  0  0  0  0  0  0  0  0  0  0
   48.2206  160.4627   32.2240 H   0  0  0  0  0  0  0  0  0  0  0  0
   50.1640  161.7790   32.1570 H   0  0  0  0  0  0  0  0  0  0  0  0
   54.5910  157.8820   28.3020 H   0  0  0  0  0  0  0  0  0  0  0  0
   52.1520  154.5728   29.1656 H   0  0  0  0  0  0  0  0  0  0  0  0
   53.0866  152.8437   27.6502 H   0  0  0  0  0  0  0  0  0  0  0  0
   54.0485  153.4149   24.1756 H   0  0  0  0  0  0  0  0  0  0  0  0
   55.2982  153.0698   25.4821 H   0  0  0  0  0  0  0  0  0  0  0  0
   55.0377  150.7830   24.1224 H   0  0  0  0  0  0  0  0  0  0  0  0
   54.0665  148.5163   24.4667 H   0  0  0  0  0  0  0  0  0  0  0  0
   52.1143  148.2090   25.9882 H   0  0  0  0  0  0  0  0  0  0  0  0
   51.1282  150.1789   27.1576 H   0  0  0  0  0  0  0  0  0  0  0  0
   52.0945  152.4477   26.8184 H   0  0  0  0  0  0  0  0  0  0  0  0
  1  2  1  0
  2  3  2  0
  3  4  1  0
  4  5  1  0
  5  6  1  0
  6  7  1  0
  7  8  2  0
  8  9  1  0
  9 10  2  0
 10 11  1  0
 11 12  1  0
 11 13  2  0
 13 14  1  0
 14 15  2  0
 14 16  1  0
 16 17  1  0
  4 18  2  0
 18 19  1  0
 19 20  2  0
 20 21  1  0
 21 22  1  0
 22 23  2  0
 23 24  1  0
 24 25  2  0
 25 26  1  0
 26 27  2  0
 20  2  1  0
 27 22  1  0
 16  5  2  0
 13  7  1  0
  1 28  1  0
  1 29  1  0
  1 30  1  0
  3 31  1  0
  8 32  1  0
  9 33  1  0
 10 34  1  0
 12 35  1  0
 17 36  1  0
 18 37  1  0
 19 38  1  0
 21 39  1  0
 21 40  1  0
 23 41  1  0
 24 42  1  0
 25 43  1  0
 26 44  1  0
 27 45  1  0
M  END
>  <meeko>  (4) 
{"is_sidechain": [false], "free_energy": -9.882, "intermolecular_energy": -12.037, "internal_energy": 0.389}

$$$$
cand_002_out
     RDKit          3D

 45 48  0  0  0  0  0  0  0  0999 V2000
   51.7830  158.9680   30.1760 C   0  0  0  0  0  0  0  0  0  0  0  0
   51.3050  157.6240   29.7010 C   0  0  0  0  0  0  0  0  0  0  0  0
   52.0380  156.9680   28.6940 C   0  0  0  0  0  0  0  0  0  0  0  0
   51.6460  155.7190   28.1880 C   0  0  0  0  0  0  0  0  0  0  0  0
   52.4350  155.0780   27.1140 C   0  0  0  0  0  0  0  0  0  0  0  0
   52.2720  153.6990   27.0740 O   0  0  0  0  0  0  0  0  0  0  0  0
   52.9480  152.9770   26.1230 C   0  0  0  0  0  0  0  0  0  0  0  0
   52.7660  151.5940   26.1280 C   0  0  0  0  0  0  0  0  0  0  0  0
   53.4240  150.8010   25.1860 C   0  0  0  0  0  0  0  0  0  0  0  0
   54.2640  151.3910   24.2390 C   0  0  0  0  0  0  0  0  0  0  0  0
   54.4440  152.7720   24.2360 C   0  0  0  0  0  0  0  0  0  0  0  0
   55.2790  153.2840   23.2810 O   0  0  0  0  0  0  0  0  0  0  0  0
   53.7860  153.5650   25.1800 C   0  0  0  0  0  0  0  0  0  0  0  0
   53.9470  155.0190   25.2110 C   0  0  0  0  0  0  0  0  0  0  0  0
   54.6630  155.6120   24.4070 O   0  0  0  0  0  0  0  0  0  0  0  0
   53.2110  155.7680   26.2560 C   0  0  0  0  0  0  0  0  0  0  0  0
   53.3600  157.1420   26.2690 O   0  0  0  0  0  0  0  0  0  0  0  0
   50.4820  155.1340   28.6950 C   0  0  0  0  0  0  0  0  0  0  0  0
   49.7370  155.7760   29.6860 C   0  0  0  0  0  0  0  0  0  0  0  0
   50.1310  157.0240   30.1990 C   0  0  0  0  0  0  0  0  0  0  0  0
   49.2680  157.6720   31.2680 C   0  0  0  0  0  0  0  0  0  0  0  0
   49.1030  159.1720   31.1430 C   0  0  0  0  0  0  0  0  0  0  0  0
   49.2800  159.9940   32.2650 C   0  0  0  0  0  0  0  0  0  0  0  0
   49.1060  161.3760   32.1700 C   0  0  0  0  0  0  0  0  0  0  0  0
   48.7440  161.9520   30.9540 C   0  0  0  0  0  0  0  0  0  0  0  0
   48.5520  161.1450   29.8340 C   0  0  0  0  0  0  0  0  0  0  0  0
   48.7260  159.7630   29.9280 C   0  0  0  0  0  0  0  0  0  0  0  0
   51.7898  158.9871   31.2758 H   0  0  0  0  0  0  0  0  0  0  0  0
   52.8007  159.1492   29.7999 H   0  0  0  0  0  0  0  0  0  0  0  0
   51.1083  159.7511   29.7999 H   0  0  0  0  0  0  0  0  0  0  0  0
   52.9430  157.4476   28.2926 H   0  0  0  0  0  0  0  0  0  0  0  0
   52.1046  151.1286   26.8736 H   0  0  0  0  0  0  0  0  0  0  0  0
   53.2807  149.7104   25.1897 H   0  0  0  0  0  0  0  0  0  0  0  0
   54.7825  150.7661   23.4969 H   0  0  0  0  0  0  0  0  0  0  0  0
   56.2000  153.3360   23.4430 H   0  0  0  0  0  0  0  0  0  0  0  0
   53.4490  157.5960   27.0840 H   0  0  0  0  0  0  0  0  0  0  0  0
   50.1499  154.1587   28.3096 H   0  0  0  0  0  0  0  0  0  0  0  0
   48.8254  155.2966   30.0723 H   0  0  0  0  0  0  0  0  0  0  0  0
   48.2686  157.2149   31.2216 H   0  0  0  0  0  0  0  0  0  0  0  0
   49.7861  157.5009   32.2231 H   0  0  0  0  0  0  0  0  0  0  0  0
   49.5588  159.5455   33.2299 H   0  0  0  0  0  0  0  0  0  0  0  0
   49.2548  162.0107   33.0560 H   0  0  0  0  0  0  0  0  0  0  0  0
   48.6101  163.0412   30.8781 H   0  0  0  0  0  0  0  0  0  0  0  0
   48.2628  161.5979   28.8742 H   0  0  0  0  0  0  0  0  0  0  0  0
   48.5660  159.1319   29.0414 H   0  0  0  0  0  0  0  0  0  0  0  0
  1  2  1  0
  2  3  2  0
  3  4  1  0
  4  5  1  0
  5  6  1  0
  6  7  1  0
  7  8  2  0
  8  9  1  0
  9 10  2  0
 10 11  1  0
 11 12  1  0
 11 13  2  0
 13 14  1  0
 14 15  2  0
 14 16  1  0
 16 17  1  0
  4 18  2  0
 18 19  1  0
 19 20  2  0
 20 21  1  0
 21 22  1  0
 22 23  2  0
 23 24  1  0
 24 25  2  0
 25 26  1  0
 26 27  2  0
 20  2  1  0
 27 22  1  0
 16  5  2  0
 13  7  1  0
  1 28  1  0
  1 29  1  0
  1 30  1  0
  3 31  1  0
  8 32  1  0
  9 33  1  0
 10 34  1  0
 12 35  1  0
 17 36  1  0
 18 37  1  0
 19 38  1  0
 21 39  1  0
 21 40  1  0
 23 41  1  0
 24 42  1  0
 25 43  1  0
 26 44  1  0
 27 45  1  0
M  END
>  <meeko>  (5) 
{"is_sidechain": [false], "free_energy": -9.632, "intermolecular_energy": -12.115, "internal_energy": 0.776}

$$$$
cand_002_out
     RDKit          3D

 45 48  0  0  0  0  0  0  0  0999 V2000
   50.8270  160.0280   30.2890 C   0  0  0  0  0  0  0  0  0  0  0  0
   50.4160  158.6120   29.9950 C   0  0  0  0  0  0  0  0  0  0  0  0
   51.2990  157.7940   29.2640 C   0  0  0  0  0  0  0  0  0  0  0  0
   50.9790  156.4670   28.9370 C   0  0  0  0  0  0  0  0  0  0  0  0
   51.9300  155.6540   28.1480 C   0  0  0  0  0  0  0  0  0  0  0  0
   52.4160  156.3230   27.0310 O   0  0  0  0  0  0  0  0  0  0  0  0
   53.3080  155.6830   26.2100 C   0  0  0  0  0  0  0  0  0  0  0  0
   53.7590  156.3870   25.0930 C   0  0  0  0  0  0  0  0  0  0  0  0
   54.6690  155.7940   24.2160 C   0  0  0  0  0  0  0  0  0  0  0  0
   55.1290  154.4980   24.4560 C   0  0  0  0  0  0  0  0  0  0  0  0
   54.6780  153.7980   25.5720 C   0  0  0  0  0  0  0  0  0  0  0  0
   55.1690  152.5320   25.7470 O   0  0  0  0  0  0  0  0  0  0  0  0
   53.7660  154.3910   26.4480 C   0  0  0  0  0  0  0  0  0  0  0  0
   53.2660  153.6900   27.6310 C   0  0  0  0  0  0  0  0  0  0  0  0
   53.6290  152.5500   27.9140 O   0  0  0  0  0  0  0  0  0  0  0  0
   52.2960  154.4050   28.4930 C   0  0  0  0  0  0  0  0  0  0  0  0
   51.8410  153.7380   29.6160 O   0  0  0  0  0  0  0  0  0  0  0  0
   49.7380  155.9660   29.3370 C   0  0  0  0  0  0  0  0  0  0  0  0
   48.8450  156.7670   30.0530 C   0  0  0  0  0  0  0  0  0  0  0  0
   49.1650  158.0940   30.3880 C   0  0  0  0  0  0  0  0  0  0  0  0
   48.1440  158.9130   31.1580 C   0  0  0  0  0  0  0  0  0  0  0  0
   48.7030  160.1000   31.9120 C   0  0  0  0  0  0  0  0  0  0  0  0
   48.5180  161.3990   31.4160 C   0  0  0  0  0  0  0  0  0  0  0  0
   49.0500  162.5010   32.0870 C   0  0  0  0  0  0  0  0  0  0  0  0
   49.7810  162.3180   33.2590 C   0  0  0  0  0  0  0  0  0  0  0  0
   49.9850  161.0320   33.7570 C   0  0  0  0  0  0  0  0  0  0  0  0
   49.4530  159.9290   33.0850 C   0  0  0  0  0  0  0  0  0  0  0  0
   50.8707  160.1786   31.3778 H   0  0  0  0  0  0  0  0  0  0  0  0
   51.8180  160.2204   29.8522 H   0  0  0  0  0  0  0  0  0  0  0  0
   50.0930  160.7211   29.8522 H   0  0  0  0  0  0  0  0  0  0  0  0
   52.2661  158.2063   28.9404 H   0  0  0  0  0  0  0  0  0  0  0  0
   53.3978  157.4086   24.9035 H   0  0  0  0  0  0  0  0  0  0  0  0
   55.0240  156.3486   23.3348 H   0  0  0  0  0  0  0  0  0  0  0  0
   55.8462  154.0308   23.7650 H   0  0  0  0  0  0  0  0  0  0  0  0
   55.8600  152.3790   26.3610 H   0  0  0  0  0  0  0  0  0  0  0  0
   51.1010  154.0670   30.0880 H   0  0  0  0  0  0  0  0  0  0  0  0
   49.4613  154.9314   29.0860 H   0  0  0  0  0  0  0  0  0  0  0  0
   47.8738  156.3516   30.3601 H   0  0  0  0  0  0  0  0  0  0  0  0
   47.3977  159.2864   30.4414 H   0  0  0  0  0  0  0  0  0  0  0  0
   47.7251  158.2388   31.9195 H   0  0  0  0  0  0  0  0  0  0  0  0
   47.9473  161.5507   30.4879 H   0  0  0  0  0  0  0  0  0  0  0  0
   48.8921  163.5148   31.6904 H   0  0  0  0  0  0  0  0  0  0  0  0
   50.1965  163.1869   33.7905 H   0  0  0  0  0  0  0  0  0  0  0  0
   50.5654  160.8857   34.6799 H   0  0  0  0  0  0  0  0  0  0  0  0
   49.6239  158.9165   33.4795 H   0  0  0  0  0  0  0  0  0  0  0  0
  1  2  1  0
  2  3  2  0
  3  4  1  0
  4  5  1  0
  5  6  1  0
  6  7  1  0
  7  8  2  0
  8  9  1  0
  9 10  2  0
 10 11  1  0
 11 12  1  0
 11 13  2  0
 13 14  1  0
 14 15  2  0
 14 16  1  0
 16 17  1  0
  4 18  2  0
 18 19  1  0
 19 20  2  0
 20 21  1  0
 21 22  1  0
 22 23  2  0
 23 24  1  0
 24 25  2  0
 25 26  1  0
 26 27  2  0
 20  2  1  0
 27 22  1  0
 16  5  2  0
 13  7  1  0
  1 28  1  0
  1 29  1  0
  1 30  1  0
  3 31  1  0
  8 32  1  0
  9 33  1  0
 10 34  1  0
 12 35  1  0
 17 36  1  0
 18 37  1  0
 19 38  1  0
 21 39  1  0
 21 40  1  0
 23 41  1  0
 24 42  1  0
 25 43  1  0
 26 44  1  0
 27 45  1  0
M  END
>  <meeko>  (6) 
{"is_sidechain": [false], "free_energy": -9.254, "intermolecular_energy": -12.227, "internal_energy": 1.354}

$$$$
cand_002_out
     RDKit          3D

 45 48  0  0  0  0  0  0  0  0999 V2000
   49.5400  156.8050   30.4080 C   0  0  0  0  0  0  0  0  0  0  0  0
   50.8020  157.0470   29.6280 C   0  0  0  0  0  0  0  0  0  0  0  0
   51.2240  156.0650   28.7110 C   0  0  0  0  0  0  0  0  0  0  0  0
   52.3990  156.2110   27.9580 C   0  0  0  0  0  0  0  0  0  0  0  0
   52.8130  155.1430   27.0240 C   0  0  0  0  0  0  0  0  0  0  0  0
   52.3560  153.8870   27.4030 O   0  0  0  0  0  0  0  0  0  0  0  0
   52.6690  152.8020   26.6240 C   0  0  0  0  0  0  0  0  0  0  0  0
   52.2010  151.5590   27.0500 C   0  0  0  0  0  0  0  0  0  0  0  0
   52.4830  150.4150   26.3010 C   0  0  0  0  0  0  0  0  0  0  0  0
   53.2310  150.5140   25.1270 C   0  0  0  0  0  0  0  0  0  0  0  0
   53.6960  151.7560   24.7030 C   0  0  0  0  0  0  0  0  0  0  0  0
   54.4230  151.7810   23.5440 O   0  0  0  0  0  0  0  0  0  0  0  0
   53.4150  152.9000   25.4540 C   0  0  0  0  0  0  0  0  0  0  0  0
   53.8850  154.2240   25.0450 C   0  0  0  0  0  0  0  0  0  0  0  0
   54.5440  154.3940   24.0200 O   0  0  0  0  0  0  0  0  0  0  0  0
   53.5400  155.3730   25.9130 C   0  0  0  0  0  0  0  0  0  0  0  0
   53.9770  156.6210   25.5100 O   0  0  0  0  0  0  0  0  0  0  0  0
   53.1710  157.3600   28.1510 C   0  0  0  0  0  0  0  0  0  0  0  0
   52.7740  158.3390   29.0650 C   0  0  0  0  0  0  0  0  0  0  0  0
   51.5940  158.1980   29.8160 C   0  0  0  0  0  0  0  0  0  0  0  0
   51.2260  159.2940   30.8000 C   0  0  0  0  0  0  0  0  0  0  0  0
   49.7650  159.6880   30.8130 C   0  0  0  0  0  0  0  0  0  0  0  0
   49.2290  160.4340   29.7520 C   0  0  0  0  0  0  0  0  0  0  0  0
   47.8890  160.8260   29.7630 C   0  0  0  0  0  0  0  0  0  0  0  0
   47.0700  160.4840   30.8370 C   0  0  0  0  0  0  0  0  0  0  0  0
   47.5930  159.7550   31.9030 C   0  0  0  0  0  0  0  0  0  0  0  0
   48.9330  159.3620   31.8940 C   0  0  0  0  0  0  0  0  0  0  0  0
   49.7607  156.8473   31.4848 H   0  0  0  0  0  0  0  0  0  0  0  0
   48.7988  157.5774   30.1550 H   0  0  0  0  0  0  0  0  0  0  0  0
   49.1371  155.8132   30.1550 H   0  0  0  0  0  0  0  0  0  0  0  0
   50.6153  155.1580   28.5814 H   0  0  0  0  0  0  0  0  0  0  0  0
   51.6106  151.4802   27.9748 H   0  0  0  0  0  0  0  0  0  0  0  0
   52.1151  149.4342   26.6367 H   0  0  0  0  0  0  0  0  0  0  0  0
   53.4529  149.6122   24.5375 H   0  0  0  0  0  0  0  0  0  0  0  0
   54.0940  151.3570   22.7760 H   0  0  0  0  0  0  0  0  0  0  0  0
   54.2000  156.7720   24.6120 H   0  0  0  0  0  0  0  0  0  0  0  0
   54.1001  157.4947   27.5777 H   0  0  0  0  0  0  0  0  0  0  0  0
   53.3959  159.2363   29.1995 H   0  0  0  0  0  0  0  0  0  0  0  0
   51.4937  158.9483   31.8094 H   0  0  0  0  0  0  0  0  0  0  0  0
   51.7794  160.1889   30.4792 H   0  0  0  0  0  0  0  0  0  0  0  0
   49.8709  160.7126   28.9033 H   0  0  0  0  0  0  0  0  0  0  0  0
   47.4793  161.4056   28.9226 H   0  0  0  0  0  0  0  0  0  0  0  0
   46.0131  160.7888   30.8433 H   0  0  0  0  0  0  0  0  0  0  0  0
   46.9488  159.4884   32.7538 H   0  0  0  0  0  0  0  0  0  0  0  0
   49.3396  158.7917   32.7422 H   0  0  0  0  0  0  0  0  0  0  0  0
  1  2  1  0
  2  3  2  0
  3  4  1  0
  4  5  1  0
  5  6  1  0
  6  7  1  0
  7  8  2  0
  8  9  1  0
  9 10  2  0
 10 11  1  0
 11 12  1  0
 11 13  2  0
 13 14  1  0
 14 15  2  0
 14 16  1  0
 16 17  1  0
  4 18  2  0
 18 19  1  0
 19 20  2  0
 20 21  1  0
 21 22  1  0
 22 23  2  0
 23 24  1  0
 24 25  2  0
 25 26  1  0
 26 27  2  0
 20  2  1  0
 27 22  1  0
 16  5  2  0
 13  7  1  0
  1 28  1  0
  1 29  1  0
  1 30  1  0
  3 31  1  0
  8 32  1  0
  9 33  1  0
 10 34  1  0
 12 35  1  0
 17 36  1  0
 18 37  1  0
 19 38  1  0
 21 39  1  0
 21 40  1  0
 23 41  1  0
 24 42  1  0
 25 43  1  0
 26 44  1  0
 27 45  1  0
M  END
>  <meeko>  (7) 
{"is_sidechain": [false], "free_energy": -9.253, "intermolecular_energy": -11.378, "internal_energy": 0.506}

$$$$
cand_002_out
     RDKit          3D

 45 48  0  0  0  0  0  0  0  0999 V2000
   49.0150  158.2630   30.6760 C   0  0  0  0  0  0  0  0  0  0  0  0
   50.3770  158.1060   30.0580 C   0  0  0  0  0  0  0  0  0  0  0  0
   50.6680  156.9150   29.3660 C   0  0  0  0  0  0  0  0  0  0  0  0
   51.9210  156.6880   28.7760 C   0  0  0  0  0  0  0  0  0  0  0  0
   52.1870  155.4120   28.0790 C   0  0  0  0  0  0  0  0  0  0  0  0
   52.7850  155.5890   26.8380 O   0  0  0  0  0  0  0  0  0  0  0  0
   53.0880  154.4850   26.0820 C   0  0  0  0  0  0  0  0  0  0  0  0
   53.6750  154.7100   24.8370 C   0  0  0  0  0  0  0  0  0  0  0  0
   54.0090  153.6290   24.0180 C   0  0  0  0  0  0  0  0  0  0  0  0
   53.7580  152.3240   24.4460 C   0  0  0  0  0  0  0  0  0  0  0  0
   53.1720  152.1020   25.6890 C   0  0  0  0  0  0  0  0  0  0  0  0
   52.9540  150.7990   26.0450 O   0  0  0  0  0  0  0  0  0  0  0  0
   52.8360  153.1840   26.5070 C   0  0  0  0  0  0  0  0  0  0  0  0
   52.2200  152.9950   27.8200 C   0  0  0  0  0  0  0  0  0  0  0  0
   51.9730  151.8770   28.2690 O   0  0  0  0  0  0  0  0  0  0  0  0
   51.8960  154.2070   28.6070 C   0  0  0  0  0  0  0  0  0  0  0  0
   51.3260  154.0160   29.8520 O   0  0  0  0  0  0  0  0  0  0  0  0
   52.9020  157.6740   28.9060 C   0  0  0  0  0  0  0  0  0  0  0  0
   52.6360  158.8570   29.5990 C   0  0  0  0  0  0  0  0  0  0  0  0
   51.3790  159.0900   30.1850 C   0  0  0  0  0  0  0  0  0  0  0  0
   51.1590  160.3930   30.9330 C   0  0  0  0  0  0  0  0  0  0  0  0
   52.3750  161.2870   31.0440 C   0  0  0  0  0  0  0  0  0  0  0  0
   52.6290  162.2530   30.0580 C   0  0  0  0  0  0  0  0  0  0  0  0
   53.7590  163.0670   30.1340 C   0  0  0  0  0  0  0  0  0  0  0  0
   54.6550  162.9220   31.1910 C   0  0  0  0  0  0  0  0  0  0  0  0
   54.4230  161.9580   32.1700 C   0  0  0  0  0  0  0  0  0  0  0  0
   53.2920  161.1420   32.0950 C   0  0  0  0  0  0  0  0  0  0  0  0
   49.1063  158.2525   31.7722 H   0  0  0  0  0  0  0  0  0  0  0  0
   48.5741  159.2179   30.3539 H   0  0  0  0  0  0  0  0  0  0  0  0
   48.3684  157.4334   30.3539 H   0  0  0  0  0  0  0  0  0  0  0  0
   49.8912  156.1403   29.2855 H   0  0  0  0  0  0  0  0  0  0  0  0
   53.8748  155.7380   24.5003 H   0  0  0  0  0  0  0  0  0  0  0  0
   54.4701  153.8060   23.0351 H   0  0  0  0  0  0  0  0  0  0  0  0
   54.0229  151.4725   23.8019 H   0  0  0  0  0  0  0  0  0  0  0  0
   52.2210  150.3330   25.6930 H   0  0  0  0  0  0  0  0  0  0  0  0
   51.5710  154.5680   30.5690 H   0  0  0  0  0  0  0  0  0  0  0  0
   53.8943  157.5170   28.4579 H   0  0  0  0  0  0  0  0  0  0  0  0
   53.4235  159.6199   29.6880 H   0  0  0  0  0  0  0  0  0  0  0  0
   50.3701  160.9552   30.4119 H   0  0  0  0  0  0  0  0  0  0  0  0
   50.8925  160.1120   31.9626 H   0  0  0  0  0  0  0  0  0  0  0  0
   51.9298  162.3693   29.2168 H   0  0  0  0  0  0  0  0  0  0  0  0
   53.9431  163.8247   29.3581 H   0  0  0  0  0  0  0  0  0  0  0  0
   55.5438  163.5672   31.2526 H   0  0  0  0  0  0  0  0  0  0  0  0
   55.1316  161.8395   33.0030 H   0  0  0  0  0  0  0  0  0  0  0  0
   53.1189  160.3784   32.8676 H   0  0  0  0  0  0  0  0  0  0  0  0
  1  2  1  0
  2  3  2  0
  3  4  1  0
  4  5  1  0
  5  6  1  0
  6  7  1  0
  7  8  2  0
  8  9  1  0
  9 10  2  0
 10 11  1  0
 11 12  1  0
 11 13  2  0
 13 14  1  0
 14 15  2  0
 14 16  1  0
 16 17  1  0
  4 18  2  0
 18 19  1  0
 19 20  2  0
 20 21  1  0
 21 22  1  0
 22 23  2  0
 23 24  1  0
 24 25  2  0
 25 26  1  0
 26 27  2  0
 20  2  1  0
 27 22  1  0
 16  5  2  0
 13  7  1  0
  1 28  1  0
  1 29  1  0
  1 30  1  0
  3 31  1  0
  8 32  1  0
  9 33  1  0
 10 34  1  0
 12 35  1  0
 17 36  1  0
 18 37  1  0
 19 38  1  0
 21 39  1  0
 21 40  1  0
 23 41  1  0
 24 42  1  0
 25 43  1  0
 26 44  1  0
 27 45  1  0
M  END
>  <meeko>  (8) 
{"is_sidechain": [false], "free_energy": -9.195, "intermolecular_energy": -10.393, "internal_energy": -0.406}

$$$$
cand_002_out
     RDKit          3D

 45 48  0  0  0  0  0  0  0  0999 V2000
   51.5470  152.6710   29.3060 C   0  0  0  0  0  0  0  0  0  0  0  0
   51.8950  154.0520   28.8230 C   0  0  0  0  0  0  0  0  0  0  0  0
   51.2930  155.1570   29.4550 C   0  0  0  0  0  0  0  0  0  0  0  0
   51.5560  156.4750   29.0500 C   0  0  0  0  0  0  0  0  0  0  0  0
   50.8830  157.6030   29.7300 C   0  0  0  0  0  0  0  0  0  0  0  0
   51.7500  158.6450   30.0340 O   0  0  0  0  0  0  0  0  0  0  0  0
   51.2560  159.7570   30.6670 C   0  0  0  0  0  0  0  0  0  0  0  0
   52.1650  160.7730   30.9660 C   0  0  0  0  0  0  0  0  0  0  0  0
   51.7270  161.9330   31.6080 C   0  0  0  0  0  0  0  0  0  0  0  0
   50.3820  162.0760   31.9520 C   0  0  0  0  0  0  0  0  0  0  0  0
   49.4770  161.0610   31.6530 C   0  0  0  0  0  0  0  0  0  0  0  0
   48.1740  161.2680   32.0170 O   0  0  0  0  0  0  0  0  0  0  0  0
   49.9160  159.9010   31.0110 C   0  0  0  0  0  0  0  0  0  0  0  0
   48.9980  158.8100   30.6780 C   0  0  0  0  0  0  0  0  0  0  0  0
   47.7990  158.8650   30.9420 O   0  0  0  0  0  0  0  0  0  0  0  0
   49.5650  157.6190   30.0040 C   0  0  0  0  0  0  0  0  0  0  0  0
   48.6870  156.6010   29.6830 O   0  0  0  0  0  0  0  0  0  0  0  0
   52.4260  156.6770   27.9760 C   0  0  0  0  0  0  0  0  0  0  0  0
   53.0230  155.5930   27.3290 C   0  0  0  0  0  0  0  0  0  0  0  0
   52.7660  154.2720   27.7370 C   0  0  0  0  0  0  0  0  0  0  0  0
   53.4400  153.1380   26.9840 C   0  0  0  0  0  0  0  0  0  0  0  0
   53.8970  153.4760   25.5810 C   0  0  0  0  0  0  0  0  0  0  0  0
   53.7350  152.5440   24.5450 C   0  0  0  0  0  0  0  0  0  0  0  0
   54.1740  152.8320   23.2520 C   0  0  0  0  0  0  0  0  0  0  0  0
   54.7890  154.0530   22.9800 C   0  0  0  0  0  0  0  0  0  0  0  0
   54.9690  154.9830   24.0020 C   0  0  0  0  0  0  0  0  0  0  0  0
   54.5290  154.6950   25.2960 C   0  0  0  0  0  0  0  0  0  0  0  0
   51.5435  152.6573   30.4059 H   0  0  0  0  0  0  0  0  0  0  0  0
   50.5505  152.3923   28.9327 H   0  0  0  0  0  0  0  0  0  0  0  0
   52.2924  151.9533   28.9327 H   0  0  0  0  0  0  0  0  0  0  0  0
   50.5974  154.9825   30.2891 H   0  0  0  0  0  0  0  0  0  0  0  0
   53.2254  160.6600   30.6962 H   0  0  0  0  0  0  0  0  0  0  0  0
   52.4426  162.7348   31.8428 H   0  0  0  0  0  0  0  0  0  0  0  0
   50.0373  162.9895   32.4587 H   0  0  0  0  0  0  0  0  0  0  0  0
   47.9400  162.0320   32.5070 H   0  0  0  0  0  0  0  0  0  0  0  0
   48.1150  156.2510   30.3380 H   0  0  0  0  0  0  0  0  0  0  0  0
   52.6431  157.7005   27.6364 H   0  0  0  0  0  0  0  0  0  0  0  0
   53.7058  155.7755   26.4861 H   0  0  0  0  0  0  0  0  0  0  0  0
   54.3212  152.8226   27.5619 H   0  0  0  0  0  0  0  0  0  0  0  0
   52.6798  152.3504   26.8753 H   0  0  0  0  0  0  0  0  0  0  0  0
   53.2568  151.5757   24.7541 H   0  0  0  0  0  0  0  0  0  0  0  0
   54.0347  152.0952   22.4472 H   0  0  0  0  0  0  0  0  0  0  0  0
   55.1317  154.2820   21.9602 H   0  0  0  0  0  0  0  0  0  0  0  0
   55.4582  155.9450   23.7894 H   0  0  0  0  0  0  0  0  0  0  0  0
   54.6797  155.4314   26.0992 H   0  0  0  0  0  0  0  0  0  0  0  0
  1  2  1  0
  2  3  2  0
  3  4  1  0
  4  5  1  0
  5  6  1  0
  6  7  1  0
  7  8  2  0
  8  9  1  0
  9 10  2  0
 10 11  1  0
 11 12  1  0
 11 13  2  0
 13 14  1  0
 14 15  2  0
 14 16  1  0
 16 17  1  0
  4 18  2  0
 18 19  1  0
 19 20  2  0
 20 21  1  0
 21 22  1  0
 22 23  2  0
 23 24  1  0
 24 25  2  0
 25 26  1  0
 26 27  2  0
 20  2  1  0
 27 22  1  0
 16  5  2  0
 13  7  1  0
  1 28  1  0
  1 29  1  0
  1 30  1  0
  3 31  1  0
  8 32  1  0
  9 33  1  0
 10 34  1  0
 12 35  1  0
 17 36  1  0
 18 37  1  0
 19 38  1  0
 21 39  1  0
 21 40  1  0
 23 41  1  0
 24 42  1  0
 25 43  1  0
 26 44  1  0
 27 45  1  0
M  END
>  <meeko>  (9) 
{"is_sidechain": [false], "free_energy": -9.187, "intermolecular_energy": -11.203, "internal_energy": 0.413}

$$$$
