cand_030_out
     RDKit          3D

 38 40  0  0  0  0  0  0  0  0999 V2000
   50.1250  161.1300   33.0170 C   0  0  0  0  0  0  0  0  0  0  0  0
   49.9340  161.2240   31.5110 C   0  0  0  0  0  0  0  0  0  0  0  0
   50.3890  159.9670   30.8010 C   0  0  0  0  0  0  0  0  0  0  0  0
   51.7180  159.9060   30.3470 C   0  0  0  0  0  0  0  0  0  0  0  0
   52.2000  158.7790   29.6790 C   0  0  0  0  0  0  0  0  0  0  0  0
   51.3700  157.6770   29.4490 C   0  0  0  0  0  0  0  0  0  0  0  0
   51.8920  156.5000   28.7250 C   0  0  0  0  0  0  0  0  0  0  0  0
   52.4880  156.8300   27.5130 O   0  0  0  0  0  0  0  0  0  0  0  0
   53.0120  155.8260   26.7380 C   0  0  0  0  0  0  0  0  0  0  0  0
   53.5840  156.1990   25.5210 C   0  0  0  0  0  0  0  0  0  0  0  0
   54.1380  155.2260   24.6860 C   0  0  0  0  0  0  0  0  0  0  0  0
   54.1200  153.8830   25.0660 C   0  0  0  0  0  0  0  0  0  0  0  0
   53.5480  153.5130   26.2810 C   0  0  0  0  0  0  0  0  0  0  0  0
   53.5650  152.1810   26.5920 O   0  0  0  0  0  0  0  0  0  0  0  0
   52.9930  154.4870   27.1160 C   0  0  0  0  0  0  0  0  0  0  0  0
   52.3820  154.1410   28.4010 C   0  0  0  0  0  0  0  0  0  0  0  0
   52.3340  152.9840   28.8100 O   0  0  0  0  0  0  0  0  0  0  0  0
   51.8150  155.2460   29.2080 C   0  0  0  0  0  0  0  0  0  0  0  0
   51.2510  154.9140   30.4260 O   0  0  0  0  0  0  0  0  0  0  0  0
   50.0400  157.7420   29.8850 C   0  0  0  0  0  0  0  0  0  0  0  0
   49.5320  158.8740   30.5560 C   0  0  0  0  0  0  0  0  0  0  0  0
   48.0930  158.8550   31.0240 C   0  0  0  0  0  0  0  0  0  0  0  0
   47.9700  158.8400   32.3800 F   0  0  0  0  0  0  0  0  0  0  0  0
   47.3710  159.9360   30.6110 F   0  0  0  0  0  0  0  0  0  0  0  0
   49.2497  161.5608   33.5252 H   0  0  0  0  0  0  0  0  0  0  0  0
   50.2352  160.0748   33.3075 H   0  0  0  0  0  0  0  0  0  0  0  0
   51.0283  161.6865   33.3075 H   0  0  0  0  0  0  0  0  0  0  0  0
   48.8670  161.3855   31.2980 H   0  0  0  0  0  0  0  0  0  0  0  0
   50.5450  162.0615   31.1431 H   0  0  0  0  0  0  0  0  0  0  0  0
   52.3890  160.7601   30.5209 H   0  0  0  0  0  0  0  0  0  0  0  0
   53.2430  158.7574   29.3300 H   0  0  0  0  0  0  0  0  0  0  0  0
   53.5985  157.2569   25.2200 H   0  0  0  0  0  0  0  0  0  0  0  0
   54.5896  155.5188   23.7266 H   0  0  0  0  0  0  0  0  0  0  0  0
   54.5568  153.1181   24.4071 H   0  0  0  0  0  0  0  0  0  0  0  0
   53.5360  151.5410   25.9090 H   0  0  0  0  0  0  0  0  0  0  0  0
   50.6980  154.1600   30.4950 H   0  0  0  0  0  0  0  0  0  0  0  0
   49.3737  156.8868   29.6989 H   0  0  0  0  0  0  0  0  0  0  0  0
   47.7063  157.9278   30.5759 H   0  0  0  0  0  0  0  0  0  0  0  0
  1  2  1  0
  2  3  1  0
  3  4  2  0
  4  5  1  0
  5  6  2  0
  6  7  1  0
  7  8  1  0
  8  9  1  0
  9 10  2  0
 10 11  1  0
 11 12  2  0
 12 13  1  0
 13 14  1  0
 13 15  2  0
 15 16  1  0
 16 17  2  0
 16 18  1  0
 18 19  1  0
  6 20  1  0
 20 21  2  0
 21 22  1  0
 22 23  1  0
 22 24  1  0
 21  3  1  0
 18  7  2  0
 15  9  1  0
  1 25  1  0
  1 26  1  0
  1 27  1  0
  2 28  1  0
  2 29  1  0
  4 30  1  0
  5 31  1  0
 10 32  1  0
 11 33  1  0
 12 34  1  0
 14 35  1  0
 19 36  1  0
 20 37  1  0
 22 38  1  0
M  END
>  <meeko>  (1) 
{"is_sidechain": [false], "free_energy": -10.773, "intermolecular_energy": -13.293, "internal_energy": -0.379}

$$$$
cand_030_out
     RDKit          3D

 38 40  0  0  0  0  0  0  0  0999 V2000
   49.3120  160.5480   33.2920 C   0  0  0  0  0  0  0  0  0  0  0  0
   49.1740  160.7560   31.7910 C   0  0  0  0  0  0  0  0  0  0  0  0
   49.8850  159.6790   31.0000 C   0  0  0  0  0  0  0  0  0  0  0  0
   49.1900  158.4880   30.7280 C   0  0  0  0  0  0  0  0  0  0  0  0
   49.7900  157.4520   30.0090 C   0  0  0  0  0  0  0  0  0  0  0  0
   51.1000  157.5770   29.5370 C   0  0  0  0  0  0  0  0  0  0  0  0
   51.7250  156.4640   28.7940 C   0  0  0  0  0  0  0  0  0  0  0  0
   52.2760  156.8630   27.5820 O   0  0  0  0  0  0  0  0  0  0  0  0
   52.8850  155.9230   26.7900 C   0  0  0  0  0  0  0  0  0  0  0  0
   53.4090  156.3630   25.5740 C   0  0  0  0  0  0  0  0  0  0  0  0
   54.0450  155.4580   24.7210 C   0  0  0  0  0  0  0  0  0  0  0  0
   54.1570  154.1140   25.0850 C   0  0  0  0  0  0  0  0  0  0  0  0
   53.6330  153.6770   26.2990 C   0  0  0  0  0  0  0  0  0  0  0  0
   53.7780  152.3490   26.5920 O   0  0  0  0  0  0  0  0  0  0  0  0
   52.9960  154.5840   27.1510 C   0  0  0  0  0  0  0  0  0  0  0  0
   52.4320  154.1660   28.4360 C   0  0  0  0  0  0  0  0  0  0  0  0
   52.4960  153.0040   28.8290 O   0  0  0  0  0  0  0  0  0  0  0  0
   51.7700  155.2030   29.2610 C   0  0  0  0  0  0  0  0  0  0  0  0
   51.2510  154.8040   30.4790 O   0  0  0  0  0  0  0  0  0  0  0  0
   51.8010  158.7570   29.8220 C   0  0  0  0  0  0  0  0  0  0  0  0
   51.2160  159.8130   30.5510 C   0  0  0  0  0  0  0  0  0  0  0  0
   52.0270  161.0670   30.7900 C   0  0  0  0  0  0  0  0  0  0  0  0
   52.3450  161.2590   32.1000 F   0  0  0  0  0  0  0  0  0  0  0  0
   53.2190  161.0790   30.1270 F   0  0  0  0  0  0  0  0  0  0  0  0
   48.7797  161.3504   33.8238 H   0  0  0  0  0  0  0  0  0  0  0  0
   48.8797  159.5751   33.5686 H   0  0  0  0  0  0  0  0  0  0  0  0
   50.3765  160.5682   33.5686 H   0  0  0  0  0  0  0  0  0  0  0  0
   48.1061  160.7431   31.5277 H   0  0  0  0  0  0  0  0  0  0  0  0
   49.6352  161.7223   31.5388 H   0  0  0  0  0  0  0  0  0  0  0  0
   48.1570  158.3701   31.0872 H   0  0  0  0  0  0  0  0  0  0  0  0
   49.2262  156.5283   29.8121 H   0  0  0  0  0  0  0  0  0  0  0  0
   53.3214  157.4214   25.2874 H   0  0  0  0  0  0  0  0  0  0  0  0
   54.4580  155.8039   23.7619 H   0  0  0  0  0  0  0  0  0  0  0  0
   54.6585  153.4016   24.4134 H   0  0  0  0  0  0  0  0  0  0  0  0
   54.1330  151.7640   25.9530 H   0  0  0  0  0  0  0  0  0  0  0  0
   51.7850  154.8340   31.2480 H   0  0  0  0  0  0  0  0  0  0  0  0
   52.8368  158.8623   29.4669 H   0  0  0  0  0  0  0  0  0  0  0  0
   51.3606  161.8596   30.4190 H   0  0  0  0  0  0  0  0  0  0  0  0
  1  2  1  0
  2  3  1  0
  3  4  2  0
  4  5  1  0
  5  6  2  0
  6  7  1  0
  7  8  1  0
  8  9  1  0
  9 10  2  0
 10 11  1  0
 11 12  2  0
 12 13  1  0
 13 14  1  0
 13 15  2  0
 15 16  1  0
 16 17  2  0
 16 18  1  0
 18 19  1  0
  6 20  1  0
 20 21  2  0
 21 22  1  0
 22 23  1  0
 22 24  1  0
 21  3  1  0
 18  7  2  0
 15  9  1  0
  1 25  1  0
  1 26  1  0
  1 27  1  0
  2 28  1  0
  2 29  1  0
  4 30  1  0
  5 31  1  0
 10 32  1  0
 11 33  1  0
 12 34  1  0
 14 35  1  0
 19 36  1  0
 20 37  1  0
 22 38  1  0
M  END
>  <meeko>  (2) 
{"is_sidechain": [false], "free_energy": -10.747, "intermolecular_energy": -13.19, "internal_energy": -0.45}

$$$$
cand_030_out
     RDKit          3D

 38 40  0  0  0  0  0  0  0  0999 V2000
   51.9760  151.5440   26.8020 C   0  0  0  0  0  0  0  0  0  0  0  0
   53.1000  152.5670   26.7270 C   0  0  0  0  0  0  0  0  0  0  0  0
   52.7180  153.8800   27.3750 C   0  0  0  0  0  0  0  0  0  0  0  0
   52.0700  153.8410   28.6210 C   0  0  0  0  0  0  0  0  0  0  0  0
   51.6850  155.0160   29.2710 C   0  0  0  0  0  0  0  0  0  0  0  0
   51.9390  156.2650   28.6950 C   0  0  0  0  0  0  0  0  0  0  0  0
   51.5080  157.4960   29.3880 C   0  0  0  0  0  0  0  0  0  0  0  0
   50.1770  157.4570   29.7850 O   0  0  0  0  0  0  0  0  0  0  0  0
   49.6480  158.5420   30.4370 C   0  0  0  0  0  0  0  0  0  0  0  0
   48.3030  158.4670   30.8020 C   0  0  0  0  0  0  0  0  0  0  0  0
   47.7040  159.5370   31.4720 C   0  0  0  0  0  0  0  0  0  0  0  0
   48.4480  160.6790   31.7770 C   0  0  0  0  0  0  0  0  0  0  0  0
   49.7900  160.7500   31.4110 C   0  0  0  0  0  0  0  0  0  0  0  0
   50.4600  161.8970   31.7400 O   0  0  0  0  0  0  0  0  0  0  0  0
   50.3890  159.6800   30.7400 C   0  0  0  0  0  0  0  0  0  0  0  0
   51.7960  159.7150   30.3380 C   0  0  0  0  0  0  0  0  0  0  0  0
   52.5190  160.6800   30.5760 O   0  0  0  0  0  0  0  0  0  0  0  0
   52.3330  158.5330   29.6250 C   0  0  0  0  0  0  0  0  0  0  0  0
   53.6660  158.5680   29.2590 O   0  0  0  0  0  0  0  0  0  0  0  0
   52.5690  156.3060   27.4440 C   0  0  0  0  0  0  0  0  0  0  0  0
   52.9610  155.1310   26.7690 C   0  0  0  0  0  0  0  0  0  0  0  0
   53.6650  155.2600   25.4370 C   0  0  0  0  0  0  0  0  0  0  0  0
   52.9410  154.7620   24.3960 F   0  0  0  0  0  0  0  0  0  0  0  0
   53.9460  156.5500   25.0920 F   0  0  0  0  0  0  0  0  0  0  0  0
   51.7430  151.3319   27.8559 H   0  0  0  0  0  0  0  0  0  0  0  0
   51.0817  151.9445   26.3022 H   0  0  0  0  0  0  0  0  0  0  0  0
   52.2908  150.6161   26.3022 H   0  0  0  0  0  0  0  0  0  0  0  0
   53.9838  152.1614   27.2412 H   0  0  0  0  0  0  0  0  0  0  0  0
   53.3109  152.7617   25.6651 H   0  0  0  0  0  0  0  0  0  0  0  0
   51.8624  152.8691   29.0925 H   0  0  0  0  0  0  0  0  0  0  0  0
   51.1772  154.9584   30.2451 H   0  0  0  0  0  0  0  0  0  0  0  0
   47.7160  157.5680   30.5629 H   0  0  0  0  0  0  0  0  0  0  0  0
   46.6439  159.4798   31.7599 H   0  0  0  0  0  0  0  0  0  0  0  0
   47.9753  161.5203   32.3050 H   0  0  0  0  0  0  0  0  0  0  0  0
   51.1160  161.8800   32.4080 H   0  0  0  0  0  0  0  0  0  0  0  0
   54.1660  157.7750   29.2390 H   0  0  0  0  0  0  0  0  0  0  0  0
   52.7633  157.2819   26.9751 H   0  0  0  0  0  0  0  0  0  0  0  0
   54.5880  154.6831   25.5958 H   0  0  0  0  0  0  0  0  0  0  0  0
  1  2  1  0
  2  3  1  0
  3  4  2  0
  4  5  1  0
  5  6  2  0
  6  7  1  0
  7  8  1  0
  8  9  1  0
  9 10  2  0
 10 11  1  0
 11 12  2  0
 12 13  1  0
 13 14  1  0
 13 15  2  0
 15 16  1  0
 16 17  2  0
 16 18  1  0
 18 19  1  0
  6 20  1  0
 20 21  2  0
 21 22  1  0
 22 23  1  0
 22 24  1  0
 21  3  1  0
 18  7  2  0
 15  9  1  0
  1 25  1  0
  1 26  1  0
  1 27  1  0
  2 28  1  0
  2 29  1  0
  4 30  1  0
  5 31  1  0
 10 32  1  0
 11 33  1  0
 12 34  1  0
 14 35  1  0
 19 36  1  0
 20 37  1  0
 22 38  1  0
M  END
>  <meeko>  (3) 
{"is_sidechain": [false], "free_energy": -10.19, "intermolecular_energy": -12.521, "internal_energy": -0.432}

$$$$
cand_030_out
     RDKit          3D

 38 40  0  0  0  0  0  0  0  0999 V2000
   47.7550  159.7490   30.9280 C   0  0  0  0  0  0  0  0  0  0  0  0
   48.9990  159.2070   31.6170 C   0  0  0  0  0  0  0  0  0  0  0  0
   49.8540  158.3810   30.6800 C   0  0  0  0  0  0  0  0  0  0  0  0
   49.4230  157.0820   30.3610 C   0  0  0  0  0  0  0  0  0  0  0  0
   50.1680  156.2660   29.5070 C   0  0  0  0  0  0  0  0  0  0  0  0
   51.3630  156.7250   28.9440 C   0  0  0  0  0  0  0  0  0  0  0  0
   52.1470  155.8410   28.0580 C   0  0  0  0  0  0  0  0  0  0  0  0
   52.7000  156.5120   26.9740 O   0  0  0  0  0  0  0  0  0  0  0  0
   53.4510  155.8040   26.0690 C   0  0  0  0  0  0  0  0  0  0  0  0
   53.9720  156.5140   24.9870 C   0  0  0  0  0  0  0  0  0  0  0  0
   54.7470  155.8540   24.0310 C   0  0  0  0  0  0  0  0  0  0  0  0
   55.0020  154.4870   24.1570 C   0  0  0  0  0  0  0  0  0  0  0  0
   54.4800  153.7810   25.2390 C   0  0  0  0  0  0  0  0  0  0  0  0
   54.7670  152.4450   25.3010 O   0  0  0  0  0  0  0  0  0  0  0  0
   53.7030  154.4420   26.1940 C   0  0  0  0  0  0  0  0  0  0  0  0
   53.1360  153.7370   27.3460 C   0  0  0  0  0  0  0  0  0  0  0  0
   53.3200  152.5370   27.5310 O   0  0  0  0  0  0  0  0  0  0  0  0
   52.3210  154.5270   28.2970 C   0  0  0  0  0  0  0  0  0  0  0  0
   51.7980  153.8580   29.3890 O   0  0  0  0  0  0  0  0  0  0  0  0
   51.8030  158.0140   29.2750 C   0  0  0  0  0  0  0  0  0  0  0  0
   51.0690  158.8520   30.1400 C   0  0  0  0  0  0  0  0  0  0  0  0
   51.5950  160.2410   30.4220 C   0  0  0  0  0  0  0  0  0  0  0  0
   50.7580  161.2290   29.9970 F   0  0  0  0  0  0  0  0  0  0  0  0
   51.7960  160.4890   31.7490 F   0  0  0  0  0  0  0  0  0  0  0  0
   47.0248  160.0671   31.6867 H   0  0  0  0  0  0  0  0  0  0  0  0
   48.0292  160.6092   30.2996 H   0  0  0  0  0  0  0  0  0  0  0  0
   47.3118  158.9624   30.2996 H   0  0  0  0  0  0  0  0  0  0  0  0
   49.5957  160.0530   31.9888 H   0  0  0  0  0  0  0  0  0  0  0  0
   48.6733  158.5558   32.4415 H   0  0  0  0  0  0  0  0  0  0  0  0
   48.4843  156.7021   30.7906 H   0  0  0  0  0  0  0  0  0  0  0  0
   49.8112  155.2517   29.2748 H   0  0  0  0  0  0  0  0  0  0  0  0
   53.7728  157.5912   24.8871 H   0  0  0  0  0  0  0  0  0  0  0  0
   55.1575  156.4123   23.1767 H   0  0  0  0  0  0  0  0  0  0  0  0
   55.6136  153.9686   23.4038 H   0  0  0  0  0  0  0  0  0  0  0  0
   55.6490  152.1500   25.1870 H   0  0  0  0  0  0  0  0  0  0  0  0
   52.3730  153.5060   30.0400 H   0  0  0  0  0  0  0  0  0  0  0  0
   52.7475  158.3824   28.8481 H   0  0  0  0  0  0  0  0  0  0  0  0
   52.5458  160.2551   29.8690 H   0  0  0  0  0  0  0  0  0  0  0  0
  1  2  1  0
  2  3  1  0
  3  4  2  0
  4  5  1  0
  5  6  2  0
  6  7  1  0
  7  8  1  0
  8  9  1  0
  9 10  2  0
 10 11  1  0
 11 12  2  0
 12 13  1  0
 13 14  1  0
 13 15  2  0
 15 16  1  0
 16 17  2  0
 16 18  1  0
 18 19  1  0
  6 20  1  0
 20 21  2  0
 21 22  1  0
 22 23  1  0
 22 24  1  0
 21  3  1  0
 18  7  2  0
 15  9  1  0
  1 25  1  0
  1 26  1  0
  1 27  1  0
  2 28  1  0
  2 29  1  0
  4 30  1  0
  5 31  1  0
 10 32  1  0
 11 33  1  0
 12 34  1  0
 14 35  1  0
 19 36  1  0
 20 37  1  0
 22 38  1  0
M  END
>  <meeko>  (4) 
{"is_sidechain": [false], "free_energy": -10.029, "intermolecular_energy": -12.527, "internal_energy": -0.227}

$$$$
cand_030_out
     RDKit          3D

 38 40  0  0  0  0  0  0  0  0999 V2000
   52.3120  151.7070   26.4310 C   0  0  0  0  0  0  0  0  0  0  0  0
   53.3940  152.7300   26.7420 C   0  0  0  0  0  0  0  0  0  0  0  0
   52.8330  153.9640   27.4170 C   0  0  0  0  0  0  0  0  0  0  0  0
   52.1670  153.8040   28.6440 C   0  0  0  0  0  0  0  0  0  0  0  0
   51.6210  154.9000   29.3160 C   0  0  0  0  0  0  0  0  0  0  0  0
   51.7280  156.1880   28.7830 C   0  0  0  0  0  0  0  0  0  0  0  0
   51.1280  157.3330   29.4980 C   0  0  0  0  0  0  0  0  0  0  0  0
   52.0320  158.3640   29.7250 O   0  0  0  0  0  0  0  0  0  0  0  0
   51.6030  159.4880   30.3850 C   0  0  0  0  0  0  0  0  0  0  0  0
   52.5470  160.4900   30.6070 C   0  0  0  0  0  0  0  0  0  0  0  0
   52.1750  161.6620   31.2710 C   0  0  0  0  0  0  0  0  0  0  0  0
   50.8610  161.8300   31.7120 C   0  0  0  0  0  0  0  0  0  0  0  0
   49.9200  160.8270   31.4890 C   0  0  0  0  0  0  0  0  0  0  0  0
   48.6520  161.0570   31.9470 O   0  0  0  0  0  0  0  0  0  0  0  0
   50.2940  159.6550   30.8260 C   0  0  0  0  0  0  0  0  0  0  0  0
   49.3360  158.5770   30.5710 C   0  0  0  0  0  0  0  0  0  0  0  0
   48.1610  158.6520   30.9210 O   0  0  0  0  0  0  0  0  0  0  0  0
   49.8340  157.3730   29.8670 C   0  0  0  0  0  0  0  0  0  0  0  0
   48.9220  156.3640   29.6190 O   0  0  0  0  0  0  0  0  0  0  0  0
   52.3760  156.3480   27.5500 C   0  0  0  0  0  0  0  0  0  0  0  0
   52.9290  155.2530   26.8540 C   0  0  0  0  0  0  0  0  0  0  0  0
   53.6420  155.5130   25.5450 C   0  0  0  0  0  0  0  0  0  0  0  0
   52.9290  155.1070   24.4570 F   0  0  0  0  0  0  0  0  0  0  0  0
   53.9130  156.8310   25.3240 F   0  0  0  0  0  0  0  0  0  0  0  0
   51.8971  151.3147   27.3712 H   0  0  0  0  0  0  0  0  0  0  0  0
   51.5112  152.1859   25.8484 H   0  0  0  0  0  0  0  0  0  0  0  0
   52.7453  150.8806   25.8484 H   0  0  0  0  0  0  0  0  0  0  0  0
   54.1379  152.2684   27.4080 H   0  0  0  0  0  0  0  0  0  0  0  0
   53.8497  153.0415   25.7905 H   0  0  0  0  0  0  0  0  0  0  0  0
   52.0742  152.7994   29.0823 H   0  0  0  0  0  0  0  0  0  0  0  0
   51.1018  154.7482   30.2738 H   0  0  0  0  0  0  0  0  0  0  0  0
   53.5825  160.3582   30.2601 H   0  0  0  0  0  0  0  0  0  0  0  0
   52.9186  162.4534   31.4465 H   0  0  0  0  0  0  0  0  0  0  0  0
   50.5691  162.7528   32.2347 H   0  0  0  0  0  0  0  0  0  0  0  0
   48.3180  160.5630   32.6690 H   0  0  0  0  0  0  0  0  0  0  0  0
   48.0080  156.5130   29.7660 H   0  0  0  0  0  0  0  0  0  0  0  0
   52.4552  157.3547   27.1137 H   0  0  0  0  0  0  0  0  0  0  0  0
   54.5703  154.9334   25.6563 H   0  0  0  0  0  0  0  0  0  0  0  0
  1  2  1  0
  2  3  1  0
  3  4  2  0
  4  5  1  0
  5  6  2  0
  6  7  1  0
  7  8  1  0
  8  9  1  0
  9 10  2  0
 10 11  1  0
 11 12  2  0
 12 13  1  0
 13 14  1  0
 13 15  2  0
 15 16  1  0
 16 17  2  0
 16 18  1  0
 18 19  1  0
  6 20  1  0
 20 21  2  0
 21 22  1  0
 22 23  1  0
 22 24  1  0
 21  3  1  0
 18  7  2  0
 15  9  1  0
  1 25  1  0
  1 26  1  0
  1 27  1  0
  2 28  1  0
  2 29  1  0
  4 30  1  0
  5 31  1  0
 10 32  1  0
 11 33  1  0
 12 34  1  0
 14 35  1  0
 19 36  1  0
 20 37  1  0
 22 38  1  0
M  END
>  <meeko>  (5) 
{"is_sidechain": [false], "free_energy": -9.312, "intermolecular_energy": -11.394, "internal_energy": -0.475}

$$$$
cand_030_out
     RDKit          3D

 38 40  0  0  0  0  0  0  0  0999 V2000
   53.3710  154.4840   24.7310 C   0  0  0  0  0  0  0  0  0  0  0  0
   53.4640  154.0560   26.1880 C   0  0  0  0  0  0  0  0  0  0  0  0
   52.9070  155.1050   27.1260 C   0  0  0  0  0  0  0  0  0  0  0  0
   53.0120  156.4550   26.7490 C   0  0  0  0  0  0  0  0  0  0  0  0
   52.5240  157.4730   27.5710 C   0  0  0  0  0  0  0  0  0  0  0  0
   51.9130  157.1720   28.7920 C   0  0  0  0  0  0  0  0  0  0  0  0
   51.4200  158.2630   29.6570 C   0  0  0  0  0  0  0  0  0  0  0  0
   50.0820  158.1140   30.0070 O   0  0  0  0  0  0  0  0  0  0  0  0
   49.4980  159.0640   30.8070 C   0  0  0  0  0  0  0  0  0  0  0  0
   48.1500  158.8840   31.1190 C   0  0  0  0  0  0  0  0  0  0  0  0
   47.4950  159.8130   31.9310 C   0  0  0  0  0  0  0  0  0  0  0  0
   48.1860  160.9190   32.4310 C   0  0  0  0  0  0  0  0  0  0  0  0
   49.5320  161.0950   32.1170 C   0  0  0  0  0  0  0  0  0  0  0  0
   50.1480  162.1980   32.6390 O   0  0  0  0  0  0  0  0  0  0  0  0
   50.1860  160.1660   31.3030 C   0  0  0  0  0  0  0  0  0  0  0  0
   51.6000  160.3140   30.9500 C   0  0  0  0  0  0  0  0  0  0  0  0
   52.2780  161.2540   31.3550 O   0  0  0  0  0  0  0  0  0  0  0  0
   52.1980  159.2780   30.0750 C   0  0  0  0  0  0  0  0  0  0  0  0
   53.5360  159.4180   29.7560 O   0  0  0  0  0  0  0  0  0  0  0  0
   51.8230  155.8280   29.1790 C   0  0  0  0  0  0  0  0  0  0  0  0
   52.3150  154.7860   28.3650 C   0  0  0  0  0  0  0  0  0  0  0  0
   52.1500  153.3580   28.8390 C   0  0  0  0  0  0  0  0  0  0  0  0
   51.5390  153.2620   30.0520 F   0  0  0  0  0  0  0  0  0  0  0  0
   51.4010  152.5880   27.9980 F   0  0  0  0  0  0  0  0  0  0  0  0
   53.1377  155.5577   24.6784 H   0  0  0  0  0  0  0  0  0  0  0  0
   54.3317  154.2926   24.2306 H   0  0  0  0  0  0  0  0  0  0  0  0
   52.5764  153.9112   24.2306 H   0  0  0  0  0  0  0  0  0  0  0  0
   52.8956  153.1237   26.3208 H   0  0  0  0  0  0  0  0  0  0  0  0
   54.5271  153.9134   26.4320 H   0  0  0  0  0  0  0  0  0  0  0  0
   53.4863  156.7139   25.7909 H   0  0  0  0  0  0  0  0  0  0  0  0
   52.6213  158.5221   27.2547 H   0  0  0  0  0  0  0  0  0  0  0  0
   47.6046  158.0130   30.7267 H   0  0  0  0  0  0  0  0  0  0  0  0
   46.4321  159.6731   32.1773 H   0  0  0  0  0  0  0  0  0  0  0  0
   47.6690  161.6492   33.0710 H   0  0  0  0  0  0  0  0  0  0  0  0
   49.6910  162.7480   33.2430 H   0  0  0  0  0  0  0  0  0  0  0  0
   53.9780  158.7370   29.2870 H   0  0  0  0  0  0  0  0  0  0  0  0
   51.3562  155.5789   30.1434 H   0  0  0  0  0  0  0  0  0  0  0  0
   53.1883  152.9976   28.8843 H   0  0  0  0  0  0  0  0  0  0  0  0
  1  2  1  0
  2  3  1  0
  3  4  2  0
  4  5  1  0
  5  6  2  0
  6  7  1  0
  7  8  1  0
  8  9  1  0
  9 10  2  0
 10 11  1  0
 11 12  2  0
 12 13  1  0
 13 14  1  0
 13 15  2  0
 15 16  1  0
 16 17  2  0
 16 18  1  0
 18 19  1  0
  6 20  1  0
 20 21  2  0
 21 22  1  0
 22 23  1  0
 22 24  1  0
 21  3  1  0
 18  7  2  0
 15  9  1  0
  1 25  1  0
  1 26  1  0
  1 27  1  0
  2 28  1  0
  2 29  1  0
  4 30  1  0
  5 31  1  0
 10 32  1  0
 11 33  1  0
 12 34  1  0
 14 35  1  0
 19 36  1  0
 20 37  1  0
 22 38  1  0
M  END
>  <meeko>  (6) 
{"is_sidechain": [false], "free_energy": -8.927, "intermolecular_energy": -11.012, "internal_energy": -0.382}

$$$$
cand_030_out
     RDKit          3D

 38 40  0  0  0  0  0  0  0  0999 V2000
   48.0550  159.1000   30.5760 C   0  0  0  0  0  0  0  0  0  0  0  0
   49.1920  158.3340   31.2370 C   0  0  0  0  0  0  0  0  0  0  0  0
   50.0220  157.5680   30.2300 C   0  0  0  0  0  0  0  0  0  0  0  0
   49.6010  156.2770   29.8680 C   0  0  0  0  0  0  0  0  0  0  0  0
   50.3250  155.5140   28.9490 C   0  0  0  0  0  0  0  0  0  0  0  0
   51.4890  156.0200   28.3620 C   0  0  0  0  0  0  0  0  0  0  0  0
   52.2520  155.1920   27.4060 C   0  0  0  0  0  0  0  0  0  0  0  0
   51.9290  153.8420   27.4810 O   0  0  0  0  0  0  0  0  0  0  0  0
   52.5700  152.9610   26.6460 C   0  0  0  0  0  0  0  0  0  0  0  0
   52.2280  151.6130   26.7670 C   0  0  0  0  0  0  0  0  0  0  0  0
   52.8420  150.6640   25.9460 C   0  0  0  0  0  0  0  0  0  0  0  0
   53.7950  151.0620   25.0050 C   0  0  0  0  0  0  0  0  0  0  0  0
   54.1330  152.4080   24.8880 C   0  0  0  0  0  0  0  0  0  0  0  0
   55.0730  152.7280   23.9470 O   0  0  0  0  0  0  0  0  0  0  0  0
   53.5200  153.3570   25.7110 C   0  0  0  0  0  0  0  0  0  0  0  0
   53.8480  154.7810   25.6190 C   0  0  0  0  0  0  0  0  0  0  0  0
   54.6690  155.2110   24.8130 O   0  0  0  0  0  0  0  0  0  0  0  0
   53.1470  155.7040   26.5410 C   0  0  0  0  0  0  0  0  0  0  0  0
   53.4520  157.0490   26.4410 O   0  0  0  0  0  0  0  0  0  0  0  0
   51.9200  157.3010   28.7350 C   0  0  0  0  0  0  0  0  0  0  0  0
   51.2070  158.0850   29.6650 C   0  0  0  0  0  0  0  0  0  0  0  0
   51.7200  159.4700   29.9900 C   0  0  0  0  0  0  0  0  0  0  0  0
   50.9310  160.4640   29.4970 F   0  0  0  0  0  0  0  0  0  0  0  0
   51.8120  159.7160   31.3290 F   0  0  0  0  0  0  0  0  0  0  0  0
   47.4075  159.5362   31.3509 H   0  0  0  0  0  0  0  0  0  0  0  0
   48.4697  159.9036   29.9497 H   0  0  0  0  0  0  0  0  0  0  0  0
   47.4660  158.4138   29.9497 H   0  0  0  0  0  0  0  0  0  0  0  0
   49.8425  159.0483   31.7630 H   0  0  0  0  0  0  0  0  0  0  0  0
   48.7507  157.6077   31.9354 H   0  0  0  0  0  0  0  0  0  0  0  0
   48.6865  155.8606   30.3156 H   0  0  0  0  0  0  0  0  0  0  0  0
   49.9761  154.5050   28.6843 H   0  0  0  0  0  0  0  0  0  0  0  0
   51.4770  151.2989   27.5068 H   0  0  0  0  0  0  0  0  0  0  0  0
   52.5746  149.6012   26.0406 H   0  0  0  0  0  0  0  0  0  0  0  0
   54.2771  150.3142   24.3582 H   0  0  0  0  0  0  0  0  0  0  0  0
   55.7880  152.1460   23.7820 H   0  0  0  0  0  0  0  0  0  0  0  0
   52.8910  157.6210   25.9540 H   0  0  0  0  0  0  0  0  0  0  0  0
   52.8406  157.7059   28.2894 H   0  0  0  0  0  0  0  0  0  0  0  0
   52.7136  159.4764   29.5181 H   0  0  0  0  0  0  0  0  0  0  0  0
  1  2  1  0
  2  3  1  0
  3  4  2  0
  4  5  1  0
  5  6  2  0
  6  7  1  0
  7  8  1  0
  8  9  1  0
  9 10  2  0
 10 11  1  0
 11 12  2  0
 12 13  1  0
 13 14  1  0
 13 15  2  0
 15 16  1  0
 16 17  2  0
 16 18  1  0
 18 19  1  0
  6 20  1  0
 20 21  2  0
 21 22  1  0
 22 23  1  0
 22 24  1  0
 21  3  1  0
 18  7  2  0
 15  9  1  0
  1 25  1  0
  1 26  1  0
  1 27  1  0
  2 28  1  0
  2 29  1  0
  4 30  1  0
  5 31  1  0
 10 32  1  0
 11 33  1  0
 12 34  1  0
 14 35  1  0
 19 36  1  0
 20 37  1  0
 22 38  1  0
M  END
>  <meeko>  (7) 
{"is_sidechain": [false], "free_energy": -8.74, "intermolecular_energy": -11.125, "internal_energy": -0.038}

$$$$
cand_030_out
     RDKit          3D

 38 40  0  0  0  0  0  0  0  0999 V2000
   54.9100  154.7560   24.5450 C   0  0  0  0  0  0  0  0  0  0  0  0
   53.9890  153.9490   25.4490 C   0  0  0  0  0  0  0  0  0  0  0  0
   53.2680  154.8230   26.4520 C   0  0  0  0  0  0  0  0  0  0  0  0
   53.4080  156.2170   26.3390 C   0  0  0  0  0  0  0  0  0  0  0  0
   52.7750  157.0800   27.2350 C   0  0  0  0  0  0  0  0  0  0  0  0
   51.9790  156.5770   28.2690 C   0  0  0  0  0  0  0  0  0  0  0  0
   51.3310  157.5040   29.2180 C   0  0  0  0  0  0  0  0  0  0  0  0
   52.0990  158.6310   29.4850 O   0  0  0  0  0  0  0  0  0  0  0  0
   51.6130  159.5730   30.3560 C   0  0  0  0  0  0  0  0  0  0  0  0
   52.4250  160.6800   30.6080 C   0  0  0  0  0  0  0  0  0  0  0  0
   51.9880  161.6770   31.4830 C   0  0  0  0  0  0  0  0  0  0  0  0
   50.7420  161.5690   32.1050 C   0  0  0  0  0  0  0  0  0  0  0  0
   49.9350  160.4620   31.8510 C   0  0  0  0  0  0  0  0  0  0  0  0
   48.7270  160.4190   32.4920 O   0  0  0  0  0  0  0  0  0  0  0  0
   50.3730  159.4640   30.9760 C   0  0  0  0  0  0  0  0  0  0  0  0
   49.5550  158.2860   30.6820 C   0  0  0  0  0  0  0  0  0  0  0  0
   48.4450  158.1210   31.1830 O   0  0  0  0  0  0  0  0  0  0  0  0
   50.1130  157.2820   29.7470 C   0  0  0  0  0  0  0  0  0  0  0  0
   49.3300  156.1780   29.4640 O   0  0  0  0  0  0  0  0  0  0  0  0
   51.8510  155.1860   28.3940 C   0  0  0  0  0  0  0  0  0  0  0  0
   52.4870  154.2980   27.5020 C   0  0  0  0  0  0  0  0  0  0  0  0
   52.2740  152.8110   27.6850 C   0  0  0  0  0  0  0  0  0  0  0  0
   51.5770  152.5040   28.8140 F   0  0  0  0  0  0  0  0  0  0  0  0
   51.5780  152.2310   26.6650 F   0  0  0  0  0  0  0  0  0  0  0  0
   55.5951  155.3563   25.1616 H   0  0  0  0  0  0  0  0  0  0  0  0
   55.4921  154.0719   23.9100 H   0  0  0  0  0  0  0  0  0  0  0  0
   54.3083  155.4230   23.9100 H   0  0  0  0  0  0  0  0  0  0  0  0
   53.2428  153.4338   24.8263 H   0  0  0  0  0  0  0  0  0  0  0  0
   54.6067  153.2305   26.0077 H   0  0  0  0  0  0  0  0  0  0  0  0
   54.0267  156.6348   25.5311 H   0  0  0  0  0  0  0  0  0  0  0  0
   52.9036  158.1671   27.1267 H   0  0  0  0  0  0  0  0  0  0  0  0
   53.4064  160.7669   30.1188 H   0  0  0  0  0  0  0  0  0  0  0  0
   52.6269  162.5498   31.6829 H   0  0  0  0  0  0  0  0  0  0  0  0
   50.3989  162.3555   32.7933 H   0  0  0  0  0  0  0  0  0  0  0  0
   48.6950  160.3860   33.4280 H   0  0  0  0  0  0  0  0  0  0  0  0
   49.7190  155.4120   29.0890 H   0  0  0  0  0  0  0  0  0  0  0  0
   51.2377  154.7764   29.2102 H   0  0  0  0  0  0  0  0  0  0  0  0
   53.3024  152.4235   27.7312 H   0  0  0  0  0  0  0  0  0  0  0  0
  1  2  1  0
  2  3  1  0
  3  4  2  0
  4  5  1  0
  5  6  2  0
  6  7  1  0
  7  8  1  0
  8  9  1  0
  9 10  2  0
 10 11  1  0
 11 12  2  0
 12 13  1  0
 13 14  1  0
 13 15  2  0
 15 16  1  0
 16 17  2  0
 16 18  1  0
 18 19  1  0
  6 20  1  0
 20 21  2  0
 21 22  1  0
 22 23  1  0
 22 24  1  0
 21  3  1  0
 18  7  2  0
 15  9  1  0
  1 25  1  0
  1 26  1  0
  1 27  1  0
  2 28  1  0
  2 29  1  0
  4 30  1  0
  5 31  1  0
 10 32  1  0
 11 33  1  0
 12 34  1  0
 14 35  1  0
 19 36  1  0
 20 37  1  0
 22 38  1  0
M  END
>  <meeko>  (8) 
{"is_sidechain": [false], "free_energy": -8.702, "intermolecular_energy": -10.898, "internal_energy": -0.219}

$$$$
cand_030_out
     RDKit          3D

 38 40  0  0  0  0  0  0  0  0999 V2000
   51.7960  160.6920   30.7920 C   0  0  0  0  0  0  0  0  0  0  0  0
   50.8980  159.4660   30.8780 C   0  0  0  0  0  0  0  0  0  0  0  0
   51.3350  158.3730   29.9270 C   0  0  0  0  0  0  0  0  0  0  0  0
   52.6140  158.4660   29.3530 C   0  0  0  0  0  0  0  0  0  0  0  0
   53.0770  157.4940   28.4630 C   0  0  0  0  0  0  0  0  0  0  0  0
   52.2760  156.3990   28.1230 C   0  0  0  0  0  0  0  0  0  0  0  0
   52.7750  155.3910   27.1660 C   0  0  0  0  0  0  0  0  0  0  0  0
   52.3350  154.1050   27.4550 O   0  0  0  0  0  0  0  0  0  0  0  0
   52.7300  153.0710   26.6430 C   0  0  0  0  0  0  0  0  0  0  0  0
   52.2790  151.7950   26.9800 C   0  0  0  0  0  0  0  0  0  0  0  0
   52.6420  150.6990   26.1940 C   0  0  0  0  0  0  0  0  0  0  0  0
   53.4550  150.8800   25.0720 C   0  0  0  0  0  0  0  0  0  0  0  0
   53.9030  152.1560   24.7390 C   0  0  0  0  0  0  0  0  0  0  0  0
   54.6940  152.2610   23.6280 O   0  0  0  0  0  0  0  0  0  0  0  0
   53.5400  153.2510   25.5270 C   0  0  0  0  0  0  0  0  0  0  0  0
   53.9890  154.6080   25.2110 C   0  0  0  0  0  0  0  0  0  0  0  0
   54.6990  154.8510   24.2380 O   0  0  0  0  0  0  0  0  0  0  0  0
   53.5550  155.7000   26.1140 C   0  0  0  0  0  0  0  0  0  0  0  0
   53.9730  156.9810   25.8020 O   0  0  0  0  0  0  0  0  0  0  0  0
   50.9930  156.3140   28.6810 C   0  0  0  0  0  0  0  0  0  0  0  0
   50.5050  157.2880   29.5770 C   0  0  0  0  0  0  0  0  0  0  0  0
   49.1210  157.1070   30.1610 C   0  0  0  0  0  0  0  0  0  0  0  0
   48.3130  158.1870   29.9700 F   0  0  0  0  0  0  0  0  0  0  0  0
   48.4400  156.0510   29.6310 F   0  0  0  0  0  0  0  0  0  0  0  0
   52.0469  161.0346   31.8067 H   0  0  0  0  0  0  0  0  0  0  0  0
   52.7196  160.4330   30.2536 H   0  0  0  0  0  0  0  0  0  0  0  0
   51.2704  161.4944   30.2536 H   0  0  0  0  0  0  0  0  0  0  0  0
   50.9286  159.0752   31.9058 H   0  0  0  0  0  0  0  0  0  0  0  0
   49.8792  159.7718   30.5977 H   0  0  0  0  0  0  0  0  0  0  0  0
   53.2612  159.3180   29.6086 H   0  0  0  0  0  0  0  0  0  0  0  0
   54.0815  157.5907   28.0252 H   0  0  0  0  0  0  0  0  0  0  0  0
   51.6387  151.6521   27.8630 H   0  0  0  0  0  0  0  0  0  0  0  0
   52.2874  149.6919   26.4586 H   0  0  0  0  0  0  0  0  0  0  0  0
   53.7405  150.0166   24.4531 H   0  0  0  0  0  0  0  0  0  0  0  0
   55.4380  151.7010   23.5280 H   0  0  0  0  0  0  0  0  0  0  0  0
   54.8770  157.2120   25.8910 H   0  0  0  0  0  0  0  0  0  0  0  0
   50.3486  155.4639   28.4126 H   0  0  0  0  0  0  0  0  0  0  0  0
   49.3286  156.9458   31.2291 H   0  0  0  0  0  0  0  0  0  0  0  0
  1  2  1  0
  2  3  1  0
  3  4  2  0
  4  5  1  0
  5  6  2  0
  6  7  1  0
  7  8  1  0
  8  9  1  0
  9 10  2  0
 10 11  1  0
 11 12  2  0
 12 13  1  0
 13 14  1  0
 13 15  2  0
 15 16  1  0
 16 17  2  0
 16 18  1  0
 18 19  1  0
  6 20  1  0
 20 21  2  0
 21 22  1  0
 22 23  1  0
 22 24  1  0
 21  3  1  0
 18  7  2  0
 15  9  1  0
  1 25  1  0
  1 26  1  0
  1 27  1  0
  2 28  1  0
  2 29  1  0
  4 30  1  0
  5 31  1  0
 10 32  1  0
 11 33  1  0
 12 34  1  0
 14 35  1  0
 19 36  1  0
 20 37  1  0
 22 38  1  0
M  END
>  <meeko>  (9) 
{"is_sidechain": [false], "free_energy": -8.122, "intermolecular_energy": -10.329, "internal_energy": -0.072}

$$$$
