cand_015_out
     RDKit          3D

 36 38  0  0  0  0  0  0  0  0999 V2000
   49.3370  160.7840   33.1400 C   0  0  0  0  0  0  0  0  0  0  0  0
   49.4240  160.7760   31.8060 C   0  0  0  0  0  0  0  0  0  0  0  0
   48.8940  161.8210   31.1320 F   0  0  0  0  0  0  0  0  0  0  0  0
   50.0270  159.6900   31.0140 C   0  0  0  0  0  0  0  0  0  0  0  0
   49.3100  158.4970   30.8120 C   0  0  0  0  0  0  0  0  0  0  0  0
   49.8600  157.4340   30.0880 C   0  0  0  0  0  0  0  0  0  0  0  0
   51.1440  157.5300   29.5440 C   0  0  0  0  0  0  0  0  0  0  0  0
   51.7610  156.4100   28.8020 C   0  0  0  0  0  0  0  0  0  0  0  0
   52.3050  156.8020   27.5850 O   0  0  0  0  0  0  0  0  0  0  0  0
   52.9090  155.8600   26.7940 C   0  0  0  0  0  0  0  0  0  0  0  0
   53.4550  156.3010   25.5870 C   0  0  0  0  0  0  0  0  0  0  0  0
   54.0830  155.3910   24.7330 C   0  0  0  0  0  0  0  0  0  0  0  0
   54.1660  154.0430   25.0850 C   0  0  0  0  0  0  0  0  0  0  0  0
   53.6220  153.6060   26.2900 C   0  0  0  0  0  0  0  0  0  0  0  0
   53.7380  152.2720   26.5730 O   0  0  0  0  0  0  0  0  0  0  0  0
   52.9930  154.5160   27.1440 C   0  0  0  0  0  0  0  0  0  0  0  0
   52.4080  154.0980   28.4190 C   0  0  0  0  0  0  0  0  0  0  0  0
   52.4340  152.9290   28.7960 O   0  0  0  0  0  0  0  0  0  0  0  0
   51.7710  155.1430   29.2540 C   0  0  0  0  0  0  0  0  0  0  0  0
   51.2100  154.7350   30.4510 O   0  0  0  0  0  0  0  0  0  0  0  0
   51.8690  158.7110   29.7590 C   0  0  0  0  0  0  0  0  0  0  0  0
   51.3270  159.7960   30.4770 C   0  0  0  0  0  0  0  0  0  0  0  0
   52.1700  161.0290   30.6630 C   0  0  0  0  0  0  0  0  0  0  0  0
   49.7565  159.9512   33.7235 H   0  0  0  0  0  0  0  0  0  0  0  0
   48.8459  161.6234   33.6541 H   0  0  0  0  0  0  0  0  0  0  0  0
   48.2978  158.3980   31.2312 H   0  0  0  0  0  0  0  0  0  0  0  0
   49.2759  156.5129   29.9453 H   0  0  0  0  0  0  0  0  0  0  0  0
   53.3908  157.3633   25.3089 H   0  0  0  0  0  0  0  0  0  0  0  0
   54.5128  155.7375   23.7816 H   0  0  0  0  0  0  0  0  0  0  0  0
   54.6602  153.3271   24.4118 H   0  0  0  0  0  0  0  0  0  0  0  0
   52.9780  151.7750   26.8040 H   0  0  0  0  0  0  0  0  0  0  0  0
   51.1300  155.3410   31.1620 H   0  0  0  0  0  0  0  0  0  0  0  0
   52.8892  158.7929   29.3560 H   0  0  0  0  0  0  0  0  0  0  0  0
   52.3030  161.2236   31.7375 H   0  0  0  0  0  0  0  0  0  0  0  0
   53.1529  160.8754   30.1937 H   0  0  0  0  0  0  0  0  0  0  0  0
   51.6701  161.8892   30.1937 H   0  0  0  0  0  0  0  0  0  0  0  0
  1  2  2  0
  2  3  1  0
  2  4  1  0
  4  5  2  0
  5  6  1  0
  6  7  2  0
  7  8  1  0
  8  9  1  0
  9 10  1  0
 10 11  2  0
 11 12  1  0
 12 13  2  0
 13 14  1  0
 14 15  1  0
 14 16  2  0
 16 17  1  0
 17 18  2  0
 17 19  1  0
 19 20  1  0
  7 21  1  0
 21 22  2  0
 22 23  1  0
 22  4  1  0
 19  8  2  0
 16 10  1  0
  1 24  1  0
  1 25  1  0
  5 26  1  0
  6 27  1  0
 11 28  1  0
 12 29  1  0
 13 30  1  0
 15 31  1  0
 20 32  1  0
 21 33  1  0
 23 34  1  0
 23 35  1  0
 23 36  1  0
M  END
>  <meeko>  (1) 
{"is_sidechain": [false], "free_energy": -11.193, "intermolecular_energy": -13.156, "internal_energy": -0.313}

$$$$
cand_015_out
     RDKit          3D

 36 38  0  0  0  0  0  0  0  0999 V2000
   50.1610  161.5160   32.8400 C   0  0  0  0  0  0  0  0  0  0  0  0
   49.8180  161.1410   31.6040 C   0  0  0  0  0  0  0  0  0  0  0  0
   48.9090  161.8950   30.9450 F   0  0  0  0  0  0  0  0  0  0  0  0
   50.3340  159.9440   30.9190 C   0  0  0  0  0  0  0  0  0  0  0  0
   51.6360  159.9550   30.3870 C   0  0  0  0  0  0  0  0  0  0  0  0
   52.1510  158.8460   29.7060 C   0  0  0  0  0  0  0  0  0  0  0  0
   51.3810  157.6930   29.5360 C   0  0  0  0  0  0  0  0  0  0  0  0
   51.8900  156.5200   28.7950 C   0  0  0  0  0  0  0  0  0  0  0  0
   52.4720  156.8590   27.5790 O   0  0  0  0  0  0  0  0  0  0  0  0
   52.9850  155.8630   26.7890 C   0  0  0  0  0  0  0  0  0  0  0  0
   53.5740  156.2510   25.5830 C   0  0  0  0  0  0  0  0  0  0  0  0
   54.1140  155.2860   24.7300 C   0  0  0  0  0  0  0  0  0  0  0  0
   54.0660  153.9350   25.0820 C   0  0  0  0  0  0  0  0  0  0  0  0
   53.4790  153.5510   26.2840 C   0  0  0  0  0  0  0  0  0  0  0  0
   53.4660  152.2130   26.5670 O   0  0  0  0  0  0  0  0  0  0  0  0
   52.9390  154.5180   27.1380 C   0  0  0  0  0  0  0  0  0  0  0  0
   52.3130  154.1570   28.4110 C   0  0  0  0  0  0  0  0  0  0  0  0
   52.2260  152.9900   28.7870 O   0  0  0  0  0  0  0  0  0  0  0  0
   51.7770  155.2570   29.2460 C   0  0  0  0  0  0  0  0  0  0  0  0
   51.1760  154.9050   30.4410 O   0  0  0  0  0  0  0  0  0  0  0  0
   50.0750  157.6840   30.0500 C   0  0  0  0  0  0  0  0  0  0  0  0
   49.5440  158.7880   30.7470 C   0  0  0  0  0  0  0  0  0  0  0  0
   48.1340  158.7000   31.2670 C   0  0  0  0  0  0  0  0  0  0  0  0
   50.8971  160.9287   33.4086 H   0  0  0  0  0  0  0  0  0  0  0  0
   49.7072  162.4119   33.2888 H   0  0  0  0  0  0  0  0  0  0  0  0
   52.2611  160.8519   30.5084 H   0  0  0  0  0  0  0  0  0  0  0  0
   53.1728  158.8827   29.3004 H   0  0  0  0  0  0  0  0  0  0  0  0
   53.6124  157.3148   25.3058 H   0  0  0  0  0  0  0  0  0  0  0  0
   54.5776  155.5901   23.7799 H   0  0  0  0  0  0  0  0  0  0  0  0
   54.4917  153.1755   24.4098 H   0  0  0  0  0  0  0  0  0  0  0  0
   53.0010  151.8970   27.3160 H   0  0  0  0  0  0  0  0  0  0  0  0
   51.3520  154.0680   30.8250 H   0  0  0  0  0  0  0  0  0  0  0  0
   49.4489  156.7912   29.9050 H   0  0  0  0  0  0  0  0  0  0  0  0
   48.1481  158.7009   32.3669 H   0  0  0  0  0  0  0  0  0  0  0  0
   47.5559  159.5638   30.9070 H   0  0  0  0  0  0  0  0  0  0  0  0
   47.6677  157.7710   30.9070 H   0  0  0  0  0  0  0  0  0  0  0  0
  1  2  2  0
  2  3  1  0
  2  4  1  0
  4  5  2  0
  5  6  1  0
  6  7  2  0
  7  8  1  0
  8  9  1  0
  9 10  1  0
 10 11  2  0
 11 12  1  0
 12 13  2  0
 13 14  1  0
 14 15  1  0
 14 16  2  0
 16 17  1  0
 17 18  2  0
 17 19  1  0
 19 20  1  0
  7 21  1  0
 21 22  2  0
 22 23  1  0
 22  4  1  0
 19  8  2  0
 16 10  1  0
  1 24  1  0
  1 25  1  0
  5 26  1  0
  6 27  1  0
 11 28  1  0
 12 29  1  0
 13 30  1  0
 15 31  1  0
 20 32  1  0
 21 33  1  0
 23 34  1  0
 23 35  1  0
 23 36  1  0
M  END
>  <meeko>  (2) 
{"is_sidechain": [false], "free_energy": -11.032, "intermolecular_energy": -13.006, "internal_energy": -0.274}

$$$$
cand_015_out
     RDKit          3D

 36 38  0  0  0  0  0  0  0  0999 V2000
   52.2160  151.6810   26.2980 C   0  0  0  0  0  0  0  0  0  0  0  0
   53.0790  152.6420   26.6420 C   0  0  0  0  0  0  0  0  0  0  0  0
   54.3850  152.4510   26.3540 F   0  0  0  0  0  0  0  0  0  0  0  0
   52.7110  153.8830   27.3460 C   0  0  0  0  0  0  0  0  0  0  0  0
   52.0550  153.8090   28.5880 C   0  0  0  0  0  0  0  0  0  0  0  0
   51.6670  154.9660   29.2730 C   0  0  0  0  0  0  0  0  0  0  0  0
   51.9220  156.2310   28.7380 C   0  0  0  0  0  0  0  0  0  0  0  0
   51.4940  157.4680   29.4260 C   0  0  0  0  0  0  0  0  0  0  0  0
   50.1550  157.4450   29.7970 O   0  0  0  0  0  0  0  0  0  0  0  0
   49.6280  158.5320   30.4440 C   0  0  0  0  0  0  0  0  0  0  0  0
   48.2820  158.4600   30.8110 C   0  0  0  0  0  0  0  0  0  0  0  0
   47.6820  159.5350   31.4720 C   0  0  0  0  0  0  0  0  0  0  0  0
   48.4260  160.6790   31.7660 C   0  0  0  0  0  0  0  0  0  0  0  0
   49.7680  160.7480   31.4000 C   0  0  0  0  0  0  0  0  0  0  0  0
   50.4370  161.8980   31.7180 O   0  0  0  0  0  0  0  0  0  0  0  0
   50.3680  159.6720   30.7390 C   0  0  0  0  0  0  0  0  0  0  0  0
   51.7750  159.7040   30.3370 C   0  0  0  0  0  0  0  0  0  0  0  0
   52.4930  160.6770   30.5530 O   0  0  0  0  0  0  0  0  0  0  0  0
   52.3160  158.5100   29.6470 C   0  0  0  0  0  0  0  0  0  0  0  0
   53.6430  158.5550   29.2600 O   0  0  0  0  0  0  0  0  0  0  0  0
   52.5600  156.3090   27.4910 C   0  0  0  0  0  0  0  0  0  0  0  0
   52.9670  155.1550   26.7920 C   0  0  0  0  0  0  0  0  0  0  0  0
   53.6460  155.3230   25.4580 C   0  0  0  0  0  0  0  0  0  0  0  0
   51.1444  151.8003   26.5159 H   0  0  0  0  0  0  0  0  0  0  0  0
   52.5774  150.7708   25.7970 H   0  0  0  0  0  0  0  0  0  0  0  0
   51.8431  152.8238   29.0289 H   0  0  0  0  0  0  0  0  0  0  0  0
   51.1558  154.8784   30.2430 H   0  0  0  0  0  0  0  0  0  0  0  0
   47.6955  157.5586   30.5800 H   0  0  0  0  0  0  0  0  0  0  0  0
   46.6221  159.4797   31.7610 H   0  0  0  0  0  0  0  0  0  0  0  0
   47.9529  161.5250   32.2861 H   0  0  0  0  0  0  0  0  0  0  0  0
   50.1410  162.4310   32.4290 H   0  0  0  0  0  0  0  0  0  0  0  0
   54.3210  158.4140   29.8920 H   0  0  0  0  0  0  0  0  0  0  0  0
   52.7476  157.2977   27.0468 H   0  0  0  0  0  0  0  0  0  0  0  0
   54.7029  155.5845   25.6149 H   0  0  0  0  0  0  0  0  0  0  0  0
   53.5812  154.3817   24.8925 H   0  0  0  0  0  0  0  0  0  0  0  0
   53.1498  156.1254   24.8925 H   0  0  0  0  0  0  0  0  0  0  0  0
  1  2  2  0
  2  3  1  0
  2  4  1  0
  4  5  2  0
  5  6  1  0
  6  7  2  0
  7  8  1  0
  8  9  1  0
  9 10  1  0
 10 11  2  0
 11 12  1  0
 12 13  2  0
 13 14  1  0
 14 15  1  0
 14 16  2  0
 16 17  1  0
 17 18  2  0
 17 19  1  0
 19 20  1  0
  7 21  1  0
 21 22  2  0
 22 23  1  0
 22  4  1  0
 19  8  2  0
 16 10  1  0
  1 24  1  0
  1 25  1  0
  5 26  1  0
  6 27  1  0
 11 28  1  0
 12 29  1  0
 13 30  1  0
 15 31  1  0
 20 32  1  0
 21 33  1  0
 23 34  1  0
 23 35  1  0
 23 36  1  0
M  END
>  <meeko>  (3) 
{"is_sidechain": [false], "free_energy": -10.275, "intermolecular_energy": -12.152, "internal_energy": -0.238}

$$$$
cand_015_out
     RDKit          3D

 36 38  0  0  0  0  0  0  0  0999 V2000
   49.8690  160.8890   30.4170 C   0  0  0  0  0  0  0  0  0  0  0  0
   50.8910  160.0940   30.7510 C   0  0  0  0  0  0  0  0  0  0  0  0
   51.6840  160.4820   31.7750 F   0  0  0  0  0  0  0  0  0  0  0  0
   51.2370  158.8400   30.0590 C   0  0  0  0  0  0  0  0  0  0  0  0
   52.5060  158.6990   29.4710 C   0  0  0  0  0  0  0  0  0  0  0  0
   52.8600  157.5340   28.7820 C   0  0  0  0  0  0  0  0  0  0  0  0
   51.9570  156.4750   28.6590 C   0  0  0  0  0  0  0  0  0  0  0  0
   52.2950  155.2460   27.9110 C   0  0  0  0  0  0  0  0  0  0  0  0
   52.9580  155.5060   26.7160 O   0  0  0  0  0  0  0  0  0  0  0  0
   53.3300  154.4520   25.9220 C   0  0  0  0  0  0  0  0  0  0  0  0
   54.0060  154.7580   24.7390 C   0  0  0  0  0  0  0  0  0  0  0  0
   54.4110  153.7310   23.8830 C   0  0  0  0  0  0  0  0  0  0  0  0
   54.1410  152.4000   24.2090 C   0  0  0  0  0  0  0  0  0  0  0  0
   53.4670  152.0980   25.3900 C   0  0  0  0  0  0  0  0  0  0  0  0
   53.2350  150.7750   25.6480 O   0  0  0  0  0  0  0  0  0  0  0  0
   53.0620  153.1260   26.2460 C   0  0  0  0  0  0  0  0  0  0  0  0
   52.3520  152.8520   27.4970 C   0  0  0  0  0  0  0  0  0  0  0  0
   52.0710  151.7080   27.8490 O   0  0  0  0  0  0  0  0  0  0  0  0
   51.9730  154.0110   28.3360 C   0  0  0  0  0  0  0  0  0  0  0  0
   51.2900  153.7420   29.5090 O   0  0  0  0  0  0  0  0  0  0  0  0
   50.6840  156.6190   29.2300 C   0  0  0  0  0  0  0  0  0  0  0  0
   50.3130  157.7820   29.9350 C   0  0  0  0  0  0  0  0  0  0  0  0
   48.9260  157.8590   30.5170 C   0  0  0  0  0  0  0  0  0  0  0  0
   49.2012  160.6079   29.5894 H   0  0  0  0  0  0  0  0  0  0  0  0
   49.6961  161.8241   30.9699 H   0  0  0  0  0  0  0  0  0  0  0  0
   53.2339  159.5195   29.5541 H   0  0  0  0  0  0  0  0  0  0  0  0
   53.8604  157.4508   28.3321 H   0  0  0  0  0  0  0  0  0  0  0  0
   54.2192  155.8060   24.4816 H   0  0  0  0  0  0  0  0  0  0  0  0
   54.9434  153.9710   22.9508 H   0  0  0  0  0  0  0  0  0  0  0  0
   54.4600  151.5918   23.5344 H   0  0  0  0  0  0  0  0  0  0  0  0
   52.3640  150.4340   25.6020 H   0  0  0  0  0  0  0  0  0  0  0  0
   50.9570  152.8810   29.6700 H   0  0  0  0  0  0  0  0  0  0  0  0
   49.9551  155.8019   29.1248 H   0  0  0  0  0  0  0  0  0  0  0  0
   48.9885  157.8555   31.6152 H   0  0  0  0  0  0  0  0  0  0  0  0
   48.4380  158.7856   30.1804 H   0  0  0  0  0  0  0  0  0  0  0  0
   48.3385  156.9921   30.1804 H   0  0  0  0  0  0  0  0  0  0  0  0
  1  2  2  0
  2  3  1  0
  2  4  1  0
  4  5  2  0
  5  6  1  0
  6  7  2  0
  7  8  1  0
  8  9  1  0
  9 10  1  0
 10 11  2  0
 11 12  1  0
 12 13  2  0
 13 14  1  0
 14 15  1  0
 14 16  2  0
 16 17  1  0
 17 18  2  0
 17 19  1  0
 19 20  1  0
  7 21  1  0
 21 22  2  0
 22 23  1  0
 22  4  1  0
 19  8  2  0
 16 10  1  0
  1 24  1  0
  1 25  1  0
  5 26  1  0
  6 27  1  0
 11 28  1  0
 12 29  1  0
 13 30  1  0
 15 31  1  0
 20 32  1  0
 21 33  1  0
 23 34  1  0
 23 35  1  0
 23 36  1  0
M  END
>  <meeko>  (4) 
{"is_sidechain": [false], "free_energy": -9.741, "intermolecular_energy": -11.922, "internal_energy": 0.16}

$$$$
cand_015_out
     RDKit          3D

 36 38  0  0  0  0  0  0  0  0999 V2000
   52.7090  151.9550   25.9290 C   0  0  0  0  0  0  0  0  0  0  0  0
   53.4290  152.8510   26.6110 C   0  0  0  0  0  0  0  0  0  0  0  0
   54.7680  152.6770   26.6640 F   0  0  0  0  0  0  0  0  0  0  0  0
   52.8620  153.9990   27.3400 C   0  0  0  0  0  0  0  0  0  0  0  0
   52.1650  153.7830   28.5420 C   0  0  0  0  0  0  0  0  0  0  0  0
   51.5900  154.8450   29.2480 C   0  0  0  0  0  0  0  0  0  0  0  0
   51.6950  156.1550   28.7750 C   0  0  0  0  0  0  0  0  0  0  0  0
   51.0700  157.2920   29.4850 C   0  0  0  0  0  0  0  0  0  0  0  0
   51.9680  158.3170   29.7600 O   0  0  0  0  0  0  0  0  0  0  0  0
   51.5190  159.4330   30.4170 C   0  0  0  0  0  0  0  0  0  0  0  0
   52.4510  160.4440   30.6590 C   0  0  0  0  0  0  0  0  0  0  0  0
   52.0600  161.6080   31.3260 C   0  0  0  0  0  0  0  0  0  0  0  0
   50.7380  161.7600   31.7500 C   0  0  0  0  0  0  0  0  0  0  0  0
   49.8110  160.7510   31.5070 C   0  0  0  0  0  0  0  0  0  0  0  0
   48.5340  160.9650   31.9490 O   0  0  0  0  0  0  0  0  0  0  0  0
   50.2030  159.5870   30.8390 C   0  0  0  0  0  0  0  0  0  0  0  0
   49.2590  158.5020   30.5630 C   0  0  0  0  0  0  0  0  0  0  0  0
   48.0820  158.5590   30.9110 O   0  0  0  0  0  0  0  0  0  0  0  0
   49.7740  157.3150   29.8440 C   0  0  0  0  0  0  0  0  0  0  0  0
   48.8770  156.2900   29.6000 O   0  0  0  0  0  0  0  0  0  0  0  0
   52.3750  156.3730   27.5670 C   0  0  0  0  0  0  0  0  0  0  0  0
   52.9680  155.3170   26.8480 C   0  0  0  0  0  0  0  0  0  0  0  0
   53.6800  155.6340   25.5590 C   0  0  0  0  0  0  0  0  0  0  0  0
   51.6163  152.0628   25.8632 H   0  0  0  0  0  0  0  0  0  0  0  0
   53.2091  151.1098   25.4335 H   0  0  0  0  0  0  0  0  0  0  0  0
   52.0701  152.7598   28.9345 H   0  0  0  0  0  0  0  0  0  0  0  0
   51.0496  154.6464   30.1853 H   0  0  0  0  0  0  0  0  0  0  0  0
   53.4922  160.3243   30.3249 H   0  0  0  0  0  0  0  0  0  0  0  0
   52.7937  162.4049   31.5172 H   0  0  0  0  0  0  0  0  0  0  0  0
   50.4300  162.6760   32.2753 H   0  0  0  0  0  0  0  0  0  0  0  0
   48.3330  160.8800   32.8610 H   0  0  0  0  0  0  0  0  0  0  0  0
   49.1900  155.4180   29.4540 H   0  0  0  0  0  0  0  0  0  0  0  0
   52.4469  157.3966   27.1708 H   0  0  0  0  0  0  0  0  0  0  0  0
   54.6641  156.0721   25.7818 H   0  0  0  0  0  0  0  0  0  0  0  0
   53.8132  154.7102   24.9769 H   0  0  0  0  0  0  0  0  0  0  0  0
   53.0826  156.3512   24.9769 H   0  0  0  0  0  0  0  0  0  0  0  0
  1  2  2  0
  2  3  1  0
  2  4  1  0
  4  5  2  0
  5  6  1  0
  6  7  2  0
  7  8  1  0
  8  9  1  0
  9 10  1  0
 10 11  2  0
 11 12  1  0
 12 13  2  0
 13 14  1  0
 14 15  1  0
 14 16  2  0
 16 17  1  0
 17 18  2  0
 17 19  1  0
 19 20  1  0
  7 21  1  0
 21 22  2  0
 22 23  1  0
 22  4  1  0
 19  8  2  0
 16 10  1  0
  1 24  1  0
  1 25  1  0
  5 26  1  0
  6 27  1  0
 11 28  1  0
 12 29  1  0
 13 30  1  0
 15 31  1  0
 20 32  1  0
 21 33  1  0
 23 34  1  0
 23 35  1  0
 23 36  1  0
M  END
>  <meeko>  (5) 
{"is_sidechain": [false], "free_energy": -9.288, "intermolecular_energy": -10.87, "internal_energy": -0.36}

$$$$
