cand_044_out
     RDKit          3D

 41 43  0  0  0  0  0  0  0  0999 V2000
   48.7700  161.4670   33.7150 C   0  0  0  0  0  0  0  0  0  0  0  0
   50.0720  161.0790   33.0340 C   0  0  0  0  0  0  0  0  0  0  0  0
   49.9770  161.2360   31.5150 C   0  0  0  0  0  0  0  0  0  0  0  0
   50.4460  159.9940   30.7880 C   0  0  0  0  0  0  0  0  0  0  0  0
   51.7840  159.9390   30.3630 C   0  0  0  0  0  0  0  0  0  0  0  0
   52.2760  158.8290   29.6730 C   0  0  0  0  0  0  0  0  0  0  0  0
   51.4440  157.7470   29.3760 C   0  0  0  0  0  0  0  0  0  0  0  0
   51.9460  156.5490   28.6680 C   0  0  0  0  0  0  0  0  0  0  0  0
   52.5490  156.8540   27.4520 O   0  0  0  0  0  0  0  0  0  0  0  0
   53.0640  155.8340   26.6930 C   0  0  0  0  0  0  0  0  0  0  0  0
   53.6510  156.1840   25.4770 C   0  0  0  0  0  0  0  0  0  0  0  0
   54.1950  155.1940   24.6560 C   0  0  0  0  0  0  0  0  0  0  0  0
   54.1530  153.8560   25.0500 C   0  0  0  0  0  0  0  0  0  0  0  0
   53.5660  153.5090   26.2660 C   0  0  0  0  0  0  0  0  0  0  0  0
   53.5590  152.1800   26.5910 O   0  0  0  0  0  0  0  0  0  0  0  0
   53.0220  154.5000   27.0860 C   0  0  0  0  0  0  0  0  0  0  0  0
   52.3980  154.1790   28.3710 C   0  0  0  0  0  0  0  0  0  0  0  0
   52.3270  153.0260   28.7900 O   0  0  0  0  0  0  0  0  0  0  0  0
   51.8460  155.3020   29.1640 C   0  0  0  0  0  0  0  0  0  0  0  0
   51.2720  154.9880   30.3820 O   0  0  0  0  0  0  0  0  0  0  0  0
   50.1090  157.7970   29.8040 C   0  0  0  0  0  0  0  0  0  0  0  0
   49.5920  158.9090   30.5010 C   0  0  0  0  0  0  0  0  0  0  0  0
   48.1460  158.8840   30.9420 C   0  0  0  0  0  0  0  0  0  0  0  0
   47.9960  158.6760   32.2800 F   0  0  0  0  0  0  0  0  0  0  0  0
   47.4750  160.0430   30.6800 F   0  0  0  0  0  0  0  0  0  0  0  0
   48.9012  161.4279   34.8064 H   0  0  0  0  0  0  0  0  0  0  0  0
   48.4897  162.4877   33.4157 H   0  0  0  0  0  0  0  0  0  0  0  0
   47.9767  160.7662   33.4157 H   0  0  0  0  0  0  0  0  0  0  0  0
   50.8789  161.7248   33.4106 H   0  0  0  0  0  0  0  0  0  0  0  0
   50.2791  160.0226   33.2602 H   0  0  0  0  0  0  0  0  0  0  0  0
   48.9296  161.4330   31.2428 H   0  0  0  0  0  0  0  0  0  0  0  0
   50.6283  162.0711   31.2175 H   0  0  0  0  0  0  0  0  0  0  0  0
   52.4549  160.7840   30.5772 H   0  0  0  0  0  0  0  0  0  0  0  0
   53.3303  158.8065   29.3600 H   0  0  0  0  0  0  0  0  0  0  0  0
   53.6853  157.2383   25.1652 H   0  0  0  0  0  0  0  0  0  0  0  0
   54.6576  155.4694   23.6967 H   0  0  0  0  0  0  0  0  0  0  0  0
   54.5820  153.0769   24.4027 H   0  0  0  0  0  0  0  0  0  0  0  0
   54.1880  151.8430   27.1990 H   0  0  0  0  0  0  0  0  0  0  0  0
   51.1480  155.6550   31.0270 H   0  0  0  0  0  0  0  0  0  0  0  0
   49.4468  156.9451   29.5901 H   0  0  0  0  0  0  0  0  0  0  0  0
   47.7309  158.0491   30.3584 H   0  0  0  0  0  0  0  0  0  0  0  0
  1  2  1  0
  2  3  1  0
  3  4  1  0
  4  5  2  0
  5  6  1  0
  6  7  2  0
  7  8  1  0
  8  9  1  0
  9 10  1  0
 10 11  2  0
 11 12  1  0
 12 13  2  0
 13 14  1  0
 14 15  1  0
 14 16  2  0
 16 17  1  0
 17 18  2  0
 17 19  1  0
 19 20  1  0
  7 21  1  0
 21 22  2  0
 22 23  1  0
 23 24  1  0
 23 25  1  0
 22  4  1  0
 19  8  2  0
 16 10  1  0
  1 26  1  0
  1 27  1  0
  1 28  1  0
  2 29  1  0
  2 30  1  0
  3 31  1  0
  3 32  1  0
  5 33  1  0
  6 34  1  0
 11 35  1  0
 12 36  1  0
 13 37  1  0
 15 38  1  0
 20 39  1  0
 21 40  1  0
 23 41  1  0
M  END
>  <meeko>  (1) 
{"is_sidechain": [false], "free_energy": -10.884, "intermolecular_energy": -14.066, "internal_energy": -0.537}

$$$$
cand_044_out
     RDKit          3D

 41 43  0  0  0  0  0  0  0  0999 V2000
   48.9000  161.5280   33.8660 C   0  0  0  0  0  0  0  0  0  0  0  0
   49.2720  160.2890   33.0670 C   0  0  0  0  0  0  0  0  0  0  0  0
   49.3380  160.5890   31.5680 C   0  0  0  0  0  0  0  0  0  0  0  0
   50.0240  159.4790   30.8000 C   0  0  0  0  0  0  0  0  0  0  0  0
   49.2870  158.3190   30.5100 C   0  0  0  0  0  0  0  0  0  0  0  0
   49.8650  157.2520   29.8200 C   0  0  0  0  0  0  0  0  0  0  0  0
   51.2000  157.3060   29.4100 C   0  0  0  0  0  0  0  0  0  0  0  0
   51.8300  156.2010   28.6560 C   0  0  0  0  0  0  0  0  0  0  0  0
   52.3730  156.6140   27.4440 O   0  0  0  0  0  0  0  0  0  0  0  0
   52.9950  155.6890   26.6460 C   0  0  0  0  0  0  0  0  0  0  0  0
   53.5160  156.1460   25.4350 C   0  0  0  0  0  0  0  0  0  0  0  0
   54.1630  155.2550   24.5750 C   0  0  0  0  0  0  0  0  0  0  0  0
   54.2870  153.9100   24.9240 C   0  0  0  0  0  0  0  0  0  0  0  0
   53.7660  153.4560   26.1340 C   0  0  0  0  0  0  0  0  0  0  0  0
   53.9240  152.1270   26.4150 O   0  0  0  0  0  0  0  0  0  0  0  0
   53.1200  154.3480   26.9940 C   0  0  0  0  0  0  0  0  0  0  0  0
   52.5590  153.9140   28.2740 C   0  0  0  0  0  0  0  0  0  0  0  0
   52.6340  152.7470   28.6560 O   0  0  0  0  0  0  0  0  0  0  0  0
   51.8890  154.9360   29.1110 C   0  0  0  0  0  0  0  0  0  0  0  0
   51.3770  154.5170   30.3250 O   0  0  0  0  0  0  0  0  0  0  0  0
   51.9360  158.4670   29.6940 C   0  0  0  0  0  0  0  0  0  0  0  0
   51.3710  159.5550   30.3920 C   0  0  0  0  0  0  0  0  0  0  0  0
   52.2240  160.7760   30.6480 C   0  0  0  0  0  0  0  0  0  0  0  0
   51.7800  161.8880   29.9960 F   0  0  0  0  0  0  0  0  0  0  0  0
   52.2870  161.1310   31.9640 F   0  0  0  0  0  0  0  0  0  0  0  0
   48.9670  161.3048   34.9410 H   0  0  0  0  0  0  0  0  0  0  0  0
   49.5921  162.3460   33.6175 H   0  0  0  0  0  0  0  0  0  0  0  0
   47.8717  161.8295   33.6175 H   0  0  0  0  0  0  0  0  0  0  0  0
   50.2553  159.9284   33.4033 H   0  0  0  0  0  0  0  0  0  0  0  0
   48.4979  159.5253   33.2330 H   0  0  0  0  0  0  0  0  0  0  0  0
   48.3142  160.7074   31.1836 H   0  0  0  0  0  0  0  0  0  0  0  0
   49.9223  161.5107   31.4301 H   0  0  0  0  0  0  0  0  0  0  0  0
   48.2374  158.2502   30.8318 H   0  0  0  0  0  0  0  0  0  0  0  0
   49.2631  156.3588   29.5965 H   0  0  0  0  0  0  0  0  0  0  0  0
   53.4175  157.2059   25.1578 H   0  0  0  0  0  0  0  0  0  0  0  0
   54.5754  155.6148   23.6208 H   0  0  0  0  0  0  0  0  0  0  0  0
   54.7951  153.2092   24.2453 H   0  0  0  0  0  0  0  0  0  0  0  0
   53.4170  151.7290   27.0970 H   0  0  0  0  0  0  0  0  0  0  0  0
   50.8870  155.1110   30.8580 H   0  0  0  0  0  0  0  0  0  0  0  0
   52.9831  158.5303   29.3629 H   0  0  0  0  0  0  0  0  0  0  0  0
   53.2111  160.4627   30.2774 H   0  0  0  0  0  0  0  0  0  0  0  0
  1  2  1  0
  2  3  1  0
  3  4  1  0
  4  5  2  0
  5  6  1  0
  6  7  2  0
  7  8  1  0
  8  9  1  0
  9 10  1  0
 10 11  2  0
 11 12  1  0
 12 13  2  0
 13 14  1  0
 14 15  1  0
 14 16  2  0
 16 17  1  0
 17 18  2  0
 17 19  1  0
 19 20  1  0
  7 21  1  0
 21 22  2  0
 22 23  1  0
 23 24  1  0
 23 25  1  0
 22  4  1  0
 19  8  2  0
 16 10  1  0
  1 26  1  0
  1 27  1  0
  1 28  1  0
  2 29  1  0
  2 30  1  0
  3 31  1  0
  3 32  1  0
  5 33  1  0
  6 34  1  0
 11 35  1  0
 12 36  1  0
 13 37  1  0
 15 38  1  0
 20 39  1  0
 21 40  1  0
 23 41  1  0
M  END
>  <meeko>  (2) 
{"is_sidechain": [false], "free_energy": -10.756, "intermolecular_energy": -13.872, "internal_energy": -0.565}

$$$$
cand_044_out
     RDKit          3D

 41 43  0  0  0  0  0  0  0  0999 V2000
   54.4530  151.7230   24.9930 C   0  0  0  0  0  0  0  0  0  0  0  0
   54.2560  152.5080   26.2800 C   0  0  0  0  0  0  0  0  0  0  0  0
   52.7750  152.6090   26.6510 C   0  0  0  0  0  0  0  0  0  0  0  0
   52.4530  153.9190   27.3380 C   0  0  0  0  0  0  0  0  0  0  0  0
   51.8800  153.8740   28.6190 C   0  0  0  0  0  0  0  0  0  0  0  0
   51.5430  155.0450   29.3000 C   0  0  0  0  0  0  0  0  0  0  0  0
   51.7580  156.2970   28.7170 C   0  0  0  0  0  0  0  0  0  0  0  0
   51.4340  157.5540   29.4250 C   0  0  0  0  0  0  0  0  0  0  0  0
   50.1180  157.5960   29.8750 O   0  0  0  0  0  0  0  0  0  0  0  0
   49.6850  158.7060   30.5540 C   0  0  0  0  0  0  0  0  0  0  0  0
   48.3550  158.7100   30.9780 C   0  0  0  0  0  0  0  0  0  0  0  0
   47.8500  159.8090   31.6760 C   0  0  0  0  0  0  0  0  0  0  0  0
   48.6730  160.9020   31.9500 C   0  0  0  0  0  0  0  0  0  0  0  0
   50.0000  160.8950   31.5270 C   0  0  0  0  0  0  0  0  0  0  0  0
   50.7510  161.9980   31.8300 O   0  0  0  0  0  0  0  0  0  0  0  0
   50.5040  159.7960   30.8290 C   0  0  0  0  0  0  0  0  0  0  0  0
   51.8930  159.7470   30.3670 C   0  0  0  0  0  0  0  0  0  0  0  0
   52.6810  160.6680   30.5750 O   0  0  0  0  0  0  0  0  0  0  0  0
   52.3280  158.5380   29.6310 C   0  0  0  0  0  0  0  0  0  0  0  0
   53.6460  158.4970   29.2130 O   0  0  0  0  0  0  0  0  0  0  0  0
   52.3360  156.3440   27.4390 C   0  0  0  0  0  0  0  0  0  0  0  0
   52.6810  155.1730   26.7340 C   0  0  0  0  0  0  0  0  0  0  0  0
   53.3130  155.3050   25.3670 C   0  0  0  0  0  0  0  0  0  0  0  0
   52.5680  154.7470   24.3730 F   0  0  0  0  0  0  0  0  0  0  0  0
   53.5150  156.6000   24.9830 F   0  0  0  0  0  0  0  0  0  0  0  0
   54.7142  150.6822   25.2347 H   0  0  0  0  0  0  0  0  0  0  0  0
   53.5225  151.7408   24.4066 H   0  0  0  0  0  0  0  0  0  0  0  0
   55.2648  152.1781   24.4066 H   0  0  0  0  0  0  0  0  0  0  0  0
   54.7952  152.0017   27.0942 H   0  0  0  0  0  0  0  0  0  0  0  0
   54.6450  153.5256   26.1279 H   0  0  0  0  0  0  0  0  0  0  0  0
   52.1726  152.5309   25.7339 H   0  0  0  0  0  0  0  0  0  0  0  0
   52.5421  151.7917   27.3494 H   0  0  0  0  0  0  0  0  0  0  0  0
   51.6935  152.8995   29.0940 H   0  0  0  0  0  0  0  0  0  0  0  0
   51.1035  154.9818   30.3064 H   0  0  0  0  0  0  0  0  0  0  0  0
   47.7057  157.8486   30.7626 H   0  0  0  0  0  0  0  0  0  0  0  0
   46.8020  159.8131   32.0103 H   0  0  0  0  0  0  0  0  0  0  0  0
   48.2744  161.7677   32.4992 H   0  0  0  0  0  0  0  0  0  0  0  0
   50.5140  162.5410   32.5560 H   0  0  0  0  0  0  0  0  0  0  0  0
   53.9030  158.9390   28.4280 H   0  0  0  0  0  0  0  0  0  0  0  0
   52.5253  157.3228   26.9740 H   0  0  0  0  0  0  0  0  0  0  0  0
   54.2698  154.7768   25.4921 H   0  0  0  0  0  0  0  0  0  0  0  0
  1  2  1  0
  2  3  1  0
  3  4  1  0
  4  5  2  0
  5  6  1  0
  6  7  2  0
  7  8  1  0
  8  9  1  0
  9 10  1  0
 10 11  2  0
 11 12  1  0
 12 13  2  0
 13 14  1  0
 14 15  1  0
 14 16  2  0
 16 17  1  0
 17 18  2  0
 17 19  1  0
 19 20  1  0
  7 21  1  0
 21 22  2  0
 22 23  1  0
 23 24  1  0
 23 25  1  0
 22  4  1  0
 19  8  2  0
 16 10  1  0
  1 26  1  0
  1 27  1  0
  1 28  1  0
  2 29  1  0
  2 30  1  0
  3 31  1  0
  3 32  1  0
  5 33  1  0
  6 34  1  0
 11 35  1  0
 12 36  1  0
 13 37  1  0
 15 38  1  0
 20 39  1  0
 21 40  1  0
 23 41  1  0
M  END
>  <meeko>  (3) 
{"is_sidechain": [false], "free_energy": -10.055, "intermolecular_energy": -13.354, "internal_energy": -0.176}

$$$$
cand_044_out
     RDKit          3D

 41 43  0  0  0  0  0  0  0  0999 V2000
   53.2550  150.6630   25.4910 C   0  0  0  0  0  0  0  0  0  0  0  0
   52.5980  151.8310   26.2080 C   0  0  0  0  0  0  0  0  0  0  0  0
   53.6350  152.8570   26.6700 C   0  0  0  0  0  0  0  0  0  0  0  0
   52.9910  154.0300   27.3780 C   0  0  0  0  0  0  0  0  0  0  0  0
   52.3380  153.7930   28.5990 C   0  0  0  0  0  0  0  0  0  0  0  0
   51.7090  154.8280   29.2940 C   0  0  0  0  0  0  0  0  0  0  0  0
   51.7030  156.1290   28.7840 C   0  0  0  0  0  0  0  0  0  0  0  0
   51.0660  157.2480   29.5110 C   0  0  0  0  0  0  0  0  0  0  0  0
   51.9500  158.2870   29.7850 O   0  0  0  0  0  0  0  0  0  0  0  0
   51.4870  159.3930   30.4510 C   0  0  0  0  0  0  0  0  0  0  0  0
   52.4110  160.4060   30.7130 C   0  0  0  0  0  0  0  0  0  0  0  0
   52.0050  161.5600   31.3870 C   0  0  0  0  0  0  0  0  0  0  0  0
   50.6790  161.7010   31.7990 C   0  0  0  0  0  0  0  0  0  0  0  0
   49.7600  160.6880   31.5360 C   0  0  0  0  0  0  0  0  0  0  0  0
   48.4770  160.8910   31.9660 O   0  0  0  0  0  0  0  0  0  0  0  0
   50.1660  159.5340   30.8610 C   0  0  0  0  0  0  0  0  0  0  0  0
   49.2320  158.4470   30.5640 C   0  0  0  0  0  0  0  0  0  0  0  0
   48.0470  158.4990   30.8880 O   0  0  0  0  0  0  0  0  0  0  0  0
   49.7630  157.2640   29.8480 C   0  0  0  0  0  0  0  0  0  0  0  0
   48.8680  156.2500   29.5590 O   0  0  0  0  0  0  0  0  0  0  0  0
   52.3590  156.3690   27.5670 C   0  0  0  0  0  0  0  0  0  0  0  0
   52.9980  155.3380   26.8490 C   0  0  0  0  0  0  0  0  0  0  0  0
   53.6960  155.6780   25.5520 C   0  0  0  0  0  0  0  0  0  0  0  0
   52.9570  155.3770   24.4480 F   0  0  0  0  0  0  0  0  0  0  0  0
   54.0040  157.0020   25.4300 F   0  0  0  0  0  0  0  0  0  0  0  0
   53.6534  149.9548   26.2325 H   0  0  0  0  0  0  0  0  0  0  0  0
   52.5108  150.1541   24.8608 H   0  0  0  0  0  0  0  0  0  0  0  0
   54.0764  151.0347   24.8608 H   0  0  0  0  0  0  0  0  0  0  0  0
   51.8913  152.3205   25.5217 H   0  0  0  0  0  0  0  0  0  0  0  0
   52.0756  151.4432   27.0950 H   0  0  0  0  0  0  0  0  0  0  0  0
   54.3374  152.3669   27.3602 H   0  0  0  0  0  0  0  0  0  0  0  0
   54.1561  153.2398   25.7801 H   0  0  0  0  0  0  0  0  0  0  0  0
   52.3219  152.7747   29.0147 H   0  0  0  0  0  0  0  0  0  0  0  0
   51.2131  154.6170   30.2529 H   0  0  0  0  0  0  0  0  0  0  0  0
   53.4565  160.2957   30.3894 H   0  0  0  0  0  0  0  0  0  0  0  0
   52.7319  162.3594   31.5935 H   0  0  0  0  0  0  0  0  0  0  0  0
   50.3605  162.6101   32.3302 H   0  0  0  0  0  0  0  0  0  0  0  0
   48.0440  161.7020   31.7810 H   0  0  0  0  0  0  0  0  0  0  0  0
   48.3360  156.3000   28.7900 H   0  0  0  0  0  0  0  0  0  0  0  0
   52.3750  157.3914   27.1615 H   0  0  0  0  0  0  0  0  0  0  0  0
   54.6076  155.0643   25.6010 H   0  0  0  0  0  0  0  0  0  0  0  0
  1  2  1  0
  2  3  1  0
  3  4  1  0
  4  5  2  0
  5  6  1  0
  6  7  2  0
  7  8  1  0
  8  9  1  0
  9 10  1  0
 10 11  2  0
 11 12  1  0
 12 13  2  0
 13 14  1  0
 14 15  1  0
 14 16  2  0
 16 17  1  0
 17 18  2  0
 17 19  1  0
 19 20  1  0
  7 21  1  0
 21 22  2  0
 22 23  1  0
 23 24  1  0
 23 25  1  0
 22  4  1  0
 19  8  2  0
 16 10  1  0
  1 26  1  0
  1 27  1  0
  1 28  1  0
  2 29  1  0
  2 30  1  0
  3 31  1  0
  3 32  1  0
  5 33  1  0
  6 34  1  0
 11 35  1  0
 12 36  1  0
 13 37  1  0
 15 38  1  0
 20 39  1  0
 21 40  1  0
 23 41  1  0
M  END
>  <meeko>  (4) 
{"is_sidechain": [false], "free_energy": -9.257, "intermolecular_energy": -11.852, "internal_energy": -0.648}

$$$$
cand_044_out
     RDKit          3D

 41 43  0  0  0  0  0  0  0  0999 V2000
   54.1310  153.3700   23.8230 C   0  0  0  0  0  0  0  0  0  0  0  0
   53.3810  154.3530   24.7080 C   0  0  0  0  0  0  0  0  0  0  0  0
   53.4300  153.9310   26.1780 C   0  0  0  0  0  0  0  0  0  0  0  0
   52.9110  155.0180   27.0940 C   0  0  0  0  0  0  0  0  0  0  0  0
   53.0270  156.3530   26.6740 C   0  0  0  0  0  0  0  0  0  0  0  0
   52.5840  157.4040   27.4800 C   0  0  0  0  0  0  0  0  0  0  0  0
   52.0220  157.1540   28.7340 C   0  0  0  0  0  0  0  0  0  0  0  0
   51.5220  158.2460   29.5970 C   0  0  0  0  0  0  0  0  0  0  0  0
   50.1840  158.0900   29.9450 O   0  0  0  0  0  0  0  0  0  0  0  0
   49.5940  159.0320   30.7480 C   0  0  0  0  0  0  0  0  0  0  0  0
   48.2480  158.8400   31.0640 C   0  0  0  0  0  0  0  0  0  0  0  0
   47.5860  159.7620   31.8790 C   0  0  0  0  0  0  0  0  0  0  0  0
   48.2690  160.8720   32.3780 C   0  0  0  0  0  0  0  0  0  0  0  0
   49.6130  161.0600   32.0620 C   0  0  0  0  0  0  0  0  0  0  0  0
   50.2210  162.1680   32.5850 O   0  0  0  0  0  0  0  0  0  0  0  0
   50.2740  160.1380   31.2470 C   0  0  0  0  0  0  0  0  0  0  0  0
   51.6850  160.2970   30.8910 C   0  0  0  0  0  0  0  0  0  0  0  0
   52.3560  161.2450   31.2960 O   0  0  0  0  0  0  0  0  0  0  0  0
   52.2920  159.2670   30.0170 C   0  0  0  0  0  0  0  0  0  0  0  0
   53.6290  159.4200   29.7010 O   0  0  0  0  0  0  0  0  0  0  0  0
   51.9000  155.8200   29.1540 C   0  0  0  0  0  0  0  0  0  0  0  0
   52.3430  154.7450   28.3560 C   0  0  0  0  0  0  0  0  0  0  0  0
   52.1640  153.3350   28.8710 C   0  0  0  0  0  0  0  0  0  0  0  0
   51.4870  153.2760   30.0520 F   0  0  0  0  0  0  0  0  0  0  0  0
   51.4700  152.5270   28.0170 F   0  0  0  0  0  0  0  0  0  0  0  0
   54.6780  152.6531   24.4529 H   0  0  0  0  0  0  0  0  0  0  0  0
   53.4147  152.8281   23.1879 H   0  0  0  0  0  0  0  0  0  0  0  0
   54.8428  153.9177   23.1879 H   0  0  0  0  0  0  0  0  0  0  0  0
   53.8390  155.3479   24.6059 H   0  0  0  0  0  0  0  0  0  0  0  0
   52.3286  154.3729   24.3886 H   0  0  0  0  0  0  0  0  0  0  0  0
   52.8132  153.0299   26.3102 H   0  0  0  0  0  0  0  0  0  0  0  0
   54.4797  153.7348   26.4419 H   0  0  0  0  0  0  0  0  0  0  0  0
   53.4743  156.5746   25.6938 H   0  0  0  0  0  0  0  0  0  0  0  0
   52.6787  158.4402   27.1233 H   0  0  0  0  0  0  0  0  0  0  0  0
   47.7094  157.9645   30.6722 H   0  0  0  0  0  0  0  0  0  0  0  0
   46.5249  159.6127   32.1276 H   0  0  0  0  0  0  0  0  0  0  0  0
   47.7472  161.5973   33.0197 H   0  0  0  0  0  0  0  0  0  0  0  0
   50.1650  162.3430   33.5040 H   0  0  0  0  0  0  0  0  0  0  0  0
   54.0890  160.1900   29.9680 H   0  0  0  0  0  0  0  0  0  0  0  0
   51.4461  155.6073   30.1331 H   0  0  0  0  0  0  0  0  0  0  0  0
   53.2010  152.9871   28.9873 H   0  0  0  0  0  0  0  0  0  0  0  0
  1  2  1  0
  2  3  1  0
  3  4  1  0
  4  5  2  0
  5  6  1  0
  6  7  2  0
  7  8  1  0
  8  9  1  0
  9 10  1  0
 10 11  2  0
 11 12  1  0
 12 13  2  0
 13 14  1  0
 14 15  1  0
 14 16  2  0
 16 17  1  0
 17 18  2  0
 17 19  1  0
 19 20  1  0
  7 21  1  0
 21 22  2  0
 22 23  1  0
 23 24  1  0
 23 25  1  0
 22  4  1  0
 19  8  2  0
 16 10  1  0
  1 26  1  0
  1 27  1  0
  1 28  1  0
  2 29  1  0
  2 30  1  0
  3 31  1  0
  3 32  1  0
  5 33  1  0
  6 34  1  0
 11 35  1  0
 12 36  1  0
 13 37  1  0
 15 38  1  0
 20 39  1  0
 21 40  1  0
 23 41  1  0
M  END
>  <meeko>  (5) 
{"is_sidechain": [false], "free_energy": -9.125, "intermolecular_energy": -11.837, "internal_energy": -0.492}

$$$$
cand_044_out
     RDKit          3D

 41 43  0  0  0  0  0  0  0  0999 V2000
   47.8600  160.4290   31.1960 C   0  0  0  0  0  0  0  0  0  0  0  0
   48.0720  159.1020   30.4840 C   0  0  0  0  0  0  0  0  0  0  0  0
   49.1450  158.2600   31.1780 C   0  0  0  0  0  0  0  0  0  0  0  0
   49.9850  157.4870   30.1850 C   0  0  0  0  0  0  0  0  0  0  0  0
   49.5010  156.2500   29.7270 C   0  0  0  0  0  0  0  0  0  0  0  0
   50.2350  155.4780   28.8240 C   0  0  0  0  0  0  0  0  0  0  0  0
   51.4800  155.9130   28.3600 C   0  0  0  0  0  0  0  0  0  0  0  0
   52.2670  155.1280   27.3850 C   0  0  0  0  0  0  0  0  0  0  0  0
   51.9810  153.7670   27.4310 O   0  0  0  0  0  0  0  0  0  0  0  0
   52.6380  152.9220   26.5740 C   0  0  0  0  0  0  0  0  0  0  0  0
   52.3270  151.5650   26.6610 C   0  0  0  0  0  0  0  0  0  0  0  0
   52.9590  150.6500   25.8170 C   0  0  0  0  0  0  0  0  0  0  0  0
   53.9010  151.0910   24.8860 C   0  0  0  0  0  0  0  0  0  0  0  0
   54.2090  152.4470   24.8000 C   0  0  0  0  0  0  0  0  0  0  0  0
   55.1390  152.8120   23.8660 O   0  0  0  0  0  0  0  0  0  0  0  0
   53.5760  153.3620   25.6450 C   0  0  0  0  0  0  0  0  0  0  0  0
   53.8690  154.7950   25.5880 C   0  0  0  0  0  0  0  0  0  0  0  0
   54.6810  155.2620   24.7910 O   0  0  0  0  0  0  0  0  0  0  0  0
   53.1480  155.6800   26.5310 C   0  0  0  0  0  0  0  0  0  0  0  0
   53.4220  157.0340   26.4570 O   0  0  0  0  0  0  0  0  0  0  0  0
   51.9630  157.1510   28.8130 C   0  0  0  0  0  0  0  0  0  0  0  0
   51.2380  157.9440   29.7270 C   0  0  0  0  0  0  0  0  0  0  0  0
   51.8180  159.2720   30.1570 C   0  0  0  0  0  0  0  0  0  0  0  0
   53.0950  159.4670   29.7250 F   0  0  0  0  0  0  0  0  0  0  0  0
   51.1140  160.3480   29.6970 F   0  0  0  0  0  0  0  0  0  0  0  0
   47.8855  160.2695   32.2841 H   0  0  0  0  0  0  0  0  0  0  0  0
   48.6575  161.1304   30.9095 H   0  0  0  0  0  0  0  0  0  0  0  0
   46.8837  160.8470   30.9095 H   0  0  0  0  0  0  0  0  0  0  0  0
   47.1249  158.5425   30.4807 H   0  0  0  0  0  0  0  0  0  0  0  0
   48.4065  159.3102   29.4570 H   0  0  0  0  0  0  0  0  0  0  0  0
   49.8015  158.9268   31.7562 H   0  0  0  0  0  0  0  0  0  0  0  0
   48.6391  157.5358   31.8334 H   0  0  0  0  0  0  0  0  0  0  0  0
   48.5278  155.8836   30.0857 H   0  0  0  0  0  0  0  0  0  0  0  0
   49.8292  154.5173   28.4740 H   0  0  0  0  0  0  0  0  0  0  0  0
   51.5845  151.2162   27.3939 H   0  0  0  0  0  0  0  0  0  0  0  0
   52.7143  149.5798   25.8857 H   0  0  0  0  0  0  0  0  0  0  0  0
   54.3991  150.3694   24.2217 H   0  0  0  0  0  0  0  0  0  0  0  0
   54.8860  152.9180   22.9690 H   0  0  0  0  0  0  0  0  0  0  0  0
   52.7210  157.6540   26.4410 H   0  0  0  0  0  0  0  0  0  0  0  0
   52.9343  157.5128   28.4447 H   0  0  0  0  0  0  0  0  0  0  0  0
   51.7732  159.2106   31.2544 H   0  0  0  0  0  0  0  0  0  0  0  0
  1  2  1  0
  2  3  1  0
  3  4  1  0
  4  5  2  0
  5  6  1  0
  6  7  2  0
  7  8  1  0
  8  9  1  0
  9 10  1  0
 10 11  2  0
 11 12  1  0
 12 13  2  0
 13 14  1  0
 14 15  1  0
 14 16  2  0
 16 17  1  0
 17 18  2  0
 17 19  1  0
 19 20  1  0
  7 21  1  0
 21 22  2  0
 22 23  1  0
 23 24  1  0
 23 25  1  0
 22  4  1  0
 19  8  2  0
 16 10  1  0
  1 26  1  0
  1 27  1  0
  1 28  1  0
  2 29  1  0
  2 30  1  0
  3 31  1  0
  3 32  1  0
  5 33  1  0
  6 34  1  0
 11 35  1  0
 12 36  1  0
 13 37  1  0
 15 38  1  0
 20 39  1  0
 21 40  1  0
 23 41  1  0
M  END
>  <meeko>  (6) 
{"is_sidechain": [false], "free_energy": -8.747, "intermolecular_energy": -11.539, "internal_energy": -0.301}

$$$$
cand_044_out
     RDKit          3D

 41 43  0  0  0  0  0  0  0  0999 V2000
   54.1590  153.2330   23.4480 C   0  0  0  0  0  0  0  0  0  0  0  0
   53.4010  154.1430   24.4030 C   0  0  0  0  0  0  0  0  0  0  0  0
   53.8600  153.9410   25.8490 C   0  0  0  0  0  0  0  0  0  0  0  0
   53.1530  154.8810   26.8010 C   0  0  0  0  0  0  0  0  0  0  0  0
   53.2790  156.2640   26.5860 C   0  0  0  0  0  0  0  0  0  0  0  0
   52.6660  157.1850   27.4380 C   0  0  0  0  0  0  0  0  0  0  0  0
   51.9200  156.7540   28.5370 C   0  0  0  0  0  0  0  0  0  0  0  0
   51.2400  157.7070   29.4410 C   0  0  0  0  0  0  0  0  0  0  0  0
   52.0110  158.8310   29.7180 O   0  0  0  0  0  0  0  0  0  0  0  0
   51.4980  159.8000   30.5420 C   0  0  0  0  0  0  0  0  0  0  0  0
   52.3100  160.9060   30.8000 C   0  0  0  0  0  0  0  0  0  0  0  0
   51.8470  161.9300   31.6300 C   0  0  0  0  0  0  0  0  0  0  0  0
   50.5760  161.8490   32.2000 C   0  0  0  0  0  0  0  0  0  0  0  0
   49.7680  160.7450   31.9390 C   0  0  0  0  0  0  0  0  0  0  0  0
   48.5330  160.7300   32.5290 O   0  0  0  0  0  0  0  0  0  0  0  0
   50.2310  159.7210   31.1090 C   0  0  0  0  0  0  0  0  0  0  0  0
   49.4140  158.5440   30.8090 C   0  0  0  0  0  0  0  0  0  0  0  0
   48.2810  158.4030   31.2670 O   0  0  0  0  0  0  0  0  0  0  0  0
   49.9980  157.5120   29.9210 C   0  0  0  0  0  0  0  0  0  0  0  0
   49.2110  156.4130   29.6320 O   0  0  0  0  0  0  0  0  0  0  0  0
   51.7880  155.3730   28.7510 C   0  0  0  0  0  0  0  0  0  0  0  0
   52.4010  154.4260   27.9040 C   0  0  0  0  0  0  0  0  0  0  0  0
   52.2010  152.9560   28.1910 C   0  0  0  0  0  0  0  0  0  0  0  0
   51.5060  152.7220   29.3400 F   0  0  0  0  0  0  0  0  0  0  0  0
   51.5130  152.2970   27.2130 F   0  0  0  0  0  0  0  0  0  0  0  0
   54.7583  152.5135   24.0252 H   0  0  0  0  0  0  0  0  0  0  0  0
   53.4433  152.6890   22.8142 H   0  0  0  0  0  0  0  0  0  0  0  0
   54.8235  153.8386   22.8142 H   0  0  0  0  0  0  0  0  0  0  0  0
   53.5763  155.1900   24.1148 H   0  0  0  0  0  0  0  0  0  0  0  0
   52.3310  153.8953   24.3415 H   0  0  0  0  0  0  0  0  0  0  0  0
   53.6465  152.9043   26.1485 H   0  0  0  0  0  0  0  0  0  0  0  0
   54.9382  154.1533   25.8976 H   0  0  0  0  0  0  0  0  0  0  0  0
   53.8703  156.6271   25.7324 H   0  0  0  0  0  0  0  0  0  0  0  0
   52.7719  158.2621   27.2413 H   0  0  0  0  0  0  0  0  0  0  0  0
   53.3120  160.9710   30.3508 H   0  0  0  0  0  0  0  0  0  0  0  0
   52.4857  162.8019   31.8346 H   0  0  0  0  0  0  0  0  0  0  0  0
   50.2129  162.6554   32.8541 H   0  0  0  0  0  0  0  0  0  0  0  0
   48.3890  160.2190   33.3020 H   0  0  0  0  0  0  0  0  0  0  0  0
   49.1260  156.1170   28.7480 H   0  0  0  0  0  0  0  0  0  0  0  0
   51.1895  155.0192   29.6034 H   0  0  0  0  0  0  0  0  0  0  0  0
   53.2332  152.5830   28.2651 H   0  0  0  0  0  0  0  0  0  0  0  0
  1  2  1  0
  2  3  1  0
  3  4  1  0
  4  5  2  0
  5  6  1  0
  6  7  2  0
  7  8  1  0
  8  9  1  0
  9 10  1  0
 10 11  2  0
 11 12  1  0
 12 13  2  0
 13 14  1  0
 14 15  1  0
 14 16  2  0
 16 17  1  0
 17 18  2  0
 17 19  1  0
 19 20  1  0
  7 21  1  0
 21 22  2  0
 22 23  1  0
 23 24  1  0
 23 25  1  0
 22  4  1  0
 19  8  2  0
 16 10  1  0
  1 26  1  0
  1 27  1  0
  1 28  1  0
  2 29  1  0
  2 30  1  0
  3 31  1  0
  3 32  1  0
  5 33  1  0
  6 34  1  0
 11 35  1  0
 12 36  1  0
 13 37  1  0
 15 38  1  0
 20 39  1  0
 21 40  1  0
 23 41  1  0
M  END
>  <meeko>  (7) 
{"is_sidechain": [false], "free_energy": -8.726, "intermolecular_energy": -11.477, "internal_energy": -0.336}

$$$$
cand_044_out
     RDKit          3D

 41 43  0  0  0  0  0  0  0  0999 V2000
   48.9830  161.1130   30.8100 C   0  0  0  0  0  0  0  0  0  0  0  0
   50.2280  160.6050   30.0990 C   0  0  0  0  0  0  0  0  0  0  0  0
   50.8480  159.4170   30.8390 C   0  0  0  0  0  0  0  0  0  0  0  0
   51.3130  158.3390   29.8840 C   0  0  0  0  0  0  0  0  0  0  0  0
   52.5950  158.4550   29.3240 C   0  0  0  0  0  0  0  0  0  0  0  0
   53.0780  157.5030   28.4230 C   0  0  0  0  0  0  0  0  0  0  0  0
   52.2890  156.4140   28.0450 C   0  0  0  0  0  0  0  0  0  0  0  0
   52.7840  155.3780   27.1120 C   0  0  0  0  0  0  0  0  0  0  0  0
   52.3290  154.1030   27.4300 O   0  0  0  0  0  0  0  0  0  0  0  0
   52.7090  153.0470   26.6420 C   0  0  0  0  0  0  0  0  0  0  0  0
   52.2370  151.7850   27.0030 C   0  0  0  0  0  0  0  0  0  0  0  0
   52.5860  150.6670   26.2420 C   0  0  0  0  0  0  0  0  0  0  0  0
   53.4040  150.8110   25.1210 C   0  0  0  0  0  0  0  0  0  0  0  0
   53.8730  152.0730   24.7620 C   0  0  0  0  0  0  0  0  0  0  0  0
   54.6700  152.1430   23.6520 O   0  0  0  0  0  0  0  0  0  0  0  0
   53.5240  153.1900   25.5240 C   0  0  0  0  0  0  0  0  0  0  0  0
   53.9940  154.5340   25.1810 C   0  0  0  0  0  0  0  0  0  0  0  0
   54.7130  154.7430   24.2060 O   0  0  0  0  0  0  0  0  0  0  0  0
   53.5720  155.6510   26.0560 C   0  0  0  0  0  0  0  0  0  0  0  0
   54.0090  156.9180   25.7130 O   0  0  0  0  0  0  0  0  0  0  0  0
   51.0090  156.2930   28.6070 C   0  0  0  0  0  0  0  0  0  0  0  0
   50.5020  157.2440   29.5170 C   0  0  0  0  0  0  0  0  0  0  0  0
   49.1190  157.0380   30.0910 C   0  0  0  0  0  0  0  0  0  0  0  0
   48.2490  158.0350   29.7690 F   0  0  0  0  0  0  0  0  0  0  0  0
   48.5200  155.8860   29.6690 F   0  0  0  0  0  0  0  0  0  0  0  0
   49.1317  161.0523   31.8982 H   0  0  0  0  0  0  0  0  0  0  0  0
   48.7978  162.1586   30.5230 H   0  0  0  0  0  0  0  0  0  0  0  0
   48.1191  160.4955   30.5230 H   0  0  0  0  0  0  0  0  0  0  0  0
   49.9553  160.2898   29.0810 H   0  0  0  0  0  0  0  0  0  0  0  0
   50.9671  161.4192   30.0706 H   0  0  0  0  0  0  0  0  0  0  0  0
   51.7105  159.7719   31.4222 H   0  0  0  0  0  0  0  0  0  0  0  0
   50.0782  158.9836   31.4944 H   0  0  0  0  0  0  0  0  0  0  0  0
   53.2300  159.3100   29.5993 H   0  0  0  0  0  0  0  0  0  0  0  0
   54.0904  157.6121   28.0068 H   0  0  0  0  0  0  0  0  0  0  0  0
   51.5908  151.6705   27.8858 H   0  0  0  0  0  0  0  0  0  0  0  0
   52.2153  149.6713   26.5270 H   0  0  0  0  0  0  0  0  0  0  0  0
   53.6781  149.9301   24.5219 H   0  0  0  0  0  0  0  0  0  0  0  0
   54.3130  152.4350   22.8360 H   0  0  0  0  0  0  0  0  0  0  0  0
   53.3950  157.5660   25.4310 H   0  0  0  0  0  0  0  0  0  0  0  0
   50.3831  155.4319   28.3300 H   0  0  0  0  0  0  0  0  0  0  0  0
   49.3093  157.0092   31.1740 H   0  0  0  0  0  0  0  0  0  0  0  0
  1  2  1  0
  2  3  1  0
  3  4  1  0
  4  5  2  0
  5  6  1  0
  6  7  2  0
  7  8  1  0
  8  9  1  0
  9 10  1  0
 10 11  2  0
 11 12  1  0
 12 13  2  0
 13 14  1  0
 14 15  1  0
 14 16  2  0
 16 17  1  0
 17 18  2  0
 17 19  1  0
 19 20  1  0
  7 21  1  0
 21 22  2  0
 22 23  1  0
 23 24  1  0
 23 25  1  0
 22  4  1  0
 19  8  2  0
 16 10  1  0
  1 26  1  0
  1 27  1  0
  1 28  1  0
  2 29  1  0
  2 30  1  0
  3 31  1  0
  3 32  1  0
  5 33  1  0
  6 34  1  0
 11 35  1  0
 12 36  1  0
 13 37  1  0
 15 38  1  0
 20 39  1  0
 21 40  1  0
 23 41  1  0
M  END
>  <meeko>  (8) 
{"is_sidechain": [false], "free_energy": -8.305, "intermolecular_energy": -10.826, "internal_energy": -0.444}

$$$$
