cand_024_out
     RDKit          3D

 47 49  0  0  0  0  0  0  0  0999 V2000
   54.1280  152.1880   23.8850 C   0  0  0  0  0  0  0  0  0  0  0  0
   54.4220  151.5440   25.1680 N   0  0  0  0  0  0  0  0  0  0  0  0
   53.7160  150.2600   25.2420 C   0  0  0  0  0  0  0  0  0  0  0  0
   54.0330  152.3950   26.3090 C   0  0  0  0  0  0  0  0  0  0  0  0
   52.5510  152.8090   26.2800 C   0  0  0  0  0  0  0  0  0  0  0  0
   52.3080  154.1000   27.0410 C   0  0  0  0  0  0  0  0  0  0  0  0
   51.6820  154.0210   28.2970 C   0  0  0  0  0  0  0  0  0  0  0  0
   51.4200  155.1720   29.0420 C   0  0  0  0  0  0  0  0  0  0  0  0
   51.7820  156.4350   28.5610 C   0  0  0  0  0  0  0  0  0  0  0  0
   51.4810  157.6420   29.3590 C   0  0  0  0  0  0  0  0  0  0  0  0
   50.1680  157.6780   29.8120 O   0  0  0  0  0  0  0  0  0  0  0  0
   49.7570  158.7450   30.5690 C   0  0  0  0  0  0  0  0  0  0  0  0
   48.4270  158.7480   30.9900 C   0  0  0  0  0  0  0  0  0  0  0  0
   47.9440  159.8050   31.7650 C   0  0  0  0  0  0  0  0  0  0  0  0
   48.7900  160.8580   32.1160 C   0  0  0  0  0  0  0  0  0  0  0  0
   50.1170  160.8530   31.6950 C   0  0  0  0  0  0  0  0  0  0  0  0
   50.8900  161.9150   32.0750 O   0  0  0  0  0  0  0  0  0  0  0  0
   50.5990  159.7960   30.9190 C   0  0  0  0  0  0  0  0  0  0  0  0
   51.9870  159.7520   30.4550 C   0  0  0  0  0  0  0  0  0  0  0  0
   52.7940  160.6370   30.7290 O   0  0  0  0  0  0  0  0  0  0  0  0
   52.3960  158.5900   29.6330 C   0  0  0  0  0  0  0  0  0  0  0  0
   53.7120  158.5490   29.2090 O   0  0  0  0  0  0  0  0  0  0  0  0
   52.3950  156.5150   27.3020 C   0  0  0  0  0  0  0  0  0  0  0  0
   52.6670  155.3650   26.5290 C   0  0  0  0  0  0  0  0  0  0  0  0
   53.3510  155.5320   25.1900 C   0  0  0  0  0  0  0  0  0  0  0  0
   54.6410  155.0890   25.1740 F   0  0  0  0  0  0  0  0  0  0  0  0
   52.7180  154.8580   24.1890 F   0  0  0  0  0  0  0  0  0  0  0  0
   53.4130  156.8330   24.7850 F   0  0  0  0  0  0  0  0  0  0  0  0
   53.6773  153.1752   24.0650 H   0  0  0  0  0  0  0  0  0  0  0  0
   55.0600  152.3091   23.3134 H   0  0  0  0  0  0  0  0  0  0  0  0
   53.4260  151.5631   23.3134 H   0  0  0  0  0  0  0  0  0  0  0  0
   55.4300  151.3920   25.2250 H   0  0  0  0  0  0  0  0  0  0  0  0
   53.5648  149.9849   26.2963 H   0  0  0  0  0  0  0  0  0  0  0  0
   52.7399  150.3489   24.7426 H   0  0  0  0  0  0  0  0  0  0  0  0
   54.3140  149.4834   24.7426 H   0  0  0  0  0  0  0  0  0  0  0  0
   54.2226  151.8400   27.2396 H   0  0  0  0  0  0  0  0  0  0  0  0
   54.6307  153.3164   26.2479 H   0  0  0  0  0  0  0  0  0  0  0  0
   52.2416  152.9494   25.2338 H   0  0  0  0  0  0  0  0  0  0  0  0
   51.9656  152.0132   26.7637 H   0  0  0  0  0  0  0  0  0  0  0  0
   51.3945  153.0381   28.6986 H   0  0  0  0  0  0  0  0  0  0  0  0
   50.9228  155.0850   30.0193 H   0  0  0  0  0  0  0  0  0  0  0  0
   47.7595  157.9191   30.7120 H   0  0  0  0  0  0  0  0  0  0  0  0
   46.8959  159.8074   32.0989 H   0  0  0  0  0  0  0  0  0  0  0  0
   48.4087  161.6911   32.7247 H   0  0  0  0  0  0  0  0  0  0  0  0
   51.2290  162.5030   31.4290 H   0  0  0  0  0  0  0  0  0  0  0  0
   54.1920  159.3460   29.0930 H   0  0  0  0  0  0  0  0  0  0  0  0
   52.6721  157.5028   26.9050 H   0  0  0  0  0  0  0  0  0  0  0  0
  1  2  1  0
  2  3  1  0
  2  4  1  0
  4  5  1  0
  5  6  1  0
  6  7  2  0
  7  8  1  0
  8  9  2  0
  9 10  1  0
 10 11  1  0
 11 12  1  0
 12 13  2  0
 13 14  1  0
 14 15  2  0
 15 16  1  0
 16 17  1  0
 16 18  2  0
 18 19  1  0
 19 20  2  0
 19 21  1  0
 21 22  1  0
  9 23  1  0
 23 24  2  0
 24 25  1  0
 25 26  1  0
 25 27  1  0
 25 28  1  0
 24  6  1  0
 21 10  2  0
 18 12  1  0
  1 29  1  0
  1 30  1  0
  1 31  1  0
  2 32  1  0
  3 33  1  0
  3 34  1  0
  3 35  1  0
  4 36  1  0
  4 37  1  0
  5 38  1  0
  5 39  1  0
  7 40  1  0
  8 41  1  0
 13 42  1  0
 14 43  1  0
 15 44  1  0
 17 45  1  0
 22 46  1  0
 23 47  1  0
M  CHG  1   2   1
M  END
>  <meeko>  (1) 
{"is_sidechain": [false], "free_energy": -10.496, "intermolecular_energy": -14.178, "internal_energy": -0.159}

$$$$
cand_024_out
     RDKit          3D

 47 49  0  0  0  0  0  0  0  0999 V2000
   48.8680  161.2040   34.1210 C   0  0  0  0  0  0  0  0  0  0  0  0
   49.7120  161.8030   33.0830 N   0  0  0  0  0  0  0  0  0  0  0  0
   48.8620  162.3710   32.0320 C   0  0  0  0  0  0  0  0  0  0  0  0
   50.6420  160.8180   32.4970 C   0  0  0  0  0  0  0  0  0  0  0  0
   50.7800  160.9490   30.9690 C   0  0  0  0  0  0  0  0  0  0  0  0
   51.0470  159.6080   30.3090 C   0  0  0  0  0  0  0  0  0  0  0  0
   52.3560  159.3310   29.8780 C   0  0  0  0  0  0  0  0  0  0  0  0
   52.6660  158.1210   29.2540 C   0  0  0  0  0  0  0  0  0  0  0  0
   51.6810  157.1500   29.0460 C   0  0  0  0  0  0  0  0  0  0  0  0
   52.0270  155.8830   28.3680 C   0  0  0  0  0  0  0  0  0  0  0  0
   52.5350  156.0750   27.0890 O   0  0  0  0  0  0  0  0  0  0  0  0
   52.8990  154.9780   26.3500 C   0  0  0  0  0  0  0  0  0  0  0  0
   53.3910  155.2150   25.0650 C   0  0  0  0  0  0  0  0  0  0  0  0
   53.7800  154.1430   24.2600 C   0  0  0  0  0  0  0  0  0  0  0  0
   53.6770  152.8360   24.7370 C   0  0  0  0  0  0  0  0  0  0  0  0
   53.1870  152.6020   26.0190 C   0  0  0  0  0  0  0  0  0  0  0  0
   53.1130  151.2970   26.4240 O   0  0  0  0  0  0  0  0  0  0  0  0
   52.7960  153.6740   26.8250 C   0  0  0  0  0  0  0  0  0  0  0  0
   52.2750  153.4720   28.1780 C   0  0  0  0  0  0  0  0  0  0  0  0
   52.1610  152.3530   28.6710 O   0  0  0  0  0  0  0  0  0  0  0  0
   51.8820  154.6760   28.9460 C   0  0  0  0  0  0  0  0  0  0  0  0
   51.4030  154.4780   30.2280 O   0  0  0  0  0  0  0  0  0  0  0  0
   50.3720  157.4320   29.4630 C   0  0  0  0  0  0  0  0  0  0  0  0
   50.0350  158.6490   30.0930 C   0  0  0  0  0  0  0  0  0  0  0  0
   48.6040  158.8700   30.5340 C   0  0  0  0  0  0  0  0  0  0  0  0
   48.1250  160.1130   30.2400 F   0  0  0  0  0  0  0  0  0  0  0  0
   47.7350  157.9950   29.9550 F   0  0  0  0  0  0  0  0  0  0  0  0
   48.4360  158.7300   31.8800 F   0  0  0  0  0  0  0  0  0  0  0  0
   49.2558  161.4792   35.1129 H   0  0  0  0  0  0  0  0  0  0  0  0
   47.8376  161.5741   34.0145 H   0  0  0  0  0  0  0  0  0  0  0  0
   48.8772  160.1092   34.0145 H   0  0  0  0  0  0  0  0  0  0  0  0
   50.2730  162.5390   33.5150 H   0  0  0  0  0  0  0  0  0  0  0  0
   48.0313  162.9261   32.4923 H   0  0  0  0  0  0  0  0  0  0  0  0
   49.4575  163.0533   31.4076 H   0  0  0  0  0  0  0  0  0  0  0  0
   48.4595  161.5598   31.4076 H   0  0  0  0  0  0  0  0  0  0  0  0
   51.6337  160.9602   32.9511 H   0  0  0  0  0  0  0  0  0  0  0  0
   50.2325  159.8182   32.7039 H   0  0  0  0  0  0  0  0  0  0  0  0
   49.8473  161.3666   30.5619 H   0  0  0  0  0  0  0  0  0  0  0  0
   51.6343  161.6093   30.7586 H   0  0  0  0  0  0  0  0  0  0  0  0
   53.1477  160.0784   30.0346 H   0  0  0  0  0  0  0  0  0  0  0  0
   53.6970  157.9291   28.9221 H   0  0  0  0  0  0  0  0  0  0  0  0
   53.4720  156.2450   24.6875 H   0  0  0  0  0  0  0  0  0  0  0  0
   54.1684  154.3291   23.2478 H   0  0  0  0  0  0  0  0  0  0  0  0
   53.9824  151.9918   24.1013 H   0  0  0  0  0  0  0  0  0  0  0  0
   52.8730  150.6290   25.8120 H   0  0  0  0  0  0  0  0  0  0  0  0
   50.6220  154.9140   30.5090 H   0  0  0  0  0  0  0  0  0  0  0  0
   49.5848  156.6825   29.2940 H   0  0  0  0  0  0  0  0  0  0  0  0
  1  2  1  0
  2  3  1  0
  2  4  1  0
  4  5  1  0
  5  6  1  0
  6  7  2  0
  7  8  1  0
  8  9  2  0
  9 10  1  0
 10 11  1  0
 11 12  1  0
 12 13  2  0
 13 14  1  0
 14 15  2  0
 15 16  1  0
 16 17  1  0
 16 18  2  0
 18 19  1  0
 19 20  2  0
 19 21  1  0
 21 22  1  0
  9 23  1  0
 23 24  2  0
 24 25  1  0
 25 26  1  0
 25 27  1  0
 25 28  1  0
 24  6  1  0
 21 10  2  0
 18 12  1  0
  1 29  1  0
  1 30  1  0
  1 31  1  0
  2 32  1  0
  3 33  1  0
  3 34  1  0
  3 35  1  0
  4 36  1  0
  4 37  1  0
  5 38  1  0
  5 39  1  0
  7 40  1  0
  8 41  1  0
 13 42  1  0
 14 43  1  0
 15 44  1  0
 17 45  1  0
 22 46  1  0
 23 47  1  0
M  CHG  1   2   1
M  END
>  <meeko>  (2) 
{"is_sidechain": [false], "free_energy": -10.122, "intermolecular_energy": -13.434, "internal_energy": -0.397}

$$$$
cand_024_out
     RDKit          3D

 47 49  0  0  0  0  0  0  0  0999 V2000
   54.9620  161.9180   31.5910 C   0  0  0  0  0  0  0  0  0  0  0  0
   53.7330  161.7220   30.8170 N   0  0  0  0  0  0  0  0  0  0  0  0
   53.3520  162.9870   30.1790 C   0  0  0  0  0  0  0  0  0  0  0  0
   52.6250  161.2340   31.6610 C   0  0  0  0  0  0  0  0  0  0  0  0
   51.3760  160.8380   30.8540 C   0  0  0  0  0  0  0  0  0  0  0  0
   51.5330  159.4780   30.1980 C   0  0  0  0  0  0  0  0  0  0  0  0
   52.7950  159.1300   29.6880 C   0  0  0  0  0  0  0  0  0  0  0  0
   53.0030  157.8980   29.0640 C   0  0  0  0  0  0  0  0  0  0  0  0
   51.9590  156.9760   28.9360 C   0  0  0  0  0  0  0  0  0  0  0  0
   52.1960  155.6850   28.2560 C   0  0  0  0  0  0  0  0  0  0  0  0
   52.7520  155.8330   26.9910 O   0  0  0  0  0  0  0  0  0  0  0  0
   53.0250  154.7100   26.2520 C   0  0  0  0  0  0  0  0  0  0  0  0
   53.5690  154.9050   24.9810 C   0  0  0  0  0  0  0  0  0  0  0  0
   53.8720  153.8040   24.1770 C   0  0  0  0  0  0  0  0  0  0  0  0
   53.6310  152.5100   24.6420 C   0  0  0  0  0  0  0  0  0  0  0  0
   53.0890  152.3180   25.9100 C   0  0  0  0  0  0  0  0  0  0  0  0
   52.8790  151.0250   26.3030 O   0  0  0  0  0  0  0  0  0  0  0  0
   52.7850  153.4200   26.7140 C   0  0  0  0  0  0  0  0  0  0  0  0
   52.2130  153.2620   28.0530 C   0  0  0  0  0  0  0  0  0  0  0  0
   51.9790  152.1570   28.5350 O   0  0  0  0  0  0  0  0  0  0  0  0
   51.9220  154.4950   28.8210 C   0  0  0  0  0  0  0  0  0  0  0  0
   51.3940  154.3370   30.0900 O   0  0  0  0  0  0  0  0  0  0  0  0
   50.6960  157.3280   29.4310 C   0  0  0  0  0  0  0  0  0  0  0  0
   50.4620  158.5690   30.0630 C   0  0  0  0  0  0  0  0  0  0  0  0
   49.0750  158.8670   30.5920 C   0  0  0  0  0  0  0  0  0  0  0  0
   48.5930  160.0860   30.2120 F   0  0  0  0  0  0  0  0  0  0  0  0
   48.1480  157.9600   30.1780 F   0  0  0  0  0  0  0  0  0  0  0  0
   49.0160  158.8670   31.9550 F   0  0  0  0  0  0  0  0  0  0  0  0
   54.7286  161.8808   32.6653 H   0  0  0  0  0  0  0  0  0  0  0  0
   55.6814  161.1232   31.3443 H   0  0  0  0  0  0  0  0  0  0  0  0
   55.3985  162.8971   31.3443 H   0  0  0  0  0  0  0  0  0  0  0  0
   53.9150  161.0130   30.1050 H   0  0  0  0  0  0  0  0  0  0  0  0
   53.1267  163.7350   30.9534 H   0  0  0  0  0  0  0  0  0  0  0  0
   54.1818  163.3463   29.5526 H   0  0  0  0  0  0  0  0  0  0  0  0
   52.4618  162.8282   29.5526 H   0  0  0  0  0  0  0  0  0  0  0  0
   52.9735  160.3532   32.2202 H   0  0  0  0  0  0  0  0  0  0  0  0
   52.3347  162.0592   32.3279 H   0  0  0  0  0  0  0  0  0  0  0  0
   50.5098  160.8081   31.5313 H   0  0  0  0  0  0  0  0  0  0  0  0
   51.2328  161.5850   30.0594 H   0  0  0  0  0  0  0  0  0  0  0  0
   53.6315  159.8382   29.7815 H   0  0  0  0  0  0  0  0  0  0  0  0
   53.9991  157.6499   28.6687 H   0  0  0  0  0  0  0  0  0  0  0  0
   53.7586  155.9243   24.6135 H   0  0  0  0  0  0  0  0  0  0  0  0
   54.3012  153.9567   23.1758 H   0  0  0  0  0  0  0  0  0  0  0  0
   53.8689  151.6434   24.0076 H   0  0  0  0  0  0  0  0  0  0  0  0
   52.0070  150.6840   26.3440 H   0  0  0  0  0  0  0  0  0  0  0  0
   50.5360  154.6600   30.2840 H   0  0  0  0  0  0  0  0  0  0  0  0
   49.8632  156.6174   29.3242 H   0  0  0  0  0  0  0  0  0  0  0  0
  1  2  1  0
  2  3  1  0
  2  4  1  0
  4  5  1  0
  5  6  1  0
  6  7  2  0
  7  8  1  0
  8  9  2  0
  9 10  1  0
 10 11  1  0
 11 12  1  0
 12 13  2  0
 13 14  1  0
 14 15  2  0
 15 16  1  0
 16 17  1  0
 16 18  2  0
 18 19  1  0
 19 20  2  0
 19 21  1  0
 21 22  1  0
  9 23  1  0
 23 24  2  0
 24 25  1  0
 25 26  1  0
 25 27  1  0
 25 28  1  0
 24  6  1  0
 21 10  2  0
 18 12  1  0
  1 29  1  0
  1 30  1  0
  1 31  1  0
  2 32  1  0
  3 33  1  0
  3 34  1  0
  3 35  1  0
  4 36  1  0
  4 37  1  0
  5 38  1  0
  5 39  1  0
  7 40  1  0
  8 41  1  0
 13 42  1  0
 14 43  1  0
 15 44  1  0
 17 45  1  0
 22 46  1  0
 23 47  1  0
M  CHG  1   2   1
M  END
>  <meeko>  (3) 
{"is_sidechain": [false], "free_energy": -9.953, "intermolecular_energy": -13.461, "internal_energy": -0.142}

$$$$
cand_024_out
     RDKit          3D

 47 49  0  0  0  0  0  0  0  0999 V2000
   53.8020  149.9750   25.0830 C   0  0  0  0  0  0  0  0  0  0  0  0
   53.3500  151.3340   24.7750 N   0  0  0  0  0  0  0  0  0  0  0  0
   54.4840  152.1250   24.2860 C   0  0  0  0  0  0  0  0  0  0  0  0
   52.7500  151.9920   25.9520 C   0  0  0  0  0  0  0  0  0  0  0  0
   53.7540  152.8490   26.7440 C   0  0  0  0  0  0  0  0  0  0  0  0
   53.0830  154.0380   27.4080 C   0  0  0  0  0  0  0  0  0  0  0  0
   52.5370  153.8600   28.6910 C   0  0  0  0  0  0  0  0  0  0  0  0
   51.8970  154.9100   29.3510 C   0  0  0  0  0  0  0  0  0  0  0  0
   51.7880  156.1700   28.7550 C   0  0  0  0  0  0  0  0  0  0  0  0
   51.0900  157.2640   29.4640 C   0  0  0  0  0  0  0  0  0  0  0  0
   51.9250  158.3330   29.7660 O   0  0  0  0  0  0  0  0  0  0  0  0
   51.4020  159.4170   30.4230 C   0  0  0  0  0  0  0  0  0  0  0  0
   52.2790  160.4610   30.7200 C   0  0  0  0  0  0  0  0  0  0  0  0
   51.8110  161.5960   31.3860 C   0  0  0  0  0  0  0  0  0  0  0  0
   50.4680  161.6850   31.7580 C   0  0  0  0  0  0  0  0  0  0  0  0
   49.5950  160.6410   31.4600 C   0  0  0  0  0  0  0  0  0  0  0  0
   48.2930  160.7950   31.8520 O   0  0  0  0  0  0  0  0  0  0  0  0
   50.0640  159.5060   30.7940 C   0  0  0  0  0  0  0  0  0  0  0  0
   49.1800  158.3870   30.4630 C   0  0  0  0  0  0  0  0  0  0  0  0
   47.9850  158.3940   30.7490 O   0  0  0  0  0  0  0  0  0  0  0  0
   49.7780  157.2280   29.7610 C   0  0  0  0  0  0  0  0  0  0  0  0
   48.9340  156.1810   29.4410 O   0  0  0  0  0  0  0  0  0  0  0  0
   52.3200  156.3450   27.4690 C   0  0  0  0  0  0  0  0  0  0  0  0
   52.9680  155.2970   26.7810 C   0  0  0  0  0  0  0  0  0  0  0  0
   53.5360  155.5700   25.4050 C   0  0  0  0  0  0  0  0  0  0  0  0
   54.8360  155.1820   25.2600 F   0  0  0  0  0  0  0  0  0  0  0  0
   52.8500  154.9300   24.4170 F   0  0  0  0  0  0  0  0  0  0  0  0
   53.5180  156.8940   25.0770 F   0  0  0  0  0  0  0  0  0  0  0  0
   53.8463  149.8418   26.1740 H   0  0  0  0  0  0  0  0  0  0  0  0
   53.0973  149.2479   24.6531 H   0  0  0  0  0  0  0  0  0  0  0  0
   54.8018  149.8149   24.6531 H   0  0  0  0  0  0  0  0  0  0  0  0
   52.6300  151.2730   24.0540 H   0  0  0  0  0  0  0  0  0  0  0  0
   55.0511  152.5206   25.1415 H   0  0  0  0  0  0  0  0  0  0  0  0
   55.1395  151.4872   23.6749 H   0  0  0  0  0  0  0  0  0  0  0  0
   54.1119  152.9605   23.6749 H   0  0  0  0  0  0  0  0  0  0  0  0
   51.9299  152.6405   25.6100 H   0  0  0  0  0  0  0  0  0  0  0  0
   52.3949  151.1979   26.6253 H   0  0  0  0  0  0  0  0  0  0  0  0
   54.2201  152.2244   27.5203 H   0  0  0  0  0  0  0  0  0  0  0  0
   54.5063  153.2320   26.0387 H   0  0  0  0  0  0  0  0  0  0  0  0
   52.6153  152.8788   29.1820 H   0  0  0  0  0  0  0  0  0  0  0  0
   51.4731  154.7442   30.3524 H   0  0  0  0  0  0  0  0  0  0  0  0
   53.3377  160.3902   30.4299 H   0  0  0  0  0  0  0  0  0  0  0  0
   52.5011  162.4207   31.6177 H   0  0  0  0  0  0  0  0  0  0  0  0
   50.1001  162.5776   32.2852 H   0  0  0  0  0  0  0  0  0  0  0  0
   47.6670  161.1640   31.2610 H   0  0  0  0  0  0  0  0  0  0  0  0
   48.7630  155.5070   30.0700 H   0  0  0  0  0  0  0  0  0  0  0  0
   52.2295  157.3275   26.9827 H   0  0  0  0  0  0  0  0  0  0  0  0
  1  2  1  0
  2  3  1  0
  2  4  1  0
  4  5  1  0
  5  6  1  0
  6  7  2  0
  7  8  1  0
  8  9  2  0
  9 10  1  0
 10 11  1  0
 11 12  1  0
 12 13  2  0
 13 14  1  0
 14 15  2  0
 15 16  1  0
 16 17  1  0
 16 18  2  0
 18 19  1  0
 19 20  2  0
 19 21  1  0
 21 22  1  0
  9 23  1  0
 23 24  2  0
 24 25  1  0
 25 26  1  0
 25 27  1  0
 25 28  1  0
 24  6  1  0
 21 10  2  0
 18 12  1  0
  1 29  1  0
  1 30  1  0
  1 31  1  0
  2 32  1  0
  3 33  1  0
  3 34  1  0
  3 35  1  0
  4 36  1  0
  4 37  1  0
  5 38  1  0
  5 39  1  0
  7 40  1  0
  8 41  1  0
 13 42  1  0
 14 43  1  0
 15 44  1  0
 17 45  1  0
 22 46  1  0
 23 47  1  0
M  CHG  1   2   1
M  END
>  <meeko>  (4) 
{"is_sidechain": [false], "free_energy": -9.672, "intermolecular_energy": -12.542, "internal_energy": -0.682}

$$$$
cand_024_out
     RDKit          3D

 47 49  0  0  0  0  0  0  0  0999 V2000
   54.0090  152.2670   24.0550 C   0  0  0  0  0  0  0  0  0  0  0  0
   53.8350  153.6960   23.7820 N   0  0  0  0  0  0  0  0  0  0  0  0
   55.1470  154.3530   23.7660 C   0  0  0  0  0  0  0  0  0  0  0  0
   52.9640  154.3430   24.7820 C   0  0  0  0  0  0  0  0  0  0  0  0
   53.4490  154.1420   26.2300 C   0  0  0  0  0  0  0  0  0  0  0  0
   52.8840  155.1940   27.1670 C   0  0  0  0  0  0  0  0  0  0  0  0
   52.9960  156.5440   26.7930 C   0  0  0  0  0  0  0  0  0  0  0  0
   52.5070  157.5610   27.6150 C   0  0  0  0  0  0  0  0  0  0  0  0
   51.8870  157.2600   28.8320 C   0  0  0  0  0  0  0  0  0  0  0  0
   51.3910  158.3530   29.6960 C   0  0  0  0  0  0  0  0  0  0  0  0
   50.0550  158.2040   30.0450 O   0  0  0  0  0  0  0  0  0  0  0  0
   49.4700  159.1500   30.8480 C   0  0  0  0  0  0  0  0  0  0  0  0
   48.1230  158.9700   31.1610 C   0  0  0  0  0  0  0  0  0  0  0  0
   47.4670  159.8960   31.9750 C   0  0  0  0  0  0  0  0  0  0  0  0
   48.1580  161.0010   32.4750 C   0  0  0  0  0  0  0  0  0  0  0  0
   49.5030  161.1790   32.1610 C   0  0  0  0  0  0  0  0  0  0  0  0
   50.1190  162.2830   32.6830 O   0  0  0  0  0  0  0  0  0  0  0  0
   50.1580  160.2530   31.3450 C   0  0  0  0  0  0  0  0  0  0  0  0
   51.5710  160.4030   30.9910 C   0  0  0  0  0  0  0  0  0  0  0  0
   52.2480  161.3440   31.3960 O   0  0  0  0  0  0  0  0  0  0  0  0
   52.1690  159.3690   30.1150 C   0  0  0  0  0  0  0  0  0  0  0  0
   53.5070  159.5100   29.7950 O   0  0  0  0  0  0  0  0  0  0  0  0
   51.7860  155.9140   29.2130 C   0  0  0  0  0  0  0  0  0  0  0  0
   52.2760  154.8700   28.3990 C   0  0  0  0  0  0  0  0  0  0  0  0
   52.1120  153.4410   28.8690 C   0  0  0  0  0  0  0  0  0  0  0  0
   51.3680  152.6680   28.0250 F   0  0  0  0  0  0  0  0  0  0  0  0
   53.3020  152.7930   29.0080 F   0  0  0  0  0  0  0  0  0  0  0  0
   51.4920  153.3490   30.0800 F   0  0  0  0  0  0  0  0  0  0  0  0
   54.0292  152.1012   25.1422 H   0  0  0  0  0  0  0  0  0  0  0  0
   53.1727  151.7049   23.6139 H   0  0  0  0  0  0  0  0  0  0  0  0
   54.9558  151.9220   23.6139 H   0  0  0  0  0  0  0  0  0  0  0  0
   53.3850  153.7940   22.8710 H   0  0  0  0  0  0  0  0  0  0  0  0
   55.4849  154.5222   24.7990 H   0  0  0  0  0  0  0  0  0  0  0  0
   55.8719  153.7116   23.2435 H   0  0  0  0  0  0  0  0  0  0  0  0
   55.0676  155.3177   23.2435 H   0  0  0  0  0  0  0  0  0  0  0  0
   52.9311  155.4221   24.5710 H   0  0  0  0  0  0  0  0  0  0  0  0
   51.9714  153.8758   24.7020 H   0  0  0  0  0  0  0  0  0  0  0  0
   53.1300  153.1482   26.5772 H   0  0  0  0  0  0  0  0  0  0  0  0
   54.5453  154.2316   26.2380 H   0  0  0  0  0  0  0  0  0  0  0  0
   53.4763  156.8034   25.8380 H   0  0  0  0  0  0  0  0  0  0  0  0
   52.6105  158.6105   27.3021 H   0  0  0  0  0  0  0  0  0  0  0  0
   47.5778  158.0996   30.7672 H   0  0  0  0  0  0  0  0  0  0  0  0
   46.4046  159.7544   32.2224 H   0  0  0  0  0  0  0  0  0  0  0  0
   47.6409  161.7301   33.1161 H   0  0  0  0  0  0  0  0  0  0  0  0
   49.8160  163.1400   32.4550 H   0  0  0  0  0  0  0  0  0  0  0  0
   53.9430  158.8450   29.2990 H   0  0  0  0  0  0  0  0  0  0  0  0
   51.3114  155.6648   30.1735 H   0  0  0  0  0  0  0  0  0  0  0  0
  1  2  1  0
  2  3  1  0
  2  4  1  0
  4  5  1  0
  5  6  1  0
  6  7  2  0
  7  8  1  0
  8  9  2  0
  9 10  1  0
 10 11  1  0
 11 12  1  0
 12 13  2  0
 13 14  1  0
 14 15  2  0
 15 16  1  0
 16 17  1  0
 16 18  2  0
 18 19  1  0
 19 20  2  0
 19 21  1  0
 21 22  1  0
  9 23  1  0
 23 24  2  0
 24 25  1  0
 25 26  1  0
 25 27  1  0
 25 28  1  0
 24  6  1  0
 21 10  2  0
 18 12  1  0
  1 29  1  0
  1 30  1  0
  1 31  1  0
  2 32  1  0
  3 33  1  0
  3 34  1  0
  3 35  1  0
  4 36  1  0
  4 37  1  0
  5 38  1  0
  5 39  1  0
  7 40  1  0
  8 41  1  0
 13 42  1  0
 14 43  1  0
 15 44  1  0
 17 45  1  0
 22 46  1  0
 23 47  1  0
M  CHG  1   2   1
M  END
>  <meeko>  (5) 
{"is_sidechain": [false], "free_energy": -9.571, "intermolecular_energy": -12.575, "internal_energy": -0.512}

$$$$
cand_024_out
     RDKit          3D

 47 49  0  0  0  0  0  0  0  0999 V2000
   48.0950  161.7770   34.3900 C   0  0  0  0  0  0  0  0  0  0  0  0
   49.3860  161.3380   33.8520 N   0  0  0  0  0  0  0  0  0  0  0  0
   49.9590  162.4080   33.0290 C   0  0  0  0  0  0  0  0  0  0  0  0
   49.2560  160.1050   33.0520 C   0  0  0  0  0  0  0  0  0  0  0  0
   49.1820  160.3700   31.5370 C   0  0  0  0  0  0  0  0  0  0  0  0
   49.9370  159.3210   30.7420 C   0  0  0  0  0  0  0  0  0  0  0  0
   49.2670  158.1310   30.4100 C   0  0  0  0  0  0  0  0  0  0  0  0
   49.9090  157.1220   29.6900 C   0  0  0  0  0  0  0  0  0  0  0  0
   51.2360  157.2730   29.2730 C   0  0  0  0  0  0  0  0  0  0  0  0
   51.9020  156.1850   28.5260 C   0  0  0  0  0  0  0  0  0  0  0  0
   52.4520  156.6110   27.3240 O   0  0  0  0  0  0  0  0  0  0  0  0
   53.1020  155.6990   26.5330 C   0  0  0  0  0  0  0  0  0  0  0  0
   53.6270  156.1660   25.3270 C   0  0  0  0  0  0  0  0  0  0  0  0
   54.3020  155.2900   24.4750 C   0  0  0  0  0  0  0  0  0  0  0  0
   54.4530  153.9480   24.8280 C   0  0  0  0  0  0  0  0  0  0  0  0
   53.9300  153.4840   26.0320 C   0  0  0  0  0  0  0  0  0  0  0  0
   54.1140  152.1590   26.3150 O   0  0  0  0  0  0  0  0  0  0  0  0
   53.2530  154.3610   26.8840 C   0  0  0  0  0  0  0  0  0  0  0  0
   52.6870  153.9140   28.1580 C   0  0  0  0  0  0  0  0  0  0  0  0
   52.7850  152.7510   28.5420 O   0  0  0  0  0  0  0  0  0  0  0  0
   51.9830  154.9210   28.9840 C   0  0  0  0  0  0  0  0  0  0  0  0
   51.4630  154.4940   30.1920 O   0  0  0  0  0  0  0  0  0  0  0  0
   51.9100  158.4540   29.6160 C   0  0  0  0  0  0  0  0  0  0  0  0
   51.2820  159.4860   30.3460 C   0  0  0  0  0  0  0  0  0  0  0  0
   52.0680  160.7410   30.6580 C   0  0  0  0  0  0  0  0  0  0  0  0
   53.3150  160.7600   30.1040 F   0  0  0  0  0  0  0  0  0  0  0  0
   51.4520  161.8720   30.2140 F   0  0  0  0  0  0  0  0  0  0  0  0
   52.2670  160.9230   31.9950 F   0  0  0  0  0  0  0  0  0  0  0  0
   48.1324  161.7643   35.4893 H   0  0  0  0  0  0  0  0  0  0  0  0
   47.8810  162.7984   34.0422 H   0  0  0  0  0  0  0  0  0  0  0  0
   47.3028  161.0977   34.0422 H   0  0  0  0  0  0  0  0  0  0  0  0
   50.0040  161.1330   34.6380 H   0  0  0  0  0  0  0  0  0  0  0  0
   50.3770  163.1886   33.6816 H   0  0  0  0  0  0  0  0  0  0  0  0
   50.7567  161.9950   32.3940 H   0  0  0  0  0  0  0  0  0  0  0  0
   49.1731  162.8430   32.3940 H   0  0  0  0  0  0  0  0  0  0  0  0
   50.1275  159.4645   33.2527 H   0  0  0  0  0  0  0  0  0  0  0  0
   48.3122  159.6225   33.3460 H   0  0  0  0  0  0  0  0  0  0  0  0
   48.1271  160.3613   31.2255 H   0  0  0  0  0  0  0  0  0  0  0  0
   49.6458  161.3475   31.3387 H   0  0  0  0  0  0  0  0  0  0  0  0
   48.2213  157.9927   30.7221 H   0  0  0  0  0  0  0  0  0  0  0  0
   49.3651  156.1971   29.4476 H   0  0  0  0  0  0  0  0  0  0  0  0
   53.5090  157.2235   25.0481 H   0  0  0  0  0  0  0  0  0  0  0  0
   54.7154  155.6578   23.5243 H   0  0  0  0  0  0  0  0  0  0  0  0
   54.9844  153.2581   24.1560 H   0  0  0  0  0  0  0  0  0  0  0  0
   53.6920  151.7760   27.0600 H   0  0  0  0  0  0  0  0  0  0  0  0
   50.5400  154.3590   30.2830 H   0  0  0  0  0  0  0  0  0  0  0  0
   52.9583  158.5797   29.3072 H   0  0  0  0  0  0  0  0  0  0  0  0
  1  2  1  0
  2  3  1  0
  2  4  1  0
  4  5  1  0
  5  6  1  0
  6  7  2  0
  7  8  1  0
  8  9  2  0
  9 10  1  0
 10 11  1  0
 11 12  1  0
 12 13  2  0
 13 14  1  0
 14 15  2  0
 15 16  1  0
 16 17  1  0
 16 18  2  0
 18 19  1  0
 19 20  2  0
 19 21  1  0
 21 22  1  0
  9 23  1  0
 23 24  2  0
 24 25  1  0
 25 26  1  0
 25 27  1  0
 25 28  1  0
 24  6  1  0
 21 10  2  0
 18 12  1  0
  1 29  1  0
  1 30  1  0
  1 31  1  0
  2 32  1  0
  3 33  1  0
  3 34  1  0
  3 35  1  0
  4 36  1  0
  4 37  1  0
  5 38  1  0
  5 39  1  0
  7 40  1  0
  8 41  1  0
 13 42  1  0
 14 43  1  0
 15 44  1  0
 17 45  1  0
 22 46  1  0
 23 47  1  0
M  CHG  1   2   1
M  END
>  <meeko>  (6) 
{"is_sidechain": [false], "free_energy": -9.525, "intermolecular_energy": -12.622, "internal_energy": -0.403}

$$$$
cand_024_out
     RDKit          3D

 47 49  0  0  0  0  0  0  0  0999 V2000
   48.3900  161.4690   30.6800 C   0  0  0  0  0  0  0  0  0  0  0  0
   47.8510  160.2820   31.3490 N   0  0  0  0  0  0  0  0  0  0  0  0
   48.4540  160.1560   32.6800 C   0  0  0  0  0  0  0  0  0  0  0  0
   48.0980  159.0540   30.5690 C   0  0  0  0  0  0  0  0  0  0  0  0
   49.1210  158.1120   31.2290 C   0  0  0  0  0  0  0  0  0  0  0  0
   49.9850  157.4040   30.2010 C   0  0  0  0  0  0  0  0  0  0  0  0
   49.5920  156.1240   29.7730 C   0  0  0  0  0  0  0  0  0  0  0  0
   50.3490  155.4160   28.8380 C   0  0  0  0  0  0  0  0  0  0  0  0
   51.5150  155.9660   28.2960 C   0  0  0  0  0  0  0  0  0  0  0  0
   52.3110  155.1910   27.3200 C   0  0  0  0  0  0  0  0  0  0  0  0
   52.0350  153.8300   27.3550 O   0  0  0  0  0  0  0  0  0  0  0  0
   52.7050  152.9960   26.4960 C   0  0  0  0  0  0  0  0  0  0  0  0
   52.4080  151.6350   26.5750 C   0  0  0  0  0  0  0  0  0  0  0  0
   53.0530  150.7320   25.7280 C   0  0  0  0  0  0  0  0  0  0  0  0
   53.9940  151.1890   24.8040 C   0  0  0  0  0  0  0  0  0  0  0  0
   54.2880  152.5470   24.7260 C   0  0  0  0  0  0  0  0  0  0  0  0
   55.2190  152.9260   23.7990 O   0  0  0  0  0  0  0  0  0  0  0  0
   53.6440  153.4510   25.5750 C   0  0  0  0  0  0  0  0  0  0  0  0
   53.9240  154.8870   25.5270 C   0  0  0  0  0  0  0  0  0  0  0  0
   54.7330  155.3670   24.7360 O   0  0  0  0  0  0  0  0  0  0  0  0
   53.1900  155.7590   26.4740 C   0  0  0  0  0  0  0  0  0  0  0  0
   53.4510  157.1160   26.4130 O   0  0  0  0  0  0  0  0  0  0  0  0
   51.9150  157.2370   28.7330 C   0  0  0  0  0  0  0  0  0  0  0  0
   51.1680  157.9700   29.6800 C   0  0  0  0  0  0  0  0  0  0  0  0
   51.6530  159.3460   30.0840 C   0  0  0  0  0  0  0  0  0  0  0  0
   51.4910  159.6160   31.4120 F   0  0  0  0  0  0  0  0  0  0  0  0
   52.9780  159.5310   29.8310 F   0  0  0  0  0  0  0  0  0  0  0  0
   51.0030  160.3500   29.4310 F   0  0  0  0  0  0  0  0  0  0  0  0
   48.7206  162.1972   31.4353 H   0  0  0  0  0  0  0  0  0  0  0  0
   49.2448  161.1791   30.0512 H   0  0  0  0  0  0  0  0  0  0  0  0
   47.6092  161.9218   30.0512 H   0  0  0  0  0  0  0  0  0  0  0  0
   46.8400  160.3960   31.4330 H   0  0  0  0  0  0  0  0  0  0  0  0
   47.6835  160.3170   33.4484 H   0  0  0  0  0  0  0  0  0  0  0  0
   48.8817  159.1491   32.7950 H   0  0  0  0  0  0  0  0  0  0  0  0
   49.2491  160.9074   32.7950 H   0  0  0  0  0  0  0  0  0  0  0  0
   47.1465  158.5136   30.4571 H   0  0  0  0  0  0  0  0  0  0  0  0
   48.5151  159.3614   29.5987 H   0  0  0  0  0  0  0  0  0  0  0  0
   49.7699  158.7014   31.8935 H   0  0  0  0  0  0  0  0  0  0  0  0
   48.5660  157.3473   31.7922 H   0  0  0  0  0  0  0  0  0  0  0  0
   48.6749  155.6739   30.1807 H   0  0  0  0  0  0  0  0  0  0  0  0
   50.0244  154.4131   28.5236 H   0  0  0  0  0  0  0  0  0  0  0  0
   51.6669  151.2742   27.3034 H   0  0  0  0  0  0  0  0  0  0  0  0
   52.8193  149.6588   25.7889 H   0  0  0  0  0  0  0  0  0  0  0  0
   54.5027  150.4764   24.1381 H   0  0  0  0  0  0  0  0  0  0  0  0
   55.4350  152.3520   23.0900 H   0  0  0  0  0  0  0  0  0  0  0  0
   52.7460  157.7310   26.4750 H   0  0  0  0  0  0  0  0  0  0  0  0
   52.8380  157.6756   28.3258 H   0  0  0  0  0  0  0  0  0  0  0  0
  1  2  1  0
  2  3  1  0
  2  4  1  0
  4  5  1  0
  5  6  1  0
  6  7  2  0
  7  8  1  0
  8  9  2  0
  9 10  1  0
 10 11  1  0
 11 12  1  0
 12 13  2  0
 13 14  1  0
 14 15  2  0
 15 16  1  0
 16 17  1  0
 16 18  2  0
 18 19  1  0
 19 20  2  0
 19 21  1  0
 21 22  1  0
  9 23  1  0
 23 24  2  0
 24 25  1  0
 25 26  1  0
 25 27  1  0
 25 28  1  0
 24  6  1  0
 21 10  2  0
 18 12  1  0
  1 29  1  0
  1 30  1  0
  1 31  1  0
  2 32  1  0
  3 33  1  0
  3 34  1  0
  3 35  1  0
  4 36  1  0
  4 37  1  0
  5 38  1  0
  5 39  1  0
  7 40  1  0
  8 41  1  0
 13 42  1  0
 14 43  1  0
 15 44  1  0
 17 45  1  0
 22 46  1  0
 23 47  1  0
M  CHG  1   2   1
M  END
>  <meeko>  (7) 
{"is_sidechain": [false], "free_energy": -8.737, "intermolecular_energy": -11.807, "internal_energy": -0.155}

$$$$
cand_024_out
     RDKit          3D

 47 49  0  0  0  0  0  0  0  0999 V2000
   54.0680  152.0030   24.3970 C   0  0  0  0  0  0  0  0  0  0  0  0
   53.7770  153.3440   23.8840 N   0  0  0  0  0  0  0  0  0  0  0  0
   55.0330  154.0190   23.5430 C   0  0  0  0  0  0  0  0  0  0  0  0
   53.0230  154.1530   24.8610 C   0  0  0  0  0  0  0  0  0  0  0  0
   53.7870  154.3790   26.1790 C   0  0  0  0  0  0  0  0  0  0  0  0
   53.0140  155.2690   27.1360 C   0  0  0  0  0  0  0  0  0  0  0  0
   53.0160  156.6540   26.9020 C   0  0  0  0  0  0  0  0  0  0  0  0
   52.3340  157.5280   27.7510 C   0  0  0  0  0  0  0  0  0  0  0  0
   51.6240  157.0440   28.8540 C   0  0  0  0  0  0  0  0  0  0  0  0
   50.9220  157.9880   29.7500 C   0  0  0  0  0  0  0  0  0  0  0  0
   51.7050  159.0780   30.1080 O   0  0  0  0  0  0  0  0  0  0  0  0
   51.1730  160.0330   30.9360 C   0  0  0  0  0  0  0  0  0  0  0  0
   51.9990  161.1040   31.2810 C   0  0  0  0  0  0  0  0  0  0  0  0
   51.5180  162.1120   32.1200 C   0  0  0  0  0  0  0  0  0  0  0  0
   50.2140  162.0480   32.6140 C   0  0  0  0  0  0  0  0  0  0  0  0
   49.3920  160.9790   32.2680 C   0  0  0  0  0  0  0  0  0  0  0  0
   48.1250  160.9800   32.7860 O   0  0  0  0  0  0  0  0  0  0  0  0
   49.8730  159.9710   31.4290 C   0  0  0  0  0  0  0  0  0  0  0  0
   49.0420  158.8300   31.0410 C   0  0  0  0  0  0  0  0  0  0  0  0
   47.8820  158.7070   31.4280 O   0  0  0  0  0  0  0  0  0  0  0  0
   49.6500  157.8120   30.1530 C   0  0  0  0  0  0  0  0  0  0  0  0
   48.8540  156.7440   29.7800 O   0  0  0  0  0  0  0  0  0  0  0  0
   51.6320  155.6630   29.0970 C   0  0  0  0  0  0  0  0  0  0  0  0
   52.3170  154.7610   28.2540 C   0  0  0  0  0  0  0  0  0  0  0  0
   52.2610  153.2820   28.5690 C   0  0  0  0  0  0  0  0  0  0  0  0
   51.6930  152.5310   27.5810 F   0  0  0  0  0  0  0  0  0  0  0  0
   53.4940  152.7420   28.7780 F   0  0  0  0  0  0  0  0  0  0  0  0
   51.5370  153.0070   29.6910 F   0  0  0  0  0  0  0  0  0  0  0  0
   54.0638  152.0223   25.4968 H   0  0  0  0  0  0  0  0  0  0  0  0
   53.3016  151.2994   24.0397 H   0  0  0  0  0  0  0  0  0  0  0  0
   55.0571  151.6804   24.0397 H   0  0  0  0  0  0  0  0  0  0  0  0
   53.1960  153.2460   23.0500 H   0  0  0  0  0  0  0  0  0  0  0  0
   55.5596  154.3020   24.4664 H   0  0  0  0  0  0  0  0  0  0  0  0
   55.6661  153.3396   22.9534 H   0  0  0  0  0  0  0  0  0  0  0  0
   54.8157  154.9219   22.9534 H   0  0  0  0  0  0  0  0  0  0  0  0
   52.8057  155.1326   24.4103 H   0  0  0  0  0  0  0  0  0  0  0  0
   52.1051  153.5985   25.1059 H   0  0  0  0  0  0  0  0  0  0  0  0
   53.9610  153.4055   26.6606 H   0  0  0  0  0  0  0  0  0  0  0  0
   54.7374  154.8790   25.9407 H   0  0  0  0  0  0  0  0  0  0  0  0
   53.5632  157.0563   26.0367 H   0  0  0  0  0  0  0  0  0  0  0  0
   52.3556  158.6092   27.5498 H   0  0  0  0  0  0  0  0  0  0  0  0
   53.0270  161.1542   30.8928 H   0  0  0  0  0  0  0  0  0  0  0  0
   52.1676  162.9571   32.3917 H   0  0  0  0  0  0  0  0  0  0  0  0
   49.8364  162.8413   33.2759 H   0  0  0  0  0  0  0  0  0  0  0  0
   47.9210  160.4390   33.5230 H   0  0  0  0  0  0  0  0  0  0  0  0
   48.4950  156.7070   28.9150 H   0  0  0  0  0  0  0  0  0  0  0  0
   51.0889  155.2711   29.9696 H   0  0  0  0  0  0  0  0  0  0  0  0
  1  2  1  0
  2  3  1  0
  2  4  1  0
  4  5  1  0
  5  6  1  0
  6  7  2  0
  7  8  1  0
  8  9  2  0
  9 10  1  0
 10 11  1  0
 11 12  1  0
 12 13  2  0
 13 14  1  0
 14 15  2  0
 15 16  1  0
 16 17  1  0
 16 18  2  0
 18 19  1  0
 19 20  2  0
 19 21  1  0
 21 22  1  0
  9 23  1  0
 23 24  2  0
 24 25  1  0
 25 26  1  0
 25 27  1  0
 25 28  1  0
 24  6  1  0
 21 10  2  0
 18 12  1  0
  1 29  1  0
  1 30  1  0
  1 31  1  0
  2 32  1  0
  3 33  1  0
  3 34  1  0
  3 35  1  0
  4 36  1  0
  4 37  1  0
  5 38  1  0
  5 39  1  0
  7 40  1  0
  8 41  1  0
 13 42  1  0
 14 43  1  0
 15 44  1  0
 17 45  1  0
 22 46  1  0
 23 47  1  0
M  CHG  1   2   1
M  END
>  <meeko>  (8) 
{"is_sidechain": [false], "free_energy": -8.728, "intermolecular_energy": -11.456, "internal_energy": -0.492}

$$$$
cand_024_out
     RDKit          3D

 47 49  0  0  0  0  0  0  0  0999 V2000
   49.8280  161.5540   32.3280 C   0  0  0  0  0  0  0  0  0  0  0  0
   49.2680  161.4640   30.9770 N   0  0  0  0  0  0  0  0  0  0  0  0
   47.9340  160.8580   31.0420 C   0  0  0  0  0  0  0  0  0  0  0  0
   50.1330  160.6760   30.0770 C   0  0  0  0  0  0  0  0  0  0  0  0
   50.9540  159.6020   30.8130 C   0  0  0  0  0  0  0  0  0  0  0  0
   51.3690  158.4740   29.8850 C   0  0  0  0  0  0  0  0  0  0  0  0
   52.6710  158.4960   29.3560 C   0  0  0  0  0  0  0  0  0  0  0  0
   53.1110  157.4940   28.4880 C   0  0  0  0  0  0  0  0  0  0  0  0
   52.2670  156.4380   28.1290 C   0  0  0  0  0  0  0  0  0  0  0  0
   52.7480  155.3970   27.1950 C   0  0  0  0  0  0  0  0  0  0  0  0
   52.2900  154.1260   27.5190 O   0  0  0  0  0  0  0  0  0  0  0  0
   52.6610  153.0670   26.7300 C   0  0  0  0  0  0  0  0  0  0  0  0
   52.1920  151.8060   27.1010 C   0  0  0  0  0  0  0  0  0  0  0  0
   52.5310  150.6850   26.3400 C   0  0  0  0  0  0  0  0  0  0  0  0
   53.3400  150.8250   25.2110 C   0  0  0  0  0  0  0  0  0  0  0  0
   53.8070  152.0840   24.8430 C   0  0  0  0  0  0  0  0  0  0  0  0
   54.5940  152.1490   23.7260 O   0  0  0  0  0  0  0  0  0  0  0  0
   53.4680  153.2050   25.6050 C   0  0  0  0  0  0  0  0  0  0  0  0
   53.9380  154.5460   25.2530 C   0  0  0  0  0  0  0  0  0  0  0  0
   54.6460  154.7520   24.2710 O   0  0  0  0  0  0  0  0  0  0  0  0
   53.5270  155.6660   26.1310 C   0  0  0  0  0  0  0  0  0  0  0  0
   53.9640  156.9320   25.7850 O   0  0  0  0  0  0  0  0  0  0  0  0
   50.9640  156.4220   28.6450 C   0  0  0  0  0  0  0  0  0  0  0  0
   50.4960  157.4260   29.5210 C   0  0  0  0  0  0  0  0  0  0  0  0
   49.0830  157.3270   30.0540 C   0  0  0  0  0  0  0  0  0  0  0  0
   48.5540  156.0720   29.9790 F   0  0  0  0  0  0  0  0  0  0  0  0
   48.9900  157.6870   31.3650 F   0  0  0  0  0  0  0  0  0  0  0  0
   48.2070  158.1280   29.3830 F   0  0  0  0  0  0  0  0  0  0  0  0
   49.0240  161.4248   33.0675 H   0  0  0  0  0  0  0  0  0  0  0  0
   50.5827  160.7656   32.4654 H   0  0  0  0  0  0  0  0  0  0  0  0
   50.2977  162.5392   32.4654 H   0  0  0  0  0  0  0  0  0  0  0  0
   49.2040  162.4090   30.5950 H   0  0  0  0  0  0  0  0  0  0  0  0
   47.6423  160.7255   32.0943 H   0  0  0  0  0  0  0  0  0  0  0  0
   47.2081  161.5147   30.5402 H   0  0  0  0  0  0  0  0  0  0  0  0
   47.9510  159.8793   30.5402 H   0  0  0  0  0  0  0  0  0  0  0  0
   49.4984  160.1791   29.3285 H   0  0  0  0  0  0  0  0  0  0  0  0
   50.8468  161.3740   29.6152 H   0  0  0  0  0  0  0  0  0  0  0  0
   51.8576  160.0694   31.2314 H   0  0  0  0  0  0  0  0  0  0  0  0
   50.3244  159.1761   31.6081 H   0  0  0  0  0  0  0  0  0  0  0  0
   53.3534  159.3142   29.6295 H   0  0  0  0  0  0  0  0  0  0  0  0
   54.1326  157.5359   28.0823 H   0  0  0  0  0  0  0  0  0  0  0  0
   51.5561  151.6951   27.9917 H   0  0  0  0  0  0  0  0  0  0  0  0
   52.1602  149.6910   26.6305 H   0  0  0  0  0  0  0  0  0  0  0  0
   53.6082  149.9417   24.6128 H   0  0  0  0  0  0  0  0  0  0  0  0
   55.4100  152.6090   23.7540 H   0  0  0  0  0  0  0  0  0  0  0  0
   54.3640  157.4820   26.4300 H   0  0  0  0  0  0  0  0  0  0  0  0
   50.2864  155.6039   28.3595 H   0  0  0  0  0  0  0  0  0  0  0  0
  1  2  1  0
  2  3  1  0
  2  4  1  0
  4  5  1  0
  5  6  1  0
  6  7  2  0
  7  8  1  0
  8  9  2  0
  9 10  1  0
 10 11  1  0
 11 12  1  0
 12 13  2  0
 13 14  1  0
 14 15  2  0
 15 16  1  0
 16 17  1  0
 16 18  2  0
 18 19  1  0
 19 20  2  0
 19 21  1  0
 21 22  1  0
  9 23  1  0
 23 24  2  0
 24 25  1  0
 25 26  1  0
 25 27  1  0
 25 28  1  0
 24  6  1  0
 21 10  2  0
 18 12  1  0
  1 29  1  0
  1 30  1  0
  1 31  1  0
  2 32  1  0
  3 33  1  0
  3 34  1  0
  3 35  1  0
  4 36  1  0
  4 37  1  0
  5 38  1  0
  5 39  1  0
  7 40  1  0
  8 41  1  0
 13 42  1  0
 14 43  1  0
 15 44  1  0
 17 45  1  0
 22 46  1  0
 23 47  1  0
M  CHG  1   2   1
M  END
>  <meeko>  (9) 
{"is_sidechain": [false], "free_energy": -8.014, "intermolecular_energy": -10.786, "internal_energy": -0.198}

$$$$
