cand_006_out
     RDKit          3D

 47 50  0  0  0  0  0  0  0  0999 V2000
   52.2910  152.4340   27.2450 C   0  0  0  0  0  0  0  0  0  0  0  0
   52.0460  153.7890   27.8530 C   0  0  0  0  0  0  0  0  0  0  0  0
   51.3600  153.8900   29.0710 C   0  0  0  0  0  0  0  0  0  0  0  0
   51.1250  155.1350   29.6550 C   0  0  0  0  0  0  0  0  0  0  0  0
   51.5760  156.3090   29.0390 C   0  0  0  0  0  0  0  0  0  0  0  0
   51.2950  157.6210   29.6600 C   0  0  0  0  0  0  0  0  0  0  0  0
   50.0010  157.7160   30.1600 O   0  0  0  0  0  0  0  0  0  0  0  0
   49.6070  158.8810   30.7660 C   0  0  0  0  0  0  0  0  0  0  0  0
   48.2950  158.9370   31.2390 C   0  0  0  0  0  0  0  0  0  0  0  0
   47.8300  160.0950   31.8670 C   0  0  0  0  0  0  0  0  0  0  0  0
   48.6760  161.1950   32.0220 C   0  0  0  0  0  0  0  0  0  0  0  0
   49.9840  161.1360   31.5490 C   0  0  0  0  0  0  0  0  0  0  0  0
   50.7580  162.2490   31.7340 O   0  0  0  0  0  0  0  0  0  0  0  0
   50.4490  159.9780   30.9190 C   0  0  0  0  0  0  0  0  0  0  0  0
   51.8160  159.8750   30.4080 C   0  0  0  0  0  0  0  0  0  0  0  0
   52.6220  160.7970   30.5120 O   0  0  0  0  0  0  0  0  0  0  0  0
   52.2070  158.6060   29.7500 C   0  0  0  0  0  0  0  0  0  0  0  0
   53.5060  158.5160   29.2830 O   0  0  0  0  0  0  0  0  0  0  0  0
   52.2520  156.2040   27.8140 C   0  0  0  0  0  0  0  0  0  0  0  0
   52.5000  154.9570   27.2110 C   0  0  0  0  0  0  0  0  0  0  0  0
   53.1930  154.8410   25.9830 N   0  0  0  0  0  0  0  0  0  0  0  0
   54.0580  153.6500   25.9440 C   0  0  0  0  0  0  0  0  0  0  0  0
   54.5870  153.4660   24.5210 C   0  0  0  0  0  0  0  0  0  0  0  0
   55.3040  154.7240   24.0310 C   0  0  0  0  0  0  0  0  0  0  0  0
   54.4090  155.9550   24.1800 C   0  0  0  0  0  0  0  0  0  0  0  0
   53.8840  156.0850   25.6100 C   0  0  0  0  0  0  0  0  0  0  0  0
   52.4252  151.6917   28.0456 H   0  0  0  0  0  0  0  0  0  0  0  0
   51.4296  152.1502   26.6225 H   0  0  0  0  0  0  0  0  0  0  0  0
   53.1972  152.4698   26.6225 H   0  0  0  0  0  0  0  0  0  0  0  0
   51.0031  152.9779   29.5718 H   0  0  0  0  0  0  0  0  0  0  0  0
   50.5801  155.1951   30.6087 H   0  0  0  0  0  0  0  0  0  0  0  0
   47.6282  158.0706   31.1175 H   0  0  0  0  0  0  0  0  0  0  0  0
   46.7961  160.1403   32.2399 H   0  0  0  0  0  0  0  0  0  0  0  0
   48.3096  162.1065   32.5169 H   0  0  0  0  0  0  0  0  0  0  0  0
   50.4000  163.0040   32.1560 H   0  0  0  0  0  0  0  0  0  0  0  0
   53.6660  158.3070   28.3840 H   0  0  0  0  0  0  0  0  0  0  0  0
   52.5970  157.1200   27.3121 H   0  0  0  0  0  0  0  0  0  0  0  0
   54.9018  153.7841   26.6368 H   0  0  0  0  0  0  0  0  0  0  0  0
   53.4822  152.7622   26.2444 H   0  0  0  0  0  0  0  0  0  0  0  0
   55.2926  152.6223   24.5068 H   0  0  0  0  0  0  0  0  0  0  0  0
   53.7340  153.2694   23.8549 H   0  0  0  0  0  0  0  0  0  0  0  0
   56.2195  154.8705   24.6230 H   0  0  0  0  0  0  0  0  0  0  0  0
   55.5511  154.5958   22.9668 H   0  0  0  0  0  0  0  0  0  0  0  0
   54.9902  156.8542   23.9277 H   0  0  0  0  0  0  0  0  0  0  0  0
   53.5501  155.8463   23.5014 H   0  0  0  0  0  0  0  0  0  0  0  0
   54.7252  156.2595   26.2970 H   0  0  0  0  0  0  0  0  0  0  0  0
   53.1841  156.9313   25.6728 H   0  0  0  0  0  0  0  0  0  0  0  0
  1  2  1  0
  2  3  2  0
  3  4  1  0
  4  5  2  0
  5  6  1  0
  6  7  1  0
  7  8  1  0
  8  9  2  0
  9 10  1  0
 10 11  2  0
 11 12  1  0
 12 13  1  0
 12 14  2  0
 14 15  1  0
 15 16  2  0
 15 17  1  0
 17 18  1  0
  5 19  1  0
 19 20  2  0
 20 21  1  0
 21 22  1  0
 22 23  1  0
 23 24  1  0
 24 25  1  0
 25 26  1  0
 20  2  1  0
 26 21  1  0
 17  6  2  0
 14  8  1  0
  1 27  1  0
  1 28  1  0
  1 29  1  0
  3 30  1  0
  4 31  1  0
  9 32  1  0
 10 33  1  0
 11 34  1  0
 13 35  1  0
 18 36  1  0
 19 37  1  0
 22 38  1  0
 22 39  1  0
 23 40  1  0
 23 41  1  0
 24 42  1  0
 24 43  1  0
 25 44  1  0
 25 45  1  0
 26 46  1  0
 26 47  1  0
M  END
>  <meeko>  (1) 
{"is_sidechain": [false], "free_energy": -10.603, "intermolecular_energy": -12.462, "internal_energy": 0.915}

$$$$
cand_006_out
     RDKit          3D

 47 50  0  0  0  0  0  0  0  0999 V2000
   51.7500  161.4340   31.1470 C   0  0  0  0  0  0  0  0  0  0  0  0
   51.8510  160.0920   30.4730 C   0  0  0  0  0  0  0  0  0  0  0  0
   53.0910  159.6450   29.9960 C   0  0  0  0  0  0  0  0  0  0  0  0
   53.2070  158.4030   29.3710 C   0  0  0  0  0  0  0  0  0  0  0  0
   52.0900  157.5750   29.2130 C   0  0  0  0  0  0  0  0  0  0  0  0
   52.2290  156.2740   28.5260 C   0  0  0  0  0  0  0  0  0  0  0  0
   52.7830  156.3900   27.2550 O   0  0  0  0  0  0  0  0  0  0  0  0
   52.9700  155.2570   26.5060 C   0  0  0  0  0  0  0  0  0  0  0  0
   53.5150  155.4230   25.2320 C   0  0  0  0  0  0  0  0  0  0  0  0
   53.7320  154.3100   24.4170 C   0  0  0  0  0  0  0  0  0  0  0  0
   53.4060  153.0320   24.8760 C   0  0  0  0  0  0  0  0  0  0  0  0
   52.8630  152.8690   26.1480 C   0  0  0  0  0  0  0  0  0  0  0  0
   52.5670  151.5910   26.5340 O   0  0  0  0  0  0  0  0  0  0  0  0
   52.6440  153.9840   26.9630 C   0  0  0  0  0  0  0  0  0  0  0  0
   52.0760  153.8570   28.3050 C   0  0  0  0  0  0  0  0  0  0  0  0
   51.7690  152.7670   28.7830 O   0  0  0  0  0  0  0  0  0  0  0  0
   51.8770  155.1010   29.0850 C   0  0  0  0  0  0  0  0  0  0  0  0
   51.3510  154.9670   30.3570 O   0  0  0  0  0  0  0  0  0  0  0  0
   50.8490  158.0310   29.6820 C   0  0  0  0  0  0  0  0  0  0  0  0
   50.7110  159.2790   30.3170 C   0  0  0  0  0  0  0  0  0  0  0  0
   49.4670  159.7410   30.8050 N   0  0  0  0  0  0  0  0  0  0  0  0
   49.4720  159.9110   32.2670 C   0  0  0  0  0  0  0  0  0  0  0  0
   48.1870  160.6250   32.6900 C   0  0  0  0  0  0  0  0  0  0  0  0
   46.9500  159.8770   32.1940 C   0  0  0  0  0  0  0  0  0  0  0  0
   47.0280  159.6320   30.6870 C   0  0  0  0  0  0  0  0  0  0  0  0
   48.3370  158.9390   30.3080 C   0  0  0  0  0  0  0  0  0  0  0  0
   51.7602  161.2978   32.2385 H   0  0  0  0  0  0  0  0  0  0  0  0
   52.6036  162.0599   30.8475 H   0  0  0  0  0  0  0  0  0  0  0  0
   50.8124  161.9251   30.8475 H   0  0  0  0  0  0  0  0  0  0  0  0
   53.9814  160.2797   30.1156 H   0  0  0  0  0  0  0  0  0  0  0  0
   54.1873  158.0710   28.9984 H   0  0  0  0  0  0  0  0  0  0  0  0
   53.7733  156.4292   24.8703 H   0  0  0  0  0  0  0  0  0  0  0  0
   54.1603  154.4401   23.4122 H   0  0  0  0  0  0  0  0  0  0  0  0
   53.5778  152.1555   24.2339 H   0  0  0  0  0  0  0  0  0  0  0  0
   52.7630  151.3080   27.4050 H   0  0  0  0  0  0  0  0  0  0  0  0
   50.4250  154.8910   30.4750 H   0  0  0  0  0  0  0  0  0  0  0  0
   49.9604  157.3962   29.5498 H   0  0  0  0  0  0  0  0  0  0  0  0
   49.5232  158.9253   32.7527 H   0  0  0  0  0  0  0  0  0  0  0  0
   50.3453  160.5080   32.5686 H   0  0  0  0  0  0  0  0  0  0  0  0
   48.1542  160.6842   33.7879 H   0  0  0  0  0  0  0  0  0  0  0  0
   48.1861  161.6318   32.2470 H   0  0  0  0  0  0  0  0  0  0  0  0
   46.8820  158.9095   32.7130 H   0  0  0  0  0  0  0  0  0  0  0  0
   46.0610  160.4896   32.4048 H   0  0  0  0  0  0  0  0  0  0  0  0
   46.1837  158.9960   30.3824 H   0  0  0  0  0  0  0  0  0  0  0  0
   46.9860  160.6036   30.1729 H   0  0  0  0  0  0  0  0  0  0  0  0
   48.3684  157.9373   30.7615 H   0  0  0  0  0  0  0  0  0  0  0  0
   48.4028  158.8431   29.2142 H   0  0  0  0  0  0  0  0  0  0  0  0
  1  2  1  0
  2  3  2  0
  3  4  1  0
  4  5  2  0
  5  6  1  0
  6  7  1  0
  7  8  1  0
  8  9  2  0
  9 10  1  0
 10 11  2  0
 11 12  1  0
 12 13  1  0
 12 14  2  0
 14 15  1  0
 15 16  2  0
 15 17  1  0
 17 18  1  0
  5 19  1  0
 19 20  2  0
 20 21  1  0
 21 22  1  0
 22 23  1  0
 23 24  1  0
 24 25  1  0
 25 26  1  0
 20  2  1  0
 26 21  1  0
 17  6  2  0
 14  8  1  0
  1 27  1  0
  1 28  1  0
  1 29  1  0
  3 30  1  0
  4 31  1  0
  9 32  1  0
 10 33  1  0
 11 34  1  0
 13 35  1  0
 18 36  1  0
 19 37  1  0
 22 38  1  0
 22 39  1  0
 23 40  1  0
 23 41  1  0
 24 42  1  0
 24 43  1  0
 25 44  1  0
 25 45  1  0
 26 46  1  0
 26 47  1  0
M  END
>  <meeko>  (2) 
{"is_sidechain": [false], "free_energy": -10.316, "intermolecular_energy": -11.191, "internal_energy": -0.02}

$$$$
cand_006_out
     RDKit          3D

 47 50  0  0  0  0  0  0  0  0999 V2000
   53.1940  152.5950   27.3480 C   0  0  0  0  0  0  0  0  0  0  0  0
   52.5960  153.8410   27.9430 C   0  0  0  0  0  0  0  0  0  0  0  0
   51.7590  153.7440   29.0620 C   0  0  0  0  0  0  0  0  0  0  0  0
   51.1970  154.8870   29.6320 C   0  0  0  0  0  0  0  0  0  0  0  0
   51.4630  156.1550   29.1010 C   0  0  0  0  0  0  0  0  0  0  0  0
   50.8370  157.3510   29.7030 C   0  0  0  0  0  0  0  0  0  0  0  0
   51.7570  158.3530   29.9950 O   0  0  0  0  0  0  0  0  0  0  0  0
   51.3100  159.5210   30.5570 C   0  0  0  0  0  0  0  0  0  0  0  0
   52.2700  160.4920   30.8470 C   0  0  0  0  0  0  0  0  0  0  0  0
   51.8830  161.7050   31.4200 C   0  0  0  0  0  0  0  0  0  0  0  0
   50.5370  161.9470   31.7020 C   0  0  0  0  0  0  0  0  0  0  0  0
   49.5810  160.9770   31.4120 C   0  0  0  0  0  0  0  0  0  0  0  0
   48.2820  161.2800   31.7140 O   0  0  0  0  0  0  0  0  0  0  0  0
   49.9700  159.7620   30.8400 C   0  0  0  0  0  0  0  0  0  0  0  0
   48.9980  158.7160   30.5190 C   0  0  0  0  0  0  0  0  0  0  0  0
   47.7950  158.8570   30.7320 O   0  0  0  0  0  0  0  0  0  0  0  0
   49.5140  157.4620   29.9220 C   0  0  0  0  0  0  0  0  0  0  0  0
   48.5840  156.4860   29.6110 O   0  0  0  0  0  0  0  0  0  0  0  0
   52.2920  156.2460   27.9740 C   0  0  0  0  0  0  0  0  0  0  0  0
   52.8700  155.1060   27.3860 C   0  0  0  0  0  0  0  0  0  0  0  0
   53.7190  155.1900   26.2580 N   0  0  0  0  0  0  0  0  0  0  0  0
   53.7750  156.5540   25.7060 C   0  0  0  0  0  0  0  0  0  0  0  0
   54.8770  156.6180   24.6470 C   0  0  0  0  0  0  0  0  0  0  0  0
   54.6660  155.5590   23.5650 C   0  0  0  0  0  0  0  0  0  0  0  0
   54.5120  154.1700   24.1840 C   0  0  0  0  0  0  0  0  0  0  0  0
   53.4180  154.1590   25.2520 C   0  0  0  0  0  0  0  0  0  0  0  0
   53.5172  151.9217   28.1556 H   0  0  0  0  0  0  0  0  0  0  0  0
   52.4413  152.0876   26.7267 H   0  0  0  0  0  0  0  0  0  0  0  0
   54.0607  152.8648   26.7267 H   0  0  0  0  0  0  0  0  0  0  0  0
   51.5425  152.7566   29.4959 H   0  0  0  0  0  0  0  0  0  0  0  0
   50.5381  154.7909   30.5076 H   0  0  0  0  0  0  0  0  0  0  0  0
   53.3303  160.3017   30.6243 H   0  0  0  0  0  0  0  0  0  0  0  0
   52.6389  162.4705   31.6494 H   0  0  0  0  0  0  0  0  0  0  0  0
   50.2322  162.9030   32.1528 H   0  0  0  0  0  0  0  0  0  0  0  0
   47.9730  161.1950   32.5940 H   0  0  0  0  0  0  0  0  0  0  0  0
   47.7510  156.4810   30.0380 H   0  0  0  0  0  0  0  0  0  0  0  0
   52.4959  157.2350   27.5379 H   0  0  0  0  0  0  0  0  0  0  0  0
   52.8076  156.8062   25.2472 H   0  0  0  0  0  0  0  0  0  0  0  0
   53.9910  157.2720   26.5109 H   0  0  0  0  0  0  0  0  0  0  0  0
   54.8689  157.6142   24.1805 H   0  0  0  0  0  0  0  0  0  0  0  0
   55.8429  156.4272   25.1375 H   0  0  0  0  0  0  0  0  0  0  0  0
   53.7570  155.8023   22.9954 H   0  0  0  0  0  0  0  0  0  0  0  0
   55.5443  155.5533   22.9028 H   0  0  0  0  0  0  0  0  0  0  0  0
   54.2488  153.4520   23.3933 H   0  0  0  0  0  0  0  0  0  0  0  0
   55.4648  153.8924   24.6584 H   0  0  0  0  0  0  0  0  0  0  0  0
   52.4450  154.3723   24.7853 H   0  0  0  0  0  0  0  0  0  0  0  0
   53.3790  153.1707   25.7334 H   0  0  0  0  0  0  0  0  0  0  0  0
  1  2  1  0
  2  3  2  0
  3  4  1  0
  4  5  2  0
  5  6  1  0
  6  7  1  0
  7  8  1  0
  8  9  2  0
  9 10  1  0
 10 11  2  0
 11 12  1  0
 12 13  1  0
 12 14  2  0
 14 15  1  0
 15 16  2  0
 15 17  1  0
 17 18  1  0
  5 19  1  0
 19 20  2  0
 20 21  1  0
 21 22  1  0
 22 23  1  0
 23 24  1  0
 24 25  1  0
 25 26  1  0
 20  2  1  0
 26 21  1  0
 17  6  2  0
 14  8  1  0
  1 27  1  0
  1 28  1  0
  1 29  1  0
  3 30  1  0
  4 31  1  0
  9 32  1  0
 10 33  1  0
 11 34  1  0
 13 35  1  0
 18 36  1  0
 19 37  1  0
 22 38  1  0
 22 39  1  0
 23 40  1  0
 23 41  1  0
 24 42  1  0
 24 43  1  0
 25 44  1  0
 25 45  1  0
 26 46  1  0
 26 47  1  0
M  END
>  <meeko>  (3) 
{"is_sidechain": [false], "free_energy": -8.929, "intermolecular_energy": -10.211, "internal_energy": 0.631}

$$$$
cand_006_out
     RDKit          3D

 47 50  0  0  0  0  0  0  0  0999 V2000
   48.6370  160.0280   31.5800 C   0  0  0  0  0  0  0  0  0  0  0  0
   49.4590  159.0370   30.8010 C   0  0  0  0  0  0  0  0  0  0  0  0
   48.9200  157.7830   30.4870 C   0  0  0  0  0  0  0  0  0  0  0  0
   49.6640  156.8500   29.7620 C   0  0  0  0  0  0  0  0  0  0  0  0
   50.9600  157.1510   29.3300 C   0  0  0  0  0  0  0  0  0  0  0  0
   51.7410  156.1400   28.5850 C   0  0  0  0  0  0  0  0  0  0  0  0
   52.2470  156.6250   27.3840 O   0  0  0  0  0  0  0  0  0  0  0  0
   52.9940  155.7900   26.5930 C   0  0  0  0  0  0  0  0  0  0  0  0
   53.4690  156.3150   25.3900 C   0  0  0  0  0  0  0  0  0  0  0  0
   54.2360  155.5180   24.5370 C   0  0  0  0  0  0  0  0  0  0  0  0
   54.5290  154.1990   24.8880 C   0  0  0  0  0  0  0  0  0  0  0  0
   54.0540  153.6780   26.0890 C   0  0  0  0  0  0  0  0  0  0  0  0
   54.3790  152.3790   26.3700 O   0  0  0  0  0  0  0  0  0  0  0  0
   53.2850  154.4760   26.9410 C   0  0  0  0  0  0  0  0  0  0  0  0
   52.7670  153.9680   28.2120 C   0  0  0  0  0  0  0  0  0  0  0  0
   52.9870  152.8200   28.5940 O   0  0  0  0  0  0  0  0  0  0  0  0
   51.9560  154.8910   29.0390 C   0  0  0  0  0  0  0  0  0  0  0  0
   51.4820  154.4040   30.2440 O   0  0  0  0  0  0  0  0  0  0  0  0
   51.5000  158.4040   29.6560 C   0  0  0  0  0  0  0  0  0  0  0  0
   50.7650  159.3590   30.3840 C   0  0  0  0  0  0  0  0  0  0  0  0
   51.2960  160.6290   30.7060 N   0  0  0  0  0  0  0  0  0  0  0  0
   52.7230  160.7390   30.3600 C   0  0  0  0  0  0  0  0  0  0  0  0
   53.1640  162.1950   30.5180 C   0  0  0  0  0  0  0  0  0  0  0  0
   52.8630  162.7140   31.9240 C   0  0  0  0  0  0  0  0  0  0  0  0
   51.3940  162.4920   32.2840 C   0  0  0  0  0  0  0  0  0  0  0  0
   50.9920  161.0300   32.0890 C   0  0  0  0  0  0  0  0  0  0  0  0
   48.7795  159.8562   32.6571 H   0  0  0  0  0  0  0  0  0  0  0  0
   48.9566  161.0495   31.3261 H   0  0  0  0  0  0  0  0  0  0  0  0
   47.5741  159.9027   31.3261 H   0  0  0  0  0  0  0  0  0  0  0  0
   47.9007  157.5307   30.8147 H   0  0  0  0  0  0  0  0  0  0  0  0
   49.2265  155.8682   29.5281 H   0  0  0  0  0  0  0  0  0  0  0  0
   53.2396  157.3549   25.1141 H   0  0  0  0  0  0  0  0  0  0  0  0
   54.6094  155.9300   23.5879 H   0  0  0  0  0  0  0  0  0  0  0  0
   55.1343  153.5720   24.2168 H   0  0  0  0  0  0  0  0  0  0  0  0
   54.6920  151.8170   25.6900 H   0  0  0  0  0  0  0  0  0  0  0  0
   51.8680  154.6900   31.0480 H   0  0  0  0  0  0  0  0  0  0  0  0
   52.5237  158.6466   29.3347 H   0  0  0  0  0  0  0  0  0  0  0  0
   53.3153  160.0996   31.0310 H   0  0  0  0  0  0  0  0  0  0  0  0
   52.8790  160.4146   29.3206 H   0  0  0  0  0  0  0  0  0  0  0  0
   54.2463  162.2641   30.3340 H   0  0  0  0  0  0  0  0  0  0  0  0
   52.6077  162.8081   29.7937 H   0  0  0  0  0  0  0  0  0  0  0  0
   53.4960  162.1803   32.6482 H   0  0  0  0  0  0  0  0  0  0  0  0
   53.0729  163.7934   31.9528 H   0  0  0  0  0  0  0  0  0  0  0  0
   51.2365  162.7701   33.3365 H   0  0  0  0  0  0  0  0  0  0  0  0
   50.7750  163.1149   31.6215 H   0  0  0  0  0  0  0  0  0  0  0  0
   51.5560  160.3961   32.7891 H   0  0  0  0  0  0  0  0  0  0  0  0
   49.9154  160.9121   32.2816 H   0  0  0  0  0  0  0  0  0  0  0  0
  1  2  1  0
  2  3  2  0
  3  4  1  0
  4  5  2  0
  5  6  1  0
  6  7  1  0
  7  8  1  0
  8  9  2  0
  9 10  1  0
 10 11  2  0
 11 12  1  0
 12 13  1  0
 12 14  2  0
 14 15  1  0
 15 16  2  0
 15 17  1  0
 17 18  1  0
  5 19  1  0
 19 20  2  0
 20 21  1  0
 21 22  1  0
 22 23  1  0
 23 24  1  0
 24 25  1  0
 25 26  1  0
 20  2  1  0
 26 21  1  0
 17  6  2  0
 14  8  1  0
  1 27  1  0
  1 28  1  0
  1 29  1  0
  3 30  1  0
  4 31  1  0
  9 32  1  0
 10 33  1  0
 11 34  1  0
 13 35  1  0
 18 36  1  0
 19 37  1  0
 22 38  1  0
 22 39  1  0
 23 40  1  0
 23 41  1  0
 24 42  1  0
 24 43  1  0
 25 44  1  0
 25 45  1  0
 26 46  1  0
 26 47  1  0
M  END
>  <meeko>  (4) 
{"is_sidechain": [false], "free_energy": -8.849, "intermolecular_energy": -10.132, "internal_energy": 0.646}

$$$$
cand_006_out
     RDKit          3D

 47 50  0  0  0  0  0  0  0  0999 V2000
   55.0950  153.9590   24.1240 C   0  0  0  0  0  0  0  0  0  0  0  0
   54.2410  154.6060   25.1800 C   0  0  0  0  0  0  0  0  0  0  0  0
   54.1720  156.0040   25.2570 C   0  0  0  0  0  0  0  0  0  0  0  0
   53.3840  156.6250   26.2270 C   0  0  0  0  0  0  0  0  0  0  0  0
   52.6410  155.8650   27.1380 C   0  0  0  0  0  0  0  0  0  0  0  0
   51.8310  156.5430   28.1730 C   0  0  0  0  0  0  0  0  0  0  0  0
   52.3510  157.7780   28.5440 O   0  0  0  0  0  0  0  0  0  0  0  0
   51.6970  158.5150   29.4960 C   0  0  0  0  0  0  0  0  0  0  0  0
   52.2630  159.7420   29.8480 C   0  0  0  0  0  0  0  0  0  0  0  0
   51.6470  160.5430   30.8120 C   0  0  0  0  0  0  0  0  0  0  0  0
   50.4650  160.1180   31.4220 C   0  0  0  0  0  0  0  0  0  0  0  0
   49.9020  158.8940   31.0700 C   0  0  0  0  0  0  0  0  0  0  0  0
   48.7440  158.5410   31.7070 O   0  0  0  0  0  0  0  0  0  0  0  0
   50.5210  158.0920   30.1060 C   0  0  0  0  0  0  0  0  0  0  0  0
   49.9620  156.8000   29.7070 C   0  0  0  0  0  0  0  0  0  0  0  0
   48.9220  156.3610   30.1930 O   0  0  0  0  0  0  0  0  0  0  0  0
   50.6990  156.0230   28.6820 C   0  0  0  0  0  0  0  0  0  0  0  0
   50.1540  154.8090   28.3030 O   0  0  0  0  0  0  0  0  0  0  0  0
   52.7210  154.4670   27.0640 C   0  0  0  0  0  0  0  0  0  0  0  0
   53.5090  153.8220   26.0930 C   0  0  0  0  0  0  0  0  0  0  0  0
   53.5850  152.4130   26.0020 N   0  0  0  0  0  0  0  0  0  0  0  0
   54.1990  151.9690   24.7390 C   0  0  0  0  0  0  0  0  0  0  0  0
   54.4590  150.4640   24.8130 C   0  0  0  0  0  0  0  0  0  0  0  0
   53.1770  149.6980   25.1400 C   0  0  0  0  0  0  0  0  0  0  0  0
   52.5170  150.2520   26.4020 C   0  0  0  0  0  0  0  0  0  0  0  0
   52.2990  151.7610   26.2940 C   0  0  0  0  0  0  0  0  0  0  0  0
   55.8834  153.3617   24.6052 H   0  0  0  0  0  0  0  0  0  0  0  0
   54.4706  153.3052   23.4973 H   0  0  0  0  0  0  0  0  0  0  0  0
   55.5554  154.7370   23.4973 H   0  0  0  0  0  0  0  0  0  0  0  0
   54.7446  156.6175   24.5459 H   0  0  0  0  0  0  0  0  0  0  0  0
   53.3463  157.7233   26.2762 H   0  0  0  0  0  0  0  0  0  0  0  0
   53.1933  160.0774   29.3664 H   0  0  0  0  0  0  0  0  0  0  0  0
   52.0931  161.5090   31.0909 H   0  0  0  0  0  0  0  0  0  0  0  0
   49.9789  160.7497   32.1801 H   0  0  0  0  0  0  0  0  0  0  0  0
   48.2820  159.1710   32.2210 H   0  0  0  0  0  0  0  0  0  0  0  0
   49.4260  154.7860   27.7150 H   0  0  0  0  0  0  0  0  0  0  0  0
   52.1531  153.8589   27.7836 H   0  0  0  0  0  0  0  0  0  0  0  0
   53.5183  152.1848   23.9023 H   0  0  0  0  0  0  0  0  0  0  0  0
   55.1478  152.5023   24.5798 H   0  0  0  0  0  0  0  0  0  0  0  0
   54.8462  150.1185   23.8431 H   0  0  0  0  0  0  0  0  0  0  0  0
   55.1913  150.2754   25.6118 H   0  0  0  0  0  0  0  0  0  0  0  0
   52.4768  149.7914   24.2968 H   0  0  0  0  0  0  0  0  0  0  0  0
   53.4329  148.6421   25.3121 H   0  0  0  0  0  0  0  0  0  0  0  0
   51.5445  149.7582   26.5448 H   0  0  0  0  0  0  0  0  0  0  0  0
   53.1805  150.0559   27.2572 H   0  0  0  0  0  0  0  0  0  0  0  0
   51.5860  151.9732   25.4837 H   0  0  0  0  0  0  0  0  0  0  0  0
   51.8949  152.1460   27.2419 H   0  0  0  0  0  0  0  0  0  0  0  0
  1  2  1  0
  2  3  2  0
  3  4  1  0
  4  5  2  0
  5  6  1  0
  6  7  1  0
  7  8  1  0
  8  9  2  0
  9 10  1  0
 10 11  2  0
 11 12  1  0
 12 13  1  0
 12 14  2  0
 14 15  1  0
 15 16  2  0
 15 17  1  0
 17 18  1  0
  5 19  1  0
 19 20  2  0
 20 21  1  0
 21 22  1  0
 22 23  1  0
 23 24  1  0
 24 25  1  0
 25 26  1  0
 20  2  1  0
 26 21  1  0
 17  6  2  0
 14  8  1  0
  1 27  1  0
  1 28  1  0
  1 29  1  0
  3 30  1  0
  4 31  1  0
  9 32  1  0
 10 33  1  0
 11 34  1  0
 13 35  1  0
 18 36  1  0
 19 37  1  0
 22 38  1  0
 22 39  1  0
 23 40  1  0
 23 41  1  0
 24 42  1  0
 24 43  1  0
 25 44  1  0
 25 45  1  0
 26 46  1  0
 26 47  1  0
M  END
>  <meeko>  (5) 
{"is_sidechain": [false], "free_energy": -7.737, "intermolecular_energy": -9.827, "internal_energy": 1.647}

$$$$
