cand_051_out
     RDKit          3D

 44 46  0  0  0  0  0  0  0  0999 V2000
   52.3930  160.9620   30.5490 C   0  0  0  0  0  0  0  0  0  0  0  0
   51.5100  159.7620   30.3430 C   0  0  0  0  0  0  0  0  0  0  0  0
   52.0360  158.6460   29.6640 C   0  0  0  0  0  0  0  0  0  0  0  0
   51.2710  157.4930   29.4310 C   0  0  0  0  0  0  0  0  0  0  0  0
   51.8580  156.3550   28.6920 C   0  0  0  0  0  0  0  0  0  0  0  0
   52.4180  156.7330   27.4770 O   0  0  0  0  0  0  0  0  0  0  0  0
   53.0000  155.7730   26.6870 C   0  0  0  0  0  0  0  0  0  0  0  0
   53.5370  156.1940   25.4700 C   0  0  0  0  0  0  0  0  0  0  0  0
   54.1450  155.2670   24.6200 C   0  0  0  0  0  0  0  0  0  0  0  0
   54.2170  153.9220   24.9870 C   0  0  0  0  0  0  0  0  0  0  0  0
   53.6810  153.5050   26.2030 C   0  0  0  0  0  0  0  0  0  0  0  0
   53.7860  152.1740   26.5000 O   0  0  0  0  0  0  0  0  0  0  0  0
   53.0710  154.4320   27.0530 C   0  0  0  0  0  0  0  0  0  0  0  0
   52.4950  154.0360   28.3380 C   0  0  0  0  0  0  0  0  0  0  0  0
   52.5260  152.8720   28.7340 O   0  0  0  0  0  0  0  0  0  0  0  0
   51.8650  155.0940   29.1620 C   0  0  0  0  0  0  0  0  0  0  0  0
   51.3370  154.7110   30.3810 O   0  0  0  0  0  0  0  0  0  0  0  0
   49.9460  157.4770   29.8730 C   0  0  0  0  0  0  0  0  0  0  0  0
   49.4070  158.5760   30.5460 C   0  0  0  0  0  0  0  0  0  0  0  0
   50.1760  159.7260   30.7950 C   0  0  0  0  0  0  0  0  0  0  0  0
   49.5250  160.8780   31.5340 C   0  0  0  0  0  0  0  0  0  0  0  0
   48.5800  160.4390   32.6720 C   0  0  0  0  0  0  0  0  0  0  0  0
   47.1790  160.1800   32.1100 C   0  0  0  0  0  0  0  0  0  0  0  0
   48.5000  161.4790   33.7920 C   0  0  0  0  0  0  0  0  0  0  0  0
   52.5241  161.1401   31.6265 H   0  0  0  0  0  0  0  0  0  0  0  0
   53.3738  160.7795   30.0856 H   0  0  0  0  0  0  0  0  0  0  0  0
   51.9270  161.8441   30.0856 H   0  0  0  0  0  0  0  0  0  0  0  0
   53.0757  158.6791   29.3063 H   0  0  0  0  0  0  0  0  0  0  0  0
   53.4817  157.2538   25.1804 H   0  0  0  0  0  0  0  0  0  0  0  0
   54.5678  155.5974   23.6598 H   0  0  0  0  0  0  0  0  0  0  0  0
   54.6962  153.1929   24.3170 H   0  0  0  0  0  0  0  0  0  0  0  0
   53.0460  151.7090   26.8370 H   0  0  0  0  0  0  0  0  0  0  0  0
   51.6300  153.9210   30.7910 H   0  0  0  0  0  0  0  0  0  0  0  0
   49.3211  156.5906   29.6893 H   0  0  0  0  0  0  0  0  0  0  0  0
   48.3619  158.5409   30.8873 H   0  0  0  0  0  0  0  0  0  0  0  0
   50.3191  161.5048   31.9661 H   0  0  0  0  0  0  0  0  0  0  0  0
   48.9099  161.4199   30.8005 H   0  0  0  0  0  0  0  0  0  0  0  0
   48.9919  159.5155   33.1050 H   0  0  0  0  0  0  0  0  0  0  0  0
   46.4694  160.0488   32.9402 H   0  0  0  0  0  0  0  0  0  0  0  0
   46.8674  161.0358   31.4931 H   0  0  0  0  0  0  0  0  0  0  0  0
   47.1940  159.2694   31.4931 H   0  0  0  0  0  0  0  0  0  0  0  0
   48.5390  160.9715   34.7671 H   0  0  0  0  0  0  0  0  0  0  0  0
   49.3472  162.1754   33.7069 H   0  0  0  0  0  0  0  0  0  0  0  0
   47.5562  162.0376   33.7069 H   0  0  0  0  0  0  0  0  0  0  0  0
  1  2  1  0
  2  3  2  0
  3  4  1  0
  4  5  1  0
  5  6  1  0
  6  7  1  0
  7  8  2  0
  8  9  1  0
  9 10  2  0
 10 11  1  0
 11 12  1  0
 11 13  2  0
 13 14  1  0
 14 15  2  0
 14 16  1  0
 16 17  1  0
  4 18  2  0
 18 19  1  0
 19 20  2  0
 20 21  1  0
 21 22  1  0
 22 23  1  0
 22 24  1  0
 20  2  1  0
 16  5  2  0
 13  7  1  0
  1 25  1  0
  1 26  1  0
  1 27  1  0
  3 28  1  0
  8 29  1  0
  9 30  1  0
 10 31  1  0
 12 32  1  0
 17 33  1  0
 18 34  1  0
 19 35  1  0
 21 36  1  0
 21 37  1  0
 22 38  1  0
 23 39  1  0
 23 40  1  0
 23 41  1  0
 24 42  1  0
 24 43  1  0
 24 44  1  0
M  END
>  <meeko>  (1) 
{"is_sidechain": [false], "free_energy": -11.257, "intermolecular_energy": -13.889, "internal_energy": -0.13}

$$$$
cand_051_out
     RDKit          3D

 44 46  0  0  0  0  0  0  0  0999 V2000
   52.0830  160.3860   30.4280 C   0  0  0  0  0  0  0  0  0  0  0  0
   51.4320  159.0520   30.1890 C   0  0  0  0  0  0  0  0  0  0  0  0
   52.0760  158.1300   29.3410 C   0  0  0  0  0  0  0  0  0  0  0  0
   51.5270  156.8670   29.0670 C   0  0  0  0  0  0  0  0  0  0  0  0
   52.2280  155.9420   28.1500 C   0  0  0  0  0  0  0  0  0  0  0  0
   52.8050  156.5930   27.0650 O   0  0  0  0  0  0  0  0  0  0  0  0
   53.4870  155.8510   26.1340 C   0  0  0  0  0  0  0  0  0  0  0  0
   54.0390  156.5430   25.0540 C   0  0  0  0  0  0  0  0  0  0  0  0
   54.7480  155.8480   24.0720 C   0  0  0  0  0  0  0  0  0  0  0  0
   54.9060  154.4650   24.1690 C   0  0  0  0  0  0  0  0  0  0  0  0
   54.3550  153.7780   25.2480 C   0  0  0  0  0  0  0  0  0  0  0  0
   54.5490  152.4230   25.2810 O   0  0  0  0  0  0  0  0  0  0  0  0
   53.6450  154.4720   26.2310 C   0  0  0  0  0  0  0  0  0  0  0  0
   53.0510  153.7890   27.3800 C   0  0  0  0  0  0  0  0  0  0  0  0
   53.1540  152.5740   27.5400 O   0  0  0  0  0  0  0  0  0  0  0  0
   52.3110  154.6160   28.3610 C   0  0  0  0  0  0  0  0  0  0  0  0
   51.7650  153.9620   29.4500 O   0  0  0  0  0  0  0  0  0  0  0  0
   50.2980  156.5400   29.6440 C   0  0  0  0  0  0  0  0  0  0  0  0
   49.6450  157.4430   30.4870 C   0  0  0  0  0  0  0  0  0  0  0  0
   50.1990  158.7020   30.7740 C   0  0  0  0  0  0  0  0  0  0  0  0
   49.4350  159.6280   31.7000 C   0  0  0  0  0  0  0  0  0  0  0  0
   48.3700  160.4870   30.9880 C   0  0  0  0  0  0  0  0  0  0  0  0
   48.4300  161.9250   31.5110 C   0  0  0  0  0  0  0  0  0  0  0  0
   46.9570  159.9310   31.1770 C   0  0  0  0  0  0  0  0  0  0  0  0
   52.1695  160.5632   31.5102 H   0  0  0  0  0  0  0  0  0  0  0  0
   53.0851  160.3915   29.9743 H   0  0  0  0  0  0  0  0  0  0  0  0
   51.4708  161.1793   29.9743 H   0  0  0  0  0  0  0  0  0  0  0  0
   53.0358  158.4071   28.8805 H   0  0  0  0  0  0  0  0  0  0  0  0
   53.9156  157.6333   24.9770 H   0  0  0  0  0  0  0  0  0  0  0  0
   55.1828  156.3918   23.2204 H   0  0  0  0  0  0  0  0  0  0  0  0
   55.4646  153.9185   23.3949 H   0  0  0  0  0  0  0  0  0  0  0  0
   53.8140  151.8440   25.2410 H   0  0  0  0  0  0  0  0  0  0  0  0
   51.9820  153.0650   29.6150 H   0  0  0  0  0  0  0  0  0  0  0  0
   49.8398  155.5625   29.4329 H   0  0  0  0  0  0  0  0  0  0  0  0
   48.6797  157.1632   30.9341 H   0  0  0  0  0  0  0  0  0  0  0  0
   48.9323  159.0163   32.4636 H   0  0  0  0  0  0  0  0  0  0  0  0
   50.1694  160.3240   32.1316 H   0  0  0  0  0  0  0  0  0  0  0  0
   48.5951  160.4652   29.9115 H   0  0  0  0  0  0  0  0  0  0  0  0
   48.4296  161.9154   32.6110 H   0  0  0  0  0  0  0  0  0  0  0  0
   49.3491  162.4088   31.1489 H   0  0  0  0  0  0  0  0  0  0  0  0
   47.5544  162.4837   31.1489 H   0  0  0  0  0  0  0  0  0  0  0  0
   46.7376  159.8447   32.2514 H   0  0  0  0  0  0  0  0  0  0  0  0
   46.2299  160.6101   30.7077 H   0  0  0  0  0  0  0  0  0  0  0  0
   46.8877  158.9385   30.7077 H   0  0  0  0  0  0  0  0  0  0  0  0
  1  2  1  0
  2  3  2  0
  3  4  1  0
  4  5  1  0
  5  6  1  0
  6  7  1  0
  7  8  2  0
  8  9  1  0
  9 10  2  0
 10 11  1  0
 11 12  1  0
 11 13  2  0
 13 14  1  0
 14 15  2  0
 14 16  1  0
 16 17  1  0
  4 18  2  0
 18 19  1  0
 19 20  2  0
 20 21  1  0
 21 22  1  0
 22 23  1  0
 22 24  1  0
 20  2  1  0
 16  5  2  0
 13  7  1  0
  1 25  1  0
  1 26  1  0
  1 27  1  0
  3 28  1  0
  8 29  1  0
  9 30  1  0
 10 31  1  0
 12 32  1  0
 17 33  1  0
 18 34  1  0
 19 35  1  0
 21 36  1  0
 21 37  1  0
 22 38  1  0
 23 39  1  0
 23 40  1  0
 23 41  1  0
 24 42  1  0
 24 43  1  0
 24 44  1  0
M  END
>  <meeko>  (2) 
{"is_sidechain": [false], "free_energy": -10.826, "intermolecular_energy": -13.087, "internal_energy": -0.4}

$$$$
cand_051_out
     RDKit          3D

 44 46  0  0  0  0  0  0  0  0999 V2000
   48.1460  158.8530   30.7420 C   0  0  0  0  0  0  0  0  0  0  0  0
   49.6000  158.8320   30.3570 C   0  0  0  0  0  0  0  0  0  0  0  0
   50.1030  157.7030   29.6840 C   0  0  0  0  0  0  0  0  0  0  0  0
   51.4490  157.6100   29.2970 C   0  0  0  0  0  0  0  0  0  0  0  0
   51.9370  156.3930   28.6130 C   0  0  0  0  0  0  0  0  0  0  0  0
   52.5030  156.6620   27.3720 O   0  0  0  0  0  0  0  0  0  0  0  0
   52.9980  155.6200   26.6290 C   0  0  0  0  0  0  0  0  0  0  0  0
   53.5440  155.9340   25.3830 C   0  0  0  0  0  0  0  0  0  0  0  0
   54.0670  154.9210   24.5770 C   0  0  0  0  0  0  0  0  0  0  0  0
   54.0440  153.5950   25.0150 C   0  0  0  0  0  0  0  0  0  0  0  0
   53.4980  153.2850   26.2590 C   0  0  0  0  0  0  0  0  0  0  0  0
   53.5090  151.9670   26.6260 O   0  0  0  0  0  0  0  0  0  0  0  0
   52.9740  154.2990   27.0650 C   0  0  0  0  0  0  0  0  0  0  0  0
   52.3930  154.0170   28.3770 C   0  0  0  0  0  0  0  0  0  0  0  0
   52.3430  152.8770   28.8360 O   0  0  0  0  0  0  0  0  0  0  0  0
   51.8580  155.1620   29.1510 C   0  0  0  0  0  0  0  0  0  0  0  0
   51.3230  154.8850   30.3950 O   0  0  0  0  0  0  0  0  0  0  0  0
   52.3040  158.6680   29.6150 C   0  0  0  0  0  0  0  0  0  0  0  0
   51.8220  159.7950   30.2840 C   0  0  0  0  0  0  0  0  0  0  0  0
   50.4710  159.8970   30.6590 C   0  0  0  0  0  0  0  0  0  0  0  0
   50.0200  161.1530   31.3800 C   0  0  0  0  0  0  0  0  0  0  0  0
   48.9920  160.8960   32.5010 C   0  0  0  0  0  0  0  0  0  0  0  0
   48.2130  162.1820   32.7940 C   0  0  0  0  0  0  0  0  0  0  0  0
   49.6530  160.3920   33.7870 C   0  0  0  0  0  0  0  0  0  0  0  0
   48.0570  158.8543   31.8384 H   0  0  0  0  0  0  0  0  0  0  0  0
   47.6718  159.7581   30.3346 H   0  0  0  0  0  0  0  0  0  0  0  0
   47.6459  157.9620   30.3346 H   0  0  0  0  0  0  0  0  0  0  0  0
   49.4221  156.8700   29.4548 H   0  0  0  0  0  0  0  0  0  0  0  0
   53.5621  156.9780   25.0368 H   0  0  0  0  0  0  0  0  0  0  0  0
   54.4979  155.1677   23.5954 H   0  0  0  0  0  0  0  0  0  0  0  0
   54.4559  152.7972   24.3795 H   0  0  0  0  0  0  0  0  0  0  0  0
   52.8050  151.4040   26.3710 H   0  0  0  0  0  0  0  0  0  0  0  0
   51.5080  154.0670   30.8130 H   0  0  0  0  0  0  0  0  0  0  0  0
   53.3666  158.6128   29.3359 H   0  0  0  0  0  0  0  0  0  0  0  0
   52.5120  160.6180   30.5219 H   0  0  0  0  0  0  0  0  0  0  0  0
   50.9041  161.6334   31.8245 H   0  0  0  0  0  0  0  0  0  0  0  0
   49.5242  161.7894   30.6323 H   0  0  0  0  0  0  0  0  0  0  0  0
   48.3079  160.1104   32.1478 H   0  0  0  0  0  0  0  0  0  0  0  0
   48.1293  162.3202   33.8821 H   0  0  0  0  0  0  0  0  0  0  0  0
   48.7433  163.0400   32.3552 H   0  0  0  0  0  0  0  0  0  0  0  0
   47.2069  162.1093   32.3552 H   0  0  0  0  0  0  0  0  0  0  0  0
   49.1187  160.7994   34.6579 H   0  0  0  0  0  0  0  0  0  0  0  0
   49.6130  159.2930   33.8135 H   0  0  0  0  0  0  0  0  0  0  0  0
   50.7022  160.7215   33.8135 H   0  0  0  0  0  0  0  0  0  0  0  0
  1  2  1  0
  2  3  2  0
  3  4  1  0
  4  5  1  0
  5  6  1  0
  6  7  1  0
  7  8  2  0
  8  9  1  0
  9 10  2  0
 10 11  1  0
 11 12  1  0
 11 13  2  0
 13 14  1  0
 14 15  2  0
 14 16  1  0
 16 17  1  0
  4 18  2  0
 18 19  1  0
 19 20  2  0
 20 21  1  0
 21 22  1  0
 22 23  1  0
 22 24  1  0
 20  2  1  0
 16  5  2  0
 13  7  1  0
  1 25  1  0
  1 26  1  0
  1 27  1  0
  3 28  1  0
  8 29  1  0
  9 30  1  0
 10 31  1  0
 12 32  1  0
 17 33  1  0
 18 34  1  0
 19 35  1  0
 21 36  1  0
 21 37  1  0
 22 38  1  0
 23 39  1  0
 23 40  1  0
 23 41  1  0
 24 42  1  0
 24 43  1  0
 24 44  1  0
M  END
>  <meeko>  (3) 
{"is_sidechain": [false], "free_energy": -10.387, "intermolecular_energy": -13.117, "internal_energy": 0.171}

$$$$
cand_051_out
     RDKit          3D

 44 46  0  0  0  0  0  0  0  0999 V2000
   48.8380  158.0020   31.1700 C   0  0  0  0  0  0  0  0  0  0  0  0
   50.1460  158.0050   30.4290 C   0  0  0  0  0  0  0  0  0  0  0  0
   50.5070  156.8610   29.6920 C   0  0  0  0  0  0  0  0  0  0  0  0
   51.7150  156.7890   28.9800 C   0  0  0  0  0  0  0  0  0  0  0  0
   52.0620  155.5570   28.2400 C   0  0  0  0  0  0  0  0  0  0  0  0
   52.6060  155.8160   26.9870 O   0  0  0  0  0  0  0  0  0  0  0  0
   52.9730  154.7590   26.1920 C   0  0  0  0  0  0  0  0  0  0  0  0
   53.5020  155.0640   24.9370 C   0  0  0  0  0  0  0  0  0  0  0  0
   53.8980  154.0350   24.0800 C   0  0  0  0  0  0  0  0  0  0  0  0
   53.7660  152.7040   24.4760 C   0  0  0  0  0  0  0  0  0  0  0  0
   53.2390  152.4020   25.7300 C   0  0  0  0  0  0  0  0  0  0  0  0
   53.1390  151.0770   26.0550 O   0  0  0  0  0  0  0  0  0  0  0  0
   52.8420  153.4310   26.5880 C   0  0  0  0  0  0  0  0  0  0  0  0
   52.2830  153.1580   27.9120 C   0  0  0  0  0  0  0  0  0  0  0  0
   52.1430  152.0130   28.3360 O   0  0  0  0  0  0  0  0  0  0  0  0
   51.8860  154.3200   28.7410 C   0  0  0  0  0  0  0  0  0  0  0  0
   51.3720  154.0510   29.9960 O   0  0  0  0  0  0  0  0  0  0  0  0
   52.5800  157.8840   29.0310 C   0  0  0  0  0  0  0  0  0  0  0  0
   52.2380  159.0270   29.7590 C   0  0  0  0  0  0  0  0  0  0  0  0
   51.0240  159.1070   30.4610 C   0  0  0  0  0  0  0  0  0  0  0  0
   50.7200  160.3800   31.2260 C   0  0  0  0  0  0  0  0  0  0  0  0
   49.7090  161.3090   30.5220 C   0  0  0  0  0  0  0  0  0  0  0  0
   48.4890  161.5230   31.4210 C   0  0  0  0  0  0  0  0  0  0  0  0
   49.2590  160.7530   29.1690 C   0  0  0  0  0  0  0  0  0  0  0  0
   49.0302  158.0024   32.2531 H   0  0  0  0  0  0  0  0  0  0  0  0
   48.2613  158.8988   30.8996 H   0  0  0  0  0  0  0  0  0  0  0  0
   48.2654  157.1025   30.8996 H   0  0  0  0  0  0  0  0  0  0  0  0
   49.8234  155.9994   29.6735 H   0  0  0  0  0  0  0  0  0  0  0  0
   53.6068  156.1131   24.6235 H   0  0  0  0  0  0  0  0  0  0  0  0
   54.3149  154.2745   23.0906 H   0  0  0  0  0  0  0  0  0  0  0  0
   54.0774  151.8944   23.7996 H   0  0  0  0  0  0  0  0  0  0  0  0
   52.2960  150.6810   26.1540 H   0  0  0  0  0  0  0  0  0  0  0  0
   51.8460  153.5000   30.5880 H   0  0  0  0  0  0  0  0  0  0  0  0
   53.5390  157.8467   28.4935 H   0  0  0  0  0  0  0  0  0  0  0  0
   52.9324  159.8798   29.7827 H   0  0  0  0  0  0  0  0  0  0  0  0
   50.3097  160.1035   32.2085 H   0  0  0  0  0  0  0  0  0  0  0  0
   51.6647  160.9381   31.3033 H   0  0  0  0  0  0  0  0  0  0  0  0
   50.2153  162.2678   30.3366 H   0  0  0  0  0  0  0  0  0  0  0  0
   48.7967  161.4690   32.4757 H   0  0  0  0  0  0  0  0  0  0  0  0
   48.0519  162.5115   31.2167 H   0  0  0  0  0  0  0  0  0  0  0  0
   47.7415  160.7422   31.2167 H   0  0  0  0  0  0  0  0  0  0  0  0
   48.5744  159.9071   29.3296 H   0  0  0  0  0  0  0  0  0  0  0  0
   48.7415  161.5412   28.6025 H   0  0  0  0  0  0  0  0  0  0  0  0
   50.1377  160.4111   28.6025 H   0  0  0  0  0  0  0  0  0  0  0  0
  1  2  1  0
  2  3  2  0
  3  4  1  0
  4  5  1  0
  5  6  1  0
  6  7  1  0
  7  8  2  0
  8  9  1  0
  9 10  2  0
 10 11  1  0
 11 12  1  0
 11 13  2  0
 13 14  1  0
 14 15  2  0
 14 16  1  0
 16 17  1  0
  4 18  2  0
 18 19  1  0
 19 20  2  0
 20 21  1  0
 21 22  1  0
 22 23  1  0
 22 24  1  0
 20  2  1  0
 16  5  2  0
 13  7  1  0
  1 25  1  0
  1 26  1  0
  1 27  1  0
  3 28  1  0
  8 29  1  0
  9 30  1  0
 10 31  1  0
 12 32  1  0
 17 33  1  0
 18 34  1  0
 19 35  1  0
 21 36  1  0
 21 37  1  0
 22 38  1  0
 23 39  1  0
 23 40  1  0
 23 41  1  0
 24 42  1  0
 24 43  1  0
 24 44  1  0
M  END
>  <meeko>  (4) 
{"is_sidechain": [false], "free_energy": -10.001, "intermolecular_energy": -12.597, "internal_energy": 0.127}

$$$$
cand_051_out
     RDKit          3D

 44 46  0  0  0  0  0  0  0  0999 V2000
   51.6070  152.6550   28.5660 C   0  0  0  0  0  0  0  0  0  0  0  0
   51.9970  154.0150   28.0570 C   0  0  0  0  0  0  0  0  0  0  0  0
   51.6530  155.1460   28.8220 C   0  0  0  0  0  0  0  0  0  0  0  0
   51.9800  156.4470   28.4090 C   0  0  0  0  0  0  0  0  0  0  0  0
   51.5770  157.6060   29.2350 C   0  0  0  0  0  0  0  0  0  0  0  0
   50.2400  157.5580   29.6150 O   0  0  0  0  0  0  0  0  0  0  0  0
   49.7330  158.5730   30.3850 C   0  0  0  0  0  0  0  0  0  0  0  0
   48.3830  158.4920   30.7320 C   0  0  0  0  0  0  0  0  0  0  0  0
   47.8050  159.4920   31.5170 C   0  0  0  0  0  0  0  0  0  0  0  0
   48.5740  160.5720   31.9540 C   0  0  0  0  0  0  0  0  0  0  0  0
   49.9210  160.6500   31.6070 C   0  0  0  0  0  0  0  0  0  0  0  0
   50.6160  161.7330   32.0710 O   0  0  0  0  0  0  0  0  0  0  0  0
   50.5000  159.6500   30.8210 C   0  0  0  0  0  0  0  0  0  0  0  0
   51.9100  159.6930   30.4350 C   0  0  0  0  0  0  0  0  0  0  0  0
   52.6540  160.6060   30.7870 O   0  0  0  0  0  0  0  0  0  0  0  0
   52.4240  158.5870   29.5940 C   0  0  0  0  0  0  0  0  0  0  0  0
   53.7620  158.6320   29.2450 O   0  0  0  0  0  0  0  0  0  0  0  0
   52.6470  156.6070   27.1920 C   0  0  0  0  0  0  0  0  0  0  0  0
   52.9930  155.4970   26.4190 C   0  0  0  0  0  0  0  0  0  0  0  0
   52.6800  154.1920   26.8370 C   0  0  0  0  0  0  0  0  0  0  0  0
   53.0920  153.0350   25.9480 C   0  0  0  0  0  0  0  0  0  0  0  0
   54.3950  153.2830   25.1600 C   0  0  0  0  0  0  0  0  0  0  0  0
   54.1110  153.2180   23.6570 C   0  0  0  0  0  0  0  0  0  0  0  0
   55.4880  152.2750   25.5200 C   0  0  0  0  0  0  0  0  0  0  0  0
   51.6087  152.6608   29.6660 H   0  0  0  0  0  0  0  0  0  0  0  0
   50.6002  152.4022   28.2022 H   0  0  0  0  0  0  0  0  0  0  0  0
   52.3269  151.9070   28.2022 H   0  0  0  0  0  0  0  0  0  0  0  0
   51.1128  155.0060   29.7699 H   0  0  0  0  0  0  0  0  0  0  0  0
   47.7757  157.6419   30.3876 H   0  0  0  0  0  0  0  0  0  0  0  0
   46.7417  159.4285   31.7915 H   0  0  0  0  0  0  0  0  0  0  0  0
   48.1173  161.3598   32.5711 H   0  0  0  0  0  0  0  0  0  0  0  0
   51.0720  162.2890   31.4700 H   0  0  0  0  0  0  0  0  0  0  0  0
   54.0340  159.1200   28.4930 H   0  0  0  0  0  0  0  0  0  0  0  0
   52.9021  157.6172   26.8393 H   0  0  0  0  0  0  0  0  0  0  0  0
   53.5203  155.6465   25.4653 H   0  0  0  0  0  0  0  0  0  0  0  0
   53.2339  152.1462   26.5804 H   0  0  0  0  0  0  0  0  0  0  0  0
   52.2911  152.9028   25.2057 H   0  0  0  0  0  0  0  0  0  0  0  0
   54.7613  154.2835   25.4335 H   0  0  0  0  0  0  0  0  0  0  0  0
   53.0505  152.9753   23.4944 H   0  0  0  0  0  0  0  0  0  0  0  0
   54.3388  154.1915   23.1984 H   0  0  0  0  0  0  0  0  0  0  0  0
   54.7396  152.4405   23.1984 H   0  0  0  0  0  0  0  0  0  0  0  0
   55.5706  152.1989   26.6143 H   0  0  0  0  0  0  0  0  0  0  0  0
   55.2308  151.2904   25.1023 H   0  0  0  0  0  0  0  0  0  0  0  0
   56.4486  152.6109   25.1023 H   0  0  0  0  0  0  0  0  0  0  0  0
  1  2  1  0
  2  3  2  0
  3  4  1  0
  4  5  1  0
  5  6  1  0
  6  7  1  0
  7  8  2  0
  8  9  1  0
  9 10  2  0
 10 11  1  0
 11 12  1  0
 11 13  2  0
 13 14  1  0
 14 15  2  0
 14 16  1  0
 16 17  1  0
  4 18  2  0
 18 19  1  0
 19 20  2  0
 20 21  1  0
 21 22  1  0
 22 23  1  0
 22 24  1  0
 20  2  1  0
 16  5  2  0
 13  7  1  0
  1 25  1  0
  1 26  1  0
  1 27  1  0
  3 28  1  0
  8 29  1  0
  9 30  1  0
 10 31  1  0
 12 32  1  0
 17 33  1  0
 18 34  1  0
 19 35  1  0
 21 36  1  0
 21 37  1  0
 22 38  1  0
 23 39  1  0
 23 40  1  0
 23 41  1  0
 24 42  1  0
 24 43  1  0
 24 44  1  0
M  END
>  <meeko>  (5) 
{"is_sidechain": [false], "free_energy": -9.991, "intermolecular_energy": -12.005, "internal_energy": -0.452}

$$$$
cand_051_out
     RDKit          3D

 44 46  0  0  0  0  0  0  0  0999 V2000
   52.0650  159.3810   30.0530 C   0  0  0  0  0  0  0  0  0  0  0  0
   51.4270  158.0700   29.6830 C   0  0  0  0  0  0  0  0  0  0  0  0
   52.0950  157.2280   28.7730 C   0  0  0  0  0  0  0  0  0  0  0  0
   51.5600  155.9920   28.3770 C   0  0  0  0  0  0  0  0  0  0  0  0
   52.2870  155.1530   27.4000 C   0  0  0  0  0  0  0  0  0  0  0  0
   51.9640  153.8050   27.5020 O   0  0  0  0  0  0  0  0  0  0  0  0
   52.5670  152.9120   26.6530 C   0  0  0  0  0  0  0  0  0  0  0  0
   52.2240  151.5670   26.7990 C   0  0  0  0  0  0  0  0  0  0  0  0
   52.8010  150.6070   25.9650 C   0  0  0  0  0  0  0  0  0  0  0  0
   53.7190  150.9900   24.9860 C   0  0  0  0  0  0  0  0  0  0  0  0
   54.0590  152.3330   24.8420 C   0  0  0  0  0  0  0  0  0  0  0  0
   54.9640  152.6390   23.8630 O   0  0  0  0  0  0  0  0  0  0  0  0
   53.4830  153.2950   25.6770 C   0  0  0  0  0  0  0  0  0  0  0  0
   53.8130  154.7150   25.5600 C   0  0  0  0  0  0  0  0  0  0  0  0
   54.6060  155.1310   24.7170 O   0  0  0  0  0  0  0  0  0  0  0  0
   53.1520  155.6510   26.4980 C   0  0  0  0  0  0  0  0  0  0  0  0
   53.4610  156.9930   26.3690 O   0  0  0  0  0  0  0  0  0  0  0  0
   50.3190  155.6120   28.8940 C   0  0  0  0  0  0  0  0  0  0  0  0
   49.6420  156.4360   29.7960 C   0  0  0  0  0  0  0  0  0  0  0  0
   50.1830  157.6670   30.2060 C   0  0  0  0  0  0  0  0  0  0  0  0
   49.3920  158.5060   31.1900 C   0  0  0  0  0  0  0  0  0  0  0  0
   48.2900  159.3660   30.5370 C   0  0  0  0  0  0  0  0  0  0  0  0
   48.8940  160.6720   30.0150 C   0  0  0  0  0  0  0  0  0  0  0  0
   47.1490  159.6790   31.5090 C   0  0  0  0  0  0  0  0  0  0  0  0
   52.1089  159.4712   31.1484 H   0  0  0  0  0  0  0  0  0  0  0  0
   53.0839  159.4222   29.6406 H   0  0  0  0  0  0  0  0  0  0  0  0
   51.4687  160.2083   29.6406 H   0  0  0  0  0  0  0  0  0  0  0  0
   53.0634  157.5479   28.3608 H   0  0  0  0  0  0  0  0  0  0  0  0
   51.5003  151.2636   27.5698 H   0  0  0  0  0  0  0  0  0  0  0  0
   52.5314  149.5467   26.0799 H   0  0  0  0  0  0  0  0  0  0  0  0
   54.1730  150.2330   24.3296 H   0  0  0  0  0  0  0  0  0  0  0  0
   54.7510  152.4870   22.9640 H   0  0  0  0  0  0  0  0  0  0  0  0
   54.3270  157.2950   26.5620 H   0  0  0  0  0  0  0  0  0  0  0  0
   49.8710  154.6551   28.5879 H   0  0  0  0  0  0  0  0  0  0  0  0
   48.6674  156.1157   30.1929 H   0  0  0  0  0  0  0  0  0  0  0  0
   48.9182  157.8308   31.9178 H   0  0  0  0  0  0  0  0  0  0  0  0
   50.1032  159.2020   31.6588 H   0  0  0  0  0  0  0  0  0  0  0  0
   47.8675  158.7849   29.7041 H   0  0  0  0  0  0  0  0  0  0  0  0
   49.1871  161.3059   30.8649 H   0  0  0  0  0  0  0  0  0  0  0  0
   49.7796  160.4473   29.4025 H   0  0  0  0  0  0  0  0  0  0  0  0
   48.1493  161.2014   29.4025 H   0  0  0  0  0  0  0  0  0  0  0  0
   47.5107  159.5798   32.5431 H   0  0  0  0  0  0  0  0  0  0  0  0
   46.7959  160.7072   31.3411 H   0  0  0  0  0  0  0  0  0  0  0  0
   46.3207  158.9749   31.3411 H   0  0  0  0  0  0  0  0  0  0  0  0
  1  2  1  0
  2  3  2  0
  3  4  1  0
  4  5  1  0
  5  6  1  0
  6  7  1  0
  7  8  2  0
  8  9  1  0
  9 10  2  0
 10 11  1  0
 11 12  1  0
 11 13  2  0
 13 14  1  0
 14 15  2  0
 14 16  1  0
 16 17  1  0
  4 18  2  0
 18 19  1  0
 19 20  2  0
 20 21  1  0
 21 22  1  0
 22 23  1  0
 22 24  1  0
 20  2  1  0
 16  5  2  0
 13  7  1  0
  1 25  1  0
  1 26  1  0
  1 27  1  0
  3 28  1  0
  8 29  1  0
  9 30  1  0
 10 31  1  0
 12 32  1  0
 17 33  1  0
 18 34  1  0
 19 35  1  0
 21 36  1  0
 21 37  1  0
 22 38  1  0
 23 39  1  0
 23 40  1  0
 23 41  1  0
 24 42  1  0
 24 43  1  0
 24 44  1  0
M  END
>  <meeko>  (6) 
{"is_sidechain": [false], "free_energy": -9.962, "intermolecular_energy": -12.369, "internal_energy": -0.053}

$$$$
cand_051_out
     RDKit          3D

 44 46  0  0  0  0  0  0  0  0999 V2000
   52.9890  154.8950   24.9050 C   0  0  0  0  0  0  0  0  0  0  0  0
   52.5950  154.7520   26.3490 C   0  0  0  0  0  0  0  0  0  0  0  0
   52.2610  155.9110   27.0750 C   0  0  0  0  0  0  0  0  0  0  0  0
   51.8880  155.8570   28.4280 C   0  0  0  0  0  0  0  0  0  0  0  0
   51.5690  157.1040   29.1550 C   0  0  0  0  0  0  0  0  0  0  0  0
   50.2680  157.1240   29.6450 O   0  0  0  0  0  0  0  0  0  0  0  0
   49.8390  158.2260   30.3410 C   0  0  0  0  0  0  0  0  0  0  0  0
   48.5220  158.2100   30.8030 C   0  0  0  0  0  0  0  0  0  0  0  0
   48.0230  159.2990   31.5210 C   0  0  0  0  0  0  0  0  0  0  0  0
   48.8390  160.4020   31.7770 C   0  0  0  0  0  0  0  0  0  0  0  0
   50.1530  160.4140   31.3160 C   0  0  0  0  0  0  0  0  0  0  0  0
   50.8970  161.5260   31.6040 O   0  0  0  0  0  0  0  0  0  0  0  0
   50.6530  159.3250   30.5970 C   0  0  0  0  0  0  0  0  0  0  0  0
   52.0260  159.2980   30.0950 C   0  0  0  0  0  0  0  0  0  0  0  0
   52.8080  160.2280   30.2870 O   0  0  0  0  0  0  0  0  0  0  0  0
   52.4550  158.1000   29.3370 C   0  0  0  0  0  0  0  0  0  0  0  0
   53.7600  158.0790   28.8790 O   0  0  0  0  0  0  0  0  0  0  0  0
   51.8740  154.6120   29.0610 C   0  0  0  0  0  0  0  0  0  0  0  0
   52.2050  153.4520   28.3560 C   0  0  0  0  0  0  0  0  0  0  0  0
   52.5640  153.5020   26.9980 C   0  0  0  0  0  0  0  0  0  0  0  0
   52.9070  152.2010   26.2990 C   0  0  0  0  0  0  0  0  0  0  0  0
   54.0620  152.3210   25.2830 C   0  0  0  0  0  0  0  0  0  0  0  0
   54.0570  151.1090   24.3480 C   0  0  0  0  0  0  0  0  0  0  0  0
   55.4250  152.4350   25.9700 C   0  0  0  0  0  0  0  0  0  0  0  0
   54.0213  155.2697   24.8420 H   0  0  0  0  0  0  0  0  0  0  0  0
   52.9234  153.9157   24.4083 H   0  0  0  0  0  0  0  0  0  0  0  0
   52.3105  155.6042   24.4083 H   0  0  0  0  0  0  0  0  0  0  0  0
   52.2931  156.8867   26.5681 H   0  0  0  0  0  0  0  0  0  0  0  0
   47.8782  157.3411   30.6019 H   0  0  0  0  0  0  0  0  0  0  0  0
   46.9852  159.2874   31.8854 H   0  0  0  0  0  0  0  0  0  0  0  0
   48.4451  161.2599   32.3416 H   0  0  0  0  0  0  0  0  0  0  0  0
   51.0920  161.7420   32.4940 H   0  0  0  0  0  0  0  0  0  0  0  0
   54.1490  157.2700   28.6100 H   0  0  0  0  0  0  0  0  0  0  0  0
   51.5999  154.5441   30.1241 H   0  0  0  0  0  0  0  0  0  0  0  0
   52.1842  152.4815   28.8734 H   0  0  0  0  0  0  0  0  0  0  0  0
   53.1932  151.4628   27.0627 H   0  0  0  0  0  0  0  0  0  0  0  0
   52.0141  151.8989   25.7321 H   0  0  0  0  0  0  0  0  0  0  0  0
   53.9010  153.2440   24.7066 H   0  0  0  0  0  0  0  0  0  0  0  0
   54.0532  150.1852   24.9452 H   0  0  0  0  0  0  0  0  0  0  0  0
   53.1590  151.1391   23.7135 H   0  0  0  0  0  0  0  0  0  0  0  0
   54.9552  151.1317   23.7135 H   0  0  0  0  0  0  0  0  0  0  0  0
   55.2876  152.4235   27.0613 H   0  0  0  0  0  0  0  0  0  0  0  0
   56.0583  151.5867   25.6712 H   0  0  0  0  0  0  0  0  0  0  0  0
   55.9086  153.3767   25.6712 H   0  0  0  0  0  0  0  0  0  0  0  0
  1  2  1  0
  2  3  2  0
  3  4  1  0
  4  5  1  0
  5  6  1  0
  6  7  1  0
  7  8  2  0
  8  9  1  0
  9 10  2  0
 10 11  1  0
 11 12  1  0
 11 13  2  0
 13 14  1  0
 14 15  2  0
 14 16  1  0
 16 17  1  0
  4 18  2  0
 18 19  1  0
 19 20  2  0
 20 21  1  0
 21 22  1  0
 22 23  1  0
 22 24  1  0
 20  2  1  0
 16  5  2  0
 13  7  1  0
  1 25  1  0
  1 26  1  0
  1 27  1  0
  3 28  1  0
  8 29  1  0
  9 30  1  0
 10 31  1  0
 12 32  1  0
 17 33  1  0
 18 34  1  0
 19 35  1  0
 21 36  1  0
 21 37  1  0
 22 38  1  0
 23 39  1  0
 23 40  1  0
 23 41  1  0
 24 42  1  0
 24 43  1  0
 24 44  1  0
M  END
>  <meeko>  (7) 
{"is_sidechain": [false], "free_energy": -9.863, "intermolecular_energy": -12.494, "internal_energy": 0.195}

$$$$
cand_051_out
     RDKit          3D

 44 46  0  0  0  0  0  0  0  0999 V2000
   51.8890  152.8310   28.3510 C   0  0  0  0  0  0  0  0  0  0  0  0
   52.1850  154.2750   28.0550 C   0  0  0  0  0  0  0  0  0  0  0  0
   51.5950  155.2640   28.8650 C   0  0  0  0  0  0  0  0  0  0  0  0
   51.8210  156.6330   28.6470 C   0  0  0  0  0  0  0  0  0  0  0  0
   51.1600  157.6360   29.5080 C   0  0  0  0  0  0  0  0  0  0  0  0
   51.9720  158.7300   29.7820 O   0  0  0  0  0  0  0  0  0  0  0  0
   51.4810  159.7390   30.5720 C   0  0  0  0  0  0  0  0  0  0  0  0
   52.3350  160.8120   30.8330 C   0  0  0  0  0  0  0  0  0  0  0  0
   51.8970  161.8730   31.6290 C   0  0  0  0  0  0  0  0  0  0  0  0
   50.6070  161.8620   32.1630 C   0  0  0  0  0  0  0  0  0  0  0  0
   49.7570  160.7900   31.9000 C   0  0  0  0  0  0  0  0  0  0  0  0
   48.5070  160.8440   32.4530 O   0  0  0  0  0  0  0  0  0  0  0  0
   50.1950  159.7280   31.1040 C   0  0  0  0  0  0  0  0  0  0  0  0
   49.3350  158.5830   30.8040 C   0  0  0  0  0  0  0  0  0  0  0  0
   48.1840  158.5040   31.2310 O   0  0  0  0  0  0  0  0  0  0  0  0
   49.8980  157.5060   29.9570 C   0  0  0  0  0  0  0  0  0  0  0  0
   49.0710  156.4360   29.6690 O   0  0  0  0  0  0  0  0  0  0  0  0
   52.6420  157.0060   27.5800 C   0  0  0  0  0  0  0  0  0  0  0  0
   53.2340  156.0370   26.7660 C   0  0  0  0  0  0  0  0  0  0  0  0
   53.0210  154.6670   26.9910 C   0  0  0  0  0  0  0  0  0  0  0  0
   53.7000  153.6740   26.0680 C   0  0  0  0  0  0  0  0  0  0  0  0
   53.8380  154.1640   24.6120 C   0  0  0  0  0  0  0  0  0  0  0  0
   54.0530  152.9670   23.6810 C   0  0  0  0  0  0  0  0  0  0  0  0
   54.9890  155.1590   24.4430 C   0  0  0  0  0  0  0  0  0  0  0  0
   51.8578  152.6789   29.4400 H   0  0  0  0  0  0  0  0  0  0  0  0
   50.9165  152.5592   27.9148 H   0  0  0  0  0  0  0  0  0  0  0  0
   52.6762  152.1985   27.9148 H   0  0  0  0  0  0  0  0  0  0  0  0
   50.9384  154.9558   29.6920 H   0  0  0  0  0  0  0  0  0  0  0  0
   53.3514  160.8220   30.4124 H   0  0  0  0  0  0  0  0  0  0  0  0
   52.5695  162.7186   31.8355 H   0  0  0  0  0  0  0  0  0  0  0  0
   50.2626  162.6977   32.7899 H   0  0  0  0  0  0  0  0  0  0  0  0
   47.7490  160.8290   31.9020 H   0  0  0  0  0  0  0  0  0  0  0  0
   48.6720  155.9520   30.3650 H   0  0  0  0  0  0  0  0  0  0  0  0
   52.8240  158.0720   27.3789 H   0  0  0  0  0  0  0  0  0  0  0  0
   53.8792  156.3530   25.9330 H   0  0  0  0  0  0  0  0  0  0  0  0
   54.7068  153.4690   26.4609 H   0  0  0  0  0  0  0  0  0  0  0  0
   53.0644  152.7766   26.0430 H   0  0  0  0  0  0  0  0  0  0  0  0
   52.9057  154.6857   24.3499 H   0  0  0  0  0  0  0  0  0  0  0  0
   54.2159  152.0600   24.2816 H   0  0  0  0  0  0  0  0  0  0  0  0
   53.1648  152.8319   23.0464 H   0  0  0  0  0  0  0  0  0  0  0  0
   54.9327  153.1494   23.0464 H   0  0  0  0  0  0  0  0  0  0  0  0
   55.3513  155.4722   25.4333 H   0  0  0  0  0  0  0  0  0  0  0  0
   55.8088  154.6804   23.8871 H   0  0  0  0  0  0  0  0  0  0  0  0
   54.6340  156.0393   23.8871 H   0  0  0  0  0  0  0  0  0  0  0  0
  1  2  1  0
  2  3  2  0
  3  4  1  0
  4  5  1  0
  5  6  1  0
  6  7  1  0
  7  8  2  0
  8  9  1  0
  9 10  2  0
 10 11  1  0
 11 12  1  0
 11 13  2  0
 13 14  1  0
 14 15  2  0
 14 16  1  0
 16 17  1  0
  4 18  2  0
 18 19  1  0
 19 20  2  0
 20 21  1  0
 21 22  1  0
 22 23  1  0
 22 24  1  0
 20  2  1  0
 16  5  2  0
 13  7  1  0
  1 25  1  0
  1 26  1  0
  1 27  1  0
  3 28  1  0
  8 29  1  0
  9 30  1  0
 10 31  1  0
 12 32  1  0
 17 33  1  0
 18 34  1  0
 19 35  1  0
 21 36  1  0
 21 37  1  0
 22 38  1  0
 23 39  1  0
 23 40  1  0
 23 41  1  0
 24 42  1  0
 24 43  1  0
 24 44  1  0
M  END
>  <meeko>  (8) 
{"is_sidechain": [false], "free_energy": -9.322, "intermolecular_energy": -11.881, "internal_energy": 0.25}

$$$$
