cand_027_out
     RDKit          3D

 44 46  0  0  0  0  0  0  0  0999 V2000
   52.8570  152.4040   26.7490 C   0  0  0  0  0  0  0  0  0  0  0  0
   52.5540  153.7510   27.3480 C   0  0  0  0  0  0  0  0  0  0  0  0
   51.9040  153.7210   28.6020 C   0  0  0  0  0  0  0  0  0  0  0  0
   51.5630  154.8860   29.2830 C   0  0  0  0  0  0  0  0  0  0  0  0
   51.8660  156.1250   28.7340 C   0  0  0  0  0  0  0  0  0  0  0  0
   51.5070  157.3870   29.4170 C   0  0  0  0  0  0  0  0  0  0  0  0
   50.1860  157.4100   29.8500 O   0  0  0  0  0  0  0  0  0  0  0  0
   49.7200  158.5240   30.4990 C   0  0  0  0  0  0  0  0  0  0  0  0
   48.3920  158.4990   30.9270 C   0  0  0  0  0  0  0  0  0  0  0  0
   47.8530  159.6020   31.5920 C   0  0  0  0  0  0  0  0  0  0  0  0
   48.6420  160.7310   31.8280 C   0  0  0  0  0  0  0  0  0  0  0  0
   49.9660  160.7530   31.3990 C   0  0  0  0  0  0  0  0  0  0  0  0
   50.6800  161.8900   31.6620 O   0  0  0  0  0  0  0  0  0  0  0  0
   50.5050  159.6490   30.7340 C   0  0  0  0  0  0  0  0  0  0  0  0
   51.8910  159.6320   30.2670 C   0  0  0  0  0  0  0  0  0  0  0  0
   52.6450  160.5880   30.4320 O   0  0  0  0  0  0  0  0  0  0  0  0
   52.3670  158.4100   29.5780 C   0  0  0  0  0  0  0  0  0  0  0  0
   53.6740  158.4090   29.1280 O   0  0  0  0  0  0  0  0  0  0  0  0
   52.4920  156.1610   27.4740 C   0  0  0  0  0  0  0  0  0  0  0  0
   52.8390  154.9990   26.7350 C   0  0  0  0  0  0  0  0  0  0  0  0
   53.5270  155.1670   25.3520 C   0  0  0  0  0  0  0  0  0  0  0  0
   54.0380  156.6050   25.1010 C   0  0  0  0  0  0  0  0  0  0  0  0
   52.5370  154.7590   24.2420 C   0  0  0  0  0  0  0  0  0  0  0  0
   54.7820  154.2650   25.1750 C   0  0  0  0  0  0  0  0  0  0  0  0
   53.0214  151.6731   27.5545 H   0  0  0  0  0  0  0  0  0  0  0  0
   52.0093  152.0801   26.1274 H   0  0  0  0  0  0  0  0  0  0  0  0
   53.7618  152.4743   26.1274 H   0  0  0  0  0  0  0  0  0  0  0  0
   51.6602  152.7480   29.0536 H   0  0  0  0  0  0  0  0  0  0  0  0
   51.0535  154.8253   30.2560 H   0  0  0  0  0  0  0  0  0  0  0  0
   47.7703  157.6109   30.7406 H   0  0  0  0  0  0  0  0  0  0  0  0
   46.8065  159.5823   31.9304 H   0  0  0  0  0  0  0  0  0  0  0  0
   48.2177  161.6004   32.3516 H   0  0  0  0  0  0  0  0  0  0  0  0
   51.5830  161.9420   31.4200 H   0  0  0  0  0  0  0  0  0  0  0  0
   53.9520  157.7740   28.4980 H   0  0  0  0  0  0  0  0  0  0  0  0
   52.7254  157.1434   27.0375 H   0  0  0  0  0  0  0  0  0  0  0  0
   54.2155  157.1045   26.0648 H   0  0  0  0  0  0  0  0  0  0  0  0
   54.9773  156.5659   24.5298 H   0  0  0  0  0  0  0  0  0  0  0  0
   53.2847  157.1674   24.5298 H   0  0  0  0  0  0  0  0  0  0  0  0
   51.6115  154.3776   24.6981 H   0  0  0  0  0  0  0  0  0  0  0  0
   52.3045  155.6346   23.6181 H   0  0  0  0  0  0  0  0  0  0  0  0
   52.9889  153.9738   23.6181 H   0  0  0  0  0  0  0  0  0  0  0  0
   55.1736  153.9835   26.1636 H   0  0  0  0  0  0  0  0  0  0  0  0
   54.5057  153.3575   24.6181 H   0  0  0  0  0  0  0  0  0  0  0  0
   55.5541  154.8161   24.6181 H   0  0  0  0  0  0  0  0  0  0  0  0
  1  2  1  0
  2  3  2  0
  3  4  1  0
  4  5  2  0
  5  6  1  0
  6  7  1  0
  7  8  1  0
  8  9  2  0
  9 10  1  0
 10 11  2  0
 11 12  1  0
 12 13  1  0
 12 14  2  0
 14 15  1  0
 15 16  2  0
 15 17  1  0
 17 18  1  0
  5 19  1  0
 19 20  2  0
 20 21  1  0
 21 22  1  0
 21 23  1  0
 21 24  1  0
 20  2  1  0
 17  6  2  0
 14  8  1  0
  1 25  1  0
  1 26  1  0
  1 27  1  0
  3 28  1  0
  4 29  1  0
  9 30  1  0
 10 31  1  0
 11 32  1  0
 13 33  1  0
 18 34  1  0
 19 35  1  0
 22 36  1  0
 22 37  1  0
 22 38  1  0
 23 39  1  0
 23 40  1  0
 23 41  1  0
 24 42  1  0
 24 43  1  0
 24 44  1  0
M  END
>  <meeko>  (1) 
{"is_sidechain": [false], "free_energy": -10.288, "intermolecular_energy": -12.092, "internal_energy": 0.078}

$$$$
cand_027_out
     RDKit          3D

 44 46  0  0  0  0  0  0  0  0999 V2000
   51.3660  161.3250   31.2350 C   0  0  0  0  0  0  0  0  0  0  0  0
   51.4590  159.9860   30.5530 C   0  0  0  0  0  0  0  0  0  0  0  0
   52.7440  159.6400   30.0770 C   0  0  0  0  0  0  0  0  0  0  0  0
   52.9890  158.4320   29.4300 C   0  0  0  0  0  0  0  0  0  0  0  0
   51.9550  157.5230   29.2410 C   0  0  0  0  0  0  0  0  0  0  0  0
   52.1690  156.2370   28.5440 C   0  0  0  0  0  0  0  0  0  0  0  0
   52.6490  156.3970   27.2490 O   0  0  0  0  0  0  0  0  0  0  0  0
   52.8890  155.2820   26.4880 C   0  0  0  0  0  0  0  0  0  0  0  0
   53.3820  155.4890   25.1990 C   0  0  0  0  0  0  0  0  0  0  0  0
   53.6470  154.3960   24.3700 C   0  0  0  0  0  0  0  0  0  0  0  0
   53.4180  153.0970   24.8300 C   0  0  0  0  0  0  0  0  0  0  0  0
   52.9260  152.8940   26.1170 C   0  0  0  0  0  0  0  0  0  0  0  0
   52.7240  151.5970   26.5020 O   0  0  0  0  0  0  0  0  0  0  0  0
   52.6620  153.9870   26.9460 C   0  0  0  0  0  0  0  0  0  0  0  0
   52.1440  153.8180   28.3030 C   0  0  0  0  0  0  0  0  0  0  0  0
   51.9120  152.7080   28.7770 O   0  0  0  0  0  0  0  0  0  0  0  0
   51.9030  155.0410   29.1030 C   0  0  0  0  0  0  0  0  0  0  0  0
   51.4010  154.8700   30.3800 O   0  0  0  0  0  0  0  0  0  0  0  0
   50.6680  157.8740   29.6910 C   0  0  0  0  0  0  0  0  0  0  0  0
   50.3690  159.1020   30.3370 C   0  0  0  0  0  0  0  0  0  0  0  0
   48.9080  159.3750   30.7900 C   0  0  0  0  0  0  0  0  0  0  0  0
   48.7120  159.2350   32.3170 C   0  0  0  0  0  0  0  0  0  0  0  0
   47.9600  158.4110   30.0470 C   0  0  0  0  0  0  0  0  0  0  0  0
   48.4180  160.8150   30.4590 C   0  0  0  0  0  0  0  0  0  0  0  0
   51.3759  161.1824   32.3257 H   0  0  0  0  0  0  0  0  0  0  0  0
   52.2231  161.9477   30.9388 H   0  0  0  0  0  0  0  0  0  0  0  0
   50.4311  161.8232   30.9388 H   0  0  0  0  0  0  0  0  0  0  0  0
   53.5750  160.3460   30.2220 H   0  0  0  0  0  0  0  0  0  0  0  0
   54.0009  158.1970   29.0684 H   0  0  0  0  0  0  0  0  0  0  0  0
   53.5618  156.5117   24.8360 H   0  0  0  0  0  0  0  0  0  0  0  0
   54.0363  154.5585   23.3541 H   0  0  0  0  0  0  0  0  0  0  0  0
   53.6258  152.2364   24.1772 H   0  0  0  0  0  0  0  0  0  0  0  0
   53.4550  151.0560   26.7260 H   0  0  0  0  0  0  0  0  0  0  0  0
   51.3050  155.6090   30.9480 H   0  0  0  0  0  0  0  0  0  0  0  0
   49.8489  157.1569   29.5333 H   0  0  0  0  0  0  0  0  0  0  0  0
   49.4991  159.7972   32.8408 H   0  0  0  0  0  0  0  0  0  0  0  0
   47.7267  159.6349   32.5984 H   0  0  0  0  0  0  0  0  0  0  0  0
   48.7707  158.1732   32.5984 H   0  0  0  0  0  0  0  0  0  0  0  0
   47.3845  157.8258   30.7793 H   0  0  0  0  0  0  0  0  0  0  0  0
   47.2694  158.9897   29.4160 H   0  0  0  0  0  0  0  0  0  0  0  0
   48.5502  157.7302   29.4160 H   0  0  0  0  0  0  0  0  0  0  0  0
   48.2315  161.3629   31.3944 H   0  0  0  0  0  0  0  0  0  0  0  0
   49.1884  161.3391   29.8743 H   0  0  0  0  0  0  0  0  0  0  0  0
   47.4878  160.7605   29.8743 H   0  0  0  0  0  0  0  0  0  0  0  0
  1  2  1  0
  2  3  2  0
  3  4  1  0
  4  5  2  0
  5  6  1  0
  6  7  1  0
  7  8  1  0
  8  9  2  0
  9 10  1  0
 10 11  2  0
 11 12  1  0
 12 13  1  0
 12 14  2  0
 14 15  1  0
 15 16  2  0
 15 17  1  0
 17 18  1  0
  5 19  1  0
 19 20  2  0
 20 21  1  0
 21 22  1  0
 21 23  1  0
 21 24  1  0
 20  2  1  0
 17  6  2  0
 14  8  1  0
  1 25  1  0
  1 26  1  0
  1 27  1  0
  3 28  1  0
  4 29  1  0
  9 30  1  0
 10 31  1  0
 11 32  1  0
 13 33  1  0
 18 34  1  0
 19 35  1  0
 22 36  1  0
 22 37  1  0
 22 38  1  0
 23 39  1  0
 23 40  1  0
 23 41  1  0
 24 42  1  0
 24 43  1  0
 24 44  1  0
M  END
>  <meeko>  (2) 
{"is_sidechain": [false], "free_energy": -10.246, "intermolecular_energy": -11.903, "internal_energy": -0.062}

$$$$
cand_027_out
     RDKit          3D

 44 46  0  0  0  0  0  0  0  0999 V2000
   53.5930  152.4860   26.7420 C   0  0  0  0  0  0  0  0  0  0  0  0
   52.9930  153.7350   27.3310 C   0  0  0  0  0  0  0  0  0  0  0  0
   52.3650  153.5680   28.5850 C   0  0  0  0  0  0  0  0  0  0  0  0
   51.7700  154.6320   29.2570 C   0  0  0  0  0  0  0  0  0  0  0  0
   51.7870  155.9040   28.6990 C   0  0  0  0  0  0  0  0  0  0  0  0
   51.1530  157.0570   29.3720 C   0  0  0  0  0  0  0  0  0  0  0  0
   52.0460  158.0930   29.6260 O   0  0  0  0  0  0  0  0  0  0  0  0
   51.5880  159.2250   30.2490 C   0  0  0  0  0  0  0  0  0  0  0  0
   52.5160  160.2430   30.4730 C   0  0  0  0  0  0  0  0  0  0  0  0
   52.1170  161.4230   31.1050 C   0  0  0  0  0  0  0  0  0  0  0  0
   50.7900  161.5840   31.5140 C   0  0  0  0  0  0  0  0  0  0  0  0
   49.8680  160.5660   31.2890 C   0  0  0  0  0  0  0  0  0  0  0  0
   48.5870  160.7900   31.7150 O   0  0  0  0  0  0  0  0  0  0  0  0
   50.2670  159.3860   30.6560 C   0  0  0  0  0  0  0  0  0  0  0  0
   49.3300  158.2930   30.4010 C   0  0  0  0  0  0  0  0  0  0  0  0
   48.1490  158.3570   30.7360 O   0  0  0  0  0  0  0  0  0  0  0  0
   49.8520  157.0860   29.7190 C   0  0  0  0  0  0  0  0  0  0  0  0
   48.9610  156.0530   29.4950 O   0  0  0  0  0  0  0  0  0  0  0  0
   52.3900  156.0700   27.4380 C   0  0  0  0  0  0  0  0  0  0  0  0
   52.9910  155.0110   26.7080 C   0  0  0  0  0  0  0  0  0  0  0  0
   53.6260  155.3190   25.3240 C   0  0  0  0  0  0  0  0  0  0  0  0
   54.0940  156.7860   25.1860 C   0  0  0  0  0  0  0  0  0  0  0  0
   52.6070  154.9860   24.2140 C   0  0  0  0  0  0  0  0  0  0  0  0
   54.8950  154.4690   25.0240 C   0  0  0  0  0  0  0  0  0  0  0  0
   53.9148  151.8161   27.5530 H   0  0  0  0  0  0  0  0  0  0  0  0
   52.8417  151.9758   26.1213 H   0  0  0  0  0  0  0  0  0  0  0  0
   54.4609  152.7536   26.1213 H   0  0  0  0  0  0  0  0  0  0  0  0
   52.3455  152.5684   29.0438 H   0  0  0  0  0  0  0  0  0  0  0  0
   51.2860  154.4654   30.2306 H   0  0  0  0  0  0  0  0  0  0  0  0
   53.5605  160.1162   30.1522 H   0  0  0  0  0  0  0  0  0  0  0  0
   52.8476  162.2263   31.2810 H   0  0  0  0  0  0  0  0  0  0  0  0
   50.4753  162.5128   32.0123 H   0  0  0  0  0  0  0  0  0  0  0  0
   47.8810  160.7820   31.1000 H   0  0  0  0  0  0  0  0  0  0  0  0
   48.0410  156.2260   29.4690 H   0  0  0  0  0  0  0  0  0  0  0  0
   52.3959  157.0762   26.9935 H   0  0  0  0  0  0  0  0  0  0  0  0
   54.2331  157.2221   26.1862 H   0  0  0  0  0  0  0  0  0  0  0  0
   55.0466  156.8169   24.6368 H   0  0  0  0  0  0  0  0  0  0  0  0
   53.3353  157.3628   24.6368 H   0  0  0  0  0  0  0  0  0  0  0  0
   51.6558  154.6751   24.6707 H   0  0  0  0  0  0  0  0  0  0  0  0
   52.4404  155.8764   23.5900 H   0  0  0  0  0  0  0  0  0  0  0  0
   52.9984  154.1690   23.5900 H   0  0  0  0  0  0  0  0  0  0  0  0
   55.3600  154.1575   25.9710 H   0  0  0  0  0  0  0  0  0  0  0  0
   54.6111  153.5782   24.4445 H   0  0  0  0  0  0  0  0  0  0  0  0
   55.6107  155.0706   24.4445 H   0  0  0  0  0  0  0  0  0  0  0  0
  1  2  1  0
  2  3  2  0
  3  4  1  0
  4  5  2  0
  5  6  1  0
  6  7  1  0
  7  8  1  0
  8  9  2  0
  9 10  1  0
 10 11  2  0
 11 12  1  0
 12 13  1  0
 12 14  2  0
 14 15  1  0
 15 16  2  0
 15 17  1  0
 17 18  1  0
  5 19  1  0
 19 20  2  0
 20 21  1  0
 21 22  1  0
 21 23  1  0
 21 24  1  0
 20  2  1  0
 17  6  2  0
 14  8  1  0
  1 25  1  0
  1 26  1  0
  1 27  1  0
  3 28  1  0
  4 29  1  0
  9 30  1  0
 10 31  1  0
 11 32  1  0
 13 33  1  0
 18 34  1  0
 19 35  1  0
 22 36  1  0
 22 37  1  0
 22 38  1  0
 23 39  1  0
 23 40  1  0
 23 41  1  0
 24 42  1  0
 24 43  1  0
 24 44  1  0
M  END
>  <meeko>  (3) 
{"is_sidechain": [false], "free_energy": -8.803, "intermolecular_energy": -10.365, "internal_energy": 0.096}

$$$$
cand_027_out
     RDKit          3D

 44 46  0  0  0  0  0  0  0  0999 V2000
   48.1320  159.3260   31.6010 C   0  0  0  0  0  0  0  0  0  0  0  0
   49.1390  158.5410   30.8020 C   0  0  0  0  0  0  0  0  0  0  0  0
   48.7260  157.2460   30.4180 C   0  0  0  0  0  0  0  0  0  0  0  0
   49.5460  156.4030   29.6720 C   0  0  0  0  0  0  0  0  0  0  0  0
   50.8080  156.8310   29.2790 C   0  0  0  0  0  0  0  0  0  0  0  0
   51.7160  155.9620   28.5000 C   0  0  0  0  0  0  0  0  0  0  0  0
   52.1790  156.5680   27.3380 O   0  0  0  0  0  0  0  0  0  0  0  0
   53.0290  155.8700   26.5190 C   0  0  0  0  0  0  0  0  0  0  0  0
   53.4790  156.5220   25.3700 C   0  0  0  0  0  0  0  0  0  0  0  0
   54.3460  155.8680   24.4920 C   0  0  0  0  0  0  0  0  0  0  0  0
   54.7620  154.5620   24.7630 C   0  0  0  0  0  0  0  0  0  0  0  0
   54.3120  153.9150   25.9100 C   0  0  0  0  0  0  0  0  0  0  0  0
   54.7580  152.6370   26.1130 O   0  0  0  0  0  0  0  0  0  0  0  0
   53.4450  154.5700   26.7890 C   0  0  0  0  0  0  0  0  0  0  0  0
   52.9480  153.9260   28.0050 C   0  0  0  0  0  0  0  0  0  0  0  0
   53.2640  152.7780   28.3080 O   0  0  0  0  0  0  0  0  0  0  0  0
   52.0380  154.7090   28.8720 C   0  0  0  0  0  0  0  0  0  0  0  0
   51.5640  154.0860   30.0120 O   0  0  0  0  0  0  0  0  0  0  0  0
   51.2330  158.1110   29.6800 C   0  0  0  0  0  0  0  0  0  0  0  0
   50.4400  158.9950   30.4580 C   0  0  0  0  0  0  0  0  0  0  0  0
   51.0190  160.3860   30.8390 C   0  0  0  0  0  0  0  0  0  0  0  0
   50.8920  160.7010   32.3470 C   0  0  0  0  0  0  0  0  0  0  0  0
   50.3050  161.4750   30.0120 C   0  0  0  0  0  0  0  0  0  0  0  0
   52.5380  160.5260   30.5320 C   0  0  0  0  0  0  0  0  0  0  0  0
   48.3207  159.1789   32.6746 H   0  0  0  0  0  0  0  0  0  0  0  0
   48.2221  160.3946   31.3559 H   0  0  0  0  0  0  0  0  0  0  0  0
   47.1177  158.9779   31.3559 H   0  0  0  0  0  0  0  0  0  0  0  0
   47.7279  156.8931   30.7168 H   0  0  0  0  0  0  0  0  0  0  0  0
   49.1945  155.3984   29.3940 H   0  0  0  0  0  0  0  0  0  0  0  0
   53.1511  157.5500   25.1562 H   0  0  0  0  0  0  0  0  0  0  0  0
   54.7016  156.3814   23.5865 H   0  0  0  0  0  0  0  0  0  0  0  0
   55.4440  154.0461   24.0710 H   0  0  0  0  0  0  0  0  0  0  0  0
   54.9670  152.0920   25.3810 H   0  0  0  0  0  0  0  0  0  0  0  0
   50.6580  153.8560   30.0760 H   0  0  0  0  0  0  0  0  0  0  0  0
   52.2352  158.4453   29.3737 H   0  0  0  0  0  0  0  0  0  0  0  0
   51.2402  159.8374   32.9326 H   0  0  0  0  0  0  0  0  0  0  0  0
   51.5057  161.5807   32.5908 H   0  0  0  0  0  0  0  0  0  0  0  0
   49.8397  160.9091   32.5908 H   0  0  0  0  0  0  0  0  0  0  0  0
   49.8304  162.1988   30.6909 H   0  0  0  0  0  0  0  0  0  0  0  0
   51.0388  161.9938   29.3777 H   0  0  0  0  0  0  0  0  0  0  0  0
   49.5366  161.0089   29.3777 H   0  0  0  0  0  0  0  0  0  0  0  0
   53.0997  160.5778   31.4764 H   0  0  0  0  0  0  0  0  0  0  0  0
   52.8765  159.6552   29.9513 H   0  0  0  0  0  0  0  0  0  0  0  0
   52.7116  161.4440   29.9513 H   0  0  0  0  0  0  0  0  0  0  0  0
  1  2  1  0
  2  3  2  0
  3  4  1  0
  4  5  2  0
  5  6  1  0
  6  7  1  0
  7  8  1  0
  8  9  2  0
  9 10  1  0
 10 11  2  0
 11 12  1  0
 12 13  1  0
 12 14  2  0
 14 15  1  0
 15 16  2  0
 15 17  1  0
 17 18  1  0
  5 19  1  0
 19 20  2  0
 20 21  1  0
 21 22  1  0
 21 23  1  0
 21 24  1  0
 20  2  1  0
 17  6  2  0
 14  8  1  0
  1 25  1  0
  1 26  1  0
  1 27  1  0
  3 28  1  0
  4 29  1  0
  9 30  1  0
 10 31  1  0
 11 32  1  0
 13 33  1  0
 18 34  1  0
 19 35  1  0
 22 36  1  0
 22 37  1  0
 22 38  1  0
 23 39  1  0
 23 40  1  0
 23 41  1  0
 24 42  1  0
 24 43  1  0
 24 44  1  0
M  END
>  <meeko>  (4) 
{"is_sidechain": [false], "free_energy": -8.569, "intermolecular_energy": -9.94, "internal_energy": -0.053}

$$$$
cand_027_out
     RDKit          3D

 44 46  0  0  0  0  0  0  0  0999 V2000
   53.7270  152.3180   26.3600 C   0  0  0  0  0  0  0  0  0  0  0  0
   53.0930  153.5290   26.9920 C   0  0  0  0  0  0  0  0  0  0  0  0
   52.4480  153.2960   28.2270 C   0  0  0  0  0  0  0  0  0  0  0  0
   51.8210  154.3170   28.9340 C   0  0  0  0  0  0  0  0  0  0  0  0
   51.8230  155.6130   28.4320 C   0  0  0  0  0  0  0  0  0  0  0  0
   51.1550  156.7240   29.1430 C   0  0  0  0  0  0  0  0  0  0  0  0
   52.0230  157.7640   29.4560 O   0  0  0  0  0  0  0  0  0  0  0  0
   51.5330  158.8590   30.1190 C   0  0  0  0  0  0  0  0  0  0  0  0
   52.4370  159.8850   30.4020 C   0  0  0  0  0  0  0  0  0  0  0  0
   52.0040  161.0280   31.0770 C   0  0  0  0  0  0  0  0  0  0  0  0
   50.6690  161.1460   31.4700 C   0  0  0  0  0  0  0  0  0  0  0  0
   49.7700  160.1210   31.1870 C   0  0  0  0  0  0  0  0  0  0  0  0
   48.4780  160.3010   31.6000 O   0  0  0  0  0  0  0  0  0  0  0  0
   50.2030  158.9780   30.5110 C   0  0  0  0  0  0  0  0  0  0  0  0
   49.2910  157.8780   30.1930 C   0  0  0  0  0  0  0  0  0  0  0  0
   48.1040  157.9050   30.5110 O   0  0  0  0  0  0  0  0  0  0  0  0
   49.8490  156.7130   29.4680 C   0  0  0  0  0  0  0  0  0  0  0  0
   48.9820  155.6740   29.1860 O   0  0  0  0  0  0  0  0  0  0  0  0
   52.4430  155.8450   27.1900 C   0  0  0  0  0  0  0  0  0  0  0  0
   53.0760  154.8300   26.4250 C   0  0  0  0  0  0  0  0  0  0  0  0
   53.7290  155.2100   25.0670 C   0  0  0  0  0  0  0  0  0  0  0  0
   52.8190  154.9090   23.8540 C   0  0  0  0  0  0  0  0  0  0  0  0
   55.0670  154.4560   24.9210 C   0  0  0  0  0  0  0  0  0  0  0  0
   54.0620  156.7250   24.9450 C   0  0  0  0  0  0  0  0  0  0  0  0
   54.0832  151.6376   27.1475 H   0  0  0  0  0  0  0  0  0  0  0  0
   52.9847  151.7994   25.7354 H   0  0  0  0  0  0  0  0  0  0  0  0
   54.5761  152.6325   25.7354 H   0  0  0  0  0  0  0  0  0  0  0  0
   52.4413  152.2773   28.6419 H   0  0  0  0  0  0  0  0  0  0  0  0
   51.3236  154.0985   29.8905 H   0  0  0  0  0  0  0  0  0  0  0  0
   53.4888  159.7929   30.0936 H   0  0  0  0  0  0  0  0  0  0  0  0
   52.7155  161.8368   31.2996 H   0  0  0  0  0  0  0  0  0  0  0  0
   50.3285  162.0466   32.0019 H   0  0  0  0  0  0  0  0  0  0  0  0
   47.7890  159.7990   31.2150 H   0  0  0  0  0  0  0  0  0  0  0  0
   49.1330  154.8250   29.5540 H   0  0  0  0  0  0  0  0  0  0  0  0
   52.4369  156.8696   26.7897 H   0  0  0  0  0  0  0  0  0  0  0  0
   51.8306  154.5821   24.2093 H   0  0  0  0  0  0  0  0  0  0  0  0
   52.7074  155.8181   23.2448 H   0  0  0  0  0  0  0  0  0  0  0  0
   53.2715  154.1127   23.2448 H   0  0  0  0  0  0  0  0  0  0  0  0
   55.4705  154.2286   25.9187 H   0  0  0  0  0  0  0  0  0  0  0  0
   54.9013  153.5184   24.3701 H   0  0  0  0  0  0  0  0  0  0  0  0
   55.7832  155.0833   24.3701 H   0  0  0  0  0  0  0  0  0  0  0  0
   54.1579  157.1614   25.9501 H   0  0  0  0  0  0  0  0  0  0  0  0
   55.0089  156.8495   24.3993 H   0  0  0  0  0  0  0  0  0  0  0  0
   53.2545  157.2351   24.3993 H   0  0  0  0  0  0  0  0  0  0  0  0
  1  2  1  0
  2  3  2  0
  3  4  1  0
  4  5  2  0
  5  6  1  0
  6  7  1  0
  7  8  1  0
  8  9  2  0
  9 10  1  0
 10 11  2  0
 11 12  1  0
 12 13  1  0
 12 14  2  0
 14 15  1  0
 15 16  2  0
 15 17  1  0
 17 18  1  0
  5 19  1  0
 19 20  2  0
 20 21  1  0
 21 22  1  0
 21 23  1  0
 21 24  1  0
 20  2  1  0
 17  6  2  0
 14  8  1  0
  1 25  1  0
  1 26  1  0
  1 27  1  0
  3 28  1  0
  4 29  1  0
  9 30  1  0
 10 31  1  0
 11 32  1  0
 13 33  1  0
 18 34  1  0
 19 35  1  0
 22 36  1  0
 22 37  1  0
 22 38  1  0
 23 39  1  0
 23 40  1  0
 23 41  1  0
 24 42  1  0
 24 43  1  0
 24 44  1  0
M  END
>  <meeko>  (5) 
{"is_sidechain": [false], "free_energy": -7.702, "intermolecular_energy": -9.097, "internal_energy": 0.122}

$$$$
cand_027_out
     RDKit          3D

 44 46  0  0  0  0  0  0  0  0999 V2000
   48.8590  160.5400   31.6860 C   0  0  0  0  0  0  0  0  0  0  0  0
   49.6810  159.5290   30.9320 C   0  0  0  0  0  0  0  0  0  0  0  0
   49.0140  158.3240   30.6170 C   0  0  0  0  0  0  0  0  0  0  0  0
   49.6410  157.2960   29.9180 C   0  0  0  0  0  0  0  0  0  0  0  0
   50.9590  157.4410   29.5030 C   0  0  0  0  0  0  0  0  0  0  0  0
   51.6670  156.3680   28.7730 C   0  0  0  0  0  0  0  0  0  0  0  0
   52.1930  156.7970   27.5590 O   0  0  0  0  0  0  0  0  0  0  0  0
   52.8740  155.9000   26.7770 C   0  0  0  0  0  0  0  0  0  0  0  0
   53.3950  156.3770   25.5740 C   0  0  0  0  0  0  0  0  0  0  0  0
   54.0990  155.5150   24.7290 C   0  0  0  0  0  0  0  0  0  0  0  0
   54.2800  154.1770   25.0880 C   0  0  0  0  0  0  0  0  0  0  0  0
   53.7590  153.7050   26.2890 C   0  0  0  0  0  0  0  0  0  0  0  0
   53.9730  152.3850   26.5780 O   0  0  0  0  0  0  0  0  0  0  0  0
   53.0560  154.5670   27.1340 C   0  0  0  0  0  0  0  0  0  0  0  0
   52.4920  154.1110   28.4040 C   0  0  0  0  0  0  0  0  0  0  0  0
   52.6040  152.9480   28.7860 O   0  0  0  0  0  0  0  0  0  0  0  0
   51.7690  155.1060   29.2300 C   0  0  0  0  0  0  0  0  0  0  0  0
   51.2270  154.6620   30.4220 O   0  0  0  0  0  0  0  0  0  0  0  0
   51.6350  158.6300   29.8360 C   0  0  0  0  0  0  0  0  0  0  0  0
   51.0420  159.6950   30.5640 C   0  0  0  0  0  0  0  0  0  0  0  0
   51.8920  160.9590   30.8710 C   0  0  0  0  0  0  0  0  0  0  0  0
   51.5470  162.1560   29.9540 C   0  0  0  0  0  0  0  0  0  0  0  0
   53.3880  160.6070   30.7350 C   0  0  0  0  0  0  0  0  0  0  0  0
   51.6960  161.4980   32.3170 C   0  0  0  0  0  0  0  0  0  0  0  0
   48.9865  160.3832   32.7673 H   0  0  0  0  0  0  0  0  0  0  0  0
   49.1918  161.5544   31.4208 H   0  0  0  0  0  0  0  0  0  0  0  0
   47.7981  160.4211   31.4208 H   0  0  0  0  0  0  0  0  0  0  0  0
   47.9685  158.1942   30.9333 H   0  0  0  0  0  0  0  0  0  0  0  0
   49.0928  156.3689   29.6943 H   0  0  0  0  0  0  0  0  0  0  0  0
   53.2518  157.4303   25.2910 H   0  0  0  0  0  0  0  0  0  0  0  0
   54.5109  155.8902   23.7805 H   0  0  0  0  0  0  0  0  0  0  0  0
   54.8333  153.4979   24.4226 H   0  0  0  0  0  0  0  0  0  0  0  0
   54.5980  151.8930   26.0830 H   0  0  0  0  0  0  0  0  0  0  0  0
   51.2980  155.1880   31.1940 H   0  0  0  0  0  0  0  0  0  0  0  0
   52.6811  158.7402   29.5142 H   0  0  0  0  0  0  0  0  0  0  0  0
   51.2950  163.0305   30.5718 H   0  0  0  0  0  0  0  0  0  0  0  0
   52.4134  162.3931   29.3190 H   0  0  0  0  0  0  0  0  0  0  0  0
   50.6873  161.8956   29.3190 H   0  0  0  0  0  0  0  0  0  0  0  0
   53.8325  160.5024   31.7357 H   0  0  0  0  0  0  0  0  0  0  0  0
   53.4933  159.6595   30.1862 H   0  0  0  0  0  0  0  0  0  0  0  0
   53.9048  161.4081   30.1862 H   0  0  0  0  0  0  0  0  0  0  0  0
   51.9792  160.7191   33.0402 H   0  0  0  0  0  0  0  0  0  0  0  0
   52.3291  162.3850   32.4667 H   0  0  0  0  0  0  0  0  0  0  0  0
   50.6410  161.7711   32.4667 H   0  0  0  0  0  0  0  0  0  0  0  0
  1  2  1  0
  2  3  2  0
  3  4  1  0
  4  5  2  0
  5  6  1  0
  6  7  1  0
  7  8  1  0
  8  9  2  0
  9 10  1  0
 10 11  2  0
 11 12  1  0
 12 13  1  0
 12 14  2  0
 14 15  1  0
 15 16  2  0
 15 17  1  0
 17 18  1  0
  5 19  1  0
 19 20  2  0
 20 21  1  0
 21 22  1  0
 21 23  1  0
 21 24  1  0
 20  2  1  0
 17  6  2  0
 14  8  1  0
  1 25  1  0
  1 26  1  0
  1 27  1  0
  3 28  1  0
  4 29  1  0
  9 30  1  0
 10 31  1  0
 11 32  1  0
 13 33  1  0
 18 34  1  0
 19 35  1  0
 22 36  1  0
 22 37  1  0
 22 38  1  0
 23 39  1  0
 23 40  1  0
 23 41  1  0
 24 42  1  0
 24 43  1  0
 24 44  1  0
M  END
>  <meeko>  (6) 
{"is_sidechain": [false], "free_energy": -7.363, "intermolecular_energy": -8.557, "internal_energy": -0.019}

$$$$
