cand_007_out
     RDKit          3D

 35 37  0  0  0  0  0  0  0  0999 V2000
   52.2540  152.9260   28.7340 O   0  0  0  0  0  0  0  0  0  0  0  0
   52.3360  154.0940   28.3570 C   0  0  0  0  0  0  0  0  0  0  0  0
   51.8300  155.1940   29.2110 C   0  0  0  0  0  0  0  0  0  0  0  0
   51.2590  154.8410   30.4200 O   0  0  0  0  0  0  0  0  0  0  0  0
   51.9360  156.4580   28.7600 C   0  0  0  0  0  0  0  0  0  0  0  0
   51.4550  157.6310   29.5190 C   0  0  0  0  0  0  0  0  0  0  0  0
   52.2420  158.7750   29.6850 C   0  0  0  0  0  0  0  0  0  0  0  0
   51.7580  159.8800   30.3890 C   0  0  0  0  0  0  0  0  0  0  0  0
   50.4670  159.8760   30.9420 C   0  0  0  0  0  0  0  0  0  0  0  0
   49.9710  161.0890   31.6980 C   0  0  0  0  0  0  0  0  0  0  0  0
   50.9630  161.9940   31.9260 F   0  0  0  0  0  0  0  0  0  0  0  0
   49.0010  161.7640   31.0210 F   0  0  0  0  0  0  0  0  0  0  0  0
   49.4410  160.8010   32.9190 F   0  0  0  0  0  0  0  0  0  0  0  0
   49.6530  158.7340   30.7700 C   0  0  0  0  0  0  0  0  0  0  0  0
   48.2560  158.6660   31.3410 C   0  0  0  0  0  0  0  0  0  0  0  0
   47.3290  159.3160   30.5810 F   0  0  0  0  0  0  0  0  0  0  0  0
   50.1600  157.6280   30.0600 C   0  0  0  0  0  0  0  0  0  0  0  0
   52.4880  156.7980   27.5300 O   0  0  0  0  0  0  0  0  0  0  0  0
   52.9700  155.8000   26.7210 C   0  0  0  0  0  0  0  0  0  0  0  0
   53.5220  156.1880   25.4990 C   0  0  0  0  0  0  0  0  0  0  0  0
   54.0310  155.2230   24.6280 C   0  0  0  0  0  0  0  0  0  0  0  0
   53.9860  153.8720   24.9760 C   0  0  0  0  0  0  0  0  0  0  0  0
   53.4340  153.4880   26.1960 C   0  0  0  0  0  0  0  0  0  0  0  0
   53.4220  152.1480   26.4730 O   0  0  0  0  0  0  0  0  0  0  0  0
   52.9260  154.4540   27.0680 C   0  0  0  0  0  0  0  0  0  0  0  0
   50.3270  154.7740   30.4970 H   0  0  0  0  0  0  0  0  0  0  0  0
   53.2544  158.8050   29.2560 H   0  0  0  0  0  0  0  0  0  0  0  0
   52.3975  160.7665   30.5121 H   0  0  0  0  0  0  0  0  0  0  0  0
   47.9627  157.6088   31.4205 H   0  0  0  0  0  0  0  0  0  0  0  0
   48.2807  159.1650   32.3210 H   0  0  0  0  0  0  0  0  0  0  0  0
   49.5250  156.7398   29.9263 H   0  0  0  0  0  0  0  0  0  0  0  0
   53.5559  157.2522   25.2228 H   0  0  0  0  0  0  0  0  0  0  0  0
   54.4683  155.5279   23.6658 H   0  0  0  0  0  0  0  0  0  0  0  0
   54.3856  153.1121   24.2883 H   0  0  0  0  0  0  0  0  0  0  0  0
   54.0040  151.7980   27.1180 H   0  0  0  0  0  0  0  0  0  0  0  0
  1  2  2  0
  2  3  1  0
  3  4  1  0
  3  5  2  0
  5  6  1  0
  6  7  2  0
  7  8  1  0
  8  9  2  0
  9 10  1  0
 10 11  1  0
 10 12  1  0
 10 13  1  0
  9 14  1  0
 14 15  1  0
 15 16  1  0
 14 17  2  0
  5 18  1  0
 18 19  1  0
 19 20  2  0
 20 21  1  0
 21 22  2  0
 22 23  1  0
 23 24  1  0
 23 25  2  0
 25  2  1  0
 17  6  1  0
 25 19  1  0
  4 26  1  0
  7 27  1  0
  8 28  1  0
 15 29  1  0
 15 30  1  0
 17 31  1  0
 20 32  1  0
 21 33  1  0
 22 34  1  0
 24 35  1  0
M  END
>  <meeko>  (1) 
{"is_sidechain": [false], "free_energy": -11.053, "intermolecular_energy": -13.637, "internal_energy": -0.214}

$$$$
cand_007_out
     RDKit          3D

 35 37  0  0  0  0  0  0  0  0999 V2000
   52.4450  152.8930   28.8070 O   0  0  0  0  0  0  0  0  0  0  0  0
   52.4030  154.0630   28.4330 C   0  0  0  0  0  0  0  0  0  0  0  0
   51.7350  155.0920   29.2630 C   0  0  0  0  0  0  0  0  0  0  0  0
   51.1610  154.6710   30.4480 O   0  0  0  0  0  0  0  0  0  0  0  0
   51.7100  156.3620   28.8150 C   0  0  0  0  0  0  0  0  0  0  0  0
   51.0610  157.4670   29.5510 C   0  0  0  0  0  0  0  0  0  0  0  0
   49.7770  157.3410   30.0900 C   0  0  0  0  0  0  0  0  0  0  0  0
   49.1920  158.3930   30.7990 C   0  0  0  0  0  0  0  0  0  0  0  0
   49.8800  159.6020   30.9950 C   0  0  0  0  0  0  0  0  0  0  0  0
   49.2190  160.7220   31.7690 C   0  0  0  0  0  0  0  0  0  0  0  0
   47.9470  160.4100   32.1420 F   0  0  0  0  0  0  0  0  0  0  0  0
   49.8810  161.0200   32.9210 F   0  0  0  0  0  0  0  0  0  0  0  0
   49.1290  161.8920   31.0780 F   0  0  0  0  0  0  0  0  0  0  0  0
   51.1840  159.7410   30.4710 C   0  0  0  0  0  0  0  0  0  0  0  0
   51.9750  161.0160   30.6460 C   0  0  0  0  0  0  0  0  0  0  0  0
   52.5480  161.1310   31.8780 F   0  0  0  0  0  0  0  0  0  0  0  0
   51.7550  158.6700   29.7550 C   0  0  0  0  0  0  0  0  0  0  0  0
   52.2680  156.7690   27.6080 O   0  0  0  0  0  0  0  0  0  0  0  0
   52.8970  155.8390   26.8220 C   0  0  0  0  0  0  0  0  0  0  0  0
   53.4500  156.2930   25.6230 C   0  0  0  0  0  0  0  0  0  0  0  0
   54.1050  155.3980   24.7750 C   0  0  0  0  0  0  0  0  0  0  0  0
   54.2070  154.0510   25.1230 C   0  0  0  0  0  0  0  0  0  0  0  0
   53.6540  153.5990   26.3190 C   0  0  0  0  0  0  0  0  0  0  0  0
   53.7900  152.2670   26.5980 O   0  0  0  0  0  0  0  0  0  0  0  0
   52.9990  154.4950   27.1680 C   0  0  0  0  0  0  0  0  0  0  0  0
   50.6070  153.9140   30.4580 H   0  0  0  0  0  0  0  0  0  0  0  0
   49.2206  156.4019   29.9541 H   0  0  0  0  0  0  0  0  0  0  0  0
   48.1785  158.2730   31.2095 H   0  0  0  0  0  0  0  0  0  0  0  0
   52.7710  161.0398   29.8872 H   0  0  0  0  0  0  0  0  0  0  0  0
   51.2709  161.8538   30.5349 H   0  0  0  0  0  0  0  0  0  0  0  0
   52.7701  158.7794   29.3456 H   0  0  0  0  0  0  0  0  0  0  0  0
   53.3697  157.3547   25.3468 H   0  0  0  0  0  0  0  0  0  0  0  0
   54.5414  155.7556   23.8307 H   0  0  0  0  0  0  0  0  0  0  0  0
   54.7233  153.3468   24.4540 H   0  0  0  0  0  0  0  0  0  0  0  0
   54.6420  151.8840   26.6520 H   0  0  0  0  0  0  0  0  0  0  0  0
  1  2  2  0
  2  3  1  0
  3  4  1  0
  3  5  2  0
  5  6  1  0
  6  7  2  0
  7  8  1  0
  8  9  2  0
  9 10  1  0
 10 11  1  0
 10 12  1  0
 10 13  1  0
  9 14  1  0
 14 15  1  0
 15 16  1  0
 14 17  2  0
  5 18  1  0
 18 19  1  0
 19 20  2  0
 20 21  1  0
 21 22  2  0
 22 23  1  0
 23 24  1  0
 23 25  2  0
 25  2  1  0
 17  6  1  0
 25 19  1  0
  4 26  1  0
  7 27  1  0
  8 28  1  0
 15 29  1  0
 15 30  1  0
 17 31  1  0
 20 32  1  0
 21 33  1  0
 22 34  1  0
 24 35  1  0
M  END
>  <meeko>  (2) 
{"is_sidechain": [false], "free_energy": -11.013, "intermolecular_energy": -13.572, "internal_energy": -0.231}

$$$$
cand_007_out
     RDKit          3D

 35 37  0  0  0  0  0  0  0  0999 V2000
   52.5770  160.6200   30.6760 O   0  0  0  0  0  0  0  0  0  0  0  0
   51.8340  159.6750   30.4170 C   0  0  0  0  0  0  0  0  0  0  0  0
   52.3450  158.5040   29.6680 C   0  0  0  0  0  0  0  0  0  0  0  0
   53.6690  158.5380   29.2710 O   0  0  0  0  0  0  0  0  0  0  0  0
   51.4980  157.4910   29.4030 C   0  0  0  0  0  0  0  0  0  0  0  0
   51.8920  156.2800   28.6530 C   0  0  0  0  0  0  0  0  0  0  0  0
   51.5420  154.9980   29.0870 C   0  0  0  0  0  0  0  0  0  0  0  0
   51.9090  153.8690   28.3510 C   0  0  0  0  0  0  0  0  0  0  0  0
   52.6310  153.9910   27.1520 C   0  0  0  0  0  0  0  0  0  0  0  0
   53.0120  152.7490   26.3770 C   0  0  0  0  0  0  0  0  0  0  0  0
   54.3180  152.4070   26.5610 F   0  0  0  0  0  0  0  0  0  0  0  0
   52.2870  151.6590   26.7520 F   0  0  0  0  0  0  0  0  0  0  0  0
   52.8420  152.8640   25.0310 F   0  0  0  0  0  0  0  0  0  0  0  0
   52.9780  155.2810   26.6910 C   0  0  0  0  0  0  0  0  0  0  0  0
   53.7560  155.4800   25.4110 C   0  0  0  0  0  0  0  0  0  0  0  0
   53.4900  156.6680   24.7970 F   0  0  0  0  0  0  0  0  0  0  0  0
   52.6030  156.4070   27.4500 C   0  0  0  0  0  0  0  0  0  0  0  0
   50.1610  157.4800   29.7850 O   0  0  0  0  0  0  0  0  0  0  0  0
   49.6620  158.5490   30.4850 C   0  0  0  0  0  0  0  0  0  0  0  0
   48.3170  158.4910   30.8540 C   0  0  0  0  0  0  0  0  0  0  0  0
   47.7460  159.5460   31.5690 C   0  0  0  0  0  0  0  0  0  0  0  0
   48.5170  160.6580   31.9120 C   0  0  0  0  0  0  0  0  0  0  0  0
   49.8580  160.7130   31.5420 C   0  0  0  0  0  0  0  0  0  0  0  0
   50.5550  161.8310   31.9100 O   0  0  0  0  0  0  0  0  0  0  0  0
   50.4300  159.6570   30.8270 C   0  0  0  0  0  0  0  0  0  0  0  0
   54.3070  158.0210   29.7220 H   0  0  0  0  0  0  0  0  0  0  0  0
   50.9708  154.8769   30.0192 H   0  0  0  0  0  0  0  0  0  0  0  0
   51.6286  152.8697   28.7155 H   0  0  0  0  0  0  0  0  0  0  0  0
   54.8300  155.4411   25.6456 H   0  0  0  0  0  0  0  0  0  0  0  0
   53.4536  154.6806   24.7185 H   0  0  0  0  0  0  0  0  0  0  0  0
   52.8743  157.4106   27.0907 H   0  0  0  0  0  0  0  0  0  0  0  0
   47.7081  157.6161   30.5822 H   0  0  0  0  0  0  0  0  0  0  0  0
   46.6868  159.5007   31.8624 H   0  0  0  0  0  0  0  0  0  0  0  0
   48.0658  161.4893   32.4736 H   0  0  0  0  0  0  0  0  0  0  0  0
   50.8810  161.9130   32.7840 H   0  0  0  0  0  0  0  0  0  0  0  0
  1  2  2  0
  2  3  1  0
  3  4  1  0
  3  5  2  0
  5  6  1  0
  6  7  2  0
  7  8  1  0
  8  9  2  0
  9 10  1  0
 10 11  1  0
 10 12  1  0
 10 13  1  0
  9 14  1  0
 14 15  1  0
 15 16  1  0
 14 17  2  0
  5 18  1  0
 18 19  1  0
 19 20  2  0
 20 21  1  0
 21 22  2  0
 22 23  1  0
 23 24  1  0
 23 25  2  0
 25  2  1  0
 17  6  1  0
 25 19  1  0
  4 26  1  0
  7 27  1  0
  8 28  1  0
 15 29  1  0
 15 30  1  0
 17 31  1  0
 20 32  1  0
 21 33  1  0
 22 34  1  0
 24 35  1  0
M  END
>  <meeko>  (3) 
{"is_sidechain": [false], "free_energy": -10.512, "intermolecular_energy": -13.175, "internal_energy": -0.009}

$$$$
cand_007_out
     RDKit          3D

 35 37  0  0  0  0  0  0  0  0999 V2000
   52.2640  161.2660   31.2930 O   0  0  0  0  0  0  0  0  0  0  0  0
   51.5880  160.3100   30.9180 C   0  0  0  0  0  0  0  0  0  0  0  0
   52.1850  159.2620   30.0570 C   0  0  0  0  0  0  0  0  0  0  0  0
   53.5100  159.4240   29.6950 O   0  0  0  0  0  0  0  0  0  0  0  0
   51.4110  158.2330   29.6660 C   0  0  0  0  0  0  0  0  0  0  0  0
   51.8940  157.1390   28.7980 C   0  0  0  0  0  0  0  0  0  0  0  0
   52.5620  157.3930   27.5950 C   0  0  0  0  0  0  0  0  0  0  0  0
   53.0280  156.3430   26.8010 C   0  0  0  0  0  0  0  0  0  0  0  0
   52.8450  155.0050   27.1900 C   0  0  0  0  0  0  0  0  0  0  0  0
   53.3620  153.8910   26.3080 C   0  0  0  0  0  0  0  0  0  0  0  0
   52.3680  153.3010   25.5870 F   0  0  0  0  0  0  0  0  0  0  0  0
   54.2730  154.3300   25.3950 F   0  0  0  0  0  0  0  0  0  0  0  0
   53.9750  152.8850   26.9910 F   0  0  0  0  0  0  0  0  0  0  0  0
   52.1870  154.7320   28.4100 C   0  0  0  0  0  0  0  0  0  0  0  0
   51.9570  153.3160   28.8840 C   0  0  0  0  0  0  0  0  0  0  0  0
   51.2070  152.5720   28.0210 F   0  0  0  0  0  0  0  0  0  0  0  0
   51.7200  155.8050   29.1950 C   0  0  0  0  0  0  0  0  0  0  0  0
   50.0720  158.0950   30.0140 O   0  0  0  0  0  0  0  0  0  0  0  0
   49.4930  159.0470   30.8150 C   0  0  0  0  0  0  0  0  0  0  0  0
   48.1500  158.8640   31.1460 C   0  0  0  0  0  0  0  0  0  0  0  0
   47.5000  159.7960   31.9580 C   0  0  0  0  0  0  0  0  0  0  0  0
   48.1910  160.9100   32.4360 C   0  0  0  0  0  0  0  0  0  0  0  0
   49.5320  161.0910   32.1040 C   0  0  0  0  0  0  0  0  0  0  0  0
   50.1480  162.2040   32.6070 O   0  0  0  0  0  0  0  0  0  0  0  0
   50.1820  160.1570   31.2920 C   0  0  0  0  0  0  0  0  0  0  0  0
   53.9480  160.2340   29.8690 H   0  0  0  0  0  0  0  0  0  0  0  0
   52.7219  158.4319   27.2709 H   0  0  0  0  0  0  0  0  0  0  0  0
   53.5462  156.5666   25.8568 H   0  0  0  0  0  0  0  0  0  0  0  0
   52.9343  152.8265   29.0081 H   0  0  0  0  0  0  0  0  0  0  0  0
   51.3997  153.3763   29.8304 H   0  0  0  0  0  0  0  0  0  0  0  0
   51.2058  155.5909   30.1435 H   0  0  0  0  0  0  0  0  0  0  0  0
   47.6040  157.9871   30.7680 H   0  0  0  0  0  0  0  0  0  0  0  0
   46.4417  159.6517   32.2211 H   0  0  0  0  0  0  0  0  0  0  0  0
   47.6777  161.6444   33.0741 H   0  0  0  0  0  0  0  0  0  0  0  0
   49.7220  163.0360   32.5600 H   0  0  0  0  0  0  0  0  0  0  0  0
  1  2  2  0
  2  3  1  0
  3  4  1  0
  3  5  2  0
  5  6  1  0
  6  7  2  0
  7  8  1  0
  8  9  2  0
  9 10  1  0
 10 11  1  0
 10 12  1  0
 10 13  1  0
  9 14  1  0
 14 15  1  0
 15 16  1  0
 14 17  2  0
  5 18  1  0
 18 19  1  0
 19 20  2  0
 20 21  1  0
 21 22  2  0
 22 23  1  0
 23 24  1  0
 23 25  2  0
 25  2  1  0
 17  6  1  0
 25 19  1  0
  4 26  1  0
  7 27  1  0
  8 28  1  0
 15 29  1  0
 15 30  1  0
 17 31  1  0
 20 32  1  0
 21 33  1  0
 22 34  1  0
 24 35  1  0
M  END
>  <meeko>  (4) 
{"is_sidechain": [false], "free_energy": -9.481, "intermolecular_energy": -11.845, "internal_energy": -0.066}

$$$$
cand_007_out
     RDKit          3D

 35 37  0  0  0  0  0  0  0  0999 V2000
   48.1410  158.5250   31.0370 O   0  0  0  0  0  0  0  0  0  0  0  0
   49.2970  158.4640   30.6250 C   0  0  0  0  0  0  0  0  0  0  0  0
   49.7580  157.2840   29.8580 C   0  0  0  0  0  0  0  0  0  0  0  0
   48.8410  156.2700   29.6500 O   0  0  0  0  0  0  0  0  0  0  0  0
   51.0330  157.2550   29.4260 C   0  0  0  0  0  0  0  0  0  0  0  0
   51.6050  156.1250   28.6640 C   0  0  0  0  0  0  0  0  0  0  0  0
   51.3680  154.7960   29.0280 C   0  0  0  0  0  0  0  0  0  0  0  0
   51.9030  153.7440   28.2810 C   0  0  0  0  0  0  0  0  0  0  0  0
   52.6880  153.9920   27.1420 C   0  0  0  0  0  0  0  0  0  0  0  0
   53.2520  152.8300   26.3540 C   0  0  0  0  0  0  0  0  0  0  0  0
   52.5970  151.6650   26.6130 F   0  0  0  0  0  0  0  0  0  0  0  0
   53.1560  153.0190   25.0090 F   0  0  0  0  0  0  0  0  0  0  0  0
   54.5680  152.5820   26.6020 F   0  0  0  0  0  0  0  0  0  0  0  0
   52.9240  155.3290   26.7520 C   0  0  0  0  0  0  0  0  0  0  0  0
   53.7610  155.6620   25.5390 C   0  0  0  0  0  0  0  0  0  0  0  0
   53.2530  156.6890   24.7990 F   0  0  0  0  0  0  0  0  0  0  0  0
   52.3790  156.3760   27.5210 C   0  0  0  0  0  0  0  0  0  0  0  0
   51.9540  158.2690   29.6640 O   0  0  0  0  0  0  0  0  0  0  0  0
   51.5540  159.3770   30.3670 C   0  0  0  0  0  0  0  0  0  0  0  0
   52.5100  160.3730   30.5750 C   0  0  0  0  0  0  0  0  0  0  0  0
   52.1690  161.5270   31.2830 C   0  0  0  0  0  0  0  0  0  0  0  0
   50.8750  161.6850   31.7830 C   0  0  0  0  0  0  0  0  0  0  0  0
   49.9240  160.6900   31.5740 C   0  0  0  0  0  0  0  0  0  0  0  0
   48.6760  160.9090   32.0920 O   0  0  0  0  0  0  0  0  0  0  0  0
   50.2650  159.5350   30.8650 C   0  0  0  0  0  0  0  0  0  0  0  0
   48.4370  156.1670   28.8100 H   0  0  0  0  0  0  0  0  0  0  0  0
   50.7529  154.5763   29.9131 H   0  0  0  0  0  0  0  0  0  0  0  0
   51.7070  152.7063   28.5887 H   0  0  0  0  0  0  0  0  0  0  0  0
   54.7701  155.9407   25.8768 H   0  0  0  0  0  0  0  0  0  0  0  0
   53.7713  154.7702   24.8952 H   0  0  0  0  0  0  0  0  0  0  0  0
   52.5650  157.4168   27.2176 H   0  0  0  0  0  0  0  0  0  0  0  0
   53.5298  160.2488   30.1819 H   0  0  0  0  0  0  0  0  0  0  0  0
   52.9209  162.3129   31.4471 H   0  0  0  0  0  0  0  0  0  0  0  0
   50.6074  162.5943   32.3412 H   0  0  0  0  0  0  0  0  0  0  0  0
   48.3010  161.7660   32.0610 H   0  0  0  0  0  0  0  0  0  0  0  0
  1  2  2  0
  2  3  1  0
  3  4  1  0
  3  5  2  0
  5  6  1  0
  6  7  2  0
  7  8  1  0
  8  9  2  0
  9 10  1  0
 10 11  1  0
 10 12  1  0
 10 13  1  0
  9 14  1  0
 14 15  1  0
 15 16  1  0
 14 17  2  0
  5 18  1  0
 18 19  1  0
 19 20  2  0
 20 21  1  0
 21 22  2  0
 22 23  1  0
 23 24  1  0
 23 25  2  0
 25  2  1  0
 17  6  1  0
 25 19  1  0
  4 26  1  0
  7 27  1  0
  8 28  1  0
 15 29  1  0
 15 30  1  0
 17 31  1  0
 20 32  1  0
 21 33  1  0
 22 34  1  0
 24 35  1  0
M  END
>  <meeko>  (5) 
{"is_sidechain": [false], "free_energy": -9.36, "intermolecular_energy": -11.773, "internal_energy": 0.01}

$$$$
cand_007_out
     RDKit          3D

 35 37  0  0  0  0  0  0  0  0999 V2000
   48.2640  158.4750   31.2780 O   0  0  0  0  0  0  0  0  0  0  0  0
   49.3930  158.5620   30.8000 C   0  0  0  0  0  0  0  0  0  0  0  0
   49.9170  157.4940   29.9170 C   0  0  0  0  0  0  0  0  0  0  0  0
   49.0910  156.4120   29.6780 O   0  0  0  0  0  0  0  0  0  0  0  0
   51.1600  157.6270   29.4160 C   0  0  0  0  0  0  0  0  0  0  0  0
   51.7910  156.6200   28.5370 C   0  0  0  0  0  0  0  0  0  0  0  0
   52.5740  156.9880   27.4390 C   0  0  0  0  0  0  0  0  0  0  0  0
   53.1770  156.0190   26.6330 C   0  0  0  0  0  0  0  0  0  0  0  0
   53.0180  154.6500   26.9080 C   0  0  0  0  0  0  0  0  0  0  0  0
   53.6850  153.6250   26.0170 C   0  0  0  0  0  0  0  0  0  0  0  0
   52.8040  153.0330   25.1640 F   0  0  0  0  0  0  0  0  0  0  0  0
   54.6530  154.1710   25.2300 F   0  0  0  0  0  0  0  0  0  0  0  0
   54.2860  152.6100   26.6970 F   0  0  0  0  0  0  0  0  0  0  0  0
   52.2430  154.2620   28.0230 C   0  0  0  0  0  0  0  0  0  0  0  0
   52.0320  152.8070   28.3710 C   0  0  0  0  0  0  0  0  0  0  0  0
   51.4270  152.0960   27.3760 F   0  0  0  0  0  0  0  0  0  0  0  0
   51.6400  155.2540   28.8210 C   0  0  0  0  0  0  0  0  0  0  0  0
   51.9920  158.7080   29.6850 O   0  0  0  0  0  0  0  0  0  0  0  0
   51.5310  159.7140   30.4950 C   0  0  0  0  0  0  0  0  0  0  0  0
   52.3970  160.7830   30.7310 C   0  0  0  0  0  0  0  0  0  0  0  0
   51.9910  161.8410   31.5460 C   0  0  0  0  0  0  0  0  0  0  0  0
   50.7210  161.8300   32.1260 C   0  0  0  0  0  0  0  0  0  0  0  0
   49.8590  160.7620   31.8890 C   0  0  0  0  0  0  0  0  0  0  0  0
   48.6310  160.8160   32.4890 O   0  0  0  0  0  0  0  0  0  0  0  0
   50.2660  159.7040   31.0730 C   0  0  0  0  0  0  0  0  0  0  0  0
   48.6640  155.9810   30.3930 H   0  0  0  0  0  0  0  0  0  0  0  0
   52.7172  158.0536   27.2067 H   0  0  0  0  0  0  0  0  0  0  0  0
   53.7847  156.3320   25.7712 H   0  0  0  0  0  0  0  0  0  0  0  0
   53.0118  152.3522   28.5789 H   0  0  0  0  0  0  0  0  0  0  0  0
   51.3658  152.7747   29.2457 H   0  0  0  0  0  0  0  0  0  0  0  0
   51.0356  154.9503   29.6885 H   0  0  0  0  0  0  0  0  0  0  0  0
   53.3981  160.7917   30.2753 H   0  0  0  0  0  0  0  0  0  0  0  0
   52.6724  162.6844   31.7315 H   0  0  0  0  0  0  0  0  0  0  0  0
   50.4018  162.6634   32.7690 H   0  0  0  0  0  0  0  0  0  0  0  0
   47.8680  160.5480   32.0180 H   0  0  0  0  0  0  0  0  0  0  0  0
  1  2  2  0
  2  3  1  0
  3  4  1  0
  3  5  2  0
  5  6  1  0
  6  7  2  0
  7  8  1  0
  8  9  2  0
  9 10  1  0
 10 11  1  0
 10 12  1  0
 10 13  1  0
  9 14  1  0
 14 15  1  0
 15 16  1  0
 14 17  2  0
  5 18  1  0
 18 19  1  0
 19 20  2  0
 20 21  1  0
 21 22  2  0
 22 23  1  0
 23 24  1  0
 23 25  2  0
 25  2  1  0
 17  6  1  0
 25 19  1  0
  4 26  1  0
  7 27  1  0
  8 28  1  0
 15 29  1  0
 15 30  1  0
 17 31  1  0
 20 32  1  0
 21 33  1  0
 22 34  1  0
 24 35  1  0
M  END
>  <meeko>  (6) 
{"is_sidechain": [false], "free_energy": -8.726, "intermolecular_energy": -11.066, "internal_energy": 0.086}

$$$$
cand_007_out
     RDKit          3D

 35 37  0  0  0  0  0  0  0  0999 V2000
   54.5400  155.4040   25.1870 O   0  0  0  0  0  0  0  0  0  0  0  0
   53.6800  155.0380   25.9860 C   0  0  0  0  0  0  0  0  0  0  0  0
   52.9990  156.0240   26.8580 C   0  0  0  0  0  0  0  0  0  0  0  0
   53.3870  157.3460   26.7370 O   0  0  0  0  0  0  0  0  0  0  0  0
   52.0650  155.5810   27.7200 C   0  0  0  0  0  0  0  0  0  0  0  0
   51.3310  156.4700   28.6460 C   0  0  0  0  0  0  0  0  0  0  0  0
   50.1120  156.0930   29.2190 C   0  0  0  0  0  0  0  0  0  0  0  0
   49.4470  156.9420   30.1070 C   0  0  0  0  0  0  0  0  0  0  0  0
   49.9870  158.1920   30.4540 C   0  0  0  0  0  0  0  0  0  0  0  0
   49.2420  159.0870   31.4190 C   0  0  0  0  0  0  0  0  0  0  0  0
   48.6370  160.1330   30.7900 F   0  0  0  0  0  0  0  0  0  0  0  0
   48.2510  158.4280   32.0810 F   0  0  0  0  0  0  0  0  0  0  0  0
   50.0310  159.6370   32.3830 F   0  0  0  0  0  0  0  0  0  0  0  0
   51.2250  158.5810   29.8960 C   0  0  0  0  0  0  0  0  0  0  0  0
   51.8570  159.9130   30.2260 C   0  0  0  0  0  0  0  0  0  0  0  0
   51.1330  160.9800   29.7800 F   0  0  0  0  0  0  0  0  0  0  0  0
   51.8780  157.7130   28.9990 C   0  0  0  0  0  0  0  0  0  0  0  0
   51.7020  154.2460   27.8510 O   0  0  0  0  0  0  0  0  0  0  0  0
   52.3120  153.3120   27.0530 C   0  0  0  0  0  0  0  0  0  0  0  0
   51.9110  151.9840   27.2140 C   0  0  0  0  0  0  0  0  0  0  0  0
   52.4910  150.9830   26.4330 C   0  0  0  0  0  0  0  0  0  0  0  0
   53.4730  151.3070   25.4940 C   0  0  0  0  0  0  0  0  0  0  0  0
   53.8710  152.6330   25.3370 C   0  0  0  0  0  0  0  0  0  0  0  0
   54.8370  152.8800   24.4000 O   0  0  0  0  0  0  0  0  0  0  0  0
   53.2890  153.6350   26.1180 C   0  0  0  0  0  0  0  0  0  0  0  0
   53.1980  157.9550   27.4240 H   0  0  0  0  0  0  0  0  0  0  0  0
   49.6719  155.1168   28.9675 H   0  0  0  0  0  0  0  0  0  0  0  0
   48.4865  156.6273   30.5410 H   0  0  0  0  0  0  0  0  0  0  0  0
   51.9564  159.9909   31.3187 H   0  0  0  0  0  0  0  0  0  0  0  0
   52.8318  159.9456   29.7173 H   0  0  0  0  0  0  0  0  0  0  0  0
   52.8414  158.0175   28.5641 H   0  0  0  0  0  0  0  0  0  0  0  0
   51.1395  151.7273   27.9549 H   0  0  0  0  0  0  0  0  0  0  0  0
   52.1741  149.9370   26.5572 H   0  0  0  0  0  0  0  0  0  0  0  0
   53.9309  150.5174   24.8801 H   0  0  0  0  0  0  0  0  0  0  0  0
   55.4950  152.2380   24.2250 H   0  0  0  0  0  0  0  0  0  0  0  0
  1  2  2  0
  2  3  1  0
  3  4  1  0
  3  5  2  0
  5  6  1  0
  6  7  2  0
  7  8  1  0
  8  9  2  0
  9 10  1  0
 10 11  1  0
 10 12  1  0
 10 13  1  0
  9 14  1  0
 14 15  1  0
 15 16  1  0
 14 17  2  0
  5 18  1  0
 18 19  1  0
 19 20  2  0
 20 21  1  0
 21 22  2  0
 22 23  1  0
 23 24  1  0
 23 25  2  0
 25  2  1  0
 17  6  1  0
 25 19  1  0
  4 26  1  0
  7 27  1  0
  8 28  1  0
 15 29  1  0
 15 30  1  0
 17 31  1  0
 20 32  1  0
 21 33  1  0
 22 34  1  0
 24 35  1  0
M  END
>  <meeko>  (7) 
{"is_sidechain": [false], "free_energy": -8.227, "intermolecular_energy": -10.593, "internal_energy": 0.228}

$$$$
cand_007_out
     RDKit          3D

 35 37  0  0  0  0  0  0  0  0999 V2000
   54.0830  154.6150   24.9020 O   0  0  0  0  0  0  0  0  0  0  0  0
   53.3800  154.5240   25.9070 C   0  0  0  0  0  0  0  0  0  0  0  0
   53.0350  155.7310   26.6920 C   0  0  0  0  0  0  0  0  0  0  0  0
   53.5480  156.9380   26.2510 O   0  0  0  0  0  0  0  0  0  0  0  0
   52.2650  155.5880   27.7870 C   0  0  0  0  0  0  0  0  0  0  0  0
   51.8690  156.7190   28.6530 C   0  0  0  0  0  0  0  0  0  0  0  0
   52.7380  157.7810   28.9210 C   0  0  0  0  0  0  0  0  0  0  0  0
   52.3340  158.8490   29.7260 C   0  0  0  0  0  0  0  0  0  0  0  0
   51.0440  158.8880   30.2810 C   0  0  0  0  0  0  0  0  0  0  0  0
   50.6370  160.0590   31.1490 C   0  0  0  0  0  0  0  0  0  0  0  0
   49.8360  160.9380   30.4850 F   0  0  0  0  0  0  0  0  0  0  0  0
   49.9320  159.6720   32.2480 F   0  0  0  0  0  0  0  0  0  0  0  0
   51.6860  160.7900   31.6170 F   0  0  0  0  0  0  0  0  0  0  0  0
   50.1490  157.8300   30.0070 C   0  0  0  0  0  0  0  0  0  0  0  0
   48.7490  157.8120   30.5760 C   0  0  0  0  0  0  0  0  0  0  0  0
   47.8770  158.6050   29.8890 F   0  0  0  0  0  0  0  0  0  0  0  0
   50.5760  156.7600   29.1960 C   0  0  0  0  0  0  0  0  0  0  0  0
   51.7770  154.3660   28.2360 O   0  0  0  0  0  0  0  0  0  0  0  0
   52.0760  153.2310   27.5260 C   0  0  0  0  0  0  0  0  0  0  0  0
   51.5580  152.0280   28.0090 C   0  0  0  0  0  0  0  0  0  0  0  0
   51.8250  150.8350   27.3330 C   0  0  0  0  0  0  0  0  0  0  0  0
   52.6080  150.8450   26.1780 C   0  0  0  0  0  0  0  0  0  0  0  0
   53.1240  152.0460   25.6990 C   0  0  0  0  0  0  0  0  0  0  0  0
   53.8840  151.9830   24.5630 O   0  0  0  0  0  0  0  0  0  0  0  0
   52.8570  153.2400   26.3750 C   0  0  0  0  0  0  0  0  0  0  0  0
   54.4420  156.9940   25.9760 H   0  0  0  0  0  0  0  0  0  0  0  0
   53.7514  157.7756   28.4931 H   0  0  0  0  0  0  0  0  0  0  0  0
   53.0361  159.6713   29.9282 H   0  0  0  0  0  0  0  0  0  0  0  0
   48.3750  156.7779   30.5503 H   0  0  0  0  0  0  0  0  0  0  0  0
   48.8090  158.2058   31.6013 H   0  0  0  0  0  0  0  0  0  0  0  0
   49.8785  155.9365   28.9833 H   0  0  0  0  0  0  0  0  0  0  0  0
   50.9411  152.0195   28.9197 H   0  0  0  0  0  0  0  0  0  0  0  0
   51.4173  149.8862   27.7118 H   0  0  0  0  0  0  0  0  0  0  0  0
   52.8173  149.9049   25.6466 H   0  0  0  0  0  0  0  0  0  0  0  0
   54.4240  152.7080   24.3200 H   0  0  0  0  0  0  0  0  0  0  0  0
  1  2  2  0
  2  3  1  0
  3  4  1  0
  3  5  2  0
  5  6  1  0
  6  7  2  0
  7  8  1  0
  8  9  2  0
  9 10  1  0
 10 11  1  0
 10 12  1  0
 10 13  1  0
  9 14  1  0
 14 15  1  0
 15 16  1  0
 14 17  2  0
  5 18  1  0
 18 19  1  0
 19 20  2  0
 20 21  1  0
 21 22  2  0
 22 23  1  0
 23 24  1  0
 23 25  2  0
 25  2  1  0
 17  6  1  0
 25 19  1  0
  4 26  1  0
  7 27  1  0
  8 28  1  0
 15 29  1  0
 15 30  1  0
 17 31  1  0
 20 32  1  0
 21 33  1  0
 22 34  1  0
 24 35  1  0
M  END
>  <meeko>  (8) 
{"is_sidechain": [false], "free_energy": -8.136, "intermolecular_energy": -10.236, "internal_energy": -0.016}

$$$$
