cand_036_out
     RDKit          3D

 35 37  0  0  0  0  0  0  0  0999 V2000
   49.3790  160.9180   31.6700 C   0  0  0  0  0  0  0  0  0  0  0  0
   50.0040  159.7630   30.9370 C   0  0  0  0  0  0  0  0  0  0  0  0
   49.2610  158.5910   30.7380 C   0  0  0  0  0  0  0  0  0  0  0  0
   49.8100  157.4990   30.0620 C   0  0  0  0  0  0  0  0  0  0  0  0
   51.1190  157.5450   29.5730 C   0  0  0  0  0  0  0  0  0  0  0  0
   51.7140  156.4140   28.8310 C   0  0  0  0  0  0  0  0  0  0  0  0
   52.2960  156.8020   27.6300 O   0  0  0  0  0  0  0  0  0  0  0  0
   52.8870  155.8490   26.8390 C   0  0  0  0  0  0  0  0  0  0  0  0
   53.4450  156.2810   25.6360 C   0  0  0  0  0  0  0  0  0  0  0  0
   54.0640  155.3620   24.7850 C   0  0  0  0  0  0  0  0  0  0  0  0
   54.1240  154.0130   25.1380 C   0  0  0  0  0  0  0  0  0  0  0  0
   53.5660  153.5840   26.3400 C   0  0  0  0  0  0  0  0  0  0  0  0
   53.6600  152.2490   26.6240 O   0  0  0  0  0  0  0  0  0  0  0  0
   52.9460  154.5040   27.1910 C   0  0  0  0  0  0  0  0  0  0  0  0
   52.3470  154.0960   28.4620 C   0  0  0  0  0  0  0  0  0  0  0  0
   52.3650  152.9280   28.8450 O   0  0  0  0  0  0  0  0  0  0  0  0
   51.7070  155.1470   29.2870 C   0  0  0  0  0  0  0  0  0  0  0  0
   51.1570  154.7530   30.4910 O   0  0  0  0  0  0  0  0  0  0  0  0
   51.8590  158.7230   29.7640 C   0  0  0  0  0  0  0  0  0  0  0  0
   51.3200  159.8320   30.4410 C   0  0  0  0  0  0  0  0  0  0  0  0
   52.1640  161.0640   30.6240 C   0  0  0  0  0  0  0  0  0  0  0  0
   49.4672  160.7550   32.7543 H   0  0  0  0  0  0  0  0  0  0  0  0
   49.8963  161.8493   31.3959 H   0  0  0  0  0  0  0  0  0  0  0  0
   48.3164  160.9944   31.3959 H   0  0  0  0  0  0  0  0  0  0  0  0
   48.2311  158.5305   31.1196 H   0  0  0  0  0  0  0  0  0  0  0  0
   49.2055  156.5922   29.9126 H   0  0  0  0  0  0  0  0  0  0  0  0
   53.3978  157.3441   25.3575 H   0  0  0  0  0  0  0  0  0  0  0  0
   54.5044  155.7019   23.8360 H   0  0  0  0  0  0  0  0  0  0  0  0
   54.6113  153.2895   24.4678 H   0  0  0  0  0  0  0  0  0  0  0  0
   53.1340  151.6320   26.1550 H   0  0  0  0  0  0  0  0  0  0  0  0
   50.2290  154.6420   30.5690 H   0  0  0  0  0  0  0  0  0  0  0  0
   52.8861  158.7800   29.3744 H   0  0  0  0  0  0  0  0  0  0  0  0
   52.2984  161.2602   31.6980 H   0  0  0  0  0  0  0  0  0  0  0  0
   53.1463  160.9087   30.1539 H   0  0  0  0  0  0  0  0  0  0  0  0
   51.6644  161.9239   30.1539 H   0  0  0  0  0  0  0  0  0  0  0  0
  1  2  1  0
  2  3  2  0
  3  4  1  0
  4  5  2  0
  5  6  1  0
  6  7  1  0
  7  8  1  0
  8  9  2  0
  9 10  1  0
 10 11  2  0
 11 12  1  0
 12 13  1  0
 12 14  2  0
 14 15  1  0
 15 16  2  0
 15 17  1  0
 17 18  1  0
  5 19  1  0
 19 20  2  0
 20 21  1  0
 20  2  1  0
 17  6  2  0
 14  8  1  0
  1 22  1  0
  1 23  1  0
  1 24  1  0
  3 25  1  0
  4 26  1  0
  9 27  1  0
 10 28  1  0
 11 29  1  0
 13 30  1  0
 18 31  1  0
 19 32  1  0
 21 33  1  0
 21 34  1  0
 21 35  1  0
M  END
>  <meeko>  (1) 
{"is_sidechain": [false], "free_energy": -10.696, "intermolecular_energy": -11.947, "internal_energy": -0.089}

$$$$
cand_036_out
     RDKit          3D

 35 37  0  0  0  0  0  0  0  0999 V2000
   49.9920  161.2160   31.7210 C   0  0  0  0  0  0  0  0  0  0  0  0
   50.4630  160.0090   30.9560 C   0  0  0  0  0  0  0  0  0  0  0  0
   51.7680  159.9840   30.4480 C   0  0  0  0  0  0  0  0  0  0  0  0
   52.2380  158.8800   29.7320 C   0  0  0  0  0  0  0  0  0  0  0  0
   51.4140  157.7750   29.4990 C   0  0  0  0  0  0  0  0  0  0  0  0
   51.8960  156.5840   28.7680 C   0  0  0  0  0  0  0  0  0  0  0  0
   52.4930  156.9020   27.5540 O   0  0  0  0  0  0  0  0  0  0  0  0
   52.9860  155.8890   26.7710 C   0  0  0  0  0  0  0  0  0  0  0  0
   53.5640  156.2510   25.5540 C   0  0  0  0  0  0  0  0  0  0  0  0
   54.0870  155.2680   24.7100 C   0  0  0  0  0  0  0  0  0  0  0  0
   54.0320  153.9240   25.0840 C   0  0  0  0  0  0  0  0  0  0  0  0
   53.4550  153.5650   26.3000 C   0  0  0  0  0  0  0  0  0  0  0  0
   53.4340  152.2310   26.6040 O   0  0  0  0  0  0  0  0  0  0  0  0
   52.9310  154.5490   27.1430 C   0  0  0  0  0  0  0  0  0  0  0  0
   52.3160  154.2140   28.4280 C   0  0  0  0  0  0  0  0  0  0  0  0
   52.2360  153.0550   28.8290 O   0  0  0  0  0  0  0  0  0  0  0  0
   51.7830  155.3310   29.2440 C   0  0  0  0  0  0  0  0  0  0  0  0
   51.2170  155.0040   30.4610 O   0  0  0  0  0  0  0  0  0  0  0  0
   50.1090  157.7980   30.0170 C   0  0  0  0  0  0  0  0  0  0  0  0
   49.6220  158.9000   30.7410 C   0  0  0  0  0  0  0  0  0  0  0  0
   48.2120  158.8720   31.2650 C   0  0  0  0  0  0  0  0  0  0  0  0
   50.0689  161.0189   32.8005 H   0  0  0  0  0  0  0  0  0  0  0  0
   50.6181  162.0822   31.4609 H   0  0  0  0  0  0  0  0  0  0  0  0
   48.9447  161.4292   31.4609 H   0  0  0  0  0  0  0  0  0  0  0  0
   52.4318  160.8451   30.6150 H   0  0  0  0  0  0  0  0  0  0  0  0
   53.2685  158.8804   29.3471 H   0  0  0  0  0  0  0  0  0  0  0  0
   53.6080  157.3098   25.2590 H   0  0  0  0  0  0  0  0  0  0  0  0
   54.5424  155.5532   23.7502 H   0  0  0  0  0  0  0  0  0  0  0  0
   54.4436  153.1499   24.4196 H   0  0  0  0  0  0  0  0  0  0  0  0
   52.8320  151.9060   27.2430 H   0  0  0  0  0  0  0  0  0  0  0  0
   50.3980  155.3840   30.7140 H   0  0  0  0  0  0  0  0  0  0  0  0
   49.4513  156.9318   29.8520 H   0  0  0  0  0  0  0  0  0  0  0  0
   48.2295  158.8723   32.3649 H   0  0  0  0  0  0  0  0  0  0  0  0
   47.6700  159.7596   30.9066 H   0  0  0  0  0  0  0  0  0  0  0  0
   47.7056  157.9636   30.9066 H   0  0  0  0  0  0  0  0  0  0  0  0
  1  2  1  0
  2  3  2  0
  3  4  1  0
  4  5  2  0
  5  6  1  0
  6  7  1  0
  7  8  1  0
  8  9  2  0
  9 10  1  0
 10 11  2  0
 11 12  1  0
 12 13  1  0
 12 14  2  0
 14 15  1  0
 15 16  2  0
 15 17  1  0
 17 18  1  0
  5 19  1  0
 19 20  2  0
 20 21  1  0
 20  2  1  0
 17  6  2  0
 14  8  1  0
  1 22  1  0
  1 23  1  0
  1 24  1  0
  3 25  1  0
  4 26  1  0
  9 27  1  0
 10 28  1  0
 11 29  1  0
 13 30  1  0
 18 31  1  0
 19 32  1  0
 21 33  1  0
 21 34  1  0
 21 35  1  0
M  END
>  <meeko>  (2) 
{"is_sidechain": [false], "free_energy": -10.608, "intermolecular_energy": -11.901, "internal_energy": -0.037}

$$$$
cand_036_out
     RDKit          3D

 35 37  0  0  0  0  0  0  0  0999 V2000
   53.0220  152.6220   26.6030 C   0  0  0  0  0  0  0  0  0  0  0  0
   52.6300  153.8940   27.3040 C   0  0  0  0  0  0  0  0  0  0  0  0
   51.9700  153.8240   28.5380 C   0  0  0  0  0  0  0  0  0  0  0  0
   51.5910  154.9850   29.2160 C   0  0  0  0  0  0  0  0  0  0  0  0
   51.8540  156.2470   28.6750 C   0  0  0  0  0  0  0  0  0  0  0  0
   51.4880  157.4910   29.3840 C   0  0  0  0  0  0  0  0  0  0  0  0
   50.1660  157.4980   29.8130 O   0  0  0  0  0  0  0  0  0  0  0  0
   49.6920  158.5940   30.4880 C   0  0  0  0  0  0  0  0  0  0  0  0
   48.3550  158.5640   30.8870 C   0  0  0  0  0  0  0  0  0  0  0  0
   47.8100  159.6480   31.5790 C   0  0  0  0  0  0  0  0  0  0  0  0
   48.6020  160.7600   31.8730 C   0  0  0  0  0  0  0  0  0  0  0  0
   49.9360  160.7870   31.4740 C   0  0  0  0  0  0  0  0  0  0  0  0
   50.6540  161.9070   31.7930 O   0  0  0  0  0  0  0  0  0  0  0  0
   50.4800  159.7030   30.7800 C   0  0  0  0  0  0  0  0  0  0  0  0
   51.8770  159.6910   30.3420 C   0  0  0  0  0  0  0  0  0  0  0  0
   52.6380  160.6300   30.5680 O   0  0  0  0  0  0  0  0  0  0  0  0
   52.3540  158.4970   29.6070 C   0  0  0  0  0  0  0  0  0  0  0  0
   53.6780  158.4910   29.2100 O   0  0  0  0  0  0  0  0  0  0  0  0
   52.5240  156.3160   27.4420 C   0  0  0  0  0  0  0  0  0  0  0  0
   52.9130  155.1570   26.7490 C   0  0  0  0  0  0  0  0  0  0  0  0
   53.6200  155.2920   25.4280 C   0  0  0  0  0  0  0  0  0  0  0  0
   53.2599  151.8501   27.3498 H   0  0  0  0  0  0  0  0  0  0  0  0
   52.1881  152.2784   25.9733 H   0  0  0  0  0  0  0  0  0  0  0  0
   53.9047  152.8074   25.9733 H   0  0  0  0  0  0  0  0  0  0  0  0
   51.7472  152.8412   28.9790 H   0  0  0  0  0  0  0  0  0  0  0  0
   51.0797  154.9054   30.1867 H   0  0  0  0  0  0  0  0  0  0  0  0
   47.7312  157.6877   30.6568 H   0  0  0  0  0  0  0  0  0  0  0  0
   46.7559  159.6258   31.8927 H   0  0  0  0  0  0  0  0  0  0  0  0
   48.1729  161.6132   32.4188 H   0  0  0  0  0  0  0  0  0  0  0  0
   50.7390  162.1690   32.6890 H   0  0  0  0  0  0  0  0  0  0  0  0
   53.9910  159.1410   28.6120 H   0  0  0  0  0  0  0  0  0  0  0  0
   52.7496  157.3014   27.0084 H   0  0  0  0  0  0  0  0  0  0  0  0
   54.6868  155.4957   25.6022 H   0  0  0  0  0  0  0  0  0  0  0  0
   53.5135  154.3573   24.8579 H   0  0  0  0  0  0  0  0  0  0  0  0
   53.1766  156.1217   24.8579 H   0  0  0  0  0  0  0  0  0  0  0  0
  1  2  1  0
  2  3  2  0
  3  4  1  0
  4  5  2  0
  5  6  1  0
  6  7  1  0
  7  8  1  0
  8  9  2  0
  9 10  1  0
 10 11  2  0
 11 12  1  0
 12 13  1  0
 12 14  2  0
 14 15  1  0
 15 16  2  0
 15 17  1  0
 17 18  1  0
  5 19  1  0
 19 20  2  0
 20 21  1  0
 20  2  1  0
 17  6  2  0
 14  8  1  0
  1 22  1  0
  1 23  1  0
  1 24  1  0
  3 25  1  0
  4 26  1  0
  9 27  1  0
 10 28  1  0
 11 29  1  0
 13 30  1  0
 18 31  1  0
 19 32  1  0
 21 33  1  0
 21 34  1  0
 21 35  1  0
M  END
>  <meeko>  (3) 
{"is_sidechain": [false], "free_energy": -9.945, "intermolecular_energy": -11.17, "internal_energy": -0.027}

$$$$
cand_036_out
     RDKit          3D

 35 37  0  0  0  0  0  0  0  0999 V2000
   53.5250  153.0230   26.5070 C   0  0  0  0  0  0  0  0  0  0  0  0
   52.8900  154.1590   27.2620 C   0  0  0  0  0  0  0  0  0  0  0  0
   52.2040  153.8930   28.4540 C   0  0  0  0  0  0  0  0  0  0  0  0
   51.6020  154.9230   29.1810 C   0  0  0  0  0  0  0  0  0  0  0  0
   51.6640  156.2460   28.7320 C   0  0  0  0  0  0  0  0  0  0  0  0
   51.0590  157.3580   29.4960 C   0  0  0  0  0  0  0  0  0  0  0  0
   51.9500  158.3970   29.7330 O   0  0  0  0  0  0  0  0  0  0  0  0
   51.5190  159.4950   30.4330 C   0  0  0  0  0  0  0  0  0  0  0  0
   52.4510  160.5080   30.6620 C   0  0  0  0  0  0  0  0  0  0  0  0
   52.0760  161.6540   31.3670 C   0  0  0  0  0  0  0  0  0  0  0  0
   50.7700  161.7870   31.8420 C   0  0  0  0  0  0  0  0  0  0  0  0
   49.8410  160.7740   31.6120 C   0  0  0  0  0  0  0  0  0  0  0  0
   48.5800  160.9690   32.1050 O   0  0  0  0  0  0  0  0  0  0  0  0
   50.2170  159.6270   30.9080 C   0  0  0  0  0  0  0  0  0  0  0  0
   49.2730  158.5400   30.6450 C   0  0  0  0  0  0  0  0  0  0  0  0
   48.1050  158.5870   31.0250 O   0  0  0  0  0  0  0  0  0  0  0  0
   49.7740  157.3640   29.8960 C   0  0  0  0  0  0  0  0  0  0  0  0
   48.8700  156.3500   29.6420 O   0  0  0  0  0  0  0  0  0  0  0  0
   52.3610  156.5120   27.5420 C   0  0  0  0  0  0  0  0  0  0  0  0
   52.9730  155.4870   26.8000 C   0  0  0  0  0  0  0  0  0  0  0  0
   53.6990  155.8310   25.5280 C   0  0  0  0  0  0  0  0  0  0  0  0
   53.9337  152.2919   27.2201 H   0  0  0  0  0  0  0  0  0  0  0  0
   52.7688  152.5351   25.8745 H   0  0  0  0  0  0  0  0  0  0  0  0
   54.3368  153.4115   25.8745 H   0  0  0  0  0  0  0  0  0  0  0  0
   52.1384  152.8587   28.8228 H   0  0  0  0  0  0  0  0  0  0  0  0
   51.0732  154.6907   30.1172 H   0  0  0  0  0  0  0  0  0  0  0  0
   53.4801  160.4041   30.2876 H   0  0  0  0  0  0  0  0  0  0  0  0
   52.8105  162.4526   31.5481 H   0  0  0  0  0  0  0  0  0  0  0  0
   50.4748  162.6898   32.3968 H   0  0  0  0  0  0  0  0  0  0  0  0
   48.3490  160.6300   32.9470 H   0  0  0  0  0  0  0  0  0  0  0  0
   48.1010  156.5240   29.1360 H   0  0  0  0  0  0  0  0  0  0  0  0
   52.4297  157.5490   27.1815 H   0  0  0  0  0  0  0  0  0  0  0  0
   54.6683  156.2903   25.7718 H   0  0  0  0  0  0  0  0  0  0  0  0
   53.8643  154.9155   24.9411 H   0  0  0  0  0  0  0  0  0  0  0  0
   53.0952  156.5388   24.9411 H   0  0  0  0  0  0  0  0  0  0  0  0
  1  2  1  0
  2  3  2  0
  3  4  1  0
  4  5  2  0
  5  6  1  0
  6  7  1  0
  7  8  1  0
  8  9  2  0
  9 10  1  0
 10 11  2  0
 11 12  1  0
 12 13  1  0
 12 14  2  0
 14 15  1  0
 15 16  2  0
 15 17  1  0
 17 18  1  0
  5 19  1  0
 19 20  2  0
 20 21  1  0
 20  2  1  0
 17  6  2  0
 14  8  1  0
  1 22  1  0
  1 23  1  0
  1 24  1  0
  3 25  1  0
  4 26  1  0
  9 27  1  0
 10 28  1  0
 11 29  1  0
 13 30  1  0
 18 31  1  0
 19 32  1  0
 21 33  1  0
 21 34  1  0
 21 35  1  0
M  END
>  <meeko>  (4) 
{"is_sidechain": [false], "free_energy": -8.944, "intermolecular_energy": -9.968, "internal_energy": -0.111}

$$$$
cand_036_out
     RDKit          3D

 35 37  0  0  0  0  0  0  0  0999 V2000
   49.2940  158.4300   31.1650 C   0  0  0  0  0  0  0  0  0  0  0  0
   50.0830  157.5950   30.1950 C   0  0  0  0  0  0  0  0  0  0  0  0
   49.5870  156.3440   29.8020 C   0  0  0  0  0  0  0  0  0  0  0  0
   50.2950  155.5420   28.9030 C   0  0  0  0  0  0  0  0  0  0  0  0
   51.5200  155.9650   28.3790 C   0  0  0  0  0  0  0  0  0  0  0  0
   52.2750  155.1470   27.4060 C   0  0  0  0  0  0  0  0  0  0  0  0
   51.9580  153.7950   27.4760 O   0  0  0  0  0  0  0  0  0  0  0  0
   52.5860  152.9200   26.6270 C   0  0  0  0  0  0  0  0  0  0  0  0
   52.2490  151.5710   26.7430 C   0  0  0  0  0  0  0  0  0  0  0  0
   52.8510  150.6280   25.9070 C   0  0  0  0  0  0  0  0  0  0  0  0
   53.7890  151.0340   24.9560 C   0  0  0  0  0  0  0  0  0  0  0  0
   54.1240  152.3820   24.8420 C   0  0  0  0  0  0  0  0  0  0  0  0
   55.0500  152.7100   23.8900 O   0  0  0  0  0  0  0  0  0  0  0  0
   53.5220  153.3250   25.6800 C   0  0  0  0  0  0  0  0  0  0  0  0
   53.8460  154.7500   25.5940 C   0  0  0  0  0  0  0  0  0  0  0  0
   54.6560  155.1840   24.7780 O   0  0  0  0  0  0  0  0  0  0  0  0
   53.1580  155.6660   26.5320 C   0  0  0  0  0  0  0  0  0  0  0  0
   53.4610  157.0110   26.4330 O   0  0  0  0  0  0  0  0  0  0  0  0
   52.0110  157.2220   28.7660 C   0  0  0  0  0  0  0  0  0  0  0  0
   51.3100  158.0420   29.6680 C   0  0  0  0  0  0  0  0  0  0  0  0
   51.8890  159.3760   30.0530 C   0  0  0  0  0  0  0  0  0  0  0  0
   49.5611  158.1473   32.1940 H   0  0  0  0  0  0  0  0  0  0  0  0
   49.5246  159.4936   31.0054 H   0  0  0  0  0  0  0  0  0  0  0  0
   48.2190  158.2599   31.0054 H   0  0  0  0  0  0  0  0  0  0  0  0
   48.6277  155.9890   30.2067 H   0  0  0  0  0  0  0  0  0  0  0  0
   49.8836  154.5666   28.6042 H   0  0  0  0  0  0  0  0  0  0  0  0
   51.5100  151.2506   27.4921 H   0  0  0  0  0  0  0  0  0  0  0  0
   52.5858  149.5643   25.9979 H   0  0  0  0  0  0  0  0  0  0  0  0
   54.2629  150.2910   24.2977 H   0  0  0  0  0  0  0  0  0  0  0  0
   54.7900  153.1900   23.1290 H   0  0  0  0  0  0  0  0  0  0  0  0
   52.7900  157.6270   26.2140 H   0  0  0  0  0  0  0  0  0  0  0  0
   52.9679  157.5742   28.3534 H   0  0  0  0  0  0  0  0  0  0  0  0
   51.9244  159.4577   31.1494 H   0  0  0  0  0  0  0  0  0  0  0  0
   52.9069  159.4653   29.6456 H   0  0  0  0  0  0  0  0  0  0  0  0
   51.2591  160.1805   29.6456 H   0  0  0  0  0  0  0  0  0  0  0  0
  1  2  1  0
  2  3  2  0
  3  4  1  0
  4  5  2  0
  5  6  1  0
  6  7  1  0
  7  8  1  0
  8  9  2  0
  9 10  1  0
 10 11  2  0
 11 12  1  0
 12 13  1  0
 12 14  2  0
 14 15  1  0
 15 16  2  0
 15 17  1  0
 17 18  1  0
  5 19  1  0
 19 20  2  0
 20 21  1  0
 20  2  1  0
 17  6  2  0
 14  8  1  0
  1 22  1  0
  1 23  1  0
  1 24  1  0
  3 25  1  0
  4 26  1  0
  9 27  1  0
 10 28  1  0
 11 29  1  0
 13 30  1  0
 18 31  1  0
 19 32  1  0
 21 33  1  0
 21 34  1  0
 21 35  1  0
M  END
>  <meeko>  (5) 
{"is_sidechain": [false], "free_energy": -8.699, "intermolecular_energy": -10.092, "internal_energy": 0.286}

$$$$
