cand_056_out
     RDKit          3D

 50 53  0  0  0  0  0  0  0  0999 V2000
   55.2160  154.4200   22.7230 C   0  0  0  0  0  0  0  0  0  0  0  0
   54.2100  154.7460   23.7330 N   0  0  0  0  0  0  0  0  0  0  0  0
   53.6860  153.5100   24.3610 C   0  0  0  0  0  0  0  0  0  0  0  0
   52.6580  153.8070   25.4790 C   0  0  0  0  0  0  0  0  0  0  0  0
   53.2680  154.6850   26.5040 N   0  0  0  0  0  0  0  0  0  0  0  0
   52.4450  154.8990   27.6240 C   0  0  0  0  0  0  0  0  0  0  0  0
   52.2380  156.1840   28.1600 C   0  0  0  0  0  0  0  0  0  0  0  0
   51.4090  156.4000   29.2710 C   0  0  0  0  0  0  0  0  0  0  0  0
   51.2110  157.7480   29.8420 C   0  0  0  0  0  0  0  0  0  0  0  0
   49.9360  157.9340   30.3630 O   0  0  0  0  0  0  0  0  0  0  0  0
   49.6190  159.1430   30.9250 C   0  0  0  0  0  0  0  0  0  0  0  0
   48.3320  159.2810   31.4480 C   0  0  0  0  0  0  0  0  0  0  0  0
   47.9450  160.4880   32.0340 C   0  0  0  0  0  0  0  0  0  0  0  0
   48.8420  161.5570   32.0950 C   0  0  0  0  0  0  0  0  0  0  0  0
   50.1240  161.4170   31.5720 C   0  0  0  0  0  0  0  0  0  0  0  0
   50.9520  162.5030   31.6640 O   0  0  0  0  0  0  0  0  0  0  0  0
   50.5130  160.2090   30.9870 C   0  0  0  0  0  0  0  0  0  0  0  0
   51.8500  160.0200   30.4240 C   0  0  0  0  0  0  0  0  0  0  0  0
   52.6940  160.9150   30.4340 O   0  0  0  0  0  0  0  0  0  0  0  0
   52.1650  158.6980   29.8340 C   0  0  0  0  0  0  0  0  0  0  0  0
   53.4260  158.5330   29.2940 O   0  0  0  0  0  0  0  0  0  0  0  0
   50.7930  155.2940   29.8660 C   0  0  0  0  0  0  0  0  0  0  0  0
   50.9890  154.0120   29.3510 C   0  0  0  0  0  0  0  0  0  0  0  0
   51.8110  153.8000   28.2290 C   0  0  0  0  0  0  0  0  0  0  0  0
   52.0040  152.4030   27.6900 C   0  0  0  0  0  0  0  0  0  0  0  0
   51.5000  151.4420   28.5250 F   0  0  0  0  0  0  0  0  0  0  0  0
   53.3130  152.0590   27.5150 F   0  0  0  0  0  0  0  0  0  0  0  0
   51.3840  152.1850   26.4940 F   0  0  0  0  0  0  0  0  0  0  0  0
   53.7790  155.9420   25.9060 C   0  0  0  0  0  0  0  0  0  0  0  0
   54.7910  155.6170   24.7820 C   0  0  0  0  0  0  0  0  0  0  0  0
   56.1497  154.1174   23.2197 H   0  0  0  0  0  0  0  0  0  0  0  0
   54.8507  153.5943   22.0948 H   0  0  0  0  0  0  0  0  0  0  0  0
   55.4044  155.3031   22.0948 H   0  0  0  0  0  0  0  0  0  0  0  0
   53.4480  155.2390   23.2690 H   0  0  0  0  0  0  0  0  0  0  0  0
   53.1991  152.8992   23.5865 H   0  0  0  0  0  0  0  0  0  0  0  0
   54.5347  152.9798   24.8177 H   0  0  0  0  0  0  0  0  0  0  0  0
   51.7809  154.3086   25.0442 H   0  0  0  0  0  0  0  0  0  0  0  0
   52.3503  152.8612   25.9488 H   0  0  0  0  0  0  0  0  0  0  0  0
   52.7410  157.0441   27.6940 H   0  0  0  0  0  0  0  0  0  0  0  0
   47.6241  158.4405   31.3986 H   0  0  0  0  0  0  0  0  0  0  0  0
   46.9319  160.5971   32.4483 H   0  0  0  0  0  0  0  0  0  0  0  0
   48.5356  162.5078   32.5556 H   0  0  0  0  0  0  0  0  0  0  0  0
   51.0460  163.0830   30.9340 H   0  0  0  0  0  0  0  0  0  0  0  0
   53.9640  157.8160   29.5680 H   0  0  0  0  0  0  0  0  0  0  0  0
   50.1492  155.4360   30.7465 H   0  0  0  0  0  0  0  0  0  0  0  0
   50.4934  153.1543   29.8294 H   0  0  0  0  0  0  0  0  0  0  0  0
   52.9386  156.5140   25.4859 H   0  0  0  0  0  0  0  0  0  0  0  0
   54.2806  156.5356   26.6844 H   0  0  0  0  0  0  0  0  0  0  0  0
   55.1179  156.5591   24.3178 H   0  0  0  0  0  0  0  0  0  0  0  0
   55.6350  155.0774   25.2364 H   0  0  0  0  0  0  0  0  0  0  0  0
  1  2  1  0
  2  3  1  0
  3  4  1  0
  4  5  1  0
  5  6  1  0
  6  7  2  0
  7  8  1  0
  8  9  1  0
  9 10  1  0
 10 11  1  0
 11 12  2  0
 12 13  1  0
 13 14  2  0
 14 15  1  0
 15 16  1  0
 15 17  2  0
 17 18  1  0
 18 19  2  0
 18 20  1  0
 20 21  1  0
  8 22  2  0
 22 23  1  0
 23 24  2  0
 24 25  1  0
 25 26  1  0
 25 27  1  0
 25 28  1  0
  5 29  1  0
 29 30  1  0
 30  2  1  0
 24  6  1  0
 20  9  2  0
 17 11  1  0
  1 31  1  0
  1 32  1  0
  1 33  1  0
  2 34  1  0
  3 35  1  0
  3 36  1  0
  4 37  1  0
  4 38  1  0
  7 39  1  0
 12 40  1  0
 13 41  1  0
 14 42  1  0
 16 43  1  0
 21 44  1  0
 22 45  1  0
 23 46  1  0
 29 47  1  0
 29 48  1  0
 30 49  1  0
 30 50  1  0
M  CHG  1   2   1
M  END
>  <meeko>  (1) 
{"is_sidechain": [false], "free_energy": -8.722, "intermolecular_energy": -10.762, "internal_energy": 2.061}

$$$$
cand_056_out
     RDKit          3D

 50 53  0  0  0  0  0  0  0  0999 V2000
   53.2890  163.8960   31.9750 C   0  0  0  0  0  0  0  0  0  0  0  0
   52.9530  162.4890   31.7630 N   0  0  0  0  0  0  0  0  0  0  0  0
   51.6240  162.1800   32.3430 C   0  0  0  0  0  0  0  0  0  0  0  0
   51.1980  160.7130   32.0940 C   0  0  0  0  0  0  0  0  0  0  0  0
   51.2050  160.4270   30.6400 N   0  0  0  0  0  0  0  0  0  0  0  0
   50.7040  159.1540   30.3150 C   0  0  0  0  0  0  0  0  0  0  0  0
   51.4740  158.2090   29.6110 C   0  0  0  0  0  0  0  0  0  0  0  0
   50.9780  156.9350   29.2950 C   0  0  0  0  0  0  0  0  0  0  0  0
   51.7840  155.9550   28.5390 C   0  0  0  0  0  0  0  0  0  0  0  0
   52.2650  156.4610   27.3370 O   0  0  0  0  0  0  0  0  0  0  0  0
   53.0310  155.6530   26.5370 C   0  0  0  0  0  0  0  0  0  0  0  0
   53.5050  156.2070   25.3460 C   0  0  0  0  0  0  0  0  0  0  0  0
   54.2890  155.4370   24.4840 C   0  0  0  0  0  0  0  0  0  0  0  0
   54.5980  154.1140   24.8120 C   0  0  0  0  0  0  0  0  0  0  0  0
   54.1230  153.5650   25.9990 C   0  0  0  0  0  0  0  0  0  0  0  0
   54.4620  152.2650   26.2570 O   0  0  0  0  0  0  0  0  0  0  0  0
   53.3390  154.3350   26.8620 C   0  0  0  0  0  0  0  0  0  0  0  0
   52.8200  153.7960   28.1190 C   0  0  0  0  0  0  0  0  0  0  0  0
   53.0420  152.6400   28.4740 O   0  0  0  0  0  0  0  0  0  0  0  0
   52.0050  154.6970   28.9670 C   0  0  0  0  0  0  0  0  0  0  0  0
   51.5080  154.1750   30.1460 O   0  0  0  0  0  0  0  0  0  0  0  0
   49.6720  156.6150   29.6790 C   0  0  0  0  0  0  0  0  0  0  0  0
   48.8920  157.5400   30.3750 C   0  0  0  0  0  0  0  0  0  0  0  0
   49.3950  158.8130   30.7010 C   0  0  0  0  0  0  0  0  0  0  0  0
   48.5320  159.7940   31.4560 C   0  0  0  0  0  0  0  0  0  0  0  0
   47.2120  159.4280   31.4730 F   0  0  0  0  0  0  0  0  0  0  0  0
   48.5370  161.0510   30.9260 F   0  0  0  0  0  0  0  0  0  0  0  0
   48.8720  159.9270   32.7710 F   0  0  0  0  0  0  0  0  0  0  0  0
   52.5310  160.7040   30.0390 C   0  0  0  0  0  0  0  0  0  0  0  0
   52.9390  162.1710   30.3160 C   0  0  0  0  0  0  0  0  0  0  0  0
   53.3383  164.1026   33.0543 H   0  0  0  0  0  0  0  0  0  0  0  0
   54.2643  164.1134   31.5151 H   0  0  0  0  0  0  0  0  0  0  0  0
   52.5172  164.5306   31.5151 H   0  0  0  0  0  0  0  0  0  0  0  0
   53.6640  161.9230   32.2270 H   0  0  0  0  0  0  0  0  0  0  0  0
   51.6622  162.3574   33.4279 H   0  0  0  0  0  0  0  0  0  0  0  0
   50.8849  162.8314   31.8537 H   0  0  0  0  0  0  0  0  0  0  0  0
   51.9017  160.0373   32.6023 H   0  0  0  0  0  0  0  0  0  0  0  0
   50.1833  160.5579   32.4893 H   0  0  0  0  0  0  0  0  0  0  0  0
   52.4943  158.4771   29.2995 H   0  0  0  0  0  0  0  0  0  0  0  0
   53.2613  157.2480   25.0872 H   0  0  0  0  0  0  0  0  0  0  0  0
   54.6637  155.8723   23.5459 H   0  0  0  0  0  0  0  0  0  0  0  0
   55.2156  153.5078   24.1329 H   0  0  0  0  0  0  0  0  0  0  0  0
   55.3450  152.0480   26.4870 H   0  0  0  0  0  0  0  0  0  0  0  0
   51.7620  153.3160   30.4220 H   0  0  0  0  0  0  0  0  0  0  0  0
   49.2564  155.6273   29.4308 H   0  0  0  0  0  0  0  0  0  0  0  0
   47.8683  157.2696   30.6732 H   0  0  0  0  0  0  0  0  0  0  0  0
   53.2791  160.0281   30.4788 H   0  0  0  0  0  0  0  0  0  0  0  0
   52.4769  160.5422   28.9523 H   0  0  0  0  0  0  0  0  0  0  0  0
   53.9459  162.3410   29.9071 H   0  0  0  0  0  0  0  0  0  0  0  0
   52.1941  162.8229   29.8362 H   0  0  0  0  0  0  0  0  0  0  0  0
  1  2  1  0
  2  3  1  0
  3  4  1  0
  4  5  1  0
  5  6  1  0
  6  7  2  0
  7  8  1  0
  8  9  1  0
  9 10  1  0
 10 11  1  0
 11 12  2  0
 12 13  1  0
 13 14  2  0
 14 15  1  0
 15 16  1  0
 15 17  2  0
 17 18  1  0
 18 19  2  0
 18 20  1  0
 20 21  1  0
  8 22  2  0
 22 23  1  0
 23 24  2  0
 24 25  1  0
 25 26  1  0
 25 27  1  0
 25 28  1  0
  5 29  1  0
 29 30  1  0
 30  2  1  0
 24  6  1  0
 20  9  2  0
 17 11  1  0
  1 31  1  0
  1 32  1  0
  1 33  1  0
  2 34  1  0
  3 35  1  0
  3 36  1  0
  4 37  1  0
  4 38  1  0
  7 39  1  0
 12 40  1  0
 13 41  1  0
 14 42  1  0
 16 43  1  0
 21 44  1  0
 22 45  1  0
 23 46  1  0
 29 47  1  0
 29 48  1  0
 30 49  1  0
 30 50  1  0
M  CHG  1   2   1
M  END
>  <meeko>  (2) 
{"is_sidechain": [false], "free_energy": -8.545, "intermolecular_energy": -9.496, "internal_energy": 1.014}

$$$$
cand_056_out
     RDKit          3D

 50 53  0  0  0  0  0  0  0  0999 V2000
   46.1440  160.2140   31.8850 C   0  0  0  0  0  0  0  0  0  0  0  0
   47.2330  159.6250   31.1060 N   0  0  0  0  0  0  0  0  0  0  0  0
   48.0870  160.6850   30.5230 C   0  0  0  0  0  0  0  0  0  0  0  0
   49.2880  160.1090   29.7350 C   0  0  0  0  0  0  0  0  0  0  0  0
   50.0910  159.2290   30.6150 N   0  0  0  0  0  0  0  0  0  0  0  0
   51.2770  158.7650   30.0170 C   0  0  0  0  0  0  0  0  0  0  0  0
   51.3460  157.5160   29.3710 C   0  0  0  0  0  0  0  0  0  0  0  0
   52.5250  157.0580   28.7660 C   0  0  0  0  0  0  0  0  0  0  0  0
   52.5960  155.7380   28.1060 C   0  0  0  0  0  0  0  0  0  0  0  0
   53.1420  155.7990   26.8290 O   0  0  0  0  0  0  0  0  0  0  0  0
   53.2670  154.6420   26.1050 C   0  0  0  0  0  0  0  0  0  0  0  0
   53.8330  154.7480   24.8340 C   0  0  0  0  0  0  0  0  0  0  0  0
   53.9870  153.6070   24.0430 C   0  0  0  0  0  0  0  0  0  0  0  0
   53.5750  152.3620   24.5230 C   0  0  0  0  0  0  0  0  0  0  0  0
   53.0100  152.2590   25.7910 C   0  0  0  0  0  0  0  0  0  0  0  0
   52.6270  151.0100   26.1980 O   0  0  0  0  0  0  0  0  0  0  0  0
   52.8560  153.4000   26.5830 C   0  0  0  0  0  0  0  0  0  0  0  0
   52.2670  153.3360   27.9200 C   0  0  0  0  0  0  0  0  0  0  0  0
   51.8740  152.2790   28.4100 O   0  0  0  0  0  0  0  0  0  0  0  0
   52.1560  154.6030   28.6810 C   0  0  0  0  0  0  0  0  0  0  0  0
   51.5860  154.5350   29.9380 O   0  0  0  0  0  0  0  0  0  0  0  0
   53.6640  157.8660   28.8310 C   0  0  0  0  0  0  0  0  0  0  0  0
   53.6170  159.1060   29.4710 C   0  0  0  0  0  0  0  0  0  0  0  0
   52.4290  159.5690   30.0670 C   0  0  0  0  0  0  0  0  0  0  0  0
   52.4040  160.9150   30.7500 C   0  0  0  0  0  0  0  0  0  0  0  0
   53.6460  161.4870   30.8320 F   0  0  0  0  0  0  0  0  0  0  0  0
   51.9580  160.8680   32.0390 F   0  0  0  0  0  0  0  0  0  0  0  0
   51.6360  161.8430   30.1080 F   0  0  0  0  0  0  0  0  0  0  0  0
   49.2660  158.1420   31.1940 C   0  0  0  0  0  0  0  0  0  0  0  0
   48.0640  158.7440   31.9610 C   0  0  0  0  0  0  0  0  0  0  0  0
   46.3568  160.0989   32.9581 H   0  0  0  0  0  0  0  0  0  0  0  0
   46.0554  161.2830   31.6414 H   0  0  0  0  0  0  0  0  0  0  0  0
   45.2008  159.7030   31.6414 H   0  0  0  0  0  0  0  0  0  0  0  0
   46.8180  159.0720   30.3550 H   0  0  0  0  0  0  0  0  0  0  0  0
   47.4767  161.2948   29.8406 H   0  0  0  0  0  0  0  0  0  0  0  0
   48.4877  161.2865   31.3523 H   0  0  0  0  0  0  0  0  0  0  0  0
   48.9172  159.5278   28.8778 H   0  0  0  0  0  0  0  0  0  0  0  0
   49.9179  160.9368   29.3774 H   0  0  0  0  0  0  0  0  0  0  0  0
   50.4485  156.8808   29.3400 H   0  0  0  0  0  0  0  0  0  0  0  0
   54.1574  155.7286   24.4555 H   0  0  0  0  0  0  0  0  0  0  0  0
   54.4333  153.6893   23.0410 H   0  0  0  0  0  0  0  0  0  0  0  0
   53.6968  151.4638   23.8998 H   0  0  0  0  0  0  0  0  0  0  0  0
   52.9690  150.2520   25.7660 H   0  0  0  0  0  0  0  0  0  0  0  0
   50.8270  155.0470   30.1380 H   0  0  0  0  0  0  0  0  0  0  0  0
   54.6040  157.5224   28.3746 H   0  0  0  0  0  0  0  0  0  0  0  0
   54.5218  159.7303   29.5100 H   0  0  0  0  0  0  0  0  0  0  0  0
   48.8955  157.4951   30.3852 H   0  0  0  0  0  0  0  0  0  0  0  0
   49.8808  157.5523   31.8899 H   0  0  0  0  0  0  0  0  0  0  0  0
   47.4368  157.9220   32.3364 H   0  0  0  0  0  0  0  0  0  0  0  0
   48.4629  159.3545   32.7845 H   0  0  0  0  0  0  0  0  0  0  0  0
  1  2  1  0
  2  3  1  0
  3  4  1  0
  4  5  1  0
  5  6  1  0
  6  7  2  0
  7  8  1  0
  8  9  1  0
  9 10  1  0
 10 11  1  0
 11 12  2  0
 12 13  1  0
 13 14  2  0
 14 15  1  0
 15 16  1  0
 15 17  2  0
 17 18  1  0
 18 19  2  0
 18 20  1  0
 20 21  1  0
  8 22  2  0
 22 23  1  0
 23 24  2  0
 24 25  1  0
 25 26  1  0
 25 27  1  0
 25 28  1  0
  5 29  1  0
 29 30  1  0
 30  2  1  0
 24  6  1  0
 20  9  2  0
 17 11  1  0
  1 31  1  0
  1 32  1  0
  1 33  1  0
  2 34  1  0
  3 35  1  0
  3 36  1  0
  4 37  1  0
  4 38  1  0
  7 39  1  0
 12 40  1  0
 13 41  1  0
 14 42  1  0
 16 43  1  0
 21 44  1  0
 22 45  1  0
 23 46  1  0
 29 47  1  0
 29 48  1  0
 30 49  1  0
 30 50  1  0
M  CHG  1   2   1
M  END
>  <meeko>  (3) 
{"is_sidechain": [false], "free_energy": -8.543, "intermolecular_energy": -8.31, "internal_energy": -0.171}

$$$$
cand_056_out
     RDKit          3D

 50 53  0  0  0  0  0  0  0  0999 V2000
   52.9810  148.7220   25.4150 C   0  0  0  0  0  0  0  0  0  0  0  0
   53.2250  150.0670   25.9340 N   0  0  0  0  0  0  0  0  0  0  0  0
   54.0920  150.8320   25.0080 C   0  0  0  0  0  0  0  0  0  0  0  0
   54.3330  152.2840   25.4870 C   0  0  0  0  0  0  0  0  0  0  0  0
   53.0350  152.9760   25.6650 N   0  0  0  0  0  0  0  0  0  0  0  0
   53.1640  154.3420   25.9740 C   0  0  0  0  0  0  0  0  0  0  0  0
   52.4110  154.9480   26.9980 C   0  0  0  0  0  0  0  0  0  0  0  0
   52.5470  156.3080   27.3120 C   0  0  0  0  0  0  0  0  0  0  0  0
   51.7400  156.9430   28.3750 C   0  0  0  0  0  0  0  0  0  0  0  0
   52.2570  158.1640   28.7920 O   0  0  0  0  0  0  0  0  0  0  0  0
   51.6020  158.8600   29.7740 C   0  0  0  0  0  0  0  0  0  0  0  0
   52.1490  160.0880   30.1520 C   0  0  0  0  0  0  0  0  0  0  0  0
   51.5330  160.8470   31.1490 C   0  0  0  0  0  0  0  0  0  0  0  0
   50.3720  160.3790   31.7680 C   0  0  0  0  0  0  0  0  0  0  0  0
   49.8290  159.1540   31.3900 C   0  0  0  0  0  0  0  0  0  0  0  0
   48.6920  158.7550   32.0380 O   0  0  0  0  0  0  0  0  0  0  0  0
   50.4460  158.3950   30.3920 C   0  0  0  0  0  0  0  0  0  0  0  0
   49.9090  157.1020   29.9660 C   0  0  0  0  0  0  0  0  0  0  0  0
   48.8950  156.6190   30.4680 O   0  0  0  0  0  0  0  0  0  0  0  0
   50.6330  156.3790   28.8940 C   0  0  0  0  0  0  0  0  0  0  0  0
   50.1260  155.1530   28.5070 O   0  0  0  0  0  0  0  0  0  0  0  0
   53.4450  157.0780   26.5660 C   0  0  0  0  0  0  0  0  0  0  0  0
   54.1980  156.4960   25.5440 C   0  0  0  0  0  0  0  0  0  0  0  0
   54.0680  155.1290   25.2390 C   0  0  0  0  0  0  0  0  0  0  0  0
   54.8960  154.5230   24.1310 C   0  0  0  0  0  0  0  0  0  0  0  0
   55.4540  155.4700   23.3130 F   0  0  0  0  0  0  0  0  0  0  0  0
   54.1840  153.7160   23.2920 F   0  0  0  0  0  0  0  0  0  0  0  0
   55.9530  153.7820   24.5760 F   0  0  0  0  0  0  0  0  0  0  0  0
   52.1560  152.2450   26.6090 C   0  0  0  0  0  0  0  0  0  0  0  0
   51.9460  150.7930   26.1150 C   0  0  0  0  0  0  0  0  0  0  0  0
   52.8541  148.0225   26.2544 H   0  0  0  0  0  0  0  0  0  0  0  0
   52.0689  148.7261   24.8001 H   0  0  0  0  0  0  0  0  0  0  0  0
   53.8364  148.4055   24.8001 H   0  0  0  0  0  0  0  0  0  0  0  0
   53.6920  149.9760   26.8370 H   0  0  0  0  0  0  0  0  0  0  0  0
   55.0627  150.3205   24.9295 H   0  0  0  0  0  0  0  0  0  0  0  0
   53.5815  150.8809   24.0349 H   0  0  0  0  0  0  0  0  0  0  0  0
   54.8724  152.2675   26.4455 H   0  0  0  0  0  0  0  0  0  0  0  0
   54.9301  152.8201   24.7347 H   0  0  0  0  0  0  0  0  0  0  0  0
   51.6955  154.3371   27.5680 H   0  0  0  0  0  0  0  0  0  0  0  0
   53.0638  160.4568   29.6650 H   0  0  0  0  0  0  0  0  0  0  0  0
   51.9627  161.8147   31.4472 H   0  0  0  0  0  0  0  0  0  0  0  0
   49.8871  160.9775   32.5533 H   0  0  0  0  0  0  0  0  0  0  0  0
   47.8540  159.0510   31.7390 H   0  0  0  0  0  0  0  0  0  0  0  0
   50.0180  154.9570   27.5970 H   0  0  0  0  0  0  0  0  0  0  0  0
   53.5590  158.1498   26.7858 H   0  0  0  0  0  0  0  0  0  0  0  0
   54.9026  157.1152   24.9695 H   0  0  0  0  0  0  0  0  0  0  0  0
   52.6239  152.2277   27.6044 H   0  0  0  0  0  0  0  0  0  0  0  0
   51.1821  152.7533   26.6652 H   0  0  0  0  0  0  0  0  0  0  0  0
   51.3351  150.2535   26.8537 H   0  0  0  0  0  0  0  0  0  0  0  0
   51.4463  150.8409   25.1362 H   0  0  0  0  0  0  0  0  0  0  0  0
  1  2  1  0
  2  3  1  0
  3  4  1  0
  4  5  1  0
  5  6  1  0
  6  7  2  0
  7  8  1  0
  8  9  1  0
  9 10  1  0
 10 11  1  0
 11 12  2  0
 12 13  1  0
 13 14  2  0
 14 15  1  0
 15 16  1  0
 15 17  2  0
 17 18  1  0
 18 19  2  0
 18 20  1  0
 20 21  1  0
  8 22  2  0
 22 23  1  0
 23 24  2  0
 24 25  1  0
 25 26  1  0
 25 27  1  0
 25 28  1  0
  5 29  1  0
 29 30  1  0
 30  2  1  0
 24  6  1  0
 20  9  2  0
 17 11  1  0
  1 31  1  0
  1 32  1  0
  1 33  1  0
  2 34  1  0
  3 35  1  0
  3 36  1  0
  4 37  1  0
  4 38  1  0
  7 39  1  0
 12 40  1  0
 13 41  1  0
 14 42  1  0
 16 43  1  0
 21 44  1  0
 22 45  1  0
 23 46  1  0
 29 47  1  0
 29 48  1  0
 30 49  1  0
 30 50  1  0
M  CHG  1   2   1
M  END
>  <meeko>  (4) 
{"is_sidechain": [false], "free_energy": -7.532, "intermolecular_energy": -9.529, "internal_energy": 2.296}

$$$$
cand_056_out
     RDKit          3D

 50 53  0  0  0  0  0  0  0  0999 V2000
   53.3910  163.4110   31.1010 C   0  0  0  0  0  0  0  0  0  0  0  0
   52.8870  162.2280   30.4050 N   0  0  0  0  0  0  0  0  0  0  0  0
   53.6460  161.0220   30.8130 C   0  0  0  0  0  0  0  0  0  0  0  0
   53.1110  159.7330   30.1450 C   0  0  0  0  0  0  0  0  0  0  0  0
   51.6730  159.5650   30.4560 N   0  0  0  0  0  0  0  0  0  0  0  0
   51.1360  158.3490   29.9970 C   0  0  0  0  0  0  0  0  0  0  0  0
   51.8400  157.5130   29.1090 C   0  0  0  0  0  0  0  0  0  0  0  0
   51.3100  156.2950   28.6580 C   0  0  0  0  0  0  0  0  0  0  0  0
   52.0450  155.4320   27.7120 C   0  0  0  0  0  0  0  0  0  0  0  0
   51.6950  154.0910   27.8170 O   0  0  0  0  0  0  0  0  0  0  0  0
   52.3040  153.1800   26.9930 C   0  0  0  0  0  0  0  0  0  0  0  0
   51.9100  151.8470   27.1230 C   0  0  0  0  0  0  0  0  0  0  0  0
   52.4930  150.8670   26.3160 C   0  0  0  0  0  0  0  0  0  0  0  0
   53.4680  151.2200   25.3800 C   0  0  0  0  0  0  0  0  0  0  0  0
   53.8580  152.5500   25.2520 C   0  0  0  0  0  0  0  0  0  0  0  0
   54.8180  152.8260   24.3180 O   0  0  0  0  0  0  0  0  0  0  0  0
   53.2750  153.5310   26.0600 C   0  0  0  0  0  0  0  0  0  0  0  0
   53.6570  154.9400   25.9590 C   0  0  0  0  0  0  0  0  0  0  0  0
   54.5120  155.3280   25.1660 O   0  0  0  0  0  0  0  0  0  0  0  0
   52.9730  155.9010   26.8560 C   0  0  0  0  0  0  0  0  0  0  0  0
   53.3490  157.2270   26.7620 O   0  0  0  0  0  0  0  0  0  0  0  0
   50.0350  155.9230   29.0940 C   0  0  0  0  0  0  0  0  0  0  0  0
   49.3190  156.7400   29.9710 C   0  0  0  0  0  0  0  0  0  0  0  0
   49.8580  157.9550   30.4320 C   0  0  0  0  0  0  0  0  0  0  0  0
   49.0650  158.8190   31.3820 C   0  0  0  0  0  0  0  0  0  0  0  0
   48.1450  158.1030   32.1010 F   0  0  0  0  0  0  0  0  0  0  0  0
   48.3380  159.7930   30.7610 F   0  0  0  0  0  0  0  0  0  0  0  0
   49.8290  159.4470   32.3230 F   0  0  0  0  0  0  0  0  0  0  0  0
   50.8840  160.7470   30.0350 C   0  0  0  0  0  0  0  0  0  0  0  0
   51.4500  162.0230   30.7040 C   0  0  0  0  0  0  0  0  0  0  0  0
   53.3239  163.2535   32.1876 H   0  0  0  0  0  0  0  0  0  0  0  0
   54.4404  163.5827   30.8195 H   0  0  0  0  0  0  0  0  0  0  0  0
   52.7878  164.2868   30.8195 H   0  0  0  0  0  0  0  0  0  0  0  0
   53.0050  162.3790   29.4030 H   0  0  0  0  0  0  0  0  0  0  0  0
   54.7003  161.1555   30.5289 H   0  0  0  0  0  0  0  0  0  0  0  0
   53.5326  160.9072   31.9011 H   0  0  0  0  0  0  0  0  0  0  0  0
   53.2427  159.8050   29.0553 H   0  0  0  0  0  0  0  0  0  0  0  0
   53.6689  158.8667   30.5300 H   0  0  0  0  0  0  0  0  0  0  0  0
   52.8351  157.8243   28.7586 H   0  0  0  0  0  0  0  0  0  0  0  0
   51.1418  151.5689   27.8596 H   0  0  0  0  0  0  0  0  0  0  0  0
   52.1840  149.8162   26.4177 H   0  0  0  0  0  0  0  0  0  0  0  0
   53.9269  150.4479   24.7450 H   0  0  0  0  0  0  0  0  0  0  0  0
   55.7140  152.6100   24.4890 H   0  0  0  0  0  0  0  0  0  0  0  0
   52.8630  157.8860   27.2180 H   0  0  0  0  0  0  0  0  0  0  0  0
   49.5923  154.9791   28.7433 H   0  0  0  0  0  0  0  0  0  0  0  0
   48.3186  156.4291   30.3065 H   0  0  0  0  0  0  0  0  0  0  0  0
   50.9404  160.8527   28.9415 H   0  0  0  0  0  0  0  0  0  0  0  0
   49.8363  160.6113   30.3416 H   0  0  0  0  0  0  0  0  0  0  0  0
   50.8855  162.8935   30.3385 H   0  0  0  0  0  0  0  0  0  0  0  0
   51.3477  161.9043   31.7928 H   0  0  0  0  0  0  0  0  0  0  0  0
  1  2  1  0
  2  3  1  0
  3  4  1  0
  4  5  1  0
  5  6  1  0
  6  7  2  0
  7  8  1  0
  8  9  1  0
  9 10  1  0
 10 11  1  0
 11 12  2  0
 12 13  1  0
 13 14  2  0
 14 15  1  0
 15 16  1  0
 15 17  2  0
 17 18  1  0
 18 19  2  0
 18 20  1  0
 20 21  1  0
  8 22  2  0
 22 23  1  0
 23 24  2  0
 24 25  1  0
 25 26  1  0
 25 27  1  0
 25 28  1  0
  5 29  1  0
 29 30  1  0
 30  2  1  0
 24  6  1  0
 20  9  2  0
 17 11  1  0
  1 31  1  0
  1 32  1  0
  1 33  1  0
  2 34  1  0
  3 35  1  0
  3 36  1  0
  4 37  1  0
  4 38  1  0
  7 39  1  0
 12 40  1  0
 13 41  1  0
 14 42  1  0
 16 43  1  0
 21 44  1  0
 22 45  1  0
 23 46  1  0
 29 47  1  0
 29 48  1  0
 30 49  1  0
 30 50  1  0
M  CHG  1   2   1
M  END
>  <meeko>  (5) 
{"is_sidechain": [false], "free_energy": -6.485, "intermolecular_energy": -7.016, "internal_energy": 1.076}

$$$$
cand_056_out
     RDKit          3D

 50 53  0  0  0  0  0  0  0  0999 V2000
   55.1750  155.2840   23.0860 C   0  0  0  0  0  0  0  0  0  0  0  0
   54.1200  155.5050   24.0740 N   0  0  0  0  0  0  0  0  0  0  0  0
   53.5940  154.2120   24.5710 C   0  0  0  0  0  0  0  0  0  0  0  0
   52.5120  154.3950   25.6630 C   0  0  0  0  0  0  0  0  0  0  0  0
   53.0600  155.1930   26.7850 N   0  0  0  0  0  0  0  0  0  0  0  0
   52.1850  155.2970   27.8810 C   0  0  0  0  0  0  0  0  0  0  0  0
   51.7690  156.5440   28.3850 C   0  0  0  0  0  0  0  0  0  0  0  0
   50.8890  156.6480   29.4720 C   0  0  0  0  0  0  0  0  0  0  0  0
   50.4710  157.9590   30.0090 C   0  0  0  0  0  0  0  0  0  0  0  0
   51.5450  158.7700   30.3560 O   0  0  0  0  0  0  0  0  0  0  0  0
   51.2960  160.0180   30.8670 C   0  0  0  0  0  0  0  0  0  0  0  0
   52.4050  160.8040   31.1870 C   0  0  0  0  0  0  0  0  0  0  0  0
   52.2210  162.0840   31.7140 C   0  0  0  0  0  0  0  0  0  0  0  0
   50.9310  162.5780   31.9200 C   0  0  0  0  0  0  0  0  0  0  0  0
   49.8280  161.7920   31.6000 C   0  0  0  0  0  0  0  0  0  0  0  0
   48.5940  162.3360   31.8290 O   0  0  0  0  0  0  0  0  0  0  0  0
   50.0110  160.5110   31.0730 C   0  0  0  0  0  0  0  0  0  0  0  0
   48.8790  159.6520   30.7240 C   0  0  0  0  0  0  0  0  0  0  0  0
   47.7140  160.0120   30.8830 O   0  0  0  0  0  0  0  0  0  0  0  0
   49.1810  158.3140   30.1640 C   0  0  0  0  0  0  0  0  0  0  0  0
   48.1060  157.5050   29.8500 O   0  0  0  0  0  0  0  0  0  0  0  0
   50.4350  155.4710   30.0760 C   0  0  0  0  0  0  0  0  0  0  0  0
   50.8390  154.2250   29.5930 C   0  0  0  0  0  0  0  0  0  0  0  0
   51.7130  154.1240   28.4950 C   0  0  0  0  0  0  0  0  0  0  0  0
   52.1330  152.7640   27.9900 C   0  0  0  0  0  0  0  0  0  0  0  0
   51.7100  151.7470   28.8040 F   0  0  0  0  0  0  0  0  0  0  0  0
   53.4860  152.6040   27.9080 F   0  0  0  0  0  0  0  0  0  0  0  0
   51.6310  152.4560   26.7590 F   0  0  0  0  0  0  0  0  0  0  0  0
   53.5710  156.5040   26.3190 C   0  0  0  0  0  0  0  0  0  0  0  0
   54.6370  156.2930   25.2180 C   0  0  0  0  0  0  0  0  0  0  0  0
   56.1254  155.0849   23.6028 H   0  0  0  0  0  0  0  0  0  0  0  0
   54.9125  154.4214   22.4560 H   0  0  0  0  0  0  0  0  0  0  0  0
   55.2808  156.1795   22.4560 H   0  0  0  0  0  0  0  0  0  0  0  0
   53.3680  156.0240   23.6190 H   0  0  0  0  0  0  0  0  0  0  0  0
   53.1538  153.6617   23.7264 H   0  0  0  0  0  0  0  0  0  0  0  0
   54.4326  153.6591   25.0194 H   0  0  0  0  0  0  0  0  0  0  0  0
   51.6444  154.9171   25.2333 H   0  0  0  0  0  0  0  0  0  0  0  0
   52.2031  153.4077   26.0368 H   0  0  0  0  0  0  0  0  0  0  0  0
   52.1451  157.4634   27.9125 H   0  0  0  0  0  0  0  0  0  0  0  0
   53.4212  160.4157   31.0243 H   0  0  0  0  0  0  0  0  0  0  0  0
   53.0935  162.7042   31.9673 H   0  0  0  0  0  0  0  0  0  0  0  0
   50.7870  163.5867   32.3345 H   0  0  0  0  0  0  0  0  0  0  0  0
   48.4660  162.9190   32.5520 H   0  0  0  0  0  0  0  0  0  0  0  0
   47.2350  157.7800   30.0600 H   0  0  0  0  0  0  0  0  0  0  0  0
   49.7544  155.5275   30.9383 H   0  0  0  0  0  0  0  0  0  0  0  0
   50.4689  153.3095   30.0776 H   0  0  0  0  0  0  0  0  0  0  0  0
   52.7382  157.0960   25.9116 H   0  0  0  0  0  0  0  0  0  0  0  0
   54.0267  157.0369   27.1666 H   0  0  0  0  0  0  0  0  0  0  0  0
   54.9643  157.2766   24.8501 H   0  0  0  0  0  0  0  0  0  0  0  0
   55.4713  155.7307   25.6626 H   0  0  0  0  0  0  0  0  0  0  0  0
  1  2  1  0
  2  3  1  0
  3  4  1  0
  4  5  1  0
  5  6  1  0
  6  7  2  0
  7  8  1  0
  8  9  1  0
  9 10  1  0
 10 11  1  0
 11 12  2  0
 12 13  1  0
 13 14  2  0
 14 15  1  0
 15 16  1  0
 15 17  2  0
 17 18  1  0
 18 19  2  0
 18 20  1  0
 20 21  1  0
  8 22  2  0
 22 23  1  0
 23 24  2  0
 24 25  1  0
 25 26  1  0
 25 27  1  0
 25 28  1  0
  5 29  1  0
 29 30  1  0
 30  2  1  0
 24  6  1  0
 20  9  2  0
 17 11  1  0
  1 31  1  0
  1 32  1  0
  1 33  1  0
  2 34  1  0
  3 35  1  0
  3 36  1  0
  4 37  1  0
  4 38  1  0
  7 39  1  0
 12 40  1  0
 13 41  1  0
 14 42  1  0
 16 43  1  0
 21 44  1  0
 22 45  1  0
 23 46  1  0
 29 47  1  0
 29 48  1  0
 30 49  1  0
 30 50  1  0
M  CHG  1   2   1
M  END
>  <meeko>  (6) 
{"is_sidechain": [false], "free_energy": -5.855, "intermolecular_energy": -6.306, "internal_energy": 1.144}

$$$$
