cand_054_out
     RDKit          3D

 46 48  0  0  0  0  0  0  0  0999 V2000
   73.2460   45.6860   -4.5990 C   0  0  0  0  0  0  0  0  0  0  0  0
   72.8160   44.4780   -5.4200 C   0  0  0  0  0  0  0  0  0  0  0  0
   73.9120   43.4970   -5.5550 N   0  0  0  0  0  0  0  0  0  0  0  0
   73.7580   42.5480   -6.6750 C   0  0  0  0  0  0  0  0  0  0  0  0
   74.5130   43.0510   -7.8980 C   0  0  0  0  0  0  0  0  0  0  0  0
   74.1890   42.7920   -4.3530 C   0  0  0  0  0  0  0  0  0  0  0  0
   73.2040   42.0400   -3.6860 C   0  0  0  0  0  0  0  0  0  0  0  0
   73.4890   41.3290   -2.5110 C   0  0  0  0  0  0  0  0  0  0  0  0
   72.4470   40.5600   -1.7970 C   0  0  0  0  0  0  0  0  0  0  0  0
   72.9440   39.4100   -1.1940 O   0  0  0  0  0  0  0  0  0  0  0  0
   72.0840   38.6020   -0.4960 C   0  0  0  0  0  0  0  0  0  0  0  0
   72.6290   37.4660    0.1040 C   0  0  0  0  0  0  0  0  0  0  0  0
   71.8070   36.6000    0.8290 C   0  0  0  0  0  0  0  0  0  0  0  0
   70.4410   36.8690    0.9510 C   0  0  0  0  0  0  0  0  0  0  0  0
   69.9020   38.0020    0.3490 C   0  0  0  0  0  0  0  0  0  0  0  0
   68.5580   38.2050    0.5090 O   0  0  0  0  0  0  0  0  0  0  0  0
   70.7250   38.8700   -0.3740 C   0  0  0  0  0  0  0  0  0  0  0  0
   70.1970   40.0720   -1.0210 C   0  0  0  0  0  0  0  0  0  0  0  0
   69.0060   40.3730   -0.9640 O   0  0  0  0  0  0  0  0  0  0  0  0
   71.1540   40.9290   -1.7570 C   0  0  0  0  0  0  0  0  0  0  0  0
   70.6420   42.0560   -2.3750 O   0  0  0  0  0  0  0  0  0  0  0  0
   74.7880   41.3890   -1.9930 C   0  0  0  0  0  0  0  0  0  0  0  0
   75.7820   42.1220   -2.6460 C   0  0  0  0  0  0  0  0  0  0  0  0
   75.4970   42.8190   -3.8260 C   0  0  0  0  0  0  0  0  0  0  0  0
   76.5890   43.5940   -4.5130 C   0  0  0  0  0  0  0  0  0  0  0  0
   73.1620   45.4501   -3.5279 H   0  0  0  0  0  0  0  0  0  0  0  0
   74.2895   45.9391   -4.8380 H   0  0  0  0  0  0  0  0  0  0  0  0
   72.5972   46.5415   -4.8380 H   0  0  0  0  0  0  0  0  0  0  0  0
   71.9622   43.9939   -4.9233 H   0  0  0  0  0  0  0  0  0  0  0  0
   72.5383   44.8257   -6.4260 H   0  0  0  0  0  0  0  0  0  0  0  0
   74.1590   41.5676   -6.3783 H   0  0  0  0  0  0  0  0  0  0  0  0
   72.6905   42.4573   -6.9244 H   0  0  0  0  0  0  0  0  0  0  0  0
   75.3880   43.6339   -7.5746 H   0  0  0  0  0  0  0  0  0  0  0  0
   74.8462   42.1938   -8.5014 H   0  0  0  0  0  0  0  0  0  0  0  0
   73.8502   43.6887   -8.5014 H   0  0  0  0  0  0  0  0  0  0  0  0
   72.1841   42.0090   -4.0968 H   0  0  0  0  0  0  0  0  0  0  0  0
   73.7037   37.2529    0.0062 H   0  0  0  0  0  0  0  0  0  0  0  0
   72.2353   35.7053    1.3044 H   0  0  0  0  0  0  0  0  0  0  0  0
   69.7935   36.1868    1.5215 H   0  0  0  0  0  0  0  0  0  0  0  0
   68.0640   38.6320   -0.1650 H   0  0  0  0  0  0  0  0  0  0  0  0
   70.2760   42.7480   -1.8600 H   0  0  0  0  0  0  0  0  0  0  0  0
   75.0285   40.8537   -1.0626 H   0  0  0  0  0  0  0  0  0  0  0  0
   76.7993   42.1517   -2.2285 H   0  0  0  0  0  0  0  0  0  0  0  0
   77.2411   44.0568   -3.7576 H   0  0  0  0  0  0  0  0  0  0  0  0
   77.1818   42.9134   -5.1417 H   0  0  0  0  0  0  0  0  0  0  0  0
   76.1422   44.3783   -5.1417 H   0  0  0  0  0  0  0  0  0  0  0  0
  1  2  1  0
  2  3  1  0
  3  4  1  0
  4  5  1  0
  3  6  1  0
  6  7  2  0
  7  8  1  0
  8  9  1  0
  9 10  1  0
 10 11  1  0
 11 12  2  0
 12 13  1  0
 13 14  2  0
 14 15  1  0
 15 16  1  0
 15 17  2  0
 17 18  1  0
 18 19  2  0
 18 20  1  0
 20 21  1  0
  8 22  2  0
 22 23  1  0
 23 24  2  0
 24 25  1  0
 24  6  1  0
 20  9  2  0
 17 11  1  0
  1 26  1  0
  1 27  1  0
  1 28  1  0
  2 29  1  0
  2 30  1  0
  4 31  1  0
  4 32  1  0
  5 33  1  0
  5 34  1  0
  5 35  1  0
  7 36  1  0
 12 37  1  0
 13 38  1  0
 14 39  1  0
 16 40  1  0
 21 41  1  0
 22 42  1  0
 23 43  1  0
 25 44  1  0
 25 45  1  0
 25 46  1  0
M  END
>  <meeko>  (1) 
{"is_sidechain": [false], "free_energy": -7.371, "intermolecular_energy": -9.525, "internal_energy": -0.536}

$$$$
cand_054_out
     RDKit          3D

 46 48  0  0  0  0  0  0  0  0999 V2000
   74.6780   43.4510   -8.2230 C   0  0  0  0  0  0  0  0  0  0  0  0
   74.9040   42.6130   -6.9720 C   0  0  0  0  0  0  0  0  0  0  0  0
   75.2860   43.4530   -5.8190 N   0  0  0  0  0  0  0  0  0  0  0  0
   76.5870   43.1100   -5.2090 C   0  0  0  0  0  0  0  0  0  0  0  0
   77.1950   41.9060   -5.9140 C   0  0  0  0  0  0  0  0  0  0  0  0
   74.2820   43.5250   -4.8170 C   0  0  0  0  0  0  0  0  0  0  0  0
   73.9220   42.4080   -4.0390 C   0  0  0  0  0  0  0  0  0  0  0  0
   72.9440   42.4910   -3.0370 C   0  0  0  0  0  0  0  0  0  0  0  0
   72.5490   41.3110   -2.2390 C   0  0  0  0  0  0  0  0  0  0  0  0
   71.1870   41.2810   -1.9590 O   0  0  0  0  0  0  0  0  0  0  0  0
   70.6830   40.2390   -1.2250 C   0  0  0  0  0  0  0  0  0  0  0  0
   69.3100   40.2420   -0.9800 C   0  0  0  0  0  0  0  0  0  0  0  0
   68.7320   39.2090   -0.2370 C   0  0  0  0  0  0  0  0  0  0  0  0
   69.5290   38.1770    0.2630 C   0  0  0  0  0  0  0  0  0  0  0  0
   70.8990   38.1780    0.0180 C   0  0  0  0  0  0  0  0  0  0  0  0
   71.6200   37.1360    0.5360 O   0  0  0  0  0  0  0  0  0  0  0  0
   71.4760   39.2100   -0.7270 C   0  0  0  0  0  0  0  0  0  0  0  0
   72.9120   39.2480   -1.0080 C   0  0  0  0  0  0  0  0  0  0  0  0
   73.6800   38.3790   -0.5970 O   0  0  0  0  0  0  0  0  0  0  0  0
   73.4230   40.3810   -1.8130 C   0  0  0  0  0  0  0  0  0  0  0  0
   74.7830   40.4130   -2.0600 O   0  0  0  0  0  0  0  0  0  0  0  0
   72.3090   43.7200   -2.8240 C   0  0  0  0  0  0  0  0  0  0  0  0
   72.6600   44.8430   -3.5780 C   0  0  0  0  0  0  0  0  0  0  0  0
   73.6460   44.7590   -4.5690 C   0  0  0  0  0  0  0  0  0  0  0  0
   74.0090   45.9860   -5.3610 C   0  0  0  0  0  0  0  0  0  0  0  0
   74.4017   44.4755   -7.9331 H   0  0  0  0  0  0  0  0  0  0  0  0
   75.6017   43.4753   -8.8199 H   0  0  0  0  0  0  0  0  0  0  0  0
   73.8673   43.0076   -8.8199 H   0  0  0  0  0  0  0  0  0  0  0  0
   73.9757   42.0747   -6.7300 H   0  0  0  0  0  0  0  0  0  0  0  0
   75.7247   41.9085   -7.1724 H   0  0  0  0  0  0  0  0  0  0  0  0
   77.2692   43.9680   -5.3009 H   0  0  0  0  0  0  0  0  0  0  0  0
   76.4333   42.8655   -4.1476 H   0  0  0  0  0  0  0  0  0  0  0  0
   77.5580   41.1871   -5.1647 H   0  0  0  0  0  0  0  0  0  0  0  0
   76.4315   41.4255   -6.5434 H   0  0  0  0  0  0  0  0  0  0  0  0
   78.0349   42.2352   -6.5434 H   0  0  0  0  0  0  0  0  0  0  0  0
   74.4209   41.4449   -4.2218 H   0  0  0  0  0  0  0  0  0  0  0  0
   68.6827   41.0566   -1.3712 H   0  0  0  0  0  0  0  0  0  0  0  0
   67.6487   39.2088   -0.0459 H   0  0  0  0  0  0  0  0  0  0  0  0
   69.0748   37.3648    0.8494 H   0  0  0  0  0  0  0  0  0  0  0  0
   71.9960   37.2060    1.3930 H   0  0  0  0  0  0  0  0  0  0  0  0
   75.2280   41.2350   -2.1280 H   0  0  0  0  0  0  0  0  0  0  0  0
   71.5261   43.8027   -2.0557 H   0  0  0  0  0  0  0  0  0  0  0  0
   72.1566   45.8030   -3.3912 H   0  0  0  0  0  0  0  0  0  0  0  0
   74.2523   46.8084   -4.6721 H   0  0  0  0  0  0  0  0  0  0  0  0
   74.8813   45.7685   -5.9949 H   0  0  0  0  0  0  0  0  0  0  0  0
   73.1588   46.2781   -5.9949 H   0  0  0  0  0  0  0  0  0  0  0  0
  1  2  1  0
  2  3  1  0
  3  4  1  0
  4  5  1  0
  3  6  1  0
  6  7  2  0
  7  8  1  0
  8  9  1  0
  9 10  1  0
 10 11  1  0
 11 12  2  0
 12 13  1  0
 13 14  2  0
 14 15  1  0
 15 16  1  0
 15 17  2  0
 17 18  1  0
 18 19  2  0
 18 20  1  0
 20 21  1  0
  8 22  2  0
 22 23  1  0
 23 24  2  0
 24 25  1  0
 24  6  1  0
 20  9  2  0
 17 11  1  0
  1 26  1  0
  1 27  1  0
  1 28  1  0
  2 29  1  0
  2 30  1  0
  4 31  1  0
  4 32  1  0
  5 33  1  0
  5 34  1  0
  5 35  1  0
  7 36  1  0
 12 37  1  0
 13 38  1  0
 14 39  1  0
 16 40  1  0
 21 41  1  0
 22 42  1  0
 23 43  1  0
 25 44  1  0
 25 45  1  0
 25 46  1  0
M  END
>  <meeko>  (2) 
{"is_sidechain": [false], "free_energy": -7.338, "intermolecular_energy": -9.484, "internal_energy": -0.536}

$$$$
cand_054_out
     RDKit          3D

 46 48  0  0  0  0  0  0  0  0999 V2000
   72.6420   45.6340   -4.4850 C   0  0  0  0  0  0  0  0  0  0  0  0
   72.3530   44.4360   -5.3790 C   0  0  0  0  0  0  0  0  0  0  0  0
   73.5510   43.5890   -5.5530 N   0  0  0  0  0  0  0  0  0  0  0  0
   73.4710   42.6280   -6.6710 C   0  0  0  0  0  0  0  0  0  0  0  0
   74.4990   42.9780   -7.7380 C   0  0  0  0  0  0  0  0  0  0  0  0
   73.9480   42.9210   -4.3640 C   0  0  0  0  0  0  0  0  0  0  0  0
   73.0870   42.0390   -3.6820 C   0  0  0  0  0  0  0  0  0  0  0  0
   73.4920   41.3670   -2.5190 C   0  0  0  0  0  0  0  0  0  0  0  0
   72.5800   40.4620   -1.7890 C   0  0  0  0  0  0  0  0  0  0  0  0
   71.2540   40.8770   -1.8380 O   0  0  0  0  0  0  0  0  0  0  0  0
   70.2990   40.1270   -1.2010 C   0  0  0  0  0  0  0  0  0  0  0  0
   68.9810   40.5730   -1.2890 C   0  0  0  0  0  0  0  0  0  0  0  0
   67.9590   39.8550   -0.6610 C   0  0  0  0  0  0  0  0  0  0  0  0
   68.2590   38.6940    0.0550 C   0  0  0  0  0  0  0  0  0  0  0  0
   69.5760   38.2520    0.1410 C   0  0  0  0  0  0  0  0  0  0  0  0
   69.7980   37.1080    0.8580 O   0  0  0  0  0  0  0  0  0  0  0  0
   70.5970   38.9700   -0.4880 C   0  0  0  0  0  0  0  0  0  0  0  0
   71.9940   38.5400   -0.4220 C   0  0  0  0  0  0  0  0  0  0  0  0
   72.3370   37.5320    0.1940 O   0  0  0  0  0  0  0  0  0  0  0  0
   72.9990   39.3650   -1.1300 C   0  0  0  0  0  0  0  0  0  0  0  0
   74.3180   38.9560   -1.0500 O   0  0  0  0  0  0  0  0  0  0  0  0
   74.7830   41.5980   -2.0290 C   0  0  0  0  0  0  0  0  0  0  0  0
   75.6550   42.4610   -2.6980 C   0  0  0  0  0  0  0  0  0  0  0  0
   75.2520   43.1210   -3.8660 C   0  0  0  0  0  0  0  0  0  0  0  0
   76.2140   44.0390   -4.5700 C   0  0  0  0  0  0  0  0  0  0  0  0
   72.5688   45.3305   -3.4302 H   0  0  0  0  0  0  0  0  0  0  0  0
   73.6561   46.0079   -4.6894 H   0  0  0  0  0  0  0  0  0  0  0  0
   71.9099   46.4291   -4.6894 H   0  0  0  0  0  0  0  0  0  0  0  0
   71.5530   43.8343   -4.9229 H   0  0  0  0  0  0  0  0  0  0  0  0
   72.0472   44.8088   -6.3677 H   0  0  0  0  0  0  0  0  0  0  0  0
   73.6694   41.6140   -6.2937 H   0  0  0  0  0  0  0  0  0  0  0  0
   72.4646   42.6734   -7.1128 H   0  0  0  0  0  0  0  0  0  0  0  0
   75.4347   43.2966   -7.2552 H   0  0  0  0  0  0  0  0  0  0  0  0
   74.6920   42.0949   -8.3649 H   0  0  0  0  0  0  0  0  0  0  0  0
   74.1131   43.7954   -8.3649 H   0  0  0  0  0  0  0  0  0  0  0  0
   72.0716   41.8730   -4.0711 H   0  0  0  0  0  0  0  0  0  0  0  0
   68.7456   41.4884   -1.8517 H   0  0  0  0  0  0  0  0  0  0  0  0
   66.9183   40.2045   -0.7308 H   0  0  0  0  0  0  0  0  0  0  0  0
   67.4553   38.1295    0.5504 H   0  0  0  0  0  0  0  0  0  0  0  0
   70.6280   36.9670    1.2720 H   0  0  0  0  0  0  0  0  0  0  0  0
   74.5880   38.3780   -0.3650 H   0  0  0  0  0  0  0  0  0  0  0  0
   75.1141   41.0952   -1.1084 H   0  0  0  0  0  0  0  0  0  0  0  0
   76.6687   42.6238   -2.3032 H   0  0  0  0  0  0  0  0  0  0  0  0
   76.7995   44.5977   -3.8250 H   0  0  0  0  0  0  0  0  0  0  0  0
   76.8930   43.4454   -5.1998 H   0  0  0  0  0  0  0  0  0  0  0  0
   75.6529   44.7450   -5.1998 H   0  0  0  0  0  0  0  0  0  0  0  0
  1  2  1  0
  2  3  1  0
  3  4  1  0
  4  5  1  0
  3  6  1  0
  6  7  2  0
  7  8  1  0
  8  9  1  0
  9 10  1  0
 10 11  1  0
 11 12  2  0
 12 13  1  0
 13 14  2  0
 14 15  1  0
 15 16  1  0
 15 17  2  0
 17 18  1  0
 18 19  2  0
 18 20  1  0
 20 21  1  0
  8 22  2  0
 22 23  1  0
 23 24  2  0
 24 25  1  0
 24  6  1  0
 20  9  2  0
 17 11  1  0
  1 26  1  0
  1 27  1  0
  1 28  1  0
  2 29  1  0
  2 30  1  0
  4 31  1  0
  4 32  1  0
  5 33  1  0
  5 34  1  0
  5 35  1  0
  7 36  1  0
 12 37  1  0
 13 38  1  0
 14 39  1  0
 16 40  1  0
 21 41  1  0
 22 42  1  0
 23 43  1  0
 25 44  1  0
 25 45  1  0
 25 46  1  0
M  END
>  <meeko>  (3) 
{"is_sidechain": [false], "free_energy": -7.282, "intermolecular_energy": -9.421, "internal_energy": -0.527}

$$$$
cand_054_out
     RDKit          3D

 46 48  0  0  0  0  0  0  0  0999 V2000
   75.9670   42.3650   -6.2870 C   0  0  0  0  0  0  0  0  0  0  0  0
   76.1910   41.9990   -4.8270 C   0  0  0  0  0  0  0  0  0  0  0  0
   75.9090   43.1410   -3.9330 N   0  0  0  0  0  0  0  0  0  0  0  0
   76.7550   43.2020   -2.7240 C   0  0  0  0  0  0  0  0  0  0  0  0
   77.3430   44.5980   -2.5660 C   0  0  0  0  0  0  0  0  0  0  0  0
   74.5390   43.2530   -3.5760 C   0  0  0  0  0  0  0  0  0  0  0  0
   73.8630   42.2290   -2.8860 C   0  0  0  0  0  0  0  0  0  0  0  0
   72.5150   42.3550   -2.5180 C   0  0  0  0  0  0  0  0  0  0  0  0
   71.7970   41.2690   -1.8160 C   0  0  0  0  0  0  0  0  0  0  0  0
   72.6470   40.2670   -1.3620 O   0  0  0  0  0  0  0  0  0  0  0  0
   72.1130   39.1960   -0.6930 C   0  0  0  0  0  0  0  0  0  0  0  0
   73.0040   38.2220   -0.2430 C   0  0  0  0  0  0  0  0  0  0  0  0
   72.5240   37.1050    0.4460 C   0  0  0  0  0  0  0  0  0  0  0  0
   71.1550   36.9630    0.6820 C   0  0  0  0  0  0  0  0  0  0  0  0
   70.2690   37.9370    0.2300 C   0  0  0  0  0  0  0  0  0  0  0  0
   68.9420   37.7350    0.4960 O   0  0  0  0  0  0  0  0  0  0  0  0
   70.7490   39.0550   -0.4570 C   0  0  0  0  0  0  0  0  0  0  0  0
   69.8520   40.1020   -0.9470 C   0  0  0  0  0  0  0  0  0  0  0  0
   68.6340   40.0450   -0.7850 O   0  0  0  0  0  0  0  0  0  0  0  0
   70.4610   41.2490   -1.6570 C   0  0  0  0  0  0  0  0  0  0  0  0
   69.6020   42.2260   -2.1270 O   0  0  0  0  0  0  0  0  0  0  0  0
   71.8350   43.5290   -2.8630 C   0  0  0  0  0  0  0  0  0  0  0  0
   72.4920   44.5600   -3.5380 C   0  0  0  0  0  0  0  0  0  0  0  0
   73.8410   44.4370   -3.8920 C   0  0  0  0  0  0  0  0  0  0  0  0
   74.5270   45.5670   -4.6120 C   0  0  0  0  0  0  0  0  0  0  0  0
   75.3936   43.3019   -6.3463 H   0  0  0  0  0  0  0  0  0  0  0  0
   76.9388   42.4977   -6.7850 H   0  0  0  0  0  0  0  0  0  0  0  0
   75.4067   41.5600   -6.7850 H   0  0  0  0  0  0  0  0  0  0  0  0
   75.5254   41.1644   -4.5616 H   0  0  0  0  0  0  0  0  0  0  0  0
   77.2459   41.7141   -4.7006 H   0  0  0  0  0  0  0  0  0  0  0  0
   76.1449   42.9622   -1.8407 H   0  0  0  0  0  0  0  0  0  0  0  0
   77.5749   42.4751   -2.8215 H   0  0  0  0  0  0  0  0  0  0  0  0
   77.4428   44.8349   -1.4965 H   0  0  0  0  0  0  0  0  0  0  0  0
   78.3332   44.6350   -3.0437 H   0  0  0  0  0  0  0  0  0  0  0  0
   76.6777   45.3323   -3.0437 H   0  0  0  0  0  0  0  0  0  0  0  0
   74.4052   41.3071   -2.6289 H   0  0  0  0  0  0  0  0  0  0  0  0
   74.0823   38.3328   -0.4300 H   0  0  0  0  0  0  0  0  0  0  0  0
   73.2255   36.3366    0.8029 H   0  0  0  0  0  0  0  0  0  0  0  0
   70.7775   36.0833    1.2239 H   0  0  0  0  0  0  0  0  0  0  0  0
   68.3580   38.4670    0.5520 H   0  0  0  0  0  0  0  0  0  0  0  0
   69.9450   43.0310   -2.4620 H   0  0  0  0  0  0  0  0  0  0  0  0
   70.7728   43.6405   -2.5998 H   0  0  0  0  0  0  0  0  0  0  0  0
   71.9438   45.4786   -3.7943 H   0  0  0  0  0  0  0  0  0  0  0  0
   74.9515   46.2663   -3.8766 H   0  0  0  0  0  0  0  0  0  0  0  0
   75.3331   45.1642   -5.2428 H   0  0  0  0  0  0  0  0  0  0  0  0
   73.7976   46.0963   -5.2428 H   0  0  0  0  0  0  0  0  0  0  0  0
  1  2  1  0
  2  3  1  0
  3  4  1  0
  4  5  1  0
  3  6  1  0
  6  7  2  0
  7  8  1  0
  8  9  1  0
  9 10  1  0
 10 11  1  0
 11 12  2  0
 12 13  1  0
 13 14  2  0
 14 15  1  0
 15 16  1  0
 15 17  2  0
 17 18  1  0
 18 19  2  0
 18 20  1  0
 20 21  1  0
  8 22  2  0
 22 23  1  0
 23 24  2  0
 24 25  1  0
 24  6  1  0
 20  9  2  0
 17 11  1  0
  1 26  1  0
  1 27  1  0
  1 28  1  0
  2 29  1  0
  2 30  1  0
  4 31  1  0
  4 32  1  0
  5 33  1  0
  5 34  1  0
  5 35  1  0
  7 36  1  0
 12 37  1  0
 13 38  1  0
 14 39  1  0
 16 40  1  0
 21 41  1  0
 22 42  1  0
 23 43  1  0
 25 44  1  0
 25 45  1  0
 25 46  1  0
M  END
>  <meeko>  (4) 
{"is_sidechain": [false], "free_energy": -7.242, "intermolecular_energy": -9.599, "internal_energy": -0.297}

$$$$
cand_054_out
     RDKit          3D

 46 48  0  0  0  0  0  0  0  0999 V2000
   76.9760   44.3860   -3.7730 C   0  0  0  0  0  0  0  0  0  0  0  0
   75.8140   44.9350   -2.9570 C   0  0  0  0  0  0  0  0  0  0  0  0
   74.6320   45.1920   -3.8040 N   0  0  0  0  0  0  0  0  0  0  0  0
   73.6940   46.1990   -3.2670 C   0  0  0  0  0  0  0  0  0  0  0  0
   74.4440   47.4750   -2.9080 C   0  0  0  0  0  0  0  0  0  0  0  0
   73.9270   44.0120   -4.1620 C   0  0  0  0  0  0  0  0  0  0  0  0
   73.4850   43.0860   -3.1980 C   0  0  0  0  0  0  0  0  0  0  0  0
   72.7720   41.9330   -3.5570 C   0  0  0  0  0  0  0  0  0  0  0  0
   72.3300   40.9470   -2.5470 C   0  0  0  0  0  0  0  0  0  0  0  0
   70.9560   40.9670   -2.3390 O   0  0  0  0  0  0  0  0  0  0  0  0
   70.4100   40.1020   -1.4260 C   0  0  0  0  0  0  0  0  0  0  0  0
   69.0260   40.1460   -1.2600 C   0  0  0  0  0  0  0  0  0  0  0  0
   68.4070   39.2920   -0.3440 C   0  0  0  0  0  0  0  0  0  0  0  0
   69.1730   38.3950    0.4050 C   0  0  0  0  0  0  0  0  0  0  0  0
   70.5540   38.3550    0.2370 C   0  0  0  0  0  0  0  0  0  0  0  0
   71.2420   37.4540    1.0030 O   0  0  0  0  0  0  0  0  0  0  0  0
   71.1730   39.2090   -0.6800 C   0  0  0  0  0  0  0  0  0  0  0  0
   72.6210   39.1970   -0.8870 C   0  0  0  0  0  0  0  0  0  0  0  0
   73.3630   38.4420   -0.2610 O   0  0  0  0  0  0  0  0  0  0  0  0
   73.1770   40.1360   -1.8870 C   0  0  0  0  0  0  0  0  0  0  0  0
   74.5490   40.1250   -2.0650 O   0  0  0  0  0  0  0  0  0  0  0  0
   72.5100   41.7040   -4.9130 C   0  0  0  0  0  0  0  0  0  0  0  0
   72.9310   42.6160   -5.8830 C   0  0  0  0  0  0  0  0  0  0  0  0
   73.6320   43.7740   -5.5200 C   0  0  0  0  0  0  0  0  0  0  0  0
   74.0670   44.7440   -6.5860 C   0  0  0  0  0  0  0  0  0  0  0  0
   77.7585   44.0163   -3.0940 H   0  0  0  0  0  0  0  0  0  0  0  0
   76.6209   43.5604   -4.4073 H   0  0  0  0  0  0  0  0  0  0  0  0
   77.3882   45.1846   -4.4073 H   0  0  0  0  0  0  0  0  0  0  0  0
   75.5453   44.2035   -2.1806 H   0  0  0  0  0  0  0  0  0  0  0  0
   76.1288   45.8873   -2.5054 H   0  0  0  0  0  0  0  0  0  0  0  0
   72.9312   46.4268   -4.0261 H   0  0  0  0  0  0  0  0  0  0  0  0
   73.2140   45.7973   -2.3624 H   0  0  0  0  0  0  0  0  0  0  0  0
   74.5007   47.5714   -1.8137 H   0  0  0  0  0  0  0  0  0  0  0  0
   75.4608   47.4325   -3.3255 H   0  0  0  0  0  0  0  0  0  0  0  0
   73.9122   48.3427   -3.3255 H   0  0  0  0  0  0  0  0  0  0  0  0
   73.7045   43.2716   -2.1362 H   0  0  0  0  0  0  0  0  0  0  0  0
   68.4227   40.8521   -1.8495 H   0  0  0  0  0  0  0  0  0  0  0  0
   67.3154   39.3257   -0.2122 H   0  0  0  0  0  0  0  0  0  0  0  0
   68.6856   37.7220    1.1258 H   0  0  0  0  0  0  0  0  0  0  0  0
   71.1590   36.5350    0.8350 H   0  0  0  0  0  0  0  0  0  0  0  0
   75.1000   39.7010   -1.4380 H   0  0  0  0  0  0  0  0  0  0  0  0
   71.9673   40.7969   -5.2173 H   0  0  0  0  0  0  0  0  0  0  0  0
   72.7101   42.4235   -6.9433 H   0  0  0  0  0  0  0  0  0  0  0  0
   74.4734   45.6503   -6.1133 H   0  0  0  0  0  0  0  0  0  0  0  0
   74.8422   44.2777   -7.2118 H   0  0  0  0  0  0  0  0  0  0  0  0
   73.2032   45.0127   -7.2118 H   0  0  0  0  0  0  0  0  0  0  0  0
  1  2  1  0
  2  3  1  0
  3  4  1  0
  4  5  1  0
  3  6  1  0
  6  7  2  0
  7  8  1  0
  8  9  1  0
  9 10  1  0
 10 11  1  0
 11 12  2  0
 12 13  1  0
 13 14  2  0
 14 15  1  0
 15 16  1  0
 15 17  2  0
 17 18  1  0
 18 19  2  0
 18 20  1  0
 20 21  1  0
  8 22  2  0
 22 23  1  0
 23 24  2  0
 24 25  1  0
 24  6  1  0
 20  9  2  0
 17 11  1  0
  1 26  1  0
  1 27  1  0
  1 28  1  0
  2 29  1  0
  2 30  1  0
  4 31  1  0
  4 32  1  0
  5 33  1  0
  5 34  1  0
  5 35  1  0
  7 36  1  0
 12 37  1  0
 13 38  1  0
 14 39  1  0
 16 40  1  0
 21 41  1  0
 22 42  1  0
 23 43  1  0
 25 44  1  0
 25 45  1  0
 25 46  1  0
M  END
>  <meeko>  (5) 
{"is_sidechain": [false], "free_energy": -7.202, "intermolecular_energy": -8.986, "internal_energy": -0.857}

$$$$
cand_054_out
     RDKit          3D

 46 48  0  0  0  0  0  0  0  0999 V2000
   77.1560   41.9040   -5.6680 C   0  0  0  0  0  0  0  0  0  0  0  0
   75.7020   42.2620   -5.3950 C   0  0  0  0  0  0  0  0  0  0  0  0
   75.5140   42.7490   -4.0130 N   0  0  0  0  0  0  0  0  0  0  0  0
   75.8290   41.7610   -2.9620 C   0  0  0  0  0  0  0  0  0  0  0  0
   76.3360   42.4680   -1.7130 C   0  0  0  0  0  0  0  0  0  0  0  0
   74.2310   43.3130   -3.7830 C   0  0  0  0  0  0  0  0  0  0  0  0
   73.1230   42.5220   -3.4220 C   0  0  0  0  0  0  0  0  0  0  0  0
   71.8630   43.0880   -3.1760 C   0  0  0  0  0  0  0  0  0  0  0  0
   70.6940   42.2550   -2.8220 C   0  0  0  0  0  0  0  0  0  0  0  0
   70.9020   41.4940   -1.6770 O   0  0  0  0  0  0  0  0  0  0  0  0
   69.8970   40.6730   -1.2340 C   0  0  0  0  0  0  0  0  0  0  0  0
   70.1430   39.9390   -0.0740 C   0  0  0  0  0  0  0  0  0  0  0  0
   69.1600   39.0830    0.4310 C   0  0  0  0  0  0  0  0  0  0  0  0
   67.9340   38.9610   -0.2270 C   0  0  0  0  0  0  0  0  0  0  0  0
   67.6920   39.6940   -1.3850 C   0  0  0  0  0  0  0  0  0  0  0  0
   66.4710   39.5270   -1.9780 O   0  0  0  0  0  0  0  0  0  0  0  0
   68.6750   40.5520   -1.8880 C   0  0  0  0  0  0  0  0  0  0  0  0
   68.4600   41.3410   -3.1020 C   0  0  0  0  0  0  0  0  0  0  0  0
   67.4110   41.2830   -3.7400 O   0  0  0  0  0  0  0  0  0  0  0  0
   69.5610   42.2250   -3.5470 C   0  0  0  0  0  0  0  0  0  0  0  0
   69.3520   42.9560   -4.7030 O   0  0  0  0  0  0  0  0  0  0  0  0
   71.7150   44.4740   -3.3090 C   0  0  0  0  0  0  0  0  0  0  0  0
   72.8050   45.2760   -3.6570 C   0  0  0  0  0  0  0  0  0  0  0  0
   74.0650   44.7100   -3.8880 C   0  0  0  0  0  0  0  0  0  0  0  0
   75.2230   45.5980   -4.2540 C   0  0  0  0  0  0  0  0  0  0  0  0
   77.6869   41.7733   -4.7135 H   0  0  0  0  0  0  0  0  0  0  0  0
   77.2012   40.9679   -6.2439 H   0  0  0  0  0  0  0  0  0  0  0  0
   77.6307   42.7121   -6.2439 H   0  0  0  0  0  0  0  0  0  0  0  0
   75.3900   43.0494   -6.0969 H   0  0  0  0  0  0  0  0  0  0  0  0
   75.0930   41.3555   -5.5271 H   0  0  0  0  0  0  0  0  0  0  0  0
   74.9210   41.1916   -2.7143 H   0  0  0  0  0  0  0  0  0  0  0  0
   76.6096   41.0796   -3.3314 H   0  0  0  0  0  0  0  0  0  0  0  0
   75.9622   41.9467   -0.8194 H   0  0  0  0  0  0  0  0  0  0  0  0
   77.4360   42.4607   -1.7085 H   0  0  0  0  0  0  0  0  0  0  0  0
   75.9762   43.5075   -1.7085 H   0  0  0  0  0  0  0  0  0  0  0  0
   73.2487   41.4330   -3.3306 H   0  0  0  0  0  0  0  0  0  0  0  0
   71.1094   40.0335    0.4429 H   0  0  0  0  0  0  0  0  0  0  0  0
   69.3521   38.5052    1.3471 H   0  0  0  0  0  0  0  0  0  0  0  0
   67.1608   38.2865    0.1695 H   0  0  0  0  0  0  0  0  0  0  0  0
   66.2970   38.7580   -2.4850 H   0  0  0  0  0  0  0  0  0  0  0  0
   69.7770   43.7830   -4.8170 H   0  0  0  0  0  0  0  0  0  0  0  0
   70.7314   44.9358   -3.1379 H   0  0  0  0  0  0  0  0  0  0  0  0
   72.6720   46.3639   -3.7506 H   0  0  0  0  0  0  0  0  0  0  0  0
   75.7054   45.9679   -3.3373 H   0  0  0  0  0  0  0  0  0  0  0  0
   75.9517   45.0249   -4.8462 H   0  0  0  0  0  0  0  0  0  0  0  0
   74.8586   46.4504   -4.8462 H   0  0  0  0  0  0  0  0  0  0  0  0
  1  2  1  0
  2  3  1  0
  3  4  1  0
  4  5  1  0
  3  6  1  0
  6  7  2  0
  7  8  1  0
  8  9  1  0
  9 10  1  0
 10 11  1  0
 11 12  2  0
 12 13  1  0
 13 14  2  0
 14 15  1  0
 15 16  1  0
 15 17  2  0
 17 18  1  0
 18 19  2  0
 18 20  1  0
 20 21  1  0
  8 22  2  0
 22 23  1  0
 23 24  2  0
 24 25  1  0
 24  6  1  0
 20  9  2  0
 17 11  1  0
  1 26  1  0
  1 27  1  0
  1 28  1  0
  2 29  1  0
  2 30  1  0
  4 31  1  0
  4 32  1  0
  5 33  1  0
  5 34  1  0
  5 35  1  0
  7 36  1  0
 12 37  1  0
 13 38  1  0
 14 39  1  0
 16 40  1  0
 21 41  1  0
 22 42  1  0
 23 43  1  0
 25 44  1  0
 25 45  1  0
 25 46  1  0
M  END
>  <meeko>  (6) 
{"is_sidechain": [false], "free_energy": -7.188, "intermolecular_energy": -9.154, "internal_energy": -0.672}

$$$$
cand_054_out
     RDKit          3D

 46 48  0  0  0  0  0  0  0  0999 V2000
   75.7240   47.1400   -2.8240 C   0  0  0  0  0  0  0  0  0  0  0  0
   74.5210   46.2880   -3.2030 C   0  0  0  0  0  0  0  0  0  0  0  0
   74.9180   45.1210   -4.0170 N   0  0  0  0  0  0  0  0  0  0  0  0
   74.3580   45.1020   -5.3830 C   0  0  0  0  0  0  0  0  0  0  0  0
   75.3330   44.4300   -6.3400 C   0  0  0  0  0  0  0  0  0  0  0  0
   74.6790   43.8770   -3.3740 C   0  0  0  0  0  0  0  0  0  0  0  0
   73.3800   43.3580   -3.2150 C   0  0  0  0  0  0  0  0  0  0  0  0
   73.1530   42.1190   -2.5980 C   0  0  0  0  0  0  0  0  0  0  0  0
   71.7860   41.5860   -2.4070 C   0  0  0  0  0  0  0  0  0  0  0  0
   71.6780   40.7660   -1.2890 O   0  0  0  0  0  0  0  0  0  0  0  0
   70.4640   40.2040   -0.9940 C   0  0  0  0  0  0  0  0  0  0  0  0
   70.3970   39.4010    0.1450 C   0  0  0  0  0  0  0  0  0  0  0  0
   69.1890   38.7970    0.5020 C   0  0  0  0  0  0  0  0  0  0  0  0
   68.0500   38.9940   -0.2820 C   0  0  0  0  0  0  0  0  0  0  0  0
   68.1200   39.7960   -1.4180 C   0  0  0  0  0  0  0  0  0  0  0  0
   66.9660   39.9470   -2.1390 O   0  0  0  0  0  0  0  0  0  0  0  0
   69.3280   40.4010   -1.7730 C   0  0  0  0  0  0  0  0  0  0  0  0
   69.4440   41.2510   -2.9590 C   0  0  0  0  0  0  0  0  0  0  0  0
   68.4880   41.4680   -3.7010 O   0  0  0  0  0  0  0  0  0  0  0  0
   70.7670   41.8520   -3.2440 C   0  0  0  0  0  0  0  0  0  0  0  0
   70.8670   42.6430   -4.3740 O   0  0  0  0  0  0  0  0  0  0  0  0
   74.2540   41.3970   -2.1220 C   0  0  0  0  0  0  0  0  0  0  0  0
   75.5510   41.8910   -2.2800 C   0  0  0  0  0  0  0  0  0  0  0  0
   75.7760   43.1220   -2.9090 C   0  0  0  0  0  0  0  0  0  0  0  0
   77.1840   43.6270   -3.0720 C   0  0  0  0  0  0  0  0  0  0  0  0
   75.8031   47.1960   -1.7283 H   0  0  0  0  0  0  0  0  0  0  0  0
   76.6383   46.6869   -3.2349 H   0  0  0  0  0  0  0  0  0  0  0  0
   75.6001   48.1528   -3.2349 H   0  0  0  0  0  0  0  0  0  0  0  0
   74.0311   45.9328   -2.2844 H   0  0  0  0  0  0  0  0  0  0  0  0
   73.8344   46.9068   -3.7994 H   0  0  0  0  0  0  0  0  0  0  0  0
   73.4096   44.5448   -5.3795 H   0  0  0  0  0  0  0  0  0  0  0  0
   74.1838   46.1363   -5.7146 H   0  0  0  0  0  0  0  0  0  0  0  0
   76.1045   43.8982   -5.7639 H   0  0  0  0  0  0  0  0  0  0  0  0
   74.7897   43.7136   -6.9738 H   0  0  0  0  0  0  0  0  0  0  0  0
   75.8091   45.1926   -6.9738 H   0  0  0  0  0  0  0  0  0  0  0  0
   72.5216   43.9387   -3.5839 H   0  0  0  0  0  0  0  0  0  0  0  0
   71.2945   39.2437    0.7613 H   0  0  0  0  0  0  0  0  0  0  0  0
   69.1348   38.1658    1.4012 H   0  0  0  0  0  0  0  0  0  0  0  0
   67.0993   38.5164   -0.0025 H   0  0  0  0  0  0  0  0  0  0  0  0
   66.5380   39.1950   -2.5010 H   0  0  0  0  0  0  0  0  0  0  0  0
   70.1390   43.1650   -4.6480 H   0  0  0  0  0  0  0  0  0  0  0  0
   74.0962   40.4316   -1.6189 H   0  0  0  0  0  0  0  0  0  0  0  0
   76.4049   41.3069   -1.9064 H   0  0  0  0  0  0  0  0  0  0  0  0
   77.6329   43.7880   -2.0807 H   0  0  0  0  0  0  0  0  0  0  0  0
   77.7775   42.8857   -3.6272 H   0  0  0  0  0  0  0  0  0  0  0  0
   77.1710   44.5765   -3.6272 H   0  0  0  0  0  0  0  0  0  0  0  0
  1  2  1  0
  2  3  1  0
  3  4  1  0
  4  5  1  0
  3  6  1  0
  6  7  2  0
  7  8  1  0
  8  9  1  0
  9 10  1  0
 10 11  1  0
 11 12  2  0
 12 13  1  0
 13 14  2  0
 14 15  1  0
 15 16  1  0
 15 17  2  0
 17 18  1  0
 18 19  2  0
 18 20  1  0
 20 21  1  0
  8 22  2  0
 22 23  1  0
 23 24  2  0
 24 25  1  0
 24  6  1  0
 20  9  2  0
 17 11  1  0
  1 26  1  0
  1 27  1  0
  1 28  1  0
  2 29  1  0
  2 30  1  0
  4 31  1  0
  4 32  1  0
  5 33  1  0
  5 34  1  0
  5 35  1  0
  7 36  1  0
 12 37  1  0
 13 38  1  0
 14 39  1  0
 16 40  1  0
 21 41  1  0
 22 42  1  0
 23 43  1  0
 25 44  1  0
 25 45  1  0
 25 46  1  0
M  END
>  <meeko>  (7) 
{"is_sidechain": [false], "free_energy": -7.151, "intermolecular_energy": -9.244, "internal_energy": -0.533}

$$$$
cand_054_out
     RDKit          3D

 46 48  0  0  0  0  0  0  0  0999 V2000
   67.7510   40.0130   -1.4290 C   0  0  0  0  0  0  0  0  0  0  0  0
   68.8530   40.8660   -2.0430 C   0  0  0  0  0  0  0  0  0  0  0  0
   69.8190   41.3200   -1.0210 N   0  0  0  0  0  0  0  0  0  0  0  0
   69.8530   42.7820   -0.8110 C   0  0  0  0  0  0  0  0  0  0  0  0
   68.9450   43.4780   -1.8160 C   0  0  0  0  0  0  0  0  0  0  0  0
   71.1340   40.8270   -1.2280 C   0  0  0  0  0  0  0  0  0  0  0  0
   72.0020   41.3950   -2.1800 C   0  0  0  0  0  0  0  0  0  0  0  0
   73.3070   40.9160   -2.3660 C   0  0  0  0  0  0  0  0  0  0  0  0
   74.2100   41.4960   -3.3840 C   0  0  0  0  0  0  0  0  0  0  0  0
   73.5590   41.7890   -4.5770 O   0  0  0  0  0  0  0  0  0  0  0  0
   74.2780   42.3330   -5.6090 C   0  0  0  0  0  0  0  0  0  0  0  0
   73.5830   42.6250   -6.7820 C   0  0  0  0  0  0  0  0  0  0  0  0
   74.2570   43.1800   -7.8730 C   0  0  0  0  0  0  0  0  0  0  0  0
   75.6270   43.4410   -7.7890 C   0  0  0  0  0  0  0  0  0  0  0  0
   76.3180   43.1480   -6.6170 C   0  0  0  0  0  0  0  0  0  0  0  0
   77.6570   43.4290   -6.6040 O   0  0  0  0  0  0  0  0  0  0  0  0
   75.6430   42.5940   -5.5260 C   0  0  0  0  0  0  0  0  0  0  0  0
   76.3320   42.2720   -4.2760 C   0  0  0  0  0  0  0  0  0  0  0  0
   77.5370   42.4660   -4.1280 O   0  0  0  0  0  0  0  0  0  0  0  0
   75.5240   41.6960   -3.1780 C   0  0  0  0  0  0  0  0  0  0  0  0
   76.1890   41.3830   -2.0050 O   0  0  0  0  0  0  0  0  0  0  0  0
   73.7400   39.8370   -1.5860 C   0  0  0  0  0  0  0  0  0  0  0  0
   72.8970   39.2670   -0.6290 C   0  0  0  0  0  0  0  0  0  0  0  0
   71.5990   39.7560   -0.4370 C   0  0  0  0  0  0  0  0  0  0  0  0
   70.7150   39.1280    0.6060 C   0  0  0  0  0  0  0  0  0  0  0  0
   67.8163   40.0636   -0.3321 H   0  0  0  0  0  0  0  0  0  0  0  0
   66.7706   40.3899   -1.7557 H   0  0  0  0  0  0  0  0  0  0  0  0
   67.8701   38.9694   -1.7557 H   0  0  0  0  0  0  0  0  0  0  0  0
   69.3859   40.2712   -2.7994 H   0  0  0  0  0  0  0  0  0  0  0  0
   68.3894   41.7536   -2.4983 H   0  0  0  0  0  0  0  0  0  0  0  0
   69.5095   43.0109    0.2086 H   0  0  0  0  0  0  0  0  0  0  0  0
   70.8836   43.1410   -0.9491 H   0  0  0  0  0  0  0  0  0  0  0  0
   68.1831   44.0620   -1.2788 H   0  0  0  0  0  0  0  0  0  0  0  0
   69.5444   44.1502   -2.4476 H   0  0  0  0  0  0  0  0  0  0  0  0
   68.4516   42.7246   -2.4476 H   0  0  0  0  0  0  0  0  0  0  0  0
   71.6475   42.2362   -2.7938 H   0  0  0  0  0  0  0  0  0  0  0  0
   72.5046   42.4185   -6.8485 H   0  0  0  0  0  0  0  0  0  0  0  0
   73.7089   43.4115   -8.7982 H   0  0  0  0  0  0  0  0  0  0  0  0
   76.1585   43.8773   -8.6476 H   0  0  0  0  0  0  0  0  0  0  0  0
   77.9550   44.2840   -6.3600 H   0  0  0  0  0  0  0  0  0  0  0  0
   76.1220   40.5220   -1.6440 H   0  0  0  0  0  0  0  0  0  0  0  0
   74.7537   39.4342   -1.7281 H   0  0  0  0  0  0  0  0  0  0  0  0
   73.2568   38.4248   -0.0196 H   0  0  0  0  0  0  0  0  0  0  0  0
   71.0857   39.3913    1.6076 H   0  0  0  0  0  0  0  0  0  0  0  0
   69.6864   39.4990    0.4865 H   0  0  0  0  0  0  0  0  0  0  0  0
   70.7267   38.0346    0.4865 H   0  0  0  0  0  0  0  0  0  0  0  0
  1  2  1  0
  2  3  1  0
  3  4  1  0
  4  5  1  0
  3  6  1  0
  6  7  2  0
  7  8  1  0
  8  9  1  0
  9 10  1  0
 10 11  1  0
 11 12  2  0
 12 13  1  0
 13 14  2  0
 14 15  1  0
 15 16  1  0
 15 17  2  0
 17 18  1  0
 18 19  2  0
 18 20  1  0
 20 21  1  0
  8 22  2  0
 22 23  1  0
 23 24  2  0
 24 25  1  0
 24  6  1  0
 20  9  2  0
 17 11  1  0
  1 26  1  0
  1 27  1  0
  1 28  1  0
  2 29  1  0
  2 30  1  0
  4 31  1  0
  4 32  1  0
  5 33  1  0
  5 34  1  0
  5 35  1  0
  7 36  1  0
 12 37  1  0
 13 38  1  0
 14 39  1  0
 16 40  1  0
 21 41  1  0
 22 42  1  0
 23 43  1  0
 25 44  1  0
 25 45  1  0
 25 46  1  0
M  END
>  <meeko>  (8) 
{"is_sidechain": [false], "free_energy": -7.143, "intermolecular_energy": -9.292, "internal_energy": -0.476}

$$$$
cand_054_out
     RDKit          3D

 46 48  0  0  0  0  0  0  0  0999 V2000
   68.0530   46.2290   -3.5490 C   0  0  0  0  0  0  0  0  0  0  0  0
   68.3740   44.7740   -3.8660 C   0  0  0  0  0  0  0  0  0  0  0  0
   69.5500   44.6600   -4.7520 N   0  0  0  0  0  0  0  0  0  0  0  0
   69.3330   43.8460   -5.9650 C   0  0  0  0  0  0  0  0  0  0  0  0
   68.4770   44.6120   -6.9640 C   0  0  0  0  0  0  0  0  0  0  0  0
   70.7240   44.2290   -4.0790 C   0  0  0  0  0  0  0  0  0  0  0  0
   70.7850   42.9940   -3.4040 C   0  0  0  0  0  0  0  0  0  0  0  0
   71.9540   42.5650   -2.7590 C   0  0  0  0  0  0  0  0  0  0  0  0
   72.0100   41.2800   -2.0280 C   0  0  0  0  0  0  0  0  0  0  0  0
   70.7880   40.9250   -1.4670 O   0  0  0  0  0  0  0  0  0  0  0  0
   70.6980   39.7540   -0.7600 C   0  0  0  0  0  0  0  0  0  0  0  0
   69.4500   39.4300   -0.2270 C   0  0  0  0  0  0  0  0  0  0  0  0
   69.2900   38.2510    0.5040 C   0  0  0  0  0  0  0  0  0  0  0  0
   70.3780   37.3980    0.7040 C   0  0  0  0  0  0  0  0  0  0  0  0
   71.6220   37.7250    0.1720 C   0  0  0  0  0  0  0  0  0  0  0  0
   72.6440   36.8450    0.4050 O   0  0  0  0  0  0  0  0  0  0  0  0
   71.7810   38.9040   -0.5620 C   0  0  0  0  0  0  0  0  0  0  0  0
   73.0710   39.2830   -1.1390 C   0  0  0  0  0  0  0  0  0  0  0  0
   74.0770   38.5890   -1.0010 O   0  0  0  0  0  0  0  0  0  0  0  0
   73.1330   40.5490   -1.9050 C   0  0  0  0  0  0  0  0  0  0  0  0
   74.3600   40.9040   -2.4350 O   0  0  0  0  0  0  0  0  0  0  0  0
   73.0770   43.4000   -2.7840 C   0  0  0  0  0  0  0  0  0  0  0  0
   73.0390   44.6240   -3.4560 C   0  0  0  0  0  0  0  0  0  0  0  0
   71.8740   45.0440   -4.1120 C   0  0  0  0  0  0  0  0  0  0  0  0
   71.8640   46.3630   -4.8350 C   0  0  0  0  0  0  0  0  0  0  0  0
   68.0222   46.3685   -2.4583 H   0  0  0  0  0  0  0  0  0  0  0  0
   68.8295   46.8781   -3.9799 H   0  0  0  0  0  0  0  0  0  0  0  0
   67.0754   46.4911   -3.9799 H   0  0  0  0  0  0  0  0  0  0  0  0
   68.5813   44.2408   -2.9265 H   0  0  0  0  0  0  0  0  0  0  0  0
   67.5084   44.3342   -4.3830 H   0  0  0  0  0  0  0  0  0  0  0  0
   70.3047   43.6109   -6.4238 H   0  0  0  0  0  0  0  0  0  0  0  0
   68.8154   42.9163   -5.6863 H   0  0  0  0  0  0  0  0  0  0  0  0
   67.7637   45.2503   -6.4221 H   0  0  0  0  0  0  0  0  0  0  0  0
   69.1233   45.2389   -7.5959 H   0  0  0  0  0  0  0  0  0  0  0  0
   67.9255   43.9003   -7.5959 H   0  0  0  0  0  0  0  0  0  0  0  0
   69.8934   42.3501   -3.3823 H   0  0  0  0  0  0  0  0  0  0  0  0
   68.5933   40.1023   -0.3824 H   0  0  0  0  0  0  0  0  0  0  0  0
   68.3060   37.9936    0.9229 H   0  0  0  0  0  0  0  0  0  0  0  0
   70.2519   36.4698    1.2807 H   0  0  0  0  0  0  0  0  0  0  0  0
   72.9570   36.7110    1.2790 H   0  0  0  0  0  0  0  0  0  0  0  0
   75.0260   40.2550   -2.5520 H   0  0  0  0  0  0  0  0  0  0  0  0
   73.9983   43.0894   -2.2695 H   0  0  0  0  0  0  0  0  0  0  0  0
   73.9329   45.2649   -3.4704 H   0  0  0  0  0  0  0  0  0  0  0  0
   71.8578   47.1830   -4.1018 H   0  0  0  0  0  0  0  0  0  0  0  0
   72.7616   46.4421   -5.4660 H   0  0  0  0  0  0  0  0  0  0  0  0
   70.9653   46.4285   -5.4660 H   0  0  0  0  0  0  0  0  0  0  0  0
  1  2  1  0
  2  3  1  0
  3  4  1  0
  4  5  1  0
  3  6  1  0
  6  7  2  0
  7  8  1  0
  8  9  1  0
  9 10  1  0
 10 11  1  0
 11 12  2  0
 12 13  1  0
 13 14  2  0
 14 15  1  0
 15 16  1  0
 15 17  2  0
 17 18  1  0
 18 19  2  0
 18 20  1  0
 20 21  1  0
  8 22  2  0
 22 23  1  0
 23 24  2  0
 24 25  1  0
 24  6  1  0
 20  9  2  0
 17 11  1  0
  1 26  1  0
  1 27  1  0
  1 28  1  0
  2 29  1  0
  2 30  1  0
  4 31  1  0
  4 32  1  0
  5 33  1  0
  5 34  1  0
  5 35  1  0
  7 36  1  0
 12 37  1  0
 13 38  1  0
 14 39  1  0
 16 40  1  0
 21 41  1  0
 22 42  1  0
 23 43  1  0
 25 44  1  0
 25 45  1  0
 25 46  1  0
M  END
>  <meeko>  (9) 
{"is_sidechain": [false], "free_energy": -7.084, "intermolecular_energy": -9.269, "internal_energy": -0.423}

$$$$
