cand_044_out
     RDKit          3D

 41 43  0  0  0  0  0  0  0  0999 V2000
   77.1920   41.9070   -6.2080 C   0  0  0  0  0  0  0  0  0  0  0  0
   76.1430   42.9400   -6.5880 C   0  0  0  0  0  0  0  0  0  0  0  0
   75.6460   43.7090   -5.3620 C   0  0  0  0  0  0  0  0  0  0  0  0
   74.7860   42.8440   -4.4650 C   0  0  0  0  0  0  0  0  0  0  0  0
   73.5690   42.3630   -4.9750 C   0  0  0  0  0  0  0  0  0  0  0  0
   72.7210   41.5750   -4.1940 C   0  0  0  0  0  0  0  0  0  0  0  0
   73.0570   41.2550   -2.8760 C   0  0  0  0  0  0  0  0  0  0  0  0
   72.1900   40.4020   -2.0350 C   0  0  0  0  0  0  0  0  0  0  0  0
   70.8500   40.7700   -2.0960 O   0  0  0  0  0  0  0  0  0  0  0  0
   69.9330   40.0570   -1.3660 C   0  0  0  0  0  0  0  0  0  0  0  0
   68.6020   40.4670   -1.4490 C   0  0  0  0  0  0  0  0  0  0  0  0
   67.6170   39.7840   -0.7320 C   0  0  0  0  0  0  0  0  0  0  0  0
   67.9620   38.6930    0.0680 C   0  0  0  0  0  0  0  0  0  0  0  0
   69.2930   38.2860    0.1480 C   0  0  0  0  0  0  0  0  0  0  0  0
   69.5620   37.2100    0.9490 O   0  0  0  0  0  0  0  0  0  0  0  0
   70.2770   38.9700   -0.5700 C   0  0  0  0  0  0  0  0  0  0  0  0
   71.6850   38.5750   -0.5140 C   0  0  0  0  0  0  0  0  0  0  0  0
   72.0680   37.6210    0.1620 O   0  0  0  0  0  0  0  0  0  0  0  0
   72.6510   39.3680   -1.3090 C   0  0  0  0  0  0  0  0  0  0  0  0
   73.9760   38.9750   -1.2600 O   0  0  0  0  0  0  0  0  0  0  0  0
   74.2750   41.7300   -2.3660 C   0  0  0  0  0  0  0  0  0  0  0  0
   75.1450   42.5290   -3.1380 C   0  0  0  0  0  0  0  0  0  0  0  0
   76.4460   42.9920   -2.5240 C   0  0  0  0  0  0  0  0  0  0  0  0
   76.4270   44.3010   -2.1460 F   0  0  0  0  0  0  0  0  0  0  0  0
   76.7960   42.2980   -1.4010 F   0  0  0  0  0  0  0  0  0  0  0  0
   77.2603   41.8398   -5.1122 H   0  0  0  0  0  0  0  0  0  0  0  0
   76.9071   40.9270   -6.6185 H   0  0  0  0  0  0  0  0  0  0  0  0
   78.1675   42.2069   -6.6185 H   0  0  0  0  0  0  0  0  0  0  0  0
   76.5836   43.6513   -7.3021 H   0  0  0  0  0  0  0  0  0  0  0  0
   75.2872   42.4149   -7.0373 H   0  0  0  0  0  0  0  0  0  0  0  0
   76.5148   44.0634   -4.7879 H   0  0  0  0  0  0  0  0  0  0  0  0
   75.0329   44.5521   -5.7132 H   0  0  0  0  0  0  0  0  0  0  0  0
   73.2790   42.6111   -6.0067 H   0  0  0  0  0  0  0  0  0  0  0  0
   71.7783   41.2022   -4.6210 H   0  0  0  0  0  0  0  0  0  0  0  0
   68.3288   41.3269   -2.0782 H   0  0  0  0  0  0  0  0  0  0  0  0
   66.5673   40.1063   -0.7977 H   0  0  0  0  0  0  0  0  0  0  0  0
   67.1860   38.1562    0.6334 H   0  0  0  0  0  0  0  0  0  0  0  0
   69.0750   37.0810    1.7400 H   0  0  0  0  0  0  0  0  0  0  0  0
   74.2360   38.2670   -0.7050 H   0  0  0  0  0  0  0  0  0  0  0  0
   74.5596   41.4722   -1.3352 H   0  0  0  0  0  0  0  0  0  0  0  0
   77.1694   42.8211   -3.3349 H   0  0  0  0  0  0  0  0  0  0  0  0
  1  2  1  0
  2  3  1  0
  3  4  1  0
  4  5  2  0
  5  6  1  0
  6  7  2  0
  7  8  1  0
  8  9  1  0
  9 10  1  0
 10 11  2  0
 11 12  1  0
 12 13  2  0
 13 14  1  0
 14 15  1  0
 14 16  2  0
 16 17  1  0
 17 18  2  0
 17 19  1  0
 19 20  1  0
  7 21  1  0
 21 22  2  0
 22 23  1  0
 23 24  1  0
 23 25  1  0
 22  4  1  0
 19  8  2  0
 16 10  1  0
  1 26  1  0
  1 27  1  0
  1 28  1  0
  2 29  1  0
  2 30  1  0
  3 31  1  0
  3 32  1  0
  5 33  1  0
  6 34  1  0
 11 35  1  0
 12 36  1  0
 13 37  1  0
 15 38  1  0
 20 39  1  0
 21 40  1  0
 23 41  1  0
M  END
>  <meeko>  (1) 
{"is_sidechain": [false], "free_energy": -7.801, "intermolecular_energy": -10.081, "internal_energy": -0.581}

$$$$
cand_044_out
     RDKit          3D

 41 43  0  0  0  0  0  0  0  0999 V2000
   70.7290   36.8850    1.2750 C   0  0  0  0  0  0  0  0  0  0  0  0
   70.6270   38.3950    1.1220 C   0  0  0  0  0  0  0  0  0  0  0  0
   70.0280   38.7800   -0.2320 C   0  0  0  0  0  0  0  0  0  0  0  0
   71.0340   39.4880   -1.1130 C   0  0  0  0  0  0  0  0  0  0  0  0
   72.0250   38.7170   -1.7430 C   0  0  0  0  0  0  0  0  0  0  0  0
   72.9940   39.3110   -2.5550 C   0  0  0  0  0  0  0  0  0  0  0  0
   73.0080   40.6940   -2.7520 C   0  0  0  0  0  0  0  0  0  0  0  0
   74.0080   41.3470   -3.6270 C   0  0  0  0  0  0  0  0  0  0  0  0
   73.4790   41.7380   -4.8520 O   0  0  0  0  0  0  0  0  0  0  0  0
   74.2970   42.3620   -5.7590 C   0  0  0  0  0  0  0  0  0  0  0  0
   73.7270   42.7280   -6.9780 C   0  0  0  0  0  0  0  0  0  0  0  0
   74.5050   43.3680   -7.9460 C   0  0  0  0  0  0  0  0  0  0  0  0
   75.8500   43.6410   -7.6950 C   0  0  0  0  0  0  0  0  0  0  0  0
   76.4170   43.2740   -6.4760 C   0  0  0  0  0  0  0  0  0  0  0  0
   77.7400   43.5720   -6.2940 O   0  0  0  0  0  0  0  0  0  0  0  0
   75.6380   42.6350   -5.5090 C   0  0  0  0  0  0  0  0  0  0  0  0
   76.1930   42.2330   -4.2150 C   0  0  0  0  0  0  0  0  0  0  0  0
   77.3670   42.4440   -3.9160 O   0  0  0  0  0  0  0  0  0  0  0  0
   75.2850   41.5570   -3.2600 C   0  0  0  0  0  0  0  0  0  0  0  0
   75.8160   41.1960   -2.0350 O   0  0  0  0  0  0  0  0  0  0  0  0
   72.0160   41.4660   -2.1290 C   0  0  0  0  0  0  0  0  0  0  0  0
   71.0300   40.8860   -1.3040 C   0  0  0  0  0  0  0  0  0  0  0  0
   69.9860   41.7810   -0.6780 C   0  0  0  0  0  0  0  0  0  0  0  0
   70.3300   43.1000   -0.6910 F   0  0  0  0  0  0  0  0  0  0  0  0
   68.7720   41.7190   -1.2990 F   0  0  0  0  0  0  0  0  0  0  0  0
   70.7466   36.6251    2.3437 H   0  0  0  0  0  0  0  0  0  0  0  0
   69.8610   36.4085    0.7960 H   0  0  0  0  0  0  0  0  0  0  0  0
   71.6532   36.5295    0.7960 H   0  0  0  0  0  0  0  0  0  0  0  0
   69.9867   38.7934    1.9228 H   0  0  0  0  0  0  0  0  0  0  0  0
   71.6403   38.8184    1.1851 H   0  0  0  0  0  0  0  0  0  0  0  0
   69.6880   37.8672   -0.7430 H   0  0  0  0  0  0  0  0  0  0  0  0
   69.1895   39.4685   -0.0506 H   0  0  0  0  0  0  0  0  0  0  0  0
   72.0381   37.6272   -1.5944 H   0  0  0  0  0  0  0  0  0  0  0  0
   73.7536   38.6836   -3.0442 H   0  0  0  0  0  0  0  0  0  0  0  0
   72.6667   42.5132   -7.1770 H   0  0  0  0  0  0  0  0  0  0  0  0
   74.0563   43.6572   -8.9078 H   0  0  0  0  0  0  0  0  0  0  0  0
   76.4617   44.1449   -8.4578 H   0  0  0  0  0  0  0  0  0  0  0  0
   78.2530   43.8810   -7.0150 H   0  0  0  0  0  0  0  0  0  0  0  0
   75.7060   41.7570   -1.2930 H   0  0  0  0  0  0  0  0  0  0  0  0
   72.0069   42.5543   -2.2884 H   0  0  0  0  0  0  0  0  0  0  0  0
   69.9229   41.3951    0.3502 H   0  0  0  0  0  0  0  0  0  0  0  0
  1  2  1  0
  2  3  1  0
  3  4  1  0
  4  5  2  0
  5  6  1  0
  6  7  2  0
  7  8  1  0
  8  9  1  0
  9 10  1  0
 10 11  2  0
 11 12  1  0
 12 13  2  0
 13 14  1  0
 14 15  1  0
 14 16  2  0
 16 17  1  0
 17 18  2  0
 17 19  1  0
 19 20  1  0
  7 21  1  0
 21 22  2  0
 22 23  1  0
 23 24  1  0
 23 25  1  0
 22  4  1  0
 19  8  2  0
 16 10  1  0
  1 26  1  0
  1 27  1  0
  1 28  1  0
  2 29  1  0
  2 30  1  0
  3 31  1  0
  3 32  1  0
  5 33  1  0
  6 34  1  0
 11 35  1  0
 12 36  1  0
 13 37  1  0
 15 38  1  0
 20 39  1  0
 21 40  1  0
 23 41  1  0
M  END
>  <meeko>  (2) 
{"is_sidechain": [false], "free_energy": -7.78, "intermolecular_energy": -9.823, "internal_energy": -0.812}

$$$$
cand_044_out
     RDKit          3D

 41 43  0  0  0  0  0  0  0  0999 V2000
   77.4440   41.7660   -6.1080 C   0  0  0  0  0  0  0  0  0  0  0  0
   76.3660   42.7270   -6.5840 C   0  0  0  0  0  0  0  0  0  0  0  0
   75.8170   43.5680   -5.4300 C   0  0  0  0  0  0  0  0  0  0  0  0
   74.8690   42.7750   -4.5560 C   0  0  0  0  0  0  0  0  0  0  0  0
   73.6610   42.3310   -5.1200 C   0  0  0  0  0  0  0  0  0  0  0  0
   72.7350   41.6090   -4.3630 C   0  0  0  0  0  0  0  0  0  0  0  0
   72.9820   41.3210   -3.0190 C   0  0  0  0  0  0  0  0  0  0  0  0
   72.0290   40.5380   -2.2010 C   0  0  0  0  0  0  0  0  0  0  0  0
   72.6240   39.4460   -1.5780 O   0  0  0  0  0  0  0  0  0  0  0  0
   71.8540   38.6360   -0.7830 C   0  0  0  0  0  0  0  0  0  0  0  0
   72.4900   37.5470   -0.1850 C   0  0  0  0  0  0  0  0  0  0  0  0
   71.7640   36.6820    0.6370 C   0  0  0  0  0  0  0  0  0  0  0  0
   70.4050   36.9060    0.8620 C   0  0  0  0  0  0  0  0  0  0  0  0
   69.7730   37.9950    0.2640 C   0  0  0  0  0  0  0  0  0  0  0  0
   68.4400   38.1560    0.5260 O   0  0  0  0  0  0  0  0  0  0  0  0
   70.5000   38.8590   -0.5580 C   0  0  0  0  0  0  0  0  0  0  0  0
   69.8750   40.0140   -1.2050 C   0  0  0  0  0  0  0  0  0  0  0  0
   68.6850   40.2820   -1.0510 O   0  0  0  0  0  0  0  0  0  0  0  0
   70.7320   40.8660   -2.0620 C   0  0  0  0  0  0  0  0  0  0  0  0
   70.1350   41.9630   -2.6540 O   0  0  0  0  0  0  0  0  0  0  0  0
   74.1900   41.7590   -2.4550 C   0  0  0  0  0  0  0  0  0  0  0  0
   75.1370   42.4900   -3.2010 C   0  0  0  0  0  0  0  0  0  0  0  0
   76.4220   42.9150   -2.5280 C   0  0  0  0  0  0  0  0  0  0  0  0
   76.4350   44.2310   -2.1750 F   0  0  0  0  0  0  0  0  0  0  0  0
   76.6880   42.2310   -1.3770 F   0  0  0  0  0  0  0  0  0  0  0  0
   77.4616   41.7503   -5.0083 H   0  0  0  0  0  0  0  0  0  0  0  0
   77.2275   40.7558   -6.4857 H   0  0  0  0  0  0  0  0  0  0  0  0
   78.4228   42.0967   -6.4857 H   0  0  0  0  0  0  0  0  0  0  0  0
   76.7947   43.3978   -7.3431 H   0  0  0  0  0  0  0  0  0  0  0  0
   75.5389   42.1371   -7.0058 H   0  0  0  0  0  0  0  0  0  0  0  0
   76.6581   43.9199   -4.8146 H   0  0  0  0  0  0  0  0  0  0  0  0
   75.2592   44.4135   -5.8590 H   0  0  0  0  0  0  0  0  0  0  0  0
   73.4410   42.5554   -6.1741 H   0  0  0  0  0  0  0  0  0  0  0  0
   71.8012   41.2636   -4.8307 H   0  0  0  0  0  0  0  0  0  0  0  0
   73.5614   37.3702   -0.3608 H   0  0  0  0  0  0  0  0  0  0  0  0
   72.2642   35.8228    1.1078 H   0  0  0  0  0  0  0  0  0  0  0  0
   69.8339   36.2247    1.5098 H   0  0  0  0  0  0  0  0  0  0  0  0
   67.8080   37.6190    0.0890 H   0  0  0  0  0  0  0  0  0  0  0  0
   70.6590   42.6830   -2.9440 H   0  0  0  0  0  0  0  0  0  0  0  0
   74.4040   41.5255   -1.4016 H   0  0  0  0  0  0  0  0  0  0  0  0
   77.1782   42.7000   -3.2974 H   0  0  0  0  0  0  0  0  0  0  0  0
  1  2  1  0
  2  3  1  0
  3  4  1  0
  4  5  2  0
  5  6  1  0
  6  7  2  0
  7  8  1  0
  8  9  1  0
  9 10  1  0
 10 11  2  0
 11 12  1  0
 12 13  2  0
 13 14  1  0
 14 15  1  0
 14 16  2  0
 16 17  1  0
 17 18  2  0
 17 19  1  0
 19 20  1  0
  7 21  1  0
 21 22  2  0
 22 23  1  0
 23 24  1  0
 23 25  1  0
 22  4  1  0
 19  8  2  0
 16 10  1  0
  1 26  1  0
  1 27  1  0
  1 28  1  0
  2 29  1  0
  2 30  1  0
  3 31  1  0
  3 32  1  0
  5 33  1  0
  6 34  1  0
 11 35  1  0
 12 36  1  0
 13 37  1  0
 15 38  1  0
 20 39  1  0
 21 40  1  0
 23 41  1  0
M  END
>  <meeko>  (3) 
{"is_sidechain": [false], "free_energy": -7.762, "intermolecular_energy": -9.891, "internal_energy": -0.722}

$$$$
cand_044_out
     RDKit          3D

 41 43  0  0  0  0  0  0  0  0999 V2000
   77.2090   41.9420   -6.5980 C   0  0  0  0  0  0  0  0  0  0  0  0
   77.4430   42.8020   -5.3650 C   0  0  0  0  0  0  0  0  0  0  0  0
   76.1950   43.6090   -5.0020 C   0  0  0  0  0  0  0  0  0  0  0  0
   75.1890   42.7780   -4.2350 C   0  0  0  0  0  0  0  0  0  0  0  0
   75.5510   42.3020   -2.9640 C   0  0  0  0  0  0  0  0  0  0  0  0
   74.6770   41.5160   -2.2120 C   0  0  0  0  0  0  0  0  0  0  0  0
   73.4180   41.1700   -2.7120 C   0  0  0  0  0  0  0  0  0  0  0  0
   72.4630   40.3590   -1.9260 C   0  0  0  0  0  0  0  0  0  0  0  0
   71.1500   40.8010   -2.0520 O   0  0  0  0  0  0  0  0  0  0  0  0
   70.1590   40.1330   -1.3790 C   0  0  0  0  0  0  0  0  0  0  0  0
   68.8580   40.6160   -1.5260 C   0  0  0  0  0  0  0  0  0  0  0  0
   67.8010   39.9820   -0.8680 C   0  0  0  0  0  0  0  0  0  0  0  0
   68.0450   38.8670   -0.0650 C   0  0  0  0  0  0  0  0  0  0  0  0
   69.3450   38.3860    0.0790 C   0  0  0  0  0  0  0  0  0  0  0  0
   69.5130   37.2900    0.8800 O   0  0  0  0  0  0  0  0  0  0  0  0
   70.4010   39.0210   -0.5790 C   0  0  0  0  0  0  0  0  0  0  0  0
   71.7810   38.5490   -0.4550 C   0  0  0  0  0  0  0  0  0  0  0  0
   72.0750   37.5700    0.2280 O   0  0  0  0  0  0  0  0  0  0  0  0
   72.8290   39.2950   -1.1890 C   0  0  0  0  0  0  0  0  0  0  0  0
   74.1260   38.8290   -1.0780 O   0  0  0  0  0  0  0  0  0  0  0  0
   73.0520   41.6480   -3.9790 C   0  0  0  0  0  0  0  0  0  0  0  0
   73.9220   42.4420   -4.7560 C   0  0  0  0  0  0  0  0  0  0  0  0
   73.4500   42.9320   -6.1060 C   0  0  0  0  0  0  0  0  0  0  0  0
   73.8650   42.1460   -7.1380 F   0  0  0  0  0  0  0  0  0  0  0  0
   72.0910   42.9890   -6.2210 F   0  0  0  0  0  0  0  0  0  0  0  0
   76.9319   40.9237   -6.2876 H   0  0  0  0  0  0  0  0  0  0  0  0
   76.3963   42.3761   -7.1989 H   0  0  0  0  0  0  0  0  0  0  0  0
   78.1296   41.9044   -7.1989 H   0  0  0  0  0  0  0  0  0  0  0  0
   77.7064   42.1503   -4.5189 H   0  0  0  0  0  0  0  0  0  0  0  0
   78.2590   43.5064   -5.5841 H   0  0  0  0  0  0  0  0  0  0  0  0
   76.4941   44.4669   -4.3819 H   0  0  0  0  0  0  0  0  0  0  0  0
   75.7203   43.9418   -5.9368 H   0  0  0  0  0  0  0  0  0  0  0  0
   76.5405   42.5532   -2.5544 H   0  0  0  0  0  0  0  0  0  0  0  0
   74.9818   41.1648   -1.2151 H   0  0  0  0  0  0  0  0  0  0  0  0
   68.6649   41.4946   -2.1590 H   0  0  0  0  0  0  0  0  0  0  0  0
   66.7752   40.3622   -0.9830 H   0  0  0  0  0  0  0  0  0  0  0  0
   67.2126   38.3686    0.4534 H   0  0  0  0  0  0  0  0  0  0  0  0
   69.5340   36.4320    0.5010 H   0  0  0  0  0  0  0  0  0  0  0  0
   74.2940   37.9080   -1.0630 H   0  0  0  0  0  0  0  0  0  0  0  0
   72.0583   41.3967   -4.3783 H   0  0  0  0  0  0  0  0  0  0  0  0
   73.8928   43.9372   -6.1657 H   0  0  0  0  0  0  0  0  0  0  0  0
  1  2  1  0
  2  3  1  0
  3  4  1  0
  4  5  2  0
  5  6  1  0
  6  7  2  0
  7  8  1  0
  8  9  1  0
  9 10  1  0
 10 11  2  0
 11 12  1  0
 12 13  2  0
 13 14  1  0
 14 15  1  0
 14 16  2  0
 16 17  1  0
 17 18  2  0
 17 19  1  0
 19 20  1  0
  7 21  1  0
 21 22  2  0
 22 23  1  0
 23 24  1  0
 23 25  1  0
 22  4  1  0
 19  8  2  0
 16 10  1  0
  1 26  1  0
  1 27  1  0
  1 28  1  0
  2 29  1  0
  2 30  1  0
  3 31  1  0
  3 32  1  0
  5 33  1  0
  6 34  1  0
 11 35  1  0
 12 36  1  0
 13 37  1  0
 15 38  1  0
 20 39  1  0
 21 40  1  0
 23 41  1  0
M  END
>  <meeko>  (4) 
{"is_sidechain": [false], "free_energy": -7.684, "intermolecular_energy": -9.846, "internal_energy": -0.666}

$$$$
cand_044_out
     RDKit          3D

 41 43  0  0  0  0  0  0  0  0999 V2000
   68.0120   39.6890   -1.0250 C   0  0  0  0  0  0  0  0  0  0  0  0
   69.0810   38.9450   -0.2400 C   0  0  0  0  0  0  0  0  0  0  0  0
   70.1080   39.9080    0.3580 C   0  0  0  0  0  0  0  0  0  0  0  0
   71.1600   40.3100   -0.6530 C   0  0  0  0  0  0  0  0  0  0  0  0
   70.9970   41.5290   -1.3320 C   0  0  0  0  0  0  0  0  0  0  0  0
   71.9220   41.9500   -2.2900 C   0  0  0  0  0  0  0  0  0  0  0  0
   73.0310   41.1600   -2.6060 C   0  0  0  0  0  0  0  0  0  0  0  0
   74.0390   41.5930   -3.5990 C   0  0  0  0  0  0  0  0  0  0  0  0
   73.4730   41.9880   -4.8060 O   0  0  0  0  0  0  0  0  0  0  0  0
   74.2960   42.4190   -5.8150 C   0  0  0  0  0  0  0  0  0  0  0  0
   73.6860   42.7970   -7.0120 C   0  0  0  0  0  0  0  0  0  0  0  0
   74.4660   43.2460   -8.0790 C   0  0  0  0  0  0  0  0  0  0  0  0
   75.8540   43.3180   -7.9510 C   0  0  0  0  0  0  0  0  0  0  0  0
   76.4600   42.9410   -6.7540 C   0  0  0  0  0  0  0  0  0  0  0  0
   77.8240   43.0370   -6.6950 O   0  0  0  0  0  0  0  0  0  0  0  0
   75.6790   42.4920   -5.6870 C   0  0  0  0  0  0  0  0  0  0  0  0
   76.2750   42.0870   -4.4120 C   0  0  0  0  0  0  0  0  0  0  0  0
   77.4890   42.1280   -4.2190 O   0  0  0  0  0  0  0  0  0  0  0  0
   75.3600   41.6210   -3.3450 C   0  0  0  0  0  0  0  0  0  0  0  0
   75.9340   41.2560   -2.1410 O   0  0  0  0  0  0  0  0  0  0  0  0
   73.1980   39.9450   -1.9250 C   0  0  0  0  0  0  0  0  0  0  0  0
   72.2740   39.5010   -0.9570 C   0  0  0  0  0  0  0  0  0  0  0  0
   72.5300   38.1860   -0.2550 C   0  0  0  0  0  0  0  0  0  0  0  0
   72.5820   37.1240   -1.1060 F   0  0  0  0  0  0  0  0  0  0  0  0
   73.7100   38.1550    0.4320 F   0  0  0  0  0  0  0  0  0  0  0  0
   67.3148   40.1742   -0.3260 H   0  0  0  0  0  0  0  0  0  0  0  0
   68.4870   40.4527   -1.6584 H   0  0  0  0  0  0  0  0  0  0  0  0
   67.4609   38.9783   -1.6584 H   0  0  0  0  0  0  0  0  0  0  0  0
   68.6006   38.3834    0.5747 H   0  0  0  0  0  0  0  0  0  0  0  0
   69.6046   38.2650   -0.9280 H   0  0  0  0  0  0  0  0  0  0  0  0
   69.5870   40.8115    0.7075 H   0  0  0  0  0  0  0  0  0  0  0  0
   70.6129   39.3947    1.1897 H   0  0  0  0  0  0  0  0  0  0  0  0
   70.1266   42.1623   -1.1054 H   0  0  0  0  0  0  0  0  0  0  0  0
   71.7763   42.9131   -2.8011 H   0  0  0  0  0  0  0  0  0  0  0  0
   72.5922   42.7412   -7.1145 H   0  0  0  0  0  0  0  0  0  0  0  0
   73.9857   43.5437   -9.0228 H   0  0  0  0  0  0  0  0  0  0  0  0
   76.4679   43.6713   -8.7926 H   0  0  0  0  0  0  0  0  0  0  0  0
   78.2310   43.4970   -5.9870 H   0  0  0  0  0  0  0  0  0  0  0  0
   75.6540   40.4750   -1.7060 H   0  0  0  0  0  0  0  0  0  0  0  0
   74.0748   39.3209   -2.1527 H   0  0  0  0  0  0  0  0  0  0  0  0
   71.6730   38.1077    0.4302 H   0  0  0  0  0  0  0  0  0  0  0  0
  1  2  1  0
  2  3  1  0
  3  4  1  0
  4  5  2  0
  5  6  1  0
  6  7  2  0
  7  8  1  0
  8  9  1  0
  9 10  1  0
 10 11  2  0
 11 12  1  0
 12 13  2  0
 13 14  1  0
 14 15  1  0
 14 16  2  0
 16 17  1  0
 17 18  2  0
 17 19  1  0
 19 20  1  0
  7 21  1  0
 21 22  2  0
 22 23  1  0
 23 24  1  0
 23 25  1  0
 22  4  1  0
 19  8  2  0
 16 10  1  0
  1 26  1  0
  1 27  1  0
  1 28  1  0
  2 29  1  0
  2 30  1  0
  3 31  1  0
  3 32  1  0
  5 33  1  0
  6 34  1  0
 11 35  1  0
 12 36  1  0
 13 37  1  0
 15 38  1  0
 20 39  1  0
 21 40  1  0
 23 41  1  0
M  END
>  <meeko>  (5) 
{"is_sidechain": [false], "free_energy": -7.633, "intermolecular_energy": -9.981, "internal_energy": -0.465}

$$$$
cand_044_out
     RDKit          3D

 41 43  0  0  0  0  0  0  0  0999 V2000
   67.4620   38.9880   -0.0970 C   0  0  0  0  0  0  0  0  0  0  0  0
   68.8580   38.3970    0.0210 C   0  0  0  0  0  0  0  0  0  0  0  0
   69.8110   39.3550    0.7390 C   0  0  0  0  0  0  0  0  0  0  0  0
   70.7860   40.0050   -0.2190 C   0  0  0  0  0  0  0  0  0  0  0  0
   70.4540   41.2590   -0.7560 C   0  0  0  0  0  0  0  0  0  0  0  0
   71.3020   41.9050   -1.6580 C   0  0  0  0  0  0  0  0  0  0  0  0
   72.5010   41.3110   -2.0610 C   0  0  0  0  0  0  0  0  0  0  0  0
   73.4290   41.9820   -2.9970 C   0  0  0  0  0  0  0  0  0  0  0  0
   74.3780   42.7650   -2.3470 O   0  0  0  0  0  0  0  0  0  0  0  0
   75.3060   43.4410   -3.0960 C   0  0  0  0  0  0  0  0  0  0  0  0
   76.2320   44.2210   -2.4040 C   0  0  0  0  0  0  0  0  0  0  0  0
   77.2050   44.9350   -3.1070 C   0  0  0  0  0  0  0  0  0  0  0  0
   77.2530   44.8690   -4.5000 C   0  0  0  0  0  0  0  0  0  0  0  0
   76.3260   44.0880   -5.1890 C   0  0  0  0  0  0  0  0  0  0  0  0
   76.4300   44.0670   -6.5530 O   0  0  0  0  0  0  0  0  0  0  0  0
   75.3540   43.3750   -4.4850 C   0  0  0  0  0  0  0  0  0  0  0  0
   74.3630   42.5420   -5.1700 C   0  0  0  0  0  0  0  0  0  0  0  0
   74.3430   42.4270   -6.3930 O   0  0  0  0  0  0  0  0  0  0  0  0
   73.3710   41.8300   -4.3320 C   0  0  0  0  0  0  0  0  0  0  0  0
   72.4500   41.0340   -4.9890 O   0  0  0  0  0  0  0  0  0  0  0  0
   72.8370   40.0590   -1.5220 C   0  0  0  0  0  0  0  0  0  0  0  0
   71.9940   39.3900   -0.6110 C   0  0  0  0  0  0  0  0  0  0  0  0
   72.4310   38.0510   -0.0620 C   0  0  0  0  0  0  0  0  0  0  0  0
   72.5910   37.1020   -1.0260 F   0  0  0  0  0  0  0  0  0  0  0  0
   73.6240   38.0970    0.6000 F   0  0  0  0  0  0  0  0  0  0  0  0
   67.0513   39.1619    0.9085 H   0  0  0  0  0  0  0  0  0  0  0  0
   67.5126   39.9419   -0.6424 H   0  0  0  0  0  0  0  0  0  0  0  0
   66.8123   38.2877   -0.6424 H   0  0  0  0  0  0  0  0  0  0  0  0
   68.8016   37.4563    0.5883 H   0  0  0  0  0  0  0  0  0  0  0  0
   69.2453   38.2187   -0.9930 H   0  0  0  0  0  0  0  0  0  0  0  0
   69.2202   40.1407    1.2326 H   0  0  0  0  0  0  0  0  0  0  0  0
   70.3897   38.7741    1.4723 H   0  0  0  0  0  0  0  0  0  0  0  0
   69.5100   41.7407   -0.4613 H   0  0  0  0  0  0  0  0  0  0  0  0
   71.0232   42.8920   -2.0556 H   0  0  0  0  0  0  0  0  0  0  0  0
   76.1962   44.2739   -1.3059 H   0  0  0  0  0  0  0  0  0  0  0  0
   77.9351   45.5508   -2.5613 H   0  0  0  0  0  0  0  0  0  0  0  0
   78.0198   45.4314   -5.0529 H   0  0  0  0  0  0  0  0  0  0  0  0
   77.2660   44.1800   -6.9620 H   0  0  0  0  0  0  0  0  0  0  0  0
   71.8230   41.4220   -5.5670 H   0  0  0  0  0  0  0  0  0  0  0  0
   73.7849   39.5865   -1.8188 H   0  0  0  0  0  0  0  0  0  0  0  0
   71.6104   37.7907    0.6227 H   0  0  0  0  0  0  0  0  0  0  0  0
  1  2  1  0
  2  3  1  0
  3  4  1  0
  4  5  2  0
  5  6  1  0
  6  7  2  0
  7  8  1  0
  8  9  1  0
  9 10  1  0
 10 11  2  0
 11 12  1  0
 12 13  2  0
 13 14  1  0
 14 15  1  0
 14 16  2  0
 16 17  1  0
 17 18  2  0
 17 19  1  0
 19 20  1  0
  7 21  1  0
 21 22  2  0
 22 23  1  0
 23 24  1  0
 23 25  1  0
 22  4  1  0
 19  8  2  0
 16 10  1  0
  1 26  1  0
  1 27  1  0
  1 28  1  0
  2 29  1  0
  2 30  1  0
  3 31  1  0
  3 32  1  0
  5 33  1  0
  6 34  1  0
 11 35  1  0
 12 36  1  0
 13 37  1  0
 15 38  1  0
 20 39  1  0
 21 40  1  0
 23 41  1  0
M  END
>  <meeko>  (6) 
{"is_sidechain": [false], "free_energy": -7.59, "intermolecular_energy": -9.576, "internal_energy": -0.814}

$$$$
cand_044_out
     RDKit          3D

 41 43  0  0  0  0  0  0  0  0999 V2000
   70.7300   36.4820    0.8400 C   0  0  0  0  0  0  0  0  0  0  0  0
   70.1120   37.8680    0.7400 C   0  0  0  0  0  0  0  0  0  0  0  0
   71.1850   38.9580    0.7080 C   0  0  0  0  0  0  0  0  0  0  0  0
   70.9840   39.9140   -0.4480 C   0  0  0  0  0  0  0  0  0  0  0  0
   70.1500   41.0270   -0.2520 C   0  0  0  0  0  0  0  0  0  0  0  0
   69.9090   41.9380   -1.2820 C   0  0  0  0  0  0  0  0  0  0  0  0
   70.4830   41.7580   -2.5430 C   0  0  0  0  0  0  0  0  0  0  0  0
   70.2640   42.7200   -3.6450 C   0  0  0  0  0  0  0  0  0  0  0  0
   68.9700   42.6740   -4.1520 O   0  0  0  0  0  0  0  0  0  0  0  0
   68.6280   43.5200   -5.1760 C   0  0  0  0  0  0  0  0  0  0  0  0
   67.3230   43.4330   -5.6600 C   0  0  0  0  0  0  0  0  0  0  0  0
   66.9100   44.2670   -6.7020 C   0  0  0  0  0  0  0  0  0  0  0  0
   67.8000   45.1860   -7.2590 C   0  0  0  0  0  0  0  0  0  0  0  0
   69.1030   45.2700   -6.7730 C   0  0  0  0  0  0  0  0  0  0  0  0
   69.9240   46.1930   -7.3630 O   0  0  0  0  0  0  0  0  0  0  0  0
   69.5160   44.4360   -5.7310 C   0  0  0  0  0  0  0  0  0  0  0  0
   70.8750   44.4930   -5.1900 C   0  0  0  0  0  0  0  0  0  0  0  0
   71.7150   45.2800   -5.6230 O   0  0  0  0  0  0  0  0  0  0  0  0
   71.2140   43.5630   -4.0890 C   0  0  0  0  0  0  0  0  0  0  0  0
   72.4960   43.6370   -3.5760 O   0  0  0  0  0  0  0  0  0  0  0  0
   71.3210   40.6490   -2.7400 C   0  0  0  0  0  0  0  0  0  0  0  0
   71.5750   39.7160   -1.7130 C   0  0  0  0  0  0  0  0  0  0  0  0
   72.5000   38.5550   -1.9970 C   0  0  0  0  0  0  0  0  0  0  0  0
   72.7520   38.3810   -3.3250 F   0  0  0  0  0  0  0  0  0  0  0  0
   73.7270   38.6790   -1.4110 F   0  0  0  0  0  0  0  0  0  0  0  0
   70.8512   36.2101    1.8990 H   0  0  0  0  0  0  0  0  0  0  0  0
   70.0726   35.7509    0.3467 H   0  0  0  0  0  0  0  0  0  0  0  0
   71.7132   36.4825    0.3467 H   0  0  0  0  0  0  0  0  0  0  0  0
   69.5142   37.9274   -0.1815 H   0  0  0  0  0  0  0  0  0  0  0  0
   69.4811   38.0299    1.6264 H   0  0  0  0  0  0  0  0  0  0  0  0
   71.1441   39.5251    1.6497 H   0  0  0  0  0  0  0  0  0  0  0  0
   72.1627   38.4703    0.5810 H   0  0  0  0  0  0  0  0  0  0  0  0
   69.6788   41.1835    0.7296 H   0  0  0  0  0  0  0  0  0  0  0  0
   69.2600   42.8071   -1.0988 H   0  0  0  0  0  0  0  0  0  0  0  0
   66.6201   42.7090   -5.2221 H   0  0  0  0  0  0  0  0  0  0  0  0
   65.8808   44.1990   -7.0842 H   0  0  0  0  0  0  0  0  0  0  0  0
   67.4738   45.8422   -8.0794 H   0  0  0  0  0  0  0  0  0  0  0  0
   70.7950   45.9530   -7.6120 H   0  0  0  0  0  0  0  0  0  0  0  0
   72.7110   44.2940   -2.9450 H   0  0  0  0  0  0  0  0  0  0  0  0
   71.7928   40.5035   -3.7230 H   0  0  0  0  0  0  0  0  0  0  0  0
   71.9486   37.6998   -1.5791 H   0  0  0  0  0  0  0  0  0  0  0  0
  1  2  1  0
  2  3  1  0
  3  4  1  0
  4  5  2  0
  5  6  1  0
  6  7  2  0
  7  8  1  0
  8  9  1  0
  9 10  1  0
 10 11  2  0
 11 12  1  0
 12 13  2  0
 13 14  1  0
 14 15  1  0
 14 16  2  0
 16 17  1  0
 17 18  2  0
 17 19  1  0
 19 20  1  0
  7 21  1  0
 21 22  2  0
 22 23  1  0
 23 24  1  0
 23 25  1  0
 22  4  1  0
 19  8  2  0
 16 10  1  0
  1 26  1  0
  1 27  1  0
  1 28  1  0
  2 29  1  0
  2 30  1  0
  3 31  1  0
  3 32  1  0
  5 33  1  0
  6 34  1  0
 11 35  1  0
 12 36  1  0
 13 37  1  0
 15 38  1  0
 20 39  1  0
 21 40  1  0
 23 41  1  0
M  END
>  <meeko>  (7) 
{"is_sidechain": [false], "free_energy": -7.575, "intermolecular_energy": -9.608, "internal_energy": -0.762}

$$$$
cand_044_out
     RDKit          3D

 41 43  0  0  0  0  0  0  0  0999 V2000
   70.8600   36.6430    0.8200 C   0  0  0  0  0  0  0  0  0  0  0  0
   70.3800   38.0540    1.1240 C   0  0  0  0  0  0  0  0  0  0  0  0
   71.4820   39.0850    0.8730 C   0  0  0  0  0  0  0  0  0  0  0  0
   71.1440   40.0020   -0.2830 C   0  0  0  0  0  0  0  0  0  0  0  0
   70.3240   41.1140   -0.0310 C   0  0  0  0  0  0  0  0  0  0  0  0
   69.9610   41.9890   -1.0560 C   0  0  0  0  0  0  0  0  0  0  0  0
   70.3950   41.7730   -2.3670 C   0  0  0  0  0  0  0  0  0  0  0  0
   70.0450   42.6980   -3.4670 C   0  0  0  0  0  0  0  0  0  0  0  0
   70.9900   43.7020   -3.6490 O   0  0  0  0  0  0  0  0  0  0  0  0
   70.7920   44.6270   -4.6420 C   0  0  0  0  0  0  0  0  0  0  0  0
   71.7600   45.6230   -4.7820 C   0  0  0  0  0  0  0  0  0  0  0  0
   71.6190   46.5950   -5.7740 C   0  0  0  0  0  0  0  0  0  0  0  0
   70.5140   46.5730   -6.6250 C   0  0  0  0  0  0  0  0  0  0  0  0
   69.5490   45.5770   -6.4830 C   0  0  0  0  0  0  0  0  0  0  0  0
   68.4920   45.6130   -7.3510 O   0  0  0  0  0  0  0  0  0  0  0  0
   69.6900   44.6050   -5.4910 C   0  0  0  0  0  0  0  0  0  0  0  0
   68.7010   43.5410   -5.3080 C   0  0  0  0  0  0  0  0  0  0  0  0
   67.7040   43.4500   -6.0210 O   0  0  0  0  0  0  0  0  0  0  0  0
   68.9410   42.5620   -4.2230 C   0  0  0  0  0  0  0  0  0  0  0  0
   68.0080   41.5520   -4.0710 O   0  0  0  0  0  0  0  0  0  0  0  0
   71.2180   40.6650   -2.6200 C   0  0  0  0  0  0  0  0  0  0  0  0
   71.5950   39.7680   -1.5990 C   0  0  0  0  0  0  0  0  0  0  0  0
   72.4960   38.6060   -1.9470 C   0  0  0  0  0  0  0  0  0  0  0  0
   72.7040   38.4690   -3.2870 F   0  0  0  0  0  0  0  0  0  0  0  0
   73.7420   38.6980   -1.3970 F   0  0  0  0  0  0  0  0  0  0  0  0
   71.0425   36.1067    1.7629 H   0  0  0  0  0  0  0  0  0  0  0  0
   70.0920   36.1117    0.2386 H   0  0  0  0  0  0  0  0  0  0  0  0
   71.7926   36.6902    0.2386 H   0  0  0  0  0  0  0  0  0  0  0  0
   69.5194   38.2859    0.4793 H   0  0  0  0  0  0  0  0  0  0  0  0
   70.0966   38.1019    2.1858 H   0  0  0  0  0  0  0  0  0  0  0  0
   71.6151   39.6915    1.7810 H   0  0  0  0  0  0  0  0  0  0  0  0
   72.4050   38.5428    0.6196 H   0  0  0  0  0  0  0  0  0  0  0  0
   69.9618   41.2984    0.9912 H   0  0  0  0  0  0  0  0  0  0  0  0
   69.3262   42.8584   -0.8296 H   0  0  0  0  0  0  0  0  0  0  0  0
   72.6322   45.6419   -4.1120 H   0  0  0  0  0  0  0  0  0  0  0  0
   72.3813   47.3803   -5.8849 H   0  0  0  0  0  0  0  0  0  0  0  0
   70.4043   47.3396   -7.4062 H   0  0  0  0  0  0  0  0  0  0  0  0
   68.5910   45.2880   -8.2250 H   0  0  0  0  0  0  0  0  0  0  0  0
   67.9840   41.0520   -3.2800 H   0  0  0  0  0  0  0  0  0  0  0  0
   71.5796   40.4910   -3.6442 H   0  0  0  0  0  0  0  0  0  0  0  0
   71.9472   37.7451   -1.5376 H   0  0  0  0  0  0  0  0  0  0  0  0
  1  2  1  0
  2  3  1  0
  3  4  1  0
  4  5  2  0
  5  6  1  0
  6  7  2  0
  7  8  1  0
  8  9  1  0
  9 10  1  0
 10 11  2  0
 11 12  1  0
 12 13  2  0
 13 14  1  0
 14 15  1  0
 14 16  2  0
 16 17  1  0
 17 18  2  0
 17 19  1  0
 19 20  1  0
  7 21  1  0
 21 22  2  0
 22 23  1  0
 23 24  1  0
 23 25  1  0
 22  4  1  0
 19  8  2  0
 16 10  1  0
  1 26  1  0
  1 27  1  0
  1 28  1  0
  2 29  1  0
  2 30  1  0
  3 31  1  0
  3 32  1  0
  5 33  1  0
  6 34  1  0
 11 35  1  0
 12 36  1  0
 13 37  1  0
 15 38  1  0
 20 39  1  0
 21 40  1  0
 23 41  1  0
M  END
>  <meeko>  (8) 
{"is_sidechain": [false], "free_energy": -7.504, "intermolecular_energy": -9.414, "internal_energy": -0.864}

$$$$
cand_044_out
     RDKit          3D

 41 43  0  0  0  0  0  0  0  0999 V2000
   65.5910   40.1600   -0.3760 C   0  0  0  0  0  0  0  0  0  0  0  0
   66.6150   39.3360   -1.1400 C   0  0  0  0  0  0  0  0  0  0  0  0
   67.8020   38.9580   -0.2520 C   0  0  0  0  0  0  0  0  0  0  0  0
   69.0810   39.6340   -0.7000 C   0  0  0  0  0  0  0  0  0  0  0  0
   68.9890   40.6610   -1.6530 C   0  0  0  0  0  0  0  0  0  0  0  0
   70.1320   41.3140   -2.1220 C   0  0  0  0  0  0  0  0  0  0  0  0
   71.4000   40.9500   -1.6620 C   0  0  0  0  0  0  0  0  0  0  0  0
   72.6250   41.6410   -2.1230 C   0  0  0  0  0  0  0  0  0  0  0  0
   72.3910   42.9590   -2.5020 O   0  0  0  0  0  0  0  0  0  0  0  0
   73.4430   43.7170   -2.9460 C   0  0  0  0  0  0  0  0  0  0  0  0
   73.1620   45.0300   -3.3240 C   0  0  0  0  0  0  0  0  0  0  0  0
   74.1880   45.8580   -3.7850 C   0  0  0  0  0  0  0  0  0  0  0  0
   75.4950   45.3730   -3.8670 C   0  0  0  0  0  0  0  0  0  0  0  0
   75.7730   44.0610   -3.4880 C   0  0  0  0  0  0  0  0  0  0  0  0
   77.0740   43.6510   -3.5920 O   0  0  0  0  0  0  0  0  0  0  0  0
   74.7460   43.2350   -3.0270 C   0  0  0  0  0  0  0  0  0  0  0  0
   74.9950   41.8520   -2.6180 C   0  0  0  0  0  0  0  0  0  0  0  0
   76.1180   41.3540   -2.6550 O   0  0  0  0  0  0  0  0  0  0  0  0
   73.8360   41.0570   -2.1490 C   0  0  0  0  0  0  0  0  0  0  0  0
   74.0870   39.7560   -1.7500 O   0  0  0  0  0  0  0  0  0  0  0  0
   71.4930   39.9270   -0.7060 C   0  0  0  0  0  0  0  0  0  0  0  0
   70.3520   39.2550   -0.2210 C   0  0  0  0  0  0  0  0  0  0  0  0
   70.5320   38.1740    0.8190 C   0  0  0  0  0  0  0  0  0  0  0  0
   71.6090   37.3730    0.5830 F   0  0  0  0  0  0  0  0  0  0  0  0
   70.7130   38.6570    2.0830 F   0  0  0  0  0  0  0  0  0  0  0  0
   65.7501   40.0320    0.7049 H   0  0  0  0  0  0  0  0  0  0  0  0
   65.7041   41.2218   -0.6400 H   0  0  0  0  0  0  0  0  0  0  0  0
   64.5779   39.8224   -0.6400 H   0  0  0  0  0  0  0  0  0  0  0  0
   66.1341   38.4165   -1.5051 H   0  0  0  0  0  0  0  0  0  0  0  0
   66.9892   39.9405   -1.9794 H   0  0  0  0  0  0  0  0  0  0  0  0
   67.5830   39.2614    0.7824 H   0  0  0  0  0  0  0  0  0  0  0  0
   67.9484   37.8702   -0.3239 H   0  0  0  0  0  0  0  0  0  0  0  0
   68.0013   40.9563   -2.0366 H   0  0  0  0  0  0  0  0  0  0  0  0
   70.0324   42.1228   -2.8608 H   0  0  0  0  0  0  0  0  0  0  0  0
   72.1329   45.4131   -3.2590 H   0  0  0  0  0  0  0  0  0  0  0  0
   73.9663   46.8932   -4.0838 H   0  0  0  0  0  0  0  0  0  0  0  0
   76.3032   46.0250   -4.2299 H   0  0  0  0  0  0  0  0  0  0  0  0
   77.4140   43.3760   -4.4220 H   0  0  0  0  0  0  0  0  0  0  0  0
   73.4390   39.0930   -1.8810 H   0  0  0  0  0  0  0  0  0  0  0  0
   72.4841   39.6411   -0.3240 H   0  0  0  0  0  0  0  0  0  0  0  0
   69.5906   37.6100    0.7436 H   0  0  0  0  0  0  0  0  0  0  0  0
  1  2  1  0
  2  3  1  0
  3  4  1  0
  4  5  2  0
  5  6  1  0
  6  7  2  0
  7  8  1  0
  8  9  1  0
  9 10  1  0
 10 11  2  0
 11 12  1  0
 12 13  2  0
 13 14  1  0
 14 15  1  0
 14 16  2  0
 16 17  1  0
 17 18  2  0
 17 19  1  0
 19 20  1  0
  7 21  1  0
 21 22  2  0
 22 23  1  0
 23 24  1  0
 23 25  1  0
 22  4  1  0
 19  8  2  0
 16 10  1  0
  1 26  1  0
  1 27  1  0
  1 28  1  0
  2 29  1  0
  2 30  1  0
  3 31  1  0
  3 32  1  0
  5 33  1  0
  6 34  1  0
 11 35  1  0
 12 36  1  0
 13 37  1  0
 15 38  1  0
 20 39  1  0
 21 40  1  0
 23 41  1  0
M  END
>  <meeko>  (9) 
{"is_sidechain": [false], "free_energy": -7.5, "intermolecular_energy": -10.04, "internal_energy": -0.233}

$$$$
