cand_024_out
     RDKit          3D

 47 49  0  0  0  0  0  0  0  0999 V2000
   77.7080   41.6870   -6.3450 C   0  0  0  0  0  0  0  0  0  0  0  0
   77.2090   42.9090   -6.9810 N   0  0  0  0  0  0  0  0  0  0  0  0
   77.8590   44.0750   -6.3740 C   0  0  0  0  0  0  0  0  0  0  0  0
   75.7430   43.0310   -6.8560 C   0  0  0  0  0  0  0  0  0  0  0  0
   75.3040   43.8010   -5.5960 C   0  0  0  0  0  0  0  0  0  0  0  0
   74.5110   42.9230   -4.6450 C   0  0  0  0  0  0  0  0  0  0  0  0
   73.3570   42.2890   -5.1350 C   0  0  0  0  0  0  0  0  0  0  0  0
   72.5770   41.4780   -4.3080 C   0  0  0  0  0  0  0  0  0  0  0  0
   72.9290   41.2700   -2.9710 C   0  0  0  0  0  0  0  0  0  0  0  0
   72.0800   40.4210   -2.1080 C   0  0  0  0  0  0  0  0  0  0  0  0
   70.7370   40.7770   -2.1510 O   0  0  0  0  0  0  0  0  0  0  0  0
   69.8390   40.0660   -1.3970 C   0  0  0  0  0  0  0  0  0  0  0  0
   68.5040   40.4670   -1.4590 C   0  0  0  0  0  0  0  0  0  0  0  0
   67.5370   39.7850   -0.7170 C   0  0  0  0  0  0  0  0  0  0  0  0
   67.9060   38.7040    0.0870 C   0  0  0  0  0  0  0  0  0  0  0  0
   69.2390   38.3070    0.1460 C   0  0  0  0  0  0  0  0  0  0  0  0
   69.5300   37.2410    0.9530 O   0  0  0  0  0  0  0  0  0  0  0  0
   70.2060   38.9900   -0.5950 C   0  0  0  0  0  0  0  0  0  0  0  0
   71.6180   38.6040   -0.5610 C   0  0  0  0  0  0  0  0  0  0  0  0
   72.0190   37.6610    0.1160 O   0  0  0  0  0  0  0  0  0  0  0  0
   72.5630   39.3980   -1.3800 C   0  0  0  0  0  0  0  0  0  0  0  0
   73.8930   39.0200   -1.3520 O   0  0  0  0  0  0  0  0  0  0  0  0
   74.0730   41.9140   -2.4770 C   0  0  0  0  0  0  0  0  0  0  0  0
   74.8750   42.7410   -3.2930 C   0  0  0  0  0  0  0  0  0  0  0  0
   76.1060   43.3840   -2.6930 C   0  0  0  0  0  0  0  0  0  0  0  0
   76.1030   44.7460   -2.7610 F   0  0  0  0  0  0  0  0  0  0  0  0
   76.2670   43.0820   -1.3740 F   0  0  0  0  0  0  0  0  0  0  0  0
   77.2600   42.9960   -3.3090 F   0  0  0  0  0  0  0  0  0  0  0  0
   77.6627   41.7980   -5.2515 H   0  0  0  0  0  0  0  0  0  0  0  0
   77.0865   40.8333   -6.6530 H   0  0  0  0  0  0  0  0  0  0  0  0
   78.7495   41.5123   -6.6530 H   0  0  0  0  0  0  0  0  0  0  0  0
   77.4310   42.8630   -7.9760 H   0  0  0  0  0  0  0  0  0  0  0  0
   77.8125   43.9916   -5.2782 H   0  0  0  0  0  0  0  0  0  0  0  0
   78.9105   44.1167   -6.6943 H   0  0  0  0  0  0  0  0  0  0  0  0
   77.3416   44.9913   -6.6943 H   0  0  0  0  0  0  0  0  0  0  0  0
   75.3594   43.5603   -7.7407 H   0  0  0  0  0  0  0  0  0  0  0  0
   75.3356   42.0124   -6.7755 H   0  0  0  0  0  0  0  0  0  0  0  0
   76.1994   44.1714   -5.0753 H   0  0  0  0  0  0  0  0  0  0  0  0
   74.6573   44.6327   -5.9122 H   0  0  0  0  0  0  0  0  0  0  0  0
   73.0636   42.4335   -6.1853 H   0  0  0  0  0  0  0  0  0  0  0  0
   71.6747   40.9970   -4.7134 H   0  0  0  0  0  0  0  0  0  0  0  0
   68.2136   41.3190   -2.0913 H   0  0  0  0  0  0  0  0  0  0  0  0
   66.4840   40.0994   -0.7658 H   0  0  0  0  0  0  0  0  0  0  0  0
   67.1448   38.1675    0.6724 H   0  0  0  0  0  0  0  0  0  0  0  0
   70.0690   37.3600    1.7100 H   0  0  0  0  0  0  0  0  0  0  0  0
   74.3160   38.7390   -2.1400 H   0  0  0  0  0  0  0  0  0  0  0  0
   74.3534   41.7705   -1.4231 H   0  0  0  0  0  0  0  0  0  0  0  0
  1  2  1  0
  2  3  1  0
  2  4  1  0
  4  5  1  0
  5  6  1  0
  6  7  2  0
  7  8  1  0
  8  9  2  0
  9 10  1  0
 10 11  1  0
 11 12  1  0
 12 13  2  0
 13 14  1  0
 14 15  2  0
 15 16  1  0
 16 17  1  0
 16 18  2  0
 18 19  1  0
 19 20  2  0
 19 21  1  0
 21 22  1  0
  9 23  1  0
 23 24  2  0
 24 25  1  0
 25 26  1  0
 25 27  1  0
 25 28  1  0
 24  6  1  0
 21 10  2  0
 18 12  1  0
  1 29  1  0
  1 30  1  0
  1 31  1  0
  2 32  1  0
  3 33  1  0
  3 34  1  0
  3 35  1  0
  4 36  1  0
  4 37  1  0
  5 38  1  0
  5 39  1  0
  7 40  1  0
  8 41  1  0
 13 42  1  0
 14 43  1  0
 15 44  1  0
 17 45  1  0
 22 46  1  0
 23 47  1  0
M  CHG  1   2   1
M  END
>  <meeko>  (1) 
{"is_sidechain": [false], "free_energy": -7.655, "intermolecular_energy": -10.34, "internal_energy": -0.691}

$$$$
cand_024_out
     RDKit          3D

 47 49  0  0  0  0  0  0  0  0999 V2000
   74.9920   44.2070   -9.2980 C   0  0  0  0  0  0  0  0  0  0  0  0
   74.4550   44.2250   -7.9350 N   0  0  0  0  0  0  0  0  0  0  0  0
   74.4660   45.6000   -7.4250 C   0  0  0  0  0  0  0  0  0  0  0  0
   75.2260   43.3490   -7.0310 C   0  0  0  0  0  0  0  0  0  0  0  0
   75.2770   43.8680   -5.5820 C   0  0  0  0  0  0  0  0  0  0  0  0
   74.4980   42.9740   -4.6340 C   0  0  0  0  0  0  0  0  0  0  0  0
   73.3470   42.3330   -5.1220 C   0  0  0  0  0  0  0  0  0  0  0  0
   72.5810   41.5070   -4.2970 C   0  0  0  0  0  0  0  0  0  0  0  0
   72.9440   41.2900   -2.9640 C   0  0  0  0  0  0  0  0  0  0  0  0
   72.1090   40.4250   -2.1040 C   0  0  0  0  0  0  0  0  0  0  0  0
   70.7640   40.7690   -2.1340 O   0  0  0  0  0  0  0  0  0  0  0  0
   69.8770   40.0430   -1.3800 C   0  0  0  0  0  0  0  0  0  0  0  0
   68.5380   40.4310   -1.4280 C   0  0  0  0  0  0  0  0  0  0  0  0
   67.5830   39.7330   -0.6850 C   0  0  0  0  0  0  0  0  0  0  0  0
   67.9670   38.6490    0.1050 C   0  0  0  0  0  0  0  0  0  0  0  0
   69.3040   38.2630    0.1510 C   0  0  0  0  0  0  0  0  0  0  0  0
   69.6110   37.1910    0.9440 O   0  0  0  0  0  0  0  0  0  0  0  0
   70.2600   38.9620   -0.5920 C   0  0  0  0  0  0  0  0  0  0  0  0
   71.6750   38.5890   -0.5710 C   0  0  0  0  0  0  0  0  0  0  0  0
   72.0900   37.6420    0.0930 O   0  0  0  0  0  0  0  0  0  0  0  0
   72.6070   39.3990   -1.3890 C   0  0  0  0  0  0  0  0  0  0  0  0
   73.9410   39.0330   -1.3750 O   0  0  0  0  0  0  0  0  0  0  0  0
   74.0850   41.9410   -2.4720 C   0  0  0  0  0  0  0  0  0  0  0  0
   74.8730   42.7830   -3.2860 C   0  0  0  0  0  0  0  0  0  0  0  0
   76.1030   43.4320   -2.6890 C   0  0  0  0  0  0  0  0  0  0  0  0
   77.2620   43.1080   -3.3310 F   0  0  0  0  0  0  0  0  0  0  0  0
   76.0400   44.7930   -2.7080 F   0  0  0  0  0  0  0  0  0  0  0  0
   76.3050   43.0850   -1.3860 F   0  0  0  0  0  0  0  0  0  0  0  0
   76.0907   44.1702   -9.2588 H   0  0  0  0  0  0  0  0  0  0  0  0
   74.6142   43.3210   -9.8293 H   0  0  0  0  0  0  0  0  0  0  0  0
   74.6743   45.1163   -9.8293 H   0  0  0  0  0  0  0  0  0  0  0  0
   73.4980   43.8710   -7.9650 H   0  0  0  0  0  0  0  0  0  0  0  0
   74.4659   45.5831   -6.3251 H   0  0  0  0  0  0  0  0  0  0  0  0
   75.3683   46.1169   -7.7837 H   0  0  0  0  0  0  0  0  0  0  0  0
   73.5721   46.1313   -7.7837 H   0  0  0  0  0  0  0  0  0  0  0  0
   74.7609   42.3521   -7.0293 H   0  0  0  0  0  0  0  0  0  0  0  0
   76.2600   43.3215   -7.4053 H   0  0  0  0  0  0  0  0  0  0  0  0
   76.3263   43.9055   -5.2542 H   0  0  0  0  0  0  0  0  0  0  0  0
   74.8197   44.8682   -5.5613 H   0  0  0  0  0  0  0  0  0  0  0  0
   73.0450   42.4840   -6.1689 H   0  0  0  0  0  0  0  0  0  0  0  0
   71.6806   41.0208   -4.7007 H   0  0  0  0  0  0  0  0  0  0  0  0
   68.2344   41.2857   -2.0503 H   0  0  0  0  0  0  0  0  0  0  0  0
   66.5269   40.0384   -0.7228 H   0  0  0  0  0  0  0  0  0  0  0  0
   67.2147   38.1002    0.6906 H   0  0  0  0  0  0  0  0  0  0  0  0
   70.1320   36.4910    0.6040 H   0  0  0  0  0  0  0  0  0  0  0  0
   74.2760   38.5130   -0.6700 H   0  0  0  0  0  0  0  0  0  0  0  0
   74.3741   41.7910   -1.4213 H   0  0  0  0  0  0  0  0  0  0  0  0
  1  2  1  0
  2  3  1  0
  2  4  1  0
  4  5  1  0
  5  6  1  0
  6  7  2  0
  7  8  1  0
  8  9  2  0
  9 10  1  0
 10 11  1  0
 11 12  1  0
 12 13  2  0
 13 14  1  0
 14 15  2  0
 15 16  1  0
 16 17  1  0
 16 18  2  0
 18 19  1  0
 19 20  2  0
 19 21  1  0
 21 22  1  0
  9 23  1  0
 23 24  2  0
 24 25  1  0
 25 26  1  0
 25 27  1  0
 25 28  1  0
 24  6  1  0
 21 10  2  0
 18 12  1  0
  1 29  1  0
  1 30  1  0
  1 31  1  0
  2 32  1  0
  3 33  1  0
  3 34  1  0
  3 35  1  0
  4 36  1  0
  4 37  1  0
  5 38  1  0
  5 39  1  0
  7 40  1  0
  8 41  1  0
 13 42  1  0
 14 43  1  0
 15 44  1  0
 17 45  1  0
 22 46  1  0
 23 47  1  0
M  CHG  1   2   1
M  END
>  <meeko>  (2) 
{"is_sidechain": [false], "free_energy": -7.647, "intermolecular_energy": -10.478, "internal_energy": -0.543}

$$$$
cand_024_out
     RDKit          3D

 47 49  0  0  0  0  0  0  0  0999 V2000
   70.6460   38.1550    2.2820 C   0  0  0  0  0  0  0  0  0  0  0  0
   70.1460   37.4060    1.1260 N   0  0  0  0  0  0  0  0  0  0  0  0
   71.1030   36.3500    0.7790 C   0  0  0  0  0  0  0  0  0  0  0  0
   69.9220   38.2830   -0.0390 C   0  0  0  0  0  0  0  0  0  0  0  0
   70.3000   39.7520    0.2260 C   0  0  0  0  0  0  0  0  0  0  0  0
   71.2670   40.2840   -0.8170 C   0  0  0  0  0  0  0  0  0  0  0  0
   72.3930   39.5050   -1.1350 C   0  0  0  0  0  0  0  0  0  0  0  0
   73.3260   39.9430   -2.0770 C   0  0  0  0  0  0  0  0  0  0  0  0
   73.1600   41.1670   -2.7330 C   0  0  0  0  0  0  0  0  0  0  0  0
   74.1690   41.6190   -3.7150 C   0  0  0  0  0  0  0  0  0  0  0  0
   73.6090   42.0310   -4.9170 O   0  0  0  0  0  0  0  0  0  0  0  0
   74.4360   42.4780   -5.9160 C   0  0  0  0  0  0  0  0  0  0  0  0
   73.8330   42.8670   -7.1120 C   0  0  0  0  0  0  0  0  0  0  0  0
   74.6180   43.3340   -8.1690 C   0  0  0  0  0  0  0  0  0  0  0  0
   76.0050   43.4090   -8.0290 C   0  0  0  0  0  0  0  0  0  0  0  0
   76.6050   43.0210   -6.8350 C   0  0  0  0  0  0  0  0  0  0  0  0
   77.9670   43.1210   -6.7660 O   0  0  0  0  0  0  0  0  0  0  0  0
   75.8190   42.5530   -5.7780 C   0  0  0  0  0  0  0  0  0  0  0  0
   76.4100   42.1340   -4.5050 C   0  0  0  0  0  0  0  0  0  0  0  0
   77.6210   42.1780   -4.3040 O   0  0  0  0  0  0  0  0  0  0  0  0
   75.4890   41.6480   -3.4520 C   0  0  0  0  0  0  0  0  0  0  0  0
   76.0530   41.2660   -2.2480 O   0  0  0  0  0  0  0  0  0  0  0  0
   72.0450   41.9510   -2.4060 C   0  0  0  0  0  0  0  0  0  0  0  0
   71.0900   41.5300   -1.4550 C   0  0  0  0  0  0  0  0  0  0  0  0
   69.9010   42.4220   -1.1720 C   0  0  0  0  0  0  0  0  0  0  0  0
   68.7030   41.7710   -1.2180 F   0  0  0  0  0  0  0  0  0  0  0  0
   69.9580   42.9990    0.0610 F   0  0  0  0  0  0  0  0  0  0  0  0
   69.7860   43.4500   -2.0600 F   0  0  0  0  0  0  0  0  0  0  0  0
   70.3169   37.6620    3.2086 H   0  0  0  0  0  0  0  0  0  0  0  0
   71.7452   38.1840    2.2526 H   0  0  0  0  0  0  0  0  0  0  0  0
   70.2512   39.1813    2.2526 H   0  0  0  0  0  0  0  0  0  0  0  0
   69.2470   36.9930    1.3800 H   0  0  0  0  0  0  0  0  0  0  0  0
   71.5070   35.9042    1.6999 H   0  0  0  0  0  0  0  0  0  0  0  0
   70.5943   35.5738    0.1884 H   0  0  0  0  0  0  0  0  0  0  0  0
   71.9254   36.7800    0.1884 H   0  0  0  0  0  0  0  0  0  0  0  0
   70.5289   37.9117   -0.8779 H   0  0  0  0  0  0  0  0  0  0  0  0
   68.8457   38.2580   -0.2648 H   0  0  0  0  0  0  0  0  0  0  0  0
   69.3857   40.3634    0.2082 H   0  0  0  0  0  0  0  0  0  0  0  0
   70.7934   39.8057    1.2077 H   0  0  0  0  0  0  0  0  0  0  0  0
   72.5412   38.5366   -0.6347 H   0  0  0  0  0  0  0  0  0  0  0  0
   74.2018   39.3180   -2.3058 H   0  0  0  0  0  0  0  0  0  0  0  0
   72.7403   42.8061   -7.2229 H   0  0  0  0  0  0  0  0  0  0  0  0
   74.1431   43.6427   -9.1119 H   0  0  0  0  0  0  0  0  0  0  0  0
   76.6232   43.7746   -8.8621 H   0  0  0  0  0  0  0  0  0  0  0  0
   78.3990   43.0700   -5.9360 H   0  0  0  0  0  0  0  0  0  0  0  0
   75.5610   41.3450   -1.4540 H   0  0  0  0  0  0  0  0  0  0  0  0
   71.9101   42.9222   -2.9046 H   0  0  0  0  0  0  0  0  0  0  0  0
  1  2  1  0
  2  3  1  0
  2  4  1  0
  4  5  1  0
  5  6  1  0
  6  7  2  0
  7  8  1  0
  8  9  2  0
  9 10  1  0
 10 11  1  0
 11 12  1  0
 12 13  2  0
 13 14  1  0
 14 15  2  0
 15 16  1  0
 16 17  1  0
 16 18  2  0
 18 19  1  0
 19 20  2  0
 19 21  1  0
 21 22  1  0
  9 23  1  0
 23 24  2  0
 24 25  1  0
 25 26  1  0
 25 27  1  0
 25 28  1  0
 24  6  1  0
 21 10  2  0
 18 12  1  0
  1 29  1  0
  1 30  1  0
  1 31  1  0
  2 32  1  0
  3 33  1  0
  3 34  1  0
  3 35  1  0
  4 36  1  0
  4 37  1  0
  5 38  1  0
  5 39  1  0
  7 40  1  0
  8 41  1  0
 13 42  1  0
 14 43  1  0
 15 44  1  0
 17 45  1  0
 22 46  1  0
 23 47  1  0
M  CHG  1   2   1
M  END
>  <meeko>  (3) 
{"is_sidechain": [false], "free_energy": -7.581, "intermolecular_energy": -10.388, "internal_energy": -0.542}

$$$$
cand_024_out
     RDKit          3D

 47 49  0  0  0  0  0  0  0  0999 V2000
   76.8390   43.8500   -6.4410 C   0  0  0  0  0  0  0  0  0  0  0  0
   75.5310   44.2040   -5.8820 N   0  0  0  0  0  0  0  0  0  0  0  0
   74.5790   44.4280   -6.9740 C   0  0  0  0  0  0  0  0  0  0  0  0
   75.6080   45.4080   -5.0300 C   0  0  0  0  0  0  0  0  0  0  0  0
   75.4430   45.1000   -3.5310 C   0  0  0  0  0  0  0  0  0  0  0  0
   74.2330   44.2230   -3.2630 C   0  0  0  0  0  0  0  0  0  0  0  0
   72.9600   44.7450   -3.5490 C   0  0  0  0  0  0  0  0  0  0  0  0
   71.8060   43.9930   -3.3150 C   0  0  0  0  0  0  0  0  0  0  0  0
   71.8890   42.6980   -2.7950 C   0  0  0  0  0  0  0  0  0  0  0  0
   70.6550   41.9260   -2.5390 C   0  0  0  0  0  0  0  0  0  0  0  0
   70.7330   41.1440   -1.3940 O   0  0  0  0  0  0  0  0  0  0  0  0
   69.6510   40.3780   -1.0390 C   0  0  0  0  0  0  0  0  0  0  0  0
   69.7780   39.5960    0.1100 C   0  0  0  0  0  0  0  0  0  0  0  0
   68.7140   38.7940    0.5280 C   0  0  0  0  0  0  0  0  0  0  0  0
   67.5250   38.7730   -0.2040 C   0  0  0  0  0  0  0  0  0  0  0  0
   67.4010   39.5540   -1.3490 C   0  0  0  0  0  0  0  0  0  0  0  0
   66.2090   39.4860   -2.0170 O   0  0  0  0  0  0  0  0  0  0  0  0
   68.4660   40.3560   -1.7680 C   0  0  0  0  0  0  0  0  0  0  0  0
   68.3770   41.1920   -2.9660 C   0  0  0  0  0  0  0  0  0  0  0  0
   67.3620   41.2330   -3.6580 O   0  0  0  0  0  0  0  0  0  0  0  0
   69.5650   41.9990   -3.3260 C   0  0  0  0  0  0  0  0  0  0  0  0
   69.4690   42.7960   -4.4520 O   0  0  0  0  0  0  0  0  0  0  0  0
   73.1590   42.1820   -2.4960 C   0  0  0  0  0  0  0  0  0  0  0  0
   74.3380   42.9240   -2.7210 C   0  0  0  0  0  0  0  0  0  0  0  0
   75.6720   42.2900   -2.3930 C   0  0  0  0  0  0  0  0  0  0  0  0
   76.3300   42.8970   -1.3630 F   0  0  0  0  0  0  0  0  0  0  0  0
   75.5580   40.9800   -2.0350 F   0  0  0  0  0  0  0  0  0  0  0  0
   76.5440   42.3170   -3.4420 F   0  0  0  0  0  0  0  0  0  0  0  0
   77.5479   43.6581   -5.6221 H   0  0  0  0  0  0  0  0  0  0  0  0
   76.7407   42.9462   -7.0602 H   0  0  0  0  0  0  0  0  0  0  0  0
   77.2099   44.6801   -7.0602 H   0  0  0  0  0  0  0  0  0  0  0  0
   75.2160   43.4310   -5.2960 H   0  0  0  0  0  0  0  0  0  0  0  0
   73.5889   44.6610   -6.5552 H   0  0  0  0  0  0  0  0  0  0  0  0
   74.9226   45.2698   -7.5931 H   0  0  0  0  0  0  0  0  0  0  0  0
   74.5112   43.5213   -7.5931 H   0  0  0  0  0  0  0  0  0  0  0  0
   76.5881   45.8833   -5.1837 H   0  0  0  0  0  0  0  0  0  0  0  0
   74.7787   46.0691   -5.3217 H   0  0  0  0  0  0  0  0  0  0  0  0
   76.3445   44.5811   -3.1732 H   0  0  0  0  0  0  0  0  0  0  0  0
   75.2974   46.0530   -3.0012 H   0  0  0  0  0  0  0  0  0  0  0  0
   72.8708   45.7602   -3.9630 H   0  0  0  0  0  0  0  0  0  0  0  0
   70.8204   44.4251   -3.5426 H   0  0  0  0  0  0  0  0  0  0  0  0
   70.7152   39.6114    0.6857 H   0  0  0  0  0  0  0  0  0  0  0  0
   68.8125   38.1785    1.4343 H   0  0  0  0  0  0  0  0  0  0  0  0
   66.6874   38.1399    0.1241 H   0  0  0  0  0  0  0  0  0  0  0  0
   65.5430   38.8940   -1.7280 H   0  0  0  0  0  0  0  0  0  0  0  0
   68.6450   42.8900   -4.8900 H   0  0  0  0  0  0  0  0  0  0  0  0
   73.2379   41.1693   -2.0738 H   0  0  0  0  0  0  0  0  0  0  0  0
  1  2  1  0
  2  3  1  0
  2  4  1  0
  4  5  1  0
  5  6  1  0
  6  7  2  0
  7  8  1  0
  8  9  2  0
  9 10  1  0
 10 11  1  0
 11 12  1  0
 12 13  2  0
 13 14  1  0
 14 15  2  0
 15 16  1  0
 16 17  1  0
 16 18  2  0
 18 19  1  0
 19 20  2  0
 19 21  1  0
 21 22  1  0
  9 23  1  0
 23 24  2  0
 24 25  1  0
 25 26  1  0
 25 27  1  0
 25 28  1  0
 24  6  1  0
 21 10  2  0
 18 12  1  0
  1 29  1  0
  1 30  1  0
  1 31  1  0
  2 32  1  0
  3 33  1  0
  3 34  1  0
  3 35  1  0
  4 36  1  0
  4 37  1  0
  5 38  1  0
  5 39  1  0
  7 40  1  0
  8 41  1  0
 13 42  1  0
 14 43  1  0
 15 44  1  0
 17 45  1  0
 22 46  1  0
 23 47  1  0
M  CHG  1   2   1
M  END
>  <meeko>  (4) 
{"is_sidechain": [false], "free_energy": -7.539, "intermolecular_energy": -10.4, "internal_energy": -0.474}

$$$$
cand_024_out
     RDKit          3D

 47 49  0  0  0  0  0  0  0  0999 V2000
   77.8170   41.5970   -6.2190 C   0  0  0  0  0  0  0  0  0  0  0  0
   77.3860   42.7850   -6.9610 N   0  0  0  0  0  0  0  0  0  0  0  0
   78.1020   43.9610   -6.4560 C   0  0  0  0  0  0  0  0  0  0  0  0
   75.9300   43.0000   -6.8530 C   0  0  0  0  0  0  0  0  0  0  0  0
   75.5250   43.7840   -5.5910 C   0  0  0  0  0  0  0  0  0  0  0  0
   74.6460   42.9570   -4.6700 C   0  0  0  0  0  0  0  0  0  0  0  0
   73.5080   42.3400   -5.2170 C   0  0  0  0  0  0  0  0  0  0  0  0
   72.6530   41.5760   -4.4210 C   0  0  0  0  0  0  0  0  0  0  0  0
   72.9110   41.3980   -3.0580 C   0  0  0  0  0  0  0  0  0  0  0  0
   71.9830   40.5990   -2.2300 C   0  0  0  0  0  0  0  0  0  0  0  0
   72.5990   39.5150   -1.6180 O   0  0  0  0  0  0  0  0  0  0  0  0
   71.8490   38.6910   -0.8180 C   0  0  0  0  0  0  0  0  0  0  0  0
   72.5050   37.6060   -0.2350 C   0  0  0  0  0  0  0  0  0  0  0  0
   71.8010   36.7280    0.5920 C   0  0  0  0  0  0  0  0  0  0  0  0
   70.4410   36.9350    0.8340 C   0  0  0  0  0  0  0  0  0  0  0  0
   69.7890   38.0190    0.2520 C   0  0  0  0  0  0  0  0  0  0  0  0
   68.4580   38.1620    0.5320 O   0  0  0  0  0  0  0  0  0  0  0  0
   70.4940   38.8960   -0.5760 C   0  0  0  0  0  0  0  0  0  0  0  0
   69.8470   40.0470   -1.2090 C   0  0  0  0  0  0  0  0  0  0  0  0
   68.6570   40.3000   -1.0380 O   0  0  0  0  0  0  0  0  0  0  0  0
   70.6830   40.9110   -2.0740 C   0  0  0  0  0  0  0  0  0  0  0  0
   70.0670   42.0040   -2.6570 O   0  0  0  0  0  0  0  0  0  0  0  0
   74.0390   42.0240   -2.5080 C   0  0  0  0  0  0  0  0  0  0  0  0
   74.9160   42.8050   -3.2930 C   0  0  0  0  0  0  0  0  0  0  0  0
   76.1240   43.4310   -2.6310 C   0  0  0  0  0  0  0  0  0  0  0  0
   77.3080   43.0990   -3.2230 F   0  0  0  0  0  0  0  0  0  0  0  0
   76.0800   44.7920   -2.6360 F   0  0  0  0  0  0  0  0  0  0  0  0
   76.2610   43.0650   -1.3240 F   0  0  0  0  0  0  0  0  0  0  0  0
   77.7458   41.7934   -5.1390 H   0  0  0  0  0  0  0  0  0  0  0  0
   77.1701   40.7466   -6.4805 H   0  0  0  0  0  0  0  0  0  0  0  0
   78.8587   41.3593   -6.4805 H   0  0  0  0  0  0  0  0  0  0  0  0
   77.6050   42.6400   -7.9470 H   0  0  0  0  0  0  0  0  0  0  0  0
   78.0953   43.9500   -5.3561 H   0  0  0  0  0  0  0  0  0  0  0  0
   79.1410   43.9405   -6.8166 H   0  0  0  0  0  0  0  0  0  0  0  0
   77.6067   44.8746   -6.8166 H   0  0  0  0  0  0  0  0  0  0  0  0
   75.5929   43.5616   -7.7367 H   0  0  0  0  0  0  0  0  0  0  0  0
   75.4569   42.0090   -6.7883 H   0  0  0  0  0  0  0  0  0  0  0  0
   76.4349   44.0765   -5.0465 H   0  0  0  0  0  0  0  0  0  0  0  0
   74.9516   44.6678   -5.9074 H   0  0  0  0  0  0  0  0  0  0  0  0
   73.2879   42.4609   -6.2879 H   0  0  0  0  0  0  0  0  0  0  0  0
   71.7652   41.1081   -4.8714 H   0  0  0  0  0  0  0  0  0  0  0  0
   73.5757   37.4424   -0.4267 H   0  0  0  0  0  0  0  0  0  0  0  0
   72.3177   35.8732    1.0529 H   0  0  0  0  0  0  0  0  0  0  0  0
   69.8857   36.2425    1.4836 H   0  0  0  0  0  0  0  0  0  0  0  0
   68.1470   38.9490    0.9350 H   0  0  0  0  0  0  0  0  0  0  0  0
   70.0610   42.8300   -2.2130 H   0  0  0  0  0  0  0  0  0  0  0  0
   74.2468   41.9034   -1.4346 H   0  0  0  0  0  0  0  0  0  0  0  0
  1  2  1  0
  2  3  1  0
  2  4  1  0
  4  5  1  0
  5  6  1  0
  6  7  2  0
  7  8  1  0
  8  9  2  0
  9 10  1  0
 10 11  1  0
 11 12  1  0
 12 13  2  0
 13 14  1  0
 14 15  2  0
 15 16  1  0
 16 17  1  0
 16 18  2  0
 18 19  1  0
 19 20  2  0
 19 21  1  0
 21 22  1  0
  9 23  1  0
 23 24  2  0
 24 25  1  0
 25 26  1  0
 25 27  1  0
 25 28  1  0
 24  6  1  0
 21 10  2  0
 18 12  1  0
  1 29  1  0
  1 30  1  0
  1 31  1  0
  2 32  1  0
  3 33  1  0
  3 34  1  0
  3 35  1  0
  4 36  1  0
  4 37  1  0
  5 38  1  0
  5 39  1  0
  7 40  1  0
  8 41  1  0
 13 42  1  0
 14 43  1  0
 15 44  1  0
 17 45  1  0
 22 46  1  0
 23 47  1  0
M  CHG  1   2   1
M  END
>  <meeko>  (5) 
{"is_sidechain": [false], "free_energy": -7.534, "intermolecular_energy": -10.156, "internal_energy": -0.711}

$$$$
cand_024_out
     RDKit          3D

 47 49  0  0  0  0  0  0  0  0999 V2000
   76.4930   46.6390   -5.2860 C   0  0  0  0  0  0  0  0  0  0  0  0
   76.2950   45.7380   -4.1470 N   0  0  0  0  0  0  0  0  0  0  0  0
   75.9600   46.5260   -2.9560 C   0  0  0  0  0  0  0  0  0  0  0  0
   77.4920   44.9160   -3.8840 C   0  0  0  0  0  0  0  0  0  0  0  0
   77.3570   43.4690   -4.3930 C   0  0  0  0  0  0  0  0  0  0  0  0
   76.1530   42.7680   -3.7920 C   0  0  0  0  0  0  0  0  0  0  0  0
   76.1470   42.5320   -2.4060 C   0  0  0  0  0  0  0  0  0  0  0  0
   75.0750   41.8810   -1.7930 C   0  0  0  0  0  0  0  0  0  0  0  0
   73.9740   41.4530   -2.5420 C   0  0  0  0  0  0  0  0  0  0  0  0
   72.8570   40.7500   -1.8760 C   0  0  0  0  0  0  0  0  0  0  0  0
   73.2350   39.5310   -1.3260 O   0  0  0  0  0  0  0  0  0  0  0  0
   72.2920   38.7780   -0.6750 C   0  0  0  0  0  0  0  0  0  0  0  0
   72.7100   37.5540   -0.1510 C   0  0  0  0  0  0  0  0  0  0  0  0
   71.8010   36.7380    0.5250 C   0  0  0  0  0  0  0  0  0  0  0  0
   70.4740   37.1450    0.6760 C   0  0  0  0  0  0  0  0  0  0  0  0
   70.0590   38.3670    0.1530 C   0  0  0  0  0  0  0  0  0  0  0  0
   68.7460   38.7040    0.3380 O   0  0  0  0  0  0  0  0  0  0  0  0
   70.9690   39.1830   -0.5240 C   0  0  0  0  0  0  0  0  0  0  0  0
   70.5730   40.4740   -1.0890 C   0  0  0  0  0  0  0  0  0  0  0  0
   69.4270   40.9040   -0.9910 O   0  0  0  0  0  0  0  0  0  0  0  0
   71.6130   41.2590   -1.7940 C   0  0  0  0  0  0  0  0  0  0  0  0
   71.2350   42.4830   -2.3140 O   0  0  0  0  0  0  0  0  0  0  0  0
   73.9850   41.6750   -3.9270 C   0  0  0  0  0  0  0  0  0  0  0  0
   75.0600   42.3280   -4.5690 C   0  0  0  0  0  0  0  0  0  0  0  0
   74.9890   42.5510   -6.0640 C   0  0  0  0  0  0  0  0  0  0  0  0
   76.0140   41.9730   -6.7550 F   0  0  0  0  0  0  0  0  0  0  0  0
   73.8480   42.0520   -6.6160 F   0  0  0  0  0  0  0  0  0  0  0  0
   75.0240   43.8700   -6.4060 F   0  0  0  0  0  0  0  0  0  0  0  0
   76.7155   47.6515   -4.9182 H   0  0  0  0  0  0  0  0  0  0  0  0
   77.3333   46.2781   -5.8973 H   0  0  0  0  0  0  0  0  0  0  0  0
   75.5788   46.6636   -5.8973 H   0  0  0  0  0  0  0  0  0  0  0  0
   75.5280   45.1040   -4.3740 H   0  0  0  0  0  0  0  0  0  0  0  0
   76.2057   45.9480   -2.0529 H   0  0  0  0  0  0  0  0  0  0  0  0
   76.5381   47.4618   -2.9610 H   0  0  0  0  0  0  0  0  0  0  0  0
   74.8850   46.7591   -2.9610 H   0  0  0  0  0  0  0  0  0  0  0  0
   78.3537   45.3833   -4.3830 H   0  0  0  0  0  0  0  0  0  0  0  0
   77.6228   44.8682   -2.7929 H   0  0  0  0  0  0  0  0  0  0  0  0
   77.2492   43.4856   -5.4876 H   0  0  0  0  0  0  0  0  0  0  0  0
   78.2590   42.9161   -4.0918 H   0  0  0  0  0  0  0  0  0  0  0  0
   76.9994   42.8652   -1.7958 H   0  0  0  0  0  0  0  0  0  0  0  0
   75.0964   41.7025   -0.7078 H   0  0  0  0  0  0  0  0  0  0  0  0
   73.7551   37.2323   -0.2705 H   0  0  0  0  0  0  0  0  0  0  0  0
   72.1305   35.7736    0.9390 H   0  0  0  0  0  0  0  0  0  0  0  0
   69.7575   36.5013    1.2073 H   0  0  0  0  0  0  0  0  0  0  0  0
   68.3220   38.5070    1.1500 H   0  0  0  0  0  0  0  0  0  0  0  0
   71.4650   42.7090   -3.1940 H   0  0  0  0  0  0  0  0  0  0  0  0
   73.1320   41.3306   -4.5302 H   0  0  0  0  0  0  0  0  0  0  0  0
  1  2  1  0
  2  3  1  0
  2  4  1  0
  4  5  1  0
  5  6  1  0
  6  7  2  0
  7  8  1  0
  8  9  2  0
  9 10  1  0
 10 11  1  0
 11 12  1  0
 12 13  2  0
 13 14  1  0
 14 15  2  0
 15 16  1  0
 16 17  1  0
 16 18  2  0
 18 19  1  0
 19 20  2  0
 19 21  1  0
 21 22  1  0
  9 23  1  0
 23 24  2  0
 24 25  1  0
 25 26  1  0
 25 27  1  0
 25 28  1  0
 24  6  1  0
 21 10  2  0
 18 12  1  0
  1 29  1  0
  1 30  1  0
  1 31  1  0
  2 32  1  0
  3 33  1  0
  3 34  1  0
  3 35  1  0
  4 36  1  0
  4 37  1  0
  5 38  1  0
  5 39  1  0
  7 40  1  0
  8 41  1  0
 13 42  1  0
 14 43  1  0
 15 44  1  0
 17 45  1  0
 22 46  1  0
 23 47  1  0
M  CHG  1   2   1
M  END
>  <meeko>  (6) 
{"is_sidechain": [false], "free_energy": -7.451, "intermolecular_energy": -9.879, "internal_energy": -0.877}

$$$$
cand_024_out
     RDKit          3D

 47 49  0  0  0  0  0  0  0  0999 V2000
   70.8890   47.7630   -7.7840 C   0  0  0  0  0  0  0  0  0  0  0  0
   70.9290   46.5010   -7.0390 N   0  0  0  0  0  0  0  0  0  0  0  0
   69.5810   46.1740   -6.5630 C   0  0  0  0  0  0  0  0  0  0  0  0
   71.8610   46.5680   -5.8970 C   0  0  0  0  0  0  0  0  0  0  0  0
   73.0200   45.5600   -6.0010 C   0  0  0  0  0  0  0  0  0  0  0  0
   72.8610   44.4120   -5.0210 C   0  0  0  0  0  0  0  0  0  0  0  0
   71.8850   43.4380   -5.2940 C   0  0  0  0  0  0  0  0  0  0  0  0
   71.6810   42.3630   -4.4270 C   0  0  0  0  0  0  0  0  0  0  0  0
   72.4490   42.2240   -3.2650 C   0  0  0  0  0  0  0  0  0  0  0  0
   72.2040   41.0870   -2.3520 C   0  0  0  0  0  0  0  0  0  0  0  0
   70.8710   40.9710   -1.9780 O   0  0  0  0  0  0  0  0  0  0  0  0
   70.5080   39.9530   -1.1330 C   0  0  0  0  0  0  0  0  0  0  0  0
   69.1620   39.8820   -0.7700 C   0  0  0  0  0  0  0  0  0  0  0  0
   68.7240   38.8700    0.0860 C   0  0  0  0  0  0  0  0  0  0  0  0
   69.6310   37.9310    0.5810 C   0  0  0  0  0  0  0  0  0  0  0  0
   70.9730   38.0040    0.2180 C   0  0  0  0  0  0  0  0  0  0  0  0
   71.8070   37.0520    0.7380 O   0  0  0  0  0  0  0  0  0  0  0  0
   71.4110   39.0170   -0.6390 C   0  0  0  0  0  0  0  0  0  0  0  0
   72.8130   39.1310   -1.0450 C   0  0  0  0  0  0  0  0  0  0  0  0
   73.6690   38.3390   -0.6580 O   0  0  0  0  0  0  0  0  0  0  0  0
   73.1740   40.2460   -1.9510 C   0  0  0  0  0  0  0  0  0  0  0  0
   74.4980   40.3380   -2.3400 O   0  0  0  0  0  0  0  0  0  0  0  0
   73.4130   43.2030   -2.9850 C   0  0  0  0  0  0  0  0  0  0  0  0
   73.6350   44.3000   -3.8460 C   0  0  0  0  0  0  0  0  0  0  0  0
   74.7090   45.3030   -3.4860 C   0  0  0  0  0  0  0  0  0  0  0  0
   75.4900   45.6740   -4.5410 F   0  0  0  0  0  0  0  0  0  0  0  0
   74.1990   46.4610   -2.9810 F   0  0  0  0  0  0  0  0  0  0  0  0
   75.5770   44.8350   -2.5440 F   0  0  0  0  0  0  0  0  0  0  0  0
   70.8623   48.6054   -7.0771 H   0  0  0  0  0  0  0  0  0  0  0  0
   71.7850   47.8437   -8.4169 H   0  0  0  0  0  0  0  0  0  0  0  0
   69.9896   47.7868   -8.4169 H   0  0  0  0  0  0  0  0  0  0  0  0
   71.2630   45.7710   -7.6690 H   0  0  0  0  0  0  0  0  0  0  0  0
   69.5711   46.1716   -5.4630 H   0  0  0  0  0  0  0  0  0  0  0  0
   68.8687   46.9254   -6.9345 H   0  0  0  0  0  0  0  0  0  0  0  0
   69.2921   45.1797   -6.9345 H   0  0  0  0  0  0  0  0  0  0  0  0
   72.2832   47.5826   -5.8492 H   0  0  0  0  0  0  0  0  0  0  0  0
   71.2884   46.3160   -4.9922 H   0  0  0  0  0  0  0  0  0  0  0  0
   73.0476   45.1540   -7.0230 H   0  0  0  0  0  0  0  0  0  0  0  0
   73.9540   46.0882   -5.7589 H   0  0  0  0  0  0  0  0  0  0  0  0
   71.2731   43.5241   -6.2040 H   0  0  0  0  0  0  0  0  0  0  0  0
   70.9075   41.6163   -4.6598 H   0  0  0  0  0  0  0  0  0  0  0  0
   68.4473   40.6227   -1.1580 H   0  0  0  0  0  0  0  0  0  0  0  0
   67.6631   38.8123    0.3708 H   0  0  0  0  0  0  0  0  0  0  0  0
   69.2857   37.1347    1.2568 H   0  0  0  0  0  0  0  0  0  0  0  0
   72.0240   36.2930    0.2330 H   0  0  0  0  0  0  0  0  0  0  0  0
   74.7270   40.2590   -3.2460 H   0  0  0  0  0  0  0  0  0  0  0  0
   74.0138   43.1139   -2.0679 H   0  0  0  0  0  0  0  0  0  0  0  0
  1  2  1  0
  2  3  1  0
  2  4  1  0
  4  5  1  0
  5  6  1  0
  6  7  2  0
  7  8  1  0
  8  9  2  0
  9 10  1  0
 10 11  1  0
 11 12  1  0
 12 13  2  0
 13 14  1  0
 14 15  2  0
 15 16  1  0
 16 17  1  0
 16 18  2  0
 18 19  1  0
 19 20  2  0
 19 21  1  0
 21 22  1  0
  9 23  1  0
 23 24  2  0
 24 25  1  0
 25 26  1  0
 25 27  1  0
 25 28  1  0
 24  6  1  0
 21 10  2  0
 18 12  1  0
  1 29  1  0
  1 30  1  0
  1 31  1  0
  2 32  1  0
  3 33  1  0
  3 34  1  0
  3 35  1  0
  4 36  1  0
  4 37  1  0
  5 38  1  0
  5 39  1  0
  7 40  1  0
  8 41  1  0
 13 42  1  0
 14 43  1  0
 15 44  1  0
 17 45  1  0
 22 46  1  0
 23 47  1  0
M  CHG  1   2   1
M  END
>  <meeko>  (7) 
{"is_sidechain": [false], "free_energy": -7.327, "intermolecular_energy": -10.048, "internal_energy": -0.539}

$$$$
cand_024_out
     RDKit          3D

 47 49  0  0  0  0  0  0  0  0999 V2000
   66.9150   39.4330   -0.6540 C   0  0  0  0  0  0  0  0  0  0  0  0
   68.3670   39.3480   -0.8340 N   0  0  0  0  0  0  0  0  0  0  0  0
   68.9960   38.9950    0.4430 C   0  0  0  0  0  0  0  0  0  0  0  0
   68.9310   40.6150   -1.3370 C   0  0  0  0  0  0  0  0  0  0  0  0
   70.1950   41.0600   -0.5780 C   0  0  0  0  0  0  0  0  0  0  0  0
   71.3630   41.3030   -1.5160 C   0  0  0  0  0  0  0  0  0  0  0  0
   71.3730   42.4900   -2.2680 C   0  0  0  0  0  0  0  0  0  0  0  0
   72.4130   42.7680   -3.1580 C   0  0  0  0  0  0  0  0  0  0  0  0
   73.4760   41.8730   -3.3180 C   0  0  0  0  0  0  0  0  0  0  0  0
   74.5590   42.1790   -4.2770 C   0  0  0  0  0  0  0  0  0  0  0  0
   74.0960   42.7790   -5.4420 O   0  0  0  0  0  0  0  0  0  0  0  0
   75.0000   43.1180   -6.4170 C   0  0  0  0  0  0  0  0  0  0  0  0
   74.4910   43.7060   -7.5760 C   0  0  0  0  0  0  0  0  0  0  0  0
   75.3560   44.0760   -8.6070 C   0  0  0  0  0  0  0  0  0  0  0  0
   76.7300   43.8580   -8.4800 C   0  0  0  0  0  0  0  0  0  0  0  0
   77.2350   43.2720   -7.3220 C   0  0  0  0  0  0  0  0  0  0  0  0
   78.5900   43.0890   -7.2630 O   0  0  0  0  0  0  0  0  0  0  0  0
   76.3690   42.9010   -6.2910 C   0  0  0  0  0  0  0  0  0  0  0  0
   76.8590   42.2820   -5.0580 C   0  0  0  0  0  0  0  0  0  0  0  0
   78.0530   42.0650   -4.8680 O   0  0  0  0  0  0  0  0  0  0  0  0
   75.8560   41.9210   -4.0290 C   0  0  0  0  0  0  0  0  0  0  0  0
   76.3280   41.3490   -2.8620 O   0  0  0  0  0  0  0  0  0  0  0  0
   73.4600   40.6820   -2.5780 C   0  0  0  0  0  0  0  0  0  0  0  0
   72.4180   40.3790   -1.6750 C   0  0  0  0  0  0  0  0  0  0  0  0
   72.4820   39.0830   -0.8970 C   0  0  0  0  0  0  0  0  0  0  0  0
   72.3280   39.2430    0.4490 F   0  0  0  0  0  0  0  0  0  0  0  0
   71.5200   38.1950   -1.2740 F   0  0  0  0  0  0  0  0  0  0  0  0
   73.6710   38.4320   -1.0470 F   0  0  0  0  0  0  0  0  0  0  0  0
   66.6789   39.4468    0.4203 H   0  0  0  0  0  0  0  0  0  0  0  0
   66.5406   40.3546   -1.1236 H   0  0  0  0  0  0  0  0  0  0  0  0
   66.4357   38.5614   -1.1236 H   0  0  0  0  0  0  0  0  0  0  0  0
   68.5590   38.6260   -1.5290 H   0  0  0  0  0  0  0  0  0  0  0  0
   68.3658   39.3487    1.2723 H   0  0  0  0  0  0  0  0  0  0  0  0
   69.1074   37.9025    0.5072 H   0  0  0  0  0  0  0  0  0  0  0  0
   69.9865   39.4690    0.5072 H   0  0  0  0  0  0  0  0  0  0  0  0
   69.1880   40.4862   -2.3988 H   0  0  0  0  0  0  0  0  0  0  0  0
   68.1689   41.3941   -1.1879 H   0  0  0  0  0  0  0  0  0  0  0  0
   69.9747   41.9914   -0.0359 H   0  0  0  0  0  0  0  0  0  0  0  0
   70.4771   40.2543    0.1157 H   0  0  0  0  0  0  0  0  0  0  0  0
   70.5498   43.2107   -2.1541 H   0  0  0  0  0  0  0  0  0  0  0  0
   72.3959   43.7014   -3.7397 H   0  0  0  0  0  0  0  0  0  0  0  0
   73.4092   43.8776   -7.6768 H   0  0  0  0  0  0  0  0  0  0  0  0
   74.9554   44.5397   -9.5205 H   0  0  0  0  0  0  0  0  0  0  0  0
   77.4116   44.1486   -9.2930 H   0  0  0  0  0  0  0  0  0  0  0  0
   79.0700   43.3870   -6.5160 H   0  0  0  0  0  0  0  0  0  0  0  0
   76.0160   40.5060   -2.5940 H   0  0  0  0  0  0  0  0  0  0  0  0
   74.2830   39.9632   -2.7047 H   0  0  0  0  0  0  0  0  0  0  0  0
  1  2  1  0
  2  3  1  0
  2  4  1  0
  4  5  1  0
  5  6  1  0
  6  7  2  0
  7  8  1  0
  8  9  2  0
  9 10  1  0
 10 11  1  0
 11 12  1  0
 12 13  2  0
 13 14  1  0
 14 15  2  0
 15 16  1  0
 16 17  1  0
 16 18  2  0
 18 19  1  0
 19 20  2  0
 19 21  1  0
 21 22  1  0
  9 23  1  0
 23 24  2  0
 24 25  1  0
 25 26  1  0
 25 27  1  0
 25 28  1  0
 24  6  1  0
 21 10  2  0
 18 12  1  0
  1 29  1  0
  1 30  1  0
  1 31  1  0
  2 32  1  0
  3 33  1  0
  3 34  1  0
  3 35  1  0
  4 36  1  0
  4 37  1  0
  5 38  1  0
  5 39  1  0
  7 40  1  0
  8 41  1  0
 13 42  1  0
 14 43  1  0
 15 44  1  0
 17 45  1  0
 22 46  1  0
 23 47  1  0
M  CHG  1   2   1
M  END
>  <meeko>  (8) 
{"is_sidechain": [false], "free_energy": -7.311, "intermolecular_energy": -10.076, "internal_energy": -0.49}

$$$$
cand_024_out
     RDKit          3D

 47 49  0  0  0  0  0  0  0  0999 V2000
   78.4350   45.4940   -4.2920 C   0  0  0  0  0  0  0  0  0  0  0  0
   78.3520   44.2940   -5.1300 N   0  0  0  0  0  0  0  0  0  0  0  0
   77.6510   44.6180   -6.3760 C   0  0  0  0  0  0  0  0  0  0  0  0
   77.6600   43.1900   -4.4370 C   0  0  0  0  0  0  0  0  0  0  0  0
   77.0760   43.6010   -3.0730 C   0  0  0  0  0  0  0  0  0  0  0  0
   75.6430   43.1270   -2.9050 C   0  0  0  0  0  0  0  0  0  0  0  0
   75.4240   41.7700   -2.6120 C   0  0  0  0  0  0  0  0  0  0  0  0
   74.1310   41.2690   -2.4560 C   0  0  0  0  0  0  0  0  0  0  0  0
   73.0180   42.1070   -2.5810 C   0  0  0  0  0  0  0  0  0  0  0  0
   71.6560   41.5520   -2.4290 C   0  0  0  0  0  0  0  0  0  0  0  0
   71.4950   40.8270   -1.2550 O   0  0  0  0  0  0  0  0  0  0  0  0
   70.2750   40.2590   -0.9900 C   0  0  0  0  0  0  0  0  0  0  0  0
   70.1610   39.5280    0.1930 C   0  0  0  0  0  0  0  0  0  0  0  0
   68.9460   38.9240    0.5240 C   0  0  0  0  0  0  0  0  0  0  0  0
   67.8470   39.0520   -0.3270 C   0  0  0  0  0  0  0  0  0  0  0  0
   67.9630   39.7820   -1.5060 C   0  0  0  0  0  0  0  0  0  0  0  0
   66.8470   39.8670   -2.2930 O   0  0  0  0  0  0  0  0  0  0  0  0
   69.1790   40.3850   -1.8380 C   0  0  0  0  0  0  0  0  0  0  0  0
   69.3430   41.1620   -3.0680 C   0  0  0  0  0  0  0  0  0  0  0  0
   68.4220   41.3260   -3.8630 O   0  0  0  0  0  0  0  0  0  0  0  0
   70.6760   41.7540   -3.3290 C   0  0  0  0  0  0  0  0  0  0  0  0
   70.8200   42.4970   -4.4860 O   0  0  0  0  0  0  0  0  0  0  0  0
   73.2350   43.4590   -2.8870 C   0  0  0  0  0  0  0  0  0  0  0  0
   74.5340   43.9870   -3.0520 C   0  0  0  0  0  0  0  0  0  0  0  0
   74.6880   45.4610   -3.3600 C   0  0  0  0  0  0  0  0  0  0  0  0
   75.0490   45.7180   -4.6500 F   0  0  0  0  0  0  0  0  0  0  0  0
   73.5390   46.1630   -3.1540 F   0  0  0  0  0  0  0  0  0  0  0  0
   75.6390   46.0660   -2.5930 F   0  0  0  0  0  0  0  0  0  0  0  0
   78.4149   45.2027   -3.2315 H   0  0  0  0  0  0  0  0  0  0  0  0
   79.3722   46.0279   -4.5079 H   0  0  0  0  0  0  0  0  0  0  0  0
   77.5802   46.1518   -4.5079 H   0  0  0  0  0  0  0  0  0  0  0  0
   79.3020   43.9830   -5.3340 H   0  0  0  0  0  0  0  0  0  0  0  0
   76.6755   45.0689   -6.1413 H   0  0  0  0  0  0  0  0  0  0  0  0
   78.2526   45.3294   -6.9608 H   0  0  0  0  0  0  0  0  0  0  0  0
   77.4989   43.6988   -6.9608 H   0  0  0  0  0  0  0  0  0  0  0  0
   76.8381   42.8363   -5.0768 H   0  0  0  0  0  0  0  0  0  0  0  0
   78.4058   42.4035   -4.2495 H   0  0  0  0  0  0  0  0  0  0  0  0
   77.6921   43.1609   -2.2751 H   0  0  0  0  0  0  0  0  0  0  0  0
   77.0807   44.6996   -3.0170 H   0  0  0  0  0  0  0  0  0  0  0  0
   76.2843   41.0931   -2.5041 H   0  0  0  0  0  0  0  0  0  0  0  0
   73.9852   40.2020   -2.2320 H   0  0  0  0  0  0  0  0  0  0  0  0
   71.0268   39.4276    0.8640 H   0  0  0  0  0  0  0  0  0  0  0  0
   68.8551   38.3470    1.4561 H   0  0  0  0  0  0  0  0  0  0  0  0
   66.8902   38.5763   -0.0659 H   0  0  0  0  0  0  0  0  0  0  0  0
   66.3560   39.0950   -2.4950 H   0  0  0  0  0  0  0  0  0  0  0  0
   70.1400   43.0860   -4.7530 H   0  0  0  0  0  0  0  0  0  0  0  0
   72.3683   44.1266   -3.0016 H   0  0  0  0  0  0  0  0  0  0  0  0
  1  2  1  0
  2  3  1  0
  2  4  1  0
  4  5  1  0
  5  6  1  0
  6  7  2  0
  7  8  1  0
  8  9  2  0
  9 10  1  0
 10 11  1  0
 11 12  1  0
 12 13  2  0
 13 14  1  0
 14 15  2  0
 15 16  1  0
 16 17  1  0
 16 18  2  0
 18 19  1  0
 19 20  2  0
 19 21  1  0
 21 22  1  0
  9 23  1  0
 23 24  2  0
 24 25  1  0
 25 26  1  0
 25 27  1  0
 25 28  1  0
 24  6  1  0
 21 10  2  0
 18 12  1  0
  1 29  1  0
  1 30  1  0
  1 31  1  0
  2 32  1  0
  3 33  1  0
  3 34  1  0
  3 35  1  0
  4 36  1  0
  4 37  1  0
  5 38  1  0
  5 39  1  0
  7 40  1  0
  8 41  1  0
 13 42  1  0
 14 43  1  0
 15 44  1  0
 17 45  1  0
 22 46  1  0
 23 47  1  0
M  CHG  1   2   1
M  END
>  <meeko>  (9) 
{"is_sidechain": [false], "free_energy": -7.289, "intermolecular_energy": -9.929, "internal_energy": -0.608}

$$$$
