cand_050_out
     RDKit          3D

 38 40  0  0  0  0  0  0  0  0999 V2000
   66.8900   39.3740   -0.9210 C   0  0  0  0  0  0  0  0  0  0  0  0
   68.1560   38.9680   -0.1820 C   0  0  0  0  0  0  0  0  0  0  0  0
   69.3840   39.6550   -0.7400 C   0  0  0  0  0  0  0  0  0  0  0  0
   69.1980   40.6840   -1.6790 C   0  0  0  0  0  0  0  0  0  0  0  0
   70.2890   41.3520   -2.2400 C   0  0  0  0  0  0  0  0  0  0  0  0
   71.5970   41.0160   -1.8770 C   0  0  0  0  0  0  0  0  0  0  0  0
   72.7380   41.7230   -2.4960 C   0  0  0  0  0  0  0  0  0  0  0  0
   72.5480   43.0990   -2.5680 O   0  0  0  0  0  0  0  0  0  0  0  0
   73.5330   43.8750   -3.1230 C   0  0  0  0  0  0  0  0  0  0  0  0
   73.2950   45.2490   -3.1890 C   0  0  0  0  0  0  0  0  0  0  0  0
   74.2590   46.0970   -3.7400 C   0  0  0  0  0  0  0  0  0  0  0  0
   75.4590   45.5720   -4.2220 C   0  0  0  0  0  0  0  0  0  0  0  0
   75.6940   44.2010   -4.1550 C   0  0  0  0  0  0  0  0  0  0  0  0
   76.8900   43.7550   -4.6470 O   0  0  0  0  0  0  0  0  0  0  0  0
   74.7290   43.3520   -3.6050 C   0  0  0  0  0  0  0  0  0  0  0  0
   74.9370   41.9070   -3.5150 C   0  0  0  0  0  0  0  0  0  0  0  0
   75.9690   41.3700   -3.9120 O   0  0  0  0  0  0  0  0  0  0  0  0
   73.8490   41.0950   -2.9220 C   0  0  0  0  0  0  0  0  0  0  0  0
   74.0570   39.7320   -2.8280 O   0  0  0  0  0  0  0  0  0  0  0  0
   71.7840   39.9790   -0.9520 C   0  0  0  0  0  0  0  0  0  0  0  0
   70.6970   39.2880   -0.3750 C   0  0  0  0  0  0  0  0  0  0  0  0
   70.9790   38.1920    0.6300 C   0  0  0  0  0  0  0  0  0  0  0  0
   70.3360   37.0200    0.3570 F   0  0  0  0  0  0  0  0  0  0  0  0
   70.6010   38.5220    1.8970 F   0  0  0  0  0  0  0  0  0  0  0  0
   72.3020   37.8760    0.7030 F   0  0  0  0  0  0  0  0  0  0  0  0
   66.1050   39.6257   -0.1927 H   0  0  0  0  0  0  0  0  0  0  0  0
   67.0990   40.2502   -1.5524 H   0  0  0  0  0  0  0  0  0  0  0  0
   66.5504   38.5397   -1.5524 H   0  0  0  0  0  0  0  0  0  0  0  0
   68.0497   39.2377    0.8791 H   0  0  0  0  0  0  0  0  0  0  0  0
   68.2882   37.8830   -0.3058 H   0  0  0  0  0  0  0  0  0  0  0  0
   68.1778   40.9677   -1.9767 H   0  0  0  0  0  0  0  0  0  0  0  0
   70.1173   42.1515   -2.9757 H   0  0  0  0  0  0  0  0  0  0  0  0
   72.3500   45.6633   -2.8078 H   0  0  0  0  0  0  0  0  0  0  0  0
   74.0720   47.1796   -3.7940 H   0  0  0  0  0  0  0  0  0  0  0  0
   76.2182   46.2404   -4.6543 H   0  0  0  0  0  0  0  0  0  0  0  0
   77.4050   43.1510   -4.1500 H   0  0  0  0  0  0  0  0  0  0  0  0
   74.8670   39.3610   -3.1210 H   0  0  0  0  0  0  0  0  0  0  0  0
   72.8081   39.6956   -0.6676 H   0  0  0  0  0  0  0  0  0  0  0  0
  1  2  1  0
  2  3  1  0
  3  4  2  0
  4  5  1  0
  5  6  2  0
  6  7  1  0
  7  8  1  0
  8  9  1  0
  9 10  2  0
 10 11  1  0
 11 12  2  0
 12 13  1  0
 13 14  1  0
 13 15  2  0
 15 16  1  0
 16 17  2  0
 16 18  1  0
 18 19  1  0
  6 20  1  0
 20 21  2  0
 21 22  1  0
 22 23  1  0
 22 24  1  0
 22 25  1  0
 21  3  1  0
 18  7  2  0
 15  9  1  0
  1 26  1  0
  1 27  1  0
  1 28  1  0
  2 29  1  0
  2 30  1  0
  4 31  1  0
  5 32  1  0
 10 33  1  0
 11 34  1  0
 12 35  1  0
 14 36  1  0
 19 37  1  0
 20 38  1  0
M  END
>  <meeko>  (1) 
{"is_sidechain": [false], "free_energy": -8.193, "intermolecular_energy": -10.109, "internal_energy": -0.254}

$$$$
cand_050_out
     RDKit          3D

 38 40  0  0  0  0  0  0  0  0999 V2000
   76.2550   43.0030   -6.4640 C   0  0  0  0  0  0  0  0  0  0  0  0
   75.4180   43.8180   -5.4880 C   0  0  0  0  0  0  0  0  0  0  0  0
   74.6150   42.9370   -4.5560 C   0  0  0  0  0  0  0  0  0  0  0  0
   73.4780   42.2900   -5.0690 C   0  0  0  0  0  0  0  0  0  0  0  0
   72.6890   41.4700   -4.2590 C   0  0  0  0  0  0  0  0  0  0  0  0
   73.0140   41.2680   -2.9150 C   0  0  0  0  0  0  0  0  0  0  0  0
   72.1550   40.4110   -2.0700 C   0  0  0  0  0  0  0  0  0  0  0  0
   70.8140   40.7760   -2.1150 O   0  0  0  0  0  0  0  0  0  0  0  0
   69.9080   40.0600   -1.3750 C   0  0  0  0  0  0  0  0  0  0  0  0
   68.5760   40.4700   -1.4370 C   0  0  0  0  0  0  0  0  0  0  0  0
   67.6010   39.7830   -0.7090 C   0  0  0  0  0  0  0  0  0  0  0  0
   67.9590   38.6880    0.0790 C   0  0  0  0  0  0  0  0  0  0  0  0
   69.2890   38.2810    0.1400 C   0  0  0  0  0  0  0  0  0  0  0  0
   69.5700   37.2010    0.9320 O   0  0  0  0  0  0  0  0  0  0  0  0
   70.2650   38.9690   -0.5880 C   0  0  0  0  0  0  0  0  0  0  0  0
   71.6730   38.5750   -0.5520 C   0  0  0  0  0  0  0  0  0  0  0  0
   72.0660   37.6180    0.1120 O   0  0  0  0  0  0  0  0  0  0  0  0
   72.6280   39.3750   -1.3530 C   0  0  0  0  0  0  0  0  0  0  0  0
   73.9550   38.9880   -1.3250 O   0  0  0  0  0  0  0  0  0  0  0  0
   74.1390   41.9250   -2.3960 C   0  0  0  0  0  0  0  0  0  0  0  0
   74.9500   42.7600   -3.1960 C   0  0  0  0  0  0  0  0  0  0  0  0
   76.1590   43.4200   -2.5690 C   0  0  0  0  0  0  0  0  0  0  0  0
   76.1250   44.7840   -2.6170 F   0  0  0  0  0  0  0  0  0  0  0  0
   77.3290   43.0690   -3.1730 F   0  0  0  0  0  0  0  0  0  0  0  0
   76.3060   43.1040   -1.2530 F   0  0  0  0  0  0  0  0  0  0  0  0
   76.9330   42.3428   -5.9032 H   0  0  0  0  0  0  0  0  0  0  0  0
   75.5918   42.3951   -7.0970 H   0  0  0  0  0  0  0  0  0  0  0  0
   76.8450   43.6821   -7.0970 H   0  0  0  0  0  0  0  0  0  0  0  0
   76.0883   44.4513   -4.8883 H   0  0  0  0  0  0  0  0  0  0  0  0
   74.7121   44.4267   -6.0721 H   0  0  0  0  0  0  0  0  0  0  0  0
   73.2050   42.4315   -6.1251 H   0  0  0  0  0  0  0  0  0  0  0  0
   71.8018   40.9777   -4.6839 H   0  0  0  0  0  0  0  0  0  0  0  0
   68.2936   41.3329   -2.0581 H   0  0  0  0  0  0  0  0  0  0  0  0
   66.5504   40.1054   -0.7570 H   0  0  0  0  0  0  0  0  0  0  0  0
   67.1910   38.1471    0.6513 H   0  0  0  0  0  0  0  0  0  0  0  0
   69.4970   36.3350    0.5850 H   0  0  0  0  0  0  0  0  0  0  0  0
   74.2650   38.4280   -0.6410 H   0  0  0  0  0  0  0  0  0  0  0  0
   74.3972   41.7861   -1.3358 H   0  0  0  0  0  0  0  0  0  0  0  0
  1  2  1  0
  2  3  1  0
  3  4  2  0
  4  5  1  0
  5  6  2  0
  6  7  1  0
  7  8  1  0
  8  9  1  0
  9 10  2  0
 10 11  1  0
 11 12  2  0
 12 13  1  0
 13 14  1  0
 13 15  2  0
 15 16  1  0
 16 17  2  0
 16 18  1  0
 18 19  1  0
  6 20  1  0
 20 21  2  0
 21 22  1  0
 22 23  1  0
 22 24  1  0
 22 25  1  0
 21  3  1  0
 18  7  2  0
 15  9  1  0
  1 26  1  0
  1 27  1  0
  1 28  1  0
  2 29  1  0
  2 30  1  0
  4 31  1  0
  5 32  1  0
 10 33  1  0
 11 34  1  0
 12 35  1  0
 14 36  1  0
 19 37  1  0
 20 38  1  0
M  END
>  <meeko>  (2) 
{"is_sidechain": [false], "free_energy": -8.136, "intermolecular_energy": -9.764, "internal_energy": -0.529}

$$$$
cand_050_out
     RDKit          3D

 38 40  0  0  0  0  0  0  0  0999 V2000
   70.8120   36.1920    0.6720 C   0  0  0  0  0  0  0  0  0  0  0  0
   70.7950   37.5420    1.3740 C   0  0  0  0  0  0  0  0  0  0  0  0
   70.2600   38.6390    0.4800 C   0  0  0  0  0  0  0  0  0  0  0  0
   68.8670   38.7430    0.3190 C   0  0  0  0  0  0  0  0  0  0  0  0
   68.3090   39.7270   -0.5000 C   0  0  0  0  0  0  0  0  0  0  0  0
   69.1230   40.6400   -1.1780 C   0  0  0  0  0  0  0  0  0  0  0  0
   68.5130   41.6620   -2.0530 C   0  0  0  0  0  0  0  0  0  0  0  0
   67.6130   42.4830   -1.3820 O   0  0  0  0  0  0  0  0  0  0  0  0
   66.9740   43.4760   -2.0810 C   0  0  0  0  0  0  0  0  0  0  0  0
   66.0690   44.2660   -1.3720 C   0  0  0  0  0  0  0  0  0  0  0  0
   65.3860   45.2970   -2.0220 C   0  0  0  0  0  0  0  0  0  0  0  0
   65.6100   45.5370   -3.3790 C   0  0  0  0  0  0  0  0  0  0  0  0
   66.5140   44.7470   -4.0840 C   0  0  0  0  0  0  0  0  0  0  0  0
   66.6850   45.0360   -5.4110 O   0  0  0  0  0  0  0  0  0  0  0  0
   67.1960   43.7150   -3.4330 C   0  0  0  0  0  0  0  0  0  0  0  0
   68.1550   42.8620   -4.1370 C   0  0  0  0  0  0  0  0  0  0  0  0
   68.4110   43.0140   -5.3290 O   0  0  0  0  0  0  0  0  0  0  0  0
   68.8190   41.7920   -3.3580 C   0  0  0  0  0  0  0  0  0  0  0  0
   69.7320   40.9980   -4.0260 O   0  0  0  0  0  0  0  0  0  0  0  0
   70.5130   40.5280   -1.0310 C   0  0  0  0  0  0  0  0  0  0  0  0
   71.1000   39.5390   -0.2110 C   0  0  0  0  0  0  0  0  0  0  0  0
   72.6070   39.4930   -0.0880 C   0  0  0  0  0  0  0  0  0  0  0  0
   73.1410   38.2630   -0.3440 F   0  0  0  0  0  0  0  0  0  0  0  0
   73.0490   39.8240    1.1580 F   0  0  0  0  0  0  0  0  0  0  0  0
   73.2300   40.3480   -0.9470 F   0  0  0  0  0  0  0  0  0  0  0  0
   70.8221   35.3883    1.4230 H   0  0  0  0  0  0  0  0  0  0  0  0
   69.9150   36.0946    0.0428 H   0  0  0  0  0  0  0  0  0  0  0  0
   71.7112   36.1172    0.0428 H   0  0  0  0  0  0  0  0  0  0  0  0
   70.1576   37.4696    2.2676 H   0  0  0  0  0  0  0  0  0  0  0  0
   71.8303   37.7979    1.6434 H   0  0  0  0  0  0  0  0  0  0  0  0
   68.2067   38.0386    0.8461 H   0  0  0  0  0  0  0  0  0  0  0  0
   67.2163   39.7846   -0.6131 H   0  0  0  0  0  0  0  0  0  0  0  0
   65.8933   44.0775   -0.3026 H   0  0  0  0  0  0  0  0  0  0  0  0
   64.6713   45.9200   -1.4643 H   0  0  0  0  0  0  0  0  0  0  0  0
   65.0729   46.3493   -3.8905 H   0  0  0  0  0  0  0  0  0  0  0  0
   67.2750   44.5270   -5.9290 H   0  0  0  0  0  0  0  0  0  0  0  0
   70.3100   41.3790   -4.6580 H   0  0  0  0  0  0  0  0  0  0  0  0
   71.1653   41.2308   -1.5700 H   0  0  0  0  0  0  0  0  0  0  0  0
  1  2  1  0
  2  3  1  0
  3  4  2  0
  4  5  1  0
  5  6  2  0
  6  7  1  0
  7  8  1  0
  8  9  1  0
  9 10  2  0
 10 11  1  0
 11 12  2  0
 12 13  1  0
 13 14  1  0
 13 15  2  0
 15 16  1  0
 16 17  2  0
 16 18  1  0
 18 19  1  0
  6 20  1  0
 20 21  2  0
 21 22  1  0
 22 23  1  0
 22 24  1  0
 22 25  1  0
 21  3  1  0
 18  7  2  0
 15  9  1  0
  1 26  1  0
  1 27  1  0
  1 28  1  0
  2 29  1  0
  2 30  1  0
  4 31  1  0
  5 32  1  0
 10 33  1  0
 11 34  1  0
 12 35  1  0
 14 36  1  0
 19 37  1  0
 20 38  1  0
M  END
>  <meeko>  (3) 
{"is_sidechain": [false], "free_energy": -8.054, "intermolecular_energy": -9.696, "internal_energy": -0.496}

$$$$
cand_050_out
     RDKit          3D

 38 40  0  0  0  0  0  0  0  0999 V2000
   76.2420   42.8800   -6.5530 C   0  0  0  0  0  0  0  0  0  0  0  0
   75.4700   43.7540   -5.5750 C   0  0  0  0  0  0  0  0  0  0  0  0
   74.6040   42.9350   -4.6430 C   0  0  0  0  0  0  0  0  0  0  0  0
   73.4670   42.3040   -5.1770 C   0  0  0  0  0  0  0  0  0  0  0  0
   72.6210   41.5410   -4.3690 C   0  0  0  0  0  0  0  0  0  0  0  0
   72.8870   41.3810   -3.0060 C   0  0  0  0  0  0  0  0  0  0  0  0
   71.9690   40.5840   -2.1650 C   0  0  0  0  0  0  0  0  0  0  0  0
   72.6030   39.5270   -1.5210 O   0  0  0  0  0  0  0  0  0  0  0  0
   71.8640   38.7070   -0.7090 C   0  0  0  0  0  0  0  0  0  0  0  0
   72.5370   37.6500   -0.0950 C   0  0  0  0  0  0  0  0  0  0  0  0
   71.8430   36.7780    0.7480 C   0  0  0  0  0  0  0  0  0  0  0  0
   70.4780   36.9640    0.9760 C   0  0  0  0  0  0  0  0  0  0  0  0
   69.8090   38.0190    0.3630 C   0  0  0  0  0  0  0  0  0  0  0  0
   68.4730   38.1430    0.6300 O   0  0  0  0  0  0  0  0  0  0  0  0
   70.5030   38.8920   -0.4810 C   0  0  0  0  0  0  0  0  0  0  0  0
   69.8380   40.0130   -1.1450 C   0  0  0  0  0  0  0  0  0  0  0  0
   68.6410   40.2470   -0.9890 O   0  0  0  0  0  0  0  0  0  0  0  0
   70.6620   40.8730   -2.0250 C   0  0  0  0  0  0  0  0  0  0  0  0
   70.0290   41.9380   -2.6390 O   0  0  0  0  0  0  0  0  0  0  0  0
   74.0120   42.0230   -2.4680 C   0  0  0  0  0  0  0  0  0  0  0  0
   74.8790   42.8010   -3.2650 C   0  0  0  0  0  0  0  0  0  0  0  0
   76.0840   43.4480   -2.6160 C   0  0  0  0  0  0  0  0  0  0  0  0
   77.2710   43.0950   -3.1890 F   0  0  0  0  0  0  0  0  0  0  0  0
   76.2120   43.1290   -1.2970 F   0  0  0  0  0  0  0  0  0  0  0  0
   76.0410   44.8090   -2.6700 F   0  0  0  0  0  0  0  0  0  0  0  0
   76.8692   42.1700   -5.9940 H   0  0  0  0  0  0  0  0  0  0  0  0
   75.5342   42.3246   -7.1859 H   0  0  0  0  0  0  0  0  0  0  0  0
   76.8805   43.5138   -7.1859 H   0  0  0  0  0  0  0  0  0  0  0  0
   76.1868   44.3342   -4.9753 H   0  0  0  0  0  0  0  0  0  0  0  0
   74.8111   44.4147   -6.1575 H   0  0  0  0  0  0  0  0  0  0  0  0
   73.2401   42.4128   -6.2478 H   0  0  0  0  0  0  0  0  0  0  0  0
   71.7353   41.0605   -4.8102 H   0  0  0  0  0  0  0  0  0  0  0  0
   73.6123   37.5034   -0.2743 H   0  0  0  0  0  0  0  0  0  0  0  0
   72.3725   35.9443    1.2324 H   0  0  0  0  0  0  0  0  0  0  0  0
   69.9321   36.2772    1.6395 H   0  0  0  0  0  0  0  0  0  0  0  0
   67.8410   37.8040    0.0280 H   0  0  0  0  0  0  0  0  0  0  0  0
   69.2410   41.7970   -3.1250 H   0  0  0  0  0  0  0  0  0  0  0  0
   74.2247   41.9171   -1.3940 H   0  0  0  0  0  0  0  0  0  0  0  0
  1  2  1  0
  2  3  1  0
  3  4  2  0
  4  5  1  0
  5  6  2  0
  6  7  1  0
  7  8  1  0
  8  9  1  0
  9 10  2  0
 10 11  1  0
 11 12  2  0
 12 13  1  0
 13 14  1  0
 13 15  2  0
 15 16  1  0
 16 17  2  0
 16 18  1  0
 18 19  1  0
  6 20  1  0
 20 21  2  0
 21 22  1  0
 22 23  1  0
 22 24  1  0
 22 25  1  0
 21  3  1  0
 18  7  2  0
 15  9  1  0
  1 26  1  0
  1 27  1  0
  1 28  1  0
  2 29  1  0
  2 30  1  0
  4 31  1  0
  5 32  1  0
 10 33  1  0
 11 34  1  0
 12 35  1  0
 14 36  1  0
 19 37  1  0
 20 38  1  0
M  END
>  <meeko>  (4) 
{"is_sidechain": [false], "free_energy": -8.042, "intermolecular_energy": -9.644, "internal_energy": -0.532}

$$$$
cand_050_out
     RDKit          3D

 38 40  0  0  0  0  0  0  0  0999 V2000
   70.6020   37.8180    2.2260 C   0  0  0  0  0  0  0  0  0  0  0  0
   70.1700   37.3760    0.8350 C   0  0  0  0  0  0  0  0  0  0  0  0
   70.1480   38.5300   -0.1440 C   0  0  0  0  0  0  0  0  0  0  0  0
   68.9520   39.2530   -0.2900 C   0  0  0  0  0  0  0  0  0  0  0  0
   68.8620   40.3230   -1.1840 C   0  0  0  0  0  0  0  0  0  0  0  0
   69.9640   40.7040   -1.9550 C   0  0  0  0  0  0  0  0  0  0  0  0
   69.8420   41.8270   -2.9080 C   0  0  0  0  0  0  0  0  0  0  0  0
   70.9550   42.6620   -2.9080 O   0  0  0  0  0  0  0  0  0  0  0  0
   70.9700   43.7450   -3.7480 C   0  0  0  0  0  0  0  0  0  0  0  0
   72.0990   44.5640   -3.7050 C   0  0  0  0  0  0  0  0  0  0  0  0
   72.1810   45.6830   -4.5370 C   0  0  0  0  0  0  0  0  0  0  0  0
   71.1350   45.9820   -5.4110 C   0  0  0  0  0  0  0  0  0  0  0  0
   70.0090   45.1630   -5.4530 C   0  0  0  0  0  0  0  0  0  0  0  0
   69.0220   45.5150   -6.3330 O   0  0  0  0  0  0  0  0  0  0  0  0
   69.9270   44.0440   -4.6200 C   0  0  0  0  0  0  0  0  0  0  0  0
   68.7630   43.1580   -4.6320 C   0  0  0  0  0  0  0  0  0  0  0  0
   67.8050   43.3500   -5.3780 O   0  0  0  0  0  0  0  0  0  0  0  0
   68.7720   42.0040   -3.7050 C   0  0  0  0  0  0  0  0  0  0  0  0
   67.6740   41.1640   -3.7310 O   0  0  0  0  0  0  0  0  0  0  0  0
   71.1540   39.9730   -1.8230 C   0  0  0  0  0  0  0  0  0  0  0  0
   71.2670   38.8880   -0.9280 C   0  0  0  0  0  0  0  0  0  0  0  0
   72.5890   38.1590   -0.8280 C   0  0  0  0  0  0  0  0  0  0  0  0
   72.4730   36.8010   -0.8910 F   0  0  0  0  0  0  0  0  0  0  0  0
   73.2470   38.4100    0.3400 F   0  0  0  0  0  0  0  0  0  0  0  0
   73.4520   38.4990   -1.8260 F   0  0  0  0  0  0  0  0  0  0  0  0
   70.0436   37.2467    2.9822 H   0  0  0  0  0  0  0  0  0  0  0  0
   71.6796   37.6356    2.3505 H   0  0  0  0  0  0  0  0  0  0  0  0
   70.3950   38.8911    2.3505 H   0  0  0  0  0  0  0  0  0  0  0  0
   70.8738   36.6136    0.4698 H   0  0  0  0  0  0  0  0  0  0  0  0
   69.1494   36.9721    0.9079 H   0  0  0  0  0  0  0  0  0  0  0  0
   68.0730   38.9723    0.3088 H   0  0  0  0  0  0  0  0  0  0  0  0
   67.9136   40.8716   -1.2822 H   0  0  0  0  0  0  0  0  0  0  0  0
   72.9238   44.3285   -3.0164 H   0  0  0  0  0  0  0  0  0  0  0  0
   73.0707   46.3290   -4.5032 H   0  0  0  0  0  0  0  0  0  0  0  0
   71.1996   46.8634   -6.0660 H   0  0  0  0  0  0  0  0  0  0  0  0
   69.0230   45.1670   -7.2020 H   0  0  0  0  0  0  0  0  0  0  0  0
   67.7910   40.2440   -3.8650 H   0  0  0  0  0  0  0  0  0  0  0  0
   72.0240   40.2537   -2.4348 H   0  0  0  0  0  0  0  0  0  0  0  0
  1  2  1  0
  2  3  1  0
  3  4  2  0
  4  5  1  0
  5  6  2  0
  6  7  1  0
  7  8  1  0
  8  9  1  0
  9 10  2  0
 10 11  1  0
 11 12  2  0
 12 13  1  0
 13 14  1  0
 13 15  2  0
 15 16  1  0
 16 17  2  0
 16 18  1  0
 18 19  1  0
  6 20  1  0
 20 21  2  0
 21 22  1  0
 22 23  1  0
 22 24  1  0
 22 25  1  0
 21  3  1  0
 18  7  2  0
 15  9  1  0
  1 26  1  0
  1 27  1  0
  1 28  1  0
  2 29  1  0
  2 30  1  0
  4 31  1  0
  5 32  1  0
 10 33  1  0
 11 34  1  0
 12 35  1  0
 14 36  1  0
 19 37  1  0
 20 38  1  0
M  END
>  <meeko>  (5) 
{"is_sidechain": [false], "free_energy": -7.966, "intermolecular_energy": -9.78, "internal_energy": -0.302}

$$$$
cand_050_out
     RDKit          3D

 38 40  0  0  0  0  0  0  0  0999 V2000
   77.5150   44.9960   -4.1630 C   0  0  0  0  0  0  0  0  0  0  0  0
   77.5990   43.4840   -4.3160 C   0  0  0  0  0  0  0  0  0  0  0  0
   76.3870   42.7870   -3.7380 C   0  0  0  0  0  0  0  0  0  0  0  0
   76.3490   42.5650   -2.3500 C   0  0  0  0  0  0  0  0  0  0  0  0
   75.2640   41.9180   -1.7540 C   0  0  0  0  0  0  0  0  0  0  0  0
   74.1830   41.4780   -2.5240 C   0  0  0  0  0  0  0  0  0  0  0  0
   73.0530   40.7800   -1.8760 C   0  0  0  0  0  0  0  0  0  0  0  0
   73.4100   39.5450   -1.3470 O   0  0  0  0  0  0  0  0  0  0  0  0
   72.4530   38.7920   -0.7170 C   0  0  0  0  0  0  0  0  0  0  0  0
   72.8510   37.5530   -0.2150 C   0  0  0  0  0  0  0  0  0  0  0  0
   71.9260   36.7370    0.4410 C   0  0  0  0  0  0  0  0  0  0  0  0
   70.6050   37.1610    0.5940 C   0  0  0  0  0  0  0  0  0  0  0  0
   70.2090   38.3970    0.0910 C   0  0  0  0  0  0  0  0  0  0  0  0
   68.9000   38.7500    0.2760 O   0  0  0  0  0  0  0  0  0  0  0  0
   71.1350   39.2140   -0.5650 C   0  0  0  0  0  0  0  0  0  0  0  0
   70.7610   40.5200   -1.1080 C   0  0  0  0  0  0  0  0  0  0  0  0
   69.6210   40.9660   -1.0070 O   0  0  0  0  0  0  0  0  0  0  0  0
   71.8160   41.3030   -1.7920 C   0  0  0  0  0  0  0  0  0  0  0  0
   71.4580   42.5430   -2.2910 O   0  0  0  0  0  0  0  0  0  0  0  0
   74.2270   41.6840   -3.9110 C   0  0  0  0  0  0  0  0  0  0  0  0
   75.3140   42.3330   -4.5350 C   0  0  0  0  0  0  0  0  0  0  0  0
   75.2800   42.5350   -6.0340 C   0  0  0  0  0  0  0  0  0  0  0  0
   76.3280   41.9540   -6.6890 F   0  0  0  0  0  0  0  0  0  0  0  0
   75.3150   43.8490   -6.3940 F   0  0  0  0  0  0  0  0  0  0  0  0
   74.1580   42.0180   -6.6080 F   0  0  0  0  0  0  0  0  0  0  0  0
   77.5005   45.2562   -3.0943 H   0  0  0  0  0  0  0  0  0  0  0  0
   78.3886   45.4621   -4.6421 H   0  0  0  0  0  0  0  0  0  0  0  0
   76.5951   45.3625   -4.6421 H   0  0  0  0  0  0  0  0  0  0  0  0
   77.6728   43.2390   -5.3858 H   0  0  0  0  0  0  0  0  0  0  0  0
   78.4855   43.1358   -3.7656 H   0  0  0  0  0  0  0  0  0  0  0  0
   77.1866   42.9061   -1.7239 H   0  0  0  0  0  0  0  0  0  0  0  0
   75.2599   41.7527   -0.6665 H   0  0  0  0  0  0  0  0  0  0  0  0
   73.8920   37.2187   -0.3355 H   0  0  0  0  0  0  0  0  0  0  0  0
   72.2390   35.7597    0.8372 H   0  0  0  0  0  0  0  0  0  0  0  0
   69.8773   36.5188    1.1118 H   0  0  0  0  0  0  0  0  0  0  0  0
   68.6120   39.6130    0.0560 H   0  0  0  0  0  0  0  0  0  0  0  0
   71.6120   43.3140   -1.7820 H   0  0  0  0  0  0  0  0  0  0  0  0
   73.3899   41.3294   -4.5303 H   0  0  0  0  0  0  0  0  0  0  0  0
  1  2  1  0
  2  3  1  0
  3  4  2  0
  4  5  1  0
  5  6  2  0
  6  7  1  0
  7  8  1  0
  8  9  1  0
  9 10  2  0
 10 11  1  0
 11 12  2  0
 12 13  1  0
 13 14  1  0
 13 15  2  0
 15 16  1  0
 16 17  2  0
 16 18  1  0
 18 19  1  0
  6 20  1  0
 20 21  2  0
 21 22  1  0
 22 23  1  0
 22 24  1  0
 22 25  1  0
 21  3  1  0
 18  7  2  0
 15  9  1  0
  1 26  1  0
  1 27  1  0
  1 28  1  0
  2 29  1  0
  2 30  1  0
  4 31  1  0
  5 32  1  0
 10 33  1  0
 11 34  1  0
 12 35  1  0
 14 36  1  0
 19 37  1  0
 20 38  1  0
M  END
>  <meeko>  (6) 
{"is_sidechain": [false], "free_energy": -7.964, "intermolecular_energy": -9.423, "internal_energy": -0.658}

$$$$
cand_050_out
     RDKit          3D

 38 40  0  0  0  0  0  0  0  0999 V2000
   67.1080   38.9590   -0.1040 C   0  0  0  0  0  0  0  0  0  0  0  0
   68.4760   38.6030    0.4590 C   0  0  0  0  0  0  0  0  0  0  0  0
   69.5980   39.2350   -0.3350 C   0  0  0  0  0  0  0  0  0  0  0  0
   69.2960   40.3470   -1.1400 C   0  0  0  0  0  0  0  0  0  0  0  0
   70.2840   40.9710   -1.9050 C   0  0  0  0  0  0  0  0  0  0  0  0
   71.6030   40.5080   -1.8850 C   0  0  0  0  0  0  0  0  0  0  0  0
   72.6290   41.1720   -2.7160 C   0  0  0  0  0  0  0  0  0  0  0  0
   73.7710   41.5100   -1.9990 O   0  0  0  0  0  0  0  0  0  0  0  0
   74.8030   42.1340   -2.6530 C   0  0  0  0  0  0  0  0  0  0  0  0
   75.9240   42.4690   -1.8920 C   0  0  0  0  0  0  0  0  0  0  0  0
   77.0110   43.1040   -2.4960 C   0  0  0  0  0  0  0  0  0  0  0  0
   76.9780   43.4020   -3.8600 C   0  0  0  0  0  0  0  0  0  0  0  0
   75.8590   43.0670   -4.6170 C   0  0  0  0  0  0  0  0  0  0  0  0
   75.8930   43.3880   -5.9460 O   0  0  0  0  0  0  0  0  0  0  0  0
   74.7700   42.4320   -4.0120 C   0  0  0  0  0  0  0  0  0  0  0  0
   73.5750   42.0630   -4.7710 C   0  0  0  0  0  0  0  0  0  0  0  0
   73.4720   42.2850   -5.9750 O   0  0  0  0  0  0  0  0  0  0  0  0
   72.4740   41.4010   -4.0340 C   0  0  0  0  0  0  0  0  0  0  0  0
   71.3530   41.0430   -4.7600 O   0  0  0  0  0  0  0  0  0  0  0  0
   71.9030   39.3880   -1.0950 C   0  0  0  0  0  0  0  0  0  0  0  0
   70.9200   38.7400   -0.3160 C   0  0  0  0  0  0  0  0  0  0  0  0
   71.3240   37.5490    0.5260 C   0  0  0  0  0  0  0  0  0  0  0  0
   70.6760   36.3960    0.1900 F   0  0  0  0  0  0  0  0  0  0  0  0
   71.0770   37.7280    1.8540 F   0  0  0  0  0  0  0  0  0  0  0  0
   72.6530   37.2640    0.4260 F   0  0  0  0  0  0  0  0  0  0  0  0
   66.4070   39.1414    0.7238 H   0  0  0  0  0  0  0  0  0  0  0  0
   67.1902   39.8657   -0.7214 H   0  0  0  0  0  0  0  0  0  0  0  0
   66.7378   38.1273   -0.7214 H   0  0  0  0  0  0  0  0  0  0  0  0
   68.5346   38.9558    1.4992 H   0  0  0  0  0  0  0  0  0  0  0  0
   68.5930   37.5107    0.4019 H   0  0  0  0  0  0  0  0  0  0  0  0
   68.2658   40.7316   -1.1679 H   0  0  0  0  0  0  0  0  0  0  0  0
   70.0213   41.8368   -2.5305 H   0  0  0  0  0  0  0  0  0  0  0  0
   75.9511   42.2331   -0.8179 H   0  0  0  0  0  0  0  0  0  0  0  0
   77.8943   43.3698   -1.8968 H   0  0  0  0  0  0  0  0  0  0  0  0
   77.8353   43.9009   -4.3355 H   0  0  0  0  0  0  0  0  0  0  0  0
   75.1520   43.2110   -6.4900 H   0  0  0  0  0  0  0  0  0  0  0  0
   71.2820   40.1780   -5.1150 H   0  0  0  0  0  0  0  0  0  0  0  0
   72.9336   39.0038   -1.0822 H   0  0  0  0  0  0  0  0  0  0  0  0
  1  2  1  0
  2  3  1  0
  3  4  2  0
  4  5  1  0
  5  6  2  0
  6  7  1  0
  7  8  1  0
  8  9  1  0
  9 10  2  0
 10 11  1  0
 11 12  2  0
 12 13  1  0
 13 14  1  0
 13 15  2  0
 15 16  1  0
 16 17  2  0
 16 18  1  0
 18 19  1  0
  6 20  1  0
 20 21  2  0
 21 22  1  0
 22 23  1  0
 22 24  1  0
 22 25  1  0
 21  3  1  0
 18  7  2  0
 15  9  1  0
  1 26  1  0
  1 27  1  0
  1 28  1  0
  2 29  1  0
  2 30  1  0
  4 31  1  0
  5 32  1  0
 10 33  1  0
 11 34  1  0
 12 35  1  0
 14 36  1  0
 19 37  1  0
 20 38  1  0
M  END
>  <meeko>  (7) 
{"is_sidechain": [false], "free_energy": -7.96, "intermolecular_energy": -9.69, "internal_energy": -0.386}

$$$$
cand_050_out
     RDKit          3D

 38 40  0  0  0  0  0  0  0  0999 V2000
   75.5540   46.6820   -2.9540 C   0  0  0  0  0  0  0  0  0  0  0  0
   75.6360   45.3580   -3.6990 C   0  0  0  0  0  0  0  0  0  0  0  0
   74.4500   44.4660   -3.4030 C   0  0  0  0  0  0  0  0  0  0  0  0
   73.1610   44.9780   -3.6360 C   0  0  0  0  0  0  0  0  0  0  0  0
   72.0240   44.2100   -3.3750 C   0  0  0  0  0  0  0  0  0  0  0  0
   72.1390   42.9090   -2.8770 C   0  0  0  0  0  0  0  0  0  0  0  0
   70.9220   42.1200   -2.5900 C   0  0  0  0  0  0  0  0  0  0  0  0
   71.0470   41.3250   -1.4560 O   0  0  0  0  0  0  0  0  0  0  0  0
   69.9870   40.5400   -1.0780 C   0  0  0  0  0  0  0  0  0  0  0  0
   70.1600   39.7470    0.0570 C   0  0  0  0  0  0  0  0  0  0  0  0
   69.1200   38.9260    0.4980 C   0  0  0  0  0  0  0  0  0  0  0  0
   67.9080   38.9000   -0.1940 C   0  0  0  0  0  0  0  0  0  0  0  0
   67.7370   39.6930   -1.3260 C   0  0  0  0  0  0  0  0  0  0  0  0
   66.5250   39.6180   -1.9560 O   0  0  0  0  0  0  0  0  0  0  0  0
   68.7790   40.5130   -1.7690 C   0  0  0  0  0  0  0  0  0  0  0  0
   68.6420   41.3610   -2.9530 C   0  0  0  0  0  0  0  0  0  0  0  0
   67.6040   41.3990   -3.6120 O   0  0  0  0  0  0  0  0  0  0  0  0
   69.8070   42.1870   -3.3420 C   0  0  0  0  0  0  0  0  0  0  0  0
   69.6660   42.9960   -4.4540 O   0  0  0  0  0  0  0  0  0  0  0  0
   73.4230   42.4020   -2.6290 C   0  0  0  0  0  0  0  0  0  0  0  0
   74.5860   43.1610   -2.8830 C   0  0  0  0  0  0  0  0  0  0  0  0
   75.9380   42.5390   -2.6060 C   0  0  0  0  0  0  0  0  0  0  0  0
   76.6870   43.2360   -1.7020 F   0  0  0  0  0  0  0  0  0  0  0  0
   76.7170   42.4430   -3.7210 F   0  0  0  0  0  0  0  0  0  0  0  0
   75.8410   41.2760   -2.1050 F   0  0  0  0  0  0  0  0  0  0  0  0
   75.5656   46.4942   -1.8702 H   0  0  0  0  0  0  0  0  0  0  0  0
   76.4150   47.3100   -3.2266 H   0  0  0  0  0  0  0  0  0  0  0  0
   74.6221   47.1990   -3.2266 H   0  0  0  0  0  0  0  0  0  0  0  0
   75.6672   45.5601   -4.7798 H   0  0  0  0  0  0  0  0  0  0  0  0
   76.5450   44.8362   -3.3651 H   0  0  0  0  0  0  0  0  0  0  0  0
   73.0466   45.9987   -4.0297 H   0  0  0  0  0  0  0  0  0  0  0  0
   71.0266   44.6338   -3.5635 H   0  0  0  0  0  0  0  0  0  0  0  0
   71.1143   39.7685    0.6036 H   0  0  0  0  0  0  0  0  0  0  0  0
   69.2560   38.2991    1.3916 H   0  0  0  0  0  0  0  0  0  0  0  0
   67.0888   38.2538    0.1544 H   0  0  0  0  0  0  0  0  0  0  0  0
   66.1020   38.7890   -2.0600 H   0  0  0  0  0  0  0  0  0  0  0  0
   69.7780   43.9230   -4.3770 H   0  0  0  0  0  0  0  0  0  0  0  0
   73.5268   41.3841   -2.2251 H   0  0  0  0  0  0  0  0  0  0  0  0
  1  2  1  0
  2  3  1  0
  3  4  2  0
  4  5  1  0
  5  6  2  0
  6  7  1  0
  7  8  1  0
  8  9  1  0
  9 10  2  0
 10 11  1  0
 11 12  2  0
 12 13  1  0
 13 14  1  0
 13 15  2  0
 15 16  1  0
 16 17  2  0
 16 18  1  0
 18 19  1  0
  6 20  1  0
 20 21  2  0
 21 22  1  0
 22 23  1  0
 22 24  1  0
 22 25  1  0
 21  3  1  0
 18  7  2  0
 15  9  1  0
  1 26  1  0
  1 27  1  0
  1 28  1  0
  2 29  1  0
  2 30  1  0
  4 31  1  0
  5 32  1  0
 10 33  1  0
 11 34  1  0
 12 35  1  0
 14 36  1  0
 19 37  1  0
 20 38  1  0
M  END
>  <meeko>  (8) 
{"is_sidechain": [false], "free_energy": -7.914, "intermolecular_energy": -9.781, "internal_energy": -0.238}

$$$$
cand_050_out
     RDKit          3D

 38 40  0  0  0  0  0  0  0  0999 V2000
   70.0390   37.9040    0.7450 C   0  0  0  0  0  0  0  0  0  0  0  0
   71.1680   38.9190    0.6410 C   0  0  0  0  0  0  0  0  0  0  0  0
   70.9670   39.8750   -0.5140 C   0  0  0  0  0  0  0  0  0  0  0  0
   70.0340   40.9150   -0.3610 C   0  0  0  0  0  0  0  0  0  0  0  0
   69.7940   41.8250   -1.3920 C   0  0  0  0  0  0  0  0  0  0  0  0
   70.4820   41.7280   -2.6050 C   0  0  0  0  0  0  0  0  0  0  0  0
   70.2010   42.6910   -3.6910 C   0  0  0  0  0  0  0  0  0  0  0  0
   68.8720   42.6740   -4.1000 O   0  0  0  0  0  0  0  0  0  0  0  0
   68.4760   43.5210   -5.1030 C   0  0  0  0  0  0  0  0  0  0  0  0
   67.1380   43.4590   -5.4930 C   0  0  0  0  0  0  0  0  0  0  0  0
   66.6680   44.2970   -6.5070 C   0  0  0  0  0  0  0  0  0  0  0  0
   67.5370   45.1960   -7.1300 C   0  0  0  0  0  0  0  0  0  0  0  0
   68.8720   45.2550   -6.7400 C   0  0  0  0  0  0  0  0  0  0  0  0
   69.6670   46.1580   -7.3920 O   0  0  0  0  0  0  0  0  0  0  0  0
   69.3420   44.4160   -5.7250 C   0  0  0  0  0  0  0  0  0  0  0  0
   70.7370   44.4470   -5.2850 C   0  0  0  0  0  0  0  0  0  0  0  0
   71.5600   45.2140   -5.7790 O   0  0  0  0  0  0  0  0  0  0  0  0
   71.1340   43.5110   -4.2080 C   0  0  0  0  0  0  0  0  0  0  0  0
   72.4510   43.5550   -3.7880 O   0  0  0  0  0  0  0  0  0  0  0  0
   71.4030   40.6820   -2.7670 C   0  0  0  0  0  0  0  0  0  0  0  0
   71.6590   39.7490   -1.7390 C   0  0  0  0  0  0  0  0  0  0  0  0
   72.6800   38.6590   -1.9810 C   0  0  0  0  0  0  0  0  0  0  0  0
   72.2560   37.4180   -1.6020 F   0  0  0  0  0  0  0  0  0  0  0  0
   73.8460   38.8630   -1.3050 F   0  0  0  0  0  0  0  0  0  0  0  0
   73.0220   38.5440   -3.2940 F   0  0  0  0  0  0  0  0  0  0  0  0
   69.8197   37.7068    1.8047 H   0  0  0  0  0  0  0  0  0  0  0  0
   69.1401   38.3036    0.2527 H   0  0  0  0  0  0  0  0  0  0  0  0
   70.3411   36.9678    0.2527 H   0  0  0  0  0  0  0  0  0  0  0  0
   71.2134   39.4965    1.5761 H   0  0  0  0  0  0  0  0  0  0  0  0
   72.1043   38.3685    0.4670 H   0  0  0  0  0  0  0  0  0  0  0  0
   69.4840   41.0134    0.5865 H   0  0  0  0  0  0  0  0  0  0  0  0
   69.0553   42.6273   -1.2483 H   0  0  0  0  0  0  0  0  0  0  0  0
   66.4538   42.7510   -5.0025 H   0  0  0  0  0  0  0  0  0  0  0  0
   65.6131   44.2490   -6.8151 H   0  0  0  0  0  0  0  0  0  0  0  0
   67.1668   45.8565   -7.9279 H   0  0  0  0  0  0  0  0  0  0  0  0
   70.3310   45.8570   -7.9800 H   0  0  0  0  0  0  0  0  0  0  0  0
   72.7590   44.2840   -3.2860 H   0  0  0  0  0  0  0  0  0  0  0  0
   71.9407   40.5863   -3.7219 H   0  0  0  0  0  0  0  0  0  0  0  0
  1  2  1  0
  2  3  1  0
  3  4  2  0
  4  5  1  0
  5  6  2  0
  6  7  1  0
  7  8  1  0
  8  9  1  0
  9 10  2  0
 10 11  1  0
 11 12  2  0
 12 13  1  0
 13 14  1  0
 13 15  2  0
 15 16  1  0
 16 17  2  0
 16 18  1  0
 18 19  1  0
  6 20  1  0
 20 21  2  0
 21 22  1  0
 22 23  1  0
 22 24  1  0
 22 25  1  0
 21  3  1  0
 18  7  2  0
 15  9  1  0
  1 26  1  0
  1 27  1  0
  1 28  1  0
  2 29  1  0
  2 30  1  0
  4 31  1  0
  5 32  1  0
 10 33  1  0
 11 34  1  0
 12 35  1  0
 14 36  1  0
 19 37  1  0
 20 38  1  0
M  END
>  <meeko>  (9) 
{"is_sidechain": [false], "free_energy": -7.868, "intermolecular_energy": -9.446, "internal_energy": -0.515}

$$$$
