cand_039_out
     RDKit          3D

 41 43  0  0  0  0  0  0  0  0999 V2000
   66.6060   39.3320   -1.1660 C   0  0  0  0  0  0  0  0  0  0  0  0
   67.7570   38.9580   -0.2440 C   0  0  0  0  0  0  0  0  0  0  0  0
   69.0570   39.5990   -0.6740 C   0  0  0  0  0  0  0  0  0  0  0  0
   69.0380   40.4380   -1.8010 C   0  0  0  0  0  0  0  0  0  0  0  0
   70.2000   41.0700   -2.2500 C   0  0  0  0  0  0  0  0  0  0  0  0
   71.4170   40.8780   -1.5910 C   0  0  0  0  0  0  0  0  0  0  0  0
   72.6320   41.5720   -2.0680 C   0  0  0  0  0  0  0  0  0  0  0  0
   72.3860   42.8830   -2.4610 O   0  0  0  0  0  0  0  0  0  0  0  0
   73.4290   43.6430   -2.9270 C   0  0  0  0  0  0  0  0  0  0  0  0
   73.1400   44.9570   -3.2950 C   0  0  0  0  0  0  0  0  0  0  0  0
   74.1560   45.7840   -3.7790 C   0  0  0  0  0  0  0  0  0  0  0  0
   75.4600   45.2970   -3.8950 C   0  0  0  0  0  0  0  0  0  0  0  0
   75.7450   43.9850   -3.5270 C   0  0  0  0  0  0  0  0  0  0  0  0
   77.0420   43.5720   -3.6660 O   0  0  0  0  0  0  0  0  0  0  0  0
   74.7280   43.1570   -3.0410 C   0  0  0  0  0  0  0  0  0  0  0  0
   74.9850   41.7730   -2.6440 C   0  0  0  0  0  0  0  0  0  0  0  0
   76.1040   41.2700   -2.7240 O   0  0  0  0  0  0  0  0  0  0  0  0
   73.8400   40.9830   -2.1350 C   0  0  0  0  0  0  0  0  0  0  0  0
   74.0920   39.6720   -1.7750 O   0  0  0  0  0  0  0  0  0  0  0  0
   71.4340   40.0560   -0.4560 C   0  0  0  0  0  0  0  0  0  0  0  0
   70.2700   39.4150    0.0180 C   0  0  0  0  0  0  0  0  0  0  0  0
   70.3980   38.5280    1.2360 C   0  0  0  0  0  0  0  0  0  0  0  0
   70.7550   37.0960    0.8610 C   0  0  0  0  0  0  0  0  0  0  0  0
   65.7309   39.6164   -0.5632 H   0  0  0  0  0  0  0  0  0  0  0  0
   66.9050   40.1792   -1.8007 H   0  0  0  0  0  0  0  0  0  0  0  0
   66.3499   38.4708   -1.8007 H   0  0  0  0  0  0  0  0  0  0  0  0
   67.5173   39.2908    0.7767 H   0  0  0  0  0  0  0  0  0  0  0  0
   67.8857   37.8664   -0.2860 H   0  0  0  0  0  0  0  0  0  0  0  0
   68.0922   40.5998   -2.3387 H   0  0  0  0  0  0  0  0  0  0  0  0
   70.1564   41.7259   -3.1319 H   0  0  0  0  0  0  0  0  0  0  0  0
   72.1133   45.3413   -3.2041 H   0  0  0  0  0  0  0  0  0  0  0  0
   73.9290   46.8204   -4.0693 H   0  0  0  0  0  0  0  0  0  0  0  0
   76.2599   45.9487   -4.2763 H   0  0  0  0  0  0  0  0  0  0  0  0
   77.6380   43.6530   -2.9480 H   0  0  0  0  0  0  0  0  0  0  0  0
   73.5610   38.9810   -2.1190 H   0  0  0  0  0  0  0  0  0  0  0  0
   72.3824   39.9063    0.0808 H   0  0  0  0  0  0  0  0  0  0  0  0
   71.1862   38.9317    1.8886 H   0  0  0  0  0  0  0  0  0  0  0  0
   69.4259   38.5133    1.7505 H   0  0  0  0  0  0  0  0  0  0  0  0
   70.9027   36.5034    1.7759 H   0  0  0  0  0  0  0  0  0  0  0  0
   69.9386   36.6578    0.2681 H   0  0  0  0  0  0  0  0  0  0  0  0
   71.6815   37.0923    0.2681 H   0  0  0  0  0  0  0  0  0  0  0  0
  1  2  1  0
  2  3  1  0
  3  4  2  0
  4  5  1  0
  5  6  2  0
  6  7  1  0
  7  8  1  0
  8  9  1  0
  9 10  2  0
 10 11  1  0
 11 12  2  0
 12 13  1  0
 13 14  1  0
 13 15  2  0
 15 16  1  0
 16 17  2  0
 16 18  1  0
 18 19  1  0
  6 20  1  0
 20 21  2  0
 21 22  1  0
 22 23  1  0
 21  3  1  0
 18  7  2  0
 15  9  1  0
  1 24  1  0
  1 25  1  0
  1 26  1  0
  2 27  1  0
  2 28  1  0
  4 29  1  0
  5 30  1  0
 10 31  1  0
 11 32  1  0
 12 33  1  0
 14 34  1  0
 19 35  1  0
 20 36  1  0
 22 37  1  0
 22 38  1  0
 23 39  1  0
 23 40  1  0
 23 41  1  0
M  END
>  <meeko>  (1) 
{"is_sidechain": [false], "free_energy": -7.816, "intermolecular_energy": -9.644, "internal_energy": -0.294}

$$$$
cand_039_out
     RDKit          3D

 41 43  0  0  0  0  0  0  0  0999 V2000
   75.8710   42.7670   -6.7650 C   0  0  0  0  0  0  0  0  0  0  0  0
   75.0520   43.6710   -5.8550 C   0  0  0  0  0  0  0  0  0  0  0  0
   74.2370   42.8800   -4.8580 C   0  0  0  0  0  0  0  0  0  0  0  0
   73.1320   42.1550   -5.3350 C   0  0  0  0  0  0  0  0  0  0  0  0
   72.3400   41.3950   -4.4710 C   0  0  0  0  0  0  0  0  0  0  0  0
   72.6240   41.3400   -3.1040 C   0  0  0  0  0  0  0  0  0  0  0  0
   71.7860   40.5140   -2.2090 C   0  0  0  0  0  0  0  0  0  0  0  0
   72.4900   39.4650   -1.6280 O   0  0  0  0  0  0  0  0  0  0  0  0
   71.8320   38.6180   -0.7730 C   0  0  0  0  0  0  0  0  0  0  0  0
   72.5810   37.5890   -0.2000 C   0  0  0  0  0  0  0  0  0  0  0  0
   71.9710   36.6900    0.6780 C   0  0  0  0  0  0  0  0  0  0  0  0
   70.6140   36.8190    0.9820 C   0  0  0  0  0  0  0  0  0  0  0  0
   69.8700   37.8470    0.4090 C   0  0  0  0  0  0  0  0  0  0  0  0
   68.5470   37.9160    0.7500 O   0  0  0  0  0  0  0  0  0  0  0  0
   70.4800   38.7480   -0.4690 C   0  0  0  0  0  0  0  0  0  0  0  0
   69.7350   39.8410   -1.0930 C   0  0  0  0  0  0  0  0  0  0  0  0
   68.5370   40.0160   -0.8800 O   0  0  0  0  0  0  0  0  0  0  0  0
   70.4770   40.7450   -2.0020 C   0  0  0  0  0  0  0  0  0  0  0  0
   69.7590   41.7660   -2.5960 O   0  0  0  0  0  0  0  0  0  0  0  0
   73.7370   42.0490   -2.6300 C   0  0  0  0  0  0  0  0  0  0  0  0
   74.5530   42.8160   -3.4860 C   0  0  0  0  0  0  0  0  0  0  0  0
   75.7150   43.5640   -2.8730 C   0  0  0  0  0  0  0  0  0  0  0  0
   76.3440   42.7910   -1.7230 C   0  0  0  0  0  0  0  0  0  0  0  0
   76.4847   42.0896   -6.1530 H   0  0  0  0  0  0  0  0  0  0  0  0
   75.1945   42.1760   -7.3999 H   0  0  0  0  0  0  0  0  0  0  0  0
   76.5258   43.3820   -7.3999 H   0  0  0  0  0  0  0  0  0  0  0  0
   75.7352   44.3367   -5.3071 H   0  0  0  0  0  0  0  0  0  0  0  0
   74.3561   44.2461   -6.4835 H   0  0  0  0  0  0  0  0  0  0  0  0
   72.8865   42.1864   -6.4068 H   0  0  0  0  0  0  0  0  0  0  0  0
   71.4830   40.8335   -4.8714 H   0  0  0  0  0  0  0  0  0  0  0  0
   73.6497   37.4862   -0.4394 H   0  0  0  0  0  0  0  0  0  0  0  0
   72.5604   35.8791    1.1307 H   0  0  0  0  0  0  0  0  0  0  0  0
   70.1340   36.1100    1.6726 H   0  0  0  0  0  0  0  0  0  0  0  0
   68.2810   38.4210    1.4930 H   0  0  0  0  0  0  0  0  0  0  0  0
   68.8950   41.6050   -2.9200 H   0  0  0  0  0  0  0  0  0  0  0  0
   73.9806   42.0053   -1.5582 H   0  0  0  0  0  0  0  0  0  0  0  0
   76.4777   43.7326   -3.6475 H   0  0  0  0  0  0  0  0  0  0  0  0
   75.3356   44.5171   -2.4760 H   0  0  0  0  0  0  0  0  0  0  0  0
   76.0009   43.2127   -0.7667 H   0  0  0  0  0  0  0  0  0  0  0  0
   76.0463   41.7339   -1.7855 H   0  0  0  0  0  0  0  0  0  0  0  0
   77.4395   42.8677   -1.7855 H   0  0  0  0  0  0  0  0  0  0  0  0
  1  2  1  0
  2  3  1  0
  3  4  2  0
  4  5  1  0
  5  6  2  0
  6  7  1  0
  7  8  1  0
  8  9  1  0
  9 10  2  0
 10 11  1  0
 11 12  2  0
 12 13  1  0
 13 14  1  0
 13 15  2  0
 15 16  1  0
 16 17  2  0
 16 18  1  0
 18 19  1  0
  6 20  1  0
 20 21  2  0
 21 22  1  0
 22 23  1  0
 21  3  1  0
 18  7  2  0
 15  9  1  0
  1 24  1  0
  1 25  1  0
  1 26  1  0
  2 27  1  0
  2 28  1  0
  4 29  1  0
  5 30  1  0
 10 31  1  0
 11 32  1  0
 12 33  1  0
 14 34  1  0
 19 35  1  0
 20 36  1  0
 22 37  1  0
 22 38  1  0
 23 39  1  0
 23 40  1  0
 23 41  1  0
M  END
>  <meeko>  (2) 
{"is_sidechain": [false], "free_energy": -7.765, "intermolecular_energy": -9.365, "internal_energy": -0.51}

$$$$
cand_039_out
     RDKit          3D

 41 43  0  0  0  0  0  0  0  0999 V2000
   71.0300   36.3300    0.7380 C   0  0  0  0  0  0  0  0  0  0  0  0
   70.5610   37.5620    1.4980 C   0  0  0  0  0  0  0  0  0  0  0  0
   70.0960   38.6570    0.5670 C   0  0  0  0  0  0  0  0  0  0  0  0
   68.7310   38.7060    0.2340 C   0  0  0  0  0  0  0  0  0  0  0  0
   68.2290   39.6950   -0.6140 C   0  0  0  0  0  0  0  0  0  0  0  0
   69.0760   40.6640   -1.1610 C   0  0  0  0  0  0  0  0  0  0  0  0
   68.5230   41.7160   -2.0410 C   0  0  0  0  0  0  0  0  0  0  0  0
   67.5880   42.5190   -1.3990 O   0  0  0  0  0  0  0  0  0  0  0  0
   66.9950   43.5380   -2.1000 C   0  0  0  0  0  0  0  0  0  0  0  0
   66.0750   44.3290   -1.4130 C   0  0  0  0  0  0  0  0  0  0  0  0
   65.4330   45.3820   -2.0700 C   0  0  0  0  0  0  0  0  0  0  0  0
   65.7110   45.6420   -3.4130 C   0  0  0  0  0  0  0  0  0  0  0  0
   66.6300   44.8510   -4.0970 C   0  0  0  0  0  0  0  0  0  0  0  0
   66.8560   45.1600   -5.4100 O   0  0  0  0  0  0  0  0  0  0  0  0
   67.2730   43.7980   -3.4390 C   0  0  0  0  0  0  0  0  0  0  0  0
   68.2450   42.9420   -4.1200 C   0  0  0  0  0  0  0  0  0  0  0  0
   68.5370   43.1040   -5.3030 O   0  0  0  0  0  0  0  0  0  0  0  0
   68.8760   41.8590   -3.3310 C   0  0  0  0  0  0  0  0  0  0  0  0
   69.7820   41.0490   -3.9890 O   0  0  0  0  0  0  0  0  0  0  0  0
   70.4340   40.6270   -0.8160 C   0  0  0  0  0  0  0  0  0  0  0  0
   70.9590   39.6410    0.0440 C   0  0  0  0  0  0  0  0  0  0  0  0
   72.4430   39.6730    0.3350 C   0  0  0  0  0  0  0  0  0  0  0  0
   73.2550   39.0450   -0.7880 C   0  0  0  0  0  0  0  0  0  0  0  0
   71.3273   35.5490    1.4533 H   0  0  0  0  0  0  0  0  0  0  0  0
   70.2115   35.9556    0.1056 H   0  0  0  0  0  0  0  0  0  0  0  0
   71.8903   36.5947    0.1056 H   0  0  0  0  0  0  0  0  0  0  0  0
   69.7269   37.2773    2.1563 H   0  0  0  0  0  0  0  0  0  0  0  0
   71.4118   37.9478    2.0788 H   0  0  0  0  0  0  0  0  0  0  0  0
   68.0463   37.9517    0.6490 H   0  0  0  0  0  0  0  0  0  0  0  0
   67.1557   39.7122   -0.8544 H   0  0  0  0  0  0  0  0  0  0  0  0
   65.8548   44.1243   -0.3549 H   0  0  0  0  0  0  0  0  0  0  0  0
   64.7077   46.0068   -1.5282 H   0  0  0  0  0  0  0  0  0  0  0  0
   65.2048   46.4705   -3.9300 H   0  0  0  0  0  0  0  0  0  0  0  0
   67.1030   44.4880   -6.0140 H   0  0  0  0  0  0  0  0  0  0  0  0
   69.4900   40.4730   -4.6680 H   0  0  0  0  0  0  0  0  0  0  0  0
   71.1103   41.3901   -1.2286 H   0  0  0  0  0  0  0  0  0  0  0  0
   72.7585   40.7194    0.4597 H   0  0  0  0  0  0  0  0  0  0  0  0
   72.6232   39.0925    1.2518 H   0  0  0  0  0  0  0  0  0  0  0  0
   74.0562   38.4253   -0.3589 H   0  0  0  0  0  0  0  0  0  0  0  0
   72.5985   38.4174   -1.4085 H   0  0  0  0  0  0  0  0  0  0  0  0
   73.6974   39.8383   -1.4085 H   0  0  0  0  0  0  0  0  0  0  0  0
  1  2  1  0
  2  3  1  0
  3  4  2  0
  4  5  1  0
  5  6  2  0
  6  7  1  0
  7  8  1  0
  8  9  1  0
  9 10  2  0
 10 11  1  0
 11 12  2  0
 12 13  1  0
 13 14  1  0
 13 15  2  0
 15 16  1  0
 16 17  2  0
 16 18  1  0
 18 19  1  0
  6 20  1  0
 20 21  2  0
 21 22  1  0
 22 23  1  0
 21  3  1  0
 18  7  2  0
 15  9  1  0
  1 24  1  0
  1 25  1  0
  1 26  1  0
  2 27  1  0
  2 28  1  0
  4 29  1  0
  5 30  1  0
 10 31  1  0
 11 32  1  0
 12 33  1  0
 14 34  1  0
 19 35  1  0
 20 36  1  0
 22 37  1  0
 22 38  1  0
 23 39  1  0
 23 40  1  0
 23 41  1  0
M  END
>  <meeko>  (3) 
{"is_sidechain": [false], "free_energy": -7.76, "intermolecular_energy": -9.274, "internal_energy": -0.594}

$$$$
cand_039_out
     RDKit          3D

 41 43  0  0  0  0  0  0  0  0999 V2000
   71.5420   36.3900    1.3130 C   0  0  0  0  0  0  0  0  0  0  0  0
   70.2560   37.1480    1.0180 C   0  0  0  0  0  0  0  0  0  0  0  0
   70.4860   38.2990    0.0650 C   0  0  0  0  0  0  0  0  0  0  0  0
   71.7870   38.5000   -0.4260 C   0  0  0  0  0  0  0  0  0  0  0  0
   72.0700   39.5380   -1.3170 C   0  0  0  0  0  0  0  0  0  0  0  0
   71.0640   40.4100   -1.7400 C   0  0  0  0  0  0  0  0  0  0  0  0
   71.3780   41.4900   -2.7000 C   0  0  0  0  0  0  0  0  0  0  0  0
   72.5770   42.1330   -2.4140 O   0  0  0  0  0  0  0  0  0  0  0  0
   72.9900   43.1580   -3.2270 C   0  0  0  0  0  0  0  0  0  0  0  0
   74.2060   43.7650   -2.9130 C   0  0  0  0  0  0  0  0  0  0  0  0
   74.6840   44.8170   -3.6990 C   0  0  0  0  0  0  0  0  0  0  0  0
   73.9450   45.2600   -4.7980 C   0  0  0  0  0  0  0  0  0  0  0  0
   72.7320   44.6530   -5.1090 C   0  0  0  0  0  0  0  0  0  0  0  0
   72.0600   45.1360   -6.1980 O   0  0  0  0  0  0  0  0  0  0  0  0
   72.2550   43.6000   -4.3230 C   0  0  0  0  0  0  0  0  0  0  0  0
   70.9850   42.9340   -4.6150 C   0  0  0  0  0  0  0  0  0  0  0  0
   70.2750   43.2730   -5.5600 O   0  0  0  0  0  0  0  0  0  0  0  0
   70.5720   41.8240   -3.7250 C   0  0  0  0  0  0  0  0  0  0  0  0
   69.3650   41.2120   -4.0020 O   0  0  0  0  0  0  0  0  0  0  0  0
   69.7610   40.1990   -1.2650 C   0  0  0  0  0  0  0  0  0  0  0  0
   69.4540   39.1530   -0.3710 C   0  0  0  0  0  0  0  0  0  0  0  0
   68.0230   39.0260    0.1020 C   0  0  0  0  0  0  0  0  0  0  0  0
   67.0290   39.4150   -0.9830 C   0  0  0  0  0  0  0  0  0  0  0  0
   71.6787   36.3094    2.4015 H   0  0  0  0  0  0  0  0  0  0  0  0
   71.4824   35.3826    0.8754 H   0  0  0  0  0  0  0  0  0  0  0  0
   72.3946   36.9300    0.8754 H   0  0  0  0  0  0  0  0  0  0  0  0
   69.5294   36.4546    0.5694 H   0  0  0  0  0  0  0  0  0  0  0  0
   69.8782   37.5600    1.9653 H   0  0  0  0  0  0  0  0  0  0  0  0
   72.5964   37.8286   -0.1033 H   0  0  0  0  0  0  0  0  0  0  0  0
   73.0965   39.6702   -1.6897 H   0  0  0  0  0  0  0  0  0  0  0  0
   74.7882   43.4159   -2.0474 H   0  0  0  0  0  0  0  0  0  0  0  0
   75.6427   45.2963   -3.4519 H   0  0  0  0  0  0  0  0  0  0  0  0
   74.3213   46.0877   -5.4171 H   0  0  0  0  0  0  0  0  0  0  0  0
   71.7410   44.5450   -6.8520 H   0  0  0  0  0  0  0  0  0  0  0  0
   68.9140   41.4040   -4.8010 H   0  0  0  0  0  0  0  0  0  0  0  0
   68.9555   40.8691   -1.5998 H   0  0  0  0  0  0  0  0  0  0  0  0
   67.8373   37.9826    0.3967 H   0  0  0  0  0  0  0  0  0  0  0  0
   67.8836   39.7096    0.9525 H   0  0  0  0  0  0  0  0  0  0  0  0
   66.1011   39.7781   -0.5171 H   0  0  0  0  0  0  0  0  0  0  0  0
   67.4611   40.2104   -1.6080 H   0  0  0  0  0  0  0  0  0  0  0  0
   66.8065   38.5376   -1.6080 H   0  0  0  0  0  0  0  0  0  0  0  0
  1  2  1  0
  2  3  1  0
  3  4  2  0
  4  5  1  0
  5  6  2  0
  6  7  1  0
  7  8  1  0
  8  9  1  0
  9 10  2  0
 10 11  1  0
 11 12  2  0
 12 13  1  0
 13 14  1  0
 13 15  2  0
 15 16  1  0
 16 17  2  0
 16 18  1  0
 18 19  1  0
  6 20  1  0
 20 21  2  0
 21 22  1  0
 22 23  1  0
 21  3  1  0
 18  7  2  0
 15  9  1  0
  1 24  1  0
  1 25  1  0
  1 26  1  0
  2 27  1  0
  2 28  1  0
  4 29  1  0
  5 30  1  0
 10 31  1  0
 11 32  1  0
 12 33  1  0
 14 34  1  0
 19 35  1  0
 20 36  1  0
 22 37  1  0
 22 38  1  0
 23 39  1  0
 23 40  1  0
 23 41  1  0
M  END
>  <meeko>  (4) 
{"is_sidechain": [false], "free_energy": -7.734, "intermolecular_energy": -9.593, "internal_energy": -0.243}

$$$$
cand_039_out
     RDKit          3D

 41 43  0  0  0  0  0  0  0  0999 V2000
   76.3140   42.3770   -6.5600 C   0  0  0  0  0  0  0  0  0  0  0  0
   75.8710   43.3470   -5.4740 C   0  0  0  0  0  0  0  0  0  0  0  0
   74.6000   42.8930   -4.7940 C   0  0  0  0  0  0  0  0  0  0  0  0
   73.5810   42.3500   -5.5950 C   0  0  0  0  0  0  0  0  0  0  0  0
   72.3830   41.9020   -5.0340 C   0  0  0  0  0  0  0  0  0  0  0  0
   72.1640   41.9880   -3.6570 C   0  0  0  0  0  0  0  0  0  0  0  0
   70.8980   41.4900   -3.0780 C   0  0  0  0  0  0  0  0  0  0  0  0
   71.0970   40.6130   -2.0180 O   0  0  0  0  0  0  0  0  0  0  0  0
   70.0040   40.0740   -1.3880 C   0  0  0  0  0  0  0  0  0  0  0  0
   70.2500   39.2110   -0.3200 C   0  0  0  0  0  0  0  0  0  0  0  0
   69.1810   38.6260    0.3640 C   0  0  0  0  0  0  0  0  0  0  0  0
   67.8680   38.9040   -0.0210 C   0  0  0  0  0  0  0  0  0  0  0  0
   67.6260   39.7650   -1.0880 C   0  0  0  0  0  0  0  0  0  0  0  0
   66.3170   39.9940   -1.4120 O   0  0  0  0  0  0  0  0  0  0  0  0
   68.6950   40.3510   -1.7710 C   0  0  0  0  0  0  0  0  0  0  0  0
   68.4850   41.2610   -2.8970 C   0  0  0  0  0  0  0  0  0  0  0  0
   67.3590   41.5490   -3.2990 O   0  0  0  0  0  0  0  0  0  0  0  0
   69.6850   41.8350   -3.5490 C   0  0  0  0  0  0  0  0  0  0  0  0
   69.4740   42.6830   -4.6200 O   0  0  0  0  0  0  0  0  0  0  0  0
   73.1870   42.5130   -2.8540 C   0  0  0  0  0  0  0  0  0  0  0  0
   74.4060   42.9650   -3.4010 C   0  0  0  0  0  0  0  0  0  0  0  0
   75.4360   43.5380   -2.4540 C   0  0  0  0  0  0  0  0  0  0  0  0
   76.2060   42.4460   -1.7240 C   0  0  0  0  0  0  0  0  0  0  0  0
   76.7281   41.4702   -6.0950 H   0  0  0  0  0  0  0  0  0  0  0  0
   75.4500   42.1068   -7.1849 H   0  0  0  0  0  0  0  0  0  0  0  0
   77.0840   42.8530   -7.1849 H   0  0  0  0  0  0  0  0  0  0  0  0
   76.6686   43.4250   -4.7205 H   0  0  0  0  0  0  0  0  0  0  0  0
   75.6743   44.3203   -5.9472 H   0  0  0  0  0  0  0  0  0  0  0  0
   73.7295   42.2765   -6.6825 H   0  0  0  0  0  0  0  0  0  0  0  0
   71.6036   41.4769   -5.6834 H   0  0  0  0  0  0  0  0  0  0  0  0
   71.2842   38.9912   -0.0166 H   0  0  0  0  0  0  0  0  0  0  0  0
   69.3742   37.9458    1.2066 H   0  0  0  0  0  0  0  0  0  0  0  0
   67.0265   38.4437    0.5176 H   0  0  0  0  0  0  0  0  0  0  0  0
   65.6370   39.5170   -0.9790 H   0  0  0  0  0  0  0  0  0  0  0  0
   68.8040   43.3370   -4.5750 H   0  0  0  0  0  0  0  0  0  0  0  0
   73.0343   42.5740   -1.7664 H   0  0  0  0  0  0  0  0  0  0  0  0
   76.1463   44.1501   -3.0292 H   0  0  0  0  0  0  0  0  0  0  0  0
   74.9084   44.1436   -1.7024 H   0  0  0  0  0  0  0  0  0  0  0  0
   76.1049   42.5894   -0.6381 H   0  0  0  0  0  0  0  0  0  0  0  0
   75.8007   41.4623   -2.0033 H   0  0  0  0  0  0  0  0  0  0  0  0
   77.2687   42.4974   -2.0033 H   0  0  0  0  0  0  0  0  0  0  0  0
  1  2  1  0
  2  3  1  0
  3  4  2  0
  4  5  1  0
  5  6  2  0
  6  7  1  0
  7  8  1  0
  8  9  1  0
  9 10  2  0
 10 11  1  0
 11 12  2  0
 12 13  1  0
 13 14  1  0
 13 15  2  0
 15 16  1  0
 16 17  2  0
 16 18  1  0
 18 19  1  0
  6 20  1  0
 20 21  2  0
 21 22  1  0
 22 23  1  0
 21  3  1  0
 18  7  2  0
 15  9  1  0
  1 24  1  0
  1 25  1  0
  1 26  1  0
  2 27  1  0
  2 28  1  0
  4 29  1  0
  5 30  1  0
 10 31  1  0
 11 32  1  0
 12 33  1  0
 14 34  1  0
 19 35  1  0
 20 36  1  0
 22 37  1  0
 22 38  1  0
 23 39  1  0
 23 40  1  0
 23 41  1  0
M  END
>  <meeko>  (5) 
{"is_sidechain": [false], "free_energy": -7.73, "intermolecular_energy": -9.454, "internal_energy": -0.377}

$$$$
cand_039_out
     RDKit          3D

 41 43  0  0  0  0  0  0  0  0999 V2000
   75.3200   43.0390   -7.1100 C   0  0  0  0  0  0  0  0  0  0  0  0
   75.1370   43.7540   -5.7790 C   0  0  0  0  0  0  0  0  0  0  0  0
   74.3520   42.9200   -4.7930 C   0  0  0  0  0  0  0  0  0  0  0  0
   73.2750   42.1600   -5.2800 C   0  0  0  0  0  0  0  0  0  0  0  0
   72.5110   41.3600   -4.4280 C   0  0  0  0  0  0  0  0  0  0  0  0
   72.7970   41.2970   -3.0610 C   0  0  0  0  0  0  0  0  0  0  0  0
   71.9910   40.4280   -2.1780 C   0  0  0  0  0  0  0  0  0  0  0  0
   70.6450   40.7740   -2.1620 O   0  0  0  0  0  0  0  0  0  0  0  0
   69.7810   40.0480   -1.3820 C   0  0  0  0  0  0  0  0  0  0  0  0
   68.4370   40.4200   -1.4090 C   0  0  0  0  0  0  0  0  0  0  0  0
   67.5060   39.7230   -0.6360 C   0  0  0  0  0  0  0  0  0  0  0  0
   67.9190   38.6550    0.1630 C   0  0  0  0  0  0  0  0  0  0  0  0
   69.2610   38.2860    0.1880 C   0  0  0  0  0  0  0  0  0  0  0  0
   69.5970   37.2320    0.9920 O   0  0  0  0  0  0  0  0  0  0  0  0
   70.1930   38.9830   -0.5860 C   0  0  0  0  0  0  0  0  0  0  0  0
   71.6120   38.6280   -0.5890 C   0  0  0  0  0  0  0  0  0  0  0  0
   72.0530   37.7050    0.0930 O   0  0  0  0  0  0  0  0  0  0  0  0
   72.5160   39.4250   -1.4510 C   0  0  0  0  0  0  0  0  0  0  0  0
   73.8570   39.0890   -1.4350 O   0  0  0  0  0  0  0  0  0  0  0  0
   73.8820   42.0400   -2.5760 C   0  0  0  0  0  0  0  0  0  0  0  0
   74.6690   42.8490   -3.4220 C   0  0  0  0  0  0  0  0  0  0  0  0
   75.8030   43.6320   -2.7970 C   0  0  0  0  0  0  0  0  0  0  0  0
   76.5420   42.8170   -1.7450 C   0  0  0  0  0  0  0  0  0  0  0  0
   75.5890   41.9881   -6.9277 H   0  0  0  0  0  0  0  0  0  0  0  0
   74.3815   43.0834   -7.6821 H   0  0  0  0  0  0  0  0  0  0  0  0
   76.1217   43.5288   -7.6821 H   0  0  0  0  0  0  0  0  0  0  0  0
   76.1277   43.9699   -5.3524 H   0  0  0  0  0  0  0  0  0  0  0  0
   74.5741   44.6806   -5.9650 H   0  0  0  0  0  0  0  0  0  0  0  0
   73.0294   42.1960   -6.3516 H   0  0  0  0  0  0  0  0  0  0  0  0
   71.6752   40.7731   -4.8367 H   0  0  0  0  0  0  0  0  0  0  0  0
   68.1109   41.2612   -2.0383 H   0  0  0  0  0  0  0  0  0  0  0  0
   66.4459   40.0157   -0.6566 H   0  0  0  0  0  0  0  0  0  0  0  0
   67.1852   38.1062    0.7716 H   0  0  0  0  0  0  0  0  0  0  0  0
   69.6640   37.3520    1.9190 H   0  0  0  0  0  0  0  0  0  0  0  0
   74.4160   39.3600   -2.1360 H   0  0  0  0  0  0  0  0  0  0  0  0
   74.1268   41.9908   -1.5047 H   0  0  0  0  0  0  0  0  0  0  0  0
   76.5127   43.9216   -3.5860 H   0  0  0  0  0  0  0  0  0  0  0  0
   75.3754   44.5177   -2.3044 H   0  0  0  0  0  0  0  0  0  0  0  0
   76.2386   43.1517   -0.7420 H   0  0  0  0  0  0  0  0  0  0  0  0
   76.2954   41.7519   -1.8664 H   0  0  0  0  0  0  0  0  0  0  0  0
   77.6261   42.9585   -1.8664 H   0  0  0  0  0  0  0  0  0  0  0  0
  1  2  1  0
  2  3  1  0
  3  4  2  0
  4  5  1  0
  5  6  2  0
  6  7  1  0
  7  8  1  0
  8  9  1  0
  9 10  2  0
 10 11  1  0
 11 12  2  0
 12 13  1  0
 13 14  1  0
 13 15  2  0
 15 16  1  0
 16 17  2  0
 16 18  1  0
 18 19  1  0
  6 20  1  0
 20 21  2  0
 21 22  1  0
 22 23  1  0
 21  3  1  0
 18  7  2  0
 15  9  1  0
  1 24  1  0
  1 25  1  0
  1 26  1  0
  2 27  1  0
  2 28  1  0
  4 29  1  0
  5 30  1  0
 10 31  1  0
 11 32  1  0
 12 33  1  0
 14 34  1  0
 19 35  1  0
 20 36  1  0
 22 37  1  0
 22 38  1  0
 23 39  1  0
 23 40  1  0
 23 41  1  0
M  END
>  <meeko>  (6) 
{"is_sidechain": [false], "free_energy": -7.703, "intermolecular_energy": -9.35, "internal_energy": -0.448}

$$$$
cand_039_out
     RDKit          3D

 41 43  0  0  0  0  0  0  0  0999 V2000
   70.6410   38.4980    1.0860 C   0  0  0  0  0  0  0  0  0  0  0  0
   70.0280   39.0000   -0.2140 C   0  0  0  0  0  0  0  0  0  0  0  0
   71.0460   39.6950   -1.0870 C   0  0  0  0  0  0  0  0  0  0  0  0
   71.9860   38.9000   -1.7670 C   0  0  0  0  0  0  0  0  0  0  0  0
   72.9510   39.4740   -2.5980 C   0  0  0  0  0  0  0  0  0  0  0  0
   73.0100   40.8590   -2.7720 C   0  0  0  0  0  0  0  0  0  0  0  0
   74.0250   41.4470   -3.6720 C   0  0  0  0  0  0  0  0  0  0  0  0
   73.4980   41.8390   -4.8970 O   0  0  0  0  0  0  0  0  0  0  0  0
   74.3320   42.4020   -5.8290 C   0  0  0  0  0  0  0  0  0  0  0  0
   73.7570   42.7960   -7.0380 C   0  0  0  0  0  0  0  0  0  0  0  0
   74.5520   43.3730   -8.0310 C   0  0  0  0  0  0  0  0  0  0  0  0
   75.9190   43.5560   -7.8160 C   0  0  0  0  0  0  0  0  0  0  0  0
   76.4900   43.1620   -6.6090 C   0  0  0  0  0  0  0  0  0  0  0  0
   77.8340   43.3700   -6.4630 O   0  0  0  0  0  0  0  0  0  0  0  0
   75.6940   42.5850   -5.6140 C   0  0  0  0  0  0  0  0  0  0  0  0
   76.2540   42.1570   -4.3320 C   0  0  0  0  0  0  0  0  0  0  0  0
   77.4490   42.2780   -4.0700 O   0  0  0  0  0  0  0  0  0  0  0  0
   75.3250   41.5640   -3.3420 C   0  0  0  0  0  0  0  0  0  0  0  0
   75.8670   41.1510   -2.1400 O   0  0  0  0  0  0  0  0  0  0  0  0
   72.0630   41.6520   -2.1090 C   0  0  0  0  0  0  0  0  0  0  0  0
   71.0770   41.0910   -1.2710 C   0  0  0  0  0  0  0  0  0  0  0  0
   70.1160   42.0340   -0.5810 C   0  0  0  0  0  0  0  0  0  0  0  0
   69.6100   43.1180   -1.5220 C   0  0  0  0  0  0  0  0  0  0  0  0
   70.1035   38.9382    1.9388 H   0  0  0  0  0  0  0  0  0  0  0  0
   70.5622   37.4017    1.1292 H   0  0  0  0  0  0  0  0  0  0  0  0
   71.7003   38.7914    1.1292 H   0  0  0  0  0  0  0  0  0  0  0  0
   69.6129   38.1433   -0.7652 H   0  0  0  0  0  0  0  0  0  0  0  0
   69.2430   39.7279    0.0388 H   0  0  0  0  0  0  0  0  0  0  0  0
   71.9609   37.8074   -1.6423 H   0  0  0  0  0  0  0  0  0  0  0  0
   73.6721   38.8287   -3.1210 H   0  0  0  0  0  0  0  0  0  0  0  0
   72.6798   42.6524   -7.2086 H   0  0  0  0  0  0  0  0  0  0  0  0
   74.0999   43.6838   -8.9844 H   0  0  0  0  0  0  0  0  0  0  0  0
   76.5439   44.0107   -8.5988 H   0  0  0  0  0  0  0  0  0  0  0  0
   78.1690   43.7210   -5.6620 H   0  0  0  0  0  0  0  0  0  0  0  0
   76.7250   40.7750   -2.1170 H   0  0  0  0  0  0  0  0  0  0  0  0
   72.0897   42.7431   -2.2463 H   0  0  0  0  0  0  0  0  0  0  0  0
   69.2568   41.4566   -0.2090 H   0  0  0  0  0  0  0  0  0  0  0  0
   70.6528   42.5233    0.2451 H   0  0  0  0  0  0  0  0  0  0  0  0
   69.2169   43.9601   -0.9336 H   0  0  0  0  0  0  0  0  0  0  0  0
   70.4376   43.4685   -2.1563 H   0  0  0  0  0  0  0  0  0  0  0  0
   68.8099   42.7087   -2.1563 H   0  0  0  0  0  0  0  0  0  0  0  0
  1  2  1  0
  2  3  1  0
  3  4  2  0
  4  5  1  0
  5  6  2  0
  6  7  1  0
  7  8  1  0
  8  9  1  0
  9 10  2  0
 10 11  1  0
 11 12  2  0
 12 13  1  0
 13 14  1  0
 13 15  2  0
 15 16  1  0
 16 17  2  0
 16 18  1  0
 18 19  1  0
  6 20  1  0
 20 21  2  0
 21 22  1  0
 22 23  1  0
 21  3  1  0
 18  7  2  0
 15  9  1  0
  1 24  1  0
  1 25  1  0
  1 26  1  0
  2 27  1  0
  2 28  1  0
  4 29  1  0
  5 30  1  0
 10 31  1  0
 11 32  1  0
 12 33  1  0
 14 34  1  0
 19 35  1  0
 20 36  1  0
 22 37  1  0
 22 38  1  0
 23 39  1  0
 23 40  1  0
 23 41  1  0
M  END
>  <meeko>  (7) 
{"is_sidechain": [false], "free_energy": -7.652, "intermolecular_energy": -9.134, "internal_energy": -0.601}

$$$$
cand_039_out
     RDKit          3D

 41 43  0  0  0  0  0  0  0  0999 V2000
   74.7200   46.2450   -5.7430 C   0  0  0  0  0  0  0  0  0  0  0  0
   73.3320   45.6560   -5.9500 C   0  0  0  0  0  0  0  0  0  0  0  0
   73.0950   44.4470   -5.0760 C   0  0  0  0  0  0  0  0  0  0  0  0
   72.6600   44.6600   -3.7570 C   0  0  0  0  0  0  0  0  0  0  0  0
   72.4140   43.5890   -2.8950 C   0  0  0  0  0  0  0  0  0  0  0  0
   72.5980   42.2720   -3.3240 C   0  0  0  0  0  0  0  0  0  0  0  0
   72.3110   41.1490   -2.4040 C   0  0  0  0  0  0  0  0  0  0  0  0
   70.9630   41.0480   -2.0800 O   0  0  0  0  0  0  0  0  0  0  0  0
   70.5570   40.0480   -1.2330 C   0  0  0  0  0  0  0  0  0  0  0  0
   69.1940   39.9740   -0.9490 C   0  0  0  0  0  0  0  0  0  0  0  0
   68.7150   38.9800   -0.0910 C   0  0  0  0  0  0  0  0  0  0  0  0
   69.5990   38.0620    0.4800 C   0  0  0  0  0  0  0  0  0  0  0  0
   70.9590   38.1390    0.1940 C   0  0  0  0  0  0  0  0  0  0  0  0
   71.7680   37.2100    0.7870 O   0  0  0  0  0  0  0  0  0  0  0  0
   71.4380   39.1330   -0.6650 C   0  0  0  0  0  0  0  0  0  0  0  0
   72.8600   39.2490   -0.9920 C   0  0  0  0  0  0  0  0  0  0  0  0
   73.7000   38.4830   -0.5230 O   0  0  0  0  0  0  0  0  0  0  0  0
   73.2640   40.3320   -1.9180 C   0  0  0  0  0  0  0  0  0  0  0  0
   74.6100   40.4410   -2.2090 O   0  0  0  0  0  0  0  0  0  0  0  0
   73.0140   42.0560   -4.6450 C   0  0  0  0  0  0  0  0  0  0  0  0
   73.2620   43.1240   -5.5320 C   0  0  0  0  0  0  0  0  0  0  0  0
   73.7310   42.7870   -6.9300 C   0  0  0  0  0  0  0  0  0  0  0  0
   75.2490   42.7300   -7.0200 C   0  0  0  0  0  0  0  0  0  0  0  0
   74.9245   46.3318   -4.6657 H   0  0  0  0  0  0  0  0  0  0  0  0
   75.4702   45.5877   -6.2069 H   0  0  0  0  0  0  0  0  0  0  0  0
   74.7685   47.2412   -6.2069 H   0  0  0  0  0  0  0  0  0  0  0  0
   72.5811   46.4224   -5.7075 H   0  0  0  0  0  0  0  0  0  0  0  0
   73.2507   45.3379   -6.9999 H   0  0  0  0  0  0  0  0  0  0  0  0
   72.5106   45.6886   -3.3969 H   0  0  0  0  0  0  0  0  0  0  0  0
   72.0719   43.7843   -1.8679 H   0  0  0  0  0  0  0  0  0  0  0  0
   68.4971   40.6963   -1.3992 H   0  0  0  0  0  0  0  0  0  0  0  0
   67.6401   38.9207    0.1348 H   0  0  0  0  0  0  0  0  0  0  0  0
   69.2212   37.2795    1.1545 H   0  0  0  0  0  0  0  0  0  0  0  0
   71.3930   36.4580    1.2010 H   0  0  0  0  0  0  0  0  0  0  0  0
   74.9320   40.1740   -3.0480 H   0  0  0  0  0  0  0  0  0  0  0  0
   73.1509   41.0239   -5.0000 H   0  0  0  0  0  0  0  0  0  0  0  0
   73.3206   41.8075   -7.2165 H   0  0  0  0  0  0  0  0  0  0  0  0
   73.3784   43.5780   -7.6082 H   0  0  0  0  0  0  0  0  0  0  0  0
   75.6761   42.7140   -6.0064 H   0  0  0  0  0  0  0  0  0  0  0  0
   75.5504   41.8199   -7.5593 H   0  0  0  0  0  0  0  0  0  0  0  0
   75.6178   43.6149   -7.5593 H   0  0  0  0  0  0  0  0  0  0  0  0
  1  2  1  0
  2  3  1  0
  3  4  2  0
  4  5  1  0
  5  6  2  0
  6  7  1  0
  7  8  1  0
  8  9  1  0
  9 10  2  0
 10 11  1  0
 11 12  2  0
 12 13  1  0
 13 14  1  0
 13 15  2  0
 15 16  1  0
 16 17  2  0
 16 18  1  0
 18 19  1  0
  6 20  1  0
 20 21  2  0
 21 22  1  0
 22 23  1  0
 21  3  1  0
 18  7  2  0
 15  9  1  0
  1 24  1  0
  1 25  1  0
  1 26  1  0
  2 27  1  0
  2 28  1  0
  4 29  1  0
  5 30  1  0
 10 31  1  0
 11 32  1  0
 12 33  1  0
 14 34  1  0
 19 35  1  0
 20 36  1  0
 22 37  1  0
 22 38  1  0
 23 39  1  0
 23 40  1  0
 23 41  1  0
M  END
>  <meeko>  (8) 
{"is_sidechain": [false], "free_energy": -7.598, "intermolecular_energy": -9.037, "internal_energy": -0.632}

$$$$
cand_039_out
     RDKit          3D

 41 43  0  0  0  0  0  0  0  0999 V2000
   68.6000   39.4100   -0.5820 C   0  0  0  0  0  0  0  0  0  0  0  0
   69.9810   39.4150    0.0570 C   0  0  0  0  0  0  0  0  0  0  0  0
   71.0470   39.8880   -0.9050 C   0  0  0  0  0  0  0  0  0  0  0  0
   71.0140   41.2310   -1.3180 C   0  0  0  0  0  0  0  0  0  0  0  0
   71.9710   41.7390   -2.2000 C   0  0  0  0  0  0  0  0  0  0  0  0
   72.9880   40.9200   -2.6990 C   0  0  0  0  0  0  0  0  0  0  0  0
   74.0050   41.4810   -3.6140 C   0  0  0  0  0  0  0  0  0  0  0  0
   73.4760   41.8560   -4.8430 O   0  0  0  0  0  0  0  0  0  0  0  0
   74.3120   42.3930   -5.7900 C   0  0  0  0  0  0  0  0  0  0  0  0
   73.7360   42.7700   -7.0030 C   0  0  0  0  0  0  0  0  0  0  0  0
   74.5320   43.3210   -8.0100 C   0  0  0  0  0  0  0  0  0  0  0  0
   75.9020   43.4940   -7.8030 C   0  0  0  0  0  0  0  0  0  0  0  0
   76.4740   43.1170   -6.5910 C   0  0  0  0  0  0  0  0  0  0  0  0
   77.8200   43.3150   -6.4550 O   0  0  0  0  0  0  0  0  0  0  0  0
   75.6770   42.5670   -5.5830 C   0  0  0  0  0  0  0  0  0  0  0  0
   76.2380   42.1570   -4.2950 C   0  0  0  0  0  0  0  0  0  0  0  0
   77.4350   42.2720   -4.0410 O   0  0  0  0  0  0  0  0  0  0  0  0
   75.3070   41.5920   -3.2910 C   0  0  0  0  0  0  0  0  0  0  0  0
   75.8500   41.1960   -2.0830 O   0  0  0  0  0  0  0  0  0  0  0  0
   73.0320   39.5850   -2.2740 C   0  0  0  0  0  0  0  0  0  0  0  0
   72.0790   39.0550   -1.3800 C   0  0  0  0  0  0  0  0  0  0  0  0
   72.1990   37.5960   -1.0020 C   0  0  0  0  0  0  0  0  0  0  0  0
   72.9570   37.4090    0.3050 C   0  0  0  0  0  0  0  0  0  0  0  0
   67.8317   39.4072    0.2052 H   0  0  0  0  0  0  0  0  0  0  0  0
   68.4817   40.3077   -1.2066 H   0  0  0  0  0  0  0  0  0  0  0  0
   68.4882   38.5114   -1.2066 H   0  0  0  0  0  0  0  0  0  0  0  0
   69.9666   40.0852    0.9291 H   0  0  0  0  0  0  0  0  0  0  0  0
   70.2229   38.3835    0.3527 H   0  0  0  0  0  0  0  0  0  0  0  0
   70.2212   41.8934   -0.9404 H   0  0  0  0  0  0  0  0  0  0  0  0
   71.9237   42.7948   -2.5051 H   0  0  0  0  0  0  0  0  0  0  0  0
   72.6568   42.6337   -7.1664 H   0  0  0  0  0  0  0  0  0  0  0  0
   74.0790   43.6189   -8.9671 H   0  0  0  0  0  0  0  0  0  0  0  0
   76.5285   43.9276   -8.5964 H   0  0  0  0  0  0  0  0  0  0  0  0
   78.3900   42.5830   -6.3250 H   0  0  0  0  0  0  0  0  0  0  0  0
   75.8030   40.2980   -1.8200 H   0  0  0  0  0  0  0  0  0  0  0  0
   73.8335   38.9316   -2.6489 H   0  0  0  0  0  0  0  0  0  0  0  0
   71.1896   37.1730   -0.8914 H   0  0  0  0  0  0  0  0  0  0  0  0
   72.7590   37.0825   -1.7975 H   0  0  0  0  0  0  0  0  0  0  0  0
   72.2751   37.5772    1.1516 H   0  0  0  0  0  0  0  0  0  0  0  0
   73.3566   36.3853    0.3539 H   0  0  0  0  0  0  0  0  0  0  0  0
   73.7869   38.1293    0.3539 H   0  0  0  0  0  0  0  0  0  0  0  0
  1  2  1  0
  2  3  1  0
  3  4  2  0
  4  5  1  0
  5  6  2  0
  6  7  1  0
  7  8  1  0
  8  9  1  0
  9 10  2  0
 10 11  1  0
 11 12  2  0
 12 13  1  0
 13 14  1  0
 13 15  2  0
 15 16  1  0
 16 17  2  0
 16 18  1  0
 18 19  1  0
  6 20  1  0
 20 21  2  0
 21 22  1  0
 22 23  1  0
 21  3  1  0
 18  7  2  0
 15  9  1  0
  1 24  1  0
  1 25  1  0
  1 26  1  0
  2 27  1  0
  2 28  1  0
  4 29  1  0
  5 30  1  0
 10 31  1  0
 11 32  1  0
 12 33  1  0
 14 34  1  0
 19 35  1  0
 20 36  1  0
 22 37  1  0
 22 38  1  0
 23 39  1  0
 23 40  1  0
 23 41  1  0
M  END
>  <meeko>  (9) 
{"is_sidechain": [false], "free_energy": -7.538, "intermolecular_energy": -9.09, "internal_energy": -0.504}

$$$$
