cand_037_out
     RDKit          3D

 35 37  0  0  0  0  0  0  0  0999 V2000
   68.7790   38.7990    0.4010 C   0  0  0  0  0  0  0  0  0  0  0  0
   70.1210   38.8410   -0.2780 C   0  0  0  0  0  0  0  0  0  0  0  0
   70.4190   39.9180   -1.1330 C   0  0  0  0  0  0  0  0  0  0  0  0
   71.6510   40.0120   -1.7970 C   0  0  0  0  0  0  0  0  0  0  0  0
   71.9150   41.1500   -2.7030 C   0  0  0  0  0  0  0  0  0  0  0  0
   73.0980   41.8160   -2.4040 O   0  0  0  0  0  0  0  0  0  0  0  0
   73.4650   42.8930   -3.1680 C   0  0  0  0  0  0  0  0  0  0  0  0
   74.6520   43.5410   -2.8230 C   0  0  0  0  0  0  0  0  0  0  0  0
   75.0840   44.6440   -3.5620 C   0  0  0  0  0  0  0  0  0  0  0  0
   74.3300   45.1000   -4.6460 C   0  0  0  0  0  0  0  0  0  0  0  0
   73.1470   44.4520   -4.9900 C   0  0  0  0  0  0  0  0  0  0  0  0
   72.4590   44.9490   -6.0620 O   0  0  0  0  0  0  0  0  0  0  0  0
   72.7140   43.3480   -4.2480 C   0  0  0  0  0  0  0  0  0  0  0  0
   71.4760   42.6390   -4.5750 C   0  0  0  0  0  0  0  0  0  0  0  0
   70.7620   42.9740   -5.5170 O   0  0  0  0  0  0  0  0  0  0  0  0
   71.1020   41.4850   -3.7230 C   0  0  0  0  0  0  0  0  0  0  0  0
   69.9380   40.8140   -4.0480 O   0  0  0  0  0  0  0  0  0  0  0  0
   72.5860   38.9890   -1.6090 C   0  0  0  0  0  0  0  0  0  0  0  0
   72.3020   37.9070   -0.7720 C   0  0  0  0  0  0  0  0  0  0  0  0
   71.0690   37.8120   -0.1080 C   0  0  0  0  0  0  0  0  0  0  0  0
   70.8150   36.6350    0.8010 C   0  0  0  0  0  0  0  0  0  0  0  0
   71.8830   36.3160    1.5850 F   0  0  0  0  0  0  0  0  0  0  0  0
   68.9198   38.8034    1.4919 H   0  0  0  0  0  0  0  0  0  0  0  0
   68.1900   39.6791    0.1037 H   0  0  0  0  0  0  0  0  0  0  0  0
   68.2461   37.8837    0.1037 H   0  0  0  0  0  0  0  0  0  0  0  0
   69.6668   40.7062   -1.2845 H   0  0  0  0  0  0  0  0  0  0  0  0
   75.2467   43.1830   -1.9696 H   0  0  0  0  0  0  0  0  0  0  0  0
   76.0196   45.1548   -3.2902 H   0  0  0  0  0  0  0  0  0  0  0  0
   74.6706   45.9698   -5.2269 H   0  0  0  0  0  0  0  0  0  0  0  0
   72.6850   45.7860   -6.4160 H   0  0  0  0  0  0  0  0  0  0  0  0
   69.9190   39.8770   -4.0350 H   0  0  0  0  0  0  0  0  0  0  0  0
   73.5558   39.0368   -2.1259 H   0  0  0  0  0  0  0  0  0  0  0  0
   73.0556   37.1181   -0.6313 H   0  0  0  0  0  0  0  0  0  0  0  0
   69.9630   36.8761    1.4537 H   0  0  0  0  0  0  0  0  0  0  0  0
   70.6133   35.7657    0.1578 H   0  0  0  0  0  0  0  0  0  0  0  0
  1  2  1  0
  2  3  2  0
  3  4  1  0
  4  5  1  0
  5  6  1  0
  6  7  1  0
  7  8  2  0
  8  9  1  0
  9 10  2  0
 10 11  1  0
 11 12  1  0
 11 13  2  0
 13 14  1  0
 14 15  2  0
 14 16  1  0
 16 17  1  0
  4 18  2  0
 18 19  1  0
 19 20  2  0
 20 21  1  0
 21 22  1  0
 20  2  1  0
 16  5  2  0
 13  7  1  0
  1 23  1  0
  1 24  1  0
  1 25  1  0
  3 26  1  0
  8 27  1  0
  9 28  1  0
 10 29  1  0
 12 30  1  0
 17 31  1  0
 18 32  1  0
 19 33  1  0
 21 34  1  0
 21 35  1  0
M  END
>  <meeko>  (1) 
{"is_sidechain": [false], "free_energy": -7.818, "intermolecular_energy": -9.189, "internal_energy": -0.17}

$$$$
cand_037_out
     RDKit          3D

 35 37  0  0  0  0  0  0  0  0999 V2000
   73.0050   37.3490   -0.0110 C   0  0  0  0  0  0  0  0  0  0  0  0
   71.8180   38.2380   -0.2680 C   0  0  0  0  0  0  0  0  0  0  0  0
   71.9390   39.2850   -1.1990 C   0  0  0  0  0  0  0  0  0  0  0  0
   70.8700   40.1490   -1.4790 C   0  0  0  0  0  0  0  0  0  0  0  0
   71.0470   41.2490   -2.4510 C   0  0  0  0  0  0  0  0  0  0  0  0
   72.2480   41.9290   -2.2860 O   0  0  0  0  0  0  0  0  0  0  0  0
   72.5400   42.9740   -3.1230 C   0  0  0  0  0  0  0  0  0  0  0  0
   73.7510   43.6370   -2.9120 C   0  0  0  0  0  0  0  0  0  0  0  0
   74.1090   44.7090   -3.7310 C   0  0  0  0  0  0  0  0  0  0  0  0
   73.2600   45.1190   -4.7610 C   0  0  0  0  0  0  0  0  0  0  0  0
   72.0540   44.4560   -4.9710 C   0  0  0  0  0  0  0  0  0  0  0  0
   71.2710   44.9080   -5.9970 O   0  0  0  0  0  0  0  0  0  0  0  0
   71.6940   43.3830   -4.1500 C   0  0  0  0  0  0  0  0  0  0  0  0
   70.4350   42.6590   -4.3350 C   0  0  0  0  0  0  0  0  0  0  0  0
   69.6390   42.9550   -5.2230 O   0  0  0  0  0  0  0  0  0  0  0  0
   70.1450   41.5420   -3.4070 C   0  0  0  0  0  0  0  0  0  0  0  0
   68.9600   40.8560   -3.6000 O   0  0  0  0  0  0  0  0  0  0  0  0
   69.6680   39.9640   -0.7890 C   0  0  0  0  0  0  0  0  0  0  0  0
   69.5350   38.9350    0.1480 C   0  0  0  0  0  0  0  0  0  0  0  0
   70.6050   38.0710    0.4290 C   0  0  0  0  0  0  0  0  0  0  0  0
   70.4070   36.9640    1.4340 C   0  0  0  0  0  0  0  0  0  0  0  0
   70.3890   35.7210    0.8750 F   0  0  0  0  0  0  0  0  0  0  0  0
   73.1524   37.2386    1.0735 H   0  0  0  0  0  0  0  0  0  0  0  0
   72.8266   36.3605   -0.4593 H   0  0  0  0  0  0  0  0  0  0  0  0
   73.9034   37.7982   -0.4593 H   0  0  0  0  0  0  0  0  0  0  0  0
   72.8963   39.4301   -1.7210 H   0  0  0  0  0  0  0  0  0  0  0  0
   74.4215   43.3149   -2.1017 H   0  0  0  0  0  0  0  0  0  0  0  0
   75.0622   45.2321   -3.5647 H   0  0  0  0  0  0  0  0  0  0  0  0
   73.5436   45.9643   -5.4053 H   0  0  0  0  0  0  0  0  0  0  0  0
   70.3380   44.9160   -5.9060 H   0  0  0  0  0  0  0  0  0  0  0  0
   68.9430   39.9220   -3.5290 H   0  0  0  0  0  0  0  0  0  0  0  0
   68.8186   40.6348   -0.9854 H   0  0  0  0  0  0  0  0  0  0  0  0
   68.5777   38.8004    0.6728 H   0  0  0  0  0  0  0  0  0  0  0  0
   71.2282   37.0057    2.1647 H   0  0  0  0  0  0  0  0  0  0  0  0
   69.4245   37.1232    1.9024 H   0  0  0  0  0  0  0  0  0  0  0  0
  1  2  1  0
  2  3  2  0
  3  4  1  0
  4  5  1  0
  5  6  1  0
  6  7  1  0
  7  8  2  0
  8  9  1  0
  9 10  2  0
 10 11  1  0
 11 12  1  0
 11 13  2  0
 13 14  1  0
 14 15  2  0
 14 16  1  0
 16 17  1  0
  4 18  2  0
 18 19  1  0
 19 20  2  0
 20 21  1  0
 21 22  1  0
 20  2  1  0
 16  5  2  0
 13  7  1  0
  1 23  1  0
  1 24  1  0
  1 25  1  0
  3 26  1  0
  8 27  1  0
  9 28  1  0
 10 29  1  0
 12 30  1  0
 17 31  1  0
 18 32  1  0
 19 33  1  0
 21 34  1  0
 21 35  1  0
M  END
>  <meeko>  (2) 
{"is_sidechain": [false], "free_energy": -7.792, "intermolecular_energy": -9.201, "internal_energy": -0.128}

$$$$
cand_037_out
     RDKit          3D

 35 37  0  0  0  0  0  0  0  0999 V2000
   72.8280   38.0730   -0.3590 C   0  0  0  0  0  0  0  0  0  0  0  0
   71.4090   38.5690   -0.4080 C   0  0  0  0  0  0  0  0  0  0  0  0
   71.0700   39.5730   -1.3340 C   0  0  0  0  0  0  0  0  0  0  0  0
   69.7650   40.0800   -1.4260 C   0  0  0  0  0  0  0  0  0  0  0  0
   69.4570   41.1500   -2.3990 C   0  0  0  0  0  0  0  0  0  0  0  0
   70.5180   42.0260   -2.5920 O   0  0  0  0  0  0  0  0  0  0  0  0
   70.3680   43.0670   -3.4720 C   0  0  0  0  0  0  0  0  0  0  0  0
   71.4540   43.9320   -3.6250 C   0  0  0  0  0  0  0  0  0  0  0  0
   71.3660   45.0100   -4.5060 C   0  0  0  0  0  0  0  0  0  0  0  0
   70.1950   45.2260   -5.2350 C   0  0  0  0  0  0  0  0  0  0  0  0
   69.1130   44.3630   -5.0830 C   0  0  0  0  0  0  0  0  0  0  0  0
   67.9980   44.6310   -5.8280 O   0  0  0  0  0  0  0  0  0  0  0  0
   69.2010   43.2830   -4.1990 C   0  0  0  0  0  0  0  0  0  0  0  0
   68.0870   42.3520   -4.0080 C   0  0  0  0  0  0  0  0  0  0  0  0
   67.0280   42.4700   -4.6190 O   0  0  0  0  0  0  0  0  0  0  0  0
   68.2790   41.2440   -3.0430 C   0  0  0  0  0  0  0  0  0  0  0  0
   67.2260   40.3630   -2.8810 O   0  0  0  0  0  0  0  0  0  0  0  0
   68.7950   39.5780   -0.5530 C   0  0  0  0  0  0  0  0  0  0  0  0
   69.1180   38.5890    0.3800 C   0  0  0  0  0  0  0  0  0  0  0  0
   70.4230   38.0820    0.4730 C   0  0  0  0  0  0  0  0  0  0  0  0
   70.7190   37.0010    1.4830 C   0  0  0  0  0  0  0  0  0  0  0  0
   70.5660   35.7410    0.9870 F   0  0  0  0  0  0  0  0  0  0  0  0
   73.1421   37.9632    0.6895 H   0  0  0  0  0  0  0  0  0  0  0  0
   72.8935   37.0987   -0.8653 H   0  0  0  0  0  0  0  0  0  0  0  0
   73.4863   38.7943   -0.8653 H   0  0  0  0  0  0  0  0  0  0  0  0
   71.8479   39.9704   -2.0026 H   0  0  0  0  0  0  0  0  0  0  0  0
   72.3774   43.7634   -3.0515 H   0  0  0  0  0  0  0  0  0  0  0  0
   72.2211   45.6914   -4.6266 H   0  0  0  0  0  0  0  0  0  0  0  0
   70.1273   46.0770   -5.9287 H   0  0  0  0  0  0  0  0  0  0  0  0
   67.1620   44.6980   -5.4120 H   0  0  0  0  0  0  0  0  0  0  0  0
   67.2660   39.5090   -3.2660 H   0  0  0  0  0  0  0  0  0  0  0  0
   67.7667   39.9657   -0.6011 H   0  0  0  0  0  0  0  0  0  0  0  0
   68.3374   38.2022    1.0516 H   0  0  0  0  0  0  0  0  0  0  0  0
   71.7582   37.1177    1.8243 H   0  0  0  0  0  0  0  0  0  0  0  0
   69.9964   37.1169    2.3042 H   0  0  0  0  0  0  0  0  0  0  0  0
  1  2  1  0
  2  3  2  0
  3  4  1  0
  4  5  1  0
  5  6  1  0
  6  7  1  0
  7  8  2  0
  8  9  1  0
  9 10  2  0
 10 11  1  0
 11 12  1  0
 11 13  2  0
 13 14  1  0
 14 15  2  0
 14 16  1  0
 16 17  1  0
  4 18  2  0
 18 19  1  0
 19 20  2  0
 20 21  1  0
 21 22  1  0
 20  2  1  0
 16  5  2  0
 13  7  1  0
  1 23  1  0
  1 24  1  0
  1 25  1  0
  3 26  1  0
  8 27  1  0
  9 28  1  0
 10 29  1  0
 12 30  1  0
 17 31  1  0
 18 32  1  0
 19 33  1  0
 21 34  1  0
 21 35  1  0
M  END
>  <meeko>  (3) 
{"is_sidechain": [false], "free_energy": -7.78, "intermolecular_energy": -9.275, "internal_energy": -0.039}

$$$$
cand_037_out
     RDKit          3D

 35 37  0  0  0  0  0  0  0  0999 V2000
   74.8360   45.2690   -3.3620 C   0  0  0  0  0  0  0  0  0  0  0  0
   74.6640   43.8290   -2.9600 C   0  0  0  0  0  0  0  0  0  0  0  0
   73.3640   43.3000   -2.8640 C   0  0  0  0  0  0  0  0  0  0  0  0
   73.1370   41.9660   -2.4910 C   0  0  0  0  0  0  0  0  0  0  0  0
   71.7540   41.4560   -2.3830 C   0  0  0  0  0  0  0  0  0  0  0  0
   71.5440   40.7040   -1.2320 O   0  0  0  0  0  0  0  0  0  0  0  0
   70.3010   40.1700   -1.0070 C   0  0  0  0  0  0  0  0  0  0  0  0
   70.1390   39.4100    0.1530 C   0  0  0  0  0  0  0  0  0  0  0  0
   68.8980   38.8390    0.4430 C   0  0  0  0  0  0  0  0  0  0  0  0
   67.8200   39.0280   -0.4230 C   0  0  0  0  0  0  0  0  0  0  0  0
   67.9830   39.7880   -1.5790 C   0  0  0  0  0  0  0  0  0  0  0  0
   66.8870   39.9330   -2.3830 O   0  0  0  0  0  0  0  0  0  0  0  0
   69.2260   40.3580   -1.8700 C   0  0  0  0  0  0  0  0  0  0  0  0
   69.4420   41.1620   -3.0740 C   0  0  0  0  0  0  0  0  0  0  0  0
   68.5410   41.3800   -3.8810 O   0  0  0  0  0  0  0  0  0  0  0  0
   70.7980   41.7160   -3.2950 C   0  0  0  0  0  0  0  0  0  0  0  0
   70.9870   42.4860   -4.4270 O   0  0  0  0  0  0  0  0  0  0  0  0
   74.2420   41.1650   -2.1880 C   0  0  0  0  0  0  0  0  0  0  0  0
   75.5400   41.6790   -2.2670 C   0  0  0  0  0  0  0  0  0  0  0  0
   75.7670   43.0130   -2.6400 C   0  0  0  0  0  0  0  0  0  0  0  0
   77.1850   43.5170   -2.7300 C   0  0  0  0  0  0  0  0  0  0  0  0
   77.7260   43.3930   -3.9750 F   0  0  0  0  0  0  0  0  0  0  0  0
   74.9108   45.8949   -2.4605 H   0  0  0  0  0  0  0  0  0  0  0  0
   75.7533   45.3758   -3.9596 H   0  0  0  0  0  0  0  0  0  0  0  0
   73.9697   45.5888   -3.9596 H   0  0  0  0  0  0  0  0  0  0  0  0
   72.5036   43.9482   -3.0869 H   0  0  0  0  0  0  0  0  0  0  0  0
   70.9874   39.2613    0.8372 H   0  0  0  0  0  0  0  0  0  0  0  0
   68.7699   38.2390    1.3560 H   0  0  0  0  0  0  0  0  0  0  0  0
   66.8432   38.5775   -0.1931 H   0  0  0  0  0  0  0  0  0  0  0  0
   66.3290   39.2000   -2.5520 H   0  0  0  0  0  0  0  0  0  0  0  0
   70.2680   42.9620   -4.7940 H   0  0  0  0  0  0  0  0  0  0  0  0
   74.0887   40.1190   -1.8841 H   0  0  0  0  0  0  0  0  0  0  0  0
   76.3957   41.0284   -2.0334 H   0  0  0  0  0  0  0  0  0  0  0  0
   77.1954   44.5807   -2.4498 H   0  0  0  0  0  0  0  0  0  0  0  0
   77.7920   42.9016   -2.0496 H   0  0  0  0  0  0  0  0  0  0  0  0
  1  2  1  0
  2  3  2  0
  3  4  1  0
  4  5  1  0
  5  6  1  0
  6  7  1  0
  7  8  2  0
  8  9  1  0
  9 10  2  0
 10 11  1  0
 11 12  1  0
 11 13  2  0
 13 14  1  0
 14 15  2  0
 14 16  1  0
 16 17  1  0
  4 18  2  0
 18 19  1  0
 19 20  2  0
 20 21  1  0
 21 22  1  0
 20  2  1  0
 16  5  2  0
 13  7  1  0
  1 23  1  0
  1 24  1  0
  1 25  1  0
  3 26  1  0
  8 27  1  0
  9 28  1  0
 10 29  1  0
 12 30  1  0
 17 31  1  0
 18 32  1  0
 19 33  1  0
 21 34  1  0
 21 35  1  0
M  END
>  <meeko>  (4) 
{"is_sidechain": [false], "free_energy": -7.687, "intermolecular_energy": -9.122, "internal_energy": -0.083}

$$$$
cand_037_out
     RDKit          3D

 35 37  0  0  0  0  0  0  0  0999 V2000
   73.4660   45.9040   -3.2800 C   0  0  0  0  0  0  0  0  0  0  0  0
   73.0850   44.5650   -3.8500 C   0  0  0  0  0  0  0  0  0  0  0  0
   72.8320   43.4970   -2.9690 C   0  0  0  0  0  0  0  0  0  0  0  0
   72.4760   42.2240   -3.4380 C   0  0  0  0  0  0  0  0  0  0  0  0
   72.2390   41.1240   -2.4790 C   0  0  0  0  0  0  0  0  0  0  0  0
   70.8990   40.9910   -2.1310 O   0  0  0  0  0  0  0  0  0  0  0  0
   70.5380   40.0070   -1.2470 C   0  0  0  0  0  0  0  0  0  0  0  0
   69.1850   39.9180   -0.9150 C   0  0  0  0  0  0  0  0  0  0  0  0
   68.7500   38.9380   -0.0210 C   0  0  0  0  0  0  0  0  0  0  0  0
   69.6660   38.0450    0.5390 C   0  0  0  0  0  0  0  0  0  0  0  0
   71.0150   38.1340    0.2050 C   0  0  0  0  0  0  0  0  0  0  0  0
   71.8570   37.2280    0.7900 O   0  0  0  0  0  0  0  0  0  0  0  0
   71.4500   39.1170   -0.6880 C   0  0  0  0  0  0  0  0  0  0  0  0
   72.8590   39.2460   -1.0650 C   0  0  0  0  0  0  0  0  0  0  0  0
   73.7230   38.4940   -0.6200 O   0  0  0  0  0  0  0  0  0  0  0  0
   73.2180   40.3260   -2.0140 C   0  0  0  0  0  0  0  0  0  0  0  0
   74.5490   40.4300   -2.3740 O   0  0  0  0  0  0  0  0  0  0  0  0
   72.3980   42.0230   -4.8200 C   0  0  0  0  0  0  0  0  0  0  0  0
   72.6580   43.0700   -5.7090 C   0  0  0  0  0  0  0  0  0  0  0  0
   73.0140   44.3440   -5.2400 C   0  0  0  0  0  0  0  0  0  0  0  0
   73.2660   45.4480   -6.2360 C   0  0  0  0  0  0  0  0  0  0  0  0
   72.1990   46.2790   -6.4050 F   0  0  0  0  0  0  0  0  0  0  0  0
   73.4513   45.8524   -2.1813 H   0  0  0  0  0  0  0  0  0  0  0  0
   74.4765   46.1735   -3.6209 H   0  0  0  0  0  0  0  0  0  0  0  0
   72.7488   46.6652   -3.6209 H   0  0  0  0  0  0  0  0  0  0  0  0
   72.9156   43.6649   -1.8851 H   0  0  0  0  0  0  0  0  0  0  0  0
   68.4623   40.6194   -1.3574 H   0  0  0  0  0  0  0  0  0  0  0  0
   67.6843   38.8691    0.2427 H   0  0  0  0  0  0  0  0  0  0  0  0
   69.3225   37.2725    1.2428 H   0  0  0  0  0  0  0  0  0  0  0  0
   72.6920   37.0480    0.4040 H   0  0  0  0  0  0  0  0  0  0  0  0
   74.8120   40.2430   -3.2530 H   0  0  0  0  0  0  0  0  0  0  0  0
   72.1293   41.0307   -5.2114 H   0  0  0  0  0  0  0  0  0  0  0  0
   72.5825   42.8928   -6.7920 H   0  0  0  0  0  0  0  0  0  0  0  0
   74.1208   46.0451   -5.8857 H   0  0  0  0  0  0  0  0  0  0  0  0
   73.4624   44.9703   -7.2072 H   0  0  0  0  0  0  0  0  0  0  0  0
  1  2  1  0
  2  3  2  0
  3  4  1  0
  4  5  1  0
  5  6  1  0
  6  7  1  0
  7  8  2  0
  8  9  1  0
  9 10  2  0
 10 11  1  0
 11 12  1  0
 11 13  2  0
 13 14  1  0
 14 15  2  0
 14 16  1  0
 16 17  1  0
  4 18  2  0
 18 19  1  0
 19 20  2  0
 20 21  1  0
 21 22  1  0
 20  2  1  0
 16  5  2  0
 13  7  1  0
  1 23  1  0
  1 24  1  0
  1 25  1  0
  3 26  1  0
  8 27  1  0
  9 28  1  0
 10 29  1  0
 12 30  1  0
 17 31  1  0
 18 32  1  0
 19 33  1  0
 21 34  1  0
 21 35  1  0
M  END
>  <meeko>  (5) 
{"is_sidechain": [false], "free_energy": -7.6, "intermolecular_energy": -8.659, "internal_energy": -0.444}

$$$$
cand_037_out
     RDKit          3D

 35 37  0  0  0  0  0  0  0  0999 V2000
   72.5870   39.5110    0.3220 C   0  0  0  0  0  0  0  0  0  0  0  0
   71.1200   39.4340   -0.0020 C   0  0  0  0  0  0  0  0  0  0  0  0
   70.5460   40.4350   -0.8080 C   0  0  0  0  0  0  0  0  0  0  0  0
   69.1840   40.4220   -1.1420 C   0  0  0  0  0  0  0  0  0  0  0  0
   68.6190   41.5040   -1.9750 C   0  0  0  0  0  0  0  0  0  0  0  0
   67.7140   42.3020   -1.2840 O   0  0  0  0  0  0  0  0  0  0  0  0
   67.1140   43.3460   -1.9390 C   0  0  0  0  0  0  0  0  0  0  0  0
   66.2020   44.1120   -1.2100 C   0  0  0  0  0  0  0  0  0  0  0  0
   65.5570   45.1910   -1.8170 C   0  0  0  0  0  0  0  0  0  0  0  0
   65.8240   45.5060   -3.1510 C   0  0  0  0  0  0  0  0  0  0  0  0
   66.7350   44.7420   -3.8760 C   0  0  0  0  0  0  0  0  0  0  0  0
   66.9500   45.1060   -5.1770 O   0  0  0  0  0  0  0  0  0  0  0  0
   67.3790   43.6610   -3.2680 C   0  0  0  0  0  0  0  0  0  0  0  0
   68.3430   42.8310   -3.9940 C   0  0  0  0  0  0  0  0  0  0  0  0
   68.6360   43.0490   -5.1670 O   0  0  0  0  0  0  0  0  0  0  0  0
   68.9660   41.7040   -3.2600 C   0  0  0  0  0  0  0  0  0  0  0  0
   69.8850   40.9360   -3.9510 O   0  0  0  0  0  0  0  0  0  0  0  0
   68.3860   39.3920   -0.6340 C   0  0  0  0  0  0  0  0  0  0  0  0
   68.9380   38.3960    0.1770 C   0  0  0  0  0  0  0  0  0  0  0  0
   70.3010   38.4100    0.5130 C   0  0  0  0  0  0  0  0  0  0  0  0
   70.8540   37.3030    1.3750 C   0  0  0  0  0  0  0  0  0  0  0  0
   70.7960   36.0760    0.7850 F   0  0  0  0  0  0  0  0  0  0  0  0
   72.7215   39.5181    1.4137 H   0  0  0  0  0  0  0  0  0  0  0  0
   73.1032   38.6387   -0.1054 H   0  0  0  0  0  0  0  0  0  0  0  0
   73.0090   40.4325   -0.1054 H   0  0  0  0  0  0  0  0  0  0  0  0
   71.1824   41.2488   -1.1858 H   0  0  0  0  0  0  0  0  0  0  0  0
   65.9921   43.8655   -0.1587 H   0  0  0  0  0  0  0  0  0  0  0  0
   64.8374   45.7939   -1.2437 H   0  0  0  0  0  0  0  0  0  0  0  0
   65.3154   46.3565   -3.6285 H   0  0  0  0  0  0  0  0  0  0  0  0
   66.6760   44.5410   -5.8720 H   0  0  0  0  0  0  0  0  0  0  0  0
   69.6220   40.1210   -4.3310 H   0  0  0  0  0  0  0  0  0  0  0  0
   67.3131   39.3652   -0.8750 H   0  0  0  0  0  0  0  0  0  0  0  0
   68.2946   37.5891    0.5576 H   0  0  0  0  0  0  0  0  0  0  0  0
   71.9058   37.5309    1.6025 H   0  0  0  0  0  0  0  0  0  0  0  0
   70.2325   37.2566    2.2814 H   0  0  0  0  0  0  0  0  0  0  0  0
  1  2  1  0
  2  3  2  0
  3  4  1  0
  4  5  1  0
  5  6  1  0
  6  7  1  0
  7  8  2  0
  8  9  1  0
  9 10  2  0
 10 11  1  0
 11 12  1  0
 11 13  2  0
 13 14  1  0
 14 15  2  0
 14 16  1  0
 16 17  1  0
  4 18  2  0
 18 19  1  0
 19 20  2  0
 20 21  1  0
 21 22  1  0
 20  2  1  0
 16  5  2  0
 13  7  1  0
  1 23  1  0
  1 24  1  0
  1 25  1  0
  3 26  1  0
  8 27  1  0
  9 28  1  0
 10 29  1  0
 12 30  1  0
 17 31  1  0
 18 32  1  0
 19 33  1  0
 21 34  1  0
 21 35  1  0
M  END
>  <meeko>  (6) 
{"is_sidechain": [false], "free_energy": -7.558, "intermolecular_energy": -8.747, "internal_energy": -0.307}

$$$$
cand_037_out
     RDKit          3D

 35 37  0  0  0  0  0  0  0  0999 V2000
   75.3560   43.9830   -2.9080 C   0  0  0  0  0  0  0  0  0  0  0  0
   74.2760   43.1370   -3.5270 C   0  0  0  0  0  0  0  0  0  0  0  0
   73.5070   42.3000   -2.6970 C   0  0  0  0  0  0  0  0  0  0  0  0
   72.4890   41.4850   -3.2140 C   0  0  0  0  0  0  0  0  0  0  0  0
   71.7180   40.6060   -2.3090 C   0  0  0  0  0  0  0  0  0  0  0  0
   72.4800   39.5670   -1.7870 O   0  0  0  0  0  0  0  0  0  0  0  0
   71.8870   38.6760   -0.9300 C   0  0  0  0  0  0  0  0  0  0  0  0
   72.6860   37.6400   -0.4400 C   0  0  0  0  0  0  0  0  0  0  0  0
   72.1440   36.6990    0.4370 C   0  0  0  0  0  0  0  0  0  0  0  0
   70.8060   36.7930    0.8270 C   0  0  0  0  0  0  0  0  0  0  0  0
   70.0120   37.8270    0.3390 C   0  0  0  0  0  0  0  0  0  0  0  0
   68.7110   37.8590    0.7610 O   0  0  0  0  0  0  0  0  0  0  0  0
   70.5540   38.7680   -0.5420 C   0  0  0  0  0  0  0  0  0  0  0  0
   69.7540   39.8700   -1.0790 C   0  0  0  0  0  0  0  0  0  0  0  0
   68.5730   40.0240   -0.7790 O   0  0  0  0  0  0  0  0  0  0  0  0
   70.4210   40.8100   -2.0110 C   0  0  0  0  0  0  0  0  0  0  0  0
   69.6600   41.8540   -2.5020 O   0  0  0  0  0  0  0  0  0  0  0  0
   72.2620   41.5010   -4.5940 C   0  0  0  0  0  0  0  0  0  0  0  0
   73.0250   42.3180   -5.4330 C   0  0  0  0  0  0  0  0  0  0  0  0
   74.0440   43.1330   -4.9170 C   0  0  0  0  0  0  0  0  0  0  0  0
   74.8280   44.0110   -5.8590 C   0  0  0  0  0  0  0  0  0  0  0  0
   75.6230   43.3110   -6.7170 F   0  0  0  0  0  0  0  0  0  0  0  0
   75.2833   43.9261   -1.8119 H   0  0  0  0  0  0  0  0  0  0  0  0
   76.3409   43.6136   -3.2299 H   0  0  0  0  0  0  0  0  0  0  0  0
   75.2331   45.0277   -3.2299 H   0  0  0  0  0  0  0  0  0  0  0  0
   73.7093   42.2845   -1.6159 H   0  0  0  0  0  0  0  0  0  0  0  0
   73.7403   37.5660   -0.7448 H   0  0  0  0  0  0  0  0  0  0  0  0
   72.7718   35.8818    0.8218 H   0  0  0  0  0  0  0  0  0  0  0  0
   70.3804   36.0511    1.5187 H   0  0  0  0  0  0  0  0  0  0  0  0
   68.1250   37.1670    0.5260 H   0  0  0  0  0  0  0  0  0  0  0  0
   69.6940   42.6940   -2.0860 H   0  0  0  0  0  0  0  0  0  0  0  0
   71.4748   40.8640   -5.0235 H   0  0  0  0  0  0  0  0  0  0  0  0
   72.8236   42.3221   -6.5144 H   0  0  0  0  0  0  0  0  0  0  0  0
   74.1186   44.6087   -6.4502 H   0  0  0  0  0  0  0  0  0  0  0  0
   75.4889   44.6387   -5.2432 H   0  0  0  0  0  0  0  0  0  0  0  0
  1  2  1  0
  2  3  2  0
  3  4  1  0
  4  5  1  0
  5  6  1  0
  6  7  1  0
  7  8  2  0
  8  9  1  0
  9 10  2  0
 10 11  1  0
 11 12  1  0
 11 13  2  0
 13 14  1  0
 14 15  2  0
 14 16  1  0
 16 17  1  0
  4 18  2  0
 18 19  1  0
 19 20  2  0
 20 21  1  0
 21 22  1  0
 20  2  1  0
 16  5  2  0
 13  7  1  0
  1 23  1  0
  1 24  1  0
  1 25  1  0
  3 26  1  0
  8 27  1  0
  9 28  1  0
 10 29  1  0
 12 30  1  0
 17 31  1  0
 18 32  1  0
 19 33  1  0
 21 34  1  0
 21 35  1  0
M  END
>  <meeko>  (7) 
{"is_sidechain": [false], "free_energy": -7.552, "intermolecular_energy": -8.678, "internal_energy": -0.368}

$$$$
cand_037_out
     RDKit          3D

 35 37  0  0  0  0  0  0  0  0999 V2000
   73.3310   42.4130   -6.5640 C   0  0  0  0  0  0  0  0  0  0  0  0
   73.5880   42.4070   -5.0820 C   0  0  0  0  0  0  0  0  0  0  0  0
   72.8510   41.5300   -4.2650 C   0  0  0  0  0  0  0  0  0  0  0  0
   73.0430   41.4810   -2.8760 C   0  0  0  0  0  0  0  0  0  0  0  0
   72.2330   40.5580   -2.0520 C   0  0  0  0  0  0  0  0  0  0  0  0
   70.8790   40.8760   -2.0590 O   0  0  0  0  0  0  0  0  0  0  0  0
   70.0120   40.0980   -1.3350 C   0  0  0  0  0  0  0  0  0  0  0  0
   68.6640   40.4620   -1.3580 C   0  0  0  0  0  0  0  0  0  0  0  0
   67.7290   39.7120   -0.6440 C   0  0  0  0  0  0  0  0  0  0  0  0
   68.1380   38.5990    0.0930 C   0  0  0  0  0  0  0  0  0  0  0  0
   69.4830   38.2370    0.1140 C   0  0  0  0  0  0  0  0  0  0  0  0
   69.8150   37.1360    0.8550 O   0  0  0  0  0  0  0  0  0  0  0  0
   70.4200   38.9890   -0.6000 C   0  0  0  0  0  0  0  0  0  0  0  0
   71.8420   38.6440   -0.6040 C   0  0  0  0  0  0  0  0  0  0  0  0
   72.2790   37.6760    0.0130 O   0  0  0  0  0  0  0  0  0  0  0  0
   72.7550   39.5100   -1.3880 C   0  0  0  0  0  0  0  0  0  0  0  0
   74.0940   39.1670   -1.3960 O   0  0  0  0  0  0  0  0  0  0  0  0
   73.9790   42.3480   -2.3040 C   0  0  0  0  0  0  0  0  0  0  0  0
   74.7120   43.2330   -3.1000 C   0  0  0  0  0  0  0  0  0  0  0  0
   74.5190   43.2840   -4.4890 C   0  0  0  0  0  0  0  0  0  0  0  0
   75.3460   44.2420   -5.3080 C   0  0  0  0  0  0  0  0  0  0  0  0
   76.6250   43.8160   -5.5140 F   0  0  0  0  0  0  0  0  0  0  0  0
   72.2468   42.4383   -6.7480 H   0  0  0  0  0  0  0  0  0  0  0  0
   73.8001   43.3004   -7.0139 H   0  0  0  0  0  0  0  0  0  0  0  0
   73.7582   41.5046   -7.0139 H   0  0  0  0  0  0  0  0  0  0  0  0
   72.1055   40.8660   -4.7269 H   0  0  0  0  0  0  0  0  0  0  0  0
   68.3399   41.3386   -1.9381 H   0  0  0  0  0  0  0  0  0  0  0  0
   66.6670   39.9983   -0.6618 H   0  0  0  0  0  0  0  0  0  0  0  0
   67.3997   38.0091    0.6559 H   0  0  0  0  0  0  0  0  0  0  0  0
   70.5620   37.1600    1.4200 H   0  0  0  0  0  0  0  0  0  0  0  0
   74.5160   38.9070   -0.6010 H   0  0  0  0  0  0  0  0  0  0  0  0
   74.1403   42.3335   -1.2160 H   0  0  0  0  0  0  0  0  0  0  0  0
   75.4509   43.8992   -2.6307 H   0  0  0  0  0  0  0  0  0  0  0  0
   74.8605   44.3729   -6.2864 H   0  0  0  0  0  0  0  0  0  0  0  0
   75.4052   45.1839   -4.7430 H   0  0  0  0  0  0  0  0  0  0  0  0
  1  2  1  0
  2  3  2  0
  3  4  1  0
  4  5  1  0
  5  6  1  0
  6  7  1  0
  7  8  2  0
  8  9  1  0
  9 10  2  0
 10 11  1  0
 11 12  1  0
 11 13  2  0
 13 14  1  0
 14 15  2  0
 14 16  1  0
 16 17  1  0
  4 18  2  0
 18 19  1  0
 19 20  2  0
 20 21  1  0
 21 22  1  0
 20  2  1  0
 16  5  2  0
 13  7  1  0
  1 23  1  0
  1 24  1  0
  1 25  1  0
  3 26  1  0
  8 27  1  0
  9 28  1  0
 10 29  1  0
 12 30  1  0
 17 31  1  0
 18 32  1  0
 19 33  1  0
 21 34  1  0
 21 35  1  0
M  END
>  <meeko>  (8) 
{"is_sidechain": [false], "free_energy": -7.551, "intermolecular_energy": -8.69, "internal_energy": -0.356}

$$$$
cand_037_out
     RDKit          3D

 35 37  0  0  0  0  0  0  0  0999 V2000
   73.5190   42.4700   -6.5760 C   0  0  0  0  0  0  0  0  0  0  0  0
   73.6870   42.4950   -5.0820 C   0  0  0  0  0  0  0  0  0  0  0  0
   72.8840   41.6520   -4.2910 C   0  0  0  0  0  0  0  0  0  0  0  0
   72.9910   41.6310   -2.8930 C   0  0  0  0  0  0  0  0  0  0  0  0
   72.1140   40.7440   -2.0990 C   0  0  0  0  0  0  0  0  0  0  0  0
   72.7950   39.6680   -1.5420 O   0  0  0  0  0  0  0  0  0  0  0  0
   72.1000   38.7650   -0.7800 C   0  0  0  0  0  0  0  0  0  0  0  0
   72.8210   37.6920   -0.2520 C   0  0  0  0  0  0  0  0  0  0  0  0
   72.1730   36.7380    0.5350 C   0  0  0  0  0  0  0  0  0  0  0  0
   70.8070   36.8560    0.7960 C   0  0  0  0  0  0  0  0  0  0  0  0
   70.0890   37.9270    0.2700 C   0  0  0  0  0  0  0  0  0  0  0  0
   68.7550   37.9820    0.5640 O   0  0  0  0  0  0  0  0  0  0  0  0
   70.7380   38.8810   -0.5200 C   0  0  0  0  0  0  0  0  0  0  0  0
   70.0210   40.0220   -1.0930 C   0  0  0  0  0  0  0  0  0  0  0  0
   68.8210   40.1990   -0.9030 O   0  0  0  0  0  0  0  0  0  0  0  0
   70.7990   40.9740   -1.9210 C   0  0  0  0  0  0  0  0  0  0  0  0
   70.1160   42.0550   -2.4460 O   0  0  0  0  0  0  0  0  0  0  0  0
   73.9080   42.4940   -2.2840 C   0  0  0  0  0  0  0  0  0  0  0  0
   74.7050   43.3460   -3.0540 C   0  0  0  0  0  0  0  0  0  0  0  0
   74.5980   43.3680   -4.4530 C   0  0  0  0  0  0  0  0  0  0  0  0
   75.4920   44.2900   -5.2420 C   0  0  0  0  0  0  0  0  0  0  0  0
   76.5630   43.6590   -5.8020 F   0  0  0  0  0  0  0  0  0  0  0  0
   72.4588   42.3122   -6.8232 H   0  0  0  0  0  0  0  0  0  0  0  0
   73.8555   43.4281   -6.9989 H   0  0  0  0  0  0  0  0  0  0  0  0
   74.1198   41.6514   -6.9989 H   0  0  0  0  0  0  0  0  0  0  0  0
   72.1535   40.9925   -4.7823 H   0  0  0  0  0  0  0  0  0  0  0  0
   73.8979   37.5985   -0.4558 H   0  0  0  0  0  0  0  0  0  0  0  0
   72.7401   35.8918    0.9501 H   0  0  0  0  0  0  0  0  0  0  0  0
   70.2981   36.1038    1.4166 H   0  0  0  0  0  0  0  0  0  0  0  0
   68.3260   38.8110    0.6410 H   0  0  0  0  0  0  0  0  0  0  0  0
   70.3200   42.3650   -3.3060 H   0  0  0  0  0  0  0  0  0  0  0  0
   74.0029   42.5023   -1.1881 H   0  0  0  0  0  0  0  0  0  0  0  0
   75.4272   44.0094   -2.5556 H   0  0  0  0  0  0  0  0  0  0  0  0
   74.8975   44.7478   -6.0464 H   0  0  0  0  0  0  0  0  0  0  0  0
   75.8875   45.0381   -4.5392 H   0  0  0  0  0  0  0  0  0  0  0  0
  1  2  1  0
  2  3  2  0
  3  4  1  0
  4  5  1  0
  5  6  1  0
  6  7  1  0
  7  8  2  0
  8  9  1  0
  9 10  2  0
 10 11  1  0
 11 12  1  0
 11 13  2  0
 13 14  1  0
 14 15  2  0
 14 16  1  0
 16 17  1  0
  4 18  2  0
 18 19  1  0
 19 20  2  0
 20 21  1  0
 21 22  1  0
 20  2  1  0
 16  5  2  0
 13  7  1  0
  1 23  1  0
  1 24  1  0
  1 25  1  0
  3 26  1  0
  8 27  1  0
  9 28  1  0
 10 29  1  0
 12 30  1  0
 17 31  1  0
 18 32  1  0
 19 33  1  0
 21 34  1  0
 21 35  1  0
M  END
>  <meeko>  (9) 
{"is_sidechain": [false], "free_energy": -7.51, "intermolecular_energy": -8.612, "internal_energy": -0.385}

$$$$
