cand_026_out
     RDKit          3D

 41 43  0  0  0  0  0  0  0  0999 V2000
   70.0240   42.5380   -0.5630 C   0  0  0  0  0  0  0  0  0  0  0  0
   70.9020   41.5010   -1.2090 C   0  0  0  0  0  0  0  0  0  0  0  0
   71.9050   41.9360   -2.0990 C   0  0  0  0  0  0  0  0  0  0  0  0
   72.7620   41.0340   -2.7480 C   0  0  0  0  0  0  0  0  0  0  0  0
   73.8170   41.5400   -3.6510 C   0  0  0  0  0  0  0  0  0  0  0  0
   73.3290   41.9040   -4.9020 O   0  0  0  0  0  0  0  0  0  0  0  0
   74.2030   42.3920   -5.8390 C   0  0  0  0  0  0  0  0  0  0  0  0
   73.6670   42.7580   -7.0740 C   0  0  0  0  0  0  0  0  0  0  0  0
   74.5030   43.2600   -8.0750 C   0  0  0  0  0  0  0  0  0  0  0  0
   75.8730   43.3960   -7.8380 C   0  0  0  0  0  0  0  0  0  0  0  0
   76.4050   43.0300   -6.6050 C   0  0  0  0  0  0  0  0  0  0  0  0
   77.7530   43.1890   -6.4410 O   0  0  0  0  0  0  0  0  0  0  0  0
   75.5670   42.5290   -5.6040 C   0  0  0  0  0  0  0  0  0  0  0  0
   76.0850   42.1320   -4.2930 C   0  0  0  0  0  0  0  0  0  0  0  0
   77.2790   42.2160   -4.0130 O   0  0  0  0  0  0  0  0  0  0  0  0
   75.1140   41.6190   -3.3000 C   0  0  0  0  0  0  0  0  0  0  0  0
   75.6160   41.2360   -2.0700 O   0  0  0  0  0  0  0  0  0  0  0  0
   72.6110   39.6720   -2.4810 C   0  0  0  0  0  0  0  0  0  0  0  0
   71.6200   39.2230   -1.6030 C   0  0  0  0  0  0  0  0  0  0  0  0
   70.7510   40.1210   -0.9550 C   0  0  0  0  0  0  0  0  0  0  0  0
   69.6860   39.5810   -0.0070 C   0  0  0  0  0  0  0  0  0  0  0  0
   70.1330   38.2730    0.6540 C   0  0  0  0  0  0  0  0  0  0  0  0
   68.3390   39.4020   -0.7150 C   0  0  0  0  0  0  0  0  0  0  0  0
   70.0978   42.4509    0.5311 H   0  0  0  0  0  0  0  0  0  0  0  0
   70.3516   43.5410   -0.8739 H   0  0  0  0  0  0  0  0  0  0  0  0
   68.9807   42.3803   -0.8739 H   0  0  0  0  0  0  0  0  0  0  0  0
   72.0191   43.0132   -2.2902 H   0  0  0  0  0  0  0  0  0  0  0  0
   72.5880   42.6516   -7.2595 H   0  0  0  0  0  0  0  0  0  0  0  0
   74.0822   43.5481   -9.0497 H   0  0  0  0  0  0  0  0  0  0  0  0
   76.5310   43.7922   -8.6255 H   0  0  0  0  0  0  0  0  0  0  0  0
   78.2340   42.5860   -5.9090 H   0  0  0  0  0  0  0  0  0  0  0  0
   75.5500   41.8150   -1.3360 H   0  0  0  0  0  0  0  0  0  0  0  0
   73.2785   38.9448   -2.9664 H   0  0  0  0  0  0  0  0  0  0  0  0
   71.5171   38.1442   -1.4144 H   0  0  0  0  0  0  0  0  0  0  0  0
   69.5508   40.3306    0.7866 H   0  0  0  0  0  0  0  0  0  0  0  0
   70.0953   38.3834    1.7478 H   0  0  0  0  0  0  0  0  0  0  0  0
   69.4624   37.4578    0.3444 H   0  0  0  0  0  0  0  0  0  0  0  0
   71.1622   38.0387    0.3444 H   0  0  0  0  0  0  0  0  0  0  0  0
   67.5416   39.2960    0.0353 H   0  0  0  0  0  0  0  0  0  0  0  0
   68.1359   40.2810   -1.3443 H   0  0  0  0  0  0  0  0  0  0  0  0
   68.3725   38.5004   -1.3443 H   0  0  0  0  0  0  0  0  0  0  0  0
  1  2  1  0
  2  3  2  0
  3  4  1  0
  4  5  1  0
  5  6  1  0
  6  7  1  0
  7  8  2  0
  8  9  1  0
  9 10  2  0
 10 11  1  0
 11 12  1  0
 11 13  2  0
 13 14  1  0
 14 15  2  0
 14 16  1  0
 16 17  1  0
  4 18  2  0
 18 19  1  0
 19 20  2  0
 20 21  1  0
 21 22  1  0
 21 23  1  0
 20  2  1  0
 16  5  2  0
 13  7  1  0
  1 24  1  0
  1 25  1  0
  1 26  1  0
  3 27  1  0
  8 28  1  0
  9 29  1  0
 10 30  1  0
 12 31  1  0
 17 32  1  0
 18 33  1  0
 19 34  1  0
 21 35  1  0
 22 36  1  0
 22 37  1  0
 22 38  1  0
 23 39  1  0
 23 40  1  0
 23 41  1  0
M  END
>  <meeko>  (1) 
{"is_sidechain": [false], "free_energy": -7.812, "intermolecular_energy": -9.183, "internal_energy": -0.524}

$$$$
cand_026_out
     RDKit          3D

 41 43  0  0  0  0  0  0  0  0999 V2000
   75.9280   42.0140   -2.2170 C   0  0  0  0  0  0  0  0  0  0  0  0
   74.6680   42.7430   -2.5980 C   0  0  0  0  0  0  0  0  0  0  0  0
   73.4350   42.0840   -2.4210 C   0  0  0  0  0  0  0  0  0  0  0  0
   72.2160   42.6900   -2.7570 C   0  0  0  0  0  0  0  0  0  0  0  0
   70.9470   41.9690   -2.5280 C   0  0  0  0  0  0  0  0  0  0  0  0
   70.9890   41.1430   -1.4100 O   0  0  0  0  0  0  0  0  0  0  0  0
   69.8750   40.4150   -1.0800 C   0  0  0  0  0  0  0  0  0  0  0  0
   69.9570   39.6110    0.0570 C   0  0  0  0  0  0  0  0  0  0  0  0
   68.8590   38.8410    0.4480 C   0  0  0  0  0  0  0  0  0  0  0  0
   67.6800   38.8760   -0.2990 C   0  0  0  0  0  0  0  0  0  0  0  0
   67.6000   39.6790   -1.4340 C   0  0  0  0  0  0  0  0  0  0  0  0
   66.4160   39.6660   -2.1190 O   0  0  0  0  0  0  0  0  0  0  0  0
   68.6990   40.4500   -1.8230 C   0  0  0  0  0  0  0  0  0  0  0  0
   68.6570   41.3070   -3.0090 C   0  0  0  0  0  0  0  0  0  0  0  0
   67.6590   41.3850   -3.7210 O   0  0  0  0  0  0  0  0  0  0  0  0
   69.8730   42.0890   -3.3320 C   0  0  0  0  0  0  0  0  0  0  0  0
   69.8270   42.8850   -4.4610 O   0  0  0  0  0  0  0  0  0  0  0  0
   72.2430   43.9900   -3.2670 C   0  0  0  0  0  0  0  0  0  0  0  0
   73.4580   44.6580   -3.4500 C   0  0  0  0  0  0  0  0  0  0  0  0
   74.6860   44.0530   -3.1230 C   0  0  0  0  0  0  0  0  0  0  0  0
   75.9830   44.8230   -3.3440 C   0  0  0  0  0  0  0  0  0  0  0  0
   75.8370   46.2950   -2.9460 C   0  0  0  0  0  0  0  0  0  0  0  0
   76.4770   44.6950   -4.7890 C   0  0  0  0  0  0  0  0  0  0  0  0
   76.0077   41.9679   -1.1209 H   0  0  0  0  0  0  0  0  0  0  0  0
   75.8989   40.9932   -2.6258 H   0  0  0  0  0  0  0  0  0  0  0  0
   76.7985   42.5480   -2.6258 H   0  0  0  0  0  0  0  0  0  0  0  0
   73.4287   41.0648   -2.0073 H   0  0  0  0  0  0  0  0  0  0  0  0
   70.8859   39.5833    0.6455 H   0  0  0  0  0  0  0  0  0  0  0  0
   68.9233   38.2070    1.3446 H   0  0  0  0  0  0  0  0  0  0  0  0
   66.8151   38.2699    0.0087 H   0  0  0  0  0  0  0  0  0  0  0  0
   65.6560   40.0690   -1.7470 H   0  0  0  0  0  0  0  0  0  0  0  0
   70.1740   43.7560   -4.4350 H   0  0  0  0  0  0  0  0  0  0  0  0
   71.3000   44.4930   -3.5271 H   0  0  0  0  0  0  0  0  0  0  0  0
   73.4538   45.6792   -3.8587 H   0  0  0  0  0  0  0  0  0  0  0  0
   76.7420   44.3700   -2.6892 H   0  0  0  0  0  0  0  0  0  0  0  0
   75.8286   46.3792   -1.8493 H   0  0  0  0  0  0  0  0  0  0  0  0
   76.6825   46.8701   -3.3515 H   0  0  0  0  0  0  0  0  0  0  0  0
   74.8950   46.6928   -3.3515 H   0  0  0  0  0  0  0  0  0  0  0  0
   77.5418   44.4191   -4.7894 H   0  0  0  0  0  0  0  0  0  0  0  0
   75.8966   43.9176   -5.3074 H   0  0  0  0  0  0  0  0  0  0  0  0
   76.3472   45.6564   -5.3074 H   0  0  0  0  0  0  0  0  0  0  0  0
  1  2  1  0
  2  3  2  0
  3  4  1  0
  4  5  1  0
  5  6  1  0
  6  7  1  0
  7  8  2  0
  8  9  1  0
  9 10  2  0
 10 11  1  0
 11 12  1  0
 11 13  2  0
 13 14  1  0
 14 15  2  0
 14 16  1  0
 16 17  1  0
  4 18  2  0
 18 19  1  0
 19 20  2  0
 20 21  1  0
 21 22  1  0
 21 23  1  0
 20  2  1  0
 16  5  2  0
 13  7  1  0
  1 24  1  0
  1 25  1  0
  1 26  1  0
  3 27  1  0
  8 28  1  0
  9 29  1  0
 10 30  1  0
 12 31  1  0
 17 32  1  0
 18 33  1  0
 19 34  1  0
 21 35  1  0
 22 36  1  0
 22 37  1  0
 22 38  1  0
 23 39  1  0
 23 40  1  0
 23 41  1  0
M  END
>  <meeko>  (2) 
{"is_sidechain": [false], "free_energy": -7.712, "intermolecular_energy": -9.376, "internal_energy": -0.213}

$$$$
cand_026_out
     RDKit          3D

 41 43  0  0  0  0  0  0  0  0999 V2000
   75.2390   43.9900   -2.9360 C   0  0  0  0  0  0  0  0  0  0  0  0
   74.1910   43.1020   -3.5510 C   0  0  0  0  0  0  0  0  0  0  0  0
   73.4520   42.2540   -2.7030 C   0  0  0  0  0  0  0  0  0  0  0  0
   72.4630   41.3910   -3.1960 C   0  0  0  0  0  0  0  0  0  0  0  0
   71.6950   40.5400   -2.2630 C   0  0  0  0  0  0  0  0  0  0  0  0
   72.4550   39.5080   -1.7220 O   0  0  0  0  0  0  0  0  0  0  0  0
   71.8650   38.6420   -0.8380 C   0  0  0  0  0  0  0  0  0  0  0  0
   72.6690   37.6320   -0.3090 C   0  0  0  0  0  0  0  0  0  0  0  0
   72.1300   36.7140    0.5960 C   0  0  0  0  0  0  0  0  0  0  0  0
   70.7880   36.8080    0.9710 C   0  0  0  0  0  0  0  0  0  0  0  0
   69.9880   37.8180    0.4420 C   0  0  0  0  0  0  0  0  0  0  0  0
   68.6830   37.8520    0.8520 O   0  0  0  0  0  0  0  0  0  0  0  0
   70.5280   38.7360   -0.4620 C   0  0  0  0  0  0  0  0  0  0  0  0
   69.7230   39.8120   -1.0420 C   0  0  0  0  0  0  0  0  0  0  0  0
   68.5340   39.9550   -0.7660 O   0  0  0  0  0  0  0  0  0  0  0  0
   70.3920   40.7370   -1.9850 C   0  0  0  0  0  0  0  0  0  0  0  0
   69.6190   41.7410   -2.5360 O   0  0  0  0  0  0  0  0  0  0  0  0
   72.2060   41.3970   -4.5680 C   0  0  0  0  0  0  0  0  0  0  0  0
   72.9310   42.2310   -5.4250 C   0  0  0  0  0  0  0  0  0  0  0  0
   73.9320   43.0930   -4.9380 C   0  0  0  0  0  0  0  0  0  0  0  0
   74.6950   43.9820   -5.9140 C   0  0  0  0  0  0  0  0  0  0  0  0
   73.8970   45.2400   -6.2700 C   0  0  0  0  0  0  0  0  0  0  0  0
   75.0970   43.2150   -7.1790 C   0  0  0  0  0  0  0  0  0  0  0  0
   75.1710   43.9324   -1.8396 H   0  0  0  0  0  0  0  0  0  0  0  0
   76.2366   43.6581   -3.2594 H   0  0  0  0  0  0  0  0  0  0  0  0
   75.0754   45.0286   -3.2594 H   0  0  0  0  0  0  0  0  0  0  0  0
   73.6568   42.2693   -1.6223 H   0  0  0  0  0  0  0  0  0  0  0  0
   73.7261   37.5584   -0.6041 H   0  0  0  0  0  0  0  0  0  0  0  0
   72.7629   35.9169    1.0133 H   0  0  0  0  0  0  0  0  0  0  0  0
   70.3633   36.0853    1.6833 H   0  0  0  0  0  0  0  0  0  0  0  0
   68.4410   37.4720    1.6740 H   0  0  0  0  0  0  0  0  0  0  0  0
   68.9990   41.5400   -3.2090 H   0  0  0  0  0  0  0  0  0  0  0  0
   71.4258   40.7395   -4.9790 H   0  0  0  0  0  0  0  0  0  0  0  0
   72.7144   42.2131   -6.5033 H   0  0  0  0  0  0  0  0  0  0  0  0
   75.6176   44.3004   -5.4066 H   0  0  0  0  0  0  0  0  0  0  0  0
   73.5769   45.7447   -5.3465 H   0  0  0  0  0  0  0  0  0  0  0  0
   74.5290   45.9205   -6.8596 H   0  0  0  0  0  0  0  0  0  0  0  0
   73.0121   44.9583   -6.8596 H   0  0  0  0  0  0  0  0  0  0  0  0
   75.5904   42.2736   -6.8957 H   0  0  0  0  0  0  0  0  0  0  0  0
   74.1990   42.9936   -7.7745 H   0  0  0  0  0  0  0  0  0  0  0  0
   75.7900   43.8275   -7.7745 H   0  0  0  0  0  0  0  0  0  0  0  0
  1  2  1  0
  2  3  2  0
  3  4  1  0
  4  5  1  0
  5  6  1  0
  6  7  1  0
  7  8  2  0
  8  9  1  0
  9 10  2  0
 10 11  1  0
 11 12  1  0
 11 13  2  0
 13 14  1  0
 14 15  2  0
 14 16  1  0
 16 17  1  0
  4 18  2  0
 18 19  1  0
 19 20  2  0
 20 21  1  0
 21 22  1  0
 21 23  1  0
 20  2  1  0
 16  5  2  0
 13  7  1  0
  1 24  1  0
  1 25  1  0
  1 26  1  0
  3 27  1  0
  8 28  1  0
  9 29  1  0
 10 30  1  0
 12 31  1  0
 17 32  1  0
 18 33  1  0
 19 34  1  0
 21 35  1  0
 22 36  1  0
 22 37  1  0
 22 38  1  0
 23 39  1  0
 23 40  1  0
 23 41  1  0
M  END
>  <meeko>  (3) 
{"is_sidechain": [false], "free_energy": -7.635, "intermolecular_energy": -8.956, "internal_energy": -0.541}

$$$$
cand_026_out
     RDKit          3D

 41 43  0  0  0  0  0  0  0  0999 V2000
   73.6520   42.6810   -6.9370 C   0  0  0  0  0  0  0  0  0  0  0  0
   73.2550   43.0400   -5.5310 C   0  0  0  0  0  0  0  0  0  0  0  0
   72.9700   41.9940   -4.6300 C   0  0  0  0  0  0  0  0  0  0  0  0
   72.5870   42.2430   -3.3030 C   0  0  0  0  0  0  0  0  0  0  0  0
   72.3250   41.1120   -2.3880 C   0  0  0  0  0  0  0  0  0  0  0  0
   70.9870   41.0070   -2.0280 O   0  0  0  0  0  0  0  0  0  0  0  0
   70.6040   39.9980   -1.1820 C   0  0  0  0  0  0  0  0  0  0  0  0
   69.2490   39.9220   -0.8590 C   0  0  0  0  0  0  0  0  0  0  0  0
   68.7920   38.9190    0.0000 C   0  0  0  0  0  0  0  0  0  0  0  0
   69.6920   37.9950    0.5360 C   0  0  0  0  0  0  0  0  0  0  0  0
   71.0430   38.0730    0.2130 C   0  0  0  0  0  0  0  0  0  0  0  0
   71.8680   37.1370    0.7720 O   0  0  0  0  0  0  0  0  0  0  0  0
   71.4990   39.0760   -0.6480 C   0  0  0  0  0  0  0  0  0  0  0  0
   72.9120   39.1940   -1.0140 C   0  0  0  0  0  0  0  0  0  0  0  0
   73.7630   38.4230   -0.5780 O   0  0  0  0  0  0  0  0  0  0  0  0
   73.2900   40.2880   -1.9380 C   0  0  0  0  0  0  0  0  0  0  0  0
   74.6280   40.3970   -2.2670 O   0  0  0  0  0  0  0  0  0  0  0  0
   72.5050   43.5700   -2.8780 C   0  0  0  0  0  0  0  0  0  0  0  0
   72.7830   44.6190   -3.7590 C   0  0  0  0  0  0  0  0  0  0  0  0
   73.1590   44.3780   -5.0940 C   0  0  0  0  0  0  0  0  0  0  0  0
   73.4500   45.5570   -6.0150 C   0  0  0  0  0  0  0  0  0  0  0  0
   74.7780   46.2340   -5.6600 C   0  0  0  0  0  0  0  0  0  0  0  0
   72.3020   46.5730   -6.0110 C   0  0  0  0  0  0  0  0  0  0  0  0
   74.4677   41.9434   -6.9107 H   0  0  0  0  0  0  0  0  0  0  0  0
   72.7869   42.2524   -7.4642 H   0  0  0  0  0  0  0  0  0  0  0  0
   73.9917   43.5847   -7.4642 H   0  0  0  0  0  0  0  0  0  0  0  0
   73.0501   40.9532   -4.9768 H   0  0  0  0  0  0  0  0  0  0  0  0
   68.5410   40.6509   -1.2801 H   0  0  0  0  0  0  0  0  0  0  0  0
   67.7235   38.8571    0.2541 H   0  0  0  0  0  0  0  0  0  0  0  0
   69.3328   37.2061    1.2131 H   0  0  0  0  0  0  0  0  0  0  0  0
   71.5190   36.3130    1.0520 H   0  0  0  0  0  0  0  0  0  0  0  0
   74.9110   40.2330   -3.1450 H   0  0  0  0  0  0  0  0  0  0  0  0
   72.2188   43.7925   -1.8395 H   0  0  0  0  0  0  0  0  0  0  0  0
   72.7062   45.6563   -3.4010 H   0  0  0  0  0  0  0  0  0  0  0  0
   73.5389   45.1544   -7.0348 H   0  0  0  0  0  0  0  0  0  0  0  0
   74.8817   46.2869   -4.5662 H   0  0  0  0  0  0  0  0  0  0  0  0
   75.6107   45.6504   -6.0795 H   0  0  0  0  0  0  0  0  0  0  0  0
   74.7949   47.2507   -6.0795 H   0  0  0  0  0  0  0  0  0  0  0  0
   72.0295   46.8142   -4.9730 H   0  0  0  0  0  0  0  0  0  0  0  0
   72.6217   47.4895   -6.5286 H   0  0  0  0  0  0  0  0  0  0  0  0
   71.4312   46.1443   -6.5286 H   0  0  0  0  0  0  0  0  0  0  0  0
  1  2  1  0
  2  3  2  0
  3  4  1  0
  4  5  1  0
  5  6  1  0
  6  7  1  0
  7  8  2  0
  8  9  1  0
  9 10  2  0
 10 11  1  0
 11 12  1  0
 11 13  2  0
 13 14  1  0
 14 15  2  0
 14 16  1  0
 16 17  1  0
  4 18  2  0
 18 19  1  0
 19 20  2  0
 20 21  1  0
 21 22  1  0
 21 23  1  0
 20  2  1  0
 16  5  2  0
 13  7  1  0
  1 24  1  0
  1 25  1  0
  1 26  1  0
  3 27  1  0
  8 28  1  0
  9 29  1  0
 10 30  1  0
 12 31  1  0
 17 32  1  0
 18 33  1  0
 19 34  1  0
 21 35  1  0
 22 36  1  0
 22 37  1  0
 22 38  1  0
 23 39  1  0
 23 40  1  0
 23 41  1  0
M  END
>  <meeko>  (4) 
{"is_sidechain": [false], "free_energy": -7.619, "intermolecular_energy": -8.942, "internal_energy": -0.537}

$$$$
cand_026_out
     RDKit          3D

 41 43  0  0  0  0  0  0  0  0999 V2000
   76.1430   43.5150   -2.4660 C   0  0  0  0  0  0  0  0  0  0  0  0
   74.9830   42.8420   -3.1500 C   0  0  0  0  0  0  0  0  0  0  0  0
   74.1780   41.9670   -2.3940 C   0  0  0  0  0  0  0  0  0  0  0  0
   73.0830   41.2950   -2.9560 C   0  0  0  0  0  0  0  0  0  0  0  0
   72.2510   40.4090   -2.1150 C   0  0  0  0  0  0  0  0  0  0  0  0
   70.9090   40.7740   -2.1090 O   0  0  0  0  0  0  0  0  0  0  0  0
   70.0240   40.0340   -1.3680 C   0  0  0  0  0  0  0  0  0  0  0  0
   68.6850   40.4270   -1.4030 C   0  0  0  0  0  0  0  0  0  0  0  0
   67.7310   39.7180   -0.6680 C   0  0  0  0  0  0  0  0  0  0  0  0
   68.1170   38.6170    0.0990 C   0  0  0  0  0  0  0  0  0  0  0  0
   69.4530   38.2260    0.1320 C   0  0  0  0  0  0  0  0  0  0  0  0
   69.7610   37.1400    0.9040 O   0  0  0  0  0  0  0  0  0  0  0  0
   70.4070   38.9360   -0.6040 C   0  0  0  0  0  0  0  0  0  0  0  0
   71.8210   38.5600   -0.5970 C   0  0  0  0  0  0  0  0  0  0  0  0
   72.2380   37.6080    0.0590 O   0  0  0  0  0  0  0  0  0  0  0  0
   72.7500   39.3730   -1.4160 C   0  0  0  0  0  0  0  0  0  0  0  0
   74.0850   39.0160   -1.3920 O   0  0  0  0  0  0  0  0  0  0  0  0
   72.7890   41.5230   -4.3020 C   0  0  0  0  0  0  0  0  0  0  0  0
   73.5790   42.3860   -5.0680 C   0  0  0  0  0  0  0  0  0  0  0  0
   74.6850   43.0570   -4.5130 C   0  0  0  0  0  0  0  0  0  0  0  0
   75.5150   43.9870   -5.3900 C   0  0  0  0  0  0  0  0  0  0  0  0
   74.6670   45.1290   -5.9580 C   0  0  0  0  0  0  0  0  0  0  0  0
   76.2210   43.2200   -6.5140 C   0  0  0  0  0  0  0  0  0  0  0  0
   76.0179   43.4424   -1.3755 H   0  0  0  0  0  0  0  0  0  0  0  0
   77.0800   43.0203   -2.7613 H   0  0  0  0  0  0  0  0  0  0  0  0
   76.1786   44.5740   -2.7613 H   0  0  0  0  0  0  0  0  0  0  0  0
   74.4154   41.8063   -1.3320 H   0  0  0  0  0  0  0  0  0  0  0  0
   68.3811   41.2937   -2.0084 H   0  0  0  0  0  0  0  0  0  0  0  0
   66.6757   40.0274   -0.6937 H   0  0  0  0  0  0  0  0  0  0  0  0
   67.3659   38.0587    0.6770 H   0  0  0  0  0  0  0  0  0  0  0  0
   69.0760   36.6180    1.2720 H   0  0  0  0  0  0  0  0  0  0  0  0
   74.7420   39.6670   -1.2410 H   0  0  0  0  0  0  0  0  0  0  0  0
   71.9275   41.0188   -4.7643 H   0  0  0  0  0  0  0  0  0  0  0  0
   73.3306   42.5440   -6.1279 H   0  0  0  0  0  0  0  0  0  0  0  0
   76.2900   44.4305   -4.7476 H   0  0  0  0  0  0  0  0  0  0  0  0
   74.2347   45.7112   -5.1308 H   0  0  0  0  0  0  0  0  0  0  0  0
   75.2997   45.7834   -6.5755 H   0  0  0  0  0  0  0  0  0  0  0  0
   73.8575   44.7126   -6.5755 H   0  0  0  0  0  0  0  0  0  0  0  0
   76.9048   42.4771   -6.0776 H   0  0  0  0  0  0  0  0  0  0  0  0
   75.4716   42.7080   -7.1355 H   0  0  0  0  0  0  0  0  0  0  0  0
   76.7932   43.9245   -7.1355 H   0  0  0  0  0  0  0  0  0  0  0  0
  1  2  1  0
  2  3  2  0
  3  4  1  0
  4  5  1  0
  5  6  1  0
  6  7  1  0
  7  8  2  0
  8  9  1  0
  9 10  2  0
 10 11  1  0
 11 12  1  0
 11 13  2  0
 13 14  1  0
 14 15  2  0
 14 16  1  0
 16 17  1  0
  4 18  2  0
 18 19  1  0
 19 20  2  0
 20 21  1  0
 21 22  1  0
 21 23  1  0
 20  2  1  0
 16  5  2  0
 13  7  1  0
  1 24  1  0
  1 25  1  0
  1 26  1  0
  3 27  1  0
  8 28  1  0
  9 29  1  0
 10 30  1  0
 12 31  1  0
 17 32  1  0
 18 33  1  0
 19 34  1  0
 21 35  1  0
 22 36  1  0
 22 37  1  0
 22 38  1  0
 23 39  1  0
 23 40  1  0
 23 41  1  0
M  END
>  <meeko>  (5) 
{"is_sidechain": [false], "free_energy": -7.515, "intermolecular_energy": -8.949, "internal_energy": -0.409}

$$$$
cand_026_out
     RDKit          3D

 41 43  0  0  0  0  0  0  0  0999 V2000
   71.5350   43.4860   -5.5730 C   0  0  0  0  0  0  0  0  0  0  0  0
   70.2960   43.0470   -4.8410 C   0  0  0  0  0  0  0  0  0  0  0  0
   70.4170   42.0310   -3.8710 C   0  0  0  0  0  0  0  0  0  0  0  0
   69.3110   41.5600   -3.1500 C   0  0  0  0  0  0  0  0  0  0  0  0
   69.4930   40.5120   -2.1230 C   0  0  0  0  0  0  0  0  0  0  0  0
   70.7930   40.0210   -2.0760 O   0  0  0  0  0  0  0  0  0  0  0  0
   71.1010   39.0440   -1.1660 C   0  0  0  0  0  0  0  0  0  0  0  0
   72.4210   38.5920   -1.1440 C   0  0  0  0  0  0  0  0  0  0  0  0
   72.8020   37.5950   -0.2420 C   0  0  0  0  0  0  0  0  0  0  0  0
   71.8620   37.0510    0.6370 C   0  0  0  0  0  0  0  0  0  0  0  0
   70.5450   37.5040    0.6130 C   0  0  0  0  0  0  0  0  0  0  0  0
   69.6770   36.9280    1.4990 O   0  0  0  0  0  0  0  0  0  0  0  0
   70.1660   38.5020   -0.2890 C   0  0  0  0  0  0  0  0  0  0  0  0
   68.7930   39.0060   -0.3480 C   0  0  0  0  0  0  0  0  0  0  0  0
   67.9090   38.5720    0.3880 O   0  0  0  0  0  0  0  0  0  0  0  0
   68.4950   40.0690   -1.3350 C   0  0  0  0  0  0  0  0  0  0  0  0
   67.1930   40.5290   -1.3890 O   0  0  0  0  0  0  0  0  0  0  0  0
   68.0640   42.1350   -3.4020 C   0  0  0  0  0  0  0  0  0  0  0  0
   67.9260   43.1430   -4.3610 C   0  0  0  0  0  0  0  0  0  0  0  0
   69.0300   43.6150   -5.0960 C   0  0  0  0  0  0  0  0  0  0  0  0
   68.8250   44.7140   -6.1320 C   0  0  0  0  0  0  0  0  0  0  0  0
   68.4050   46.0340   -5.4760 C   0  0  0  0  0  0  0  0  0  0  0  0
   67.8190   44.2950   -7.2090 C   0  0  0  0  0  0  0  0  0  0  0  0
   72.3126   43.7615   -4.8453 H   0  0  0  0  0  0  0  0  0  0  0  0
   71.8991   42.6622   -6.2044 H   0  0  0  0  0  0  0  0  0  0  0  0
   71.2992   44.3553   -6.2044 H   0  0  0  0  0  0  0  0  0  0  0  0
   71.4078   41.5954   -3.6744 H   0  0  0  0  0  0  0  0  0  0  0  0
   73.1610   39.0201   -1.8361 H   0  0  0  0  0  0  0  0  0  0  0  0
   73.8424   37.2383   -0.2240 H   0  0  0  0  0  0  0  0  0  0  0  0
   72.1616   36.2660    1.3470 H   0  0  0  0  0  0  0  0  0  0  0  0
   68.7530   37.0060    1.3670 H   0  0  0  0  0  0  0  0  0  0  0  0
   66.4790   39.9240   -1.3350 H   0  0  0  0  0  0  0  0  0  0  0  0
   67.1822   41.7919   -2.8410 H   0  0  0  0  0  0  0  0  0  0  0  0
   66.9322   43.5771   -4.5454 H   0  0  0  0  0  0  0  0  0  0  0  0
   69.7948   44.8764   -6.6251 H   0  0  0  0  0  0  0  0  0  0  0  0
   68.4391   45.9268   -4.3818 H   0  0  0  0  0  0  0  0  0  0  0  0
   69.0931   46.8336   -5.7877 H   0  0  0  0  0  0  0  0  0  0  0  0
   67.3814   46.2890   -5.7877 H   0  0  0  0  0  0  0  0  0  0  0  0
   66.9053   43.9144   -6.7291 H   0  0  0  0  0  0  0  0  0  0  0  0
   67.5694   45.1640   -7.8356 H   0  0  0  0  0  0  0  0  0  0  0  0
   68.2601   43.5058   -7.8356 H   0  0  0  0  0  0  0  0  0  0  0  0
  1  2  1  0
  2  3  2  0
  3  4  1  0
  4  5  1  0
  5  6  1  0
  6  7  1  0
  7  8  2  0
  8  9  1  0
  9 10  2  0
 10 11  1  0
 11 12  1  0
 11 13  2  0
 13 14  1  0
 14 15  2  0
 14 16  1  0
 16 17  1  0
  4 18  2  0
 18 19  1  0
 19 20  2  0
 20 21  1  0
 21 22  1  0
 21 23  1  0
 20  2  1  0
 16  5  2  0
 13  7  1  0
  1 24  1  0
  1 25  1  0
  1 26  1  0
  3 27  1  0
  8 28  1  0
  9 29  1  0
 10 30  1  0
 12 31  1  0
 17 32  1  0
 18 33  1  0
 19 34  1  0
 21 35  1  0
 22 36  1  0
 22 37  1  0
 22 38  1  0
 23 39  1  0
 23 40  1  0
 23 41  1  0
M  END
>  <meeko>  (6) 
{"is_sidechain": [false], "free_energy": -7.502, "intermolecular_energy": -9.365, "internal_energy": 0.023}

$$$$
cand_026_out
     RDKit          3D

 41 43  0  0  0  0  0  0  0  0999 V2000
   73.6680   42.4750   -6.4370 C   0  0  0  0  0  0  0  0  0  0  0  0
   73.9000   42.3980   -4.9520 C   0  0  0  0  0  0  0  0  0  0  0  0
   72.9990   41.6440   -4.1740 C   0  0  0  0  0  0  0  0  0  0  0  0
   73.1390   41.5270   -2.7830 C   0  0  0  0  0  0  0  0  0  0  0  0
   72.1840   40.7030   -2.0130 C   0  0  0  0  0  0  0  0  0  0  0  0
   72.7790   39.5920   -1.4250 O   0  0  0  0  0  0  0  0  0  0  0  0
   72.0050   38.7420   -0.6790 C   0  0  0  0  0  0  0  0  0  0  0  0
   72.6470   37.6480   -0.0960 C   0  0  0  0  0  0  0  0  0  0  0  0
   71.9170   36.7410    0.6740 C   0  0  0  0  0  0  0  0  0  0  0  0
   70.5450   36.9270    0.8610 C   0  0  0  0  0  0  0  0  0  0  0  0
   69.9070   38.0190    0.2790 C   0  0  0  0  0  0  0  0  0  0  0  0
   68.5630   38.1410    0.5020 O   0  0  0  0  0  0  0  0  0  0  0  0
   70.6390   38.9270   -0.4910 C   0  0  0  0  0  0  0  0  0  0  0  0
   70.0070   40.0880   -1.1220 C   0  0  0  0  0  0  0  0  0  0  0  0
   68.8050   40.3150   -1.0090 O   0  0  0  0  0  0  0  0  0  0  0  0
   70.8730   40.9930   -1.9120 C   0  0  0  0  0  0  0  0  0  0  0  0
   70.2640   42.0790   -2.5130 O   0  0  0  0  0  0  0  0  0  0  0  0
   74.2180   42.1700   -2.1720 C   0  0  0  0  0  0  0  0  0  0  0  0
   75.1210   42.9220   -2.9300 C   0  0  0  0  0  0  0  0  0  0  0  0
   74.9810   43.0520   -4.3240 C   0  0  0  0  0  0  0  0  0  0  0  0
   75.9920   43.8850   -5.1040 C   0  0  0  0  0  0  0  0  0  0  0  0
   77.4010   43.2930   -5.0090 C   0  0  0  0  0  0  0  0  0  0  0  0
   75.9840   45.3500   -4.6530 C   0  0  0  0  0  0  0  0  0  0  0  0
   72.6403   42.8161   -6.6303 H   0  0  0  0  0  0  0  0  0  0  0  0
   74.3800   43.1850   -6.8830 H   0  0  0  0  0  0  0  0  0  0  0  0
   73.8142   41.4802   -6.8830 H   0  0  0  0  0  0  0  0  0  0  0  0
   72.1619   41.1325   -4.6716 H   0  0  0  0  0  0  0  0  0  0  0  0
   73.7271   37.5009   -0.2433 H   0  0  0  0  0  0  0  0  0  0  0  0
   72.4224   35.8790    1.1340 H   0  0  0  0  0  0  0  0  0  0  0  0
   69.9697   36.2117    1.4672 H   0  0  0  0  0  0  0  0  0  0  0  0
   68.1600   37.6640    1.2000 H   0  0  0  0  0  0  0  0  0  0  0  0
   69.7390   41.9570   -3.2790 H   0  0  0  0  0  0  0  0  0  0  0  0
   74.3587   42.0840   -1.0844 H   0  0  0  0  0  0  0  0  0  0  0  0
   75.9598   43.4233   -2.4250 H   0  0  0  0  0  0  0  0  0  0  0  0
   75.6856   43.8573   -6.1601 H   0  0  0  0  0  0  0  0  0  0  0  0
   77.6791   43.1762   -3.9512 H   0  0  0  0  0  0  0  0  0  0  0  0
   77.4202   42.3108   -5.5038 H   0  0  0  0  0  0  0  0  0  0  0  0
   78.1160   43.9668   -5.5038 H   0  0  0  0  0  0  0  0  0  0  0  0
   75.9838   45.3953   -3.5539 H   0  0  0  0  0  0  0  0  0  0  0  0
   76.8794   45.8579   -5.0407 H   0  0  0  0  0  0  0  0  0  0  0  0
   75.0831   45.8481   -5.0407 H   0  0  0  0  0  0  0  0  0  0  0  0
  1  2  1  0
  2  3  2  0
  3  4  1  0
  4  5  1  0
  5  6  1  0
  6  7  1  0
  7  8  2  0
  8  9  1  0
  9 10  2  0
 10 11  1  0
 11 12  1  0
 11 13  2  0
 13 14  1  0
 14 15  2  0
 14 16  1  0
 16 17  1  0
  4 18  2  0
 18 19  1  0
 19 20  2  0
 20 21  1  0
 21 22  1  0
 21 23  1  0
 20  2  1  0
 16  5  2  0
 13  7  1  0
  1 24  1  0
  1 25  1  0
  1 26  1  0
  3 27  1  0
  8 28  1  0
  9 29  1  0
 10 30  1  0
 12 31  1  0
 17 32  1  0
 18 33  1  0
 19 34  1  0
 21 35  1  0
 22 36  1  0
 22 37  1  0
 22 38  1  0
 23 39  1  0
 23 40  1  0
 23 41  1  0
M  END
>  <meeko>  (7) 
{"is_sidechain": [false], "free_energy": -7.445, "intermolecular_energy": -8.785, "internal_energy": -0.489}

$$$$
cand_026_out
     RDKit          3D

 41 43  0  0  0  0  0  0  0  0999 V2000
   73.5120   42.3440   -6.5320 C   0  0  0  0  0  0  0  0  0  0  0  0
   73.1120   42.7580   -5.1420 C   0  0  0  0  0  0  0  0  0  0  0  0
   72.4960   41.8000   -4.3120 C   0  0  0  0  0  0  0  0  0  0  0  0
   72.0870   42.1050   -3.0050 C   0  0  0  0  0  0  0  0  0  0  0  0
   71.4690   41.0590   -2.1630 C   0  0  0  0  0  0  0  0  0  0  0  0
   72.3920   40.1340   -1.6870 O   0  0  0  0  0  0  0  0  0  0  0  0
   71.9530   39.1090   -0.8900 C   0  0  0  0  0  0  0  0  0  0  0  0
   72.9160   38.2130   -0.4220 C   0  0  0  0  0  0  0  0  0  0  0  0
   72.5350   37.1440    0.3920 C   0  0  0  0  0  0  0  0  0  0  0  0
   71.1930   36.9710    0.7380 C   0  0  0  0  0  0  0  0  0  0  0  0
   70.2350   37.8660    0.2700 C   0  0  0  0  0  0  0  0  0  0  0  0
   68.9400   37.6380    0.6470 O   0  0  0  0  0  0  0  0  0  0  0  0
   70.6160   38.9360   -0.5440 C   0  0  0  0  0  0  0  0  0  0  0  0
   69.6410   39.8990   -1.0570 C   0  0  0  0  0  0  0  0  0  0  0  0
   68.4420   39.8100   -0.8030 O   0  0  0  0  0  0  0  0  0  0  0  0
   70.1490   41.0020   -1.9060 C   0  0  0  0  0  0  0  0  0  0  0  0
   69.2180   41.8980   -2.3950 O   0  0  0  0  0  0  0  0  0  0  0  0
   72.3180   43.3950   -2.5250 C   0  0  0  0  0  0  0  0  0  0  0  0
   72.9270   44.3580   -3.3360 C   0  0  0  0  0  0  0  0  0  0  0  0
   73.3330   44.0620   -4.6510 C   0  0  0  0  0  0  0  0  0  0  0  0
   73.9910   45.1480   -5.4950 C   0  0  0  0  0  0  0  0  0  0  0  0
   75.0620   45.9040   -4.7020 C   0  0  0  0  0  0  0  0  0  0  0  0
   72.9550   46.1180   -6.0750 C   0  0  0  0  0  0  0  0  0  0  0  0
   74.2753   41.5540   -6.4739 H   0  0  0  0  0  0  0  0  0  0  0  0
   72.6307   41.9636   -7.0692 H   0  0  0  0  0  0  0  0  0  0  0  0
   73.9225   43.2117   -7.0692 H   0  0  0  0  0  0  0  0  0  0  0  0
   72.3311   40.7840   -4.7000 H   0  0  0  0  0  0  0  0  0  0  0  0
   73.9732   38.3488   -0.6940 H   0  0  0  0  0  0  0  0  0  0  0  0
   73.2929   36.4373    0.7611 H   0  0  0  0  0  0  0  0  0  0  0  0
   70.8935   36.1289    1.3793 H   0  0  0  0  0  0  0  0  0  0  0  0
   68.4450   38.3190    1.0570 H   0  0  0  0  0  0  0  0  0  0  0  0
   68.3840   41.5920   -2.6940 H   0  0  0  0  0  0  0  0  0  0  0  0
   72.0183   43.6567   -1.4995 H   0  0  0  0  0  0  0  0  0  0  0  0
   73.0925   45.3697   -2.9373 H   0  0  0  0  0  0  0  0  0  0  0  0
   74.4875   44.6447   -6.3377 H   0  0  0  0  0  0  0  0  0  0  0  0
   74.8798   45.7754   -3.6249 H   0  0  0  0  0  0  0  0  0  0  0  0
   76.0555   45.5059   -4.9559 H   0  0  0  0  0  0  0  0  0  0  0  0
   75.0196   46.9735   -4.9559 H   0  0  0  0  0  0  0  0  0  0  0  0
   72.4208   46.6181   -5.2537 H   0  0  0  0  0  0  0  0  0  0  0  0
   73.4643   46.8715   -6.6937 H   0  0  0  0  0  0  0  0  0  0  0  0
   72.2366   45.5603   -6.6937 H   0  0  0  0  0  0  0  0  0  0  0  0
  1  2  1  0
  2  3  2  0
  3  4  1  0
  4  5  1  0
  5  6  1  0
  6  7  1  0
  7  8  2  0
  8  9  1  0
  9 10  2  0
 10 11  1  0
 11 12  1  0
 11 13  2  0
 13 14  1  0
 14 15  2  0
 14 16  1  0
 16 17  1  0
  4 18  2  0
 18 19  1  0
 19 20  2  0
 20 21  1  0
 21 22  1  0
 21 23  1  0
 20  2  1  0
 16  5  2  0
 13  7  1  0
  1 24  1  0
  1 25  1  0
  1 26  1  0
  3 27  1  0
  8 28  1  0
  9 29  1  0
 10 30  1  0
 12 31  1  0
 17 32  1  0
 18 33  1  0
 19 34  1  0
 21 35  1  0
 22 36  1  0
 22 37  1  0
 22 38  1  0
 23 39  1  0
 23 40  1  0
 23 41  1  0
M  END
>  <meeko>  (8) 
{"is_sidechain": [false], "free_energy": -7.438, "intermolecular_energy": -8.668, "internal_energy": -0.599}

$$$$
cand_026_out
     RDKit          3D

 41 43  0  0  0  0  0  0  0  0999 V2000
   69.6020   42.7300   -0.8840 C   0  0  0  0  0  0  0  0  0  0  0  0
   70.7650   41.8550   -1.2660 C   0  0  0  0  0  0  0  0  0  0  0  0
   71.7500   42.3900   -2.1210 C   0  0  0  0  0  0  0  0  0  0  0  0
   72.8620   41.6390   -2.5310 C   0  0  0  0  0  0  0  0  0  0  0  0
   73.8820   42.2530   -3.4070 C   0  0  0  0  0  0  0  0  0  0  0  0
   74.8140   43.0100   -2.7040 O   0  0  0  0  0  0  0  0  0  0  0  0
   75.8190   43.6350   -3.3960 C   0  0  0  0  0  0  0  0  0  0  0  0
   76.7390   44.3710   -2.6490 C   0  0  0  0  0  0  0  0  0  0  0  0
   77.7860   45.0350   -3.2920 C   0  0  0  0  0  0  0  0  0  0  0  0
   77.9120   44.9620   -4.6810 C   0  0  0  0  0  0  0  0  0  0  0  0
   76.9930   44.2260   -5.4240 C   0  0  0  0  0  0  0  0  0  0  0  0
   77.1750   44.1970   -6.7790 O   0  0  0  0  0  0  0  0  0  0  0  0
   75.9460   43.5610   -4.7800 C   0  0  0  0  0  0  0  0  0  0  0  0
   74.9580   42.7780   -5.5230 C   0  0  0  0  0  0  0  0  0  0  0  0
   74.9980   42.6720   -6.7470 O   0  0  0  0  0  0  0  0  0  0  0  0
   73.8910   42.1060   -4.7450 C   0  0  0  0  0  0  0  0  0  0  0  0
   72.9570   41.3790   -5.4580 O   0  0  0  0  0  0  0  0  0  0  0  0
   72.9880   40.3330   -2.0550 C   0  0  0  0  0  0  0  0  0  0  0  0
   72.0200   39.7870   -1.2070 C   0  0  0  0  0  0  0  0  0  0  0  0
   70.8960   40.5300   -0.7990 C   0  0  0  0  0  0  0  0  0  0  0  0
   69.8680   39.8880    0.1250 C   0  0  0  0  0  0  0  0  0  0  0  0
   70.4970   38.7900    0.9890 C   0  0  0  0  0  0  0  0  0  0  0  0
   68.6670   39.3460   -0.6570 C   0  0  0  0  0  0  0  0  0  0  0  0
   69.5290   42.7849    0.2122 H   0  0  0  0  0  0  0  0  0  0  0  0
   69.7534   43.7401   -1.2925 H   0  0  0  0  0  0  0  0  0  0  0  0
   68.6734   42.3047   -1.2925 H   0  0  0  0  0  0  0  0  0  0  0  0
   71.6438   43.4255   -2.4767 H   0  0  0  0  0  0  0  0  0  0  0  0
   76.6399   44.4283   -1.5550 H   0  0  0  0  0  0  0  0  0  0  0  0
   78.5119   45.6159   -2.7040 H   0  0  0  0  0  0  0  0  0  0  0  0
   78.7364   45.4854   -5.1874 H   0  0  0  0  0  0  0  0  0  0  0  0
   76.8400   44.8920   -7.3120 H   0  0  0  0  0  0  0  0  0  0  0  0
   72.6300   41.7060   -6.2740 H   0  0  0  0  0  0  0  0  0  0  0  0
   73.8576   39.7274   -2.3500 H   0  0  0  0  0  0  0  0  0  0  0  0
   72.1393   38.7533   -0.8504 H   0  0  0  0  0  0  0  0  0  0  0  0
   69.5016   40.6776    0.7975 H   0  0  0  0  0  0  0  0  0  0  0  0
   70.3568   39.0347    2.0522 H   0  0  0  0  0  0  0  0  0  0  0  0
   70.0135   37.8271    0.7675 H   0  0  0  0  0  0  0  0  0  0  0  0
   71.5722   38.7200    0.7675 H   0  0  0  0  0  0  0  0  0  0  0  0
   67.8971   38.9986    0.0477 H   0  0  0  0  0  0  0  0  0  0  0  0
   68.2514   40.1438   -1.2901 H   0  0  0  0  0  0  0  0  0  0  0  0
   68.9903   38.5065   -1.2901 H   0  0  0  0  0  0  0  0  0  0  0  0
  1  2  1  0
  2  3  2  0
  3  4  1  0
  4  5  1  0
  5  6  1  0
  6  7  1  0
  7  8  2  0
  8  9  1  0
  9 10  2  0
 10 11  1  0
 11 12  1  0
 11 13  2  0
 13 14  1  0
 14 15  2  0
 14 16  1  0
 16 17  1  0
  4 18  2  0
 18 19  1  0
 19 20  2  0
 20 21  1  0
 21 22  1  0
 21 23  1  0
 20  2  1  0
 16  5  2  0
 13  7  1  0
  1 24  1  0
  1 25  1  0
  1 26  1  0
  3 27  1  0
  8 28  1  0
  9 29  1  0
 10 30  1  0
 12 31  1  0
 17 32  1  0
 18 33  1  0
 19 34  1  0
 21 35  1  0
 22 36  1  0
 22 37  1  0
 22 38  1  0
 23 39  1  0
 23 40  1  0
 23 41  1  0
M  END
>  <meeko>  (9) 
{"is_sidechain": [false], "free_energy": -7.151, "intermolecular_energy": -8.39, "internal_energy": -0.539}

$$$$
