cand_009_out
     RDKit          3D

 41 43  0  0  0  0  0  0  0  0999 V2000
   77.1800   43.4070   -2.9000 C   0  0  0  0  0  0  0  0  0  0  0  0
   75.7480   42.9650   -2.7760 C   0  0  0  0  0  0  0  0  0  0  0  0
   75.4880   41.6780   -2.2770 C   0  0  0  0  0  0  0  0  0  0  0  0
   74.1810   41.2080   -2.1390 C   0  0  0  0  0  0  0  0  0  0  0  0
   73.0950   42.0080   -2.5020 C   0  0  0  0  0  0  0  0  0  0  0  0
   71.7170   41.5030   -2.3260 C   0  0  0  0  0  0  0  0  0  0  0  0
   71.5750   40.7000   -1.2000 O   0  0  0  0  0  0  0  0  0  0  0  0
   70.3450   40.1650   -0.9160 C   0  0  0  0  0  0  0  0  0  0  0  0
   70.2460   39.3770    0.2310 C   0  0  0  0  0  0  0  0  0  0  0  0
   69.0210   38.8010    0.5760 C   0  0  0  0  0  0  0  0  0  0  0  0
   67.8970   39.0120   -0.2250 C   0  0  0  0  0  0  0  0  0  0  0  0
   67.9990   39.7990   -1.3690 C   0  0  0  0  0  0  0  0  0  0  0  0
   66.8600   39.9630   -2.1100 O   0  0  0  0  0  0  0  0  0  0  0  0
   69.2250   40.3750   -1.7150 C   0  0  0  0  0  0  0  0  0  0  0  0
   69.3750   41.2090   -2.9080 C   0  0  0  0  0  0  0  0  0  0  0  0
   68.4350   41.4340   -3.6670 O   0  0  0  0  0  0  0  0  0  0  0  0
   70.7140   41.7800   -3.1810 C   0  0  0  0  0  0  0  0  0  0  0  0
   70.8470   42.5540   -4.3180 O   0  0  0  0  0  0  0  0  0  0  0  0
   73.3530   43.2970   -2.9890 C   0  0  0  0  0  0  0  0  0  0  0  0
   74.6670   43.7950   -3.1410 C   0  0  0  0  0  0  0  0  0  0  0  0
   74.8730   45.2030   -3.6890 C   0  0  0  0  0  0  0  0  0  0  0  0
   73.7670   46.1550   -3.2220 C   0  0  0  0  0  0  0  0  0  0  0  0
   74.9860   45.2040   -5.2170 C   0  0  0  0  0  0  0  0  0  0  0  0
   77.6109   43.5400   -1.8967 H   0  0  0  0  0  0  0  0  0  0  0  0
   77.7532   42.6440   -3.4470 H   0  0  0  0  0  0  0  0  0  0  0  0
   77.2234   44.3604   -3.4470 H   0  0  0  0  0  0  0  0  0  0  0  0
   76.3288   41.0294   -1.9901 H   0  0  0  0  0  0  0  0  0  0  0  0
   74.0045   40.1980   -1.7406 H   0  0  0  0  0  0  0  0  0  0  0  0
   71.1309   39.2096    0.8625 H   0  0  0  0  0  0  0  0  0  0  0  0
   68.9418   38.1800    1.4805 H   0  0  0  0  0  0  0  0  0  0  0  0
   66.9330   38.5575    0.0472 H   0  0  0  0  0  0  0  0  0  0  0  0
   66.2390   39.2650   -2.1740 H   0  0  0  0  0  0  0  0  0  0  0  0
   71.5720   42.4190   -4.8960 H   0  0  0  0  0  0  0  0  0  0  0  0
   72.5048   43.9421   -3.2618 H   0  0  0  0  0  0  0  0  0  0  0  0
   75.8272   45.5702   -3.2832 H   0  0  0  0  0  0  0  0  0  0  0  0
   73.7419   46.1766   -2.1225 H   0  0  0  0  0  0  0  0  0  0  0  0
   73.9685   47.1666   -3.6041 H   0  0  0  0  0  0  0  0  0  0  0  0
   72.7966   45.8052   -3.6041 H   0  0  0  0  0  0  0  0  0  0  0  0
   76.0473   45.2134   -5.5062 H   0  0  0  0  0  0  0  0  0  0  0  0
   74.5039   44.3016   -5.6209 H   0  0  0  0  0  0  0  0  0  0  0  0
   74.4880   46.0978   -5.6209 H   0  0  0  0  0  0  0  0  0  0  0  0
  1  2  1  0
  2  3  2  0
  3  4  1  0
  4  5  2  0
  5  6  1  0
  6  7  1  0
  7  8  1  0
  8  9  2  0
  9 10  1  0
 10 11  2  0
 11 12  1  0
 12 13  1  0
 12 14  2  0
 14 15  1  0
 15 16  2  0
 15 17  1  0
 17 18  1  0
  5 19  1  0
 19 20  2  0
 20 21  1  0
 21 22  1  0
 21 23  1  0
 20  2  1  0
 17  6  2  0
 14  8  1  0
  1 24  1  0
  1 25  1  0
  1 26  1  0
  3 27  1  0
  4 28  1  0
  9 29  1  0
 10 30  1  0
 11 31  1  0
 13 32  1  0
 18 33  1  0
 19 34  1  0
 21 35  1  0
 22 36  1  0
 22 37  1  0
 22 38  1  0
 23 39  1  0
 23 40  1  0
 23 41  1  0
M  END
>  <meeko>  (1) 
{"is_sidechain": [false], "free_energy": -7.894, "intermolecular_energy": -9.278, "internal_energy": -0.232}

$$$$
cand_009_out
     RDKit          3D

 41 43  0  0  0  0  0  0  0  0999 V2000
   75.0370   43.5720   -6.0060 C   0  0  0  0  0  0  0  0  0  0  0  0
   74.2760   42.7580   -4.9960 C   0  0  0  0  0  0  0  0  0  0  0  0
   73.1030   42.1060   -5.4120 C   0  0  0  0  0  0  0  0  0  0  0  0
   72.3510   41.3370   -4.5210 C   0  0  0  0  0  0  0  0  0  0  0  0
   72.7460   41.2020   -3.1880 C   0  0  0  0  0  0  0  0  0  0  0  0
   71.9520   40.3630   -2.2660 C   0  0  0  0  0  0  0  0  0  0  0  0
   70.6030   40.7010   -2.2550 O   0  0  0  0  0  0  0  0  0  0  0  0
   69.7500   39.9990   -1.4430 C   0  0  0  0  0  0  0  0  0  0  0  0
   68.4020   40.3630   -1.4740 C   0  0  0  0  0  0  0  0  0  0  0  0
   67.4810   39.6900   -0.6700 C   0  0  0  0  0  0  0  0  0  0  0  0
   67.9050   38.6540    0.1670 C   0  0  0  0  0  0  0  0  0  0  0  0
   69.2500   38.2950    0.1960 C   0  0  0  0  0  0  0  0  0  0  0  0
   69.5980   37.2740    1.0380 O   0  0  0  0  0  0  0  0  0  0  0  0
   70.1720   38.9680   -0.6100 C   0  0  0  0  0  0  0  0  0  0  0  0
   71.5940   38.6210   -0.6090 C   0  0  0  0  0  0  0  0  0  0  0  0
   72.0460   37.7280    0.1050 O   0  0  0  0  0  0  0  0  0  0  0  0
   72.4880   39.3900   -1.5060 C   0  0  0  0  0  0  0  0  0  0  0  0
   73.8310   39.0630   -1.4860 O   0  0  0  0  0  0  0  0  0  0  0  0
   73.9230   41.8430   -2.7760 C   0  0  0  0  0  0  0  0  0  0  0  0
   74.7000   42.6290   -3.6570 C   0  0  0  0  0  0  0  0  0  0  0  0
   75.9620   43.3070   -3.1350 C   0  0  0  0  0  0  0  0  0  0  0  0
   76.4470   42.6650   -1.8310 C   0  0  0  0  0  0  0  0  0  0  0  0
   75.7620   44.8160   -2.9600 C   0  0  0  0  0  0  0  0  0  0  0  0
   75.6982   44.2792   -5.4838 H   0  0  0  0  0  0  0  0  0  0  0  0
   75.6408   42.9027   -6.6365 H   0  0  0  0  0  0  0  0  0  0  0  0
   74.3286   44.1294   -6.6365 H   0  0  0  0  0  0  0  0  0  0  0  0
   72.7715   42.2028   -6.4564 H   0  0  0  0  0  0  0  0  0  0  0  0
   71.4387   40.8327   -4.8724 H   0  0  0  0  0  0  0  0  0  0  0  0
   68.0667   41.1789   -2.1312 H   0  0  0  0  0  0  0  0  0  0  0  0
   66.4190   39.9755   -0.6950 H   0  0  0  0  0  0  0  0  0  0  0  0
   67.1786   38.1241    0.8007 H   0  0  0  0  0  0  0  0  0  0  0  0
   69.0060   37.0000    1.7110 H   0  0  0  0  0  0  0  0  0  0  0  0
   74.3470   39.1510   -2.2630 H   0  0  0  0  0  0  0  0  0  0  0  0
   74.2526   41.7304   -1.7326 H   0  0  0  0  0  0  0  0  0  0  0  0
   76.7441   43.1593   -3.8942 H   0  0  0  0  0  0  0  0  0  0  0  0
   76.0310   43.2156   -0.9744 H   0  0  0  0  0  0  0  0  0  0  0  0
   76.1124   41.6179   -1.7912 H   0  0  0  0  0  0  0  0  0  0  0  0
   77.5457   42.7006   -1.7912 H   0  0  0  0  0  0  0  0  0  0  0  0
   75.7297   45.0597   -1.8878 H   0  0  0  0  0  0  0  0  0  0  0  0
   76.5967   45.3538   -3.4333 H   0  0  0  0  0  0  0  0  0  0  0  0
   74.8160   45.1178   -3.4333 H   0  0  0  0  0  0  0  0  0  0  0  0
  1  2  1  0
  2  3  2  0
  3  4  1  0
  4  5  2  0
  5  6  1  0
  6  7  1  0
  7  8  1  0
  8  9  2  0
  9 10  1  0
 10 11  2  0
 11 12  1  0
 12 13  1  0
 12 14  2  0
 14 15  1  0
 15 16  2  0
 15 17  1  0
 17 18  1  0
  5 19  1  0
 19 20  2  0
 20 21  1  0
 21 22  1  0
 21 23  1  0
 20  2  1  0
 17  6  2  0
 14  8  1  0
  1 24  1  0
  1 25  1  0
  1 26  1  0
  3 27  1  0
  4 28  1  0
  9 29  1  0
 10 30  1  0
 11 31  1  0
 13 32  1  0
 18 33  1  0
 19 34  1  0
 21 35  1  0
 22 36  1  0
 22 37  1  0
 22 38  1  0
 23 39  1  0
 23 40  1  0
 23 41  1  0
M  END
>  <meeko>  (2) 
{"is_sidechain": [false], "free_energy": -7.888, "intermolecular_energy": -9.303, "internal_energy": -0.2}

$$$$
cand_009_out
     RDKit          3D

 41 43  0  0  0  0  0  0  0  0999 V2000
   74.9350   43.6990   -6.1380 C   0  0  0  0  0  0  0  0  0  0  0  0
   74.1350   42.9220   -5.1280 C   0  0  0  0  0  0  0  0  0  0  0  0
   72.9920   42.2340   -5.5690 C   0  0  0  0  0  0  0  0  0  0  0  0
   72.2070   41.4970   -4.6800 C   0  0  0  0  0  0  0  0  0  0  0  0
   72.5380   41.4310   -3.3240 C   0  0  0  0  0  0  0  0  0  0  0  0
   71.7090   40.6250   -2.4030 C   0  0  0  0  0  0  0  0  0  0  0  0
   72.4170   39.5890   -1.8060 O   0  0  0  0  0  0  0  0  0  0  0  0
   71.7690   38.7620   -0.9250 C   0  0  0  0  0  0  0  0  0  0  0  0
   72.5220   37.7440   -0.3380 C   0  0  0  0  0  0  0  0  0  0  0  0
   71.9210   36.8660    0.5670 C   0  0  0  0  0  0  0  0  0  0  0  0
   70.5680   37.0050    0.8840 C   0  0  0  0  0  0  0  0  0  0  0  0
   69.8190   38.0210    0.2970 C   0  0  0  0  0  0  0  0  0  0  0  0
   68.5000   38.1000    0.6500 O   0  0  0  0  0  0  0  0  0  0  0  0
   70.4210   38.9000   -0.6080 C   0  0  0  0  0  0  0  0  0  0  0  0
   69.6690   39.9810   -1.2470 C   0  0  0  0  0  0  0  0  0  0  0  0
   68.4740   40.1630   -1.0260 O   0  0  0  0  0  0  0  0  0  0  0  0
   70.4020   40.8640   -2.1860 C   0  0  0  0  0  0  0  0  0  0  0  0
   69.6790   41.8730   -2.7930 O   0  0  0  0  0  0  0  0  0  0  0  0
   73.6850   42.1090   -2.8870 C   0  0  0  0  0  0  0  0  0  0  0  0
   74.4940   42.8640   -3.7650 C   0  0  0  0  0  0  0  0  0  0  0  0
   75.7200   43.5850   -3.2160 C   0  0  0  0  0  0  0  0  0  0  0  0
   76.2150   42.9410   -1.9170 C   0  0  0  0  0  0  0  0  0  0  0  0
   75.4550   45.0810   -3.0180 C   0  0  0  0  0  0  0  0  0  0  0  0
   75.6293   44.3734   -5.6154 H   0  0  0  0  0  0  0  0  0  0  0  0
   75.5060   43.0016   -6.7685 H   0  0  0  0  0  0  0  0  0  0  0  0
   74.2545   44.2901   -6.7685 H   0  0  0  0  0  0  0  0  0  0  0  0
   72.7111   42.2767   -6.6317 H   0  0  0  0  0  0  0  0  0  0  0  0
   71.3195   40.9632   -5.0507 H   0  0  0  0  0  0  0  0  0  0  0  0
   73.5875   37.6332   -0.5878 H   0  0  0  0  0  0  0  0  0  0  0  0
   72.5142   36.0640    1.0306 H   0  0  0  0  0  0  0  0  0  0  0  0
   70.0950   36.3129    1.5962 H   0  0  0  0  0  0  0  0  0  0  0  0
   67.8350   37.8720    0.0300 H   0  0  0  0  0  0  0  0  0  0  0  0
   68.7550   41.9390   -2.6520 H   0  0  0  0  0  0  0  0  0  0  0  0
   73.9642   42.0510   -1.8246 H   0  0  0  0  0  0  0  0  0  0  0  0
   76.5167   43.4837   -3.9676 H   0  0  0  0  0  0  0  0  0  0  0  0
   75.7976   43.4841   -1.0563 H   0  0  0  0  0  0  0  0  0  0  0  0
   75.8893   41.8909   -1.8810 H   0  0  0  0  0  0  0  0  0  0  0  0
   77.3135   42.9856   -1.8810 H   0  0  0  0  0  0  0  0  0  0  0  0
   75.4150   45.3070   -1.9422 H   0  0  0  0  0  0  0  0  0  0  0  0
   76.2643   45.6617   -3.4848 H   0  0  0  0  0  0  0  0  0  0  0  0
   74.4955   45.3483   -3.4848 H   0  0  0  0  0  0  0  0  0  0  0  0
  1  2  1  0
  2  3  2  0
  3  4  1  0
  4  5  2  0
  5  6  1  0
  6  7  1  0
  7  8  1  0
  8  9  2  0
  9 10  1  0
 10 11  2  0
 11 12  1  0
 12 13  1  0
 12 14  2  0
 14 15  1  0
 15 16  2  0
 15 17  1  0
 17 18  1  0
  5 19  1  0
 19 20  2  0
 20 21  1  0
 21 22  1  0
 21 23  1  0
 20  2  1  0
 17  6  2  0
 14  8  1  0
  1 24  1  0
  1 25  1  0
  1 26  1  0
  3 27  1  0
  4 28  1  0
  9 29  1  0
 10 30  1  0
 11 31  1  0
 13 32  1  0
 18 33  1  0
 19 34  1  0
 21 35  1  0
 22 36  1  0
 22 37  1  0
 22 38  1  0
 23 39  1  0
 23 40  1  0
 23 41  1  0
M  END
>  <meeko>  (3) 
{"is_sidechain": [false], "free_energy": -7.877, "intermolecular_energy": -9.135, "internal_energy": -0.356}

$$$$
cand_009_out
     RDKit          3D

 41 43  0  0  0  0  0  0  0  0999 V2000
   67.8380   38.6540    0.0220 C   0  0  0  0  0  0  0  0  0  0  0  0
   69.0880   39.3190   -0.4860 C   0  0  0  0  0  0  0  0  0  0  0  0
   68.9560   40.4870   -1.2550 C   0  0  0  0  0  0  0  0  0  0  0  0
   70.0780   41.1500   -1.7570 C   0  0  0  0  0  0  0  0  0  0  0  0
   71.3630   40.6630   -1.5090 C   0  0  0  0  0  0  0  0  0  0  0  0
   72.5400   41.3920   -2.0270 C   0  0  0  0  0  0  0  0  0  0  0  0
   72.2360   42.6830   -2.4430 O   0  0  0  0  0  0  0  0  0  0  0  0
   73.2380   43.4730   -2.9450 C   0  0  0  0  0  0  0  0  0  0  0  0
   72.8900   44.7670   -3.3360 C   0  0  0  0  0  0  0  0  0  0  0  0
   73.8630   45.6220   -3.8570 C   0  0  0  0  0  0  0  0  0  0  0  0
   75.1830   45.1840   -3.9880 C   0  0  0  0  0  0  0  0  0  0  0  0
   75.5270   43.8930   -3.5970 C   0  0  0  0  0  0  0  0  0  0  0  0
   76.8370   43.5270   -3.7530 O   0  0  0  0  0  0  0  0  0  0  0  0
   74.5530   43.0370   -3.0750 C   0  0  0  0  0  0  0  0  0  0  0  0
   74.8730   41.6730   -2.6520 C   0  0  0  0  0  0  0  0  0  0  0  0
   76.0080   41.2120   -2.7430 O   0  0  0  0  0  0  0  0  0  0  0  0
   73.7700   40.8490   -2.1040 C   0  0  0  0  0  0  0  0  0  0  0  0
   74.0810   39.5580   -1.7200 O   0  0  0  0  0  0  0  0  0  0  0  0
   71.4950   39.5030   -0.7310 C   0  0  0  0  0  0  0  0  0  0  0  0
   70.3760   38.8120   -0.2150 C   0  0  0  0  0  0  0  0  0  0  0  0
   70.5950   37.5510    0.6130 C   0  0  0  0  0  0  0  0  0  0  0  0
   70.6240   37.8620    2.1130 C   0  0  0  0  0  0  0  0  0  0  0  0
   71.8640   36.8070    0.1850 C   0  0  0  0  0  0  0  0  0  0  0  0
   67.8425   38.6564    1.1220 H   0  0  0  0  0  0  0  0  0  0  0  0
   66.9569   39.2026   -0.3423 H   0  0  0  0  0  0  0  0  0  0  0  0
   67.8005   37.6167   -0.3423 H   0  0  0  0  0  0  0  0  0  0  0  0
   67.9527   40.8859   -1.4652 H   0  0  0  0  0  0  0  0  0  0  0  0
   69.9482   42.0649   -2.3537 H   0  0  0  0  0  0  0  0  0  0  0  0
   71.8507   45.1126   -3.2338 H   0  0  0  0  0  0  0  0  0  0  0  0
   73.5898   46.6421   -4.1648 H   0  0  0  0  0  0  0  0  0  0  0  0
   75.9490   45.8578   -4.3993 H   0  0  0  0  0  0  0  0  0  0  0  0
   77.2290   42.9270   -3.1510 H   0  0  0  0  0  0  0  0  0  0  0  0
   74.9250   39.2020   -1.9140 H   0  0  0  0  0  0  0  0  0  0  0  0
   72.5030   39.1189   -0.5157 H   0  0  0  0  0  0  0  0  0  0  0  0
   69.7383   36.8879    0.4225 H   0  0  0  0  0  0  0  0  0  0  0  0
   70.5367   36.9255    2.6834 H   0  0  0  0  0  0  0  0  0  0  0  0
   71.5723   38.3585    2.3663 H   0  0  0  0  0  0  0  0  0  0  0  0
   69.7838   38.5253    2.3663 H   0  0  0  0  0  0  0  0  0  0  0  0
   72.4177   36.4824    1.0784 H   0  0  0  0  0  0  0  0  0  0  0  0
   71.5885   35.9274   -0.4153 H   0  0  0  0  0  0  0  0  0  0  0  0
   72.4970   37.4770   -0.4153 H   0  0  0  0  0  0  0  0  0  0  0  0
  1  2  1  0
  2  3  2  0
  3  4  1  0
  4  5  2  0
  5  6  1  0
  6  7  1  0
  7  8  1  0
  8  9  2  0
  9 10  1  0
 10 11  2  0
 11 12  1  0
 12 13  1  0
 12 14  2  0
 14 15  1  0
 15 16  2  0
 15 17  1  0
 17 18  1  0
  5 19  1  0
 19 20  2  0
 20 21  1  0
 21 22  1  0
 21 23  1  0
 20  2  1  0
 17  6  2  0
 14  8  1  0
  1 24  1  0
  1 25  1  0
  1 26  1  0
  3 27  1  0
  4 28  1  0
  9 29  1  0
 10 30  1  0
 11 31  1  0
 13 32  1  0
 18 33  1  0
 19 34  1  0
 21 35  1  0
 22 36  1  0
 22 37  1  0
 22 38  1  0
 23 39  1  0
 23 40  1  0
 23 41  1  0
M  END
>  <meeko>  (4) 
{"is_sidechain": [false], "free_energy": -7.864, "intermolecular_energy": -9.453, "internal_energy": -0.023}

$$$$
cand_009_out
     RDKit          3D

 41 43  0  0  0  0  0  0  0  0999 V2000
   75.4080   45.7070   -3.8880 C   0  0  0  0  0  0  0  0  0  0  0  0
   74.2700   44.7860   -3.5450 C   0  0  0  0  0  0  0  0  0  0  0  0
   72.9600   45.2870   -3.6220 C   0  0  0  0  0  0  0  0  0  0  0  0
   71.8610   44.4820   -3.3130 C   0  0  0  0  0  0  0  0  0  0  0  0
   72.0390   43.1560   -2.9140 C   0  0  0  0  0  0  0  0  0  0  0  0
   70.8630   42.3120   -2.6170 C   0  0  0  0  0  0  0  0  0  0  0  0
   71.0470   41.5020   -1.5020 O   0  0  0  0  0  0  0  0  0  0  0  0
   70.0310   40.6670   -1.1120 C   0  0  0  0  0  0  0  0  0  0  0  0
   70.2550   39.8830    0.0210 C   0  0  0  0  0  0  0  0  0  0  0  0
   69.2610   39.0100    0.4700 C   0  0  0  0  0  0  0  0  0  0  0  0
   68.0460   38.9210   -0.2130 C   0  0  0  0  0  0  0  0  0  0  0  0
   67.8270   39.7040   -1.3420 C   0  0  0  0  0  0  0  0  0  0  0  0
   66.6160   39.5670   -1.9640 O   0  0  0  0  0  0  0  0  0  0  0  0
   68.8210   40.5780   -1.7920 C   0  0  0  0  0  0  0  0  0  0  0  0
   68.6300   41.4190   -2.9740 C   0  0  0  0  0  0  0  0  0  0  0  0
   67.5930   41.3920   -3.6330 O   0  0  0  0  0  0  0  0  0  0  0  0
   69.7420   42.3170   -3.3630 C   0  0  0  0  0  0  0  0  0  0  0  0
   69.5560   43.0970   -4.4890 O   0  0  0  0  0  0  0  0  0  0  0  0
   73.3460   42.6520   -2.8490 C   0  0  0  0  0  0  0  0  0  0  0  0
   74.4750   43.4460   -3.1520 C   0  0  0  0  0  0  0  0  0  0  0  0
   75.8680   42.8340   -3.0470 C   0  0  0  0  0  0  0  0  0  0  0  0
   76.0430   41.6660   -4.0230 C   0  0  0  0  0  0  0  0  0  0  0  0
   76.1880   42.4010   -1.6130 C   0  0  0  0  0  0  0  0  0  0  0  0
   75.8694   46.0804   -2.9619 H   0  0  0  0  0  0  0  0  0  0  0  0
   76.1586   45.1590   -4.4765 H   0  0  0  0  0  0  0  0  0  0  0  0
   75.0285   46.5553   -4.4765 H   0  0  0  0  0  0  0  0  0  0  0  0
   72.7969   46.3301   -3.9306 H   0  0  0  0  0  0  0  0  0  0  0  0
   70.8449   44.8971   -3.3848 H   0  0  0  0  0  0  0  0  0  0  0  0
   71.2119   39.9524    0.5590 H   0  0  0  0  0  0  0  0  0  0  0  0
   69.4356   38.3917    1.3629 H   0  0  0  0  0  0  0  0  0  0  0  0
   67.2638   38.2333    0.1410 H   0  0  0  0  0  0  0  0  0  0  0  0
   66.5670   39.5720   -2.9000 H   0  0  0  0  0  0  0  0  0  0  0  0
   69.2930   43.9920   -4.4020 H   0  0  0  0  0  0  0  0  0  0  0  0
   73.4974   41.6037   -2.5523 H   0  0  0  0  0  0  0  0  0  0  0  0
   76.5868   43.6180   -3.3275 H   0  0  0  0  0  0  0  0  0  0  0  0
   76.1828   40.7331   -3.4571 H   0  0  0  0  0  0  0  0  0  0  0  0
   75.1477   41.5801   -4.6563 H   0  0  0  0  0  0  0  0  0  0  0  0
   76.9242   41.8462   -4.6563 H   0  0  0  0  0  0  0  0  0  0  0  0
   75.6875   43.0782   -0.9052 H   0  0  0  0  0  0  0  0  0  0  0  0
   75.8308   41.3731   -1.4520 H   0  0  0  0  0  0  0  0  0  0  0  0
   77.2754   42.4408   -1.4520 H   0  0  0  0  0  0  0  0  0  0  0  0
  1  2  1  0
  2  3  2  0
  3  4  1  0
  4  5  2  0
  5  6  1  0
  6  7  1  0
  7  8  1  0
  8  9  2  0
  9 10  1  0
 10 11  2  0
 11 12  1  0
 12 13  1  0
 12 14  2  0
 14 15  1  0
 15 16  2  0
 15 17  1  0
 17 18  1  0
  5 19  1  0
 19 20  2  0
 20 21  1  0
 21 22  1  0
 21 23  1  0
 20  2  1  0
 17  6  2  0
 14  8  1  0
  1 24  1  0
  1 25  1  0
  1 26  1  0
  3 27  1  0
  4 28  1  0
  9 29  1  0
 10 30  1  0
 11 31  1  0
 13 32  1  0
 18 33  1  0
 19 34  1  0
 21 35  1  0
 22 36  1  0
 22 37  1  0
 22 38  1  0
 23 39  1  0
 23 40  1  0
 23 41  1  0
M  END
>  <meeko>  (5) 
{"is_sidechain": [false], "free_energy": -7.857, "intermolecular_energy": -9.193, "internal_energy": -0.274}

$$$$
cand_009_out
     RDKit          3D

 41 43  0  0  0  0  0  0  0  0999 V2000
   74.0260   45.9920   -5.5590 C   0  0  0  0  0  0  0  0  0  0  0  0
   73.6820   44.7550   -4.7750 C   0  0  0  0  0  0  0  0  0  0  0  0
   72.9010   44.8960   -3.6150 C   0  0  0  0  0  0  0  0  0  0  0  0
   72.5510   43.7860   -2.8430 C   0  0  0  0  0  0  0  0  0  0  0  0
   72.9750   42.5050   -3.2040 C   0  0  0  0  0  0  0  0  0  0  0  0
   72.5720   41.3400   -2.3890 C   0  0  0  0  0  0  0  0  0  0  0  0
   71.2080   41.3100   -2.1250 O   0  0  0  0  0  0  0  0  0  0  0  0
   70.6980   40.2790   -1.3780 C   0  0  0  0  0  0  0  0  0  0  0  0
   69.3210   40.2820   -1.1500 C   0  0  0  0  0  0  0  0  0  0  0  0
   68.7390   39.2620   -0.3950 C   0  0  0  0  0  0  0  0  0  0  0  0
   69.5320   38.2400    0.1320 C   0  0  0  0  0  0  0  0  0  0  0  0
   70.9050   38.2400   -0.0980 C   0  0  0  0  0  0  0  0  0  0  0  0
   71.6230   37.2110    0.4480 O   0  0  0  0  0  0  0  0  0  0  0  0
   71.4880   39.2610   -0.8530 C   0  0  0  0  0  0  0  0  0  0  0  0
   72.9270   39.2980   -1.1180 C   0  0  0  0  0  0  0  0  0  0  0  0
   73.6920   38.4400   -0.6820 O   0  0  0  0  0  0  0  0  0  0  0  0
   73.4440   40.4190   -1.9370 C   0  0  0  0  0  0  0  0  0  0  0  0
   74.8060   40.4510   -2.1690 O   0  0  0  0  0  0  0  0  0  0  0  0
   73.7440   42.3630   -4.3680 C   0  0  0  0  0  0  0  0  0  0  0  0
   74.1150   43.4700   -5.1640 C   0  0  0  0  0  0  0  0  0  0  0  0
   74.9640   43.2420   -6.4100 C   0  0  0  0  0  0  0  0  0  0  0  0
   74.1210   42.7130   -7.5750 C   0  0  0  0  0  0  0  0  0  0  0  0
   76.1470   42.3110   -6.1260 C   0  0  0  0  0  0  0  0  0  0  0  0
   74.2547   46.8142   -4.8650 H   0  0  0  0  0  0  0  0  0  0  0  0
   74.9028   45.7925   -6.1926 H   0  0  0  0  0  0  0  0  0  0  0  0
   73.1721   46.2738   -6.1926 H   0  0  0  0  0  0  0  0  0  0  0  0
   72.5600   45.8965   -3.3103 H   0  0  0  0  0  0  0  0  0  0  0  0
   71.9353   43.9219   -1.9417 H   0  0  0  0  0  0  0  0  0  0  0  0
   68.6956   41.0864   -1.5644 H   0  0  0  0  0  0  0  0  0  0  0  0
   67.6539   39.2632   -0.2148 H   0  0  0  0  0  0  0  0  0  0  0  0
   69.0727   37.4371    0.7273 H   0  0  0  0  0  0  0  0  0  0  0  0
   71.8640   36.4770   -0.0820 H   0  0  0  0  0  0  0  0  0  0  0  0
   75.2870   41.2440   -2.0350 H   0  0  0  0  0  0  0  0  0  0  0  0
   74.0691   41.3569   -4.6714 H   0  0  0  0  0  0  0  0  0  0  0  0
   75.3715   44.2203   -6.7048 H   0  0  0  0  0  0  0  0  0  0  0  0
   73.2514   42.1673   -7.1802 H   0  0  0  0  0  0  0  0  0  0  0  0
   73.7758   43.5567   -8.1906 H   0  0  0  0  0  0  0  0  0  0  0  0
   74.7306   42.0352   -8.1906 H   0  0  0  0  0  0  0  0  0  0  0  0
   76.2791   42.2071   -5.0389 H   0  0  0  0  0  0  0  0  0  0  0  0
   75.9502   41.3229   -6.5676 H   0  0  0  0  0  0  0  0  0  0  0  0
   77.0611   42.7345   -6.5676 H   0  0  0  0  0  0  0  0  0  0  0  0
  1  2  1  0
  2  3  2  0
  3  4  1  0
  4  5  2  0
  5  6  1  0
  6  7  1  0
  7  8  1  0
  8  9  2  0
  9 10  1  0
 10 11  2  0
 11 12  1  0
 12 13  1  0
 12 14  2  0
 14 15  1  0
 15 16  2  0
 15 17  1  0
 17 18  1  0
  5 19  1  0
 19 20  2  0
 20 21  1  0
 21 22  1  0
 21 23  1  0
 20  2  1  0
 17  6  2  0
 14  8  1  0
  1 24  1  0
  1 25  1  0
  1 26  1  0
  3 27  1  0
  4 28  1  0
  9 29  1  0
 10 30  1  0
 11 31  1  0
 13 32  1  0
 18 33  1  0
 19 34  1  0
 21 35  1  0
 22 36  1  0
 22 37  1  0
 22 38  1  0
 23 39  1  0
 23 40  1  0
 23 41  1  0
M  END
>  <meeko>  (6) 
{"is_sidechain": [false], "free_energy": -7.79, "intermolecular_energy": -8.97, "internal_energy": -0.419}

$$$$
cand_009_out
     RDKit          3D

 41 43  0  0  0  0  0  0  0  0999 V2000
   72.2780   36.6240    0.0650 C   0  0  0  0  0  0  0  0  0  0  0  0
   72.0470   37.8760   -0.7370 C   0  0  0  0  0  0  0  0  0  0  0  0
   73.0110   38.2450   -1.6900 C   0  0  0  0  0  0  0  0  0  0  0  0
   72.8550   39.3960   -2.4640 C   0  0  0  0  0  0  0  0  0  0  0  0
   71.7340   40.2150   -2.3050 C   0  0  0  0  0  0  0  0  0  0  0  0
   71.5740   41.4170   -3.1510 C   0  0  0  0  0  0  0  0  0  0  0  0
   72.6500   42.2910   -3.0580 O   0  0  0  0  0  0  0  0  0  0  0  0
   72.6320   43.4480   -3.7940 C   0  0  0  0  0  0  0  0  0  0  0  0
   73.7410   44.2880   -3.6810 C   0  0  0  0  0  0  0  0  0  0  0  0
   73.7840   45.4840   -4.4030 C   0  0  0  0  0  0  0  0  0  0  0  0
   72.7200   45.8380   -5.2360 C   0  0  0  0  0  0  0  0  0  0  0  0
   71.6160   44.9970   -5.3460 C   0  0  0  0  0  0  0  0  0  0  0  0
   70.6090   45.4050   -6.1780 O   0  0  0  0  0  0  0  0  0  0  0  0
   71.5730   43.8010   -4.6240 C   0  0  0  0  0  0  0  0  0  0  0  0
   70.4320   42.8890   -4.7120 C   0  0  0  0  0  0  0  0  0  0  0  0
   69.4550   43.1340   -5.4160 O   0  0  0  0  0  0  0  0  0  0  0  0
   70.4870   41.6430   -3.9130 C   0  0  0  0  0  0  0  0  0  0  0  0
   69.3980   40.7960   -3.9930 O   0  0  0  0  0  0  0  0  0  0  0  0
   70.7670   39.8410   -1.3610 C   0  0  0  0  0  0  0  0  0  0  0  0
   70.9030   38.6830   -0.5630 C   0  0  0  0  0  0  0  0  0  0  0  0
   69.8160   38.3440    0.4510 C   0  0  0  0  0  0  0  0  0  0  0  0
   68.4640   38.9390    0.0450 C   0  0  0  0  0  0  0  0  0  0  0  0
   70.2050   38.7870    1.8660 C   0  0  0  0  0  0  0  0  0  0  0  0
   72.2340   36.8625    1.1379 H   0  0  0  0  0  0  0  0  0  0  0  0
   71.5012   35.8841   -0.1783 H   0  0  0  0  0  0  0  0  0  0  0  0
   73.2677   36.2101   -0.1783 H   0  0  0  0  0  0  0  0  0  0  0  0
   73.9032   37.6167   -1.8285 H   0  0  0  0  0  0  0  0  0  0  0  0
   73.6221   39.6610   -3.2065 H   0  0  0  0  0  0  0  0  0  0  0  0
   74.5791   44.0094   -3.0253 H   0  0  0  0  0  0  0  0  0  0  0  0
   74.6570   46.1475   -4.3151 H   0  0  0  0  0  0  0  0  0  0  0  0
   72.7544   46.7794   -5.8039 H   0  0  0  0  0  0  0  0  0  0  0  0
   70.2530   46.2670   -6.0940 H   0  0  0  0  0  0  0  0  0  0  0  0
   68.9610   40.5180   -3.2120 H   0  0  0  0  0  0  0  0  0  0  0  0
   69.8730   40.4699   -1.2376 H   0  0  0  0  0  0  0  0  0  0  0  0
   69.7136   37.2488    0.4595 H   0  0  0  0  0  0  0  0  0  0  0  0
   67.8888   39.1921    0.9478 H   0  0  0  0  0  0  0  0  0  0  0  0
   68.6280   39.8481   -0.5522 H   0  0  0  0  0  0  0  0  0  0  0  0
   67.9044   38.2040   -0.5522 H   0  0  0  0  0  0  0  0  0  0  0  0
   69.6664   38.1736    2.6033 H   0  0  0  0  0  0  0  0  0  0  0  0
   71.2888   38.6600    2.0050 H   0  0  0  0  0  0  0  0  0  0  0  0
   69.9390   39.8453    2.0050 H   0  0  0  0  0  0  0  0  0  0  0  0
  1  2  1  0
  2  3  2  0
  3  4  1  0
  4  5  2  0
  5  6  1  0
  6  7  1  0
  7  8  1  0
  8  9  2  0
  9 10  1  0
 10 11  2  0
 11 12  1  0
 12 13  1  0
 12 14  2  0
 14 15  1  0
 15 16  2  0
 15 17  1  0
 17 18  1  0
  5 19  1  0
 19 20  2  0
 20 21  1  0
 21 22  1  0
 21 23  1  0
 20  2  1  0
 17  6  2  0
 14  8  1  0
  1 24  1  0
  1 25  1  0
  1 26  1  0
  3 27  1  0
  4 28  1  0
  9 29  1  0
 10 30  1  0
 11 31  1  0
 13 32  1  0
 18 33  1  0
 19 34  1  0
 21 35  1  0
 22 36  1  0
 22 37  1  0
 22 38  1  0
 23 39  1  0
 23 40  1  0
 23 41  1  0
M  END
>  <meeko>  (7) 
{"is_sidechain": [false], "free_energy": -7.787, "intermolecular_energy": -9.057, "internal_energy": -0.328}

$$$$
cand_009_out
     RDKit          3D

 41 43  0  0  0  0  0  0  0  0999 V2000
   76.5050   43.7580   -4.4890 C   0  0  0  0  0  0  0  0  0  0  0  0
   75.4100   42.9570   -3.8410 C   0  0  0  0  0  0  0  0  0  0  0  0
   75.6920   42.2950   -2.6340 C   0  0  0  0  0  0  0  0  0  0  0  0
   74.7180   41.5330   -1.9840 C   0  0  0  0  0  0  0  0  0  0  0  0
   73.4370   41.4060   -2.5240 C   0  0  0  0  0  0  0  0  0  0  0  0
   72.4110   40.6170   -1.8100 C   0  0  0  0  0  0  0  0  0  0  0  0
   72.9320   39.4830   -1.1980 O   0  0  0  0  0  0  0  0  0  0  0  0
   72.0890   38.6590   -0.4980 C   0  0  0  0  0  0  0  0  0  0  0  0
   72.6570   37.5400    0.1130 C   0  0  0  0  0  0  0  0  0  0  0  0
   71.8530   36.6590    0.8390 C   0  0  0  0  0  0  0  0  0  0  0  0
   70.4810   36.8970    0.9560 C   0  0  0  0  0  0  0  0  0  0  0  0
   69.9170   38.0140    0.3460 C   0  0  0  0  0  0  0  0  0  0  0  0
   68.5680   38.1860    0.4980 O   0  0  0  0  0  0  0  0  0  0  0  0
   70.7220   38.8960   -0.3820 C   0  0  0  0  0  0  0  0  0  0  0  0
   70.1690   40.0810   -1.0370 C   0  0  0  0  0  0  0  0  0  0  0  0
   68.9720   40.3540   -0.9880 O   0  0  0  0  0  0  0  0  0  0  0  0
   71.1090   40.9560   -1.7770 C   0  0  0  0  0  0  0  0  0  0  0  0
   70.5730   42.0660   -2.4040 O   0  0  0  0  0  0  0  0  0  0  0  0
   73.1510   42.0760   -3.7230 C   0  0  0  0  0  0  0  0  0  0  0  0
   74.1200   42.8500   -4.4010 C   0  0  0  0  0  0  0  0  0  0  0  0
   73.7420   43.5410   -5.7070 C   0  0  0  0  0  0  0  0  0  0  0  0
   72.3870   44.2490   -5.5960 C   0  0  0  0  0  0  0  0  0  0  0  0
   73.7530   42.5640   -6.8870 C   0  0  0  0  0  0  0  0  0  0  0  0
   77.1328   44.2172   -3.7112 H   0  0  0  0  0  0  0  0  0  0  0  0
   77.1219   43.0965   -5.1149 H   0  0  0  0  0  0  0  0  0  0  0  0
   76.0614   44.5463   -5.1149 H   0  0  0  0  0  0  0  0  0  0  0  0
   76.6965   42.3781   -2.1935 H   0  0  0  0  0  0  0  0  0  0  0  0
   74.9628   41.0283   -1.0378 H   0  0  0  0  0  0  0  0  0  0  0  0
   73.7371   37.3523    0.0227 H   0  0  0  0  0  0  0  0  0  0  0  0
   72.3002   35.7764    1.3195 H   0  0  0  0  0  0  0  0  0  0  0  0
   69.8481   36.2033    1.5288 H   0  0  0  0  0  0  0  0  0  0  0  0
   68.2370   38.6500    1.2420 H   0  0  0  0  0  0  0  0  0  0  0  0
   70.1490   42.7310   -1.8980 H   0  0  0  0  0  0  0  0  0  0  0  0
   72.1400   41.9964   -4.1492 H   0  0  0  0  0  0  0  0  0  0  0  0
   74.5078   44.3067   -5.9000 H   0  0  0  0  0  0  0  0  0  0  0  0
   72.1294   44.3836   -4.5351 H   0  0  0  0  0  0  0  0  0  0  0  0
   72.4455   45.2318   -6.0866 H   0  0  0  0  0  0  0  0  0  0  0  0
   71.6137   43.6397   -6.0866 H   0  0  0  0  0  0  0  0  0  0  0  0
   73.7646   41.5314   -6.5080 H   0  0  0  0  0  0  0  0  0  0  0  0
   72.8530   42.7194   -7.5001 H   0  0  0  0  0  0  0  0  0  0  0  0
   74.6492   42.7397   -7.5001 H   0  0  0  0  0  0  0  0  0  0  0  0
  1  2  1  0
  2  3  2  0
  3  4  1  0
  4  5  2  0
  5  6  1  0
  6  7  1  0
  7  8  1  0
  8  9  2  0
  9 10  1  0
 10 11  2  0
 11 12  1  0
 12 13  1  0
 12 14  2  0
 14 15  1  0
 15 16  2  0
 15 17  1  0
 17 18  1  0
  5 19  1  0
 19 20  2  0
 20 21  1  0
 21 22  1  0
 21 23  1  0
 20  2  1  0
 17  6  2  0
 14  8  1  0
  1 24  1  0
  1 25  1  0
  1 26  1  0
  3 27  1  0
  4 28  1  0
  9 29  1  0
 10 30  1  0
 11 31  1  0
 13 32  1  0
 18 33  1  0
 19 34  1  0
 21 35  1  0
 22 36  1  0
 22 37  1  0
 22 38  1  0
 23 39  1  0
 23 40  1  0
 23 41  1  0
M  END
>  <meeko>  (8) 
{"is_sidechain": [false], "free_energy": -7.677, "intermolecular_energy": -9.032, "internal_energy": -0.223}

$$$$
cand_009_out
     RDKit          3D

 41 43  0  0  0  0  0  0  0  0999 V2000
   70.2720   38.5730   -0.0420 C   0  0  0  0  0  0  0  0  0  0  0  0
   71.2150   39.3410   -0.9280 C   0  0  0  0  0  0  0  0  0  0  0  0
   72.4080   38.7190   -1.3310 C   0  0  0  0  0  0  0  0  0  0  0  0
   73.3250   39.3800   -2.1510 C   0  0  0  0  0  0  0  0  0  0  0  0
   73.0790   40.6840   -2.5870 C   0  0  0  0  0  0  0  0  0  0  0  0
   74.0480   41.3590   -3.4750 C   0  0  0  0  0  0  0  0  0  0  0  0
   73.5050   41.7020   -4.7080 O   0  0  0  0  0  0  0  0  0  0  0  0
   74.2970   42.3370   -5.6290 C   0  0  0  0  0  0  0  0  0  0  0  0
   73.7050   42.6760   -6.8470 C   0  0  0  0  0  0  0  0  0  0  0  0
   74.4570   43.3220   -7.8300 C   0  0  0  0  0  0  0  0  0  0  0  0
   75.8000   43.6300   -7.5970 C   0  0  0  0  0  0  0  0  0  0  0  0
   76.3870   43.2910   -6.3810 C   0  0  0  0  0  0  0  0  0  0  0  0
   77.7050   43.6190   -6.2180 O   0  0  0  0  0  0  0  0  0  0  0  0
   75.6340   42.6440   -5.3970 C   0  0  0  0  0  0  0  0  0  0  0  0
   76.2130   42.2700   -4.1050 C   0  0  0  0  0  0  0  0  0  0  0  0
   77.3880   42.4990   -3.8280 O   0  0  0  0  0  0  0  0  0  0  0  0
   75.3270   41.5950   -3.1270 C   0  0  0  0  0  0  0  0  0  0  0  0
   75.8890   41.2350   -1.9160 O   0  0  0  0  0  0  0  0  0  0  0  0
   71.8820   41.3010   -2.1940 C   0  0  0  0  0  0  0  0  0  0  0  0
   70.9400   40.6550   -1.3620 C   0  0  0  0  0  0  0  0  0  0  0  0
   69.6660   41.3920   -0.9650 C   0  0  0  0  0  0  0  0  0  0  0  0
   68.5580   41.2000   -2.0070 C   0  0  0  0  0  0  0  0  0  0  0  0
   69.9280   42.8800   -0.7150 C   0  0  0  0  0  0  0  0  0  0  0  0
   70.5157   38.7715    1.0121 H   0  0  0  0  0  0  0  0  0  0  0  0
   69.2383   38.8894   -0.2452 H   0  0  0  0  0  0  0  0  0  0  0  0
   70.3726   37.4966   -0.2452 H   0  0  0  0  0  0  0  0  0  0  0  0
   72.6237   37.6940   -0.9951 H   0  0  0  0  0  0  0  0  0  0  0  0
   74.2499   38.8688   -2.4565 H   0  0  0  0  0  0  0  0  0  0  0  0
   72.6479   42.4345   -7.0319 H   0  0  0  0  0  0  0  0  0  0  0  0
   73.9913   43.5891   -8.7901 H   0  0  0  0  0  0  0  0  0  0  0  0
   76.3917   44.1389   -8.3722 H   0  0  0  0  0  0  0  0  0  0  0  0
   78.1780   43.2990   -5.4750 H   0  0  0  0  0  0  0  0  0  0  0  0
   76.7880   41.4310   -1.7390 H   0  0  0  0  0  0  0  0  0  0  0  0
   71.6696   42.3216   -2.5452 H   0  0  0  0  0  0  0  0  0  0  0  0
   69.3201   40.9500   -0.0190 H   0  0  0  0  0  0  0  0  0  0  0  0
   67.5985   41.0337   -1.4955 H   0  0  0  0  0  0  0  0  0  0  0  0
   68.4869   42.0992   -2.6366 H   0  0  0  0  0  0  0  0  0  0  0  0
   68.7936   40.3293   -2.6366 H   0  0  0  0  0  0  0  0  0  0  0  0
   69.9614   43.0695    0.3680 H   0  0  0  0  0  0  0  0  0  0  0  0
   70.8899   43.1639   -1.1667 H   0  0  0  0  0  0  0  0  0  0  0  0
   69.1209   43.4754   -1.1667 H   0  0  0  0  0  0  0  0  0  0  0  0
  1  2  1  0
  2  3  2  0
  3  4  1  0
  4  5  2  0
  5  6  1  0
  6  7  1  0
  7  8  1  0
  8  9  2  0
  9 10  1  0
 10 11  2  0
 11 12  1  0
 12 13  1  0
 12 14  2  0
 14 15  1  0
 15 16  2  0
 15 17  1  0
 17 18  1  0
  5 19  1  0
 19 20  2  0
 20 21  1  0
 21 22  1  0
 21 23  1  0
 20  2  1  0
 17  6  2  0
 14  8  1  0
  1 24  1  0
  1 25  1  0
  1 26  1  0
  3 27  1  0
  4 28  1  0
  9 29  1  0
 10 30  1  0
 11 31  1  0
 13 32  1  0
 18 33  1  0
 19 34  1  0
 21 35  1  0
 22 36  1  0
 22 37  1  0
 22 38  1  0
 23 39  1  0
 23 40  1  0
 23 41  1  0
M  END
>  <meeko>  (9) 
{"is_sidechain": [false], "free_energy": -7.675, "intermolecular_energy": -8.786, "internal_energy": -0.468}

$$$$
