cand_056_out
     RDKit          3D

 50 53  0  0  0  0  0  0  0  0999 V2000
   75.5420   49.3910   -2.0570 C   0  0  0  0  0  0  0  0  0  0  0  0
   75.0480   48.0270   -2.2380 N   0  0  0  0  0  0  0  0  0  0  0  0
   73.7800   48.0310   -3.0050 C   0  0  0  0  0  0  0  0  0  0  0  0
   73.2460   46.6020   -3.2710 C   0  0  0  0  0  0  0  0  0  0  0  0
   74.2740   45.8060   -3.9810 N   0  0  0  0  0  0  0  0  0  0  0  0
   73.8240   44.5350   -4.3800 C   0  0  0  0  0  0  0  0  0  0  0  0
   73.4150   43.5640   -3.4460 C   0  0  0  0  0  0  0  0  0  0  0  0
   72.9570   42.2990   -3.8430 C   0  0  0  0  0  0  0  0  0  0  0  0
   72.5460   41.2780   -2.8570 C   0  0  0  0  0  0  0  0  0  0  0  0
   71.1760   41.2690   -2.6260 O   0  0  0  0  0  0  0  0  0  0  0  0
   70.6610   40.3660   -1.7310 C   0  0  0  0  0  0  0  0  0  0  0  0
   69.2780   40.3820   -1.5410 C   0  0  0  0  0  0  0  0  0  0  0  0
   68.6890   39.4900   -0.6420 C   0  0  0  0  0  0  0  0  0  0  0  0
   69.4810   38.5830    0.0650 C   0  0  0  0  0  0  0  0  0  0  0  0
   70.8600   38.5700   -0.1270 C   0  0  0  0  0  0  0  0  0  0  0  0
   71.5760   37.6570    0.5990 O   0  0  0  0  0  0  0  0  0  0  0  0
   71.4490   39.4620   -1.0260 C   0  0  0  0  0  0  0  0  0  0  0  0
   72.8940   39.4810   -1.2570 C   0  0  0  0  0  0  0  0  0  0  0  0
   73.6590   38.7200   -0.6680 O   0  0  0  0  0  0  0  0  0  0  0  0
   73.4180   40.4610   -2.2370 C   0  0  0  0  0  0  0  0  0  0  0  0
   74.7850   40.4800   -2.4390 O   0  0  0  0  0  0  0  0  0  0  0  0
   72.9300   41.9990   -5.2090 C   0  0  0  0  0  0  0  0  0  0  0  0
   73.3360   42.9470   -6.1500 C   0  0  0  0  0  0  0  0  0  0  0  0
   73.7850   44.2190   -5.7490 C   0  0  0  0  0  0  0  0  0  0  0  0
   74.2150   45.2270   -6.7870 C   0  0  0  0  0  0  0  0  0  0  0  0
   74.2880   44.6890   -8.0450 F   0  0  0  0  0  0  0  0  0  0  0  0
   75.4550   45.7510   -6.5620 F   0  0  0  0  0  0  0  0  0  0  0  0
   73.3640   46.2870   -6.9120 F   0  0  0  0  0  0  0  0  0  0  0  0
   75.5470   45.7640   -3.2240 C   0  0  0  0  0  0  0  0  0  0  0  0
   76.0490   47.2040   -2.9570 C   0  0  0  0  0  0  0  0  0  0  0  0
   75.6222   49.6124   -0.9825 H   0  0  0  0  0  0  0  0  0  0  0  0
   76.5322   49.4876   -2.5262 H   0  0  0  0  0  0  0  0  0  0  0  0
   74.8433   50.0993   -2.5262 H   0  0  0  0  0  0  0  0  0  0  0  0
   74.8840   47.6270   -1.3140 H   0  0  0  0  0  0  0  0  0  0  0  0
   73.0238   48.5901   -2.4344 H   0  0  0  0  0  0  0  0  0  0  0  0
   73.9791   48.5012   -3.9793 H   0  0  0  0  0  0  0  0  0  0  0  0
   73.0064   46.1175   -2.3129 H   0  0  0  0  0  0  0  0  0  0  0  0
   72.3404   46.6626   -3.8925 H   0  0  0  0  0  0  0  0  0  0  0  0
   73.4558   43.8045   -2.3734 H   0  0  0  0  0  0  0  0  0  0  0  0
   68.6534   41.0957   -2.0982 H   0  0  0  0  0  0  0  0  0  0  0  0
   67.5995   39.5020   -0.4907 H   0  0  0  0  0  0  0  0  0  0  0  0
   69.0164   37.8802    0.7722 H   0  0  0  0  0  0  0  0  0  0  0  0
   72.3210   37.9350    1.0960 H   0  0  0  0  0  0  0  0  0  0  0  0
   75.3360   39.8750   -1.9820 H   0  0  0  0  0  0  0  0  0  0  0  0
   72.5865   41.0092   -5.5441 H   0  0  0  0  0  0  0  0  0  0  0  0
   73.3045   42.6960   -7.2205 H   0  0  0  0  0  0  0  0  0  0  0  0
   75.3842   45.2508   -2.2648 H   0  0  0  0  0  0  0  0  0  0  0  0
   76.3008   45.2210   -3.8130 H   0  0  0  0  0  0  0  0  0  0  0  0
   76.9650   47.1520   -2.3502 H   0  0  0  0  0  0  0  0  0  0  0  0
   76.2371   47.6796   -3.9309 H   0  0  0  0  0  0  0  0  0  0  0  0
  1  2  1  0
  2  3  1  0
  3  4  1  0
  4  5  1  0
  5  6  1  0
  6  7  2  0
  7  8  1  0
  8  9  1  0
  9 10  1  0
 10 11  1  0
 11 12  2  0
 12 13  1  0
 13 14  2  0
 14 15  1  0
 15 16  1  0
 15 17  2  0
 17 18  1  0
 18 19  2  0
 18 20  1  0
 20 21  1  0
  8 22  2  0
 22 23  1  0
 23 24  2  0
 24 25  1  0
 25 26  1  0
 25 27  1  0
 25 28  1  0
  5 29  1  0
 29 30  1  0
 30  2  1  0
 24  6  1  0
 20  9  2  0
 17 11  1  0
  1 31  1  0
  1 32  1  0
  1 33  1  0
  2 34  1  0
  3 35  1  0
  3 36  1  0
  4 37  1  0
  4 38  1  0
  7 39  1  0
 12 40  1  0
 13 41  1  0
 14 42  1  0
 16 43  1  0
 21 44  1  0
 22 45  1  0
 23 46  1  0
 29 47  1  0
 29 48  1  0
 30 49  1  0
 30 50  1  0
M  CHG  1   2   1
M  END
>  <meeko>  (1) 
{"is_sidechain": [false], "free_energy": -7.699, "intermolecular_energy": -9.499, "internal_energy": -0.782}

$$$$
cand_056_out
     RDKit          3D

 50 53  0  0  0  0  0  0  0  0999 V2000
   74.6070   49.2040   -5.7050 C   0  0  0  0  0  0  0  0  0  0  0  0
   74.1670   47.8970   -5.2180 N   0  0  0  0  0  0  0  0  0  0  0  0
   74.9480   46.8130   -5.8590 C   0  0  0  0  0  0  0  0  0  0  0  0
   74.5570   45.4120   -5.3330 C   0  0  0  0  0  0  0  0  0  0  0  0
   74.7230   45.3630   -3.8610 N   0  0  0  0  0  0  0  0  0  0  0  0
   74.5140   44.0850   -3.3140 C   0  0  0  0  0  0  0  0  0  0  0  0
   73.2250   43.5360   -3.1740 C   0  0  0  0  0  0  0  0  0  0  0  0
   73.0170   42.2570   -2.6370 C   0  0  0  0  0  0  0  0  0  0  0  0
   71.6600   41.6950   -2.4760 C   0  0  0  0  0  0  0  0  0  0  0  0
   71.5270   40.9220   -1.3290 O   0  0  0  0  0  0  0  0  0  0  0  0
   70.3150   40.3410   -1.0580 C   0  0  0  0  0  0  0  0  0  0  0  0
   70.2220   39.5860    0.1120 C   0  0  0  0  0  0  0  0  0  0  0  0
   69.0160   38.9650    0.4460 C   0  0  0  0  0  0  0  0  0  0  0  0
   67.9050   39.0990   -0.3890 C   0  0  0  0  0  0  0  0  0  0  0  0
   68.0000   39.8520   -1.5550 C   0  0  0  0  0  0  0  0  0  0  0  0
   66.8750   39.9410   -2.3280 O   0  0  0  0  0  0  0  0  0  0  0  0
   69.2070   40.4740   -1.8900 C   0  0  0  0  0  0  0  0  0  0  0  0
   69.3500   41.2740   -3.1060 C   0  0  0  0  0  0  0  0  0  0  0  0
   68.4200   41.4330   -3.8950 O   0  0  0  0  0  0  0  0  0  0  0  0
   70.6690   41.8980   -3.3650 C   0  0  0  0  0  0  0  0  0  0  0  0
   70.7980   42.6410   -4.5230 O   0  0  0  0  0  0  0  0  0  0  0  0
   74.1290   41.5240   -2.2130 C   0  0  0  0  0  0  0  0  0  0  0  0
   75.4150   42.0530   -2.3390 C   0  0  0  0  0  0  0  0  0  0  0  0
   75.6220   43.3310   -2.8890 C   0  0  0  0  0  0  0  0  0  0  0  0
   77.0230   43.8780   -3.0170 C   0  0  0  0  0  0  0  0  0  0  0  0
   77.9700   43.0230   -2.5180 F   0  0  0  0  0  0  0  0  0  0  0  0
   77.2200   45.0470   -2.3400 F   0  0  0  0  0  0  0  0  0  0  0  0
   77.4090   44.1080   -4.3060 F   0  0  0  0  0  0  0  0  0  0  0  0
   73.9310   46.4220   -3.1910 C   0  0  0  0  0  0  0  0  0  0  0  0
   74.3300   47.8100   -3.7470 C   0  0  0  0  0  0  0  0  0  0  0  0
   74.8275   49.8590   -4.8492 H   0  0  0  0  0  0  0  0  0  0  0  0
   75.5134   49.0815   -6.3160 H   0  0  0  0  0  0  0  0  0  0  0  0
   73.8110   49.6546   -6.3160 H   0  0  0  0  0  0  0  0  0  0  0  0
   73.1810   47.7890   -5.4550 H   0  0  0  0  0  0  0  0  0  0  0  0
   74.7709   46.8446   -6.9442 H   0  0  0  0  0  0  0  0  0  0  0  0
   76.0086   46.9770   -5.6178 H   0  0  0  0  0  0  0  0  0  0  0  0
   73.5072   45.2059   -5.5890 H   0  0  0  0  0  0  0  0  0  0  0  0
   75.2074   44.6558   -5.7968 H   0  0  0  0  0  0  0  0  0  0  0  0
   72.3552   44.1277   -3.4953 H   0  0  0  0  0  0  0  0  0  0  0  0
   71.0969   39.4800    0.7702 H   0  0  0  0  0  0  0  0  0  0  0  0
   68.9416   38.3697    1.3680 H   0  0  0  0  0  0  0  0  0  0  0  0
   66.9557   38.6098   -0.1252 H   0  0  0  0  0  0  0  0  0  0  0  0
   66.6930   40.7290   -2.8020 H   0  0  0  0  0  0  0  0  0  0  0  0
   71.6210   43.0340   -4.7380 H   0  0  0  0  0  0  0  0  0  0  0  0
   73.9901   40.5236   -1.7771 H   0  0  0  0  0  0  0  0  0  0  0  0
   76.2794   41.4614   -2.0031 H   0  0  0  0  0  0  0  0  0  0  0  0
   72.8606   46.2490   -3.3760 H   0  0  0  0  0  0  0  0  0  0  0  0
   74.1309   46.3941   -2.1097 H   0  0  0  0  0  0  0  0  0  0  0  0
   73.6960   48.5752   -3.2753 H   0  0  0  0  0  0  0  0  0  0  0  0
   75.3936   47.9706   -3.5170 H   0  0  0  0  0  0  0  0  0  0  0  0
  1  2  1  0
  2  3  1  0
  3  4  1  0
  4  5  1  0
  5  6  1  0
  6  7  2  0
  7  8  1  0
  8  9  1  0
  9 10  1  0
 10 11  1  0
 11 12  2  0
 12 13  1  0
 13 14  2  0
 14 15  1  0
 15 16  1  0
 15 17  2  0
 17 18  1  0
 18 19  2  0
 18 20  1  0
 20 21  1  0
  8 22  2  0
 22 23  1  0
 23 24  2  0
 24 25  1  0
 25 26  1  0
 25 27  1  0
 25 28  1  0
  5 29  1  0
 29 30  1  0
 30  2  1  0
 24  6  1  0
 20  9  2  0
 17 11  1  0
  1 31  1  0
  1 32  1  0
  1 33  1  0
  2 34  1  0
  3 35  1  0
  3 36  1  0
  4 37  1  0
  4 38  1  0
  7 39  1  0
 12 40  1  0
 13 41  1  0
 14 42  1  0
 16 43  1  0
 21 44  1  0
 22 45  1  0
 23 46  1  0
 29 47  1  0
 29 48  1  0
 30 49  1  0
 30 50  1  0
M  CHG  1   2   1
M  END
>  <meeko>  (2) 
{"is_sidechain": [false], "free_energy": -7.684, "intermolecular_energy": -9.879, "internal_energy": -0.383}

$$$$
cand_056_out
     RDKit          3D

 50 53  0  0  0  0  0  0  0  0999 V2000
   74.4880   45.2110   -9.4640 C   0  0  0  0  0  0  0  0  0  0  0  0
   74.2840   44.5140   -8.1950 N   0  0  0  0  0  0  0  0  0  0  0  0
   75.2870   43.4360   -8.0270 C   0  0  0  0  0  0  0  0  0  0  0  0
   75.1460   42.7050   -6.6700 C   0  0  0  0  0  0  0  0  0  0  0  0
   75.2490   43.6810   -5.5600 N   0  0  0  0  0  0  0  0  0  0  0  0
   75.2630   43.0850   -4.2860 C   0  0  0  0  0  0  0  0  0  0  0  0
   74.1470   42.3970   -3.7740 C   0  0  0  0  0  0  0  0  0  0  0  0
   74.1630   41.7940   -2.5080 C   0  0  0  0  0  0  0  0  0  0  0  0
   72.9820   41.0900   -1.9680 C   0  0  0  0  0  0  0  0  0  0  0  0
   73.3060   39.9000   -1.3280 O   0  0  0  0  0  0  0  0  0  0  0  0
   72.3000   39.1470   -0.7800 C   0  0  0  0  0  0  0  0  0  0  0  0
   72.6730   37.9660   -0.1340 C   0  0  0  0  0  0  0  0  0  0  0  0
   71.6970   37.1510    0.4450 C   0  0  0  0  0  0  0  0  0  0  0  0
   70.3500   37.5160    0.3770 C   0  0  0  0  0  0  0  0  0  0  0  0
   69.9820   38.6930   -0.2680 C   0  0  0  0  0  0  0  0  0  0  0  0
   68.6460   38.9900   -0.2980 O   0  0  0  0  0  0  0  0  0  0  0  0
   70.9580   39.5090   -0.8460 C   0  0  0  0  0  0  0  0  0  0  0  0
   70.6130   40.7540   -1.5340 C   0  0  0  0  0  0  0  0  0  0  0  0
   69.4510   41.1390   -1.6410 O   0  0  0  0  0  0  0  0  0  0  0  0
   71.7240   41.5500   -2.1060 C   0  0  0  0  0  0  0  0  0  0  0  0
   71.3880   42.7180   -2.7650 O   0  0  0  0  0  0  0  0  0  0  0  0
   75.3220   41.9040   -1.7330 C   0  0  0  0  0  0  0  0  0  0  0  0
   76.4390   42.5850   -2.2220 C   0  0  0  0  0  0  0  0  0  0  0  0
   76.4230   43.1800   -3.4970 C   0  0  0  0  0  0  0  0  0  0  0  0
   77.6450   43.9080   -4.0030 C   0  0  0  0  0  0  0  0  0  0  0  0
   78.5890   44.0910   -3.0290 F   0  0  0  0  0  0  0  0  0  0  0  0
   77.3800   45.1630   -4.4710 F   0  0  0  0  0  0  0  0  0  0  0  0
   78.3010   43.2530   -5.0050 F   0  0  0  0  0  0  0  0  0  0  0  0
   74.2390   44.7580   -5.6890 C   0  0  0  0  0  0  0  0  0  0  0  0
   74.3910   45.4600   -7.0600 C   0  0  0  0  0  0  0  0  0  0  0  0
   74.7920   46.2497   -9.2671 H   0  0  0  0  0  0  0  0  0  0  0  0
   75.2747   44.7016  -10.0398 H   0  0  0  0  0  0  0  0  0  0  0  0
   73.5508   45.2061  -10.0398 H   0  0  0  0  0  0  0  0  0  0  0  0
   73.3480   44.1060   -8.2070 H   0  0  0  0  0  0  0  0  0  0  0  0
   75.1578   42.7039   -8.8377 H   0  0  0  0  0  0  0  0  0  0  0  0
   76.2846   43.8985   -8.0567 H   0  0  0  0  0  0  0  0  0  0  0  0
   74.1680   42.2035   -6.6255 H   0  0  0  0  0  0  0  0  0  0  0  0
   75.9498   41.9602   -6.5739 H   0  0  0  0  0  0  0  0  0  0  0  0
   73.2349   42.3303   -4.3852 H   0  0  0  0  0  0  0  0  0  0  0  0
   73.7333   37.6781   -0.0812 H   0  0  0  0  0  0  0  0  0  0  0  0
   71.9893   36.2212    0.9548 H   0  0  0  0  0  0  0  0  0  0  0  0
   69.5816   36.8741    0.8326 H   0  0  0  0  0  0  0  0  0  0  0  0
   68.0480   38.4120   -0.7310 H   0  0  0  0  0  0  0  0  0  0  0  0
   71.9660   43.0750   -3.4100 H   0  0  0  0  0  0  0  0  0  0  0  0
   75.3540   41.4509   -0.7312 H   0  0  0  0  0  0  0  0  0  0  0  0
   77.3444   42.6573   -1.6014 H   0  0  0  0  0  0  0  0  0  0  0  0
   73.2311   44.3243   -5.6109 H   0  0  0  0  0  0  0  0  0  0  0  0
   74.3897   45.4944   -4.8859 H   0  0  0  0  0  0  0  0  0  0  0  0
   73.6009   46.2191   -7.1574 H   0  0  0  0  0  0  0  0  0  0  0  0
   75.3927   45.9131   -7.0950 H   0  0  0  0  0  0  0  0  0  0  0  0
  1  2  1  0
  2  3  1  0
  3  4  1  0
  4  5  1  0
  5  6  1  0
  6  7  2  0
  7  8  1  0
  8  9  1  0
  9 10  1  0
 10 11  1  0
 11 12  2  0
 12 13  1  0
 13 14  2  0
 14 15  1  0
 15 16  1  0
 15 17  2  0
 17 18  1  0
 18 19  2  0
 18 20  1  0
 20 21  1  0
  8 22  2  0
 22 23  1  0
 23 24  2  0
 24 25  1  0
 25 26  1  0
 25 27  1  0
 25 28  1  0
  5 29  1  0
 29 30  1  0
 30  2  1  0
 24  6  1  0
 20  9  2  0
 17 11  1  0
  1 31  1  0
  1 32  1  0
  1 33  1  0
  2 34  1  0
  3 35  1  0
  3 36  1  0
  4 37  1  0
  4 38  1  0
  7 39  1  0
 12 40  1  0
 13 41  1  0
 14 42  1  0
 16 43  1  0
 21 44  1  0
 22 45  1  0
 23 46  1  0
 29 47  1  0
 29 48  1  0
 30 49  1  0
 30 50  1  0
M  CHG  1   2   1
M  END
>  <meeko>  (3) 
{"is_sidechain": [false], "free_energy": -7.622, "intermolecular_energy": -9.774, "internal_energy": -0.412}

$$$$
cand_056_out
     RDKit          3D

 50 53  0  0  0  0  0  0  0  0999 V2000
   65.8280   45.0670   -6.8570 C   0  0  0  0  0  0  0  0  0  0  0  0
   66.9230   44.4370   -6.1210 N   0  0  0  0  0  0  0  0  0  0  0  0
   68.1720   44.4730   -6.9180 C   0  0  0  0  0  0  0  0  0  0  0  0
   69.3760   43.8670   -6.1570 C   0  0  0  0  0  0  0  0  0  0  0  0
   69.5660   44.5780   -4.8710 N   0  0  0  0  0  0  0  0  0  0  0  0
   70.7200   44.1780   -4.1730 C   0  0  0  0  0  0  0  0  0  0  0  0
   70.7850   42.9530   -3.4820 C   0  0  0  0  0  0  0  0  0  0  0  0
   71.9390   42.5500   -2.7940 C   0  0  0  0  0  0  0  0  0  0  0  0
   71.9950   41.2710   -2.0550 C   0  0  0  0  0  0  0  0  0  0  0  0
   70.7750   40.9190   -1.4900 O   0  0  0  0  0  0  0  0  0  0  0  0
   70.6880   39.7520   -0.7760 C   0  0  0  0  0  0  0  0  0  0  0  0
   69.4410   39.4300   -0.2380 C   0  0  0  0  0  0  0  0  0  0  0  0
   69.2840   38.2560    0.5020 C   0  0  0  0  0  0  0  0  0  0  0  0
   70.3730   37.4040    0.7040 C   0  0  0  0  0  0  0  0  0  0  0  0
   71.6150   37.7280    0.1660 C   0  0  0  0  0  0  0  0  0  0  0  0
   72.6390   36.8510    0.4030 O   0  0  0  0  0  0  0  0  0  0  0  0
   71.7720   38.9030   -0.5750 C   0  0  0  0  0  0  0  0  0  0  0  0
   73.0610   39.2800   -1.1560 C   0  0  0  0  0  0  0  0  0  0  0  0
   74.0670   38.5870   -1.0170 O   0  0  0  0  0  0  0  0  0  0  0  0
   73.1200   40.5420   -1.9300 C   0  0  0  0  0  0  0  0  0  0  0  0
   74.3440   40.8970   -2.4650 O   0  0  0  0  0  0  0  0  0  0  0  0
   73.0430   43.4080   -2.7850 C   0  0  0  0  0  0  0  0  0  0  0  0
   72.9960   44.6290   -3.4600 C   0  0  0  0  0  0  0  0  0  0  0  0
   71.8410   45.0260   -4.1600 C   0  0  0  0  0  0  0  0  0  0  0  0
   71.8180   46.3500   -4.8840 C   0  0  0  0  0  0  0  0  0  0  0  0
   72.9580   47.0810   -4.6820 F   0  0  0  0  0  0  0  0  0  0  0  0
   70.8040   47.1730   -4.4900 F   0  0  0  0  0  0  0  0  0  0  0  0
   71.7170   46.2330   -6.2410 F   0  0  0  0  0  0  0  0  0  0  0  0
   68.3390   44.5360   -4.0410 C   0  0  0  0  0  0  0  0  0  0  0  0
   67.1490   45.1310   -4.8320 C   0  0  0  0  0  0  0  0  0  0  0  0
   65.1009   45.4854   -6.1455 H   0  0  0  0  0  0  0  0  0  0  0  0
   66.2276   45.8733   -7.4896 H   0  0  0  0  0  0  0  0  0  0  0  0
   65.3317   44.3163   -7.4896 H   0  0  0  0  0  0  0  0  0  0  0  0
   66.6640   43.4670   -5.9420 H   0  0  0  0  0  0  0  0  0  0  0  0
   68.0161   43.9014   -7.8448 H   0  0  0  0  0  0  0  0  0  0  0  0
   68.4049   45.5272   -7.1286 H   0  0  0  0  0  0  0  0  0  0  0  0
   69.1852   42.8016   -5.9606 H   0  0  0  0  0  0  0  0  0  0  0  0
   70.2838   43.9742   -6.7689 H   0  0  0  0  0  0  0  0  0  0  0  0
   69.9052   42.2928   -3.4817 H   0  0  0  0  0  0  0  0  0  0  0  0
   68.5831   40.1000   -0.3966 H   0  0  0  0  0  0  0  0  0  0  0  0
   68.3016   38.0016    0.9265 H   0  0  0  0  0  0  0  0  0  0  0  0
   70.2489   36.4794    1.2869 H   0  0  0  0  0  0  0  0  0  0  0  0
   73.3680   37.1140    0.9290 H   0  0  0  0  0  0  0  0  0  0  0  0
   74.4380   41.7110   -2.9200 H   0  0  0  0  0  0  0  0  0  0  0  0
   73.9550   43.1188   -2.2422 H   0  0  0  0  0  0  0  0  0  0  0  0
   73.8746   45.2908   -3.4447 H   0  0  0  0  0  0  0  0  0  0  0  0
   68.1146   43.4928   -3.7739 H   0  0  0  0  0  0  0  0  0  0  0  0
   68.4988   45.1270   -3.1271 H   0  0  0  0  0  0  0  0  0  0  0  0
   66.2393   45.0438   -4.2198 H   0  0  0  0  0  0  0  0  0  0  0  0
   67.3866   46.1817   -5.0545 H   0  0  0  0  0  0  0  0  0  0  0  0
  1  2  1  0
  2  3  1  0
  3  4  1  0
  4  5  1  0
  5  6  1  0
  6  7  2  0
  7  8  1  0
  8  9  1  0
  9 10  1  0
 10 11  1  0
 11 12  2  0
 12 13  1  0
 13 14  2  0
 14 15  1  0
 15 16  1  0
 15 17  2  0
 17 18  1  0
 18 19  2  0
 18 20  1  0
 20 21  1  0
  8 22  2  0
 22 23  1  0
 23 24  2  0
 24 25  1  0
 25 26  1  0
 25 27  1  0
 25 28  1  0
  5 29  1  0
 29 30  1  0
 30  2  1  0
 24  6  1  0
 20  9  2  0
 17 11  1  0
  1 31  1  0
  1 32  1  0
  1 33  1  0
  2 34  1  0
  3 35  1  0
  3 36  1  0
  4 37  1  0
  4 38  1  0
  7 39  1  0
 12 40  1  0
 13 41  1  0
 14 42  1  0
 16 43  1  0
 21 44  1  0
 22 45  1  0
 23 46  1  0
 29 47  1  0
 29 48  1  0
 30 49  1  0
 30 50  1  0
M  CHG  1   2   1
M  END
>  <meeko>  (4) 
{"is_sidechain": [false], "free_energy": -7.607, "intermolecular_energy": -9.866, "internal_energy": -0.302}

$$$$
cand_056_out
     RDKit          3D

 50 53  0  0  0  0  0  0  0  0999 V2000
   75.0950   45.6270   -6.2350 C   0  0  0  0  0  0  0  0  0  0  0  0
   74.1250   44.8340   -5.4810 N   0  0  0  0  0  0  0  0  0  0  0  0
   73.1170   45.7140   -4.8450 C   0  0  0  0  0  0  0  0  0  0  0  0
   72.0340   44.9150   -4.0800 C   0  0  0  0  0  0  0  0  0  0  0  0
   71.3740   43.9570   -4.9990 N   0  0  0  0  0  0  0  0  0  0  0  0
   70.2860   43.2800   -4.4190 C   0  0  0  0  0  0  0  0  0  0  0  0
   70.4670   42.2500   -3.4770 C   0  0  0  0  0  0  0  0  0  0  0  0
   69.3820   41.5810   -2.8910 C   0  0  0  0  0  0  0  0  0  0  0  0
   69.5790   40.4880   -1.9170 C   0  0  0  0  0  0  0  0  0  0  0  0
   70.8780   39.9940   -1.9120 O   0  0  0  0  0  0  0  0  0  0  0  0
   71.1960   38.9750   -1.0520 C   0  0  0  0  0  0  0  0  0  0  0  0
   72.5160   38.5200   -1.0700 C   0  0  0  0  0  0  0  0  0  0  0  0
   72.9070   37.4830   -0.2200 C   0  0  0  0  0  0  0  0  0  0  0  0
   71.9790   36.9010    0.6470 C   0  0  0  0  0  0  0  0  0  0  0  0
   70.6640   37.3570    0.6630 C   0  0  0  0  0  0  0  0  0  0  0  0
   69.8070   36.7420    1.5350 O   0  0  0  0  0  0  0  0  0  0  0  0
   70.2730   38.3950   -0.1870 C   0  0  0  0  0  0  0  0  0  0  0  0
   68.9000   38.9030   -0.2030 C   0  0  0  0  0  0  0  0  0  0  0  0
   68.0250   38.4380    0.5250 O   0  0  0  0  0  0  0  0  0  0  0  0
   68.5910   40.0110   -1.1360 C   0  0  0  0  0  0  0  0  0  0  0  0
   67.2900   40.4760   -1.1530 O   0  0  0  0  0  0  0  0  0  0  0  0
   68.0890   41.9450   -3.2780 C   0  0  0  0  0  0  0  0  0  0  0  0
   67.8890   42.9620   -4.2130 C   0  0  0  0  0  0  0  0  0  0  0  0
   68.9790   43.6390   -4.7910 C   0  0  0  0  0  0  0  0  0  0  0  0
   68.7350   44.7370   -5.7980 C   0  0  0  0  0  0  0  0  0  0  0  0
   67.4030   44.9910   -5.9880 F   0  0  0  0  0  0  0  0  0  0  0  0
   69.2160   44.4550   -7.0440 F   0  0  0  0  0  0  0  0  0  0  0  0
   69.2710   45.9400   -5.4400 F   0  0  0  0  0  0  0  0  0  0  0  0
   72.3580   43.0460   -5.6300 C   0  0  0  0  0  0  0  0  0  0  0  0
   73.4380   43.8710   -6.3720 C   0  0  0  0  0  0  0  0  0  0  0  0
   75.7522   46.1643   -5.5355 H   0  0  0  0  0  0  0  0  0  0  0  0
   75.6997   44.9613   -6.8684 H   0  0  0  0  0  0  0  0  0  0  0  0
   74.5628   46.3520   -6.8684 H   0  0  0  0  0  0  0  0  0  0  0  0
   74.6320   44.3230   -4.7580 H   0  0  0  0  0  0  0  0  0  0  0  0
   73.6284   46.3828   -4.1371 H   0  0  0  0  0  0  0  0  0  0  0  0
   72.6146   46.2799   -5.6434 H   0  0  0  0  0  0  0  0  0  0  0  0
   72.5037   44.3629   -3.2526 H   0  0  0  0  0  0  0  0  0  0  0  0
   71.2824   45.6120   -3.6809 H   0  0  0  0  0  0  0  0  0  0  0  0
   71.4894   41.9610   -3.1919 H   0  0  0  0  0  0  0  0  0  0  0  0
   73.2470   38.9777   -1.7528 H   0  0  0  0  0  0  0  0  0  0  0  0
   73.9467   37.1242   -0.2333 H   0  0  0  0  0  0  0  0  0  0  0  0
   72.2870   36.0838    1.3158 H   0  0  0  0  0  0  0  0  0  0  0  0
   69.9190   36.8550    2.4590 H   0  0  0  0  0  0  0  0  0  0  0  0
   66.9020   40.7560   -1.9590 H   0  0  0  0  0  0  0  0  0  0  0  0
   67.2225   41.4260   -2.8424 H   0  0  0  0  0  0  0  0  0  0  0  0
   66.8643   43.2383   -4.5023 H   0  0  0  0  0  0  0  0  0  0  0  0
   72.8374   42.4321   -4.8533 H   0  0  0  0  0  0  0  0  0  0  0  0
   71.8401   42.3956   -6.3502 H   0  0  0  0  0  0  0  0  0  0  0  0
   74.1857   43.1801   -6.7887 H   0  0  0  0  0  0  0  0  0  0  0  0
   72.9352   44.4465   -7.1632 H   0  0  0  0  0  0  0  0  0  0  0  0
  1  2  1  0
  2  3  1  0
  3  4  1  0
  4  5  1  0
  5  6  1  0
  6  7  2  0
  7  8  1  0
  8  9  1  0
  9 10  1  0
 10 11  1  0
 11 12  2  0
 12 13  1  0
 13 14  2  0
 14 15  1  0
 15 16  1  0
 15 17  2  0
 17 18  1  0
 18 19  2  0
 18 20  1  0
 20 21  1  0
  8 22  2  0
 22 23  1  0
 23 24  2  0
 24 25  1  0
 25 26  1  0
 25 27  1  0
 25 28  1  0
  5 29  1  0
 29 30  1  0
 30  2  1  0
 24  6  1  0
 20  9  2  0
 17 11  1  0
  1 31  1  0
  1 32  1  0
  1 33  1  0
  2 34  1  0
  3 35  1  0
  3 36  1  0
  4 37  1  0
  4 38  1  0
  7 39  1  0
 12 40  1  0
 13 41  1  0
 14 42  1  0
 16 43  1  0
 21 44  1  0
 22 45  1  0
 23 46  1  0
 29 47  1  0
 29 48  1  0
 30 49  1  0
 30 50  1  0
M  CHG  1   2   1
M  END
>  <meeko>  (5) 
{"is_sidechain": [false], "free_energy": -7.568, "intermolecular_energy": -10.007, "internal_energy": -0.113}

$$$$
cand_056_out
     RDKit          3D

 50 53  0  0  0  0  0  0  0  0999 V2000
   66.1280   44.2300   -2.1910 C   0  0  0  0  0  0  0  0  0  0  0  0
   67.5080   43.7920   -2.3960 N   0  0  0  0  0  0  0  0  0  0  0  0
   68.1450   43.4550   -1.1020 C   0  0  0  0  0  0  0  0  0  0  0  0
   69.5920   42.9320   -1.2730 C   0  0  0  0  0  0  0  0  0  0  0  0
   69.5970   41.7540   -2.1710 N   0  0  0  0  0  0  0  0  0  0  0  0
   70.8550   41.1340   -2.2790 C   0  0  0  0  0  0  0  0  0  0  0  0
   71.8860   41.6760   -3.0690 C   0  0  0  0  0  0  0  0  0  0  0  0
   73.1440   41.0640   -3.1690 C   0  0  0  0  0  0  0  0  0  0  0  0
   74.2160   41.6270   -4.0150 C   0  0  0  0  0  0  0  0  0  0  0  0
   73.7580   42.0570   -5.2550 O   0  0  0  0  0  0  0  0  0  0  0  0
   74.6530   42.6030   -6.1390 C   0  0  0  0  0  0  0  0  0  0  0  0
   74.1470   43.0350   -7.3660 C   0  0  0  0  0  0  0  0  0  0  0  0
   75.0050   43.5980   -8.3130 C   0  0  0  0  0  0  0  0  0  0  0  0
   76.3670   43.7300   -8.0340 C   0  0  0  0  0  0  0  0  0  0  0  0
   76.8690   43.2990   -6.8090 C   0  0  0  0  0  0  0  0  0  0  0  0
   78.2120   43.4560   -6.6010 O   0  0  0  0  0  0  0  0  0  0  0  0
   76.0100   42.7350   -5.8610 C   0  0  0  0  0  0  0  0  0  0  0  0
   76.4970   42.2680   -4.5620 C   0  0  0  0  0  0  0  0  0  0  0  0
   77.6820   42.3430   -4.2450 O   0  0  0  0  0  0  0  0  0  0  0  0
   75.5030   41.6930   -3.6250 C   0  0  0  0  0  0  0  0  0  0  0  0
   75.9740   41.2430   -2.4060 O   0  0  0  0  0  0  0  0  0  0  0  0
   73.3600   39.8700   -2.4740 C   0  0  0  0  0  0  0  0  0  0  0  0
   72.3490   39.3140   -1.6880 C   0  0  0  0  0  0  0  0  0  0  0  0
   71.0910   39.9370   -1.5810 C   0  0  0  0  0  0  0  0  0  0  0  0
   70.0160   39.3170   -0.7220 C   0  0  0  0  0  0  0  0  0  0  0  0
   69.8730   39.9520    0.4830 F   0  0  0  0  0  0  0  0  0  0  0  0
   70.2540   38.0120   -0.4000 F   0  0  0  0  0  0  0  0  0  0  0  0
   68.7720   39.3560   -1.2840 F   0  0  0  0  0  0  0  0  0  0  0  0
   68.9880   42.0700   -3.4850 C   0  0  0  0  0  0  0  0  0  0  0  0
   67.5500   42.6060   -3.2830 C   0  0  0  0  0  0  0  0  0  0  0  0
   65.9205   44.2958   -1.1127 H   0  0  0  0  0  0  0  0  0  0  0  0
   65.9844   45.2179   -2.6530 H   0  0  0  0  0  0  0  0  0  0  0  0
   65.4410   43.5058   -2.6530 H   0  0  0  0  0  0  0  0  0  0  0  0
   68.0180   44.5600   -2.8350 H   0  0  0  0  0  0  0  0  0  0  0  0
   68.1680   44.3579   -0.4742 H   0  0  0  0  0  0  0  0  0  0  0  0
   67.5525   42.6539   -0.6360 H   0  0  0  0  0  0  0  0  0  0  0  0
   70.2180   43.7252   -1.7077 H   0  0  0  0  0  0  0  0  0  0  0  0
   69.9916   42.6412   -0.2903 H   0  0  0  0  0  0  0  0  0  0  0  0
   71.6997   42.6070   -3.6244 H   0  0  0  0  0  0  0  0  0  0  0  0
   73.0743   42.9321   -7.5866 H   0  0  0  0  0  0  0  0  0  0  0  0
   74.6073   43.9382   -9.2806 H   0  0  0  0  0  0  0  0  0  0  0  0
   77.0419   44.1737   -8.7807 H   0  0  0  0  0  0  0  0  0  0  0  0
   78.5180   44.0760   -5.9680 H   0  0  0  0  0  0  0  0  0  0  0  0
   76.8630   41.4050   -2.1580 H   0  0  0  0  0  0  0  0  0  0  0  0
   74.3344   39.3647   -2.5472 H   0  0  0  0  0  0  0  0  0  0  0  0
   72.5379   38.3763   -1.1448 H   0  0  0  0  0  0  0  0  0  0  0  0
   69.5941   42.8341   -3.9938 H   0  0  0  0  0  0  0  0  0  0  0  0
   68.9518   41.1566   -4.0968 H   0  0  0  0  0  0  0  0  0  0  0  0
   67.1356   42.8834   -4.2634 H   0  0  0  0  0  0  0  0  0  0  0  0
   66.9595   41.8098   -2.8061 H   0  0  0  0  0  0  0  0  0  0  0  0
  1  2  1  0
  2  3  1  0
  3  4  1  0
  4  5  1  0
  5  6  1  0
  6  7  2  0
  7  8  1  0
  8  9  1  0
  9 10  1  0
 10 11  1  0
 11 12  2  0
 12 13  1  0
 13 14  2  0
 14 15  1  0
 15 16  1  0
 15 17  2  0
 17 18  1  0
 18 19  2  0
 18 20  1  0
 20 21  1  0
  8 22  2  0
 22 23  1  0
 23 24  2  0
 24 25  1  0
 25 26  1  0
 25 27  1  0
 25 28  1  0
  5 29  1  0
 29 30  1  0
 30  2  1  0
 24  6  1  0
 20  9  2  0
 17 11  1  0
  1 31  1  0
  1 32  1  0
  1 33  1  0
  2 34  1  0
  3 35  1  0
  3 36  1  0
  4 37  1  0
  4 38  1  0
  7 39  1  0
 12 40  1  0
 13 41  1  0
 14 42  1  0
 16 43  1  0
 21 44  1  0
 22 45  1  0
 23 46  1  0
 29 47  1  0
 29 48  1  0
 30 49  1  0
 30 50  1  0
M  CHG  1   2   1
M  END
>  <meeko>  (6) 
{"is_sidechain": [false], "free_energy": -7.462, "intermolecular_energy": -9.677, "internal_energy": -0.312}

$$$$
cand_056_out
     RDKit          3D

 50 53  0  0  0  0  0  0  0  0999 V2000
   75.6470   48.8840   -2.2740 C   0  0  0  0  0  0  0  0  0  0  0  0
   75.0250   47.5690   -2.4200 N   0  0  0  0  0  0  0  0  0  0  0  0
   73.8180   47.6560   -3.2750 C   0  0  0  0  0  0  0  0  0  0  0  0
   73.1560   46.2770   -3.5050 C   0  0  0  0  0  0  0  0  0  0  0  0
   74.1390   45.3400   -4.0980 N   0  0  0  0  0  0  0  0  0  0  0  0
   73.5850   44.1000   -4.4620 C   0  0  0  0  0  0  0  0  0  0  0  0
   72.8850   43.2980   -3.5400 C   0  0  0  0  0  0  0  0  0  0  0  0
   72.3240   42.0650   -3.9050 C   0  0  0  0  0  0  0  0  0  0  0  0
   71.6070   41.2200   -2.9280 C   0  0  0  0  0  0  0  0  0  0  0  0
   72.4040   40.2140   -2.3950 O   0  0  0  0  0  0  0  0  0  0  0  0
   71.8610   39.3560   -1.4730 C   0  0  0  0  0  0  0  0  0  0  0  0
   72.7010   38.3700   -0.9530 C   0  0  0  0  0  0  0  0  0  0  0  0
   72.2100   37.4630   -0.0110 C   0  0  0  0  0  0  0  0  0  0  0  0
   70.8800   37.5420    0.4090 C   0  0  0  0  0  0  0  0  0  0  0  0
   70.0450   38.5260   -0.1110 C   0  0  0  0  0  0  0  0  0  0  0  0
   68.7540   38.5450    0.3430 O   0  0  0  0  0  0  0  0  0  0  0  0
   70.5360   39.4340   -1.0530 C   0  0  0  0  0  0  0  0  0  0  0  0
   69.6910   40.4820   -1.6260 C   0  0  0  0  0  0  0  0  0  0  0  0
   68.5100   40.6120   -1.3120 O   0  0  0  0  0  0  0  0  0  0  0  0
   70.3110   41.3990   -2.6110 C   0  0  0  0  0  0  0  0  0  0  0  0
   69.5020   42.3780   -3.1560 O   0  0  0  0  0  0  0  0  0  0  0  0
   72.4900   41.6220   -5.2210 C   0  0  0  0  0  0  0  0  0  0  0  0
   73.1850   42.4000   -6.1480 C   0  0  0  0  0  0  0  0  0  0  0  0
   73.7360   43.6420   -5.7830 C   0  0  0  0  0  0  0  0  0  0  0  0
   74.4800   44.4660   -6.8060 C   0  0  0  0  0  0  0  0  0  0  0  0
   74.4900   43.8830   -8.0450 F   0  0  0  0  0  0  0  0  0  0  0  0
   75.7960   44.6600   -6.5020 F   0  0  0  0  0  0  0  0  0  0  0  0
   73.9440   45.7050   -7.0100 F   0  0  0  0  0  0  0  0  0  0  0  0
   75.3470   45.2130   -3.2500 C   0  0  0  0  0  0  0  0  0  0  0  0
   75.9790   46.6080   -3.0210 C   0  0  0  0  0  0  0  0  0  0  0  0
   75.7587   49.1202   -1.2055 H   0  0  0  0  0  0  0  0  0  0  0  0
   76.6370   48.8766   -2.7533 H   0  0  0  0  0  0  0  0  0  0  0  0
   75.0132   49.6446   -2.7533 H   0  0  0  0  0  0  0  0  0  0  0  0
   74.7580   47.2430   -1.4900 H   0  0  0  0  0  0  0  0  0  0  0  0
   73.0887   48.3211   -2.7895 H   0  0  0  0  0  0  0  0  0  0  0  0
   74.1296   48.0455   -4.2554 H   0  0  0  0  0  0  0  0  0  0  0  0
   72.8039   45.8761   -2.5431 H   0  0  0  0  0  0  0  0  0  0  0  0
   72.3051   46.3931   -4.1924 H   0  0  0  0  0  0  0  0  0  0  0  0
   72.7749   43.6486   -2.5032 H   0  0  0  0  0  0  0  0  0  0  0  0
   73.7480   38.3073   -1.2845 H   0  0  0  0  0  0  0  0  0  0  0  0
   72.8711   36.6860    0.4004 H   0  0  0  0  0  0  0  0  0  0  0  0
   70.4933   36.8270    1.1501 H   0  0  0  0  0  0  0  0  0  0  0  0
   68.0480   38.6860   -0.2580 H   0  0  0  0  0  0  0  0  0  0  0  0
   69.8810   43.1710   -3.4820 H   0  0  0  0  0  0  0  0  0  0  0  0
   72.0696   40.6529   -5.5278 H   0  0  0  0  0  0  0  0  0  0  0  0
   73.3038   42.0367   -7.1795 H   0  0  0  0  0  0  0  0  0  0  0  0
   75.0675   44.7755   -2.2802 H   0  0  0  0  0  0  0  0  0  0  0  0
   76.0770   44.5630   -3.7545 H   0  0  0  0  0  0  0  0  0  0  0  0
   76.8417   46.4986   -2.3473 H   0  0  0  0  0  0  0  0  0  0  0  0
   76.2808   47.0043   -4.0017 H   0  0  0  0  0  0  0  0  0  0  0  0
  1  2  1  0
  2  3  1  0
  3  4  1  0
  4  5  1  0
  5  6  1  0
  6  7  2  0
  7  8  1  0
  8  9  1  0
  9 10  1  0
 10 11  1  0
 11 12  2  0
 12 13  1  0
 13 14  2  0
 14 15  1  0
 15 16  1  0
 15 17  2  0
 17 18  1  0
 18 19  2  0
 18 20  1  0
 20 21  1  0
  8 22  2  0
 22 23  1  0
 23 24  2  0
 24 25  1  0
 25 26  1  0
 25 27  1  0
 25 28  1  0
  5 29  1  0
 29 30  1  0
 30  2  1  0
 24  6  1  0
 20  9  2  0
 17 11  1  0
  1 31  1  0
  1 32  1  0
  1 33  1  0
  2 34  1  0
  3 35  1  0
  3 36  1  0
  4 37  1  0
  4 38  1  0
  7 39  1  0
 12 40  1  0
 13 41  1  0
 14 42  1  0
 16 43  1  0
 21 44  1  0
 22 45  1  0
 23 46  1  0
 29 47  1  0
 29 48  1  0
 30 49  1  0
 30 50  1  0
M  CHG  1   2   1
M  END
>  <meeko>  (7) 
{"is_sidechain": [false], "free_energy": -7.422, "intermolecular_energy": -9.139, "internal_energy": -0.801}

$$$$
cand_056_out
     RDKit          3D

 50 53  0  0  0  0  0  0  0  0999 V2000
   72.0220   48.2190   -6.0370 C   0  0  0  0  0  0  0  0  0  0  0  0
   72.1430   46.9800   -5.2700 N   0  0  0  0  0  0  0  0  0  0  0  0
   72.6700   45.8900   -6.1230 C   0  0  0  0  0  0  0  0  0  0  0  0
   72.8690   44.5700   -5.3400 C   0  0  0  0  0  0  0  0  0  0  0  0
   73.7690   44.8010   -4.1860 N   0  0  0  0  0  0  0  0  0  0  0  0
   74.1090   43.6260   -3.4930 C   0  0  0  0  0  0  0  0  0  0  0  0
   73.1330   42.7980   -2.9080 C   0  0  0  0  0  0  0  0  0  0  0  0
   73.4710   41.6200   -2.2260 C   0  0  0  0  0  0  0  0  0  0  0  0
   72.4430   40.7650   -1.5970 C   0  0  0  0  0  0  0  0  0  0  0  0
   72.9650   39.5930   -1.0630 O   0  0  0  0  0  0  0  0  0  0  0  0
   72.1170   38.7090   -0.4480 C   0  0  0  0  0  0  0  0  0  0  0  0
   72.6860   37.5520    0.0870 C   0  0  0  0  0  0  0  0  0  0  0  0
   71.8780   36.6090    0.7260 C   0  0  0  0  0  0  0  0  0  0  0  0
   70.5010   36.8220    0.8280 C   0  0  0  0  0  0  0  0  0  0  0  0
   69.9360   37.9770    0.2940 C   0  0  0  0  0  0  0  0  0  0  0  0
   68.5820   38.1210    0.4280 O   0  0  0  0  0  0  0  0  0  0  0  0
   70.7450   38.9210   -0.3450 C   0  0  0  0  0  0  0  0  0  0  0  0
   70.1910   40.1460   -0.9210 C   0  0  0  0  0  0  0  0  0  0  0  0
   68.9890   40.4020   -0.8770 O   0  0  0  0  0  0  0  0  0  0  0  0
   71.1350   41.0860   -1.5690 C   0  0  0  0  0  0  0  0  0  0  0  0
   70.6010   42.2350   -2.1220 O   0  0  0  0  0  0  0  0  0  0  0  0
   74.8230   41.2800   -2.1130 C   0  0  0  0  0  0  0  0  0  0  0  0
   75.8060   42.0900   -2.6830 C   0  0  0  0  0  0  0  0  0  0  0  0
   75.4630   43.2650   -3.3780 C   0  0  0  0  0  0  0  0  0  0  0  0
   76.5460   44.1220   -3.9880 C   0  0  0  0  0  0  0  0  0  0  0  0
   77.7930   43.5720   -3.8500 F   0  0  0  0  0  0  0  0  0  0  0  0
   76.6490   45.3610   -3.4230 F   0  0  0  0  0  0  0  0  0  0  0  0
   76.4000   44.3200   -5.3300 F   0  0  0  0  0  0  0  0  0  0  0  0
   73.2520   45.8710   -3.3000 C   0  0  0  0  0  0  0  0  0  0  0  0
   73.0470   47.1730   -4.1120 C   0  0  0  0  0  0  0  0  0  0  0  0
   71.9388   49.0711   -5.3464 H   0  0  0  0  0  0  0  0  0  0  0  0
   72.9120   48.3463   -6.6708 H   0  0  0  0  0  0  0  0  0  0  0  0
   71.1242   48.1717   -6.6708 H   0  0  0  0  0  0  0  0  0  0  0  0
   71.2130   46.7280   -4.9340 H   0  0  0  0  0  0  0  0  0  0  0  0
   71.9605   45.7099   -6.9441 H   0  0  0  0  0  0  0  0  0  0  0  0
   73.6533   46.2064   -6.5012 H   0  0  0  0  0  0  0  0  0  0  0  0
   71.8949   44.2105   -4.9770 H   0  0  0  0  0  0  0  0  0  0  0  0
   73.3177   43.8176   -6.0052 H   0  0  0  0  0  0  0  0  0  0  0  0
   72.0736   43.0831   -2.9880 H   0  0  0  0  0  0  0  0  0  0  0  0
   73.7699   37.3832    0.0053 H   0  0  0  0  0  0  0  0  0  0  0  0
   72.3261   35.6979    1.1493 H   0  0  0  0  0  0  0  0  0  0  0  0
   69.8642   36.0783    1.3294 H   0  0  0  0  0  0  0  0  0  0  0  0
   68.0860   38.5380   -0.2490 H   0  0  0  0  0  0  0  0  0  0  0  0
   70.0560   42.1790   -2.8820 H   0  0  0  0  0  0  0  0  0  0  0  0
   75.1134   40.3679   -1.5711 H   0  0  0  0  0  0  0  0  0  0  0  0
   76.8645   41.8061   -2.5878 H   0  0  0  0  0  0  0  0  0  0  0  0
   72.2908   45.5548   -2.8686 H   0  0  0  0  0  0  0  0  0  0  0  0
   73.9776   46.0567   -2.4943 H   0  0  0  0  0  0  0  0  0  0  0  0
   72.6148   47.9378   -3.4500 H   0  0  0  0  0  0  0  0  0  0  0  0
   74.0280   47.4840   -4.5005 H   0  0  0  0  0  0  0  0  0  0  0  0
  1  2  1  0
  2  3  1  0
  3  4  1  0
  4  5  1  0
  5  6  1  0
  6  7  2  0
  7  8  1  0
  8  9  1  0
  9 10  1  0
 10 11  1  0
 11 12  2  0
 12 13  1  0
 13 14  2  0
 14 15  1  0
 15 16  1  0
 15 17  2  0
 17 18  1  0
 18 19  2  0
 18 20  1  0
 20 21  1  0
  8 22  2  0
 22 23  1  0
 23 24  2  0
 24 25  1  0
 25 26  1  0
 25 27  1  0
 25 28  1  0
  5 29  1  0
 29 30  1  0
 30  2  1  0
 24  6  1  0
 20  9  2  0
 17 11  1  0
  1 31  1  0
  1 32  1  0
  1 33  1  0
  2 34  1  0
  3 35  1  0
  3 36  1  0
  4 37  1  0
  4 38  1  0
  7 39  1  0
 12 40  1  0
 13 41  1  0
 14 42  1  0
 16 43  1  0
 21 44  1  0
 22 45  1  0
 23 46  1  0
 29 47  1  0
 29 48  1  0
 30 49  1  0
 30 50  1  0
M  CHG  1   2   1
M  END
>  <meeko>  (8) 
{"is_sidechain": [false], "free_energy": -7.417, "intermolecular_energy": -9.79, "internal_energy": -0.142}

$$$$
cand_056_out
     RDKit          3D

 50 53  0  0  0  0  0  0  0  0999 V2000
   66.3580   46.0480   -7.2530 C   0  0  0  0  0  0  0  0  0  0  0  0
   67.1760   45.2560   -6.3350 N   0  0  0  0  0  0  0  0  0  0  0  0
   68.3320   44.6640   -7.0490 C   0  0  0  0  0  0  0  0  0  0  0  0
   69.2610   43.8620   -6.1060 C   0  0  0  0  0  0  0  0  0  0  0  0
   69.7290   44.7320   -5.0020 N   0  0  0  0  0  0  0  0  0  0  0  0
   70.6820   44.1190   -4.1690 C   0  0  0  0  0  0  0  0  0  0  0  0
   70.3860   42.9630   -3.4220 C   0  0  0  0  0  0  0  0  0  0  0  0
   71.3400   42.3470   -2.5990 C   0  0  0  0  0  0  0  0  0  0  0  0
   71.0170   41.1450   -1.8030 C   0  0  0  0  0  0  0  0  0  0  0  0
   72.1230   40.3350   -1.5710 O   0  0  0  0  0  0  0  0  0  0  0  0
   71.9610   39.1850   -0.8420 C   0  0  0  0  0  0  0  0  0  0  0  0
   73.1010   38.4110   -0.6210 C   0  0  0  0  0  0  0  0  0  0  0  0
   73.0060   37.2260    0.1120 C   0  0  0  0  0  0  0  0  0  0  0  0
   71.7720   36.8160    0.6230 C   0  0  0  0  0  0  0  0  0  0  0  0
   70.6370   37.5910    0.4010 C   0  0  0  0  0  0  0  0  0  0  0  0
   69.4620   37.1300    0.9290 O   0  0  0  0  0  0  0  0  0  0  0  0
   70.7330   38.7760   -0.3320 C   0  0  0  0  0  0  0  0  0  0  0  0
   69.5640   39.6190   -0.5890 C   0  0  0  0  0  0  0  0  0  0  0  0
   68.4440   39.3230   -0.1790 O   0  0  0  0  0  0  0  0  0  0  0  0
   69.7740   40.8600   -1.3710 C   0  0  0  0  0  0  0  0  0  0  0  0
   68.6620   41.6430   -1.6200 O   0  0  0  0  0  0  0  0  0  0  0  0
   72.6130   42.9190   -2.5120 C   0  0  0  0  0  0  0  0  0  0  0  0
   72.9250   44.0670   -3.2410 C   0  0  0  0  0  0  0  0  0  0  0  0
   71.9690   44.6770   -4.0750 C   0  0  0  0  0  0  0  0  0  0  0  0
   72.3340   45.9170   -4.8560 C   0  0  0  0  0  0  0  0  0  0  0  0
   73.6310   46.3060   -4.6510 F   0  0  0  0  0  0  0  0  0  0  0  0
   71.5870   47.0110   -4.5270 F   0  0  0  0  0  0  0  0  0  0  0  0
   72.2250   45.7670   -6.2080 F   0  0  0  0  0  0  0  0  0  0  0  0
   68.5910   45.3170   -4.2530 C   0  0  0  0  0  0  0  0  0  0  0  0
   67.6710   46.0990   -5.2220 C   0  0  0  0  0  0  0  0  0  0  0  0
   65.6853   46.6993   -6.6758 H   0  0  0  0  0  0  0  0  0  0  0  0
   67.0115   46.6654   -7.8868 H   0  0  0  0  0  0  0  0  0  0  0  0
   65.7620   45.3749   -7.8868 H   0  0  0  0  0  0  0  0  0  0  0  0
   66.5920   44.5080   -5.9600 H   0  0  0  0  0  0  0  0  0  0  0  0
   67.9556   43.9891   -7.8318 H   0  0  0  0  0  0  0  0  0  0  0  0
   68.9202   45.4893   -7.4766 H   0  0  0  0  0  0  0  0  0  0  0  0
   68.7078   43.0079   -5.6883 H   0  0  0  0  0  0  0  0  0  0  0  0
   70.1296   43.4990   -6.6750 H   0  0  0  0  0  0  0  0  0  0  0  0
   69.3767   42.5302   -3.4857 H   0  0  0  0  0  0  0  0  0  0  0  0
   74.0726   38.7336   -1.0234 H   0  0  0  0  0  0  0  0  0  0  0  0
   73.9037   36.6148    0.2872 H   0  0  0  0  0  0  0  0  0  0  0  0
   71.6974   35.8823    1.1998 H   0  0  0  0  0  0  0  0  0  0  0  0
   69.0800   36.3390    0.6030 H   0  0  0  0  0  0  0  0  0  0  0  0
   67.8210   41.2430   -1.7260 H   0  0  0  0  0  0  0  0  0  0  0  0
   73.3743   42.4604   -1.8638 H   0  0  0  0  0  0  0  0  0  0  0  0
   73.9325   44.5016   -3.1629 H   0  0  0  0  0  0  0  0  0  0  0  0
   68.0159   44.5107   -3.7744 H   0  0  0  0  0  0  0  0  0  0  0  0
   68.9767   46.0038   -3.4851 H   0  0  0  0  0  0  0  0  0  0  0  0
   66.8077   46.4817   -4.6578 H   0  0  0  0  0  0  0  0  0  0  0  0
   68.2623   46.9174   -5.6586 H   0  0  0  0  0  0  0  0  0  0  0  0
  1  2  1  0
  2  3  1  0
  3  4  1  0
  4  5  1  0
  5  6  1  0
  6  7  2  0
  7  8  1  0
  8  9  1  0
  9 10  1  0
 10 11  1  0
 11 12  2  0
 12 13  1  0
 13 14  2  0
 14 15  1  0
 15 16  1  0
 15 17  2  0
 17 18  1  0
 18 19  2  0
 18 20  1  0
 20 21  1  0
  8 22  2  0
 22 23  1  0
 23 24  2  0
 24 25  1  0
 25 26  1  0
 25 27  1  0
 25 28  1  0
  5 29  1  0
 29 30  1  0
 30  2  1  0
 24  6  1  0
 20  9  2  0
 17 11  1  0
  1 31  1  0
  1 32  1  0
  1 33  1  0
  2 34  1  0
  3 35  1  0
  3 36  1  0
  4 37  1  0
  4 38  1  0
  7 39  1  0
 12 40  1  0
 13 41  1  0
 14 42  1  0
 16 43  1  0
 21 44  1  0
 22 45  1  0
 23 46  1  0
 29 47  1  0
 29 48  1  0
 30 49  1  0
 30 50  1  0
M  CHG  1   2   1
M  END
>  <meeko>  (9) 
{"is_sidechain": [false], "free_energy": -7.408, "intermolecular_energy": -9.63, "internal_energy": -0.292}

$$$$
