cand_033_out
     RDKit          3D

 44 46  0  0  0  0  0  0  0  0999 V2000
   72.0540   36.7480    0.4520 C   0  0  0  0  0  0  0  0  0  0  0  0
   70.6150   37.0650    0.8270 C   0  0  0  0  0  0  0  0  0  0  0  0
   70.4500   38.5350    1.2160 C   0  0  0  0  0  0  0  0  0  0  0  0
   70.3090   39.4240   -0.0000 C   0  0  0  0  0  0  0  0  0  0  0  0
   71.4620   40.0860   -0.4700 C   0  0  0  0  0  0  0  0  0  0  0  0
   71.4240   40.9460   -1.5760 C   0  0  0  0  0  0  0  0  0  0  0  0
   72.6380   41.6190   -2.0830 C   0  0  0  0  0  0  0  0  0  0  0  0
   72.4100   42.9420   -2.4460 O   0  0  0  0  0  0  0  0  0  0  0  0
   73.4540   43.6860   -2.9340 C   0  0  0  0  0  0  0  0  0  0  0  0
   73.1770   45.0040   -3.2990 C   0  0  0  0  0  0  0  0  0  0  0  0
   74.1950   45.8160   -3.8030 C   0  0  0  0  0  0  0  0  0  0  0  0
   75.4900   45.3110   -3.9400 C   0  0  0  0  0  0  0  0  0  0  0  0
   75.7630   43.9960   -3.5740 C   0  0  0  0  0  0  0  0  0  0  0  0
   77.0520   43.5660   -3.7340 O   0  0  0  0  0  0  0  0  0  0  0  0
   74.7440   43.1830   -3.0710 C   0  0  0  0  0  0  0  0  0  0  0  0
   74.9890   41.7950   -2.6750 C   0  0  0  0  0  0  0  0  0  0  0  0
   76.1030   41.2820   -2.7600 O   0  0  0  0  0  0  0  0  0  0  0  0
   73.8390   41.0170   -2.1620 C   0  0  0  0  0  0  0  0  0  0  0  0
   74.0840   39.7110   -1.7790 O   0  0  0  0  0  0  0  0  0  0  0  0
   70.2020   41.1290   -2.2300 C   0  0  0  0  0  0  0  0  0  0  0  0
   69.0470   40.4860   -1.7760 C   0  0  0  0  0  0  0  0  0  0  0  0
   69.0810   39.6380   -0.6570 C   0  0  0  0  0  0  0  0  0  0  0  0
   67.7920   38.9710   -0.2320 C   0  0  0  0  0  0  0  0  0  0  0  0
   66.6300   39.3510   -1.1380 C   0  0  0  0  0  0  0  0  0  0  0  0
   72.6508   36.6165    1.3666 H   0  0  0  0  0  0  0  0  0  0  0  0
   72.0829   35.8220   -0.1410 H   0  0  0  0  0  0  0  0  0  0  0  0
   72.4693   37.5762   -0.1410 H   0  0  0  0  0  0  0  0  0  0  0  0
   69.9648   36.8474   -0.0332 H   0  0  0  0  0  0  0  0  0  0  0  0
   70.3384   36.4449    1.6925 H   0  0  0  0  0  0  0  0  0  0  0  0
   69.5503   38.6396    1.8401 H   0  0  0  0  0  0  0  0  0  0  0  0
   71.3502   38.8470    1.7659 H   0  0  0  0  0  0  0  0  0  0  0  0
   72.4193   39.9226    0.0466 H   0  0  0  0  0  0  0  0  0  0  0  0
   72.1577   45.4029   -3.1898 H   0  0  0  0  0  0  0  0  0  0  0  0
   73.9768   46.8546   -4.0925 H   0  0  0  0  0  0  0  0  0  0  0  0
   76.2922   45.9509   -4.3362 H   0  0  0  0  0  0  0  0  0  0  0  0
   77.5830   43.3850   -2.9830 H   0  0  0  0  0  0  0  0  0  0  0  0
   74.0490   39.4730   -0.8730 H   0  0  0  0  0  0  0  0  0  0  0  0
   70.1490   41.7857   -3.1109 H   0  0  0  0  0  0  0  0  0  0  0  0
   68.0955   40.6468   -2.3040 H   0  0  0  0  0  0  0  0  0  0  0  0
   67.9280   37.8800   -0.2669 H   0  0  0  0  0  0  0  0  0  0  0  0
   67.5537   39.3089    0.7873 H   0  0  0  0  0  0  0  0  0  0  0  0
   65.7631   39.6345   -0.5231 H   0  0  0  0  0  0  0  0  0  0  0  0
   66.9226   40.2003   -1.7729 H   0  0  0  0  0  0  0  0  0  0  0  0
   66.3643   38.4929   -1.7729 H   0  0  0  0  0  0  0  0  0  0  0  0
  1  2  1  0
  2  3  1  0
  3  4  1  0
  4  5  2  0
  5  6  1  0
  6  7  1  0
  7  8  1  0
  8  9  1  0
  9 10  2  0
 10 11  1  0
 11 12  2  0
 12 13  1  0
 13 14  1  0
 13 15  2  0
 15 16  1  0
 16 17  2  0
 16 18  1  0
 18 19  1  0
  6 20  2  0
 20 21  1  0
 21 22  2  0
 22 23  1  0
 23 24  1  0
 22  4  1  0
 18  7  2  0
 15  9  1  0
  1 25  1  0
  1 26  1  0
  1 27  1  0
  2 28  1  0
  2 29  1  0
  3 30  1  0
  3 31  1  0
  5 32  1  0
 10 33  1  0
 11 34  1  0
 12 35  1  0
 14 36  1  0
 19 37  1  0
 20 38  1  0
 21 39  1  0
 23 40  1  0
 23 41  1  0
 24 42  1  0
 24 43  1  0
 24 44  1  0
M  END
>  <meeko>  (1) 
{"is_sidechain": [false], "free_energy": -7.994, "intermolecular_energy": -10.331, "internal_energy": -0.346}

$$$$
cand_033_out
     RDKit          3D

 44 46  0  0  0  0  0  0  0  0999 V2000
   72.8880   38.5260   -1.8330 C   0  0  0  0  0  0  0  0  0  0  0  0
   73.1910   39.7310   -0.9580 C   0  0  0  0  0  0  0  0  0  0  0  0
   72.3360   39.7270    0.3120 C   0  0  0  0  0  0  0  0  0  0  0  0
   70.8590   39.6550   -0.0070 C   0  0  0  0  0  0  0  0  0  0  0  0
   70.3130   40.6610   -0.8320 C   0  0  0  0  0  0  0  0  0  0  0  0
   68.9520   40.6890   -1.1640 C   0  0  0  0  0  0  0  0  0  0  0  0
   68.3860   41.7290   -2.0490 C   0  0  0  0  0  0  0  0  0  0  0  0
   67.4970   42.5710   -1.3910 O   0  0  0  0  0  0  0  0  0  0  0  0
   66.8960   43.5830   -2.0950 C   0  0  0  0  0  0  0  0  0  0  0  0
   66.0000   44.3950   -1.3990 C   0  0  0  0  0  0  0  0  0  0  0  0
   65.3540   45.4440   -2.0580 C   0  0  0  0  0  0  0  0  0  0  0  0
   65.6070   45.6830   -3.4110 C   0  0  0  0  0  0  0  0  0  0  0  0
   66.5030   44.8710   -4.1020 C   0  0  0  0  0  0  0  0  0  0  0  0
   66.7040   45.1600   -5.4240 O   0  0  0  0  0  0  0  0  0  0  0  0
   67.1470   43.8210   -3.4430 C   0  0  0  0  0  0  0  0  0  0  0  0
   68.0950   42.9440   -4.1330 C   0  0  0  0  0  0  0  0  0  0  0  0
   68.3740   43.0940   -5.3210 O   0  0  0  0  0  0  0  0  0  0  0  0
   68.7180   41.8550   -3.3460 C   0  0  0  0  0  0  0  0  0  0  0  0
   69.6210   41.0410   -4.0050 O   0  0  0  0  0  0  0  0  0  0  0  0
   68.1290   39.6740   -0.6670 C   0  0  0  0  0  0  0  0  0  0  0  0
   68.6500   38.6720    0.1560 C   0  0  0  0  0  0  0  0  0  0  0  0
   70.0110   38.6530    0.5040 C   0  0  0  0  0  0  0  0  0  0  0  0
   70.5020   37.5310    1.3910 C   0  0  0  0  0  0  0  0  0  0  0  0
   71.0450   36.3620    0.5830 C   0  0  0  0  0  0  0  0  0  0  0  0
   72.6693   37.6562   -1.1962 H   0  0  0  0  0  0  0  0  0  0  0  0
   72.0167   38.7438   -2.4681 H   0  0  0  0  0  0  0  0  0  0  0  0
   73.7587   38.3058   -2.4681 H   0  0  0  0  0  0  0  0  0  0  0  0
   74.2536   39.7094   -0.6744 H   0  0  0  0  0  0  0  0  0  0  0  0
   72.9585   40.6416   -1.5295 H   0  0  0  0  0  0  0  0  0  0  0  0
   72.6112   38.8555    0.9241 H   0  0  0  0  0  0  0  0  0  0  0  0
   72.5239   40.6654    0.8544 H   0  0  0  0  0  0  0  0  0  0  0  0
   70.9750   41.4462   -1.2260 H   0  0  0  0  0  0  0  0  0  0  0  0
   65.8025   44.2096   -0.3329 H   0  0  0  0  0  0  0  0  0  0  0  0
   64.6451   46.0827   -1.5107 H   0  0  0  0  0  0  0  0  0  0  0  0
   65.0999   46.5103   -3.9291 H   0  0  0  0  0  0  0  0  0  0  0  0
   67.1240   45.9610   -5.6700 H   0  0  0  0  0  0  0  0  0  0  0  0
   69.3580   40.1920   -4.3010 H   0  0  0  0  0  0  0  0  0  0  0  0
   67.0601   39.6640   -0.9265 H   0  0  0  0  0  0  0  0  0  0  0  0
   67.9832   37.8848    0.5378 H   0  0  0  0  0  0  0  0  0  0  0  0
   71.3020   37.9159    2.0405 H   0  0  0  0  0  0  0  0  0  0  0  0
   69.6491   37.1678    1.9831 H   0  0  0  0  0  0  0  0  0  0  0  0
   71.4079   35.5807    1.2670 H   0  0  0  0  0  0  0  0  0  0  0  0
   70.2453   35.9517   -0.0511 H   0  0  0  0  0  0  0  0  0  0  0  0
   71.8744   36.7084   -0.0511 H   0  0  0  0  0  0  0  0  0  0  0  0
  1  2  1  0
  2  3  1  0
  3  4  1  0
  4  5  2  0
  5  6  1  0
  6  7  1  0
  7  8  1  0
  8  9  1  0
  9 10  2  0
 10 11  1  0
 11 12  2  0
 12 13  1  0
 13 14  1  0
 13 15  2  0
 15 16  1  0
 16 17  2  0
 16 18  1  0
 18 19  1  0
  6 20  2  0
 20 21  1  0
 21 22  2  0
 22 23  1  0
 23 24  1  0
 22  4  1  0
 18  7  2  0
 15  9  1  0
  1 25  1  0
  1 26  1  0
  1 27  1  0
  2 28  1  0
  2 29  1  0
  3 30  1  0
  3 31  1  0
  5 32  1  0
 10 33  1  0
 11 34  1  0
 12 35  1  0
 14 36  1  0
 19 37  1  0
 20 38  1  0
 21 39  1  0
 23 40  1  0
 23 41  1  0
 24 42  1  0
 24 43  1  0
 24 44  1  0
M  END
>  <meeko>  (2) 
{"is_sidechain": [false], "free_energy": -7.984, "intermolecular_energy": -9.837, "internal_energy": -0.827}

$$$$
cand_033_out
     RDKit          3D

 44 46  0  0  0  0  0  0  0  0999 V2000
   66.8070   39.3850   -1.4180 C   0  0  0  0  0  0  0  0  0  0  0  0
   68.1370   40.1210   -1.3980 C   0  0  0  0  0  0  0  0  0  0  0  0
   68.9940   39.6940   -0.2050 C   0  0  0  0  0  0  0  0  0  0  0  0
   70.4020   39.3350   -0.6280 C   0  0  0  0  0  0  0  0  0  0  0  0
   71.0970   40.2480   -1.4480 C   0  0  0  0  0  0  0  0  0  0  0  0
   72.3960   39.9910   -1.9060 C   0  0  0  0  0  0  0  0  0  0  0  0
   73.1330   40.9610   -2.7440 C   0  0  0  0  0  0  0  0  0  0  0  0
   74.1580   41.6000   -2.0550 O   0  0  0  0  0  0  0  0  0  0  0  0
   74.9230   42.5280   -2.7150 C   0  0  0  0  0  0  0  0  0  0  0  0
   75.9300   43.1560   -1.9810 C   0  0  0  0  0  0  0  0  0  0  0  0
   76.7470   44.1100   -2.5930 C   0  0  0  0  0  0  0  0  0  0  0  0
   76.5560   44.4350   -3.9380 C   0  0  0  0  0  0  0  0  0  0  0  0
   75.5500   43.8060   -4.6680 C   0  0  0  0  0  0  0  0  0  0  0  0
   75.4190   44.1710   -5.9790 O   0  0  0  0  0  0  0  0  0  0  0  0
   74.7340   42.8520   -4.0550 C   0  0  0  0  0  0  0  0  0  0  0  0
   73.6650   42.1680   -4.7850 C   0  0  0  0  0  0  0  0  0  0  0  0
   73.4400   42.3960   -5.9720 O   0  0  0  0  0  0  0  0  0  0  0  0
   72.8500   41.1810   -4.0410 C   0  0  0  0  0  0  0  0  0  0  0  0
   71.8520   40.5310   -4.7450 O   0  0  0  0  0  0  0  0  0  0  0  0
   73.0120   38.7980   -1.5170 C   0  0  0  0  0  0  0  0  0  0  0  0
   72.3370   37.8790   -0.7100 C   0  0  0  0  0  0  0  0  0  0  0  0
   71.0280   38.1270   -0.2640 C   0  0  0  0  0  0  0  0  0  0  0  0
   70.3680   37.0870    0.6130 C   0  0  0  0  0  0  0  0  0  0  0  0
   71.3820   36.3270    1.4550 C   0  0  0  0  0  0  0  0  0  0  0  0
   66.4743   39.2009   -0.3858 H   0  0  0  0  0  0  0  0  0  0  0  0
   66.0573   39.9966   -1.9413 H   0  0  0  0  0  0  0  0  0  0  0  0
   66.9270   38.4249   -1.9413 H   0  0  0  0  0  0  0  0  0  0  0  0
   68.6822   39.9000   -2.3275 H   0  0  0  0  0  0  0  0  0  0  0  0
   67.9347   41.1987   -1.3105 H   0  0  0  0  0  0  0  0  0  0  0  0
   69.0389   40.5229    0.5167 H   0  0  0  0  0  0  0  0  0  0  0  0
   68.5337   38.8029    0.2468 H   0  0  0  0  0  0  0  0  0  0  0  0
   70.6052   41.1888   -1.7363 H   0  0  0  0  0  0  0  0  0  0  0  0
   76.0804   42.9003   -0.9218 H   0  0  0  0  0  0  0  0  0  0  0  0
   77.5412   44.6055   -2.0152 H   0  0  0  0  0  0  0  0  0  0  0  0
   77.1989   45.1863   -4.4199 H   0  0  0  0  0  0  0  0  0  0  0  0
   75.7740   43.6270   -6.6550 H   0  0  0  0  0  0  0  0  0  0  0  0
   71.1280   41.0180   -5.0870 H   0  0  0  0  0  0  0  0  0  0  0  0
   74.0378   38.5808   -1.8495 H   0  0  0  0  0  0  0  0  0  0  0  0
   72.8392   36.9447   -0.4186 H   0  0  0  0  0  0  0  0  0  0  0  0
   69.6541   37.5884    1.2831 H   0  0  0  0  0  0  0  0  0  0  0  0
   69.8584   36.3640   -0.0409 H   0  0  0  0  0  0  0  0  0  0  0  0
   71.1671   36.4881    2.5217 H   0  0  0  0  0  0  0  0  0  0  0  0
   71.3174   35.2530    1.2260 H   0  0  0  0  0  0  0  0  0  0  0  0
   72.3947   36.6904    1.2260 H   0  0  0  0  0  0  0  0  0  0  0  0
  1  2  1  0
  2  3  1  0
  3  4  1  0
  4  5  2  0
  5  6  1  0
  6  7  1  0
  7  8  1  0
  8  9  1  0
  9 10  2  0
 10 11  1  0
 11 12  2  0
 12 13  1  0
 13 14  1  0
 13 15  2  0
 15 16  1  0
 16 17  2  0
 16 18  1  0
 18 19  1  0
  6 20  2  0
 20 21  1  0
 21 22  2  0
 22 23  1  0
 23 24  1  0
 22  4  1  0
 18  7  2  0
 15  9  1  0
  1 25  1  0
  1 26  1  0
  1 27  1  0
  2 28  1  0
  2 29  1  0
  3 30  1  0
  3 31  1  0
  5 32  1  0
 10 33  1  0
 11 34  1  0
 12 35  1  0
 14 36  1  0
 19 37  1  0
 20 38  1  0
 21 39  1  0
 23 40  1  0
 23 41  1  0
 24 42  1  0
 24 43  1  0
 24 44  1  0
M  END
>  <meeko>  (3) 
{"is_sidechain": [false], "free_energy": -7.904, "intermolecular_energy": -9.837, "internal_energy": -0.724}

$$$$
cand_033_out
     RDKit          3D

 44 46  0  0  0  0  0  0  0  0999 V2000
   71.6450   36.6430    1.1290 C   0  0  0  0  0  0  0  0  0  0  0  0
   72.5870   37.4640    0.2630 C   0  0  0  0  0  0  0  0  0  0  0  0
   71.9860   37.7320   -1.1180 C   0  0  0  0  0  0  0  0  0  0  0  0
   71.9760   39.2080   -1.4480 C   0  0  0  0  0  0  0  0  0  0  0  0
   72.9560   39.6910   -2.3410 C   0  0  0  0  0  0  0  0  0  0  0  0
   73.0380   41.0460   -2.6880 C   0  0  0  0  0  0  0  0  0  0  0  0
   74.0490   41.5450   -3.6440 C   0  0  0  0  0  0  0  0  0  0  0  0
   73.4940   41.9520   -4.8520 O   0  0  0  0  0  0  0  0  0  0  0  0
   74.3210   42.4380   -5.8330 C   0  0  0  0  0  0  0  0  0  0  0  0
   73.7240   42.8210   -7.0340 C   0  0  0  0  0  0  0  0  0  0  0  0
   74.5090   43.3250   -8.0730 C   0  0  0  0  0  0  0  0  0  0  0  0
   75.8910   43.4470   -7.9110 C   0  0  0  0  0  0  0  0  0  0  0  0
   76.4840   43.0640   -6.7100 C   0  0  0  0  0  0  0  0  0  0  0  0
   77.8410   43.2110   -6.6180 O   0  0  0  0  0  0  0  0  0  0  0  0
   75.6980   42.5600   -5.6710 C   0  0  0  0  0  0  0  0  0  0  0  0
   76.2820   42.1450   -4.3940 C   0  0  0  0  0  0  0  0  0  0  0  0
   77.4880   42.2290   -4.1730 O   0  0  0  0  0  0  0  0  0  0  0  0
   75.3630   41.6160   -3.3610 C   0  0  0  0  0  0  0  0  0  0  0  0
   75.9230   41.2400   -2.1530 O   0  0  0  0  0  0  0  0  0  0  0  0
   72.1060   41.9290   -2.1360 C   0  0  0  0  0  0  0  0  0  0  0  0
   71.1320   41.4710   -1.2450 C   0  0  0  0  0  0  0  0  0  0  0  0
   71.0590   40.1150   -0.8820 C   0  0  0  0  0  0  0  0  0  0  0  0
   69.9710   39.6960    0.0810 C   0  0  0  0  0  0  0  0  0  0  0  0
   68.6650   39.3880   -0.6360 C   0  0  0  0  0  0  0  0  0  0  0  0
   71.8632   36.8331    2.1903 H   0  0  0  0  0  0  0  0  0  0  0  0
   70.6050   36.9280    0.9117 H   0  0  0  0  0  0  0  0  0  0  0  0
   71.7852   35.5738    0.9117 H   0  0  0  0  0  0  0  0  0  0  0  0
   72.7837   38.4253    0.7602 H   0  0  0  0  0  0  0  0  0  0  0  0
   73.5189   36.8949    0.1301 H   0  0  0  0  0  0  0  0  0  0  0  0
   72.5823   37.2017   -1.8751 H   0  0  0  0  0  0  0  0  0  0  0  0
   70.9456   37.3749   -1.1139 H   0  0  0  0  0  0  0  0  0  0  0  0
   73.6763   38.9833   -2.7773 H   0  0  0  0  0  0  0  0  0  0  0  0
   72.6357   42.7261   -7.1626 H   0  0  0  0  0  0  0  0  0  0  0  0
   74.0384   43.6264   -9.0205 H   0  0  0  0  0  0  0  0  0  0  0  0
   76.5093   43.8444   -8.7294 H   0  0  0  0  0  0  0  0  0  0  0  0
   78.3870   42.4590   -6.4940 H   0  0  0  0  0  0  0  0  0  0  0  0
   75.6750   41.6800   -1.3640 H   0  0  0  0  0  0  0  0  0  0  0  0
   72.1395   42.9949   -2.4056 H   0  0  0  0  0  0  0  0  0  0  0  0
   70.4099   42.1839   -0.8203 H   0  0  0  0  0  0  0  0  0  0  0  0
   70.3011   38.7960    0.6205 H   0  0  0  0  0  0  0  0  0  0  0  0
   69.7901   40.5306    0.7743 H   0  0  0  0  0  0  0  0  0  0  0  0
   67.8745   39.2016    0.1059 H   0  0  0  0  0  0  0  0  0  0  0  0
   68.3819   40.2440   -1.2662 H   0  0  0  0  0  0  0  0  0  0  0  0
   68.7943   38.4957   -1.2662 H   0  0  0  0  0  0  0  0  0  0  0  0
  1  2  1  0
  2  3  1  0
  3  4  1  0
  4  5  2  0
  5  6  1  0
  6  7  1  0
  7  8  1  0
  8  9  1  0
  9 10  2  0
 10 11  1  0
 11 12  2  0
 12 13  1  0
 13 14  1  0
 13 15  2  0
 15 16  1  0
 16 17  2  0
 16 18  1  0
 18 19  1  0
  6 20  2  0
 20 21  1  0
 21 22  2  0
 22 23  1  0
 23 24  1  0
 22  4  1  0
 18  7  2  0
 15  9  1  0
  1 25  1  0
  1 26  1  0
  1 27  1  0
  2 28  1  0
  2 29  1  0
  3 30  1  0
  3 31  1  0
  5 32  1  0
 10 33  1  0
 11 34  1  0
 12 35  1  0
 14 36  1  0
 19 37  1  0
 20 38  1  0
 21 39  1  0
 23 40  1  0
 23 41  1  0
 24 42  1  0
 24 43  1  0
 24 44  1  0
M  END
>  <meeko>  (4) 
{"is_sidechain": [false], "free_energy": -7.793, "intermolecular_energy": -9.723, "internal_energy": -0.693}

$$$$
cand_033_out
     RDKit          3D

 44 46  0  0  0  0  0  0  0  0999 V2000
   68.2310   41.5980   -2.0760 C   0  0  0  0  0  0  0  0  0  0  0  0
   69.1550   42.6790   -1.5360 C   0  0  0  0  0  0  0  0  0  0  0  0
   70.1470   42.1090   -0.5200 C   0  0  0  0  0  0  0  0  0  0  0  0
   71.1220   41.1500   -1.1670 C   0  0  0  0  0  0  0  0  0  0  0  0
   72.0770   41.6820   -2.0590 C   0  0  0  0  0  0  0  0  0  0  0  0
   73.0060   40.8680   -2.7210 C   0  0  0  0  0  0  0  0  0  0  0  0
   74.0220   41.4300   -3.6350 C   0  0  0  0  0  0  0  0  0  0  0  0
   73.4870   41.8390   -4.8510 O   0  0  0  0  0  0  0  0  0  0  0  0
   74.3220   42.3800   -5.7960 C   0  0  0  0  0  0  0  0  0  0  0  0
   73.7440   42.7640   -7.0070 C   0  0  0  0  0  0  0  0  0  0  0  0
   74.5390   43.3230   -8.0110 C   0  0  0  0  0  0  0  0  0  0  0  0
   75.9080   43.4990   -7.8030 C   0  0  0  0  0  0  0  0  0  0  0  0
   76.4810   43.1160   -6.5930 C   0  0  0  0  0  0  0  0  0  0  0  0
   77.8270   43.3170   -6.4560 O   0  0  0  0  0  0  0  0  0  0  0  0
   75.6860   42.5560   -5.5890 C   0  0  0  0  0  0  0  0  0  0  0  0
   76.2490   42.1400   -4.3030 C   0  0  0  0  0  0  0  0  0  0  0  0
   77.4430   42.2690   -4.0440 O   0  0  0  0  0  0  0  0  0  0  0  0
   75.3220   41.5500   -3.3100 C   0  0  0  0  0  0  0  0  0  0  0  0
   75.8620   41.1720   -2.0940 O   0  0  0  0  0  0  0  0  0  0  0  0
   72.9800   39.4930   -2.4680 C   0  0  0  0  0  0  0  0  0  0  0  0
   72.0380   38.9470   -1.5930 C   0  0  0  0  0  0  0  0  0  0  0  0
   71.0950   39.7600   -0.9410 C   0  0  0  0  0  0  0  0  0  0  0  0
   70.1130   39.0950   -0.0030 C   0  0  0  0  0  0  0  0  0  0  0  0
   70.5190   37.6660    0.3260 C   0  0  0  0  0  0  0  0  0  0  0  0
   67.7691   41.0576   -1.2366 H   0  0  0  0  0  0  0  0  0  0  0  0
   67.4452   42.0609   -2.6909 H   0  0  0  0  0  0  0  0  0  0  0  0
   68.8106   40.8938   -2.6909 H   0  0  0  0  0  0  0  0  0  0  0  0
   69.7147   43.1223   -2.3728 H   0  0  0  0  0  0  0  0  0  0  0  0
   68.5407   43.4391   -1.0312 H   0  0  0  0  0  0  0  0  0  0  0  0
   70.7101   42.9386   -0.0676 H   0  0  0  0  0  0  0  0  0  0  0  0
   69.5778   41.5568    0.2423 H   0  0  0  0  0  0  0  0  0  0  0  0
   72.0928   42.7669   -2.2400 H   0  0  0  0  0  0  0  0  0  0  0  0
   72.6649   42.6269   -7.1707 H   0  0  0  0  0  0  0  0  0  0  0  0
   74.0854   43.6248   -8.9666 H   0  0  0  0  0  0  0  0  0  0  0  0
   76.5332   43.9395   -8.5936 H   0  0  0  0  0  0  0  0  0  0  0  0
   78.1690   43.6730   -5.6590 H   0  0  0  0  0  0  0  0  0  0  0  0
   75.6600   40.3310   -1.7320 H   0  0  0  0  0  0  0  0  0  0  0  0
   73.7089   38.8345   -2.9631 H   0  0  0  0  0  0  0  0  0  0  0  0
   72.0342   37.8621   -1.4111 H   0  0  0  0  0  0  0  0  0  0  0  0
   70.0651   39.6747    0.9306 H   0  0  0  0  0  0  0  0  0  0  0  0
   69.1333   39.0640   -0.5022 H   0  0  0  0  0  0  0  0  0  0  0  0
   70.5555   37.5374    1.4178 H   0  0  0  0  0  0  0  0  0  0  0  0
   69.7835   36.9683   -0.1010 H   0  0  0  0  0  0  0  0  0  0  0  0
   71.5114   37.4592   -0.1010 H   0  0  0  0  0  0  0  0  0  0  0  0
  1  2  1  0
  2  3  1  0
  3  4  1  0
  4  5  2  0
  5  6  1  0
  6  7  1  0
  7  8  1  0
  8  9  1  0
  9 10  2  0
 10 11  1  0
 11 12  2  0
 12 13  1  0
 13 14  1  0
 13 15  2  0
 15 16  1  0
 16 17  2  0
 16 18  1  0
 18 19  1  0
  6 20  2  0
 20 21  1  0
 21 22  2  0
 22 23  1  0
 23 24  1  0
 22  4  1  0
 18  7  2  0
 15  9  1  0
  1 25  1  0
  1 26  1  0
  1 27  1  0
  2 28  1  0
  2 29  1  0
  3 30  1  0
  3 31  1  0
  5 32  1  0
 10 33  1  0
 11 34  1  0
 12 35  1  0
 14 36  1  0
 19 37  1  0
 20 38  1  0
 21 39  1  0
 23 40  1  0
 23 41  1  0
 24 42  1  0
 24 43  1  0
 24 44  1  0
M  END
>  <meeko>  (5) 
{"is_sidechain": [false], "free_energy": -7.711, "intermolecular_energy": -9.481, "internal_energy": -0.83}

$$$$
cand_033_out
     RDKit          3D

 44 46  0  0  0  0  0  0  0  0999 V2000
   76.3300   42.7530   -1.7200 C   0  0  0  0  0  0  0  0  0  0  0  0
   76.2810   43.7210   -2.8910 C   0  0  0  0  0  0  0  0  0  0  0  0
   74.8790   44.3040   -3.0760 C   0  0  0  0  0  0  0  0  0  0  0  0
   73.9280   43.2940   -3.6790 C   0  0  0  0  0  0  0  0  0  0  0  0
   73.2300   42.4390   -2.8000 C   0  0  0  0  0  0  0  0  0  0  0  0
   72.3450   41.4580   -3.2670 C   0  0  0  0  0  0  0  0  0  0  0  0
   71.5950   40.5800   -2.3430 C   0  0  0  0  0  0  0  0  0  0  0  0
   72.3800   39.5650   -1.8080 O   0  0  0  0  0  0  0  0  0  0  0  0
   71.8090   38.6750   -0.9340 C   0  0  0  0  0  0  0  0  0  0  0  0
   72.6290   37.6640   -0.4330 C   0  0  0  0  0  0  0  0  0  0  0  0
   72.1100   36.7260    0.4620 C   0  0  0  0  0  0  0  0  0  0  0  0
   70.7730   36.8000    0.8570 C   0  0  0  0  0  0  0  0  0  0  0  0
   69.9570   37.8110    0.3560 C   0  0  0  0  0  0  0  0  0  0  0  0
   68.6580   37.8260    0.7850 O   0  0  0  0  0  0  0  0  0  0  0  0
   70.4770   38.7490   -0.5400 C   0  0  0  0  0  0  0  0  0  0  0  0
   69.6530   39.8270   -1.0910 C   0  0  0  0  0  0  0  0  0  0  0  0
   68.4700   39.9620   -0.7860 O   0  0  0  0  0  0  0  0  0  0  0  0
   70.2970   40.7640   -2.0400 C   0  0  0  0  0  0  0  0  0  0  0  0
   69.5140   41.7860   -2.5440 O   0  0  0  0  0  0  0  0  0  0  0  0
   72.1480   41.3470   -4.6470 C   0  0  0  0  0  0  0  0  0  0  0  0
   72.8340   42.1810   -5.5330 C   0  0  0  0  0  0  0  0  0  0  0  0
   73.7350   43.1530   -5.0670 C   0  0  0  0  0  0  0  0  0  0  0  0
   74.4330   44.0220   -6.0890 C   0  0  0  0  0  0  0  0  0  0  0  0
   75.4890   43.2500   -6.8660 C   0  0  0  0  0  0  0  0  0  0  0  0
   76.3014   43.3174   -0.7763 H   0  0  0  0  0  0  0  0  0  0  0  0
   75.4650   42.0751   -1.7682 H   0  0  0  0  0  0  0  0  0  0  0  0
   77.2590   42.1660   -1.7682 H   0  0  0  0  0  0  0  0  0  0  0  0
   76.9885   44.5426   -2.7058 H   0  0  0  0  0  0  0  0  0  0  0  0
   76.5506   43.1718   -3.8052 H   0  0  0  0  0  0  0  0  0  0  0  0
   74.4912   44.6177   -2.0956 H   0  0  0  0  0  0  0  0  0  0  0  0
   74.9515   45.1596   -3.7635 H   0  0  0  0  0  0  0  0  0  0  0  0
   73.3851   42.5456   -1.7162 H   0  0  0  0  0  0  0  0  0  0  0  0
   73.6830   37.6056   -0.7424 H   0  0  0  0  0  0  0  0  0  0  0  0
   72.7557   35.9275    0.8564 H   0  0  0  0  0  0  0  0  0  0  0  0
   70.3650   36.0612    1.5625 H   0  0  0  0  0  0  0  0  0  0  0  0
   68.1190   37.0680    0.6720 H   0  0  0  0  0  0  0  0  0  0  0  0
   69.0330   41.6590   -3.3380 H   0  0  0  0  0  0  0  0  0  0  0  0
   71.4462   40.5958   -5.0385 H   0  0  0  0  0  0  0  0  0  0  0  0
   72.6658   42.0748   -6.6149 H   0  0  0  0  0  0  0  0  0  0  0  0
   73.6848   44.4101   -6.7958 H   0  0  0  0  0  0  0  0  0  0  0  0
   74.9356   44.8406   -5.5531 H   0  0  0  0  0  0  0  0  0  0  0  0
   76.1711   42.7514   -6.1616 H   0  0  0  0  0  0  0  0  0  0  0  0
   74.9997   42.4952   -7.4991 H   0  0  0  0  0  0  0  0  0  0  0  0
   76.0598   43.9453   -7.4991 H   0  0  0  0  0  0  0  0  0  0  0  0
  1  2  1  0
  2  3  1  0
  3  4  1  0
  4  5  2  0
  5  6  1  0
  6  7  1  0
  7  8  1  0
  8  9  1  0
  9 10  2  0
 10 11  1  0
 11 12  2  0
 12 13  1  0
 13 14  1  0
 13 15  2  0
 15 16  1  0
 16 17  2  0
 16 18  1  0
 18 19  1  0
  6 20  2  0
 20 21  1  0
 21 22  2  0
 22 23  1  0
 23 24  1  0
 22  4  1  0
 18  7  2  0
 15  9  1  0
  1 25  1  0
  1 26  1  0
  1 27  1  0
  2 28  1  0
  2 29  1  0
  3 30  1  0
  3 31  1  0
  5 32  1  0
 10 33  1  0
 11 34  1  0
 12 35  1  0
 14 36  1  0
 19 37  1  0
 20 38  1  0
 21 39  1  0
 23 40  1  0
 23 41  1  0
 24 42  1  0
 24 43  1  0
 24 44  1  0
M  END
>  <meeko>  (6) 
{"is_sidechain": [false], "free_energy": -7.679, "intermolecular_energy": -9.611, "internal_energy": -0.659}

$$$$
cand_033_out
     RDKit          3D

 44 46  0  0  0  0  0  0  0  0999 V2000
   76.3620   43.5450   -7.4480 C   0  0  0  0  0  0  0  0  0  0  0  0
   75.5530   42.4750   -6.7330 C   0  0  0  0  0  0  0  0  0  0  0  0
   74.0540   42.7750   -6.7940 C   0  0  0  0  0  0  0  0  0  0  0  0
   73.4930   43.1070   -5.4290 C   0  0  0  0  0  0  0  0  0  0  0  0
   73.2030   42.0370   -4.5570 C   0  0  0  0  0  0  0  0  0  0  0  0
   72.6620   42.2470   -3.2820 C   0  0  0  0  0  0  0  0  0  0  0  0
   72.3830   41.1260   -2.3590 C   0  0  0  0  0  0  0  0  0  0  0  0
   71.0330   41.0100   -2.0440 O   0  0  0  0  0  0  0  0  0  0  0  0
   70.6330   40.0090   -1.1950 C   0  0  0  0  0  0  0  0  0  0  0  0
   69.2730   39.9390   -0.8950 C   0  0  0  0  0  0  0  0  0  0  0  0
   68.7990   38.9430   -0.0380 C   0  0  0  0  0  0  0  0  0  0  0  0
   69.6850   38.0180    0.5180 C   0  0  0  0  0  0  0  0  0  0  0  0
   71.0430   38.0910    0.2160 C   0  0  0  0  0  0  0  0  0  0  0  0
   71.8550   37.1530    0.7930 O   0  0  0  0  0  0  0  0  0  0  0  0
   71.5160   39.0870   -0.6420 C   0  0  0  0  0  0  0  0  0  0  0  0
   72.9350   39.1990   -0.9850 C   0  0  0  0  0  0  0  0  0  0  0  0
   73.7750   38.4190   -0.5410 O   0  0  0  0  0  0  0  0  0  0  0  0
   73.3350   40.2970   -1.8950 C   0  0  0  0  0  0  0  0  0  0  0  0
   74.6760   40.3850   -2.2230 O   0  0  0  0  0  0  0  0  0  0  0  0
   72.4220   43.5620   -2.8720 C   0  0  0  0  0  0  0  0  0  0  0  0
   72.6980   44.6350   -3.7240 C   0  0  0  0  0  0  0  0  0  0  0  0
   73.2240   44.4250   -5.0100 C   0  0  0  0  0  0  0  0  0  0  0  0
   73.5030   45.6380   -5.8690 C   0  0  0  0  0  0  0  0  0  0  0  0
   74.8160   46.3090   -5.4950 C   0  0  0  0  0  0  0  0  0  0  0  0
   76.8513   44.1922   -6.7053 H   0  0  0  0  0  0  0  0  0  0  0  0
   77.1265   43.0669   -8.0781 H   0  0  0  0  0  0  0  0  0  0  0  0
   75.6936   44.1502   -8.0781 H   0  0  0  0  0  0  0  0  0  0  0  0
   75.7433   41.5029   -7.2114 H   0  0  0  0  0  0  0  0  0  0  0  0
   75.8598   42.4568   -5.6768 H   0  0  0  0  0  0  0  0  0  0  0  0
   73.8889   43.6310   -7.4649 H   0  0  0  0  0  0  0  0  0  0  0  0
   73.5398   41.8767   -7.1665 H   0  0  0  0  0  0  0  0  0  0  0  0
   73.4075   41.0080   -4.8876 H   0  0  0  0  0  0  0  0  0  0  0  0
   68.5743   40.6672   -1.3327 H   0  0  0  0  0  0  0  0  0  0  0  0
   67.7263   38.8873    0.1992 H   0  0  0  0  0  0  0  0  0  0  0  0
   69.3116   37.2336    1.1928 H   0  0  0  0  0  0  0  0  0  0  0  0
   71.6540   36.8210    1.6460 H   0  0  0  0  0  0  0  0  0  0  0  0
   75.2230   41.0110   -1.7910 H   0  0  0  0  0  0  0  0  0  0  0  0
   72.0121   43.7539   -1.8694 H   0  0  0  0  0  0  0  0  0  0  0  0
   72.5001   45.6616   -3.3820 H   0  0  0  0  0  0  0  0  0  0  0  0
   73.5515   45.3242   -6.9222 H   0  0  0  0  0  0  0  0  0  0  0  0
   72.6918   46.3633   -5.7079 H   0  0  0  0  0  0  0  0  0  0  0  0
   74.9054   46.3547   -4.3996 H   0  0  0  0  0  0  0  0  0  0  0  0
   75.6547   45.7290   -5.9075 H   0  0  0  0  0  0  0  0  0  0  0  0
   74.8373   47.3285   -5.9075 H   0  0  0  0  0  0  0  0  0  0  0  0
  1  2  1  0
  2  3  1  0
  3  4  1  0
  4  5  2  0
  5  6  1  0
  6  7  1  0
  7  8  1  0
  8  9  1  0
  9 10  2  0
 10 11  1  0
 11 12  2  0
 12 13  1  0
 13 14  1  0
 13 15  2  0
 15 16  1  0
 16 17  2  0
 16 18  1  0
 18 19  1  0
  6 20  2  0
 20 21  1  0
 21 22  2  0
 22 23  1  0
 23 24  1  0
 22  4  1  0
 18  7  2  0
 15  9  1  0
  1 25  1  0
  1 26  1  0
  1 27  1  0
  2 28  1  0
  2 29  1  0
  3 30  1  0
  3 31  1  0
  5 32  1  0
 10 33  1  0
 11 34  1  0
 12 35  1  0
 14 36  1  0
 19 37  1  0
 20 38  1  0
 21 39  1  0
 23 40  1  0
 23 41  1  0
 24 42  1  0
 24 43  1  0
 24 44  1  0
M  END
>  <meeko>  (7) 
{"is_sidechain": [false], "free_energy": -7.589, "intermolecular_energy": -9.323, "internal_energy": -0.83}

$$$$
cand_033_out
     RDKit          3D

 44 46  0  0  0  0  0  0  0  0999 V2000
   74.9740   44.8810   -5.9310 C   0  0  0  0  0  0  0  0  0  0  0  0
   74.2180   45.5690   -4.8060 C   0  0  0  0  0  0  0  0  0  0  0  0
   74.8640   45.2910   -3.4480 C   0  0  0  0  0  0  0  0  0  0  0  0
   74.6860   43.8490   -3.0270 C   0  0  0  0  0  0  0  0  0  0  0  0
   73.3710   43.3580   -2.8960 C   0  0  0  0  0  0  0  0  0  0  0  0
   73.1080   42.0420   -2.4900 C   0  0  0  0  0  0  0  0  0  0  0  0
   71.7280   41.5220   -2.3780 C   0  0  0  0  0  0  0  0  0  0  0  0
   71.5330   40.7560   -1.2340 O   0  0  0  0  0  0  0  0  0  0  0  0
   70.2960   40.2090   -1.0050 C   0  0  0  0  0  0  0  0  0  0  0  0
   70.1490   39.4350    0.1470 C   0  0  0  0  0  0  0  0  0  0  0  0
   68.9140   38.8500    0.4400 C   0  0  0  0  0  0  0  0  0  0  0  0
   67.8280   39.0410   -0.4170 C   0  0  0  0  0  0  0  0  0  0  0  0
   67.9790   39.8150   -1.5650 C   0  0  0  0  0  0  0  0  0  0  0  0
   66.8750   39.9610   -2.3590 O   0  0  0  0  0  0  0  0  0  0  0  0
   69.2130   40.3990   -1.8580 C   0  0  0  0  0  0  0  0  0  0  0  0
   69.4140   41.2190   -3.0550 C   0  0  0  0  0  0  0  0  0  0  0  0
   68.5050   41.4370   -3.8530 O   0  0  0  0  0  0  0  0  0  0  0  0
   70.7640   41.7850   -3.2780 C   0  0  0  0  0  0  0  0  0  0  0  0
   70.9380   42.5680   -4.4050 O   0  0  0  0  0  0  0  0  0  0  0  0
   74.1930   41.2010   -2.2280 C   0  0  0  0  0  0  0  0  0  0  0  0
   75.5040   41.6710   -2.3480 C   0  0  0  0  0  0  0  0  0  0  0  0
   75.7680   42.9950   -2.7370 C   0  0  0  0  0  0  0  0  0  0  0  0
   77.2130   43.4250   -2.8510 C   0  0  0  0  0  0  0  0  0  0  0  0
   77.7780   43.1570   -4.2390 C   0  0  0  0  0  0  0  0  0  0  0  0
   75.7240   44.1984   -5.5050 H   0  0  0  0  0  0  0  0  0  0  0  0
   74.2680   44.3091   -6.5511 H   0  0  0  0  0  0  0  0  0  0  0  0
   75.4770   45.6376   -6.5511 H   0  0  0  0  0  0  0  0  0  0  0  0
   74.2172   46.6541   -4.9865 H   0  0  0  0  0  0  0  0  0  0  0  0
   73.1909   45.1756   -4.7878 H   0  0  0  0  0  0  0  0  0  0  0  0
   75.9394   45.5130   -3.5129 H   0  0  0  0  0  0  0  0  0  0  0  0
   74.3736   45.9295   -2.6985 H   0  0  0  0  0  0  0  0  0  0  0  0
   72.5266   44.0269   -3.1188 H   0  0  0  0  0  0  0  0  0  0  0  0
   71.0037   39.2856    0.8232 H   0  0  0  0  0  0  0  0  0  0  0  0
   68.7972   38.2383    1.3468 H   0  0  0  0  0  0  0  0  0  0  0  0
   66.8558   38.5813   -0.1859 H   0  0  0  0  0  0  0  0  0  0  0  0
   66.9450   39.8430   -3.2860 H   0  0  0  0  0  0  0  0  0  0  0  0
   70.5980   43.4410   -4.4260 H   0  0  0  0  0  0  0  0  0  0  0  0
   74.0136   40.1591   -1.9244 H   0  0  0  0  0  0  0  0  0  0  0  0
   76.3432   40.9927   -2.1342 H   0  0  0  0  0  0  0  0  0  0  0  0
   77.2807   44.5028   -2.6416 H   0  0  0  0  0  0  0  0  0  0  0  0
   77.8000   42.8421   -2.1260 H   0  0  0  0  0  0  0  0  0  0  0  0
   78.7684   42.6872   -4.1473 H   0  0  0  0  0  0  0  0  0  0  0  0
   77.1020   42.4836   -4.7863 H   0  0  0  0  0  0  0  0  0  0  0  0
   77.8718   44.1066   -4.7863 H   0  0  0  0  0  0  0  0  0  0  0  0
  1  2  1  0
  2  3  1  0
  3  4  1  0
  4  5  2  0
  5  6  1  0
  6  7  1  0
  7  8  1  0
  8  9  1  0
  9 10  2  0
 10 11  1  0
 11 12  2  0
 12 13  1  0
 13 14  1  0
 13 15  2  0
 15 16  1  0
 16 17  2  0
 16 18  1  0
 18 19  1  0
  6 20  2  0
 20 21  1  0
 21 22  2  0
 22 23  1  0
 23 24  1  0
 22  4  1  0
 18  7  2  0
 15  9  1  0
  1 25  1  0
  1 26  1  0
  1 27  1  0
  2 28  1  0
  2 29  1  0
  3 30  1  0
  3 31  1  0
  5 32  1  0
 10 33  1  0
 11 34  1  0
 12 35  1  0
 14 36  1  0
 19 37  1  0
 20 38  1  0
 21 39  1  0
 23 40  1  0
 23 41  1  0
 24 42  1  0
 24 43  1  0
 24 44  1  0
M  END
>  <meeko>  (8) 
{"is_sidechain": [false], "free_energy": -7.531, "intermolecular_energy": -9.415, "internal_energy": -0.663}

$$$$
cand_033_out
     RDKit          3D

 44 46  0  0  0  0  0  0  0  0999 V2000
   73.9660   44.4130   -6.2740 C   0  0  0  0  0  0  0  0  0  0  0  0
   74.0910   42.9360   -6.6090 C   0  0  0  0  0  0  0  0  0  0  0  0
   75.3970   42.3500   -6.0700 C   0  0  0  0  0  0  0  0  0  0  0  0
   75.3900   42.2590   -4.5600 C   0  0  0  0  0  0  0  0  0  0  0  0
   74.2900   41.6260   -3.9430 C   0  0  0  0  0  0  0  0  0  0  0  0
   74.1850   41.5140   -2.5500 C   0  0  0  0  0  0  0  0  0  0  0  0
   73.0450   40.8290   -1.9070 C   0  0  0  0  0  0  0  0  0  0  0  0
   73.3910   39.5930   -1.3700 O   0  0  0  0  0  0  0  0  0  0  0  0
   72.4250   38.8480   -0.7430 C   0  0  0  0  0  0  0  0  0  0  0  0
   72.8140   37.6090   -0.2320 C   0  0  0  0  0  0  0  0  0  0  0  0
   71.8790   36.8000    0.4190 C   0  0  0  0  0  0  0  0  0  0  0  0
   70.5580   37.2310    0.5610 C   0  0  0  0  0  0  0  0  0  0  0  0
   70.1750   38.4690    0.0510 C   0  0  0  0  0  0  0  0  0  0  0  0
   68.8670   38.8300    0.2250 O   0  0  0  0  0  0  0  0  0  0  0  0
   71.1090   39.2770   -0.6010 C   0  0  0  0  0  0  0  0  0  0  0  0
   70.7470   40.5840   -1.1520 C   0  0  0  0  0  0  0  0  0  0  0  0
   69.6070   41.0350   -1.0610 O   0  0  0  0  0  0  0  0  0  0  0  0
   71.8100   41.3590   -1.8320 C   0  0  0  0  0  0  0  0  0  0  0  0
   71.4600   42.5980   -2.3380 O   0  0  0  0  0  0  0  0  0  0  0  0
   75.2170   42.0370   -1.7650 C   0  0  0  0  0  0  0  0  0  0  0  0
   76.3120   42.6720   -2.3570 C   0  0  0  0  0  0  0  0  0  0  0  0
   76.4090   42.8000   -3.7530 C   0  0  0  0  0  0  0  0  0  0  0  0
   77.6290   43.4930   -4.3180 C   0  0  0  0  0  0  0  0  0  0  0  0
   77.3820   44.9750   -4.5550 C   0  0  0  0  0  0  0  0  0  0  0  0
   73.9551   44.5416   -5.1816 H   0  0  0  0  0  0  0  0  0  0  0  0
   74.8211   44.9590   -6.6990 H   0  0  0  0  0  0  0  0  0  0  0  0
   73.0313   44.8075   -6.6990 H   0  0  0  0  0  0  0  0  0  0  0  0
   73.2443   42.3947   -6.1617 H   0  0  0  0  0  0  0  0  0  0  0  0
   74.0889   42.8279   -7.7037 H   0  0  0  0  0  0  0  0  0  0  0  0
   75.5337   41.3413   -6.4870 H   0  0  0  0  0  0  0  0  0  0  0  0
   76.2200   43.0158   -6.3689 H   0  0  0  0  0  0  0  0  0  0  0  0
   73.4916   41.2083   -4.5739 H   0  0  0  0  0  0  0  0  0  0  0  0
   73.8547   37.2699   -0.3415 H   0  0  0  0  0  0  0  0  0  0  0  0
   72.1837   35.8222    0.8203 H   0  0  0  0  0  0  0  0  0  0  0  0
   69.8223   36.5944    1.0742 H   0  0  0  0  0  0  0  0  0  0  0  0
   68.4220   39.3160   -0.4410 H   0  0  0  0  0  0  0  0  0  0  0  0
   70.8000   42.6640   -3.0000 H   0  0  0  0  0  0  0  0  0  0  0  0
   75.1665   41.9477   -0.6698 H   0  0  0  0  0  0  0  0  0  0  0  0
   77.1112   43.0784   -1.7197 H   0  0  0  0  0  0  0  0  0  0  0  0
   78.4621   43.3805   -3.6086 H   0  0  0  0  0  0  0  0  0  0  0  0
   77.8665   43.0284   -5.2863 H   0  0  0  0  0  0  0  0  0  0  0  0
   77.2959   45.4917   -3.5877 H   0  0  0  0  0  0  0  0  0  0  0  0
   78.2217   45.4002   -5.1243 H   0  0  0  0  0  0  0  0  0  0  0  0
   76.4498   45.1049   -5.1243 H   0  0  0  0  0  0  0  0  0  0  0  0
  1  2  1  0
  2  3  1  0
  3  4  1  0
  4  5  2  0
  5  6  1  0
  6  7  1  0
  7  8  1  0
  8  9  1  0
  9 10  2  0
 10 11  1  0
 11 12  2  0
 12 13  1  0
 13 14  1  0
 13 15  2  0
 15 16  1  0
 16 17  2  0
 16 18  1  0
 18 19  1  0
  6 20  2  0
 20 21  1  0
 21 22  2  0
 22 23  1  0
 23 24  1  0
 22  4  1  0
 18  7  2  0
 15  9  1  0
  1 25  1  0
  1 26  1  0
  1 27  1  0
  2 28  1  0
  2 29  1  0
  3 30  1  0
  3 31  1  0
  5 32  1  0
 10 33  1  0
 11 34  1  0
 12 35  1  0
 14 36  1  0
 19 37  1  0
 20 38  1  0
 21 39  1  0
 23 40  1  0
 23 41  1  0
 24 42  1  0
 24 43  1  0
 24 44  1  0
M  END
>  <meeko>  (9) 
{"is_sidechain": [false], "free_energy": -7.391, "intermolecular_energy": -8.967, "internal_energy": -0.931}

$$$$
