cand_004_out
     RDKit          3D

 38 40  0  0  0  0  0  0  0  0999 V2000
   67.8840   39.3050   -0.6730 C   0  0  0  0  0  0  0  0  0  0  0  0
   68.9900   38.9260    0.3010 C   0  0  0  0  0  0  0  0  0  0  0  0
   70.3620   39.0430   -0.3280 C   0  0  0  0  0  0  0  0  0  0  0  0
   70.5910   40.1080   -1.2240 C   0  0  0  0  0  0  0  0  0  0  0  0
   71.8250   40.2790   -1.8700 C   0  0  0  0  0  0  0  0  0  0  0  0
   72.0710   41.4080   -2.7910 C   0  0  0  0  0  0  0  0  0  0  0  0
   73.2290   42.1130   -2.4850 O   0  0  0  0  0  0  0  0  0  0  0  0
   73.5760   43.1880   -3.2630 C   0  0  0  0  0  0  0  0  0  0  0  0
   74.7380   43.8760   -2.9100 C   0  0  0  0  0  0  0  0  0  0  0  0
   75.1490   44.9790   -3.6620 C   0  0  0  0  0  0  0  0  0  0  0  0
   74.3990   45.3930   -4.7660 C   0  0  0  0  0  0  0  0  0  0  0  0
   73.2410   44.7040   -5.1150 C   0  0  0  0  0  0  0  0  0  0  0  0
   72.5560   45.1630   -6.2060 O   0  0  0  0  0  0  0  0  0  0  0  0
   72.8290   43.6020   -4.3620 C   0  0  0  0  0  0  0  0  0  0  0  0
   71.6180   42.8500   -4.6940 C   0  0  0  0  0  0  0  0  0  0  0  0
   70.9090   43.1480   -5.6540 O   0  0  0  0  0  0  0  0  0  0  0  0
   71.2650   41.7020   -3.8290 C   0  0  0  0  0  0  0  0  0  0  0  0
   70.1270   40.9900   -4.1590 O   0  0  0  0  0  0  0  0  0  0  0  0
   72.8490   39.3690   -1.5930 C   0  0  0  0  0  0  0  0  0  0  0  0
   72.6400   38.3060   -0.7100 C   0  0  0  0  0  0  0  0  0  0  0  0
   71.4000   38.1220   -0.0720 C   0  0  0  0  0  0  0  0  0  0  0  0
   71.2290   36.9550    0.8800 C   0  0  0  0  0  0  0  0  0  0  0  0
   70.7390   37.3250    2.0950 F   0  0  0  0  0  0  0  0  0  0  0  0
   72.4030   36.3080    1.1270 F   0  0  0  0  0  0  0  0  0  0  0  0
   70.3740   35.9990    0.4180 F   0  0  0  0  0  0  0  0  0  0  0  0
   66.9895   39.6115   -0.1109 H   0  0  0  0  0  0  0  0  0  0  0  0
   68.2226   40.1384   -1.3061 H   0  0  0  0  0  0  0  0  0  0  0  0
   67.6403   38.4391   -1.3061 H   0  0  0  0  0  0  0  0  0  0  0  0
   68.9405   39.5949    1.1728 H   0  0  0  0  0  0  0  0  0  0  0  0
   68.8391   37.8771    0.5962 H   0  0  0  0  0  0  0  0  0  0  0  0
   69.7800   40.8243   -1.4218 H   0  0  0  0  0  0  0  0  0  0  0  0
   75.3289   43.5502   -2.0413 H   0  0  0  0  0  0  0  0  0  0  0  0
   76.0643   45.5225   -3.3848 H   0  0  0  0  0  0  0  0  0  0  0  0
   74.7231   46.2616   -5.3580 H   0  0  0  0  0  0  0  0  0  0  0  0
   72.0280   45.9340   -6.1390 H   0  0  0  0  0  0  0  0  0  0  0  0
   70.1990   40.1850   -4.6330 H   0  0  0  0  0  0  0  0  0  0  0  0
   73.8301   39.4908   -2.0752 H   0  0  0  0  0  0  0  0  0  0  0  0
   73.4600   37.6005   -0.5104 H   0  0  0  0  0  0  0  0  0  0  0  0
  1  2  1  0
  2  3  1  0
  3  4  2  0
  4  5  1  0
  5  6  1  0
  6  7  1  0
  7  8  1  0
  8  9  2  0
  9 10  1  0
 10 11  2  0
 11 12  1  0
 12 13  1  0
 12 14  2  0
 14 15  1  0
 15 16  2  0
 15 17  1  0
 17 18  1  0
  5 19  2  0
 19 20  1  0
 20 21  2  0
 21 22  1  0
 22 23  1  0
 22 24  1  0
 22 25  1  0
 21  3  1  0
 17  6  2  0
 14  8  1  0
  1 26  1  0
  1 27  1  0
  1 28  1  0
  2 29  1  0
  2 30  1  0
  4 31  1  0
  9 32  1  0
 10 33  1  0
 11 34  1  0
 13 35  1  0
 18 36  1  0
 19 37  1  0
 20 38  1  0
M  END
>  <meeko>  (1) 
{"is_sidechain": [false], "free_energy": -8.401, "intermolecular_energy": -10.366, "internal_energy": -0.397}

$$$$
cand_004_out
     RDKit          3D

 38 40  0  0  0  0  0  0  0  0999 V2000
   69.8770   43.0560   -1.2420 C   0  0  0  0  0  0  0  0  0  0  0  0
   70.1420   41.7730   -0.4660 C   0  0  0  0  0  0  0  0  0  0  0  0
   71.1290   40.8750   -1.1800 C   0  0  0  0  0  0  0  0  0  0  0  0
   72.0690   41.4760   -2.0430 C   0  0  0  0  0  0  0  0  0  0  0  0
   73.0040   40.7180   -2.7620 C   0  0  0  0  0  0  0  0  0  0  0  0
   74.0020   41.3520   -3.6490 C   0  0  0  0  0  0  0  0  0  0  0  0
   73.4620   41.7670   -4.8610 O   0  0  0  0  0  0  0  0  0  0  0  0
   74.2810   42.3730   -5.7790 C   0  0  0  0  0  0  0  0  0  0  0  0
   73.7010   42.7590   -6.9880 C   0  0  0  0  0  0  0  0  0  0  0  0
   74.4790   43.3830   -7.9660 C   0  0  0  0  0  0  0  0  0  0  0  0
   75.8360   43.6190   -7.7350 C   0  0  0  0  0  0  0  0  0  0  0  0
   76.4120   43.2330   -6.5280 C   0  0  0  0  0  0  0  0  0  0  0  0
   77.7450   43.4950   -6.3690 O   0  0  0  0  0  0  0  0  0  0  0  0
   75.6340   42.6090   -5.5500 C   0  0  0  0  0  0  0  0  0  0  0  0
   76.2000   42.1850   -4.2690 C   0  0  0  0  0  0  0  0  0  0  0  0
   77.3840   42.3650   -3.9880 O   0  0  0  0  0  0  0  0  0  0  0  0
   75.2920   41.5260   -3.3030 C   0  0  0  0  0  0  0  0  0  0  0  0
   75.8320   41.1420   -2.0900 O   0  0  0  0  0  0  0  0  0  0  0  0
   73.0020   39.3300   -2.5950 C   0  0  0  0  0  0  0  0  0  0  0  0
   72.0770   38.7160   -1.7450 C   0  0  0  0  0  0  0  0  0  0  0  0
   71.1270   39.4710   -1.0340 C   0  0  0  0  0  0  0  0  0  0  0  0
   70.1510   38.7540   -0.1240 C   0  0  0  0  0  0  0  0  0  0  0  0
   70.3690   37.4120   -0.0590 F   0  0  0  0  0  0  0  0  0  0  0  0
   68.8570   38.9080   -0.5220 F   0  0  0  0  0  0  0  0  0  0  0  0
   70.1910   39.1910    1.1680 F   0  0  0  0  0  0  0  0  0  0  0  0
   69.7063   43.8826   -0.5366 H   0  0  0  0  0  0  0  0  0  0  0  0
   70.7462   43.2878   -1.8750 H   0  0  0  0  0  0  0  0  0  0  0  0
   68.9871   42.9245   -1.8750 H   0  0  0  0  0  0  0  0  0  0  0  0
   70.5484   42.0329    0.5226 H   0  0  0  0  0  0  0  0  0  0  0  0
   69.1909   41.2282   -0.3732 H   0  0  0  0  0  0  0  0  0  0  0  0
   72.0685   42.5703   -2.1551 H   0  0  0  0  0  0  0  0  0  0  0  0
   72.6325   42.5721   -7.1707 H   0  0  0  0  0  0  0  0  0  0  0  0
   74.0225   43.6888   -8.9189 H   0  0  0  0  0  0  0  0  0  0  0  0
   76.4488   44.1092   -8.5058 H   0  0  0  0  0  0  0  0  0  0  0  0
   78.1990   44.0150   -7.0020 H   0  0  0  0  0  0  0  0  0  0  0  0
   75.8960   41.7610   -1.3890 H   0  0  0  0  0  0  0  0  0  0  0  0
   73.7351   38.7150   -3.1375 H   0  0  0  0  0  0  0  0  0  0  0  0
   72.0926   37.6221   -1.6303 H   0  0  0  0  0  0  0  0  0  0  0  0
  1  2  1  0
  2  3  1  0
  3  4  2  0
  4  5  1  0
  5  6  1  0
  6  7  1  0
  7  8  1  0
  8  9  2  0
  9 10  1  0
 10 11  2  0
 11 12  1  0
 12 13  1  0
 12 14  2  0
 14 15  1  0
 15 16  2  0
 15 17  1  0
 17 18  1  0
  5 19  2  0
 19 20  1  0
 20 21  2  0
 21 22  1  0
 22 23  1  0
 22 24  1  0
 22 25  1  0
 21  3  1  0
 17  6  2  0
 14  8  1  0
  1 26  1  0
  1 27  1  0
  1 28  1  0
  2 29  1  0
  2 30  1  0
  4 31  1  0
  9 32  1  0
 10 33  1  0
 11 34  1  0
 13 35  1  0
 18 36  1  0
 19 37  1  0
 20 38  1  0
M  END
>  <meeko>  (2) 
{"is_sidechain": [false], "free_energy": -8.267, "intermolecular_energy": -10.0, "internal_energy": -0.597}

$$$$
cand_004_out
     RDKit          3D

 38 40  0  0  0  0  0  0  0  0999 V2000
   73.4830   39.5690   -1.2610 C   0  0  0  0  0  0  0  0  0  0  0  0
   72.7280   39.4060    0.0500 C   0  0  0  0  0  0  0  0  0  0  0  0
   71.2310   39.3400   -0.1650 C   0  0  0  0  0  0  0  0  0  0  0  0
   70.6230   40.3670   -0.9180 C   0  0  0  0  0  0  0  0  0  0  0  0
   69.2400   40.3970   -1.1470 C   0  0  0  0  0  0  0  0  0  0  0  0
   68.6080   41.4610   -1.9540 C   0  0  0  0  0  0  0  0  0  0  0  0
   67.7020   42.2240   -1.2280 O   0  0  0  0  0  0  0  0  0  0  0  0
   67.0430   43.2490   -1.8580 C   0  0  0  0  0  0  0  0  0  0  0  0
   66.1300   43.9790   -1.0950 C   0  0  0  0  0  0  0  0  0  0  0  0
   65.4270   45.0370   -1.6750 C   0  0  0  0  0  0  0  0  0  0  0  0
   65.6360   45.3640   -3.0170 C   0  0  0  0  0  0  0  0  0  0  0  0
   66.5470   44.6340   -3.7750 C   0  0  0  0  0  0  0  0  0  0  0  0
   66.7020   45.0090   -5.0820 O   0  0  0  0  0  0  0  0  0  0  0  0
   67.2500   43.5760   -3.1950 C   0  0  0  0  0  0  0  0  0  0  0  0
   68.2160   42.7820   -3.9560 C   0  0  0  0  0  0  0  0  0  0  0  0
   68.4600   43.0130   -5.1390 O   0  0  0  0  0  0  0  0  0  0  0  0
   68.9030   41.6770   -3.2500 C   0  0  0  0  0  0  0  0  0  0  0  0
   69.8230   40.9430   -3.9740 O   0  0  0  0  0  0  0  0  0  0  0  0
   68.4580   39.3640   -0.6200 C   0  0  0  0  0  0  0  0  0  0  0  0
   69.0420   38.3390    0.1300 C   0  0  0  0  0  0  0  0  0  0  0  0
   70.4270   38.3130    0.3750 C   0  0  0  0  0  0  0  0  0  0  0  0
   71.0070   37.1760    1.1910 C   0  0  0  0  0  0  0  0  0  0  0  0
   70.3300   36.0060    1.0330 F   0  0  0  0  0  0  0  0  0  0  0  0
   71.0020   37.4380    2.5280 F   0  0  0  0  0  0  0  0  0  0  0  0
   72.3040   36.8900    0.8800 F   0  0  0  0  0  0  0  0  0  0  0  0
   74.5384   39.7968   -1.0505 H   0  0  0  0  0  0  0  0  0  0  0  0
   73.4178   38.6361   -1.8401 H   0  0  0  0  0  0  0  0  0  0  0  0
   73.0387   40.3919   -1.8401 H   0  0  0  0  0  0  0  0  0  0  0  0
   73.0585   38.4770    0.5376 H   0  0  0  0  0  0  0  0  0  0  0  0
   72.9437   40.2824    0.6788 H   0  0  0  0  0  0  0  0  0  0  0  0
   71.2517   41.1665   -1.3371 H   0  0  0  0  0  0  0  0  0  0  0  0
   65.9646   43.7212   -0.0385 H   0  0  0  0  0  0  0  0  0  0  0  0
   64.7079   45.6135   -1.0746 H   0  0  0  0  0  0  0  0  0  0  0  0
   65.0816   46.1970   -3.4739 H   0  0  0  0  0  0  0  0  0  0  0  0
   65.9560   45.0720   -5.6440 H   0  0  0  0  0  0  0  0  0  0  0  0
   69.6440   40.0480   -4.1890 H   0  0  0  0  0  0  0  0  0  0  0  0
   67.3724   39.3581   -0.7975 H   0  0  0  0  0  0  0  0  0  0  0  0
   68.4068   37.5380    0.5361 H   0  0  0  0  0  0  0  0  0  0  0  0
  1  2  1  0
  2  3  1  0
  3  4  2  0
  4  5  1  0
  5  6  1  0
  6  7  1  0
  7  8  1  0
  8  9  2  0
  9 10  1  0
 10 11  2  0
 11 12  1  0
 12 13  1  0
 12 14  2  0
 14 15  1  0
 15 16  2  0
 15 17  1  0
 17 18  1  0
  5 19  2  0
 19 20  1  0
 20 21  2  0
 21 22  1  0
 22 23  1  0
 22 24  1  0
 22 25  1  0
 21  3  1  0
 17  6  2  0
 14  8  1  0
  1 26  1  0
  1 27  1  0
  1 28  1  0
  2 29  1  0
  2 30  1  0
  4 31  1  0
  9 32  1  0
 10 33  1  0
 11 34  1  0
 13 35  1  0
 18 36  1  0
 19 37  1  0
 20 38  1  0
M  END
>  <meeko>  (3) 
{"is_sidechain": [false], "free_energy": -8.085, "intermolecular_energy": -10.133, "internal_energy": -0.24}

$$$$
cand_004_out
     RDKit          3D

 38 40  0  0  0  0  0  0  0  0999 V2000
   72.9620   37.7460   -0.0800 C   0  0  0  0  0  0  0  0  0  0  0  0
   72.5200   39.1240    0.3900 C   0  0  0  0  0  0  0  0  0  0  0  0
   71.6020   39.7940   -0.6100 C   0  0  0  0  0  0  0  0  0  0  0  0
   72.1850   40.6100   -1.6020 C   0  0  0  0  0  0  0  0  0  0  0  0
   71.4080   41.2870   -2.5540 C   0  0  0  0  0  0  0  0  0  0  0  0
   72.0210   42.1230   -3.6060 C   0  0  0  0  0  0  0  0  0  0  0  0
   72.2140   43.4400   -3.2050 O   0  0  0  0  0  0  0  0  0  0  0  0
   72.7770   44.3260   -4.0880 C   0  0  0  0  0  0  0  0  0  0  0  0
   72.9370   45.6420   -3.6500 C   0  0  0  0  0  0  0  0  0  0  0  0
   73.5060   46.5940   -4.4990 C   0  0  0  0  0  0  0  0  0  0  0  0
   73.9130   46.2310   -5.7850 C   0  0  0  0  0  0  0  0  0  0  0  0
   73.7520   44.9180   -6.2190 C   0  0  0  0  0  0  0  0  0  0  0  0
   74.1730   44.6320   -7.4890 O   0  0  0  0  0  0  0  0  0  0  0  0
   73.1830   43.9660   -5.3700 C   0  0  0  0  0  0  0  0  0  0  0  0
   72.9950   42.5760   -5.7870 C   0  0  0  0  0  0  0  0  0  0  0  0
   73.3340   42.1780   -6.9000 O   0  0  0  0  0  0  0  0  0  0  0  0
   72.3750   41.6470   -4.8150 C   0  0  0  0  0  0  0  0  0  0  0  0
   72.2140   40.3330   -5.2130 O   0  0  0  0  0  0  0  0  0  0  0  0
   70.0200   41.1240   -2.5130 C   0  0  0  0  0  0  0  0  0  0  0  0
   69.4240   40.3210   -1.5360 C   0  0  0  0  0  0  0  0  0  0  0  0
   70.1980   39.6530   -0.5700 C   0  0  0  0  0  0  0  0  0  0  0  0
   69.5000   38.7920    0.4630 C   0  0  0  0  0  0  0  0  0  0  0  0
   69.8880   39.0700    1.7390 F   0  0  0  0  0  0  0  0  0  0  0  0
   69.7340   37.4630    0.2790 F   0  0  0  0  0  0  0  0  0  0  0  0
   68.1440   38.9290    0.4580 F   0  0  0  0  0  0  0  0  0  0  0  0
   73.1664   37.1089    0.7931 H   0  0  0  0  0  0  0  0  0  0  0  0
   72.1644   37.2921   -0.6864 H   0  0  0  0  0  0  0  0  0  0  0  0
   73.8748   37.8408   -0.6864 H   0  0  0  0  0  0  0  0  0  0  0  0
   71.9877   39.0195    1.3470 H   0  0  0  0  0  0  0  0  0  0  0  0
   73.4175   39.7502    0.5017 H   0  0  0  0  0  0  0  0  0  0  0  0
   73.2793   40.7185   -1.6299 H   0  0  0  0  0  0  0  0  0  0  0  0
   72.6154   45.9286   -2.6379 H   0  0  0  0  0  0  0  0  0  0  0  0
   73.6338   47.6308   -4.1545 H   0  0  0  0  0  0  0  0  0  0  0  0
   74.3600   46.9813   -6.4537 H   0  0  0  0  0  0  0  0  0  0  0  0
   74.9890   44.9710   -7.7990 H   0  0  0  0  0  0  0  0  0  0  0  0
   71.6400   39.7650   -4.7360 H   0  0  0  0  0  0  0  0  0  0  0  0
   69.3902   41.6330   -3.2574 H   0  0  0  0  0  0  0  0  0  0  0  0
   68.3297   40.2096   -1.5225 H   0  0  0  0  0  0  0  0  0  0  0  0
  1  2  1  0
  2  3  1  0
  3  4  2  0
  4  5  1  0
  5  6  1  0
  6  7  1  0
  7  8  1  0
  8  9  2  0
  9 10  1  0
 10 11  2  0
 11 12  1  0
 12 13  1  0
 12 14  2  0
 14 15  1  0
 15 16  2  0
 15 17  1  0
 17 18  1  0
  5 19  2  0
 19 20  1  0
 20 21  2  0
 21 22  1  0
 22 23  1  0
 22 24  1  0
 22 25  1  0
 21  3  1  0
 17  6  2  0
 14  8  1  0
  1 26  1  0
  1 27  1  0
  1 28  1  0
  2 29  1  0
  2 30  1  0
  4 31  1  0
  9 32  1  0
 10 33  1  0
 11 34  1  0
 13 35  1  0
 18 36  1  0
 19 37  1  0
 20 38  1  0
M  END
>  <meeko>  (4) 
{"is_sidechain": [false], "free_energy": -7.949, "intermolecular_energy": -9.542, "internal_energy": -0.663}

$$$$
cand_004_out
     RDKit          3D

 38 40  0  0  0  0  0  0  0  0999 V2000
   76.4970   42.8500   -1.7140 C   0  0  0  0  0  0  0  0  0  0  0  0
   75.7650   43.6770   -2.7610 C   0  0  0  0  0  0  0  0  0  0  0  0
   74.6120   42.9140   -3.3780 C   0  0  0  0  0  0  0  0  0  0  0  0
   73.8530   42.0690   -2.5410 C   0  0  0  0  0  0  0  0  0  0  0  0
   72.7830   41.3080   -3.0340 C   0  0  0  0  0  0  0  0  0  0  0  0
   71.9750   40.4400   -2.1520 C   0  0  0  0  0  0  0  0  0  0  0  0
   70.6240   40.7660   -2.1640 O   0  0  0  0  0  0  0  0  0  0  0  0
   69.7590   40.0370   -1.3880 C   0  0  0  0  0  0  0  0  0  0  0  0
   68.4140   40.4080   -1.4180 C   0  0  0  0  0  0  0  0  0  0  0  0
   67.4800   39.7060   -0.6520 C   0  0  0  0  0  0  0  0  0  0  0  0
   67.8920   38.6340    0.1430 C   0  0  0  0  0  0  0  0  0  0  0  0
   69.2340   38.2670    0.1720 C   0  0  0  0  0  0  0  0  0  0  0  0
   69.5670   37.2080    0.9710 O   0  0  0  0  0  0  0  0  0  0  0  0
   70.1680   38.9690   -0.5940 C   0  0  0  0  0  0  0  0  0  0  0  0
   71.5880   38.6160   -0.5930 C   0  0  0  0  0  0  0  0  0  0  0  0
   72.0260   37.6810    0.0760 O   0  0  0  0  0  0  0  0  0  0  0  0
   72.4970   39.4280   -1.4330 C   0  0  0  0  0  0  0  0  0  0  0  0
   73.8340   39.0780   -1.4360 O   0  0  0  0  0  0  0  0  0  0  0  0
   72.4630   41.4140   -4.3910 C   0  0  0  0  0  0  0  0  0  0  0  0
   73.2050   42.2450   -5.2360 C   0  0  0  0  0  0  0  0  0  0  0  0
   74.2890   42.9980   -4.7490 C   0  0  0  0  0  0  0  0  0  0  0  0
   75.0560   43.8850   -5.7080 C   0  0  0  0  0  0  0  0  0  0  0  0
   75.0390   45.1990   -5.3500 F   0  0  0  0  0  0  0  0  0  0  0  0
   74.5610   43.8330   -6.9760 F   0  0  0  0  0  0  0  0  0  0  0  0
   76.3750   43.5550   -5.8170 F   0  0  0  0  0  0  0  0  0  0  0  0
   76.2005   43.1850   -0.7091 H   0  0  0  0  0  0  0  0  0  0  0  0
   76.2373   41.7883   -1.8381 H   0  0  0  0  0  0  0  0  0  0  0  0
   77.5824   42.9789   -1.8381 H   0  0  0  0  0  0  0  0  0  0  0  0
   75.3741   44.5883   -2.2848 H   0  0  0  0  0  0  0  0  0  0  0  0
   76.4785   43.9226   -3.5614 H   0  0  0  0  0  0  0  0  0  0  0  0
   74.1074   42.0053   -1.4727 H   0  0  0  0  0  0  0  0  0  0  0  0
   68.0896   41.2523   -2.0441 H   0  0  0  0  0  0  0  0  0  0  0  0
   66.4196   39.9977   -0.6750 H   0  0  0  0  0  0  0  0  0  0  0  0
   67.1566   38.0806    0.7454 H   0  0  0  0  0  0  0  0  0  0  0  0
   70.1430   36.5420    0.6520 H   0  0  0  0  0  0  0  0  0  0  0  0
   74.1510   38.4320   -0.8360 H   0  0  0  0  0  0  0  0  0  0  0  0
   71.6190   40.8378   -4.7979 H   0  0  0  0  0  0  0  0  0  0  0  0
   72.9363   42.3112   -6.3006 H   0  0  0  0  0  0  0  0  0  0  0  0
  1  2  1  0
  2  3  1  0
  3  4  2  0
  4  5  1  0
  5  6  1  0
  6  7  1  0
  7  8  1  0
  8  9  2  0
  9 10  1  0
 10 11  2  0
 11 12  1  0
 12 13  1  0
 12 14  2  0
 14 15  1  0
 15 16  2  0
 15 17  1  0
 17 18  1  0
  5 19  2  0
 19 20  1  0
 20 21  2  0
 21 22  1  0
 22 23  1  0
 22 24  1  0
 22 25  1  0
 21  3  1  0
 17  6  2  0
 14  8  1  0
  1 26  1  0
  1 27  1  0
  1 28  1  0
  2 29  1  0
  2 30  1  0
  4 31  1  0
  9 32  1  0
 10 33  1  0
 11 34  1  0
 13 35  1  0
 18 36  1  0
 19 37  1  0
 20 38  1  0
M  END
>  <meeko>  (5) 
{"is_sidechain": [false], "free_energy": -7.821, "intermolecular_energy": -9.549, "internal_energy": -0.497}

$$$$
cand_004_out
     RDKit          3D

 38 40  0  0  0  0  0  0  0  0999 V2000
   76.4110   42.9830   -2.0240 C   0  0  0  0  0  0  0  0  0  0  0  0
   75.4780   43.8480   -2.8600 C   0  0  0  0  0  0  0  0  0  0  0  0
   74.3630   43.0350   -3.4830 C   0  0  0  0  0  0  0  0  0  0  0  0
   73.5930   42.2090   -2.6390 C   0  0  0  0  0  0  0  0  0  0  0  0
   72.5560   41.4060   -3.1350 C   0  0  0  0  0  0  0  0  0  0  0  0
   71.7360   40.5570   -2.2460 C   0  0  0  0  0  0  0  0  0  0  0  0
   72.4590   39.5190   -1.6720 O   0  0  0  0  0  0  0  0  0  0  0  0
   71.8180   38.6530   -0.8230 C   0  0  0  0  0  0  0  0  0  0  0  0
   72.5780   37.6160   -0.2820 C   0  0  0  0  0  0  0  0  0  0  0  0
   71.9860   36.7010    0.5920 C   0  0  0  0  0  0  0  0  0  0  0  0
   70.6350   36.8230    0.9240 C   0  0  0  0  0  0  0  0  0  0  0  0
   69.8790   37.8590    0.3820 C   0  0  0  0  0  0  0  0  0  0  0  0
   68.5630   37.9190    0.7500 O   0  0  0  0  0  0  0  0  0  0  0  0
   70.4710   38.7740   -0.4920 C   0  0  0  0  0  0  0  0  0  0  0  0
   69.7120   39.8760   -1.0830 C   0  0  0  0  0  0  0  0  0  0  0  0
   68.5210   40.0550   -0.8350 O   0  0  0  0  0  0  0  0  0  0  0  0
   70.4310   40.7870   -2.0040 C   0  0  0  0  0  0  0  0  0  0  0  0
   69.7090   41.8330   -2.5470 O   0  0  0  0  0  0  0  0  0  0  0  0
   72.2800   41.4500   -4.5050 C   0  0  0  0  0  0  0  0  0  0  0  0
   73.0340   42.2620   -5.3580 C   0  0  0  0  0  0  0  0  0  0  0  0
   74.0850   43.0570   -4.8670 C   0  0  0  0  0  0  0  0  0  0  0  0
   74.8670   43.9210   -5.8360 C   0  0  0  0  0  0  0  0  0  0  0  0
   74.7730   45.2510   -5.5600 F   0  0  0  0  0  0  0  0  0  0  0  0
   74.4470   43.7720   -7.1230 F   0  0  0  0  0  0  0  0  0  0  0  0
   76.2020   43.6470   -5.8520 F   0  0  0  0  0  0  0  0  0  0  0  0
   76.2181   43.1619   -0.9559 H   0  0  0  0  0  0  0  0  0  0  0  0
   76.2339   41.9224   -2.2560 H   0  0  0  0  0  0  0  0  0  0  0  0
   77.4552   43.2397   -2.2560 H   0  0  0  0  0  0  0  0  0  0  0  0
   75.0365   44.6217   -2.2147 H   0  0  0  0  0  0  0  0  0  0  0  0
   76.0669   44.2987   -3.6725 H   0  0  0  0  0  0  0  0  0  0  0  0
   73.8119   42.1940   -1.5611 H   0  0  0  0  0  0  0  0  0  0  0  0
   73.6421   37.5188   -0.5432 H   0  0  0  0  0  0  0  0  0  0  0  0
   72.5849   35.8832    1.0193 H   0  0  0  0  0  0  0  0  0  0  0  0
   70.1692   36.1023    1.6121 H   0  0  0  0  0  0  0  0  0  0  0  0
   68.3050   38.4380    1.4870 H   0  0  0  0  0  0  0  0  0  0  0  0
   69.9270   42.1620   -3.3970 H   0  0  0  0  0  0  0  0  0  0  0  0
   71.4619   40.8400   -4.9157 H   0  0  0  0  0  0  0  0  0  0  0  0
   72.8007   42.2792   -6.4328 H   0  0  0  0  0  0  0  0  0  0  0  0
  1  2  1  0
  2  3  1  0
  3  4  2  0
  4  5  1  0
  5  6  1  0
  6  7  1  0
  7  8  1  0
  8  9  2  0
  9 10  1  0
 10 11  2  0
 11 12  1  0
 12 13  1  0
 12 14  2  0
 14 15  1  0
 15 16  2  0
 15 17  1  0
 17 18  1  0
  5 19  2  0
 19 20  1  0
 20 21  2  0
 21 22  1  0
 22 23  1  0
 22 24  1  0
 22 25  1  0
 21  3  1  0
 17  6  2  0
 14  8  1  0
  1 26  1  0
  1 27  1  0
  1 28  1  0
  2 29  1  0
  2 30  1  0
  4 31  1  0
  9 32  1  0
 10 33  1  0
 11 34  1  0
 13 35  1  0
 18 36  1  0
 19 37  1  0
 20 38  1  0
M  END
>  <meeko>  (6) 
{"is_sidechain": [false], "free_energy": -7.81, "intermolecular_energy": -9.461, "internal_energy": -0.572}

$$$$
cand_004_out
     RDKit          3D

 38 40  0  0  0  0  0  0  0  0999 V2000
   67.7150   39.1300   -0.4640 C   0  0  0  0  0  0  0  0  0  0  0  0
   68.8340   38.6600    0.4520 C   0  0  0  0  0  0  0  0  0  0  0  0
   70.1870   38.7410   -0.2210 C   0  0  0  0  0  0  0  0  0  0  0  0
   70.3840   39.7420   -1.1950 C   0  0  0  0  0  0  0  0  0  0  0  0
   71.5980   39.8750   -1.8840 C   0  0  0  0  0  0  0  0  0  0  0  0
   71.8100   40.9380   -2.8880 C   0  0  0  0  0  0  0  0  0  0  0  0
   70.6730   41.7060   -3.1110 O   0  0  0  0  0  0  0  0  0  0  0  0
   70.7320   42.7300   -4.0210 C   0  0  0  0  0  0  0  0  0  0  0  0
   69.5630   43.4650   -4.2250 C   0  0  0  0  0  0  0  0  0  0  0  0
   69.5550   44.5230   -5.1370 C   0  0  0  0  0  0  0  0  0  0  0  0
   70.7150   44.8450   -5.8450 C   0  0  0  0  0  0  0  0  0  0  0  0
   71.8800   44.1100   -5.6390 C   0  0  0  0  0  0  0  0  0  0  0  0
   72.9790   44.4810   -6.3650 O   0  0  0  0  0  0  0  0  0  0  0  0
   71.8870   43.0520   -4.7270 C   0  0  0  0  0  0  0  0  0  0  0  0
   73.0890   42.2540   -4.4820 C   0  0  0  0  0  0  0  0  0  0  0  0
   74.1510   42.4810   -5.0610 O   0  0  0  0  0  0  0  0  0  0  0  0
   72.9900   41.1500   -3.5020 C   0  0  0  0  0  0  0  0  0  0  0  0
   74.1350   40.4110   -3.2660 O   0  0  0  0  0  0  0  0  0  0  0  0
   72.6370   38.9920   -1.5740 C   0  0  0  0  0  0  0  0  0  0  0  0
   72.4600   37.9920   -0.6130 C   0  0  0  0  0  0  0  0  0  0  0  0
   71.2390   37.8460    0.0700 C   0  0  0  0  0  0  0  0  0  0  0  0
   71.1040   36.7470    1.1050 C   0  0  0  0  0  0  0  0  0  0  0  0
   70.6170   37.1920    2.2950 F   0  0  0  0  0  0  0  0  0  0  0  0
   72.2930   36.1440    1.3840 F   0  0  0  0  0  0  0  0  0  0  0  0
   70.2650   35.7420    0.7230 F   0  0  0  0  0  0  0  0  0  0  0  0
   66.8692   39.4853    0.1429 H   0  0  0  0  0  0  0  0  0  0  0  0
   68.0810   39.9504   -1.0988 H   0  0  0  0  0  0  0  0  0  0  0  0
   67.3854   38.2943   -1.0988 H   0  0  0  0  0  0  0  0  0  0  0  0
   68.8461   39.2926    1.3518 H   0  0  0  0  0  0  0  0  0  0  0  0
   68.6441   37.6075    0.7092 H   0  0  0  0  0  0  0  0  0  0  0  0
   69.5623   40.4378   -1.4204 H   0  0  0  0  0  0  0  0  0  0  0  0
   68.6489   43.2113   -3.6681 H   0  0  0  0  0  0  0  0  0  0  0  0
   68.6343   45.1030   -5.2977 H   0  0  0  0  0  0  0  0  0  0  0  0
   70.7086   45.6775   -6.5640 H   0  0  0  0  0  0  0  0  0  0  0  0
   73.6770   43.8720   -6.5020 H   0  0  0  0  0  0  0  0  0  0  0  0
   74.0960   39.4740   -3.2650 H   0  0  0  0  0  0  0  0  0  0  0  0
   73.6033   39.0851   -2.0914 H   0  0  0  0  0  0  0  0  0  0  0  0
   73.2905   37.3071   -0.3870 H   0  0  0  0  0  0  0  0  0  0  0  0
  1  2  1  0
  2  3  1  0
  3  4  2  0
  4  5  1  0
  5  6  1  0
  6  7  1  0
  7  8  1  0
  8  9  2  0
  9 10  1  0
 10 11  2  0
 11 12  1  0
 12 13  1  0
 12 14  2  0
 14 15  1  0
 15 16  2  0
 15 17  1  0
 17 18  1  0
  5 19  2  0
 19 20  1  0
 20 21  2  0
 21 22  1  0
 22 23  1  0
 22 24  1  0
 22 25  1  0
 21  3  1  0
 17  6  2  0
 14  8  1  0
  1 26  1  0
  1 27  1  0
  1 28  1  0
  2 29  1  0
  2 30  1  0
  4 31  1  0
  9 32  1  0
 10 33  1  0
 11 34  1  0
 13 35  1  0
 18 36  1  0
 19 37  1  0
 20 38  1  0
M  END
>  <meeko>  (7) 
{"is_sidechain": [false], "free_energy": -7.794, "intermolecular_energy": -10.123, "internal_energy": 0.11}

$$$$
cand_004_out
     RDKit          3D

 38 40  0  0  0  0  0  0  0  0999 V2000
   70.4010   37.6980    0.7380 C   0  0  0  0  0  0  0  0  0  0  0  0
   69.6100   38.9950    0.8180 C   0  0  0  0  0  0  0  0  0  0  0  0
   69.7220   39.8050   -0.4550 C   0  0  0  0  0  0  0  0  0  0  0  0
   70.9700   40.3880   -0.7620 C   0  0  0  0  0  0  0  0  0  0  0  0
   71.1570   41.1730   -1.9090 C   0  0  0  0  0  0  0  0  0  0  0  0
   72.4700   41.7640   -2.2410 C   0  0  0  0  0  0  0  0  0  0  0  0
   72.3850   43.1060   -2.5940 O   0  0  0  0  0  0  0  0  0  0  0  0
   73.5330   43.7790   -2.9260 C   0  0  0  0  0  0  0  0  0  0  0  0
   73.3990   45.1200   -3.2900 C   0  0  0  0  0  0  0  0  0  0  0  0
   74.5290   45.8630   -3.6380 C   0  0  0  0  0  0  0  0  0  0  0  0
   75.7920   45.2660   -3.6220 C   0  0  0  0  0  0  0  0  0  0  0  0
   75.9220   43.9290   -3.2580 C   0  0  0  0  0  0  0  0  0  0  0  0
   77.1880   43.4090   -3.2630 O   0  0  0  0  0  0  0  0  0  0  0  0
   74.7920   43.1850   -2.9110 C   0  0  0  0  0  0  0  0  0  0  0  0
   74.8840   41.7770   -2.5230 C   0  0  0  0  0  0  0  0  0  0  0  0
   75.9610   41.1830   -2.4780 O   0  0  0  0  0  0  0  0  0  0  0  0
   73.6260   41.0760   -2.1810 C   0  0  0  0  0  0  0  0  0  0  0  0
   73.7250   39.7500   -1.8030 O   0  0  0  0  0  0  0  0  0  0  0  0
   70.0710   41.3590   -2.7700 C   0  0  0  0  0  0  0  0  0  0  0  0
   68.8270   40.7910   -2.4820 C   0  0  0  0  0  0  0  0  0  0  0  0
   68.6300   40.0160   -1.3240 C   0  0  0  0  0  0  0  0  0  0  0  0
   67.2620   39.4210   -1.0630 C   0  0  0  0  0  0  0  0  0  0  0  0
   67.2930   38.3700   -0.1980 F   0  0  0  0  0  0  0  0  0  0  0  0
   66.6690   38.9570   -2.1990 F   0  0  0  0  0  0  0  0  0  0  0  0
   66.3770   40.3080   -0.5250 F   0  0  0  0  0  0  0  0  0  0  0  0
   70.6200   37.3388    1.7544 H   0  0  0  0  0  0  0  0  0  0  0  0
   69.8107   36.9410    0.2009 H   0  0  0  0  0  0  0  0  0  0  0  0
   71.3442   37.8763    0.2009 H   0  0  0  0  0  0  0  0  0  0  0  0
   68.5511   38.7552    0.9946 H   0  0  0  0  0  0  0  0  0  0  0  0
   70.0238   39.5958    1.6413 H   0  0  0  0  0  0  0  0  0  0  0  0
   71.8194   40.2221   -0.0830 H   0  0  0  0  0  0  0  0  0  0  0  0
   72.4049   45.5907   -3.3027 H   0  0  0  0  0  0  0  0  0  0  0  0
   74.4245   46.9197   -3.9251 H   0  0  0  0  0  0  0  0  0  0  0  0
   76.6819   45.8515   -3.8965 H   0  0  0  0  0  0  0  0  0  0  0  0
   77.3140   42.4830   -3.3300 H   0  0  0  0  0  0  0  0  0  0  0  0
   73.4850   39.4910   -0.9350 H   0  0  0  0  0  0  0  0  0  0  0  0
   70.1972   41.9586   -3.6835 H   0  0  0  0  0  0  0  0  0  0  0  0
   67.9866   40.9526   -3.1730 H   0  0  0  0  0  0  0  0  0  0  0  0
  1  2  1  0
  2  3  1  0
  3  4  2  0
  4  5  1  0
  5  6  1  0
  6  7  1  0
  7  8  1  0
  8  9  2  0
  9 10  1  0
 10 11  2  0
 11 12  1  0
 12 13  1  0
 12 14  2  0
 14 15  1  0
 15 16  2  0
 15 17  1  0
 17 18  1  0
  5 19  2  0
 19 20  1  0
 20 21  2  0
 21 22  1  0
 22 23  1  0
 22 24  1  0
 22 25  1  0
 21  3  1  0
 17  6  2  0
 14  8  1  0
  1 26  1  0
  1 27  1  0
  1 28  1  0
  2 29  1  0
  2 30  1  0
  4 31  1  0
  9 32  1  0
 10 33  1  0
 11 34  1  0
 13 35  1  0
 18 36  1  0
 19 37  1  0
 20 38  1  0
M  END
>  <meeko>  (8) 
{"is_sidechain": [false], "free_energy": -7.783, "intermolecular_energy": -10.022, "internal_energy": 0.022}

$$$$
cand_004_out
     RDKit          3D

 38 40  0  0  0  0  0  0  0  0999 V2000
   76.1510   42.4030   -1.7240 C   0  0  0  0  0  0  0  0  0  0  0  0
   75.4400   43.5060   -2.4950 C   0  0  0  0  0  0  0  0  0  0  0  0
   74.3950   42.9520   -3.4400 C   0  0  0  0  0  0  0  0  0  0  0  0
   73.1890   42.4730   -2.8880 C   0  0  0  0  0  0  0  0  0  0  0  0
   72.1770   41.9220   -3.6880 C   0  0  0  0  0  0  0  0  0  0  0  0
   70.9050   41.4410   -3.1100 C   0  0  0  0  0  0  0  0  0  0  0  0
   71.0910   40.5850   -2.0310 O   0  0  0  0  0  0  0  0  0  0  0  0
   69.9900   40.0650   -1.3990 C   0  0  0  0  0  0  0  0  0  0  0  0
   70.2230   39.1980   -0.3310 C   0  0  0  0  0  0  0  0  0  0  0  0
   69.1450   38.6350    0.3570 C   0  0  0  0  0  0  0  0  0  0  0  0
   67.8360   38.9380   -0.0250 C   0  0  0  0  0  0  0  0  0  0  0  0
   67.6070   39.8030   -1.0910 C   0  0  0  0  0  0  0  0  0  0  0  0
   66.3010   40.0560   -1.4110 O   0  0  0  0  0  0  0  0  0  0  0  0
   68.6840   40.3660   -1.7790 C   0  0  0  0  0  0  0  0  0  0  0  0
   68.4880   41.2790   -2.9060 C   0  0  0  0  0  0  0  0  0  0  0  0
   67.3670   41.5990   -3.2970 O   0  0  0  0  0  0  0  0  0  0  0  0
   69.6960   41.8150   -3.5720 C   0  0  0  0  0  0  0  0  0  0  0  0
   69.5010   42.6880   -4.6260 O   0  0  0  0  0  0  0  0  0  0  0  0
   72.3800   41.8680   -5.0700 C   0  0  0  0  0  0  0  0  0  0  0  0
   73.5700   42.3360   -5.6350 C   0  0  0  0  0  0  0  0  0  0  0  0
   74.5930   42.8760   -4.8350 C   0  0  0  0  0  0  0  0  0  0  0  0
   75.8610   43.3720   -5.5010 C   0  0  0  0  0  0  0  0  0  0  0  0
   76.0840   44.7000   -5.3010 F   0  0  0  0  0  0  0  0  0  0  0  0
   75.8460   43.1900   -6.8510 F   0  0  0  0  0  0  0  0  0  0  0  0
   76.9880   42.7440   -5.0600 F   0  0  0  0  0  0  0  0  0  0  0  0
   76.0377   42.5788   -0.6441 H   0  0  0  0  0  0  0  0  0  0  0  0
   75.7097   41.4299   -1.9854 H   0  0  0  0  0  0  0  0  0  0  0  0
   77.2195   42.4031   -1.9854 H   0  0  0  0  0  0  0  0  0  0  0  0
   74.9491   44.1810   -1.7784 H   0  0  0  0  0  0  0  0  0  0  0  0
   76.1913   44.0414   -3.0941 H   0  0  0  0  0  0  0  0  0  0  0  0
   73.0377   42.5331   -1.8001 H   0  0  0  0  0  0  0  0  0  0  0  0
   71.2538   38.9580   -0.0311 H   0  0  0  0  0  0  0  0  0  0  0  0
   69.3273   37.9525    1.2002 H   0  0  0  0  0  0  0  0  0  0  0  0
   66.9875   38.4936    0.5159 H   0  0  0  0  0  0  0  0  0  0  0  0
   65.7340   40.4550   -0.7810 H   0  0  0  0  0  0  0  0  0  0  0  0
   68.8550   42.4970   -5.2790 H   0  0  0  0  0  0  0  0  0  0  0  0
   71.5953   41.4530   -5.7196 H   0  0  0  0  0  0  0  0  0  0  0  0
   73.7087   42.2809   -6.7248 H   0  0  0  0  0  0  0  0  0  0  0  0
  1  2  1  0
  2  3  1  0
  3  4  2  0
  4  5  1  0
  5  6  1  0
  6  7  1  0
  7  8  1  0
  8  9  2  0
  9 10  1  0
 10 11  2  0
 11 12  1  0
 12 13  1  0
 12 14  2  0
 14 15  1  0
 15 16  2  0
 15 17  1  0
 17 18  1  0
  5 19  2  0
 19 20  1  0
 20 21  2  0
 21 22  1  0
 22 23  1  0
 22 24  1  0
 22 25  1  0
 21  3  1  0
 17  6  2  0
 14  8  1  0
  1 26  1  0
  1 27  1  0
  1 28  1  0
  2 29  1  0
  2 30  1  0
  4 31  1  0
  9 32  1  0
 10 33  1  0
 11 34  1  0
 13 35  1  0
 18 36  1  0
 19 37  1  0
 20 38  1  0
M  END
>  <meeko>  (9) 
{"is_sidechain": [false], "free_energy": -7.766, "intermolecular_energy": -9.549, "internal_energy": -0.429}

$$$$
