clorgyline_out
     RDKit          3D

 33 33  0  0  0  0  0  0  0  0999 V2000
  175.5430   18.2540   46.7980 C   0  0  0  0  0  0  0  0  0  0  0  0
  176.2450   19.1900   46.5280 C   0  0  0  0  0  0  0  0  0  0  0  0
  177.1030   20.3410   46.1990 C   0  0  0  0  0  0  0  0  0  0  0  0
  178.4220   20.3360   46.8580 N   0  0  2  0  0  0  0  0  0  0  0  0
  178.5160   21.3860   47.8730 C   0  0  0  0  0  0  0  0  0  0  0  0
  179.5220   20.3940   45.8800 C   0  0  0  0  0  0  0  0  0  0  0  0
  180.4670   19.1890   45.9930 C   0  0  0  0  0  0  0  0  0  0  0  0
  179.8290   17.9150   45.4400 C   0  0  0  0  0  0  0  0  0  0  0  0
  180.8620   16.9980   45.0880 O   0  0  0  0  0  0  0  0  0  0  0  0
  180.8840   16.5100   43.8090 C   0  0  0  0  0  0  0  0  0  0  0  0
  180.9240   17.3040   42.6590 C   0  0  0  0  0  0  0  0  0  0  0  0
  180.9390   16.7110   41.3910 C   0  0  0  0  0  0  0  0  0  0  0  0
  180.9100   15.3230   41.2690 C   0  0  0  0  0  0  0  0  0  0  0  0
  180.9280   14.6040   39.7070 Cl  0  0  0  0  0  0  0  0  0  0  0  0
  180.8680   14.5180   42.4010 C   0  0  0  0  0  0  0  0  0  0  0  0
  180.8520   15.1110   43.6660 C   0  0  0  0  0  0  0  0  0  0  0  0
  180.8020   14.0690   45.0470 Cl  0  0  0  0  0  0  0  0  0  0  0  0
  174.8999   17.3965   47.0453 H   0  0  0  0  0  0  0  0  0  0  0  0
  177.2639   20.3482   45.1109 H   0  0  0  0  0  0  0  0  0  0  0  0
  176.5767   21.2348   46.5652 H   0  0  0  0  0  0  0  0  0  0  0  0
  178.5190   19.4450   47.3470 H   0  0  0  0  0  0  0  0  0  0  0  0
  178.4754   20.9326   48.8744 H   0  0  0  0  0  0  0  0  0  0  0  0
  179.4662   21.9272   47.7538 H   0  0  0  0  0  0  0  0  0  0  0  0
  177.6771   22.0874   47.7538 H   0  0  0  0  0  0  0  0  0  0  0  0
  179.0938   20.4139   44.8669 H   0  0  0  0  0  0  0  0  0  0  0  0
  180.1082   21.3016   46.0866 H   0  0  0  0  0  0  0  0  0  0  0  0
  181.3855   19.4023   45.4266 H   0  0  0  0  0  0  0  0  0  0  0  0
  180.6887   19.0264   47.0581 H   0  0  0  0  0  0  0  0  0  0  0  0
  179.1800   17.4645   46.2054 H   0  0  0  0  0  0  0  0  0  0  0  0
  179.2247   18.1550   44.5527 H   0  0  0  0  0  0  0  0  0  0  0  0
  180.9438   18.4000   42.7510 H   0  0  0  0  0  0  0  0  0  0  0  0
  180.9737   17.3412   40.4901 H   0  0  0  0  0  0  0  0  0  0  0  0
  180.8475   13.4227   42.3019 H   0  0  0  0  0  0  0  0  0  0  0  0
  1  2  3  0
  2  3  1  0
  3  4  1  0
  4  5  1  0
  4  6  1  0
  6  7  1  0
  7  8  1  0
  8  9  1  0
  9 10  1  0
 10 11  2  0
 11 12  1  0
 12 13  2  0
 13 14  1  0
 13 15  1  0
 15 16  2  0
 16 17  1  0
 16 10  1  0
  1 18  1  0
  3 19  1  0
  3 20  1  0
  4 21  1  1
  5 22  1  0
  5 23  1  0
  5 24  1  0
  6 25  1  0
  6 26  1  0
  7 27  1  0
  7 28  1  0
  8 29  1  0
  8 30  1  0
 11 31  1  0
 12 32  1  0
 15 33  1  0
M  CHG  1   4   1
M  END
>  <meeko>  (1) 
{"is_sidechain": [false], "free_energy": -6.66, "intermolecular_energy": -8.996, "internal_energy": -0.473}

$$$$
clorgyline_out
     RDKit          3D

 33 33  0  0  0  0  0  0  0  0999 V2000
  178.4260   23.6850   47.3850 C   0  0  0  0  0  0  0  0  0  0  0  0
  177.9790   22.5720   47.4400 C   0  0  0  0  0  0  0  0  0  0  0  0
  177.4280   21.2080   47.5070 C   0  0  0  0  0  0  0  0  0  0  0  0
  177.5390   20.4350   46.2560 N   0  0  2  0  0  0  0  0  0  0  0  0
  176.8660   19.1400   46.3670 C   0  0  0  0  0  0  0  0  0  0  0  0
  178.9390   20.3080   45.8150 C   0  0  0  0  0  0  0  0  0  0  0  0
  179.5000   18.8980   46.0500 C   0  0  0  0  0  0  0  0  0  0  0  0
  180.7050   18.6130   45.1550 C   0  0  0  0  0  0  0  0  0  0  0  0
  180.8600   17.2010   45.0280 O   0  0  0  0  0  0  0  0  0  0  0  0
  180.8790   16.6650   43.7690 C   0  0  0  0  0  0  0  0  0  0  0  0
  180.9270   17.4140   42.5890 C   0  0  0  0  0  0  0  0  0  0  0  0
  180.9380   16.7730   41.3450 C   0  0  0  0  0  0  0  0  0  0  0  0
  180.8970   15.3820   41.2760 C   0  0  0  0  0  0  0  0  0  0  0  0
  180.9090   14.6030   39.7420 Cl  0  0  0  0  0  0  0  0  0  0  0  0
  180.8460   14.6200   42.4380 C   0  0  0  0  0  0  0  0  0  0  0  0
  180.8350   15.2610   43.6790 C   0  0  0  0  0  0  0  0  0  0  0  0
  180.7740   14.2730   45.0980 Cl  0  0  0  0  0  0  0  0  0  0  0  0
  178.8355   24.7047   47.3346 H   0  0  0  0  0  0  0  0  0  0  0  0
  177.9639   20.6606   48.2964 H   0  0  0  0  0  0  0  0  0  0  0  0
  176.3523   21.3177   47.7093 H   0  0  0  0  0  0  0  0  0  0  0  0
  177.0540   20.9570   45.5260 H   0  0  0  0  0  0  0  0  0  0  0  0
  176.7337   18.8854   47.4289 H   0  0  0  0  0  0  0  0  0  0  0  0
  175.8823   19.1949   45.8778 H   0  0  0  0  0  0  0  0  0  0  0  0
  177.4762   18.3665   45.8778 H   0  0  0  0  0  0  0  0  0  0  0  0
  178.9930   20.5353   44.7401 H   0  0  0  0  0  0  0  0  0  0  0  0
  179.5426   21.0124   46.4062 H   0  0  0  0  0  0  0  0  0  0  0  0
  179.8081   18.8077   47.1021 H   0  0  0  0  0  0  0  0  0  0  0  0
  178.7120   18.1703   45.8062 H   0  0  0  0  0  0  0  0  0  0  0  0
  180.5415   19.0577   44.1623 H   0  0  0  0  0  0  0  0  0  0  0  0
  181.6117   19.0499   45.5989 H   0  0  0  0  0  0  0  0  0  0  0  0
  180.9563   18.5125   42.6389 H   0  0  0  0  0  0  0  0  0  0  0  0
  180.9791   17.3680   40.4207 H   0  0  0  0  0  0  0  0  0  0  0  0
  180.8146   13.5220   42.3804 H   0  0  0  0  0  0  0  0  0  0  0  0
  1  2  3  0
  2  3  1  0
  3  4  1  0
  4  5  1  0
  4  6  1  0
  6  7  1  0
  7  8  1  0
  8  9  1  0
  9 10  1  0
 10 11  2  0
 11 12  1  0
 12 13  2  0
 13 14  1  0
 13 15  1  0
 15 16  2  0
 16 17  1  0
 16 10  1  0
  1 18  1  0
  3 19  1  0
  3 20  1  0
  4 21  1  6
  5 22  1  0
  5 23  1  0
  5 24  1  0
  6 25  1  0
  6 26  1  0
  7 27  1  0
  7 28  1  0
  8 29  1  0
  8 30  1  0
 11 31  1  0
 12 32  1  0
 15 33  1  0
M  CHG  1   4   1
M  END
>  <meeko>  (2) 
{"is_sidechain": [false], "free_energy": -6.647, "intermolecular_energy": -9.044, "internal_energy": -0.409}

$$$$
clorgyline_out
     RDKit          3D

 33 33  0  0  0  0  0  0  0  0999 V2000
  180.8570   14.9650   40.2250 C   0  0  0  0  0  0  0  0  0  0  0  0
  181.4970   14.9820   41.2400 C   0  0  0  0  0  0  0  0  0  0  0  0
  182.2850   15.0070   42.4850 C   0  0  0  0  0  0  0  0  0  0  0  0
  181.4940   15.2150   43.7120 N   0  0  2  0  0  0  0  0  0  0  0  0
  180.3450   14.3100   43.7660 C   0  0  0  0  0  0  0  0  0  0  0  0
  181.1090   16.6270   43.8820 C   0  0  0  0  0  0  0  0  0  0  0  0
  180.1650   16.8350   45.0740 C   0  0  0  0  0  0  0  0  0  0  0  0
  180.0590   18.3100   45.4610 C   0  0  0  0  0  0  0  0  0  0  0  0
  178.8170   18.5220   46.1270 O   0  0  0  0  0  0  0  0  0  0  0  0
  178.5160   19.7920   46.5420 C   0  0  0  0  0  0  0  0  0  0  0  0
  179.4510   20.8230   46.6790 C   0  0  0  0  0  0  0  0  0  0  0  0
  179.0460   22.0900   47.1150 C   0  0  0  0  0  0  0  0  0  0  0  0
  177.7070   22.3300   47.4180 C   0  0  0  0  0  0  0  0  0  0  0  0
  177.2200   23.8900   47.9540 Cl  0  0  0  0  0  0  0  0  0  0  0  0
  176.7640   21.3170   47.2890 C   0  0  0  0  0  0  0  0  0  0  0  0
  177.1690   20.0530   46.8550 C   0  0  0  0  0  0  0  0  0  0  0  0
  175.9600   18.8230   46.7070 Cl  0  0  0  0  0  0  0  0  0  0  0  0
  180.2704   14.9494   39.2946 H   0  0  0  0  0  0  0  0  0  0  0  0
  182.8119   14.0457   42.5761 H   0  0  0  0  0  0  0  0  0  0  0  0
  182.9649   15.8680   42.4046 H   0  0  0  0  0  0  0  0  0  0  0  0
  182.0900   14.9820   44.5070 H   0  0  0  0  0  0  0  0  0  0  0  0
  180.0872   14.1070   44.8159 H   0  0  0  0  0  0  0  0  0  0  0  0
  179.4864   14.7770   43.2613 H   0  0  0  0  0  0  0  0  0  0  0  0
  180.5979   13.3659   43.2613 H   0  0  0  0  0  0  0  0  0  0  0  0
  182.0184   17.2245   44.0428 H   0  0  0  0  0  0  0  0  0  0  0  0
  180.5763   16.9419   42.9726 H   0  0  0  0  0  0  0  0  0  0  0  0
  179.1648   16.4642   44.8055 H   0  0  0  0  0  0  0  0  0  0  0  0
  180.5723   16.2834   45.9341 H   0  0  0  0  0  0  0  0  0  0  0  0
  180.8887   18.5766   46.1322 H   0  0  0  0  0  0  0  0  0  0  0  0
  180.1114   18.9377   44.5592 H   0  0  0  0  0  0  0  0  0  0  0  0
  180.5093   20.6375   46.4431 H   0  0  0  0  0  0  0  0  0  0  0  0
  179.7857   22.8975   47.2186 H   0  0  0  0  0  0  0  0  0  0  0  0
  175.7074   21.5094   47.5268 H   0  0  0  0  0  0  0  0  0  0  0  0
  1  2  3  0
  2  3  1  0
  3  4  1  0
  4  5  1  0
  4  6  1  0
  6  7  1  0
  7  8  1  0
  8  9  1  0
  9 10  1  0
 10 11  2  0
 11 12  1  0
 12 13  2  0
 13 14  1  0
 13 15  1  0
 15 16  2  0
 16 17  1  0
 16 10  1  0
  1 18  1  0
  3 19  1  0
  3 20  1  0
  4 21  1  1
  5 22  1  0
  5 23  1  0
  5 24  1  0
  6 25  1  0
  6 26  1  0
  7 27  1  0
  7 28  1  0
  8 29  1  0
  8 30  1  0
 11 31  1  0
 12 32  1  0
 15 33  1  0
M  CHG  1   4   1
M  END
>  <meeko>  (3) 
{"is_sidechain": [false], "free_energy": -6.332, "intermolecular_energy": -8.712, "internal_energy": -0.315}

$$$$
clorgyline_out
     RDKit          3D

 33 33  0  0  0  0  0  0  0  0999 V2000
  180.8880   15.0090   40.1570 C   0  0  0  0  0  0  0  0  0  0  0  0
  181.5170   14.9070   41.1750 C   0  0  0  0  0  0  0  0  0  0  0  0
  182.2910   14.7850   42.4230 C   0  0  0  0  0  0  0  0  0  0  0  0
  181.6180   15.3180   43.6210 N   0  0  2  0  0  0  0  0  0  0  0  0
  180.5130   14.4560   44.0410 C   0  0  0  0  0  0  0  0  0  0  0  0
  181.2040   16.7200   43.4370 C   0  0  0  0  0  0  0  0  0  0  0  0
  180.4710   17.2790   44.6650 C   0  0  0  0  0  0  0  0  0  0  0  0
  180.8390   18.7390   44.9270 C   0  0  0  0  0  0  0  0  0  0  0  0
  180.6420   19.0210   46.3110 O   0  0  0  0  0  0  0  0  0  0  0  0
  179.7720   20.0230   46.6470 C   0  0  0  0  0  0  0  0  0  0  0  0
  178.3820   19.8760   46.7160 C   0  0  0  0  0  0  0  0  0  0  0  0
  177.5730   20.9630   47.0660 C   0  0  0  0  0  0  0  0  0  0  0  0
  178.1490   22.2010   47.3440 C   0  0  0  0  0  0  0  0  0  0  0  0
  177.1460   23.5310   47.7710 Cl  0  0  0  0  0  0  0  0  0  0  0  0
  179.5280   22.3670   47.2770 C   0  0  0  0  0  0  0  0  0  0  0  0
  180.3340   21.2820   46.9280 C   0  0  0  0  0  0  0  0  0  0  0  0
  182.0450   21.5350   46.8610 Cl  0  0  0  0  0  0  0  0  0  0  0  0
  180.3119   15.1024   39.2246 H   0  0  0  0  0  0  0  0  0  0  0  0
  182.4998   13.7186   42.5935 H   0  0  0  0  0  0  0  0  0  0  0  0
  183.2005   15.3879   42.2841 H   0  0  0  0  0  0  0  0  0  0  0  0
  182.2980   15.3180   44.3830 H   0  0  0  0  0  0  0  0  0  0  0  0
  180.4708   14.4231   45.1397 H   0  0  0  0  0  0  0  0  0  0  0  0
  179.5663   14.8566   43.6495 H   0  0  0  0  0  0  0  0  0  0  0  0
  180.6711   13.4402   43.6495 H   0  0  0  0  0  0  0  0  0  0  0  0
  182.0993   17.3314   43.2512 H   0  0  0  0  0  0  0  0  0  0  0  0
  180.5083   16.7557   42.5857 H   0  0  0  0  0  0  0  0  0  0  0  0
  179.3864   17.2098   44.4949 H   0  0  0  0  0  0  0  0  0  0  0  0
  180.7710   16.6871   45.5423 H   0  0  0  0  0  0  0  0  0  0  0  0
  181.8930   18.9080   44.6616 H   0  0  0  0  0  0  0  0  0  0  0  0
  180.2054   19.3996   44.3169 H   0  0  0  0  0  0  0  0  0  0  0  0
  177.9231   18.9013   46.4940 H   0  0  0  0  0  0  0  0  0  0  0  0
  176.4813   20.8400   47.1217 H   0  0  0  0  0  0  0  0  0  0  0  0
  179.9800   23.3453   47.4972 H   0  0  0  0  0  0  0  0  0  0  0  0
  1  2  3  0
  2  3  1  0
  3  4  1  0
  4  5  1  0
  4  6  1  0
  6  7  1  0
  7  8  1  0
  8  9  1  0
  9 10  1  0
 10 11  2  0
 11 12  1  0
 12 13  2  0
 13 14  1  0
 13 15  1  0
 15 16  2  0
 16 17  1  0
 16 10  1  0
  1 18  1  0
  3 19  1  0
  3 20  1  0
  4 21  1  1
  5 22  1  0
  5 23  1  0
  5 24  1  0
  6 25  1  0
  6 26  1  0
  7 27  1  0
  7 28  1  0
  8 29  1  0
  8 30  1  0
 11 31  1  0
 12 32  1  0
 15 33  1  0
M  CHG  1   4   1
M  END
>  <meeko>  (4) 
{"is_sidechain": [false], "free_energy": -6.303, "intermolecular_energy": -8.595, "internal_energy": -0.392}

$$$$
clorgyline_out
     RDKit          3D

 33 33  0  0  0  0  0  0  0  0999 V2000
  175.4340   18.1250   46.7030 C   0  0  0  0  0  0  0  0  0  0  0  0
  175.5600   19.2470   47.1110 C   0  0  0  0  0  0  0  0  0  0  0  0
  175.7120   20.6230   47.6140 C   0  0  0  0  0  0  0  0  0  0  0  0
  176.5380   20.7500   48.8280 N   0  0  2  0  0  0  0  0  0  0  0  0
  175.7880   20.3730   50.0260 C   0  0  0  0  0  0  0  0  0  0  0  0
  177.1450   22.0880   48.9380 C   0  0  0  0  0  0  0  0  0  0  0  0
  177.4830   22.6910   47.5670 C   0  0  0  0  0  0  0  0  0  0  0  0
  178.9910   22.7320   47.3230 C   0  0  0  0  0  0  0  0  0  0  0  0
  179.5700   21.5290   47.8250 O   0  0  0  0  0  0  0  0  0  0  0  0
  179.8950   20.5470   46.9280 C   0  0  0  0  0  0  0  0  0  0  0  0
  179.0540   19.4860   46.5750 C   0  0  0  0  0  0  0  0  0  0  0  0
  179.4790   18.5260   45.6500 C   0  0  0  0  0  0  0  0  0  0  0  0
  180.7450   18.6200   45.0770 C   0  0  0  0  0  0  0  0  0  0  0  0
  181.2580   17.4340   43.9420 Cl  0  0  0  0  0  0  0  0  0  0  0  0
  181.5960   19.6660   45.4180 C   0  0  0  0  0  0  0  0  0  0  0  0
  181.1720   20.6230   46.3420 C   0  0  0  0  0  0  0  0  0  0  0  0
  182.2630   21.9080   46.7330 Cl  0  0  0  0  0  0  0  0  0  0  0  0
  175.3186   17.0969   46.3292 H   0  0  0  0  0  0  0  0  0  0  0  0
  176.1748   21.2282   46.8205 H   0  0  0  0  0  0  0  0  0  0  0  0
  174.7034   20.9652   47.8888 H   0  0  0  0  0  0  0  0  0  0  0  0
  177.3130   20.0900   48.7450 H   0  0  0  0  0  0  0  0  0  0  0  0
  176.3589   20.6600   50.9214 H   0  0  0  0  0  0  0  0  0  0  0  0
  174.8172   20.8902   50.0287 H   0  0  0  0  0  0  0  0  0  0  0  0
  175.6239   19.2853   50.0287 H   0  0  0  0  0  0  0  0  0  0  0  0
  176.4384   22.7554   49.4531 H   0  0  0  0  0  0  0  0  0  0  0  0
  178.0847   21.9851   49.5004 H   0  0  0  0  0  0  0  0  0  0  0  0
  177.0117   22.0801   46.7830 H   0  0  0  0  0  0  0  0  0  0  0  0
  177.1040   23.7234   47.5440 H   0  0  0  0  0  0  0  0  0  0  0  0
  179.1890   22.8156   46.2442 H   0  0  0  0  0  0  0  0  0  0  0  0
  179.4295   23.6006   47.8361 H   0  0  0  0  0  0  0  0  0  0  0  0
  178.0542   19.4062   47.0267 H   0  0  0  0  0  0  0  0  0  0  0  0
  178.8121   17.6956   45.3749 H   0  0  0  0  0  0  0  0  0  0  0  0
  182.5950   19.7387   44.9634 H   0  0  0  0  0  0  0  0  0  0  0  0
  1  2  3  0
  2  3  1  0
  3  4  1  0
  4  5  1  0
  4  6  1  0
  6  7  1  0
  7  8  1  0
  8  9  1  0
  9 10  1  0
 10 11  2  0
 11 12  1  0
 12 13  2  0
 13 14  1  0
 13 15  1  0
 15 16  2  0
 16 17  1  0
 16 10  1  0
  1 18  1  0
  3 19  1  0
  3 20  1  0
  4 21  1  6
  5 22  1  0
  5 23  1  0
  5 24  1  0
  6 25  1  0
  6 26  1  0
  7 27  1  0
  7 28  1  0
  8 29  1  0
  8 30  1  0
 11 31  1  0
 12 32  1  0
 15 33  1  0
M  CHG  1   4   1
M  END
>  <meeko>  (5) 
{"is_sidechain": [false], "free_energy": -6.132, "intermolecular_energy": -7.808, "internal_energy": -0.948}

$$$$
clorgyline_out
     RDKit          3D

 33 33  0  0  0  0  0  0  0  0999 V2000
  180.9840   14.7680   40.1460 C   0  0  0  0  0  0  0  0  0  0  0  0
  180.9280   15.6820   40.9230 C   0  0  0  0  0  0  0  0  0  0  0  0
  180.8540   16.8010   41.8780 C   0  0  0  0  0  0  0  0  0  0  0  0
  181.5910   16.5880   43.1370 N   0  0  2  0  0  0  0  0  0  0  0  0
  181.0620   15.4420   43.8770 C   0  0  0  0  0  0  0  0  0  0  0  0
  181.6440   17.8130   43.9530 C   0  0  0  0  0  0  0  0  0  0  0  0
  180.4420   17.9350   44.9010 C   0  0  0  0  0  0  0  0  0  0  0  0
  180.5060   19.2150   45.7330 C   0  0  0  0  0  0  0  0  0  0  0  0
  179.3500   20.0020   45.4560 O   0  0  0  0  0  0  0  0  0  0  0  0
  178.3470   20.0250   46.3880 C   0  0  0  0  0  0  0  0  0  0  0  0
  177.2570   19.1480   46.4010 C   0  0  0  0  0  0  0  0  0  0  0  0
  176.2780   19.2540   47.3950 C   0  0  0  0  0  0  0  0  0  0  0  0
  176.3810   20.2380   48.3760 C   0  0  0  0  0  0  0  0  0  0  0  0
  175.1710   20.3610   49.5920 Cl  0  0  0  0  0  0  0  0  0  0  0  0
  177.4560   21.1200   48.3770 C   0  0  0  0  0  0  0  0  0  0  0  0
  178.4320   21.0140   47.3850 C   0  0  0  0  0  0  0  0  0  0  0  0
  179.7530   22.1320   47.4280 Cl  0  0  0  0  0  0  0  0  0  0  0  0
  181.0353   13.9308   39.4343 H   0  0  0  0  0  0  0  0  0  0  0  0
  181.2642   17.6966   41.3885 H   0  0  0  0  0  0  0  0  0  0  0  0
  179.7940   16.9044   42.1530 H   0  0  0  0  0  0  0  0  0  0  0  0
  182.5570   16.3620   42.8950 H   0  0  0  0  0  0  0  0  0  0  0  0
  181.1493   15.6310   44.9571 H   0  0  0  0  0  0  0  0  0  0  0  0
  180.0041   15.2931   43.6151 H   0  0  0  0  0  0  0  0  0  0  0  0
  181.6350   14.5403   43.6151 H   0  0  0  0  0  0  0  0  0  0  0  0
  182.5667   17.7994   44.5518 H   0  0  0  0  0  0  0  0  0  0  0  0
  181.6214   18.6740   43.2688 H   0  0  0  0  0  0  0  0  0  0  0  0
  179.5174   17.9430   44.3051 H   0  0  0  0  0  0  0  0  0  0  0  0
  180.4599   17.0773   45.5895 H   0  0  0  0  0  0  0  0  0  0  0  0
  180.5316   18.9596   46.8026 H   0  0  0  0  0  0  0  0  0  0  0  0
  181.4136   19.7816   45.4774 H   0  0  0  0  0  0  0  0  0  0  0  0
  177.1693   18.3718   45.6265 H   0  0  0  0  0  0  0  0  0  0  0  0
  175.4253   18.5591   47.4020 H   0  0  0  0  0  0  0  0  0  0  0  0
  177.5365   21.8951   49.1534 H   0  0  0  0  0  0  0  0  0  0  0  0
  1  2  3  0
  2  3  1  0
  3  4  1  0
  4  5  1  0
  4  6  1  0
  6  7  1  0
  7  8  1  0
  8  9  1  0
  9 10  1  0
 10 11  2  0
 11 12  1  0
 12 13  2  0
 13 14  1  0
 13 15  1  0
 15 16  2  0
 16 17  1  0
 16 10  1  0
  1 18  1  0
  3 19  1  0
  3 20  1  0
  4 21  1  6
  5 22  1  0
  5 23  1  0
  5 24  1  0
  6 25  1  0
  6 26  1  0
  7 27  1  0
  7 28  1  0
  8 29  1  0
  8 30  1  0
 11 31  1  0
 12 32  1  0
 15 33  1  0
M  CHG  1   4   1
M  END
>  <meeko>  (6) 
{"is_sidechain": [false], "free_energy": -6.129, "intermolecular_energy": -8.417, "internal_energy": -0.335}

$$$$
clorgyline_out
     RDKit          3D

 33 33  0  0  0  0  0  0  0  0999 V2000
  177.2190   23.4310   47.9620 C   0  0  0  0  0  0  0  0  0  0  0  0
  176.2790   22.9930   48.5690 C   0  0  0  0  0  0  0  0  0  0  0  0
  175.1250   22.4580   49.3100 C   0  0  0  0  0  0  0  0  0  0  0  0
  174.8450   21.0310   49.0700 N   0  0  2  0  0  0  0  0  0  0  0  0
  175.6270   20.1750   49.9630 C   0  0  0  0  0  0  0  0  0  0  0  0
  175.0150   20.6720   47.6520 C   0  0  0  0  0  0  0  0  0  0  0  0
  175.8570   19.4010   47.4680 C   0  0  0  0  0  0  0  0  0  0  0  0
  176.7460   19.4870   46.2270 C   0  0  0  0  0  0  0  0  0  0  0  0
  177.9830   18.8330   46.5020 O   0  0  0  0  0  0  0  0  0  0  0  0
  179.1310   19.5770   46.4470 C   0  0  0  0  0  0  0  0  0  0  0  0
  179.2630   20.8720   46.9610 C   0  0  0  0  0  0  0  0  0  0  0  0
  180.4790   21.5550   46.8520 C   0  0  0  0  0  0  0  0  0  0  0  0
  181.5670   20.9480   46.2270 C   0  0  0  0  0  0  0  0  0  0  0  0
  183.0580   21.7970   46.0970 Cl  0  0  0  0  0  0  0  0  0  0  0  0
  181.4550   19.6640   45.7080 C   0  0  0  0  0  0  0  0  0  0  0  0
  180.2400   18.9830   45.8170 C   0  0  0  0  0  0  0  0  0  0  0  0
  180.1480   17.3850   45.1590 Cl  0  0  0  0  0  0  0  0  0  0  0  0
  178.0795   23.8320   47.4063 H   0  0  0  0  0  0  0  0  0  0  0  0
  175.3157   22.5934   50.3849 H   0  0  0  0  0  0  0  0  0  0  0  0
  174.2438   23.0112   48.9529 H   0  0  0  0  0  0  0  0  0  0  0  0
  173.8620   20.8670   49.2920 H   0  0  0  0  0  0  0  0  0  0  0  0
  175.3961   20.4278   51.0084 H   0  0  0  0  0  0  0  0  0  0  0  0
  175.3732   19.1211   49.7759 H   0  0  0  0  0  0  0  0  0  0  0  0
  176.6994   20.3327   49.7759 H   0  0  0  0  0  0  0  0  0  0  0  0
  174.0224   20.5058   47.2080 H   0  0  0  0  0  0  0  0  0  0  0  0
  175.5438   21.4998   47.1570 H   0  0  0  0  0  0  0  0  0  0  0  0
  176.4941   19.2639   48.3542 H   0  0  0  0  0  0  0  0  0  0  0  0
  175.1711   18.5505   47.3405 H   0  0  0  0  0  0  0  0  0  0  0  0
  176.2472   18.9935   45.3799 H   0  0  0  0  0  0  0  0  0  0  0  0
  176.9292   20.5409   45.9706 H   0  0  0  0  0  0  0  0  0  0  0  0
  178.4062   21.3553   47.4532 H   0  0  0  0  0  0  0  0  0  0  0  0
  180.5766   22.5719   47.2599 H   0  0  0  0  0  0  0  0  0  0  0  0
  182.3156   19.1877   45.2155 H   0  0  0  0  0  0  0  0  0  0  0  0
  1  2  3  0
  2  3  1  0
  3  4  1  0
  4  5  1  0
  4  6  1  0
  6  7  1  0
  7  8  1  0
  8  9  1  0
  9 10  1  0
 10 11  2  0
 11 12  1  0
 12 13  2  0
 13 14  1  0
 13 15  1  0
 15 16  2  0
 16 17  1  0
 16 10  1  0
  1 18  1  0
  3 19  1  0
  3 20  1  0
  4 21  1  1
  5 22  1  0
  5 23  1  0
  5 24  1  0
  6 25  1  0
  6 26  1  0
  7 27  1  0
  7 28  1  0
  8 29  1  0
  8 30  1  0
 11 31  1  0
 12 32  1  0
 15 33  1  0
M  CHG  1   4   1
M  END
>  <meeko>  (7) 
{"is_sidechain": [false], "free_energy": -6.032, "intermolecular_energy": -8.009, "internal_energy": -0.612}

$$$$
clorgyline_out
     RDKit          3D

 33 33  0  0  0  0  0  0  0  0999 V2000
  181.5090   14.3880   41.7320 C   0  0  0  0  0  0  0  0  0  0  0  0
  181.3540   15.3740   42.4000 C   0  0  0  0  0  0  0  0  0  0  0  0
  181.1590   16.5850   43.2170 C   0  0  0  0  0  0  0  0  0  0  0  0
  180.7930   16.3290   44.6220 N   0  0  2  0  0  0  0  0  0  0  0  0
  180.0570   15.0720   44.7610 C   0  0  0  0  0  0  0  0  0  0  0  0
  180.0790   17.4710   45.2170 C   0  0  0  0  0  0  0  0  0  0  0  0
  180.6260   18.8210   44.7290 C   0  0  0  0  0  0  0  0  0  0  0  0
  180.1840   19.9700   45.6330 C   0  0  0  0  0  0  0  0  0  0  0  0
  178.8110   19.7870   45.9710 O   0  0  0  0  0  0  0  0  0  0  0  0
  178.1840   20.7760   46.6810 C   0  0  0  0  0  0  0  0  0  0  0  0
  178.7720   21.9960   47.0290 C   0  0  0  0  0  0  0  0  0  0  0  0
  178.0490   22.9440   47.7620 C   0  0  0  0  0  0  0  0  0  0  0  0
  176.7400   22.6750   48.1530 C   0  0  0  0  0  0  0  0  0  0  0  0
  175.8610   23.8470   49.0550 Cl  0  0  0  0  0  0  0  0  0  0  0  0
  176.1390   21.4660   47.8190 C   0  0  0  0  0  0  0  0  0  0  0  0
  176.8610   20.5210   47.0880 C   0  0  0  0  0  0  0  0  0  0  0  0
  176.0730   19.0310   46.6920 Cl  0  0  0  0  0  0  0  0  0  0  0  0
  181.6510   13.4849   41.1202 H   0  0  0  0  0  0  0  0  0  0  0  0
  182.0968   17.1597   43.2067 H   0  0  0  0  0  0  0  0  0  0  0  0
  180.3132   17.1279   42.7700 H   0  0  0  0  0  0  0  0  0  0  0  0
  181.6590   16.2230   45.1520 H   0  0  0  0  0  0  0  0  0  0  0  0
  179.9224   14.8420   45.8282 H   0  0  0  0  0  0  0  0  0  0  0  0
  179.0726   15.1683   44.2796 H   0  0  0  0  0  0  0  0  0  0  0  0
  180.6227   14.2607   44.2796 H   0  0  0  0  0  0  0  0  0  0  0  0
  179.0149   17.4023   44.9467 H   0  0  0  0  0  0  0  0  0  0  0  0
  180.2213   17.4251   46.3068 H   0  0  0  0  0  0  0  0  0  0  0  0
  181.7251   18.7777   44.7192 H   0  0  0  0  0  0  0  0  0  0  0  0
  180.2297   19.0069   43.7198 H   0  0  0  0  0  0  0  0  0  0  0  0
  180.7928   19.9747   46.5492 H   0  0  0  0  0  0  0  0  0  0  0  0
  180.3155   20.9287   45.1100 H   0  0  0  0  0  0  0  0  0  0  0  0
  179.8071   22.2115   46.7254 H   0  0  0  0  0  0  0  0  0  0  0  0
  178.5157   23.9034   48.0297 H   0  0  0  0  0  0  0  0  0  0  0  0
  175.1043   21.2564   48.1280 H   0  0  0  0  0  0  0  0  0  0  0  0
  1  2  3  0
  2  3  1  0
  3  4  1  0
  4  5  1  0
  4  6  1  0
  6  7  1  0
  7  8  1  0
  8  9  1  0
  9 10  1  0
 10 11  2  0
 11 12  1  0
 12 13  2  0
 13 14  1  0
 13 15  1  0
 15 16  2  0
 16 17  1  0
 16 10  1  0
  1 18  1  0
  3 19  1  0
  3 20  1  0
  4 21  1  1
  5 22  1  0
  5 23  1  0
  5 24  1  0
  6 25  1  0
  6 26  1  0
  7 27  1  0
  7 28  1  0
  8 29  1  0
  8 30  1  0
 11 31  1  0
 12 32  1  0
 15 33  1  0
M  CHG  1   4   1
M  END
>  <meeko>  (8) 
{"is_sidechain": [false], "free_energy": -5.685, "intermolecular_energy": -7.91, "internal_energy": -0.242}

$$$$
clorgyline_out
     RDKit          3D

 33 33  0  0  0  0  0  0  0  0999 V2000
  175.5630   19.4810   49.8780 C   0  0  0  0  0  0  0  0  0  0  0  0
  175.3990   20.5420   49.3410 C   0  0  0  0  0  0  0  0  0  0  0  0
  175.1950   21.8450   48.6850 C   0  0  0  0  0  0  0  0  0  0  0  0
  176.3550   22.7530   48.7420 N   0  0  2  0  0  0  0  0  0  0  0  0
  175.9970   24.0400   49.3390 C   0  0  0  0  0  0  0  0  0  0  0  0
  177.0000   22.9010   47.4260 C   0  0  0  0  0  0  0  0  0  0  0  0
  178.2810   23.7440   47.4940 C   0  0  0  0  0  0  0  0  0  0  0  0
  179.5150   22.8790   47.7450 C   0  0  0  0  0  0  0  0  0  0  0  0
  179.1290   21.5070   47.7090 O   0  0  0  0  0  0  0  0  0  0  0  0
  179.7840   20.6750   46.8400 C   0  0  0  0  0  0  0  0  0  0  0  0
  181.1180   20.8300   46.4490 C   0  0  0  0  0  0  0  0  0  0  0  0
  181.7000   19.9280   45.5510 C   0  0  0  0  0  0  0  0  0  0  0  0
  180.9500   18.8720   45.0370 C   0  0  0  0  0  0  0  0  0  0  0  0
  181.6740   17.7700   43.9320 Cl  0  0  0  0  0  0  0  0  0  0  0  0
  179.6220   18.7040   45.4120 C   0  0  0  0  0  0  0  0  0  0  0  0
  179.0420   19.6040   46.3090 C   0  0  0  0  0  0  0  0  0  0  0  0
  177.3870   19.3540   46.7490 Cl  0  0  0  0  0  0  0  0  0  0  0  0
  175.7133   18.5088   50.3701 H   0  0  0  0  0  0  0  0  0  0  0  0
  174.9551   21.6620   47.6272 H   0  0  0  0  0  0  0  0  0  0  0  0
  174.3829   22.3446   49.2335 H   0  0  0  0  0  0  0  0  0  0  0  0
  177.0510   22.3270   49.3560 H   0  0  0  0  0  0  0  0  0  0  0  0
  176.0207   23.9548   50.4354 H   0  0  0  0  0  0  0  0  0  0  0  0
  176.7159   24.8070   49.0152 H   0  0  0  0  0  0  0  0  0  0  0  0
  174.9853   24.3257   49.0152 H   0  0  0  0  0  0  0  0  0  0  0  0
  177.2545   21.9018   47.0429 H   0  0  0  0  0  0  0  0  0  0  0  0
  176.2924   23.4189   46.7619 H   0  0  0  0  0  0  0  0  0  0  0  0
  178.4077   24.2773   46.5403 H   0  0  0  0  0  0  0  0  0  0  0  0
  178.1820   24.4507   48.3312 H   0  0  0  0  0  0  0  0  0  0  0  0
  180.2667   23.0722   46.9655 H   0  0  0  0  0  0  0  0  0  0  0  0
  179.9471   23.1202   48.7274 H   0  0  0  0  0  0  0  0  0  0  0  0
  181.7124   21.6646   46.8491 H   0  0  0  0  0  0  0  0  0  0  0  0
  182.7508   20.0528   45.2506 H   0  0  0  0  0  0  0  0  0  0  0  0
  179.0326   17.8689   45.0055 H   0  0  0  0  0  0  0  0  0  0  0  0
  1  2  3  0
  2  3  1  0
  3  4  1  0
  4  5  1  0
  4  6  1  0
  6  7  1  0
  7  8  1  0
  8  9  1  0
  9 10  1  0
 10 11  2  0
 11 12  1  0
 12 13  2  0
 13 14  1  0
 13 15  1  0
 15 16  2  0
 16 17  1  0
 16 10  1  0
  1 18  1  0
  3 19  1  0
  3 20  1  0
  4 21  1  1
  5 22  1  0
  5 23  1  0
  5 24  1  0
  6 25  1  0
  6 26  1  0
  7 27  1  0
  7 28  1  0
  8 29  1  0
  8 30  1  0
 11 31  1  0
 12 32  1  0
 15 33  1  0
M  CHG  1   4   1
M  END
>  <meeko>  (9) 
{"is_sidechain": [false], "free_energy": -5.405, "intermolecular_energy": -6.975, "internal_energy": -0.8}

$$$$
