DTQ_out
     RDKit          3D

 37 39  0  0  0  0  0  0  0  0999 V2000
  175.9160   20.4000   49.9850 C   0  0  0  0  0  0  0  0  0  0  0  0
  176.3210   21.3290   48.9850 O   0  0  0  0  0  0  0  0  0  0  0  0
  177.2410   20.8730   48.0760 C   0  0  0  0  0  0  0  0  0  0  0  0
  178.5690   21.1430   48.4390 C   0  0  0  0  0  0  0  0  0  0  0  0
  179.6480   20.7550   47.6600 C   0  0  0  0  0  0  0  0  0  0  0  0
  180.8810   21.0790   48.0640 N   0  0  0  0  0  0  0  0  0  0  0  0
  181.8930   20.7100   47.2720 C   0  0  0  0  0  0  0  0  0  0  0  0
  181.7920   20.0310   46.1260 N   0  0  0  0  0  0  0  0  0  0  0  0
  180.5480   19.6840   45.7530 C   0  0  0  0  0  0  0  0  0  0  0  0
  180.4870   18.9410   44.5520 N   0  0  0  0  0  0  0  0  0  0  0  0
  180.6230   17.5320   44.4330 C   0  0  0  0  0  0  0  0  0  0  0  0
  179.8850   16.6290   45.2100 C   0  0  0  0  0  0  0  0  0  0  0  0
  180.0890   15.2520   45.0850 C   0  0  0  0  0  0  0  0  0  0  0  0
  181.0450   14.7660   44.1970 C   0  0  0  0  0  0  0  0  0  0  0  0
  181.8000   15.6600   43.4480 C   0  0  0  0  0  0  0  0  0  0  0  0
  182.7340   15.1450   42.5990 O   0  0  0  0  0  0  0  0  0  0  0  0
  181.6060   17.0340   43.5670 C   0  0  0  0  0  0  0  0  0  0  0  0
  179.3990   20.0490   46.4810 C   0  0  0  0  0  0  0  0  0  0  0  0
  178.0560   19.7710   46.1070 C   0  0  0  0  0  0  0  0  0  0  0  0
  176.9750   20.1520   46.9080 C   0  0  0  0  0  0  0  0  0  0  0  0
  175.6740   19.8500   46.6150 O   0  0  0  0  0  0  0  0  0  0  0  0
  175.2500   18.5040   46.8050 C   0  0  0  0  0  0  0  0  0  0  0  0
  176.1028   20.8285   50.9807 H   0  0  0  0  0  0  0  0  0  0  0  0
  174.8428   20.1858   49.8734 H   0  0  0  0  0  0  0  0  0  0  0  0
  176.4895   19.4680   49.8734 H   0  0  0  0  0  0  0  0  0  0  0  0
  178.7614   21.6833   49.3777 H   0  0  0  0  0  0  0  0  0  0  0  0
  182.9058   20.9926   47.5950 H   0  0  0  0  0  0  0  0  0  0  0  0
  180.3360   19.4470   43.7210 H   0  0  0  0  0  0  0  0  0  0  0  0
  179.1388   17.0071   45.9243 H   0  0  0  0  0  0  0  0  0  0  0  0
  179.4936   14.5514   45.6889 H   0  0  0  0  0  0  0  0  0  0  0  0
  181.2013   13.6825   44.0893 H   0  0  0  0  0  0  0  0  0  0  0  0
  183.6380   15.3690   42.7060 H   0  0  0  0  0  0  0  0  0  0  0  0
  182.2249   17.7291   42.9807 H   0  0  0  0  0  0  0  0  0  0  0  0
  177.8620   19.2420   45.1622 H   0  0  0  0  0  0  0  0  0  0  0  0
  175.1824   18.2894   47.8817 H   0  0  0  0  0  0  0  0  0  0  0  0
  174.2634   18.3613   46.3400 H   0  0  0  0  0  0  0  0  0  0  0  0
  175.9767   17.8216   46.3400 H   0  0  0  0  0  0  0  0  0  0  0  0
  1  2  1  0
  2  3  1  0
  3  4  2  0
  4  5  1  0
  5  6  2  0
  6  7  1  0
  7  8  2  0
  8  9  1  0
  9 10  1  0
 10 11  1  0
 11 12  2  0
 12 13  1  0
 13 14  2  0
 14 15  1  0
 15 16  1  0
 15 17  2  0
  9 18  2  0
 18 19  1  0
 19 20  2  0
 20 21  1  0
 21 22  1  0
 20  3  1  0
 18  5  1  0
 17 11  1  0
  1 23  1  0
  1 24  1  0
  1 25  1  0
  4 26  1  0
  7 27  1  0
 10 28  1  0
 12 29  1  0
 13 30  1  0
 14 31  1  0
 16 32  1  0
 17 33  1  0
 19 34  1  0
 22 35  1  0
 22 36  1  0
 22 37  1  0
M  END
>  <meeko>  (1) 
{"is_sidechain": [false], "free_energy": -7.646, "intermolecular_energy": -9.658, "internal_energy": -0.689}

$$$$
DTQ_out
     RDKit          3D

 37 39  0  0  0  0  0  0  0  0999 V2000
  176.0030   20.4550   50.0020 C   0  0  0  0  0  0  0  0  0  0  0  0
  176.3940   21.3810   48.9940 O   0  0  0  0  0  0  0  0  0  0  0  0
  177.3020   20.9230   48.0750 C   0  0  0  0  0  0  0  0  0  0  0  0
  178.6330   21.2020   48.4150 C   0  0  0  0  0  0  0  0  0  0  0  0
  179.7020   20.8140   47.6220 C   0  0  0  0  0  0  0  0  0  0  0  0
  180.9400   21.1470   48.0050 N   0  0  0  0  0  0  0  0  0  0  0  0
  181.9420   20.7780   47.2000 C   0  0  0  0  0  0  0  0  0  0  0  0
  181.8260   20.0910   46.0600 N   0  0  0  0  0  0  0  0  0  0  0  0
  180.5780   19.7340   45.7090 C   0  0  0  0  0  0  0  0  0  0  0  0
  180.5030   18.9830   44.5140 N   0  0  0  0  0  0  0  0  0  0  0  0
  180.7420   17.5890   44.3870 C   0  0  0  0  0  0  0  0  0  0  0  0
  181.6680   17.0550   43.4790 C   0  0  0  0  0  0  0  0  0  0  0  0
  181.8330   15.6720   43.3630 C   0  0  0  0  0  0  0  0  0  0  0  0
  181.0610   14.8100   44.1370 C   0  0  0  0  0  0  0  0  0  0  0  0
  180.1210   15.3350   45.0150 C   0  0  0  0  0  0  0  0  0  0  0  0
  179.3770   14.4560   45.7460 O   0  0  0  0  0  0  0  0  0  0  0  0
  179.9470   16.7110   45.1370 C   0  0  0  0  0  0  0  0  0  0  0  0
  179.4390   20.0990   46.4520 C   0  0  0  0  0  0  0  0  0  0  0  0
  178.0910   19.8120   46.1010 C   0  0  0  0  0  0  0  0  0  0  0  0
  177.0220   20.1920   46.9160 C   0  0  0  0  0  0  0  0  0  0  0  0
  175.7170   19.8830   46.6450 O   0  0  0  0  0  0  0  0  0  0  0  0
  175.3150   18.5260   46.8040 C   0  0  0  0  0  0  0  0  0  0  0  0
  176.1880   20.8930   50.9939 H   0  0  0  0  0  0  0  0  0  0  0  0
  174.9321   20.2276   49.8955 H   0  0  0  0  0  0  0  0  0  0  0  0
  176.5869   19.5289   49.8955 H   0  0  0  0  0  0  0  0  0  0  0  0
  178.8371   21.7498   49.3468 H   0  0  0  0  0  0  0  0  0  0  0  0
  182.9583   21.0676   47.5054 H   0  0  0  0  0  0  0  0  0  0  0  0
  180.2620   19.4700   43.6940 H   0  0  0  0  0  0  0  0  0  0  0  0
  182.2695   17.7304   42.8529 H   0  0  0  0  0  0  0  0  0  0  0  0
  182.5736   15.2642   42.6594 H   0  0  0  0  0  0  0  0  0  0  0  0
  181.1943   13.7213   44.0540 H   0  0  0  0  0  0  0  0  0  0  0  0
  178.5160   14.6940   46.0290 H   0  0  0  0  0  0  0  0  0  0  0  0
  179.1848   17.1097   45.8227 H   0  0  0  0  0  0  0  0  0  0  0  0
  177.8846   19.2764   45.1626 H   0  0  0  0  0  0  0  0  0  0  0  0
  175.2444   18.2877   47.8755 H   0  0  0  0  0  0  0  0  0  0  0  0
  174.3339   18.3762   46.3296 H   0  0  0  0  0  0  0  0  0  0  0  0
  176.0562   17.8660   46.3296 H   0  0  0  0  0  0  0  0  0  0  0  0
  1  2  1  0
  2  3  1  0
  3  4  2  0
  4  5  1  0
  5  6  2  0
  6  7  1  0
  7  8  2  0
  8  9  1  0
  9 10  1  0
 10 11  1  0
 11 12  2  0
 12 13  1  0
 13 14  2  0
 14 15  1  0
 15 16  1  0
 15 17  2  0
  9 18  2  0
 18 19  1  0
 19 20  2  0
 20 21  1  0
 21 22  1  0
 20  3  1  0
 18  5  1  0
 17 11  1  0
  1 23  1  0
  1 24  1  0
  1 25  1  0
  4 26  1  0
  7 27  1  0
 10 28  1  0
 12 29  1  0
 13 30  1  0
 14 31  1  0
 16 32  1  0
 17 33  1  0
 19 34  1  0
 22 35  1  0
 22 36  1  0
 22 37  1  0
M  END
>  <meeko>  (2) 
{"is_sidechain": [false], "free_energy": -7.485, "intermolecular_energy": -9.449, "internal_energy": -0.693}

$$$$
DTQ_out
     RDKit          3D

 37 39  0  0  0  0  0  0  0  0999 V2000
  178.3950   23.8580   48.1470 C   0  0  0  0  0  0  0  0  0  0  0  0
  179.6400   23.2090   48.3820 O   0  0  0  0  0  0  0  0  0  0  0  0
  179.8190   22.0040   47.7510 C   0  0  0  0  0  0  0  0  0  0  0  0
  178.6250   21.3020   47.5350 C   0  0  0  0  0  0  0  0  0  0  0  0
  178.5900   20.0680   46.9030 C   0  0  0  0  0  0  0  0  0  0  0  0
  177.4120   19.4510   46.7630 N   0  0  0  0  0  0  0  0  0  0  0  0
  177.4230   18.2510   46.1720 C   0  0  0  0  0  0  0  0  0  0  0  0
  178.4970   17.6200   45.6910 N   0  0  0  0  0  0  0  0  0  0  0  0
  179.6680   18.2700   45.8090 C   0  0  0  0  0  0  0  0  0  0  0  0
  180.7730   17.5800   45.2600 N   0  0  0  0  0  0  0  0  0  0  0  0
  180.7200   16.5920   44.2410 C   0  0  0  0  0  0  0  0  0  0  0  0
  180.3830   15.2550   44.4960 C   0  0  0  0  0  0  0  0  0  0  0  0
  180.3890   14.3120   43.4640 C   0  0  0  0  0  0  0  0  0  0  0  0
  180.7490   14.6920   42.1740 C   0  0  0  0  0  0  0  0  0  0  0  0
  181.1130   16.0090   41.9240 C   0  0  0  0  0  0  0  0  0  0  0  0
  181.4700   16.3380   40.6500 O   0  0  0  0  0  0  0  0  0  0  0  0
  181.1130   16.9560   42.9460 C   0  0  0  0  0  0  0  0  0  0  0  0
  179.7910   19.5190   46.4470 C   0  0  0  0  0  0  0  0  0  0  0  0
  181.0060   20.2250   46.6630 C   0  0  0  0  0  0  0  0  0  0  0  0
  181.0280   21.4760   47.2860 C   0  0  0  0  0  0  0  0  0  0  0  0
  182.1660   22.2150   47.4580 O   0  0  0  0  0  0  0  0  0  0  0  0
  183.0890   22.2660   46.3740 C   0  0  0  0  0  0  0  0  0  0  0  0
  177.9225   24.1043   49.1093 H   0  0  0  0  0  0  0  0  0  0  0  0
  178.5654   24.7820   47.5750 H   0  0  0  0  0  0  0  0  0  0  0  0
  177.7351   23.1892   47.5750 H   0  0  0  0  0  0  0  0  0  0  0  0
  177.6799   21.7468   47.8799 H   0  0  0  0  0  0  0  0  0  0  0  0
  176.4563   17.7355   46.0729 H   0  0  0  0  0  0  0  0  0  0  0  0
  181.6630   17.8070   45.6150 H   0  0  0  0  0  0  0  0  0  0  0  0
  180.1117   14.9457   45.5162 H   0  0  0  0  0  0  0  0  0  0  0  0
  180.1090   13.2687   43.6715 H   0  0  0  0  0  0  0  0  0  0  0  0
  180.7452   13.9542   41.3581 H   0  0  0  0  0  0  0  0  0  0  0  0
  182.1100   15.8250   40.1970 H   0  0  0  0  0  0  0  0  0  0  0  0
  181.4219   17.9907   42.7361 H   0  0  0  0  0  0  0  0  0  0  0  0
  181.9533   19.7750   46.3312 H   0  0  0  0  0  0  0  0  0  0  0  0
  184.1145   22.3227   46.7680 H   0  0  0  0  0  0  0  0  0  0  0  0
  182.9822   21.3606   45.7585 H   0  0  0  0  0  0  0  0  0  0  0  0
  182.8831   23.1541   45.7585 H   0  0  0  0  0  0  0  0  0  0  0  0
  1  2  1  0
  2  3  1  0
  3  4  2  0
  4  5  1  0
  5  6  2  0
  6  7  1  0
  7  8  2  0
  8  9  1  0
  9 10  1  0
 10 11  1  0
 11 12  2  0
 12 13  1  0
 13 14  2  0
 14 15  1  0
 15 16  1  0
 15 17  2  0
  9 18  2  0
 18 19  1  0
 19 20  2  0
 20 21  1  0
 21 22  1  0
 20  3  1  0
 18  5  1  0
 17 11  1  0
  1 23  1  0
  1 24  1  0
  1 25  1  0
  4 26  1  0
  7 27  1  0
 10 28  1  0
 12 29  1  0
 13 30  1  0
 14 31  1  0
 16 32  1  0
 17 33  1  0
 19 34  1  0
 22 35  1  0
 22 36  1  0
 22 37  1  0
M  END
>  <meeko>  (3) 
{"is_sidechain": [false], "free_energy": -6.234, "intermolecular_energy": -8.215, "internal_energy": -0.348}

$$$$
DTQ_out
     RDKit          3D

 37 39  0  0  0  0  0  0  0  0999 V2000
  175.6490   20.9900   46.9060 C   0  0  0  0  0  0  0  0  0  0  0  0
  176.5450   20.6270   47.9510 O   0  0  0  0  0  0  0  0  0  0  0  0
  177.8790   20.8240   47.6970 C   0  0  0  0  0  0  0  0  0  0  0  0
  178.3940   19.9640   46.7170 C   0  0  0  0  0  0  0  0  0  0  0  0
  179.7180   20.0090   46.3080 C   0  0  0  0  0  0  0  0  0  0  0  0
  180.1380   19.1330   45.3890 N   0  0  0  0  0  0  0  0  0  0  0  0
  181.4270   19.1910   45.0420 C   0  0  0  0  0  0  0  0  0  0  0  0
  182.3320   20.0540   45.5100 N   0  0  0  0  0  0  0  0  0  0  0  0
  181.8860   20.9510   46.4070 C   0  0  0  0  0  0  0  0  0  0  0  0
  182.8680   21.8640   46.8530 N   0  0  0  0  0  0  0  0  0  0  0  0
  183.7030   22.6630   46.0280 C   0  0  0  0  0  0  0  0  0  0  0  0
  184.0820   22.2810   44.7330 C   0  0  0  0  0  0  0  0  0  0  0  0
  184.9430   23.0830   43.9790 C   0  0  0  0  0  0  0  0  0  0  0  0
  185.4470   24.2630   44.5180 C   0  0  0  0  0  0  0  0  0  0  0  0
  185.0990   24.6290   45.8120 C   0  0  0  0  0  0  0  0  0  0  0  0
  185.6240   25.7860   46.3070 O   0  0  0  0  0  0  0  0  0  0  0  0
  184.2430   23.8360   46.5730 C   0  0  0  0  0  0  0  0  0  0  0  0
  180.5610   20.9640   46.8830 C   0  0  0  0  0  0  0  0  0  0  0  0
  180.0440   21.8400   47.8770 C   0  0  0  0  0  0  0  0  0  0  0  0
  178.7030   21.7980   48.2690 C   0  0  0  0  0  0  0  0  0  0  0  0
  178.1530   22.6610   49.1760 O   0  0  0  0  0  0  0  0  0  0  0  0
  177.5630   23.8560   48.6740 C   0  0  0  0  0  0  0  0  0  0  0  0
  174.7126   21.3694   47.3411 H   0  0  0  0  0  0  0  0  0  0  0  0
  176.1083   21.7730   46.2847 H   0  0  0  0  0  0  0  0  0  0  0  0
  175.4338   20.1081   46.2847 H   0  0  0  0  0  0  0  0  0  0  0  0
  177.7222   19.2255   46.2550 H   0  0  0  0  0  0  0  0  0  0  0  0
  181.7759   18.4578   44.2999 H   0  0  0  0  0  0  0  0  0  0  0  0
  182.9830   21.9570   47.8270 H   0  0  0  0  0  0  0  0  0  0  0  0
  183.6983   21.3422   44.3071 H   0  0  0  0  0  0  0  0  0  0  0  0
  185.2225   22.7814   42.9588 H   0  0  0  0  0  0  0  0  0  0  0  0
  186.1166   24.9016   43.9232 H   0  0  0  0  0  0  0  0  0  0  0  0
  186.3540   26.1890   45.8790 H   0  0  0  0  0  0  0  0  0  0  0  0
  183.9907   24.1306   47.6023 H   0  0  0  0  0  0  0  0  0  0  0  0
  180.7174   22.5700   48.3499 H   0  0  0  0  0  0  0  0  0  0  0  0
  177.2493   24.4915   49.5153 H   0  0  0  0  0  0  0  0  0  0  0  0
  178.2974   24.3974   48.0595 H   0  0  0  0  0  0  0  0  0  0  0  0
  176.6867   23.6022   48.0595 H   0  0  0  0  0  0  0  0  0  0  0  0
  1  2  1  0
  2  3  1  0
  3  4  2  0
  4  5  1  0
  5  6  2  0
  6  7  1  0
  7  8  2  0
  8  9  1  0
  9 10  1  0
 10 11  1  0
 11 12  2  0
 12 13  1  0
 13 14  2  0
 14 15  1  0
 15 16  1  0
 15 17  2  0
  9 18  2  0
 18 19  1  0
 19 20  2  0
 20 21  1  0
 21 22  1  0
 20  3  1  0
 18  5  1  0
 17 11  1  0
  1 23  1  0
  1 24  1  0
  1 25  1  0
  4 26  1  0
  7 27  1  0
 10 28  1  0
 12 29  1  0
 13 30  1  0
 14 31  1  0
 16 32  1  0
 17 33  1  0
 19 34  1  0
 22 35  1  0
 22 36  1  0
 22 37  1  0
M  END
>  <meeko>  (4) 
{"is_sidechain": [false], "free_energy": -6.109, "intermolecular_energy": -8.315, "internal_energy": -0.09}

$$$$
DTQ_out
     RDKit          3D

 37 39  0  0  0  0  0  0  0  0999 V2000
  174.0730   24.5490   49.7040 C   0  0  0  0  0  0  0  0  0  0  0  0
  174.9550   23.5400   50.1870 O   0  0  0  0  0  0  0  0  0  0  0  0
  175.5920   22.7900   49.2320 C   0  0  0  0  0  0  0  0  0  0  0  0
  174.9680   21.5600   48.9770 C   0  0  0  0  0  0  0  0  0  0  0  0
  175.4500   20.6600   48.0390 C   0  0  0  0  0  0  0  0  0  0  0  0
  174.8120   19.4950   47.8790 N   0  0  0  0  0  0  0  0  0  0  0  0
  175.3230   18.6440   46.9840 C   0  0  0  0  0  0  0  0  0  0  0  0
  176.3980   18.8540   46.2200 N   0  0  0  0  0  0  0  0  0  0  0  0
  177.0060   20.0430   46.3680 C   0  0  0  0  0  0  0  0  0  0  0  0
  178.1200   20.2370   45.5200 N   0  0  0  0  0  0  0  0  0  0  0  0
  179.4840   20.2190   45.9150 C   0  0  0  0  0  0  0  0  0  0  0  0
  180.5350   20.0120   45.0090 C   0  0  0  0  0  0  0  0  0  0  0  0
  181.8580   19.9590   45.4570 C   0  0  0  0  0  0  0  0  0  0  0  0
  182.1420   20.0920   46.8130 C   0  0  0  0  0  0  0  0  0  0  0  0
  181.1000   20.2650   47.7170 C   0  0  0  0  0  0  0  0  0  0  0  0
  181.4190   20.3790   49.0370 O   0  0  0  0  0  0  0  0  0  0  0  0
  179.7780   20.3170   47.2810 C   0  0  0  0  0  0  0  0  0  0  0  0
  176.5880   21.0060   47.3070 C   0  0  0  0  0  0  0  0  0  0  0  0
  177.2250   22.2520   47.5590 C   0  0  0  0  0  0  0  0  0  0  0  0
  176.7220   23.1600   48.4950 C   0  0  0  0  0  0  0  0  0  0  0  0
  177.2690   24.3920   48.7230 O   0  0  0  0  0  0  0  0  0  0  0  0
  178.6860   24.4710   48.8480 C   0  0  0  0  0  0  0  0  0  0  0  0
  173.6146   25.0735   50.5553 H   0  0  0  0  0  0  0  0  0  0  0  0
  174.6379   25.2674   49.0918 H   0  0  0  0  0  0  0  0  0  0  0  0
  173.2855   24.0852   49.0918 H   0  0  0  0  0  0  0  0  0  0  0  0
  174.0615   21.2994   49.5429 H   0  0  0  0  0  0  0  0  0  0  0  0
  174.8091   17.6787   46.8654 H   0  0  0  0  0  0  0  0  0  0  0  0
  177.9330   20.3970   44.5670 H   0  0  0  0  0  0  0  0  0  0  0  0
  180.3162   19.8905   43.9378 H   0  0  0  0  0  0  0  0  0  0  0  0
  182.6761   19.8119   44.7366 H   0  0  0  0  0  0  0  0  0  0  0  0
  183.1831   20.0605   47.1668 H   0  0  0  0  0  0  0  0  0  0  0  0
  181.6620   19.6180   49.5280 H   0  0  0  0  0  0  0  0  0  0  0  0
  178.9635   20.4352   48.0108 H   0  0  0  0  0  0  0  0  0  0  0  0
  178.1384   22.5083   47.0022 H   0  0  0  0  0  0  0  0  0  0  0  0
  178.9598   24.4863   49.9133 H   0  0  0  0  0  0  0  0  0  0  0  0
  179.1461   23.5971   48.3636 H   0  0  0  0  0  0  0  0  0  0  0  0
  179.0461   25.3906   48.3636 H   0  0  0  0  0  0  0  0  0  0  0  0
  1  2  1  0
  2  3  1  0
  3  4  2  0
  4  5  1  0
  5  6  2  0
  6  7  1  0
  7  8  2  0
  8  9  1  0
  9 10  1  0
 10 11  1  0
 11 12  2  0
 12 13  1  0
 13 14  2  0
 14 15  1  0
 15 16  1  0
 15 17  2  0
  9 18  2  0
 18 19  1  0
 19 20  2  0
 20 21  1  0
 21 22  1  0
 20  3  1  0
 18  5  1  0
 17 11  1  0
  1 23  1  0
  1 24  1  0
  1 25  1  0
  4 26  1  0
  7 27  1  0
 10 28  1  0
 12 29  1  0
 13 30  1  0
 14 31  1  0
 16 32  1  0
 17 33  1  0
 19 34  1  0
 22 35  1  0
 22 36  1  0
 22 37  1  0
M  END
>  <meeko>  (5) 
{"is_sidechain": [false], "free_energy": -6.072, "intermolecular_energy": -8.363, "internal_energy": 0.005}

$$$$
DTQ_out
     RDKit          3D

 37 39  0  0  0  0  0  0  0  0999 V2000
  183.5100   22.6060   46.1200 C   0  0  0  0  0  0  0  0  0  0  0  0
  182.6490   22.4420   47.2410 O   0  0  0  0  0  0  0  0  0  0  0  0
  181.5910   21.5860   47.0680 C   0  0  0  0  0  0  0  0  0  0  0  0
  181.8960   20.4730   46.2720 C   0  0  0  0  0  0  0  0  0  0  0  0
  180.9670   19.4840   45.9860 C   0  0  0  0  0  0  0  0  0  0  0  0
  181.3300   18.4700   45.1940 N   0  0  0  0  0  0  0  0  0  0  0  0
  180.3980   17.5520   44.9200 C   0  0  0  0  0  0  0  0  0  0  0  0
  179.1440   17.5400   45.3790 N   0  0  0  0  0  0  0  0  0  0  0  0
  178.8050   18.5480   46.2010 C   0  0  0  0  0  0  0  0  0  0  0  0
  177.4800   18.4810   46.6880 N   0  0  0  0  0  0  0  0  0  0  0  0
  176.7110   19.5730   47.1710 C   0  0  0  0  0  0  0  0  0  0  0  0
  176.4410   20.7130   46.4000 C   0  0  0  0  0  0  0  0  0  0  0  0
  175.7170   21.7800   46.9390 C   0  0  0  0  0  0  0  0  0  0  0  0
  175.2710   21.7260   48.2570 C   0  0  0  0  0  0  0  0  0  0  0  0
  175.5640   20.6110   49.0330 C   0  0  0  0  0  0  0  0  0  0  0  0
  175.1200   20.6030   50.3220 O   0  0  0  0  0  0  0  0  0  0  0  0
  176.2870   19.5440   48.5060 C   0  0  0  0  0  0  0  0  0  0  0  0
  179.6850   19.5960   46.5320 C   0  0  0  0  0  0  0  0  0  0  0  0
  179.3690   20.7230   47.3400 C   0  0  0  0  0  0  0  0  0  0  0  0
  180.3190   21.7040   47.6360 C   0  0  0  0  0  0  0  0  0  0  0  0
  180.0730   22.7700   48.4580 O   0  0  0  0  0  0  0  0  0  0  0  0
  178.7450   23.2850   48.4910 C   0  0  0  0  0  0  0  0  0  0  0  0
  184.5344   22.8011   46.4699 H   0  0  0  0  0  0  0  0  0  0  0  0
  183.4986   21.6895   45.5117 H   0  0  0  0  0  0  0  0  0  0  0  0
  183.1625   23.4541   45.5117 H   0  0  0  0  0  0  0  0  0  0  0  0
  182.9111   20.3807   45.8585 H   0  0  0  0  0  0  0  0  0  0  0  0
  180.6918   16.7281   44.2530 H   0  0  0  0  0  0  0  0  0  0  0  0
  177.0490   17.5960   46.6910 H   0  0  0  0  0  0  0  0  0  0  0  0
  176.8021   20.7678   45.3624 H   0  0  0  0  0  0  0  0  0  0  0  0
  175.4992   22.6637   46.3212 H   0  0  0  0  0  0  0  0  0  0  0  0
  174.6913   22.5594   48.6806 H   0  0  0  0  0  0  0  0  0  0  0  0
  175.1660   21.3840   50.8380 H   0  0  0  0  0  0  0  0  0  0  0  0
  176.5257   18.6767   49.1391 H   0  0  0  0  0  0  0  0  0  0  0  0
  178.3503   20.8250   47.7423 H   0  0  0  0  0  0  0  0  0  0  0  0
  178.4256   23.4089   49.5363 H   0  0  0  0  0  0  0  0  0  0  0  0
  178.7168   24.2593   47.9811 H   0  0  0  0  0  0  0  0  0  0  0  0
  178.0673   22.5845   47.9811 H   0  0  0  0  0  0  0  0  0  0  0  0
  1  2  1  0
  2  3  1  0
  3  4  2  0
  4  5  1  0
  5  6  2  0
  6  7  1  0
  7  8  2  0
  8  9  1  0
  9 10  1  0
 10 11  1  0
 11 12  2  0
 12 13  1  0
 13 14  2  0
 14 15  1  0
 15 16  1  0
 15 17  2  0
  9 18  2  0
 18 19  1  0
 19 20  2  0
 20 21  1  0
 21 22  1  0
 20  3  1  0
 18  5  1  0
 17 11  1  0
  1 23  1  0
  1 24  1  0
  1 25  1  0
  4 26  1  0
  7 27  1  0
 10 28  1  0
 12 29  1  0
 13 30  1  0
 14 31  1  0
 16 32  1  0
 17 33  1  0
 19 34  1  0
 22 35  1  0
 22 36  1  0
 22 37  1  0
M  END
>  <meeko>  (6) 
{"is_sidechain": [false], "free_energy": -5.928, "intermolecular_energy": -8.508, "internal_energy": 0.331}

$$$$
DTQ_out
     RDKit          3D

 37 39  0  0  0  0  0  0  0  0999 V2000
  180.9090   17.0990   42.1890 C   0  0  0  0  0  0  0  0  0  0  0  0
  181.5960   16.9430   43.4270 O   0  0  0  0  0  0  0  0  0  0  0  0
  181.1680   17.7400   44.4580 C   0  0  0  0  0  0  0  0  0  0  0  0
  181.8890   18.9370   44.5760 C   0  0  0  0  0  0  0  0  0  0  0  0
  181.6060   19.8840   45.5480 C   0  0  0  0  0  0  0  0  0  0  0  0
  182.3620   20.9860   45.6110 N   0  0  0  0  0  0  0  0  0  0  0  0
  182.0750   21.8620   46.5790 C   0  0  0  0  0  0  0  0  0  0  0  0
  181.0910   21.7530   47.4760 N   0  0  0  0  0  0  0  0  0  0  0  0
  180.3190   20.6560   47.3760 C   0  0  0  0  0  0  0  0  0  0  0  0
  179.2720   20.5940   48.3240 N   0  0  0  0  0  0  0  0  0  0  0  0
  177.8910   20.7940   48.0580 C   0  0  0  0  0  0  0  0  0  0  0  0
  177.3860   20.9900   46.7650 C   0  0  0  0  0  0  0  0  0  0  0  0
  176.0240   21.2270   46.5630 C   0  0  0  0  0  0  0  0  0  0  0  0
  175.1580   21.2890   47.6510 C   0  0  0  0  0  0  0  0  0  0  0  0
  175.6600   21.1260   48.9360 C   0  0  0  0  0  0  0  0  0  0  0  0
  174.7800   21.2060   49.9750 O   0  0  0  0  0  0  0  0  0  0  0  0
  177.0160   20.8920   49.1490 C   0  0  0  0  0  0  0  0  0  0  0  0
  180.5470   19.6420   46.4260 C   0  0  0  0  0  0  0  0  0  0  0  0
  179.8110   18.4310   46.3110 C   0  0  0  0  0  0  0  0  0  0  0  0
  180.0940   17.4900   45.3170 C   0  0  0  0  0  0  0  0  0  0  0  0
  179.3710   16.3430   45.1350 O   0  0  0  0  0  0  0  0  0  0  0  0
  180.0520   15.1030   45.3000 C   0  0  0  0  0  0  0  0  0  0  0  0
  179.8532   17.3388   42.3832 H   0  0  0  0  0  0  0  0  0  0  0  0
  181.3705   17.9152   41.6139 H   0  0  0  0  0  0  0  0  0  0  0  0
  180.9728   16.1635   41.6139 H   0  0  0  0  0  0  0  0  0  0  0  0
  182.7102   19.1318   43.8706 H   0  0  0  0  0  0  0  0  0  0  0  0
  182.7096   22.7582   46.6431 H   0  0  0  0  0  0  0  0  0  0  0  0
  179.5230   20.3930   49.2540 H   0  0  0  0  0  0  0  0  0  0  0  0
  178.0677   20.9569   45.9023 H   0  0  0  0  0  0  0  0  0  0  0  0
  175.6356   21.3647   45.5431 H   0  0  0  0  0  0  0  0  0  0  0  0
  174.0837   21.4658   47.4944 H   0  0  0  0  0  0  0  0  0  0  0  0
  175.0540   20.9710   50.8400 H   0  0  0  0  0  0  0  0  0  0  0  0
  177.4009   20.7840   50.1738 H   0  0  0  0  0  0  0  0  0  0  0  0
  178.9973   18.2293   47.0232 H   0  0  0  0  0  0  0  0  0  0  0  0
  180.1695   14.8891   46.3726 H   0  0  0  0  0  0  0  0  0  0  0  0
  179.4690   14.2988   44.8274 H   0  0  0  0  0  0  0  0  0  0  0  0
  181.0435   15.1635   44.8274 H   0  0  0  0  0  0  0  0  0  0  0  0
  1  2  1  0
  2  3  1  0
  3  4  2  0
  4  5  1  0
  5  6  2  0
  6  7  1  0
  7  8  2  0
  8  9  1  0
  9 10  1  0
 10 11  1  0
 11 12  2  0
 12 13  1  0
 13 14  2  0
 14 15  1  0
 15 16  1  0
 15 17  2  0
  9 18  2  0
 18 19  1  0
 19 20  2  0
 20 21  1  0
 21 22  1  0
 20  3  1  0
 18  5  1  0
 17 11  1  0
  1 23  1  0
  1 24  1  0
  1 25  1  0
  4 26  1  0
  7 27  1  0
 10 28  1  0
 12 29  1  0
 13 30  1  0
 14 31  1  0
 16 32  1  0
 17 33  1  0
 19 34  1  0
 22 35  1  0
 22 36  1  0
 22 37  1  0
M  END
>  <meeko>  (7) 
{"is_sidechain": [false], "free_energy": -5.825, "intermolecular_energy": -7.824, "internal_energy": -0.223}

$$$$
DTQ_out
     RDKit          3D

 37 39  0  0  0  0  0  0  0  0999 V2000
  184.5740   23.0560   43.7890 C   0  0  0  0  0  0  0  0  0  0  0  0
  184.6140   21.9710   44.7100 O   0  0  0  0  0  0  0  0  0  0  0  0
  183.4840   21.7780   45.4620 C   0  0  0  0  0  0  0  0  0  0  0  0
  182.6650   20.7430   44.9870 C   0  0  0  0  0  0  0  0  0  0  0  0
  181.4820   20.3820   45.6130 C   0  0  0  0  0  0  0  0  0  0  0  0
  180.7440   19.4040   45.0770 N   0  0  0  0  0  0  0  0  0  0  0  0
  179.5960   19.1040   45.6940 C   0  0  0  0  0  0  0  0  0  0  0  0
  179.1270   19.6740   46.8070 N   0  0  0  0  0  0  0  0  0  0  0  0
  179.8980   20.6310   47.3520 C   0  0  0  0  0  0  0  0  0  0  0  0
  179.3800   21.1870   48.5430 N   0  0  0  0  0  0  0  0  0  0  0  0
  178.1310   21.8490   48.6830 C   0  0  0  0  0  0  0  0  0  0  0  0
  177.9240   23.1760   48.2800 C   0  0  0  0  0  0  0  0  0  0  0  0
  176.6870   23.7950   48.4800 C   0  0  0  0  0  0  0  0  0  0  0  0
  175.6520   23.1010   49.1030 C   0  0  0  0  0  0  0  0  0  0  0  0
  175.8640   21.7960   49.5320 C   0  0  0  0  0  0  0  0  0  0  0  0
  174.8300   21.1560   50.1480 O   0  0  0  0  0  0  0  0  0  0  0  0
  177.0940   21.1710   49.3380 C   0  0  0  0  0  0  0  0  0  0  0  0
  181.1060   21.0640   46.7730 C   0  0  0  0  0  0  0  0  0  0  0  0
  181.9320   22.1140   47.2600 C   0  0  0  0  0  0  0  0  0  0  0  0
  183.1320   22.4580   46.6320 C   0  0  0  0  0  0  0  0  0  0  0  0
  183.9840   23.4190   47.1030 O   0  0  0  0  0  0  0  0  0  0  0  0
  183.9450   24.6980   46.4780 C   0  0  0  0  0  0  0  0  0  0  0  0
  184.5390   24.0058   44.3427 H   0  0  0  0  0  0  0  0  0  0  0  0
  185.4736   23.0333   43.1564 H   0  0  0  0  0  0  0  0  0  0  0  0
  183.6785   22.9671   43.1564 H   0  0  0  0  0  0  0  0  0  0  0  0
  182.9732   20.1969   44.0832 H   0  0  0  0  0  0  0  0  0  0  0  0
  178.9797   18.3129   45.2420 H   0  0  0  0  0  0  0  0  0  0  0  0
  179.9350   21.1070   49.3520 H   0  0  0  0  0  0  0  0  0  0  0  0
  178.7423   23.7347   47.8023 H   0  0  0  0  0  0  0  0  0  0  0  0
  176.5305   24.8311   48.1452 H   0  0  0  0  0  0  0  0  0  0  0  0
  174.6744   23.5822   49.2542 H   0  0  0  0  0  0  0  0  0  0  0  0
  175.0030   20.4910   50.7840 H   0  0  0  0  0  0  0  0  0  0  0  0
  177.2514   20.1441   49.6994 H   0  0  0  0  0  0  0  0  0  0  0  0
  181.6179   22.6705   48.1553 H   0  0  0  0  0  0  0  0  0  0  0  0
  183.9211   25.4823   47.2490 H   0  0  0  0  0  0  0  0  0  0  0  0
  184.8396   24.8272   45.8511 H   0  0  0  0  0  0  0  0  0  0  0  0
  183.0442   24.7725   45.8511 H   0  0  0  0  0  0  0  0  0  0  0  0
  1  2  1  0
  2  3  1  0
  3  4  2  0
  4  5  1  0
  5  6  2  0
  6  7  1  0
  7  8  2  0
  8  9  1  0
  9 10  1  0
 10 11  1  0
 11 12  2  0
 12 13  1  0
 13 14  2  0
 14 15  1  0
 15 16  1  0
 15 17  2  0
  9 18  2  0
 18 19  1  0
 19 20  2  0
 20 21  1  0
 21 22  1  0
 20  3  1  0
 18  5  1  0
 17 11  1  0
  1 23  1  0
  1 24  1  0
  1 25  1  0
  4 26  1  0
  7 27  1  0
 10 28  1  0
 12 29  1  0
 13 30  1  0
 14 31  1  0
 16 32  1  0
 17 33  1  0
 19 34  1  0
 22 35  1  0
 22 36  1  0
 22 37  1  0
M  END
>  <meeko>  (8) 
{"is_sidechain": [false], "free_energy": -5.086, "intermolecular_energy": -6.897, "internal_energy": -0.216}

$$$$
DTQ_out
     RDKit          3D

 37 39  0  0  0  0  0  0  0  0999 V2000
  187.2110   28.2290   47.6820 C   0  0  0  0  0  0  0  0  0  0  0  0
  187.6890   26.8970   47.5250 O   0  0  0  0  0  0  0  0  0  0  0  0
  186.7330   25.9320   47.3330 C   0  0  0  0  0  0  0  0  0  0  0  0
  186.5550   25.5800   45.9870 C   0  0  0  0  0  0  0  0  0  0  0  0
  185.6440   24.6160   45.5840 C   0  0  0  0  0  0  0  0  0  0  0  0
  185.5160   24.3600   44.2770 N   0  0  0  0  0  0  0  0  0  0  0  0
  184.6070   23.4440   43.9270 C   0  0  0  0  0  0  0  0  0  0  0  0
  183.8310   22.7440   44.7580 N   0  0  0  0  0  0  0  0  0  0  0  0
  183.9980   22.9880   46.0700 C   0  0  0  0  0  0  0  0  0  0  0  0
  183.1800   22.2060   46.9160 N   0  0  0  0  0  0  0  0  0  0  0  0
  182.0410   21.4570   46.5170 C   0  0  0  0  0  0  0  0  0  0  0  0
  180.7360   21.7900   46.9100 C   0  0  0  0  0  0  0  0  0  0  0  0
  179.6540   20.9940   46.5270 C   0  0  0  0  0  0  0  0  0  0  0  0
  179.8660   19.8480   45.7650 C   0  0  0  0  0  0  0  0  0  0  0  0
  181.1600   19.4980   45.4010 C   0  0  0  0  0  0  0  0  0  0  0  0
  181.3260   18.3620   44.6650 O   0  0  0  0  0  0  0  0  0  0  0  0
  182.2460   20.2840   45.7790 C   0  0  0  0  0  0  0  0  0  0  0  0
  184.8930   23.9590   46.5610 C   0  0  0  0  0  0  0  0  0  0  0  0
  185.0680   24.3110   47.9270 C   0  0  0  0  0  0  0  0  0  0  0  0
  186.0020   25.2720   48.3250 C   0  0  0  0  0  0  0  0  0  0  0  0
  186.2440   25.5950   49.6320 O   0  0  0  0  0  0  0  0  0  0  0  0
  185.8470   24.6570   50.6270 C   0  0  0  0  0  0  0  0  0  0  0  0
  187.1265   28.4644   48.7532 H   0  0  0  0  0  0  0  0  0  0  0  0
  187.9140   28.9292   47.2070 H   0  0  0  0  0  0  0  0  0  0  0  0
  186.2232   28.3225   47.2070 H   0  0  0  0  0  0  0  0  0  0  0  0
  187.1611   26.0880   45.2224 H   0  0  0  0  0  0  0  0  0  0  0  0
  184.4870   23.2484   42.8512 H   0  0  0  0  0  0  0  0  0  0  0  0
  183.4230   22.1750   47.8690 H   0  0  0  0  0  0  0  0  0  0  0  0
  180.5634   22.6856   47.5250 H   0  0  0  0  0  0  0  0  0  0  0  0
  178.6333   21.2728   46.8277 H   0  0  0  0  0  0  0  0  0  0  0  0
  179.0150   19.2244   45.4536 H   0  0  0  0  0  0  0  0  0  0  0  0
  180.8340   17.5930   44.8740 H   0  0  0  0  0  0  0  0  0  0  0  0
  183.2660   19.9833   45.4977 H   0  0  0  0  0  0  0  0  0  0  0  0
  184.4522   23.8141   48.6911 H   0  0  0  0  0  0  0  0  0  0  0  0
  186.0272   25.0828   51.6251 H   0  0  0  0  0  0  0  0  0  0  0  0
  184.7764   24.4318   50.5123 H   0  0  0  0  0  0  0  0  0  0  0  0
  186.4306   23.7317   50.5123 H   0  0  0  0  0  0  0  0  0  0  0  0
  1  2  1  0
  2  3  1  0
  3  4  2  0
  4  5  1  0
  5  6  2  0
  6  7  1  0
  7  8  2  0
  8  9  1  0
  9 10  1  0
 10 11  1  0
 11 12  2  0
 12 13  1  0
 13 14  2  0
 14 15  1  0
 15 16  1  0
 15 17  2  0
  9 18  2  0
 18 19  1  0
 19 20  2  0
 20 21  1  0
 21 22  1  0
 20  3  1  0
 18  5  1  0
 17 11  1  0
  1 23  1  0
  1 24  1  0
  1 25  1  0
  4 26  1  0
  7 27  1  0
 10 28  1  0
 12 29  1  0
 13 30  1  0
 14 31  1  0
 16 32  1  0
 17 33  1  0
 19 34  1  0
 22 35  1  0
 22 36  1  0
 22 37  1  0
M  END
>  <meeko>  (9) 
{"is_sidechain": [false], "free_energy": -4.72, "intermolecular_energy": -6.477, "internal_energy": -0.174}

$$$$
