isatin_out
     RDKit          3D

 16 17  0  0  0  0  0  0  0  0999 V2000
  176.5230   24.2210   50.0610 O   0  0  0  0  0  0  0  0  0  0  0  0
  177.0490   23.4980   49.2440 C   0  0  0  0  0  0  0  0  0  0  0  0
  176.4480   22.5750   48.4100 N   0  0  0  0  0  0  0  0  0  0  0  0
  177.3930   21.9390   47.6100 C   0  0  0  0  0  0  0  0  0  0  0  0
  177.1630   20.9640   46.6630 C   0  0  0  0  0  0  0  0  0  0  0  0
  178.2740   20.4640   45.9730 C   0  0  0  0  0  0  0  0  0  0  0  0
  179.5750   20.9410   46.2390 C   0  0  0  0  0  0  0  0  0  0  0  0
  179.7910   21.9290   47.2020 C   0  0  0  0  0  0  0  0  0  0  0  0
  178.6800   22.4050   47.8680 C   0  0  0  0  0  0  0  0  0  0  0  0
  178.5670   23.4220   48.9150 C   0  0  0  0  0  0  0  0  0  0  0  0
  179.4630   24.0630   49.4140 O   0  0  0  0  0  0  0  0  0  0  0  0
  175.4810   22.3920   48.3850 H   0  0  0  0  0  0  0  0  0  0  0  0
  176.1477   20.5938   46.4577 H   0  0  0  0  0  0  0  0  0  0  0  0
  178.1300   19.6852   45.2097 H   0  0  0  0  0  0  0  0  0  0  0  0
  180.4292   20.5297   45.6812 H   0  0  0  0  0  0  0  0  0  0  0  0
  180.7997   22.3101   47.4195 H   0  0  0  0  0  0  0  0  0  0  0  0
  1  2  2  0
  2  3  1  0
  3  4  1  0
  4  5  2  0
  5  6  1  0
  6  7  2  0
  7  8  1  0
  8  9  2  0
  9 10  1  0
 10 11  2  0
 10  2  1  0
  9  4  1  0
  3 12  1  0
  5 13  1  0
  6 14  1  0
  7 15  1  0
  8 16  1  0
M  END
>  <meeko>  (1) 
{"is_sidechain": [false], "free_energy": -6.051, "intermolecular_energy": -6.051, "internal_energy": 0.0}

$$$$
isatin_out
     RDKit          3D

 16 17  0  0  0  0  0  0  0  0999 V2000
  174.8170   21.5310   50.2150 O   0  0  0  0  0  0  0  0  0  0  0  0
  175.6970   21.2630   49.4280 C   0  0  0  0  0  0  0  0  0  0  0  0
  176.9920   21.7440   49.3990 N   0  0  0  0  0  0  0  0  0  0  0  0
  177.7030   21.1970   48.3360 C   0  0  0  0  0  0  0  0  0  0  0  0
  179.0150   21.4440   47.9940 C   0  0  0  0  0  0  0  0  0  0  0  0
  179.5260   20.7740   46.8760 C   0  0  0  0  0  0  0  0  0  0  0  0
  178.7260   19.8830   46.1300 C   0  0  0  0  0  0  0  0  0  0  0  0
  177.3970   19.6440   46.4890 C   0  0  0  0  0  0  0  0  0  0  0  0
  176.9180   20.3160   47.5950 C   0  0  0  0  0  0  0  0  0  0  0  0
  175.5950   20.2860   48.2220 C   0  0  0  0  0  0  0  0  0  0  0  0
  174.6340   19.6410   47.8730 O   0  0  0  0  0  0  0  0  0  0  0  0
  177.3610   22.3900   50.0450 H   0  0  0  0  0  0  0  0  0  0  0  0
  179.6362   22.1402   48.5765 H   0  0  0  0  0  0  0  0  0  0  0  0
  180.5697   20.9453   46.5739 H   0  0  0  0  0  0  0  0  0  0  0  0
  179.1535   19.3705   45.2556 H   0  0  0  0  0  0  0  0  0  0  0  0
  176.7618   18.9521   45.9164 H   0  0  0  0  0  0  0  0  0  0  0  0
  1  2  2  0
  2  3  1  0
  3  4  1  0
  4  5  2  0
  5  6  1  0
  6  7  2  0
  7  8  1  0
  8  9  2  0
  9 10  1  0
 10 11  2  0
 10  2  1  0
  9  4  1  0
  3 12  1  0
  5 13  1  0
  6 14  1  0
  7 15  1  0
  8 16  1  0
M  END
>  <meeko>  (2) 
{"is_sidechain": [false], "free_energy": -6.02, "intermolecular_energy": -6.02, "internal_energy": 0.0}

$$$$
isatin_out
     RDKit          3D

 16 17  0  0  0  0  0  0  0  0999 V2000
  176.6340   24.1920   50.1540 O   0  0  0  0  0  0  0  0  0  0  0  0
  176.5170   23.1750   49.5060 C   0  0  0  0  0  0  0  0  0  0  0  0
  175.9740   21.9690   49.9030 N   0  0  0  0  0  0  0  0  0  0  0  0
  176.0200   21.0390   48.8690 C   0  0  0  0  0  0  0  0  0  0  0  0
  175.5720   19.7350   48.8990 C   0  0  0  0  0  0  0  0  0  0  0  0
  175.7210   18.9770   47.7310 C   0  0  0  0  0  0  0  0  0  0  0  0
  176.3060   19.5290   46.5710 C   0  0  0  0  0  0  0  0  0  0  0  0
  176.7540   20.8520   46.5570 C   0  0  0  0  0  0  0  0  0  0  0  0
  176.5960   21.5770   47.7210 C   0  0  0  0  0  0  0  0  0  0  0  0
  176.9550   22.9630   48.0290 C   0  0  0  0  0  0  0  0  0  0  0  0
  177.4770   23.7650   47.2910 O   0  0  0  0  0  0  0  0  0  0  0  0
  175.6060   21.7900   50.7990 H   0  0  0  0  0  0  0  0  0  0  0  0
  175.1159   19.3075   49.8041 H   0  0  0  0  0  0  0  0  0  0  0  0
  175.3759   17.9326   47.7172 H   0  0  0  0  0  0  0  0  0  0  0  0
  176.4103   18.9101   45.6676 H   0  0  0  0  0  0  0  0  0  0  0  0
  177.2114   21.2954   45.6602 H   0  0  0  0  0  0  0  0  0  0  0  0
  1  2  2  0
  2  3  1  0
  3  4  1  0
  4  5  2  0
  5  6  1  0
  6  7  2  0
  7  8  1  0
  8  9  2  0
  9 10  1  0
 10 11  2  0
 10  2  1  0
  9  4  1  0
  3 12  1  0
  5 13  1  0
  6 14  1  0
  7 15  1  0
  8 16  1  0
M  END
>  <meeko>  (3) 
{"is_sidechain": [false], "free_energy": -6.015, "intermolecular_energy": -6.015, "internal_energy": 0.0}

$$$$
isatin_out
     RDKit          3D

 16 17  0  0  0  0  0  0  0  0999 V2000
  179.3070   24.5200   49.5980 O   0  0  0  0  0  0  0  0  0  0  0  0
  178.8360   23.6390   48.9140 C   0  0  0  0  0  0  0  0  0  0  0  0
  179.4960   22.6020   48.2840 N   0  0  0  0  0  0  0  0  0  0  0  0
  178.6020   21.7930   47.5890 C   0  0  0  0  0  0  0  0  0  0  0  0
  178.8970   20.6700   46.8450 C   0  0  0  0  0  0  0  0  0  0  0  0
  177.8300   20.0090   46.2280 C   0  0  0  0  0  0  0  0  0  0  0  0
  176.5050   20.4750   46.3630 C   0  0  0  0  0  0  0  0  0  0  0  0
  176.2220   21.6140   47.1200 C   0  0  0  0  0  0  0  0  0  0  0  0
  177.2920   22.2480   47.7190 C   0  0  0  0  0  0  0  0  0  0  0  0
  177.3340   23.4450   48.5620 C   0  0  0  0  0  0  0  0  0  0  0  0
  176.4000   24.1300   48.9070 O   0  0  0  0  0  0  0  0  0  0  0  0
  180.4690   22.4560   48.3210 H   0  0  0  0  0  0  0  0  0  0  0  0
  179.9306   20.3084   46.7409 H   0  0  0  0  0  0  0  0  0  0  0  0
  178.0273   19.1094   45.6265 H   0  0  0  0  0  0  0  0  0  0  0  0
  175.6855   19.9349   45.8663 H   0  0  0  0  0  0  0  0  0  0  0  0
  175.1940   21.9886   47.2337 H   0  0  0  0  0  0  0  0  0  0  0  0
  1  2  2  0
  2  3  1  0
  3  4  1  0
  4  5  2  0
  5  6  1  0
  6  7  2  0
  7  8  1  0
  8  9  2  0
  9 10  1  0
 10 11  2  0
 10  2  1  0
  9  4  1  0
  3 12  1  0
  5 13  1  0
  6 14  1  0
  7 15  1  0
  8 16  1  0
M  END
>  <meeko>  (4) 
{"is_sidechain": [false], "free_energy": -5.976, "intermolecular_energy": -5.976, "internal_energy": 0.0}

$$$$
isatin_out
     RDKit          3D

 16 17  0  0  0  0  0  0  0  0999 V2000
  174.7070   24.2260   50.1660 O   0  0  0  0  0  0  0  0  0  0  0  0
  175.5600   23.6550   49.5240 C   0  0  0  0  0  0  0  0  0  0  0  0
  176.6560   24.2000   48.8850 N   0  0  0  0  0  0  0  0  0  0  0  0
  177.4040   23.2140   48.2510 C   0  0  0  0  0  0  0  0  0  0  0  0
  178.5590   23.3840   47.5180 C   0  0  0  0  0  0  0  0  0  0  0  0
  179.1460   22.2390   46.9670 C   0  0  0  0  0  0  0  0  0  0  0  0
  178.5750   20.9620   47.1560 C   0  0  0  0  0  0  0  0  0  0  0  0
  177.4040   20.8060   47.9010 C   0  0  0  0  0  0  0  0  0  0  0  0
  176.8460   21.9500   48.4340 C   0  0  0  0  0  0  0  0  0  0  0  0
  175.6420   22.1260   49.2480 C   0  0  0  0  0  0  0  0  0  0  0  0
  174.8800   21.2660   49.6240 O   0  0  0  0  0  0  0  0  0  0  0  0
  176.8770   25.1600   48.8790 H   0  0  0  0  0  0  0  0  0  0  0  0
  179.0019   24.3802   47.3719 H   0  0  0  0  0  0  0  0  0  0  0  0
  180.0687   22.3360   46.3761 H   0  0  0  0  0  0  0  0  0  0  0  0
  179.0580   20.0794   46.7113 H   0  0  0  0  0  0  0  0  0  0  0  0
  176.9477   19.8171   48.0557 H   0  0  0  0  0  0  0  0  0  0  0  0
  1  2  2  0
  2  3  1  0
  3  4  1  0
  4  5  2  0
  5  6  1  0
  6  7  2  0
  7  8  1  0
  8  9  2  0
  9 10  1  0
 10 11  2  0
 10  2  1  0
  9  4  1  0
  3 12  1  0
  5 13  1  0
  6 14  1  0
  7 15  1  0
  8 16  1  0
M  END
>  <meeko>  (5) 
{"is_sidechain": [false], "free_energy": -5.969, "intermolecular_energy": -5.969, "internal_energy": 0.0}

$$$$
isatin_out
     RDKit          3D

 16 17  0  0  0  0  0  0  0  0999 V2000
  179.3460   24.1670   49.5100 O   0  0  0  0  0  0  0  0  0  0  0  0
  178.7200   23.3450   48.8800 C   0  0  0  0  0  0  0  0  0  0  0  0
  177.3790   23.0310   48.9830 N   0  0  0  0  0  0  0  0  0  0  0  0
  177.0320   22.0280   48.0840 C   0  0  0  0  0  0  0  0  0  0  0  0
  175.7880   21.4610   47.9040 C   0  0  0  0  0  0  0  0  0  0  0  0
  175.6720   20.4590   46.9340 C   0  0  0  0  0  0  0  0  0  0  0  0
  176.7850   20.0480   46.1710 C   0  0  0  0  0  0  0  0  0  0  0  0
  178.0390   20.6320   46.3650 C   0  0  0  0  0  0  0  0  0  0  0  0
  178.1270   21.6170   47.3270 C   0  0  0  0  0  0  0  0  0  0  0  0
  179.2760   22.4120   47.7670 C   0  0  0  0  0  0  0  0  0  0  0  0
  180.4090   22.3520   47.3510 O   0  0  0  0  0  0  0  0  0  0  0  0
  176.7520   23.4590   49.6110 H   0  0  0  0  0  0  0  0  0  0  0  0
  174.9211   21.7836   48.4993 H   0  0  0  0  0  0  0  0  0  0  0  0
  174.6950   19.9832   46.7634 H   0  0  0  0  0  0  0  0  0  0  0  0
  176.6640   19.2586   45.4146 H   0  0  0  0  0  0  0  0  0  0  0  0
  178.9157   20.3210   45.7780 H   0  0  0  0  0  0  0  0  0  0  0  0
  1  2  2  0
  2  3  1  0
  3  4  1  0
  4  5  2  0
  5  6  1  0
  6  7  2  0
  7  8  1  0
  8  9  2  0
  9 10  1  0
 10 11  2  0
 10  2  1  0
  9  4  1  0
  3 12  1  0
  5 13  1  0
  6 14  1  0
  7 15  1  0
  8 16  1  0
M  END
>  <meeko>  (6) 
{"is_sidechain": [false], "free_energy": -5.949, "intermolecular_energy": -5.949, "internal_energy": 0.0}

$$$$
isatin_out
     RDKit          3D

 16 17  0  0  0  0  0  0  0  0999 V2000
  176.6480   24.1380   50.1870 O   0  0  0  0  0  0  0  0  0  0  0  0
  176.9420   23.2250   49.4480 C   0  0  0  0  0  0  0  0  0  0  0  0
  178.2020   22.8230   49.0480 N   0  0  0  0  0  0  0  0  0  0  0  0
  178.1260   21.7300   48.1910 C   0  0  0  0  0  0  0  0  0  0  0  0
  179.1750   21.0630   47.5940 C   0  0  0  0  0  0  0  0  0  0  0  0
  178.8590   19.9810   46.7640 C   0  0  0  0  0  0  0  0  0  0  0  0
  177.5200   19.5920   46.5470 C   0  0  0  0  0  0  0  0  0  0  0  0
  176.4690   20.2780   47.1590 C   0  0  0  0  0  0  0  0  0  0  0  0
  176.8060   21.3400   47.9730 C   0  0  0  0  0  0  0  0  0  0  0  0
  175.9560   22.2490   48.7460 C   0  0  0  0  0  0  0  0  0  0  0  0
  174.7500   22.2380   48.8190 O   0  0  0  0  0  0  0  0  0  0  0  0
  179.0410   23.2550   49.3300 H   0  0  0  0  0  0  0  0  0  0  0  0
  180.2180   21.3689   47.7632 H   0  0  0  0  0  0  0  0  0  0  0  0
  179.6695   19.4236   46.2717 H   0  0  0  0  0  0  0  0  0  0  0  0
  177.3017   18.7386   45.8882 H   0  0  0  0  0  0  0  0  0  0  0  0
  175.4207   19.9853   46.9996 H   0  0  0  0  0  0  0  0  0  0  0  0
  1  2  2  0
  2  3  1  0
  3  4  1  0
  4  5  2  0
  5  6  1  0
  6  7  2  0
  7  8  1  0
  8  9  2  0
  9 10  1  0
 10 11  2  0
 10  2  1  0
  9  4  1  0
  3 12  1  0
  5 13  1  0
  6 14  1  0
  7 15  1  0
  8 16  1  0
M  END
>  <meeko>  (7) 
{"is_sidechain": [false], "free_energy": -5.865, "intermolecular_energy": -5.865, "internal_energy": 0.0}

$$$$
isatin_out
     RDKit          3D

 16 17  0  0  0  0  0  0  0  0999 V2000
  180.3230   22.6340   47.4110 O   0  0  0  0  0  0  0  0  0  0  0  0
  179.3270   21.9930   47.6630 C   0  0  0  0  0  0  0  0  0  0  0  0
  178.5730   22.0080   48.8200 N   0  0  0  0  0  0  0  0  0  0  0  0
  177.5000   21.1270   48.7270 C   0  0  0  0  0  0  0  0  0  0  0  0
  176.5390   20.8780   49.6830 C   0  0  0  0  0  0  0  0  0  0  0  0
  175.5450   19.9440   49.3680 C   0  0  0  0  0  0  0  0  0  0  0  0
  175.5310   19.2860   48.1190 C   0  0  0  0  0  0  0  0  0  0  0  0
  176.5110   19.5500   47.1610 C   0  0  0  0  0  0  0  0  0  0  0  0
  177.4800   20.4750   47.4960 C   0  0  0  0  0  0  0  0  0  0  0  0
  178.6260   20.9660   46.7290 C   0  0  0  0  0  0  0  0  0  0  0  0
  178.9530   20.6410   45.6120 O   0  0  0  0  0  0  0  0  0  0  0  0
  178.7700   22.5680   49.6070 H   0  0  0  0  0  0  0  0  0  0  0  0
  176.5525   21.3928   50.6550 H   0  0  0  0  0  0  0  0  0  0  0  0
  174.7613   19.7189   50.1064 H   0  0  0  0  0  0  0  0  0  0  0  0
  174.7380   18.5563   47.8982 H   0  0  0  0  0  0  0  0  0  0  0  0
  176.5115   19.0445   46.1840 H   0  0  0  0  0  0  0  0  0  0  0  0
  1  2  2  0
  2  3  1  0
  3  4  1  0
  4  5  2  0
  5  6  1  0
  6  7  2  0
  7  8  1  0
  8  9  2  0
  9 10  1  0
 10 11  2  0
 10  2  1  0
  9  4  1  0
  3 12  1  0
  5 13  1  0
  6 14  1  0
  7 15  1  0
  8 16  1  0
M  END
>  <meeko>  (8) 
{"is_sidechain": [false], "free_energy": -5.82, "intermolecular_energy": -5.82, "internal_energy": 0.0}

$$$$
isatin_out
     RDKit          3D

 16 17  0  0  0  0  0  0  0  0999 V2000
  182.3330   21.8770   47.3500 O   0  0  0  0  0  0  0  0  0  0  0  0
  181.1750   21.5520   47.2080 C   0  0  0  0  0  0  0  0  0  0  0  0
  180.0420   22.3090   47.4360 N   0  0  0  0  0  0  0  0  0  0  0  0
  178.8910   21.5790   47.1560 C   0  0  0  0  0  0  0  0  0  0  0  0
  177.5850   22.0050   47.2670 C   0  0  0  0  0  0  0  0  0  0  0  0
  176.5800   21.0920   46.9270 C   0  0  0  0  0  0  0  0  0  0  0  0
  176.8950   19.7880   46.4880 C   0  0  0  0  0  0  0  0  0  0  0  0
  178.2230   19.3720   46.3810 C   0  0  0  0  0  0  0  0  0  0  0  0
  179.1950   20.2910   46.7220 C   0  0  0  0  0  0  0  0  0  0  0  0
  180.6550   20.1700   46.7200 C   0  0  0  0  0  0  0  0  0  0  0  0
  181.3090   19.2040   46.4060 O   0  0  0  0  0  0  0  0  0  0  0  0
  180.0490   23.2400   47.7560 H   0  0  0  0  0  0  0  0  0  0  0  0
  177.3422   23.0218   47.6091 H   0  0  0  0  0  0  0  0  0  0  0  0
  175.5257   21.3962   47.0033 H   0  0  0  0  0  0  0  0  0  0  0  0
  176.0845   19.0916   46.2272 H   0  0  0  0  0  0  0  0  0  0  0  0
  178.4830   18.3588   46.0407 H   0  0  0  0  0  0  0  0  0  0  0  0
  1  2  2  0
  2  3  1  0
  3  4  1  0
  4  5  2  0
  5  6  1  0
  6  7  2  0
  7  8  1  0
  8  9  2  0
  9 10  1  0
 10 11  2  0
 10  2  1  0
  9  4  1  0
  3 12  1  0
  5 13  1  0
  6 14  1  0
  7 15  1  0
  8 16  1  0
M  END
>  <meeko>  (9) 
{"is_sidechain": [false], "free_energy": -5.759, "intermolecular_energy": -5.759, "internal_energy": 0.0}

$$$$
