rasagiline_out
     RDKit          3D

 27 28  0  0  0  0  0  0  0  0999 V2000
  175.5580   23.8540   49.2100 C   0  0  0  0  0  0  0  0  0  0  0  0
  176.6430   23.6900   48.7200 C   0  0  0  0  0  0  0  0  0  0  0  0
  177.9680   23.4870   48.1200 C   0  0  0  0  0  0  0  0  0  0  0  0
  178.6860   22.4640   48.8680 N   0  0  0  0  0  0  0  0  0  0  0  0
  178.9060   21.2540   48.0850 C   0  0  2  0  0  0  0  0  0  0  0  0
  179.2940   21.5150   46.6120 C   0  0  0  0  0  0  0  0  0  0  0  0
  178.8170   20.2900   45.8180 C   0  0  0  0  0  0  0  0  0  0  0  0
  177.6070   19.8950   46.6040 C   0  0  0  0  0  0  0  0  0  0  0  0
  176.5680   19.0680   46.2100 C   0  0  0  0  0  0  0  0  0  0  0  0
  175.5490   18.8030   47.1280 C   0  0  0  0  0  0  0  0  0  0  0  0
  175.5870   19.3520   48.4190 C   0  0  0  0  0  0  0  0  0  0  0  0
  176.6460   20.1730   48.8110 C   0  0  0  0  0  0  0  0  0  0  0  0
  177.6480   20.4470   47.8920 C   0  0  0  0  0  0  0  0  0  0  0  0
  174.5649   24.0041   49.6585 H   0  0  0  0  0  0  0  0  0  0  0  0
  177.8521   23.1640   47.0749 H   0  0  0  0  0  0  0  0  0  0  0  0
  178.5337   24.4299   48.1508 H   0  0  0  0  0  0  0  0  0  0  0  0
  178.1430   22.2230   49.6970 H   0  0  0  0  0  0  0  0  0  0  0  0
  179.5990   22.8440   49.1170 H   0  0  0  0  0  0  0  0  0  0  0  0
  179.6944   20.7567   48.6690 H   0  0  0  0  0  0  0  0  0  0  0  0
  178.7983   22.4250   46.2429 H   0  0  0  0  0  0  0  0  0  0  0  0
  180.3785   21.6642   46.5043 H   0  0  0  0  0  0  0  0  0  0  0  0
  178.5574   20.5556   44.7826 H   0  0  0  0  0  0  0  0  0  0  0  0
  179.5702   19.4950   45.7143 H   0  0  0  0  0  0  0  0  0  0  0  0
  176.5459   18.6314   45.2006 H   0  0  0  0  0  0  0  0  0  0  0  0
  174.7078   18.1571   46.8359 H   0  0  0  0  0  0  0  0  0  0  0  0
  174.7752   19.1335   49.1284 H   0  0  0  0  0  0  0  0  0  0  0  0
  176.6848   20.5934   49.8267 H   0  0  0  0  0  0  0  0  0  0  0  0
  1  2  3  0
  2  3  1  0
  3  4  1  0
  4  5  1  0
  5  6  1  0
  6  7  1  0
  7  8  1  0
  8  9  2  0
  9 10  1  0
 10 11  2  0
 11 12  1  0
 12 13  2  0
 13  5  1  0
 13  8  1  0
  1 14  1  0
  3 15  1  0
  3 16  1  0
  4 17  1  0
  4 18  1  0
  5 19  1  1
  6 20  1  0
  6 21  1  0
  7 22  1  0
  7 23  1  0
  9 24  1  0
 10 25  1  0
 11 26  1  0
 12 27  1  0
M  CHG  1   4   1
M  END
>  <meeko>  (1) 
{"is_sidechain": [false], "free_energy": -6.222, "intermolecular_energy": -6.95, "internal_energy": -0.412}

$$$$
rasagiline_out
     RDKit          3D

 27 28  0  0  0  0  0  0  0  0999 V2000
  175.5570   20.0140   49.9600 C   0  0  0  0  0  0  0  0  0  0  0  0
  175.6590   19.6460   48.8210 C   0  0  0  0  0  0  0  0  0  0  0  0
  175.7870   19.1950   47.4290 C   0  0  0  0  0  0  0  0  0  0  0  0
  176.5420   20.1810   46.6690 N   0  0  0  0  0  0  0  0  0  0  0  0
  177.7840   20.5620   47.3310 C   0  0  2  0  0  0  0  0  0  0  0  0
  178.0700   22.0810   47.3150 C   0  0  0  0  0  0  0  0  0  0  0  0
  179.5970   22.2320   47.3840 C   0  0  0  0  0  0  0  0  0  0  0  0
  180.0380   21.0010   46.6550 C   0  0  0  0  0  0  0  0  0  0  0  0
  181.2810   20.7360   46.1070 C   0  0  0  0  0  0  0  0  0  0  0  0
  181.4850   19.4950   45.4990 C   0  0  0  0  0  0  0  0  0  0  0  0
  180.4580   18.5400   45.4580 C   0  0  0  0  0  0  0  0  0  0  0  0
  179.2120   18.8120   46.0260 C   0  0  0  0  0  0  0  0  0  0  0  0
  179.0080   20.0510   46.6150 C   0  0  0  0  0  0  0  0  0  0  0  0
  175.4636   20.3510   51.0029 H   0  0  0  0  0  0  0  0  0  0  0  0
  176.3136   18.2296   47.4029 H   0  0  0  0  0  0  0  0  0  0  0  0
  174.7865   19.0778   46.9871 H   0  0  0  0  0  0  0  0  0  0  0  0
  175.9660   21.0140   46.5500 H   0  0  0  0  0  0  0  0  0  0  0  0
  176.7840   19.7620   45.7700 H   0  0  0  0  0  0  0  0  0  0  0  0
  177.6280   20.1515   48.3395 H   0  0  0  0  0  0  0  0  0  0  0  0
  177.6840   22.5317   46.3888 H   0  0  0  0  0  0  0  0  0  0  0  0
  177.5791   22.5895   48.1579 H   0  0  0  0  0  0  0  0  0  0  0  0
  179.9361   23.1463   46.8751 H   0  0  0  0  0  0  0  0  0  0  0  0
  179.9984   22.3236   48.4041 H   0  0  0  0  0  0  0  0  0  0  0  0
  182.0872   21.4831   46.1491 H   0  0  0  0  0  0  0  0  0  0  0  0
  182.4612   19.2641   45.0476 H   0  0  0  0  0  0  0  0  0  0  0  0
  180.6361   17.5684   44.9740 H   0  0  0  0  0  0  0  0  0  0  0  0
  178.4095   18.0600   46.0068 H   0  0  0  0  0  0  0  0  0  0  0  0
  1  2  3  0
  2  3  1  0
  3  4  1  0
  4  5  1  0
  5  6  1  0
  6  7  1  0
  7  8  1  0
  8  9  2  0
  9 10  1  0
 10 11  2  0
 11 12  1  0
 12 13  2  0
 13  5  1  0
 13  8  1  0
  1 14  1  0
  3 15  1  0
  3 16  1  0
  4 17  1  0
  4 18  1  0
  5 19  1  1
  6 20  1  0
  6 21  1  0
  7 22  1  0
  7 23  1  0
  9 24  1  0
 10 25  1  0
 11 26  1  0
 12 27  1  0
M  CHG  1   4   1
M  END
>  <meeko>  (2) 
{"is_sidechain": [false], "free_energy": -6.17, "intermolecular_energy": -7.01, "internal_energy": -0.293}

$$$$
rasagiline_out
     RDKit          3D

 27 28  0  0  0  0  0  0  0  0999 V2000
  181.5390   19.6260   45.4230 C   0  0  0  0  0  0  0  0  0  0  0  0
  181.5340   20.4840   46.2630 C   0  0  0  0  0  0  0  0  0  0  0  0
  181.5280   21.5320   47.2920 C   0  0  0  0  0  0  0  0  0  0  0  0
  180.2880   21.4570   48.0520 N   0  0  0  0  0  0  0  0  0  0  0  0
  179.1780   22.1140   47.3720 C   0  0  2  0  0  0  0  0  0  0  0  0
  178.5430   23.2740   48.1720 C   0  0  0  0  0  0  0  0  0  0  0  0
  177.0830   23.3690   47.7070 C   0  0  0  0  0  0  0  0  0  0  0  0
  176.7920   21.9360   47.3900 C   0  0  0  0  0  0  0  0  0  0  0  0
  175.5550   21.3320   47.2370 C   0  0  0  0  0  0  0  0  0  0  0  0
  175.5170   19.9770   46.9020 C   0  0  0  0  0  0  0  0  0  0  0  0
  176.7050   19.2520   46.7150 C   0  0  0  0  0  0  0  0  0  0  0  0
  177.9470   19.8730   46.8590 C   0  0  0  0  0  0  0  0  0  0  0  0
  177.9800   21.2150   47.2060 C   0  0  0  0  0  0  0  0  0  0  0  0
  181.5436   18.8400   44.6535 H   0  0  0  0  0  0  0  0  0  0  0  0
  182.3827   21.3864   47.9690 H   0  0  0  0  0  0  0  0  0  0  0  0
  181.6054   22.5186   46.8118 H   0  0  0  0  0  0  0  0  0  0  0  0
  180.4300   21.9060   48.9560 H   0  0  0  0  0  0  0  0  0  0  0  0
  180.0470   20.4710   48.1590 H   0  0  0  0  0  0  0  0  0  0  0  0
  179.6554   22.4325   46.4336 H   0  0  0  0  0  0  0  0  0  0  0  0
  178.5863   23.0615   49.2504 H   0  0  0  0  0  0  0  0  0  0  0  0
  179.0796   24.2188   48.0007 H   0  0  0  0  0  0  0  0  0  0  0  0
  176.4282   23.7473   48.5058 H   0  0  0  0  0  0  0  0  0  0  0  0
  176.9176   24.0620   46.8689 H   0  0  0  0  0  0  0  0  0  0  0  0
  174.6264   21.9050   47.3758 H   0  0  0  0  0  0  0  0  0  0  0  0
  174.5468   19.4724   46.7834 H   0  0  0  0  0  0  0  0  0  0  0  0
  176.6565   18.1849   46.4526 H   0  0  0  0  0  0  0  0  0  0  0  0
  178.8787   19.3101   46.7007 H   0  0  0  0  0  0  0  0  0  0  0  0
  1  2  3  0
  2  3  1  0
  3  4  1  0
  4  5  1  0
  5  6  1  0
  6  7  1  0
  7  8  1  0
  8  9  2  0
  9 10  1  0
 10 11  2  0
 11 12  1  0
 12 13  2  0
 13  5  1  0
 13  8  1  0
  1 14  1  0
  3 15  1  0
  3 16  1  0
  4 17  1  0
  4 18  1  0
  5 19  1  6
  6 20  1  0
  6 21  1  0
  7 22  1  0
  7 23  1  0
  9 24  1  0
 10 25  1  0
 11 26  1  0
 12 27  1  0
M  CHG  1   4   1
M  END
>  <meeko>  (3) 
{"is_sidechain": [false], "free_energy": -6.05, "intermolecular_energy": -6.736, "internal_energy": -0.434}

$$$$
rasagiline_out
     RDKit          3D

 27 28  0  0  0  0  0  0  0  0999 V2000
  175.4850   23.7650   49.2120 C   0  0  0  0  0  0  0  0  0  0  0  0
  176.6730   23.7550   49.0360 C   0  0  0  0  0  0  0  0  0  0  0  0
  178.1250   23.7420   48.8200 C   0  0  0  0  0  0  0  0  0  0  0  0
  178.6010   22.3650   48.8090 N   0  0  0  0  0  0  0  0  0  0  0  0
  178.3300   21.6930   47.5440 C   0  0  2  0  0  0  0  0  0  0  0  0
  177.4030   20.4620   47.6660 C   0  0  0  0  0  0  0  0  0  0  0  0
  177.7710   19.5290   46.5030 C   0  0  0  0  0  0  0  0  0  0  0  0
  179.2310   19.8220   46.3540 C   0  0  0  0  0  0  0  0  0  0  0  0
  180.1880   19.0680   45.6960 C   0  0  0  0  0  0  0  0  0  0  0  0
  181.4970   19.5540   45.6500 C   0  0  0  0  0  0  0  0  0  0  0  0
  181.8270   20.7820   46.2440 C   0  0  0  0  0  0  0  0  0  0  0  0
  180.8510   21.5420   46.8930 C   0  0  0  0  0  0  0  0  0  0  0  0
  179.5560   21.0480   46.9510 C   0  0  0  0  0  0  0  0  0  0  0  0
  174.3969   23.7742   49.3732 H   0  0  0  0  0  0  0  0  0  0  0  0
  178.3567   24.2180   47.8558 H   0  0  0  0  0  0  0  0  0  0  0  0
  178.6217   24.2957   49.6304 H   0  0  0  0  0  0  0  0  0  0  0  0
  178.1350   21.8530   49.5580 H   0  0  0  0  0  0  0  0  0  0  0  0
  179.6120   22.3830   48.9420 H   0  0  0  0  0  0  0  0  0  0  0  0
  177.9005   22.5131   46.9498 H   0  0  0  0  0  0  0  0  0  0  0  0
  177.5678   19.9548   48.6281 H   0  0  0  0  0  0  0  0  0  0  0  0
  176.3432   20.7537   47.6248 H   0  0  0  0  0  0  0  0  0  0  0  0
  177.5947   18.4740   46.7599 H   0  0  0  0  0  0  0  0  0  0  0  0
  177.1805   19.6887   45.5888 H   0  0  0  0  0  0  0  0  0  0  0  0
  179.9244   18.1111   45.2218 H   0  0  0  0  0  0  0  0  0  0  0  0
  182.2774   18.9678   45.1427 H   0  0  0  0  0  0  0  0  0  0  0  0
  182.8629   21.1491   46.1981 H   0  0  0  0  0  0  0  0  0  0  0  0
  181.1038   22.5110   47.3481 H   0  0  0  0  0  0  0  0  0  0  0  0
  1  2  3  0
  2  3  1  0
  3  4  1  0
  4  5  1  0
  5  6  1  0
  6  7  1  0
  7  8  1  0
  8  9  2  0
  9 10  1  0
 10 11  2  0
 11 12  1  0
 12 13  2  0
 13  5  1  0
 13  8  1  0
  1 14  1  0
  3 15  1  0
  3 16  1  0
  4 17  1  0
  4 18  1  0
  5 19  1  6
  6 20  1  0
  6 21  1  0
  7 22  1  0
  7 23  1  0
  9 24  1  0
 10 25  1  0
 11 26  1  0
 12 27  1  0
M  CHG  1   4   1
M  END
>  <meeko>  (4) 
{"is_sidechain": [false], "free_energy": -6.002, "intermolecular_energy": -6.829, "internal_energy": -0.287}

$$$$
rasagiline_out
     RDKit          3D

 27 28  0  0  0  0  0  0  0  0999 V2000
  175.5770   20.2380   50.2210 C   0  0  0  0  0  0  0  0  0  0  0  0
  175.6300   19.6170   49.1940 C   0  0  0  0  0  0  0  0  0  0  0  0
  175.6970   18.8590   47.9380 C   0  0  0  0  0  0  0  0  0  0  0  0
  175.4720   19.7600   46.8160 N   0  0  0  0  0  0  0  0  0  0  0  0
  176.7140   20.1570   46.1640 C   0  0  2  0  0  0  0  0  0  0  0  0
  177.8770   19.1560   46.3540 C   0  0  0  0  0  0  0  0  0  0  0  0
  179.1710   19.9770   46.2520 C   0  0  0  0  0  0  0  0  0  0  0  0
  178.7200   21.2900   46.8120 C   0  0  0  0  0  0  0  0  0  0  0  0
  179.5050   22.3290   47.2820 C   0  0  0  0  0  0  0  0  0  0  0  0
  178.8680   23.4890   47.7290 C   0  0  0  0  0  0  0  0  0  0  0  0
  177.4690   23.5990   47.6880 C   0  0  0  0  0  0  0  0  0  0  0  0
  176.6880   22.5510   47.1990 C   0  0  0  0  0  0  0  0  0  0  0  0
  177.3230   21.3940   46.7710 C   0  0  0  0  0  0  0  0  0  0  0  0
  175.5285   20.8066   51.1614 H   0  0  0  0  0  0  0  0  0  0  0  0
  176.6895   18.3946   47.8423 H   0  0  0  0  0  0  0  0  0  0  0  0
  174.9249   18.0755   47.9403 H   0  0  0  0  0  0  0  0  0  0  0  0
  175.0010   20.5970   47.1580 H   0  0  0  0  0  0  0  0  0  0  0  0
  174.9040   19.2650   46.1290 H   0  0  0  0  0  0  0  0  0  0  0  0
  176.3870   20.2629   45.1191 H   0  0  0  0  0  0  0  0  0  0  0  0
  177.8080   18.6743   47.3405 H   0  0  0  0  0  0  0  0  0  0  0  0
  177.8474   18.3592   45.5963 H   0  0  0  0  0  0  0  0  0  0  0  0
  179.9780   19.5360   46.8556 H   0  0  0  0  0  0  0  0  0  0  0  0
  179.5917   20.0368   45.2374 H   0  0  0  0  0  0  0  0  0  0  0  0
  180.6015   22.2433   47.3029 H   0  0  0  0  0  0  0  0  0  0  0  0
  179.4686   24.3248   48.1171 H   0  0  0  0  0  0  0  0  0  0  0  0
  176.9840   24.5197   48.0446 H   0  0  0  0  0  0  0  0  0  0  0  0
  175.5926   22.6403   47.1538 H   0  0  0  0  0  0  0  0  0  0  0  0
  1  2  3  0
  2  3  1  0
  3  4  1  0
  4  5  1  0
  5  6  1  0
  6  7  1  0
  7  8  1  0
  8  9  2  0
  9 10  1  0
 10 11  2  0
 11 12  1  0
 12 13  2  0
 13  5  1  0
 13  8  1  0
  1 14  1  0
  3 15  1  0
  3 16  1  0
  4 17  1  0
  4 18  1  0
  5 19  1  6
  6 20  1  0
  6 21  1  0
  7 22  1  0
  7 23  1  0
  9 24  1  0
 10 25  1  0
 11 26  1  0
 12 27  1  0
M  CHG  1   4   1
M  END
>  <meeko>  (5) 
{"is_sidechain": [false], "free_energy": -6.0, "intermolecular_energy": -6.587, "internal_energy": -0.527}

$$$$
rasagiline_out
     RDKit          3D

 27 28  0  0  0  0  0  0  0  0999 V2000
  182.6230   21.5210   46.1930 C   0  0  0  0  0  0  0  0  0  0  0  0
  181.8140   20.7070   45.8390 C   0  0  0  0  0  0  0  0  0  0  0  0
  180.8250   19.7120   45.4040 C   0  0  0  0  0  0  0  0  0  0  0  0
  179.5100   20.3350   45.3370 N   0  0  0  0  0  0  0  0  0  0  0  0
  178.7640   20.1950   46.5820 C   0  0  2  0  0  0  0  0  0  0  0  0
  177.4360   19.4170   46.4410 C   0  0  0  0  0  0  0  0  0  0  0  0
  176.5130   19.9380   47.5520 C   0  0  0  0  0  0  0  0  0  0  0  0
  176.9730   21.3570   47.6630 C   0  0  0  0  0  0  0  0  0  0  0  0
  176.3160   22.4220   48.2560 C   0  0  0  0  0  0  0  0  0  0  0  0
  176.9540   23.6640   48.2790 C   0  0  0  0  0  0  0  0  0  0  0  0
  178.2330   23.8220   47.7240 C   0  0  0  0  0  0  0  0  0  0  0  0
  178.8930   22.7390   47.1400 C   0  0  0  0  0  0  0  0  0  0  0  0
  178.2500   21.5110   47.1060 C   0  0  0  0  0  0  0  0  0  0  0  0
  183.3640   22.2665   46.5172 H   0  0  0  0  0  0  0  0  0  0  0  0
  181.1013   19.3300   44.4102 H   0  0  0  0  0  0  0  0  0  0  0  0
  180.8011   18.8791   46.1221 H   0  0  0  0  0  0  0  0  0  0  0  0
  178.9780   19.8950   44.5860 H   0  0  0  0  0  0  0  0  0  0  0  0
  179.6460   21.3310   45.1660 H   0  0  0  0  0  0  0  0  0  0  0  0
  179.5040   19.6944   47.2237 H   0  0  0  0  0  0  0  0  0  0  0  0
  176.9877   19.6040   45.4541 H   0  0  0  0  0  0  0  0  0  0  0  0
  177.5961   18.3323   46.5293 H   0  0  0  0  0  0  0  0  0  0  0  0
  175.4544   19.8782   47.2589 H   0  0  0  0  0  0  0  0  0  0  0  0
  176.5681   19.3686   48.4915 H   0  0  0  0  0  0  0  0  0  0  0  0
  175.3169   22.2930   48.6977 H   0  0  0  0  0  0  0  0  0  0  0  0
  176.4488   24.5272   48.7368 H   0  0  0  0  0  0  0  0  0  0  0  0
  178.7201   24.8080   47.7492 H   0  0  0  0  0  0  0  0  0  0  0  0
  179.9011   22.8574   46.7161 H   0  0  0  0  0  0  0  0  0  0  0  0
  1  2  3  0
  2  3  1  0
  3  4  1  0
  4  5  1  0
  5  6  1  0
  6  7  1  0
  7  8  1  0
  8  9  2  0
  9 10  1  0
 10 11  2  0
 11 12  1  0
 12 13  2  0
 13  5  1  0
 13  8  1  0
  1 14  1  0
  3 15  1  0
  3 16  1  0
  4 17  1  0
  4 18  1  0
  5 19  1  1
  6 20  1  0
  6 21  1  0
  7 22  1  0
  7 23  1  0
  9 24  1  0
 10 25  1  0
 11 26  1  0
 12 27  1  0
M  CHG  1   4   1
M  END
>  <meeko>  (6) 
{"is_sidechain": [false], "free_energy": -5.978, "intermolecular_energy": -6.686, "internal_energy": -0.404}

$$$$
rasagiline_out
     RDKit          3D

 27 28  0  0  0  0  0  0  0  0999 V2000
  180.7920   17.9130   44.5940 C   0  0  0  0  0  0  0  0  0  0  0  0
  180.9150   18.9830   45.1270 C   0  0  0  0  0  0  0  0  0  0  0  0
  181.0670   20.2890   45.7800 C   0  0  0  0  0  0  0  0  0  0  0  0
  180.1030   20.4030   46.8660 N   0  0  0  0  0  0  0  0  0  0  0  0
  178.9790   21.2670   46.5230 C   0  0  2  0  0  0  0  0  0  0  0  0
  178.8190   22.4940   47.4490 C   0  0  0  0  0  0  0  0  0  0  0  0
  177.3270   22.8590   47.4260 C   0  0  0  0  0  0  0  0  0  0  0  0
  176.7080   21.5100   47.2350 C   0  0  0  0  0  0  0  0  0  0  0  0
  175.3920   21.1390   47.4590 C   0  0  0  0  0  0  0  0  0  0  0  0
  175.0200   19.8220   47.1760 C   0  0  0  0  0  0  0  0  0  0  0  0
  175.9540   18.9060   46.6680 C   0  0  0  0  0  0  0  0  0  0  0  0
  177.2740   19.2950   46.4340 C   0  0  0  0  0  0  0  0  0  0  0  0
  177.6450   20.5980   46.7300 C   0  0  0  0  0  0  0  0  0  0  0  0
  180.6794   16.9336   44.1061 H   0  0  0  0  0  0  0  0  0  0  0  0
  182.0863   20.3811   46.1831 H   0  0  0  0  0  0  0  0  0  0  0  0
  180.8896   21.0891   45.0463 H   0  0  0  0  0  0  0  0  0  0  0  0
  180.5750   20.7880   47.6830 H   0  0  0  0  0  0  0  0  0  0  0  0
  179.7330   19.4700   47.0520 H   0  0  0  0  0  0  0  0  0  0  0  0
  179.2133   21.5272   45.4802 H   0  0  0  0  0  0  0  0  0  0  0  0
  179.1340   22.2425   48.4725 H   0  0  0  0  0  0  0  0  0  0  0  0
  179.4419   23.3349   47.1101 H   0  0  0  0  0  0  0  0  0  0  0  0
  177.0088   23.3194   48.3730 H   0  0  0  0  0  0  0  0  0  0  0  0
  177.0519   23.5977   46.6588 H   0  0  0  0  0  0  0  0  0  0  0  0
  174.6599   21.8615   47.8490 H   0  0  0  0  0  0  0  0  0  0  0  0
  173.9834   19.4997   47.3534 H   0  0  0  0  0  0  0  0  0  0  0  0
  175.6433   17.8730   46.4525 H   0  0  0  0  0  0  0  0  0  0  0  0
  178.0048   18.5827   46.0233 H   0  0  0  0  0  0  0  0  0  0  0  0
  1  2  3  0
  2  3  1  0
  3  4  1  0
  4  5  1  0
  5  6  1  0
  6  7  1  0
  7  8  1  0
  8  9  2  0
  9 10  1  0
 10 11  2  0
 11 12  1  0
 12 13  2  0
 13  5  1  0
 13  8  1  0
  1 14  1  0
  3 15  1  0
  3 16  1  0
  4 17  1  0
  4 18  1  0
  5 19  1  6
  6 20  1  0
  6 21  1  0
  7 22  1  0
  7 23  1  0
  9 24  1  0
 10 25  1  0
 11 26  1  0
 12 27  1  0
M  CHG  1   4   1
M  END
>  <meeko>  (7) 
{"is_sidechain": [false], "free_energy": -5.973, "intermolecular_energy": -6.726, "internal_energy": -0.357}

$$$$
rasagiline_out
     RDKit          3D

 27 28  0  0  0  0  0  0  0  0999 V2000
  175.9280   18.1480   46.2200 C   0  0  0  0  0  0  0  0  0  0  0  0
  175.4650   18.9480   46.9870 C   0  0  0  0  0  0  0  0  0  0  0  0
  174.8990   19.9270   47.9230 C   0  0  0  0  0  0  0  0  0  0  0  0
  175.6570   19.9010   49.1670 N   0  0  0  0  0  0  0  0  0  0  0  0
  176.2070   21.2070   49.5110 C   0  0  2  0  0  0  0  0  0  0  0  0
  175.2450   22.3880   49.2500 C   0  0  0  0  0  0  0  0  0  0  0  0
  176.1310   23.6150   48.9880 C   0  0  0  0  0  0  0  0  0  0  0  0
  177.3200   22.9750   48.3430 C   0  0  0  0  0  0  0  0  0  0  0  0
  178.3100   23.5830   47.5910 C   0  0  0  0  0  0  0  0  0  0  0  0
  179.3570   22.7920   47.1120 C   0  0  0  0  0  0  0  0  0  0  0  0
  179.4070   21.4180   47.3990 C   0  0  0  0  0  0  0  0  0  0  0  0
  178.4100   20.8180   48.1700 C   0  0  0  0  0  0  0  0  0  0  0  0
  177.3640   21.6030   48.6310 C   0  0  0  0  0  0  0  0  0  0  0  0
  176.3520   17.4153   45.5176 H   0  0  0  0  0  0  0  0  0  0  0  0
  174.9543   20.9325   47.4804 H   0  0  0  0  0  0  0  0  0  0  0  0
  173.8480   19.6749   48.1276 H   0  0  0  0  0  0  0  0  0  0  0  0
  176.4250   19.2380   49.0680 H   0  0  0  0  0  0  0  0  0  0  0  0
  175.0190   19.6250   49.9140 H   0  0  0  0  0  0  0  0  0  0  0  0
  176.4559   21.0658   50.5731 H   0  0  0  0  0  0  0  0  0  0  0  0
  174.6144   22.1792   48.3732 H   0  0  0  0  0  0  0  0  0  0  0  0
  174.5742   22.5543   50.1058 H   0  0  0  0  0  0  0  0  0  0  0  0
  175.6406   24.3305   48.3116 H   0  0  0  0  0  0  0  0  0  0  0  0
  176.3650   24.2058   49.8859 H   0  0  0  0  0  0  0  0  0  0  0  0
  178.2734   24.6612   47.3760 H   0  0  0  0  0  0  0  0  0  0  0  0
  180.1507   23.2501   46.5036 H   0  0  0  0  0  0  0  0  0  0  0  0
  180.2385   20.8099   47.0131 H   0  0  0  0  0  0  0  0  0  0  0  0
  178.4532   19.7447   48.4070 H   0  0  0  0  0  0  0  0  0  0  0  0
  1  2  3  0
  2  3  1  0
  3  4  1  0
  4  5  1  0
  5  6  1  0
  6  7  1  0
  7  8  1  0
  8  9  2  0
  9 10  1  0
 10 11  2  0
 11 12  1  0
 12 13  2  0
 13  5  1  0
 13  8  1  0
  1 14  1  0
  3 15  1  0
  3 16  1  0
  4 17  1  0
  4 18  1  0
  5 19  1  1
  6 20  1  0
  6 21  1  0
  7 22  1  0
  7 23  1  0
  9 24  1  0
 10 25  1  0
 11 26  1  0
 12 27  1  0
M  CHG  1   4   1
M  END
>  <meeko>  (8) 
{"is_sidechain": [false], "free_energy": -5.721, "intermolecular_energy": -6.348, "internal_energy": -0.455}

$$$$
rasagiline_out
     RDKit          3D

 27 28  0  0  0  0  0  0  0  0999 V2000
  181.1870   14.9610   43.5580 C   0  0  0  0  0  0  0  0  0  0  0  0
  181.1630   16.1500   43.7290 C   0  0  0  0  0  0  0  0  0  0  0  0
  181.1350   17.6030   43.9400 C   0  0  0  0  0  0  0  0  0  0  0  0
  180.3880   17.9020   45.1540 N   0  0  0  0  0  0  0  0  0  0  0  0
  180.3420   19.3310   45.4410 C   0  0  2  0  0  0  0  0  0  0  0  0
  181.5270   19.8450   46.2890 C   0  0  0  0  0  0  0  0  0  0  0  0
  181.0100   21.0750   47.0500 C   0  0  0  0  0  0  0  0  0  0  0  0
  179.5720   20.7070   47.2410 C   0  0  0  0  0  0  0  0  0  0  0  0
  178.6640   21.2550   48.1320 C   0  0  0  0  0  0  0  0  0  0  0  0
  177.3500   20.7800   48.1130 C   0  0  0  0  0  0  0  0  0  0  0  0
  176.9610   19.7840   47.2050 C   0  0  0  0  0  0  0  0  0  0  0  0
  177.8810   19.2480   46.3010 C   0  0  0  0  0  0  0  0  0  0  0  0
  179.1880   19.7100   46.3330 C   0  0  0  0  0  0  0  0  0  0  0  0
  181.2090   13.8724   43.4014 H   0  0  0  0  0  0  0  0  0  0  0  0
  182.1638   17.9790   44.0403 H   0  0  0  0  0  0  0  0  0  0  0  0
  180.6495   18.0894   43.0811 H   0  0  0  0  0  0  0  0  0  0  0  0
  180.8330   17.4250   45.9370 H   0  0  0  0  0  0  0  0  0  0  0  0
  179.4290   17.5810   45.0160 H   0  0  0  0  0  0  0  0  0  0  0  0
  180.3069   19.7561   44.4271 H   0  0  0  0  0  0  0  0  0  0  0  0
  181.8541   19.0689   46.9966 H   0  0  0  0  0  0  0  0  0  0  0  0
  182.3906   20.0994   45.6570 H   0  0  0  0  0  0  0  0  0  0  0  0
  181.5264   21.2010   48.0131 H   0  0  0  0  0  0  0  0  0  0  0  0
  181.1688   22.0309   46.5294 H   0  0  0  0  0  0  0  0  0  0  0  0
  178.9692   22.0433   48.8359 H   0  0  0  0  0  0  0  0  0  0  0  0
  176.6126   21.1916   48.8178 H   0  0  0  0  0  0  0  0  0  0  0  0
  175.9223   19.4219   47.2049 H   0  0  0  0  0  0  0  0  0  0  0  0
  177.5753   18.4761   45.5793 H   0  0  0  0  0  0  0  0  0  0  0  0
  1  2  3  0
  2  3  1  0
  3  4  1  0
  4  5  1  0
  5  6  1  0
  6  7  1  0
  7  8  1  0
  8  9  2  0
  9 10  1  0
 10 11  2  0
 11 12  1  0
 12 13  2  0
 13  5  1  0
 13  8  1  0
  1 14  1  0
  3 15  1  0
  3 16  1  0
  4 17  1  0
  4 18  1  0
  5 19  1  6
  6 20  1  0
  6 21  1  0
  7 22  1  0
  7 23  1  0
  9 24  1  0
 10 25  1  0
 11 26  1  0
 12 27  1  0
M  CHG  1   4   1
M  END
>  <meeko>  (9) 
{"is_sidechain": [false], "free_energy": -5.651, "intermolecular_energy": -6.581, "internal_energy": -0.144}

$$$$
