cand_031_out
     RDKit          3D

 36 38  0  0  0  0  0  0  0  0999 V2000
   47.3180  159.6400   30.9370 C   0  0  0  0  0  0  0  0  0  0  0  0
   48.3310  158.8850   31.3800 C   0  0  0  0  0  0  0  0  0  0  0  0
   49.6830  158.9230   30.8020 C   0  0  0  0  0  0  0  0  0  0  0  0
   50.1710  157.8010   30.1080 C   0  0  0  0  0  0  0  0  0  0  0  0
   51.4670  157.7750   29.5690 C   0  0  0  0  0  0  0  0  0  0  0  0
   51.9290  156.5860   28.8220 C   0  0  0  0  0  0  0  0  0  0  0  0
   52.4950  156.9080   27.5940 O   0  0  0  0  0  0  0  0  0  0  0  0
   52.9650  155.8970   26.7940 C   0  0  0  0  0  0  0  0  0  0  0  0
   53.5380  156.2650   25.5760 C   0  0  0  0  0  0  0  0  0  0  0  0
   54.0340  155.2850   24.7150 C   0  0  0  0  0  0  0  0  0  0  0  0
   53.9570  153.9370   25.0700 C   0  0  0  0  0  0  0  0  0  0  0  0
   53.3850  153.5720   26.2860 C   0  0  0  0  0  0  0  0  0  0  0  0
   53.3420  152.2340   26.5700 O   0  0  0  0  0  0  0  0  0  0  0  0
   52.8890  154.5530   27.1480 C   0  0  0  0  0  0  0  0  0  0  0  0
   52.2800  154.2120   28.4340 C   0  0  0  0  0  0  0  0  0  0  0  0
   52.1700  153.0480   28.8150 O   0  0  0  0  0  0  0  0  0  0  0  0
   51.7910  155.3270   29.2770 C   0  0  0  0  0  0  0  0  0  0  0  0
   51.2050  154.9930   30.4840 O   0  0  0  0  0  0  0  0  0  0  0  0
   52.2760  158.9050   29.7300 C   0  0  0  0  0  0  0  0  0  0  0  0
   51.8100  160.0220   30.4250 C   0  0  0  0  0  0  0  0  0  0  0  0
   50.5160  160.0470   30.9670 C   0  0  0  0  0  0  0  0  0  0  0  0
   50.0580  161.2730   31.7100 C   0  0  0  0  0  0  0  0  0  0  0  0
   46.3284  159.5661   31.4116 H   0  0  0  0  0  0  0  0  0  0  0  0
   47.4753  160.3343   30.0984 H   0  0  0  0  0  0  0  0  0  0  0  0
   48.1423  158.2005   32.2201 H   0  0  0  0  0  0  0  0  0  0  0  0
   49.5210  156.9222   29.9846 H   0  0  0  0  0  0  0  0  0  0  0  0
   53.5987  157.3267   25.2947 H   0  0  0  0  0  0  0  0  0  0  0  0
   54.4863  155.5751   23.7552 H   0  0  0  0  0  0  0  0  0  0  0  0
   54.3473  153.1649   24.3906 H   0  0  0  0  0  0  0  0  0  0  0  0
   54.1100  151.7080   26.4690 H   0  0  0  0  0  0  0  0  0  0  0  0
   50.3130  154.7060   30.5080 H   0  0  0  0  0  0  0  0  0  0  0  0
   53.2902  158.9132   29.3043 H   0  0  0  0  0  0  0  0  0  0  0  0
   52.4668  160.8956   30.5497 H   0  0  0  0  0  0  0  0  0  0  0  0
   50.1256  161.0921   32.7929 H   0  0  0  0  0  0  0  0  0  0  0  0
   50.6982  162.1258   31.4401 H   0  0  0  0  0  0  0  0  0  0  0  0
   49.0155  161.4972   31.4401 H   0  0  0  0  0  0  0  0  0  0  0  0
  1  2  2  0
  2  3  1  0
  3  4  2  0
  4  5  1  0
  5  6  1  0
  6  7  1  0
  7  8  1  0
  8  9  2  0
  9 10  1  0
 10 11  2  0
 11 12  1  0
 12 13  1  0
 12 14  2  0
 14 15  1  0
 15 16  2  0
 15 17  1  0
 17 18  1  0
  5 19  2  0
 19 20  1  0
 20 21  2  0
 21 22  1  0
 21  3  1  0
 17  6  2  0
 14  8  1  0
  1 23  1  0
  1 24  1  0
  2 25  1  0
  4 26  1  0
  9 27  1  0
 10 28  1  0
 11 29  1  0
 13 30  1  0
 18 31  1  0
 19 32  1  0
 20 33  1  0
 22 34  1  0
 22 35  1  0
 22 36  1  0
M  END
>  <meeko>  (1) 
{"is_sidechain": [false], "free_energy": -10.758, "intermolecular_energy": -12.644, "internal_energy": 0.079}

$$$$
cand_031_out
     RDKit          3D

 36 38  0  0  0  0  0  0  0  0999 V2000
   53.9930  156.4140   25.0350 C   0  0  0  0  0  0  0  0  0  0  0  0
   53.4210  155.2830   25.4650 C   0  0  0  0  0  0  0  0  0  0  0  0
   52.7600  155.1560   26.7730 C   0  0  0  0  0  0  0  0  0  0  0  0
   52.4080  156.3170   27.4860 C   0  0  0  0  0  0  0  0  0  0  0  0
   51.8080  156.2480   28.7530 C   0  0  0  0  0  0  0  0  0  0  0  0
   51.4270  157.4930   29.4540 C   0  0  0  0  0  0  0  0  0  0  0  0
   50.0980  157.4990   29.8600 O   0  0  0  0  0  0  0  0  0  0  0  0
   49.6100  158.5960   30.5220 C   0  0  0  0  0  0  0  0  0  0  0  0
   48.2750  158.5550   30.9230 C   0  0  0  0  0  0  0  0  0  0  0  0
   47.7160  159.6400   31.6010 C   0  0  0  0  0  0  0  0  0  0  0  0
   48.4930  160.7670   31.8770 C   0  0  0  0  0  0  0  0  0  0  0  0
   49.8250  160.8070   31.4760 C   0  0  0  0  0  0  0  0  0  0  0  0
   50.5270  161.9410   31.7790 O   0  0  0  0  0  0  0  0  0  0  0  0
   50.3840  159.7200   30.7980 C   0  0  0  0  0  0  0  0  0  0  0  0
   51.7800  159.7210   30.3600 C   0  0  0  0  0  0  0  0  0  0  0  0
   52.5250  160.6780   30.5600 O   0  0  0  0  0  0  0  0  0  0  0  0
   52.2770  158.5170   29.6550 C   0  0  0  0  0  0  0  0  0  0  0  0
   53.5940  158.5340   29.2330 O   0  0  0  0  0  0  0  0  0  0  0  0
   51.5540  154.9870   29.3010 C   0  0  0  0  0  0  0  0  0  0  0  0
   51.9060  153.8260   28.6100 C   0  0  0  0  0  0  0  0  0  0  0  0
   52.5100  153.8940   27.3450 C   0  0  0  0  0  0  0  0  0  0  0  0
   52.8740  152.6150   26.6390 C   0  0  0  0  0  0  0  0  0  0  0  0
   54.4723  156.4462   24.0454 H   0  0  0  0  0  0  0  0  0  0  0  0
   53.9838  157.3113   25.6712 H   0  0  0  0  0  0  0  0  0  0  0  0
   53.4465  154.4026   24.8060 H   0  0  0  0  0  0  0  0  0  0  0  0
   52.6079  157.3023   27.0397 H   0  0  0  0  0  0  0  0  0  0  0  0
   47.6623  157.6678   30.7051 H   0  0  0  0  0  0  0  0  0  0  0  0
   46.6631  159.6070   31.9179 H   0  0  0  0  0  0  0  0  0  0  0  0
   48.0527  161.6221   32.4108 H   0  0  0  0  0  0  0  0  0  0  0  0
   50.0750  162.7490   31.9230 H   0  0  0  0  0  0  0  0  0  0  0  0
   54.2870  158.4500   29.8570 H   0  0  0  0  0  0  0  0  0  0  0  0
   51.0719  154.9088   30.2866 H   0  0  0  0  0  0  0  0  0  0  0  0
   51.7071  152.8438   29.0636 H   0  0  0  0  0  0  0  0  0  0  0  0
   53.0958  151.8358   27.3831 H   0  0  0  0  0  0  0  0  0  0  0  0
   52.0322  152.2915   26.0091 H   0  0  0  0  0  0  0  0  0  0  0  0
   53.7599  152.7832   26.0091 H   0  0  0  0  0  0  0  0  0  0  0  0
  1  2  2  0
  2  3  1  0
  3  4  2  0
  4  5  1  0
  5  6  1  0
  6  7  1  0
  7  8  1  0
  8  9  2  0
  9 10  1  0
 10 11  2  0
 11 12  1  0
 12 13  1  0
 12 14  2  0
 14 15  1  0
 15 16  2  0
 15 17  1  0
 17 18  1  0
  5 19  2  0
 19 20  1  0
 20 21  2  0
 21 22  1  0
 21  3  1  0
 17  6  2  0
 14  8  1  0
  1 23  1  0
  1 24  1  0
  2 25  1  0
  4 26  1  0
  9 27  1  0
 10 28  1  0
 11 29  1  0
 13 30  1  0
 18 31  1  0
 19 32  1  0
 20 33  1  0
 22 34  1  0
 22 35  1  0
 22 36  1  0
M  END
>  <meeko>  (2) 
{"is_sidechain": [false], "free_energy": -10.471, "intermolecular_energy": -12.017, "internal_energy": -0.211}

$$$$
cand_031_out
     RDKit          3D

 36 38  0  0  0  0  0  0  0  0999 V2000
   52.7540  161.4190   31.5350 C   0  0  0  0  0  0  0  0  0  0  0  0
   51.9930  161.1000   30.4810 C   0  0  0  0  0  0  0  0  0  0  0  0
   51.2340  159.8430   30.3800 C   0  0  0  0  0  0  0  0  0  0  0  0
   51.7870  158.7560   29.6800 C   0  0  0  0  0  0  0  0  0  0  0  0
   51.0880  157.5480   29.5260 C   0  0  0  0  0  0  0  0  0  0  0  0
   51.7190  156.4200   28.8070 C   0  0  0  0  0  0  0  0  0  0  0  0
   52.2630  156.7980   27.5850 O   0  0  0  0  0  0  0  0  0  0  0  0
   52.8800  155.8480   26.8110 C   0  0  0  0  0  0  0  0  0  0  0  0
   53.4240  156.2720   25.5980 C   0  0  0  0  0  0  0  0  0  0  0  0
   54.0650  155.3550   24.7630 C   0  0  0  0  0  0  0  0  0  0  0  0
   54.1600  154.0130   25.1390 C   0  0  0  0  0  0  0  0  0  0  0  0
   53.6160  153.5920   26.3500 C   0  0  0  0  0  0  0  0  0  0  0  0
   53.7450  152.2650   26.6560 O   0  0  0  0  0  0  0  0  0  0  0  0
   52.9760  154.5110   27.1860 C   0  0  0  0  0  0  0  0  0  0  0  0
   52.3910  154.1090   28.4660 C   0  0  0  0  0  0  0  0  0  0  0  0
   52.4280  152.9470   28.8640 O   0  0  0  0  0  0  0  0  0  0  0  0
   51.7410  155.1610   29.2810 C   0  0  0  0  0  0  0  0  0  0  0  0
   51.1780  154.7690   30.4820 O   0  0  0  0  0  0  0  0  0  0  0  0
   49.8150  157.4390   30.0950 C   0  0  0  0  0  0  0  0  0  0  0  0
   49.2490  158.5140   30.7840 C   0  0  0  0  0  0  0  0  0  0  0  0
   49.9460  159.7220   30.9360 C   0  0  0  0  0  0  0  0  0  0  0  0
   49.2930  160.8530   31.6850 C   0  0  0  0  0  0  0  0  0  0  0  0
   53.2979  162.3750   31.5515 H   0  0  0  0  0  0  0  0  0  0  0  0
   52.8355  160.7252   32.3847 H   0  0  0  0  0  0  0  0  0  0  0  0
   51.9317  161.8145   29.6469 H   0  0  0  0  0  0  0  0  0  0  0  0
   52.7914  158.8544   29.2425 H   0  0  0  0  0  0  0  0  0  0  0  0
   53.3478  157.3281   25.2999 H   0  0  0  0  0  0  0  0  0  0  0  0
   54.4958  155.6896   23.8078 H   0  0  0  0  0  0  0  0  0  0  0  0
   54.6634  153.2903   24.4800 H   0  0  0  0  0  0  0  0  0  0  0  0
   53.0160  151.6860   26.5530 H   0  0  0  0  0  0  0  0  0  0  0  0
   51.4920  155.1340   31.2870 H   0  0  0  0  0  0  0  0  0  0  0  0
   49.2542  156.4976   29.9989 H   0  0  0  0  0  0  0  0  0  0  0  0
   48.2416  158.4120   31.2139 H   0  0  0  0  0  0  0  0  0  0  0  0
   49.3919  160.6816   32.7671 H   0  0  0  0  0  0  0  0  0  0  0  0
   49.7828  161.8009   31.4176 H   0  0  0  0  0  0  0  0  0  0  0  0
   48.2272  160.9028   31.4176 H   0  0  0  0  0  0  0  0  0  0  0  0
  1  2  2  0
  2  3  1  0
  3  4  2  0
  4  5  1  0
  5  6  1  0
  6  7  1  0
  7  8  1  0
  8  9  2  0
  9 10  1  0
 10 11  2  0
 11 12  1  0
 12 13  1  0
 12 14  2  0
 14 15  1  0
 15 16  2  0
 15 17  1  0
 17 18  1  0
  5 19  2  0
 19 20  1  0
 20 21  2  0
 21 22  1  0
 21  3  1  0
 17  6  2  0
 14  8  1  0
  1 23  1  0
  1 24  1  0
  2 25  1  0
  4 26  1  0
  9 27  1  0
 10 28  1  0
 11 29  1  0
 13 30  1  0
 18 31  1  0
 19 32  1  0
 20 33  1  0
 22 34  1  0
 22 35  1  0
 22 36  1  0
M  END
>  <meeko>  (3) 
{"is_sidechain": [false], "free_energy": -10.45, "intermolecular_energy": -12.093, "internal_energy": -0.111}

$$$$
cand_031_out
     RDKit          3D

 36 38  0  0  0  0  0  0  0  0999 V2000
   54.1730  156.6700   25.1850 C   0  0  0  0  0  0  0  0  0  0  0  0
   53.5360  155.5280   25.4720 C   0  0  0  0  0  0  0  0  0  0  0  0
   52.9040  155.2580   26.7720 C   0  0  0  0  0  0  0  0  0  0  0  0
   52.3130  156.3160   27.4880 C   0  0  0  0  0  0  0  0  0  0  0  0
   51.7280  156.1160   28.7480 C   0  0  0  0  0  0  0  0  0  0  0  0
   51.0930  157.2510   29.4510 C   0  0  0  0  0  0  0  0  0  0  0  0
   51.9830  158.2830   29.7240 O   0  0  0  0  0  0  0  0  0  0  0  0
   51.5260  159.4000   30.3760 C   0  0  0  0  0  0  0  0  0  0  0  0
   52.4500  160.4170   30.6180 C   0  0  0  0  0  0  0  0  0  0  0  0
   52.0490  161.5800   31.2780 C   0  0  0  0  0  0  0  0  0  0  0  0
   50.7250  161.7260   31.6980 C   0  0  0  0  0  0  0  0  0  0  0  0
   49.8050  160.7090   31.4560 C   0  0  0  0  0  0  0  0  0  0  0  0
   48.5260  160.9180   31.8940 O   0  0  0  0  0  0  0  0  0  0  0  0
   50.2060  159.5460   30.7940 C   0  0  0  0  0  0  0  0  0  0  0  0
   49.2710  158.4540   30.5200 C   0  0  0  0  0  0  0  0  0  0  0  0
   48.0910  158.5050   30.8640 O   0  0  0  0  0  0  0  0  0  0  0  0
   49.7950  157.2670   29.8060 C   0  0  0  0  0  0  0  0  0  0  0  0
   48.9060  156.2350   29.5650 O   0  0  0  0  0  0  0  0  0  0  0  0
   51.7360  154.8260   29.2870 C   0  0  0  0  0  0  0  0  0  0  0  0
   52.3280  153.7680   28.5940 C   0  0  0  0  0  0  0  0  0  0  0  0
   52.9150  153.9680   27.3360 C   0  0  0  0  0  0  0  0  0  0  0  0
   53.5430  152.7970   26.6280 C   0  0  0  0  0  0  0  0  0  0  0  0
   54.6262  156.8127   24.1929 H   0  0  0  0  0  0  0  0  0  0  0  0
   54.2432  157.4657   25.9413 H   0  0  0  0  0  0  0  0  0  0  0  0
   53.4826  154.7513   24.6949 H   0  0  0  0  0  0  0  0  0  0  0  0
   52.3096  157.3246   27.0491 H   0  0  0  0  0  0  0  0  0  0  0  0
   53.4934  160.3026   30.2891 H   0  0  0  0  0  0  0  0  0  0  0  0
   52.7769  162.3826   31.4675 H   0  0  0  0  0  0  0  0  0  0  0  0
   50.4097  162.6422   32.2187 H   0  0  0  0  0  0  0  0  0  0  0  0
   47.8640  160.2740   31.7350 H   0  0  0  0  0  0  0  0  0  0  0  0
   48.1270  156.3940   29.0700 H   0  0  0  0  0  0  0  0  0  0  0  0
   51.2712  154.6426   30.2670 H   0  0  0  0  0  0  0  0  0  0  0  0
   52.3340  152.7631   29.0413 H   0  0  0  0  0  0  0  0  0  0  0  0
   53.9264  152.0820   27.3709 H   0  0  0  0  0  0  0  0  0  0  0  0
   52.7892  152.3022   25.9979 H   0  0  0  0  0  0  0  0  0  0  0  0
   54.3722  153.1512   25.9979 H   0  0  0  0  0  0  0  0  0  0  0  0
  1  2  2  0
  2  3  1  0
  3  4  2  0
  4  5  1  0
  5  6  1  0
  6  7  1  0
  7  8  1  0
  8  9  2  0
  9 10  1  0
 10 11  2  0
 11 12  1  0
 12 13  1  0
 12 14  2  0
 14 15  1  0
 15 16  2  0
 15 17  1  0
 17 18  1  0
  5 19  2  0
 19 20  1  0
 20 21  2  0
 21 22  1  0
 21  3  1  0
 17  6  2  0
 14  8  1  0
  1 23  1  0
  1 24  1  0
  2 25  1  0
  4 26  1  0
  9 27  1  0
 10 28  1  0
 11 29  1  0
 13 30  1  0
 18 31  1  0
 19 32  1  0
 20 33  1  0
 22 34  1  0
 22 35  1  0
 22 36  1  0
M  END
>  <meeko>  (4) 
{"is_sidechain": [false], "free_energy": -9.24, "intermolecular_energy": -10.463, "internal_energy": -0.319}

$$$$
cand_031_out
     RDKit          3D

 36 38  0  0  0  0  0  0  0  0999 V2000
   51.0980  161.0970   30.1920 C   0  0  0  0  0  0  0  0  0  0  0  0
   51.5970  159.9210   30.5910 C   0  0  0  0  0  0  0  0  0  0  0  0
   51.0330  158.6230   30.1880 C   0  0  0  0  0  0  0  0  0  0  0  0
   51.7650  157.7890   29.3240 C   0  0  0  0  0  0  0  0  0  0  0  0
   51.2560  156.5570   28.8830 C   0  0  0  0  0  0  0  0  0  0  0  0
   52.0730  155.6990   27.9980 C   0  0  0  0  0  0  0  0  0  0  0  0
   52.6620  156.4050   26.9560 O   0  0  0  0  0  0  0  0  0  0  0  0
   53.4470  155.7300   26.0570 C   0  0  0  0  0  0  0  0  0  0  0  0
   54.0300  156.4790   25.0340 C   0  0  0  0  0  0  0  0  0  0  0  0
   54.8390  155.8520   24.0850 C   0  0  0  0  0  0  0  0  0  0  0  0
   55.0650  154.4770   24.1570 C   0  0  0  0  0  0  0  0  0  0  0  0
   54.4820  153.7300   25.1780 C   0  0  0  0  0  0  0  0  0  0  0  0
   54.7460  152.3880   25.1890 O   0  0  0  0  0  0  0  0  0  0  0  0
   53.6730  154.3580   26.1280 C   0  0  0  0  0  0  0  0  0  0  0  0
   53.0420  153.6110   27.2170 C   0  0  0  0  0  0  0  0  0  0  0  0
   53.1870  152.3970   27.3440 O   0  0  0  0  0  0  0  0  0  0  0  0
   52.2080  154.3720   28.1760 C   0  0  0  0  0  0  0  0  0  0  0  0
   51.6050  153.6540   29.1920 O   0  0  0  0  0  0  0  0  0  0  0  0
   49.9910  156.1630   29.3310 C   0  0  0  0  0  0  0  0  0  0  0  0
   49.2480  156.9850   30.1800 C   0  0  0  0  0  0  0  0  0  0  0  0
   49.7550  158.2170   30.6180 C   0  0  0  0  0  0  0  0  0  0  0  0
   48.9160  159.0700   31.5320 C   0  0  0  0  0  0  0  0  0  0  0  0
   51.5645  162.0348   30.5278 H   0  0  0  0  0  0  0  0  0  0  0  0
   50.2213  161.1257   29.5282 H   0  0  0  0  0  0  0  0  0  0  0  0
   52.4743  159.9250   31.2546 H   0  0  0  0  0  0  0  0  0  0  0  0
   52.7611  158.1099   28.9853 H   0  0  0  0  0  0  0  0  0  0  0  0
   53.8521  157.5629   24.9756 H   0  0  0  0  0  0  0  0  0  0  0  0
   55.2991  156.4427   23.2792 H   0  0  0  0  0  0  0  0  0  0  0  0
   55.7026  153.9837   23.4086 H   0  0  0  0  0  0  0  0  0  0  0  0
   55.5280  152.0660   25.5910 H   0  0  0  0  0  0  0  0  0  0  0  0
   51.6360  153.9730   30.0730 H   0  0  0  0  0  0  0  0  0  0  0  0
   49.5773  155.1953   29.0110 H   0  0  0  0  0  0  0  0  0  0  0  0
   48.2499  156.6616   30.5104 H   0  0  0  0  0  0  0  0  0  0  0  0
   49.1532  158.8289   32.5787 H   0  0  0  0  0  0  0  0  0  0  0  0
   49.1313  160.1320   31.3425 H   0  0  0  0  0  0  0  0  0  0  0  0
   47.8506  158.8724   31.3425 H   0  0  0  0  0  0  0  0  0  0  0  0
  1  2  2  0
  2  3  1  0
  3  4  2  0
  4  5  1  0
  5  6  1  0
  6  7  1  0
  7  8  1  0
  8  9  2  0
  9 10  1  0
 10 11  2  0
 11 12  1  0
 12 13  1  0
 12 14  2  0
 14 15  1  0
 15 16  2  0
 15 17  1  0
 17 18  1  0
  5 19  2  0
 19 20  1  0
 20 21  2  0
 21 22  1  0
 21  3  1  0
 17  6  2  0
 14  8  1  0
  1 23  1  0
  1 24  1  0
  2 25  1  0
  4 26  1  0
  9 27  1  0
 10 28  1  0
 11 29  1  0
 13 30  1  0
 18 31  1  0
 19 32  1  0
 20 33  1  0
 22 34  1  0
 22 35  1  0
 22 36  1  0
M  END
>  <meeko>  (5) 
{"is_sidechain": [false], "free_energy": -9.224, "intermolecular_energy": -10.87, "internal_energy": 0.107}

$$$$
cand_031_out
     RDKit          3D

 36 38  0  0  0  0  0  0  0  0999 V2000
   51.5900  152.3830   28.0510 C   0  0  0  0  0  0  0  0  0  0  0  0
   52.0100  153.3630   28.8610 C   0  0  0  0  0  0  0  0  0  0  0  0
   52.2270  154.7470   28.4130 C   0  0  0  0  0  0  0  0  0  0  0  0
   51.7480  155.8120   29.1970 C   0  0  0  0  0  0  0  0  0  0  0  0
   51.9000  157.1480   28.7960 C   0  0  0  0  0  0  0  0  0  0  0  0
   51.4060  158.2370   29.6660 C   0  0  0  0  0  0  0  0  0  0  0  0
   50.0660  158.0910   30.0040 O   0  0  0  0  0  0  0  0  0  0  0  0
   49.4780  159.0350   30.8080 C   0  0  0  0  0  0  0  0  0  0  0  0
   48.1350  158.8430   31.1340 C   0  0  0  0  0  0  0  0  0  0  0  0
   47.4760  159.7670   31.9470 C   0  0  0  0  0  0  0  0  0  0  0  0
   48.1590  160.8830   32.4340 C   0  0  0  0  0  0  0  0  0  0  0  0
   49.4990  161.0720   32.1070 C   0  0  0  0  0  0  0  0  0  0  0  0
   50.1070  162.1870   32.6180 O   0  0  0  0  0  0  0  0  0  0  0  0
   50.1580  160.1470   31.2940 C   0  0  0  0  0  0  0  0  0  0  0  0
   51.5660  160.3090   30.9270 C   0  0  0  0  0  0  0  0  0  0  0  0
   52.2330  161.2680   31.3100 O   0  0  0  0  0  0  0  0  0  0  0  0
   52.1730  159.2690   30.0660 C   0  0  0  0  0  0  0  0  0  0  0  0
   53.4990  159.4390   29.7130 O   0  0  0  0  0  0  0  0  0  0  0  0
   52.5530  157.4090   27.5870 C   0  0  0  0  0  0  0  0  0  0  0  0
   53.0250  156.3630   26.7920 C   0  0  0  0  0  0  0  0  0  0  0  0
   52.8700  155.0270   27.1910 C   0  0  0  0  0  0  0  0  0  0  0  0
   53.3940  153.9320   26.3000 C   0  0  0  0  0  0  0  0  0  0  0  0
   51.4462  151.3665   28.4461 H   0  0  0  0  0  0  0  0  0  0  0  0
   51.3887  152.5944   26.9904 H   0  0  0  0  0  0  0  0  0  0  0  0
   52.2028  153.1204   29.9164 H   0  0  0  0  0  0  0  0  0  0  0  0
   51.2415  155.5920   30.1484 H   0  0  0  0  0  0  0  0  0  0  0  0
   47.5958  157.9642   30.7507 H   0  0  0  0  0  0  0  0  0  0  0  0
   46.4173  159.6155   32.2042 H   0  0  0  0  0  0  0  0  0  0  0  0
   47.6397  161.6111   33.0745 H   0  0  0  0  0  0  0  0  0  0  0  0
   50.0140  162.3980   33.5260 H   0  0  0  0  0  0  0  0  0  0  0  0
   53.7860  160.2520   29.3470 H   0  0  0  0  0  0  0  0  0  0  0  0
   52.6961  158.4492   27.2592 H   0  0  0  0  0  0  0  0  0  0  0  0
   53.5256  156.5896   25.8391 H   0  0  0  0  0  0  0  0  0  0  0  0
   53.7865  153.1118   26.9191 H   0  0  0  0  0  0  0  0  0  0  0  0
   52.5790  153.5544   25.6650 H   0  0  0  0  0  0  0  0  0  0  0  0
   54.1993  154.3298   25.6650 H   0  0  0  0  0  0  0  0  0  0  0  0
  1  2  2  0
  2  3  1  0
  3  4  2  0
  4  5  1  0
  5  6  1  0
  6  7  1  0
  7  8  1  0
  8  9  2  0
  9 10  1  0
 10 11  2  0
 11 12  1  0
 12 13  1  0
 12 14  2  0
 14 15  1  0
 15 16  2  0
 15 17  1  0
 17 18  1  0
  5 19  2  0
 19 20  1  0
 20 21  2  0
 21 22  1  0
 21  3  1  0
 17  6  2  0
 14  8  1  0
  1 23  1  0
  1 24  1  0
  2 25  1  0
  4 26  1  0
  9 27  1  0
 10 28  1  0
 11 29  1  0
 13 30  1  0
 18 31  1  0
 19 32  1  0
 20 33  1  0
 22 34  1  0
 22 35  1  0
 22 36  1  0
M  END
>  <meeko>  (6) 
{"is_sidechain": [false], "free_energy": -8.579, "intermolecular_energy": -10.392, "internal_energy": 0.388}

$$$$
cand_031_out
     RDKit          3D

 36 38  0  0  0  0  0  0  0  0999 V2000
   51.1580  160.4080   30.0740 C   0  0  0  0  0  0  0  0  0  0  0  0
   51.8690  159.2740   30.0730 C   0  0  0  0  0  0  0  0  0  0  0  0
   51.3130  157.9690   29.6830 C   0  0  0  0  0  0  0  0  0  0  0  0
   51.9970  157.1780   28.7420 C   0  0  0  0  0  0  0  0  0  0  0  0
   51.4900  155.9430   28.3110 C   0  0  0  0  0  0  0  0  0  0  0  0
   52.2570  155.1300   27.3420 C   0  0  0  0  0  0  0  0  0  0  0  0
   51.9690  153.7730   27.4290 O   0  0  0  0  0  0  0  0  0  0  0  0
   52.6130  152.9030   26.5870 C   0  0  0  0  0  0  0  0  0  0  0  0
   52.2830  151.5520   26.6990 C   0  0  0  0  0  0  0  0  0  0  0  0
   52.9040  150.6130   25.8720 C   0  0  0  0  0  0  0  0  0  0  0  0
   53.8530  151.0240   24.9350 C   0  0  0  0  0  0  0  0  0  0  0  0
   54.1810  152.3730   24.8260 C   0  0  0  0  0  0  0  0  0  0  0  0
   55.1190  152.7060   23.8880 O   0  0  0  0  0  0  0  0  0  0  0  0
   53.5590  153.3120   25.6530 C   0  0  0  0  0  0  0  0  0  0  0  0
   53.8740  154.7390   25.5700 C   0  0  0  0  0  0  0  0  0  0  0  0
   54.7040  155.1790   24.7760 O   0  0  0  0  0  0  0  0  0  0  0  0
   53.1550  155.6530   26.4870 C   0  0  0  0  0  0  0  0  0  0  0  0
   53.4700  156.9980   26.4110 O   0  0  0  0  0  0  0  0  0  0  0  0
   50.2760  155.5000   28.8460 C   0  0  0  0  0  0  0  0  0  0  0  0
   49.5800  156.2780   29.7730 C   0  0  0  0  0  0  0  0  0  0  0  0
   50.0850  157.5140   30.2010 C   0  0  0  0  0  0  0  0  0  0  0  0
   49.2970  158.3190   31.2000 C   0  0  0  0  0  0  0  0  0  0  0  0
   51.6314  161.3537   30.3766 H   0  0  0  0  0  0  0  0  0  0  0  0
   50.1003  160.3943   29.7723 H   0  0  0  0  0  0  0  0  0  0  0  0
   52.9243  159.3202   30.3799 H   0  0  0  0  0  0  0  0  0  0  0  0
   52.9534  157.5369   28.3339 H   0  0  0  0  0  0  0  0  0  0  0  0
   51.5351  151.2269   27.4372 H   0  0  0  0  0  0  0  0  0  0  0  0
   52.6445  149.5476   25.9595 H   0  0  0  0  0  0  0  0  0  0  0  0
   54.3410  150.2838   24.2838 H   0  0  0  0  0  0  0  0  0  0  0  0
   55.6310  152.0370   23.4770 H   0  0  0  0  0  0  0  0  0  0  0  0
   52.8020  157.6250   26.2170 H   0  0  0  0  0  0  0  0  0  0  0  0
   49.8654  154.5286   28.5331 H   0  0  0  0  0  0  0  0  0  0  0  0
   48.6215  155.9161   30.1734 H   0  0  0  0  0  0  0  0  0  0  0  0
   49.5865  158.0233   32.2192 H   0  0  0  0  0  0  0  0  0  0  0  0
   49.5062  159.3892   31.0553 H   0  0  0  0  0  0  0  0  0  0  0  0
   48.2226  158.1326   31.0553 H   0  0  0  0  0  0  0  0  0  0  0  0
  1  2  2  0
  2  3  1  0
  3  4  2  0
  4  5  1  0
  5  6  1  0
  6  7  1  0
  7  8  1  0
  8  9  2  0
  9 10  1  0
 10 11  2  0
 11 12  1  0
 12 13  1  0
 12 14  2  0
 14 15  1  0
 15 16  2  0
 15 17  1  0
 17 18  1  0
  5 19  2  0
 19 20  1  0
 20 21  2  0
 21 22  1  0
 21  3  1  0
 17  6  2  0
 14  8  1  0
  1 23  1  0
  1 24  1  0
  2 25  1  0
  4 26  1  0
  9 27  1  0
 10 28  1  0
 11 29  1  0
 13 30  1  0
 18 31  1  0
 19 32  1  0
 20 33  1  0
 22 34  1  0
 22 35  1  0
 22 36  1  0
M  END
>  <meeko>  (7) 
{"is_sidechain": [false], "free_energy": -8.343, "intermolecular_energy": -10.386, "internal_energy": 0.658}

$$$$
