cand_039_out
     RDKit          3D

 41 43  0  0  0  0  0  0  0  0999 V2000
   49.9700  161.0330   33.2460 C   0  0  0  0  0  0  0  0  0  0  0  0
   50.0040  161.2660   31.7420 C   0  0  0  0  0  0  0  0  0  0  0  0
   50.4220  160.0260   30.9870 C   0  0  0  0  0  0  0  0  0  0  0  0
   51.7070  160.0000   30.4180 C   0  0  0  0  0  0  0  0  0  0  0  0
   52.1620  158.8830   29.7140 C   0  0  0  0  0  0  0  0  0  0  0  0
   51.3470  157.7600   29.5520 C   0  0  0  0  0  0  0  0  0  0  0  0
   51.8550  156.5790   28.8210 C   0  0  0  0  0  0  0  0  0  0  0  0
   52.4210  156.9060   27.5940 O   0  0  0  0  0  0  0  0  0  0  0  0
   52.9330  155.9030   26.8110 C   0  0  0  0  0  0  0  0  0  0  0  0
   53.5060  156.2770   25.5960 C   0  0  0  0  0  0  0  0  0  0  0  0
   54.0430  155.3040   24.7500 C   0  0  0  0  0  0  0  0  0  0  0  0
   54.0070  153.9580   25.1190 C   0  0  0  0  0  0  0  0  0  0  0  0
   53.4340  153.5870   26.3320 C   0  0  0  0  0  0  0  0  0  0  0  0
   53.4310  152.2530   26.6320 O   0  0  0  0  0  0  0  0  0  0  0  0
   52.8970  154.5610   27.1800 C   0  0  0  0  0  0  0  0  0  0  0  0
   52.2860  154.2140   28.4630 C   0  0  0  0  0  0  0  0  0  0  0  0
   52.2100  153.0510   28.8540 O   0  0  0  0  0  0  0  0  0  0  0  0
   51.7540  155.3210   29.2900 C   0  0  0  0  0  0  0  0  0  0  0  0
   51.1670  154.9810   30.4940 O   0  0  0  0  0  0  0  0  0  0  0  0
   50.0720  157.7770   30.1340 C   0  0  0  0  0  0  0  0  0  0  0  0
   49.5960  158.8920   30.8540 C   0  0  0  0  0  0  0  0  0  0  0  0
   48.1960  158.8210   31.4230 C   0  0  0  0  0  0  0  0  0  0  0  0
   47.2790  159.8660   30.8040 C   0  0  0  0  0  0  0  0  0  0  0  0
   50.1098  161.9908   33.7687 H   0  0  0  0  0  0  0  0  0  0  0  0
   48.9991  160.5996   33.5280 H   0  0  0  0  0  0  0  0  0  0  0  0
   50.7766  160.3403   33.5280 H   0  0  0  0  0  0  0  0  0  0  0  0
   49.0001  161.5649   31.4061 H   0  0  0  0  0  0  0  0  0  0  0  0
   50.7432  162.0544   31.5367 H   0  0  0  0  0  0  0  0  0  0  0  0
   52.3653  160.8742   30.5291 H   0  0  0  0  0  0  0  0  0  0  0  0
   53.1737  158.8875   29.2821 H   0  0  0  0  0  0  0  0  0  0  0  0
   53.5351  157.3372   25.3041 H   0  0  0  0  0  0  0  0  0  0  0  0
   54.4950  155.5987   23.7914 H   0  0  0  0  0  0  0  0  0  0  0  0
   54.4306  153.1923   24.4525 H   0  0  0  0  0  0  0  0  0  0  0  0
   52.8270  151.6780   26.2050 H   0  0  0  0  0  0  0  0  0  0  0  0
   50.7560  155.6400   31.0190 H   0  0  0  0  0  0  0  0  0  0  0  0
   49.4239  156.8948   30.0259 H   0  0  0  0  0  0  0  0  0  0  0  0
   47.7815  157.8216   31.2245 H   0  0  0  0  0  0  0  0  0  0  0  0
   48.2565  159.0173   32.5037 H   0  0  0  0  0  0  0  0  0  0  0  0
   46.7798  160.4348   31.6023 H   0  0  0  0  0  0  0  0  0  0  0  0
   47.8723  160.5516   30.1811 H   0  0  0  0  0  0  0  0  0  0  0  0
   46.5221  159.3668   30.1811 H   0  0  0  0  0  0  0  0  0  0  0  0
  1  2  1  0
  2  3  1  0
  3  4  2  0
  4  5  1  0
  5  6  2  0
  6  7  1  0
  7  8  1  0
  8  9  1  0
  9 10  2  0
 10 11  1  0
 11 12  2  0
 12 13  1  0
 13 14  1  0
 13 15  2  0
 15 16  1  0
 16 17  2  0
 16 18  1  0
 18 19  1  0
  6 20  1  0
 20 21  2  0
 21 22  1  0
 22 23  1  0
 21  3  1  0
 18  7  2  0
 15  9  1  0
  1 24  1  0
  1 25  1  0
  1 26  1  0
  2 27  1  0
  2 28  1  0
  4 29  1  0
  5 30  1  0
 10 31  1  0
 11 32  1  0
 12 33  1  0
 14 34  1  0
 19 35  1  0
 20 36  1  0
 22 37  1  0
 22 38  1  0
 23 39  1  0
 23 40  1  0
 23 41  1  0
M  END
>  <meeko>  (1) 
{"is_sidechain": [false], "free_energy": -10.673, "intermolecular_energy": -13.168, "internal_energy": 0.078}

$$$$
cand_039_out
     RDKit          3D

 41 43  0  0  0  0  0  0  0  0999 V2000
   49.2770  160.7080   33.1650 C   0  0  0  0  0  0  0  0  0  0  0  0
   49.1330  160.8300   31.6540 C   0  0  0  0  0  0  0  0  0  0  0  0
   49.8590  159.7220   30.9270 C   0  0  0  0  0  0  0  0  0  0  0  0
   49.2150  158.4790   30.8040 C   0  0  0  0  0  0  0  0  0  0  0  0
   49.8230  157.4130   30.1380 C   0  0  0  0  0  0  0  0  0  0  0  0
   51.0950  157.5540   29.5770 C   0  0  0  0  0  0  0  0  0  0  0  0
   51.7150  156.4210   28.8570 C   0  0  0  0  0  0  0  0  0  0  0  0
   52.2620  156.7930   27.6350 O   0  0  0  0  0  0  0  0  0  0  0  0
   52.8690  155.8370   26.8610 C   0  0  0  0  0  0  0  0  0  0  0  0
   53.4190  156.2570   25.6500 C   0  0  0  0  0  0  0  0  0  0  0  0
   54.0500  155.3330   24.8130 C   0  0  0  0  0  0  0  0  0  0  0  0
   54.1310  153.9910   25.1880 C   0  0  0  0  0  0  0  0  0  0  0  0
   53.5820  153.5740   26.3980 C   0  0  0  0  0  0  0  0  0  0  0  0
   53.6970  152.2460   26.7040 O   0  0  0  0  0  0  0  0  0  0  0  0
   52.9510  154.4990   27.2350 C   0  0  0  0  0  0  0  0  0  0  0  0
   52.3610  154.1030   28.5140 C   0  0  0  0  0  0  0  0  0  0  0  0
   52.3860  152.9390   28.9100 O   0  0  0  0  0  0  0  0  0  0  0  0
   51.7230  155.1610   29.3310 C   0  0  0  0  0  0  0  0  0  0  0  0
   51.1570  154.7730   30.5310 O   0  0  0  0  0  0  0  0  0  0  0  0
   51.7320  158.7990   29.6830 C   0  0  0  0  0  0  0  0  0  0  0  0
   51.1320  159.8890   30.3470 C   0  0  0  0  0  0  0  0  0  0  0  0
   51.9120  161.1830   30.4280 C   0  0  0  0  0  0  0  0  0  0  0  0
   52.7310  161.2710   31.7080 C   0  0  0  0  0  0  0  0  0  0  0  0
   48.5265  161.3439   33.6574 H   0  0  0  0  0  0  0  0  0  0  0  0
   49.1237  159.6607   33.4646 H   0  0  0  0  0  0  0  0  0  0  0  0
   50.2849  161.0312   33.4646 H   0  0  0  0  0  0  0  0  0  0  0  0
   48.0651  160.7858   31.3939 H   0  0  0  0  0  0  0  0  0  0  0  0
   49.5772  161.7879   31.3457 H   0  0  0  0  0  0  0  0  0  0  0  0
   48.2143  158.3435   31.2401 H   0  0  0  0  0  0  0  0  0  0  0  0
   49.2949  156.4517   30.0540 H   0  0  0  0  0  0  0  0  0  0  0  0
   53.3561  157.3146   25.3541 H   0  0  0  0  0  0  0  0  0  0  0  0
   54.4834  155.6636   23.8575 H   0  0  0  0  0  0  0  0  0  0  0  0
   54.6277  153.2639   24.5288 H   0  0  0  0  0  0  0  0  0  0  0  0
   54.4860  151.9210   27.0900 H   0  0  0  0  0  0  0  0  0  0  0  0
   51.3760  153.9430   30.9060 H   0  0  0  0  0  0  0  0  0  0  0  0
   52.7283  158.9290   29.2353 H   0  0  0  0  0  0  0  0  0  0  0  0
   52.5920  161.2433   29.5655 H   0  0  0  0  0  0  0  0  0  0  0  0
   51.1934  162.0158   30.4243 H   0  0  0  0  0  0  0  0  0  0  0  0
   52.0612  161.1990   32.5776 H   0  0  0  0  0  0  0  0  0  0  0  0
   53.4578  160.4458   31.7357 H   0  0  0  0  0  0  0  0  0  0  0  0
   53.2659  162.2318   31.7357 H   0  0  0  0  0  0  0  0  0  0  0  0
  1  2  1  0
  2  3  1  0
  3  4  2  0
  4  5  1  0
  5  6  2  0
  6  7  1  0
  7  8  1  0
  8  9  1  0
  9 10  2  0
 10 11  1  0
 11 12  2  0
 12 13  1  0
 13 14  1  0
 13 15  2  0
 15 16  1  0
 16 17  2  0
 16 18  1  0
 18 19  1  0
  6 20  1  0
 20 21  2  0
 21 22  1  0
 22 23  1  0
 21  3  1  0
 18  7  2  0
 15  9  1  0
  1 24  1  0
  1 25  1  0
  1 26  1  0
  2 27  1  0
  2 28  1  0
  4 29  1  0
  5 30  1  0
 10 31  1  0
 11 32  1  0
 12 33  1  0
 14 34  1  0
 19 35  1  0
 20 36  1  0
 22 37  1  0
 22 38  1  0
 23 39  1  0
 23 40  1  0
 23 41  1  0
M  END
>  <meeko>  (2) 
{"is_sidechain": [false], "free_energy": -10.644, "intermolecular_energy": -12.699, "internal_energy": -0.356}

$$$$
cand_039_out
     RDKit          3D

 41 43  0  0  0  0  0  0  0  0999 V2000
   51.9540  151.5110   26.8020 C   0  0  0  0  0  0  0  0  0  0  0  0
   53.0660  152.5480   26.7340 C   0  0  0  0  0  0  0  0  0  0  0  0
   52.6570  153.8570   27.3690 C   0  0  0  0  0  0  0  0  0  0  0  0
   52.1210  153.8210   28.6680 C   0  0  0  0  0  0  0  0  0  0  0  0
   51.7300  154.9920   29.3210 C   0  0  0  0  0  0  0  0  0  0  0  0
   51.8570  156.2350   28.6930 C   0  0  0  0  0  0  0  0  0  0  0  0
   51.4560  157.4660   29.4080 C   0  0  0  0  0  0  0  0  0  0  0  0
   50.1190  157.4600   29.7860 O   0  0  0  0  0  0  0  0  0  0  0  0
   49.6140  158.5440   30.4590 C   0  0  0  0  0  0  0  0  0  0  0  0
   48.2720  158.4880   30.8340 C   0  0  0  0  0  0  0  0  0  0  0  0
   47.6950  159.5600   31.5190 C   0  0  0  0  0  0  0  0  0  0  0  0
   48.4600  160.6860   31.8280 C   0  0  0  0  0  0  0  0  0  0  0  0
   49.8000  160.7390   31.4530 C   0  0  0  0  0  0  0  0  0  0  0  0
   50.4910  161.8710   31.7870 O   0  0  0  0  0  0  0  0  0  0  0  0
   50.3770  159.6660   30.7680 C   0  0  0  0  0  0  0  0  0  0  0  0
   51.7810  159.6810   30.3550 C   0  0  0  0  0  0  0  0  0  0  0  0
   52.5160  160.6390   30.5850 O   0  0  0  0  0  0  0  0  0  0  0  0
   52.2980  158.4900   29.6410 C   0  0  0  0  0  0  0  0  0  0  0  0
   53.6220  158.5210   29.2440 O   0  0  0  0  0  0  0  0  0  0  0  0
   52.4070  156.2740   27.4050 C   0  0  0  0  0  0  0  0  0  0  0  0
   52.8140  155.1030   26.7320 C   0  0  0  0  0  0  0  0  0  0  0  0
   53.3740  155.2490   25.3350 C   0  0  0  0  0  0  0  0  0  0  0  0
   54.0990  156.5740   25.1490 C   0  0  0  0  0  0  0  0  0  0  0  0
   51.7200  151.2928   27.8544 H   0  0  0  0  0  0  0  0  0  0  0  0
   51.0566  151.9022   26.3004 H   0  0  0  0  0  0  0  0  0  0  0  0
   52.2817  150.5885   26.3004 H   0  0  0  0  0  0  0  0  0  0  0  0
   53.9488  152.1576   27.2615 H   0  0  0  0  0  0  0  0  0  0  0  0
   53.2890  152.7389   25.6739 H   0  0  0  0  0  0  0  0  0  0  0  0
   52.0075  152.8536   29.1791 H   0  0  0  0  0  0  0  0  0  0  0  0
   51.3181  154.9360   30.3394 H   0  0  0  0  0  0  0  0  0  0  0  0
   47.6687  157.6010   30.5907 H   0  0  0  0  0  0  0  0  0  0  0  0
   46.6365  159.5168   31.8153 H   0  0  0  0  0  0  0  0  0  0  0  0
   48.0050  161.5301   32.3669 H   0  0  0  0  0  0  0  0  0  0  0  0
   51.4090  161.8220   31.9720 H   0  0  0  0  0  0  0  0  0  0  0  0
   54.0440  157.7350   28.9580 H   0  0  0  0  0  0  0  0  0  0  0  0
   52.5249  157.2461   26.9040 H   0  0  0  0  0  0  0  0  0  0  0  0
   54.0812  154.4275   25.1479 H   0  0  0  0  0  0  0  0  0  0  0  0
   52.5334  155.2183   24.6262 H   0  0  0  0  0  0  0  0  0  0  0  0
   54.3345  157.0045   26.1335 H   0  0  0  0  0  0  0  0  0  0  0  0
   55.0312  156.4065   24.5895 H   0  0  0  0  0  0  0  0  0  0  0  0
   53.4554  157.2688   24.5895 H   0  0  0  0  0  0  0  0  0  0  0  0
  1  2  1  0
  2  3  1  0
  3  4  2  0
  4  5  1  0
  5  6  2  0
  6  7  1  0
  7  8  1  0
  8  9  1  0
  9 10  2  0
 10 11  1  0
 11 12  2  0
 12 13  1  0
 13 14  1  0
 13 15  2  0
 15 16  1  0
 16 17  2  0
 16 18  1  0
 18 19  1  0
  6 20  1  0
 20 21  2  0
 21 22  1  0
 22 23  1  0
 21  3  1  0
 18  7  2  0
 15  9  1  0
  1 24  1  0
  1 25  1  0
  1 26  1  0
  2 27  1  0
  2 28  1  0
  4 29  1  0
  5 30  1  0
 10 31  1  0
 11 32  1  0
 12 33  1  0
 14 34  1  0
 19 35  1  0
 20 36  1  0
 22 37  1  0
 22 38  1  0
 23 39  1  0
 23 40  1  0
 23 41  1  0
M  END
>  <meeko>  (3) 
{"is_sidechain": [false], "free_energy": -10.134, "intermolecular_energy": -11.988, "internal_energy": -0.438}

$$$$
cand_039_out
     RDKit          3D

 41 43  0  0  0  0  0  0  0  0999 V2000
   52.5900  151.6620   25.9910 C   0  0  0  0  0  0  0  0  0  0  0  0
   53.6210  152.5900   26.6160 C   0  0  0  0  0  0  0  0  0  0  0  0
   52.9780  153.7960   27.2620 C   0  0  0  0  0  0  0  0  0  0  0  0
   52.4750  153.6560   28.5670 C   0  0  0  0  0  0  0  0  0  0  0  0
   51.8750  154.7300   29.2290 C   0  0  0  0  0  0  0  0  0  0  0  0
   51.7550  155.9750   28.6050 C   0  0  0  0  0  0  0  0  0  0  0  0
   51.1360  157.1060   29.3300 C   0  0  0  0  0  0  0  0  0  0  0  0
   52.0310  158.1380   29.5850 O   0  0  0  0  0  0  0  0  0  0  0  0
   51.5880  159.2520   30.2520 C   0  0  0  0  0  0  0  0  0  0  0  0
   52.5160  160.2690   30.4720 C   0  0  0  0  0  0  0  0  0  0  0  0
   52.1300  161.4300   31.1480 C   0  0  0  0  0  0  0  0  0  0  0  0
   50.8170  161.5710   31.6020 C   0  0  0  0  0  0  0  0  0  0  0  0
   49.8930  160.5540   31.3800 C   0  0  0  0  0  0  0  0  0  0  0  0
   48.6250  160.7580   31.8510 O   0  0  0  0  0  0  0  0  0  0  0  0
   50.2790  159.3930   30.7030 C   0  0  0  0  0  0  0  0  0  0  0  0
   49.3400  158.3000   30.4500 C   0  0  0  0  0  0  0  0  0  0  0  0
   48.1700  158.3480   30.8250 O   0  0  0  0  0  0  0  0  0  0  0  0
   49.8470  157.1170   29.7170 C   0  0  0  0  0  0  0  0  0  0  0  0
   48.9550  156.0850   29.4950 O   0  0  0  0  0  0  0  0  0  0  0  0
   52.2720  156.1210   27.3110 C   0  0  0  0  0  0  0  0  0  0  0  0
   52.8870  155.0510   26.6280 C   0  0  0  0  0  0  0  0  0  0  0  0
   53.3910  155.3030   25.2250 C   0  0  0  0  0  0  0  0  0  0  0  0
   54.1390  156.6250   25.1200 C   0  0  0  0  0  0  0  0  0  0  0  0
   52.0249  151.1533   26.7859 H   0  0  0  0  0  0  0  0  0  0  0  0
   51.8990  152.2484   25.3676 H   0  0  0  0  0  0  0  0  0  0  0  0
   53.1007  150.9133   25.3676 H   0  0  0  0  0  0  0  0  0  0  0  0
   54.1820  152.0337   27.3814 H   0  0  0  0  0  0  0  0  0  0  0  0
   54.2867  152.9468   25.8163 H   0  0  0  0  0  0  0  0  0  0  0  0
   52.5552  152.6841   29.0758 H   0  0  0  0  0  0  0  0  0  0  0  0
   51.4931  154.5945   30.2517 H   0  0  0  0  0  0  0  0  0  0  0  0
   53.5502  160.1579   30.1142 H   0  0  0  0  0  0  0  0  0  0  0  0
   52.8611  162.2332   31.3225 H   0  0  0  0  0  0  0  0  0  0  0  0
   50.5134  162.4845   32.1343 H   0  0  0  0  0  0  0  0  0  0  0  0
   48.2760  161.6260   31.8950 H   0  0  0  0  0  0  0  0  0  0  0  0
   48.8650  155.7200   28.6370 H   0  0  0  0  0  0  0  0  0  0  0  0
   52.1961  157.0989   26.8130 H   0  0  0  0  0  0  0  0  0  0  0  0
   54.0701  154.4863   24.9389 H   0  0  0  0  0  0  0  0  0  0  0  0
   52.5212  155.3488   24.5531 H   0  0  0  0  0  0  0  0  0  0  0  0
   54.3544  157.0056   26.1293 H   0  0  0  0  0  0  0  0  0  0  0  0
   55.0832  156.4700   24.5774 H   0  0  0  0  0  0  0  0  0  0  0  0
   53.5198  157.3545   24.5774 H   0  0  0  0  0  0  0  0  0  0  0  0
  1  2  1  0
  2  3  1  0
  3  4  2  0
  4  5  1  0
  5  6  2  0
  6  7  1  0
  7  8  1  0
  8  9  1  0
  9 10  2  0
 10 11  1  0
 11 12  2  0
 12 13  1  0
 13 14  1  0
 13 15  2  0
 15 16  1  0
 16 17  2  0
 16 18  1  0
 18 19  1  0
  6 20  1  0
 20 21  2  0
 21 22  1  0
 22 23  1  0
 21  3  1  0
 18  7  2  0
 15  9  1  0
  1 24  1  0
  1 25  1  0
  1 26  1  0
  2 27  1  0
  2 28  1  0
  4 29  1  0
  5 30  1  0
 10 31  1  0
 11 32  1  0
 12 33  1  0
 14 34  1  0
 19 35  1  0
 20 36  1  0
 22 37  1  0
 22 38  1  0
 23 39  1  0
 23 40  1  0
 23 41  1  0
M  END
>  <meeko>  (4) 
{"is_sidechain": [false], "free_energy": -9.046, "intermolecular_energy": -10.565, "internal_energy": -0.518}

$$$$
cand_039_out
     RDKit          3D

 41 43  0  0  0  0  0  0  0  0999 V2000
   53.1090  154.4040   24.7370 C   0  0  0  0  0  0  0  0  0  0  0  0
   53.4970  154.1080   26.1790 C   0  0  0  0  0  0  0  0  0  0  0  0
   52.9430  155.1390   27.1350 C   0  0  0  0  0  0  0  0  0  0  0  0
   53.0660  156.4960   26.7880 C   0  0  0  0  0  0  0  0  0  0  0  0
   52.5700  157.5020   27.6200 C   0  0  0  0  0  0  0  0  0  0  0  0
   51.9420  157.1850   28.8270 C   0  0  0  0  0  0  0  0  0  0  0  0
   51.4040  158.2630   29.6850 C   0  0  0  0  0  0  0  0  0  0  0  0
   50.0590  158.0910   29.9880 O   0  0  0  0  0  0  0  0  0  0  0  0
   49.4330  159.0210   30.7780 C   0  0  0  0  0  0  0  0  0  0  0  0
   48.0870  158.8000   31.0710 C   0  0  0  0  0  0  0  0  0  0  0  0
   47.3890  159.7110   31.8690 C   0  0  0  0  0  0  0  0  0  0  0  0
   48.0370  160.8400   32.3730 C   0  0  0  0  0  0  0  0  0  0  0  0
   49.3800  161.0580   32.0790 C   0  0  0  0  0  0  0  0  0  0  0  0
   49.9540  162.1830   32.6040 O   0  0  0  0  0  0  0  0  0  0  0  0
   50.0790  160.1460   31.2810 C   0  0  0  0  0  0  0  0  0  0  0  0
   51.4910  160.3370   30.9490 C   0  0  0  0  0  0  0  0  0  0  0  0
   52.1280  161.3100   31.3480 O   0  0  0  0  0  0  0  0  0  0  0  0
   52.1410  159.3090   30.1030 C   0  0  0  0  0  0  0  0  0  0  0  0
   53.4710  159.5070   29.7840 O   0  0  0  0  0  0  0  0  0  0  0  0
   51.8030  155.8320   29.1670 C   0  0  0  0  0  0  0  0  0  0  0  0
   52.2910  154.8010   28.3370 C   0  0  0  0  0  0  0  0  0  0  0  0
   52.1130  153.3740   28.8050 C   0  0  0  0  0  0  0  0  0  0  0  0
   51.5960  152.4720   27.6930 C   0  0  0  0  0  0  0  0  0  0  0  0
   52.2345  155.0711   24.7221 H   0  0  0  0  0  0  0  0  0  0  0  0
   53.9508  154.8915   24.2235 H   0  0  0  0  0  0  0  0  0  0  0  0
   52.8613  153.4633   24.2235 H   0  0  0  0  0  0  0  0  0  0  0  0
   53.1048  153.1185   26.4568 H   0  0  0  0  0  0  0  0  0  0  0  0
   54.5945  154.1336   26.2487 H   0  0  0  0  0  0  0  0  0  0  0  0
   53.5615  156.7700   25.8449 H   0  0  0  0  0  0  0  0  0  0  0  0
   52.6749  158.5556   27.3217 H   0  0  0  0  0  0  0  0  0  0  0  0
   47.5758  157.9103   30.6747 H   0  0  0  0  0  0  0  0  0  0  0  0
   46.3276  159.5380   32.1001 H   0  0  0  0  0  0  0  0  0  0  0  0
   47.4873  161.5562   33.0014 H   0  0  0  0  0  0  0  0  0  0  0  0
   49.4940  162.6870   33.2470 H   0  0  0  0  0  0  0  0  0  0  0  0
   54.0950  159.6790   30.4610 H   0  0  0  0  0  0  0  0  0  0  0  0
   51.2989  155.5667   30.1080 H   0  0  0  0  0  0  0  0  0  0  0  0
   53.0836  152.9899   29.1521 H   0  0  0  0  0  0  0  0  0  0  0  0
   51.3719  153.3718   29.6179 H   0  0  0  0  0  0  0  0  0  0  0  0
   51.0948  151.5975   28.1334 H   0  0  0  0  0  0  0  0  0  0  0  0
   50.8806  153.0300   27.0710 H   0  0  0  0  0  0  0  0  0  0  0  0
   52.4391  152.1367   27.0710 H   0  0  0  0  0  0  0  0  0  0  0  0
  1  2  1  0
  2  3  1  0
  3  4  2  0
  4  5  1  0
  5  6  2  0
  6  7  1  0
  7  8  1  0
  8  9  1  0
  9 10  2  0
 10 11  1  0
 11 12  2  0
 12 13  1  0
 13 14  1  0
 13 15  2  0
 15 16  1  0
 16 17  2  0
 16 18  1  0
 18 19  1  0
  6 20  1  0
 20 21  2  0
 21 22  1  0
 22 23  1  0
 21  3  1  0
 18  7  2  0
 15  9  1  0
  1 24  1  0
  1 25  1  0
  1 26  1  0
  2 27  1  0
  2 28  1  0
  4 29  1  0
  5 30  1  0
 10 31  1  0
 11 32  1  0
 12 33  1  0
 14 34  1  0
 19 35  1  0
 20 36  1  0
 22 37  1  0
 22 38  1  0
 23 39  1  0
 23 40  1  0
 23 41  1  0
M  END
>  <meeko>  (5) 
{"is_sidechain": [false], "free_energy": -8.889, "intermolecular_energy": -11.095, "internal_energy": 0.206}

$$$$
cand_039_out
     RDKit          3D

 41 43  0  0  0  0  0  0  0  0999 V2000
   48.0180  158.9510   30.5580 C   0  0  0  0  0  0  0  0  0  0  0  0
   49.2340  158.3190   31.2200 C   0  0  0  0  0  0  0  0  0  0  0  0
   50.0740  157.5420   30.2340 C   0  0  0  0  0  0  0  0  0  0  0  0
   49.5910  156.2990   29.7900 C   0  0  0  0  0  0  0  0  0  0  0  0
   50.3110  155.5300   28.8730 C   0  0  0  0  0  0  0  0  0  0  0  0
   51.5380  155.9760   28.3750 C   0  0  0  0  0  0  0  0  0  0  0  0
   52.2750  155.1580   27.3880 C   0  0  0  0  0  0  0  0  0  0  0  0
   51.9800  153.8030   27.4820 O   0  0  0  0  0  0  0  0  0  0  0  0
   52.5960  152.9280   26.6240 C   0  0  0  0  0  0  0  0  0  0  0  0
   52.2580  151.5800   26.7430 C   0  0  0  0  0  0  0  0  0  0  0  0
   52.8520  150.6360   25.9010 C   0  0  0  0  0  0  0  0  0  0  0  0
   53.7810  151.0410   24.9410 C   0  0  0  0  0  0  0  0  0  0  0  0
   54.1170  152.3870   24.8250 C   0  0  0  0  0  0  0  0  0  0  0  0
   55.0330  152.7150   23.8640 O   0  0  0  0  0  0  0  0  0  0  0  0
   53.5220  153.3320   25.6670 C   0  0  0  0  0  0  0  0  0  0  0  0
   53.8460  154.7560   25.5780 C   0  0  0  0  0  0  0  0  0  0  0  0
   54.6600  155.1880   24.7640 O   0  0  0  0  0  0  0  0  0  0  0  0
   53.1550  155.6760   26.5110 C   0  0  0  0  0  0  0  0  0  0  0  0
   53.4790  157.0170   26.4260 O   0  0  0  0  0  0  0  0  0  0  0  0
   52.0130  157.2240   28.8020 C   0  0  0  0  0  0  0  0  0  0  0  0
   51.2980  158.0180   29.7230 C   0  0  0  0  0  0  0  0  0  0  0  0
   51.9070  159.3380   30.1410 C   0  0  0  0  0  0  0  0  0  0  0  0
   50.9850  160.5100   29.8380 C   0  0  0  0  0  0  0  0  0  0  0  0
   47.3248  159.3113   31.3324 H   0  0  0  0  0  0  0  0  0  0  0  0
   48.3394  159.7962   29.9316 H   0  0  0  0  0  0  0  0  0  0  0  0
   47.5110  158.2023   29.9316 H   0  0  0  0  0  0  0  0  0  0  0  0
   49.8510  159.1146   31.6630 H   0  0  0  0  0  0  0  0  0  0  0  0
   48.8769  157.6183   31.9891 H   0  0  0  0  0  0  0  0  0  0  0  0
   48.6292  155.9254   30.1714 H   0  0  0  0  0  0  0  0  0  0  0  0
   49.9077  154.5626   28.5391 H   0  0  0  0  0  0  0  0  0  0  0  0
   51.5250  151.2605   27.4984 H   0  0  0  0  0  0  0  0  0  0  0  0
   52.5872  149.5725   25.9948 H   0  0  0  0  0  0  0  0  0  0  0  0
   54.2468  150.2978   24.2772 H   0  0  0  0  0  0  0  0  0  0  0  0
   55.8590  152.2720   23.8340 H   0  0  0  0  0  0  0  0  0  0  0  0
   52.8120  157.6670   26.5300 H   0  0  0  0  0  0  0  0  0  0  0  0
   52.9706  157.5946   28.4076 H   0  0  0  0  0  0  0  0  0  0  0  0
   52.1048  159.3116   31.2228 H   0  0  0  0  0  0  0  0  0  0  0  0
   52.8370  159.4799   29.5710 H   0  0  0  0  0  0  0  0  0  0  0  0
   50.6351  160.9547   30.7813 H   0  0  0  0  0  0  0  0  0  0  0  0
   51.5326  161.2666   29.2568 H   0  0  0  0  0  0  0  0  0  0  0  0
   50.1208  160.1559   29.2568 H   0  0  0  0  0  0  0  0  0  0  0  0
  1  2  1  0
  2  3  1  0
  3  4  2  0
  4  5  1  0
  5  6  2  0
  6  7  1  0
  7  8  1  0
  8  9  1  0
  9 10  2  0
 10 11  1  0
 11 12  2  0
 12 13  1  0
 13 14  1  0
 13 15  2  0
 15 16  1  0
 16 17  2  0
 16 18  1  0
 18 19  1  0
  6 20  1  0
 20 21  2  0
 21 22  1  0
 22 23  1  0
 21  3  1  0
 18  7  2  0
 15  9  1  0
  1 24  1  0
  1 25  1  0
  1 26  1  0
  2 27  1  0
  2 28  1  0
  4 29  1  0
  5 30  1  0
 10 31  1  0
 11 32  1  0
 12 33  1  0
 14 34  1  0
 19 35  1  0
 20 36  1  0
 22 37  1  0
 22 38  1  0
 23 39  1  0
 23 40  1  0
 23 41  1  0
M  END
>  <meeko>  (6) 
{"is_sidechain": [false], "free_energy": -8.717, "intermolecular_energy": -11.057, "internal_energy": 0.379}

$$$$
cand_039_out
     RDKit          3D

 41 43  0  0  0  0  0  0  0  0999 V2000
   53.4360  154.2530   24.5040 C   0  0  0  0  0  0  0  0  0  0  0  0
   53.7500  153.9150   25.9550 C   0  0  0  0  0  0  0  0  0  0  0  0
   53.0530  154.8510   26.9150 C   0  0  0  0  0  0  0  0  0  0  0  0
   53.1510  156.2330   26.6780 C   0  0  0  0  0  0  0  0  0  0  0  0
   52.5260  157.1560   27.5200 C   0  0  0  0  0  0  0  0  0  0  0  0
   51.7880  156.7270   28.6270 C   0  0  0  0  0  0  0  0  0  0  0  0
   51.1160  157.7180   29.4950 C   0  0  0  0  0  0  0  0  0  0  0  0
   51.9280  158.8020   29.8060 O   0  0  0  0  0  0  0  0  0  0  0  0
   51.4290  159.7980   30.6060 C   0  0  0  0  0  0  0  0  0  0  0  0
   52.2730  160.8740   30.8810 C   0  0  0  0  0  0  0  0  0  0  0  0
   51.8260  161.9210   31.6910 C   0  0  0  0  0  0  0  0  0  0  0  0
   50.5370  161.8910   32.2260 C   0  0  0  0  0  0  0  0  0  0  0  0
   49.6970  160.8160   31.9500 C   0  0  0  0  0  0  0  0  0  0  0  0
   48.4470  160.8500   32.5050 O   0  0  0  0  0  0  0  0  0  0  0  0
   50.1430  159.7690   31.1380 C   0  0  0  0  0  0  0  0  0  0  0  0
   49.2920  158.6200   30.8240 C   0  0  0  0  0  0  0  0  0  0  0  0
   48.1480  158.5190   31.2630 O   0  0  0  0  0  0  0  0  0  0  0  0
   49.8580  157.5680   29.9490 C   0  0  0  0  0  0  0  0  0  0  0  0
   49.0500  156.4810   29.6700 O   0  0  0  0  0  0  0  0  0  0  0  0
   51.6740  155.3490   28.8540 C   0  0  0  0  0  0  0  0  0  0  0  0
   52.2930  154.4010   28.0120 C   0  0  0  0  0  0  0  0  0  0  0  0
   52.1310  152.9370   28.3570 C   0  0  0  0  0  0  0  0  0  0  0  0
   51.7870  152.1010   27.1330 C   0  0  0  0  0  0  0  0  0  0  0  0
   52.6877  155.0585   24.4688 H   0  0  0  0  0  0  0  0  0  0  0  0
   54.3547  154.5836   23.9974 H   0  0  0  0  0  0  0  0  0  0  0  0
   53.0387  153.3611   23.9974 H   0  0  0  0  0  0  0  0  0  0  0  0
   53.4206  152.8856   26.1597 H   0  0  0  0  0  0  0  0  0  0  0  0
   54.8349  154.0209   26.1027 H   0  0  0  0  0  0  0  0  0  0  0  0
   53.7296  156.5939   25.8149 H   0  0  0  0  0  0  0  0  0  0  0  0
   52.6156  158.2320   27.3096 H   0  0  0  0  0  0  0  0  0  0  0  0
   53.2892  160.8982   30.4607 H   0  0  0  0  0  0  0  0  0  0  0  0
   52.4908  162.7702   31.9075 H   0  0  0  0  0  0  0  0  0  0  0  0
   50.1859  162.7152   32.8643 H   0  0  0  0  0  0  0  0  0  0  0  0
   48.0310  161.6730   32.6720 H   0  0  0  0  0  0  0  0  0  0  0  0
   49.2620  155.9110   28.9580 H   0  0  0  0  0  0  0  0  0  0  0  0
   51.0850  154.9961   29.7134 H   0  0  0  0  0  0  0  0  0  0  0  0
   53.0731  152.5666   28.7875 H   0  0  0  0  0  0  0  0  0  0  0  0
   51.3037  152.8454   29.0762 H   0  0  0  0  0  0  0  0  0  0  0  0
   51.3867  151.1281   27.4542 H   0  0  0  0  0  0  0  0  0  0  0  0
   51.0323  152.6271   26.5300 H   0  0  0  0  0  0  0  0  0  0  0  0
   52.6934  151.9435   26.5300 H   0  0  0  0  0  0  0  0  0  0  0  0
  1  2  1  0
  2  3  1  0
  3  4  2  0
  4  5  1  0
  5  6  2  0
  6  7  1  0
  7  8  1  0
  8  9  1  0
  9 10  2  0
 10 11  1  0
 11 12  2  0
 12 13  1  0
 13 14  1  0
 13 15  2  0
 15 16  1  0
 16 17  2  0
 16 18  1  0
 18 19  1  0
  6 20  1  0
 20 21  2  0
 21 22  1  0
 22 23  1  0
 21  3  1  0
 18  7  2  0
 15  9  1  0
  1 24  1  0
  1 25  1  0
  1 26  1  0
  2 27  1  0
  2 28  1  0
  4 29  1  0
  5 30  1  0
 10 31  1  0
 11 32  1  0
 12 33  1  0
 14 34  1  0
 19 35  1  0
 20 36  1  0
 22 37  1  0
 22 38  1  0
 23 39  1  0
 23 40  1  0
 23 41  1  0
M  END
>  <meeko>  (7) 
{"is_sidechain": [false], "free_energy": -8.196, "intermolecular_energy": -10.358, "internal_energy": 0.324}

$$$$
cand_039_out
     RDKit          3D

 41 43  0  0  0  0  0  0  0  0999 V2000
   50.4140  160.7350   30.1430 C   0  0  0  0  0  0  0  0  0  0  0  0
   51.0370  159.5650   30.8920 C   0  0  0  0  0  0  0  0  0  0  0  0
   51.3790  158.4200   29.9670 C   0  0  0  0  0  0  0  0  0  0  0  0
   52.6230  158.4480   29.3140 C   0  0  0  0  0  0  0  0  0  0  0  0
   53.0090  157.4200   28.4510 C   0  0  0  0  0  0  0  0  0  0  0  0
   52.1630  156.3340   28.2110 C   0  0  0  0  0  0  0  0  0  0  0  0
   52.5970  155.2440   27.3110 C   0  0  0  0  0  0  0  0  0  0  0  0
   52.1200  153.9990   27.7030 O   0  0  0  0  0  0  0  0  0  0  0  0
   52.4490  152.8970   26.9550 C   0  0  0  0  0  0  0  0  0  0  0  0
   51.9350  151.6700   27.3750 C   0  0  0  0  0  0  0  0  0  0  0  0
   52.2340  150.5080   26.6580 C   0  0  0  0  0  0  0  0  0  0  0  0
   53.0450  150.5740   25.5240 C   0  0  0  0  0  0  0  0  0  0  0  0
   53.5560  151.8000   25.1070 C   0  0  0  0  0  0  0  0  0  0  0  0
   54.3420  151.7930   23.9880 O   0  0  0  0  0  0  0  0  0  0  0  0
   53.2560  152.9630   25.8230 C   0  0  0  0  0  0  0  0  0  0  0  0
   53.7730  154.2710   25.4200 C   0  0  0  0  0  0  0  0  0  0  0  0
   54.4980  154.4090   24.4370 O   0  0  0  0  0  0  0  0  0  0  0  0
   53.3900  155.4420   26.2420 C   0  0  0  0  0  0  0  0  0  0  0  0
   53.8950  156.6710   25.8590 O   0  0  0  0  0  0  0  0  0  0  0  0
   50.9290  156.2960   28.8760 C   0  0  0  0  0  0  0  0  0  0  0  0
   50.5240  157.3210   29.7550 C   0  0  0  0  0  0  0  0  0  0  0  0
   49.1630  157.1990   30.4040 C   0  0  0  0  0  0  0  0  0  0  0  0
   48.1200  158.0540   29.7000 C   0  0  0  0  0  0  0  0  0  0  0  0
   50.0242  161.4671   30.8655 H   0  0  0  0  0  0  0  0  0  0  0  0
   51.1766  161.2137   29.5112 H   0  0  0  0  0  0  0  0  0  0  0  0
   49.5911  160.3695   29.5112 H   0  0  0  0  0  0  0  0  0  0  0  0
   51.9572  159.9092   31.3867 H   0  0  0  0  0  0  0  0  0  0  0  0
   50.3032  159.2016   31.6265 H   0  0  0  0  0  0  0  0  0  0  0  0
   53.3045  159.2942   29.4855 H   0  0  0  0  0  0  0  0  0  0  0  0
   53.9897  157.4657   27.9548 H   0  0  0  0  0  0  0  0  0  0  0  0
   51.2957  151.6171   28.2686 H   0  0  0  0  0  0  0  0  0  0  0  0
   51.8294  149.5398   26.9881 H   0  0  0  0  0  0  0  0  0  0  0  0
   53.2800  149.6589   24.9607 H   0  0  0  0  0  0  0  0  0  0  0  0
   55.2110  152.1430   24.0240 H   0  0  0  0  0  0  0  0  0  0  0  0
   53.5590  157.0980   25.0960 H   0  0  0  0  0  0  0  0  0  0  0  0
   50.2574  155.4414   28.7068 H   0  0  0  0  0  0  0  0  0  0  0  0
   48.8443  156.1468   30.3668 H   0  0  0  0  0  0  0  0  0  0  0  0
   49.2478  157.5512   31.4426 H   0  0  0  0  0  0  0  0  0  0  0  0
   47.4975  158.5643   30.4497 H   0  0  0  0  0  0  0  0  0  0  0  0
   48.6236  158.8025   29.0706 H   0  0  0  0  0  0  0  0  0  0  0  0
   47.4848  157.4134   29.0706 H   0  0  0  0  0  0  0  0  0  0  0  0
  1  2  1  0
  2  3  1  0
  3  4  2  0
  4  5  1  0
  5  6  2  0
  6  7  1  0
  7  8  1  0
  8  9  1  0
  9 10  2  0
 10 11  1  0
 11 12  2  0
 12 13  1  0
 13 14  1  0
 13 15  2  0
 15 16  1  0
 16 17  2  0
 16 18  1  0
 18 19  1  0
  6 20  1  0
 20 21  2  0
 21 22  1  0
 22 23  1  0
 21  3  1  0
 18  7  2  0
 15  9  1  0
  1 24  1  0
  1 25  1  0
  1 26  1  0
  2 27  1  0
  2 28  1  0
  4 29  1  0
  5 30  1  0
 10 31  1  0
 11 32  1  0
 12 33  1  0
 14 34  1  0
 19 35  1  0
 20 36  1  0
 22 37  1  0
 22 38  1  0
 23 39  1  0
 23 40  1  0
 23 41  1  0
M  END
>  <meeko>  (8) 
{"is_sidechain": [false], "free_energy": -7.938, "intermolecular_energy": -9.637, "internal_energy": -0.078}

$$$$
