cand_043_out
     RDKit          3D

 44 46  0  0  0  0  0  0  0  0999 V2000
   51.8350  160.6610   30.7040 C   0  0  0  0  0  0  0  0  0  0  0  0
   51.0340  159.4170   30.4170 C   0  0  0  0  0  0  0  0  0  0  0  0
   51.7170  158.4150   29.6830 C   0  0  0  0  0  0  0  0  0  0  0  0
   51.1230  157.1980   29.3360 C   0  0  0  0  0  0  0  0  0  0  0  0
   51.8730  156.2040   28.5390 C   0  0  0  0  0  0  0  0  0  0  0  0
   52.4130  156.7410   27.3750 O   0  0  0  0  0  0  0  0  0  0  0  0
   53.1340  155.9270   26.5410 C   0  0  0  0  0  0  0  0  0  0  0  0
   53.6450  156.5040   25.3780 C   0  0  0  0  0  0  0  0  0  0  0  0
   54.3910  155.7300   24.4860 C   0  0  0  0  0  0  0  0  0  0  0  0
   54.6260  154.3810   24.7560 C   0  0  0  0  0  0  0  0  0  0  0  0
   54.1150  153.8070   25.9180 C   0  0  0  0  0  0  0  0  0  0  0  0
   54.3820  152.4810   26.1210 O   0  0  0  0  0  0  0  0  0  0  0  0
   53.3680  154.5810   26.8100 C   0  0  0  0  0  0  0  0  0  0  0  0
   52.8130  154.0180   28.0410 C   0  0  0  0  0  0  0  0  0  0  0  0
   52.9830  152.8410   28.3520 O   0  0  0  0  0  0  0  0  0  0  0  0
   52.0300  154.9210   28.9160 C   0  0  0  0  0  0  0  0  0  0  0  0
   51.5210  154.3810   30.0830 O   0  0  0  0  0  0  0  0  0  0  0  0
   49.8060  156.9910   29.7260 C   0  0  0  0  0  0  0  0  0  0  0  0
   49.1180  157.9610   30.4660 C   0  0  0  0  0  0  0  0  0  0  0  0
   49.7030  159.1890   30.8550 C   0  0  0  0  0  0  0  0  0  0  0  0
   48.8570  160.1960   31.6810 C   0  0  0  0  0  0  0  0  0  0  0  0
   48.8350  161.6140   31.0670 C   0  0  0  0  0  0  0  0  0  0  0  0
   49.3850  160.3990   33.1310 C   0  0  0  0  0  0  0  0  0  0  0  0
   47.4170  159.6570   31.8140 C   0  0  0  0  0  0  0  0  0  0  0  0
   51.9230  160.7976   31.7919 H   0  0  0  0  0  0  0  0  0  0  0  0
   52.8385  160.5604   30.2648 H   0  0  0  0  0  0  0  0  0  0  0  0
   51.3282  161.5329   30.2648 H   0  0  0  0  0  0  0  0  0  0  0  0
   52.7559  158.6025   29.3741 H   0  0  0  0  0  0  0  0  0  0  0  0
   53.4607  157.5671   25.1638 H   0  0  0  0  0  0  0  0  0  0  0  0
   54.7940  156.1846   23.5690 H   0  0  0  0  0  0  0  0  0  0  0  0
   55.2134  153.7723   24.0528 H   0  0  0  0  0  0  0  0  0  0  0  0
   53.7080  151.8420   25.9940 H   0  0  0  0  0  0  0  0  0  0  0  0
   51.5390  154.8800   30.8750 H   0  0  0  0  0  0  0  0  0  0  0  0
   49.2978  156.0551   29.4507 H   0  0  0  0  0  0  0  0  0  0  0  0
   48.0768  157.7591   30.7576 H   0  0  0  0  0  0  0  0  0  0  0  0
   48.8234  162.3624   31.8730 H   0  0  0  0  0  0  0  0  0  0  0  0
   49.7310  161.7584   30.4455 H   0  0  0  0  0  0  0  0  0  0  0  0
   47.9349  161.7305   30.4455 H   0  0  0  0  0  0  0  0  0  0  0  0
   48.6076  160.1001   33.8495 H   0  0  0  0  0  0  0  0  0  0  0  0
   50.2826  159.7819   33.2841 H   0  0  0  0  0  0  0  0  0  0  0  0
   49.6380  161.4585   33.2841 H   0  0  0  0  0  0  0  0  0  0  0  0
   47.1586  159.5603   32.8788 H   0  0  0  0  0  0  0  0  0  0  0  0
   46.7182  160.3544   31.3290 H   0  0  0  0  0  0  0  0  0  0  0  0
   47.3479  158.6721   31.3290 H   0  0  0  0  0  0  0  0  0  0  0  0
  1  2  1  0
  2  3  2  0
  3  4  1  0
  4  5  1  0
  5  6  1  0
  6  7  1  0
  7  8  2  0
  8  9  1  0
  9 10  2  0
 10 11  1  0
 11 12  1  0
 11 13  2  0
 13 14  1  0
 14 15  2  0
 14 16  1  0
 16 17  1  0
  4 18  2  0
 18 19  1  0
 19 20  2  0
 20 21  1  0
 21 22  1  0
 21 23  1  0
 21 24  1  0
 20  2  1  0
 16  5  2  0
 13  7  1  0
  1 25  1  0
  1 26  1  0
  1 27  1  0
  3 28  1  0
  8 29  1  0
  9 30  1  0
 10 31  1  0
 12 32  1  0
 17 33  1  0
 18 34  1  0
 19 35  1  0
 22 36  1  0
 22 37  1  0
 22 38  1  0
 23 39  1  0
 23 40  1  0
 23 41  1  0
 24 42  1  0
 24 43  1  0
 24 44  1  0
M  END
>  <meeko>  (1) 
{"is_sidechain": [false], "free_energy": -11.63, "intermolecular_energy": -13.669, "internal_energy": -0.07}

$$$$
cand_043_out
     RDKit          3D

 44 46  0  0  0  0  0  0  0  0999 V2000
   48.1970  158.3520   30.8770 C   0  0  0  0  0  0  0  0  0  0  0  0
   49.6440  158.5250   30.4980 C   0  0  0  0  0  0  0  0  0  0  0  0
   50.1980  157.4670   29.7340 C   0  0  0  0  0  0  0  0  0  0  0  0
   51.5260  157.4700   29.2940 C   0  0  0  0  0  0  0  0  0  0  0  0
   52.0590  156.3220   28.5290 C   0  0  0  0  0  0  0  0  0  0  0  0
   52.6040  156.6940   27.3050 O   0  0  0  0  0  0  0  0  0  0  0  0
   53.1340  155.7250   26.4930 C   0  0  0  0  0  0  0  0  0  0  0  0
   53.6560  156.1410   25.2680 C   0  0  0  0  0  0  0  0  0  0  0  0
   54.2130  155.2050   24.3940 C   0  0  0  0  0  0  0  0  0  0  0  0
   54.2480  153.8540   24.7440 C   0  0  0  0  0  0  0  0  0  0  0  0
   53.7260  153.4410   25.9680 C   0  0  0  0  0  0  0  0  0  0  0  0
   53.7920  152.1030   26.2480 O   0  0  0  0  0  0  0  0  0  0  0  0
   53.1670  154.3780   26.8410 C   0  0  0  0  0  0  0  0  0  0  0  0
   52.6080  153.9870   28.1360 C   0  0  0  0  0  0  0  0  0  0  0  0
   52.6080  152.8180   28.5180 O   0  0  0  0  0  0  0  0  0  0  0  0
   52.0330  155.0550   28.9860 C   0  0  0  0  0  0  0  0  0  0  0  0
   51.5190  154.6750   30.2110 O   0  0  0  0  0  0  0  0  0  0  0  0
   52.3170  158.5570   29.6430 C   0  0  0  0  0  0  0  0  0  0  0  0
   51.7850  159.6200   30.3830 C   0  0  0  0  0  0  0  0  0  0  0  0
   50.4380  159.6570   30.8180 C   0  0  0  0  0  0  0  0  0  0  0  0
   49.9440  160.8860   31.6270 C   0  0  0  0  0  0  0  0  0  0  0  0
   51.0480  161.9430   31.8560 C   0  0  0  0  0  0  0  0  0  0  0  0
   49.4410  160.5220   33.0540 C   0  0  0  0  0  0  0  0  0  0  0  0
   48.7460  161.5270   30.8940 C   0  0  0  0  0  0  0  0  0  0  0  0
   48.1038  158.3409   31.9730 H   0  0  0  0  0  0  0  0  0  0  0  0
   47.6084  159.1862   30.4674 H   0  0  0  0  0  0  0  0  0  0  0  0
   47.8217  157.4026   30.4674 H   0  0  0  0  0  0  0  0  0  0  0  0
   49.5583  156.6098   29.4770 H   0  0  0  0  0  0  0  0  0  0  0  0
   53.6289  157.2052   24.9908 H   0  0  0  0  0  0  0  0  0  0  0  0
   54.6249  155.5328   23.4281 H   0  0  0  0  0  0  0  0  0  0  0  0
   54.6867  153.1172   24.0550 H   0  0  0  0  0  0  0  0  0  0  0  0
   54.3960  151.5570   25.7840 H   0  0  0  0  0  0  0  0  0  0  0  0
   50.5920  154.6580   30.3440 H   0  0  0  0  0  0  0  0  0  0  0  0
   53.3726  158.5831   29.3348 H   0  0  0  0  0  0  0  0  0  0  0  0
   52.4428  160.4640   30.6378 H   0  0  0  0  0  0  0  0  0  0  0  0
   51.1989  162.0875   32.9360 H   0  0  0  0  0  0  0  0  0  0  0  0
   51.9865  161.5982   31.3975 H   0  0  0  0  0  0  0  0  0  0  0  0
   50.7443  162.8957   31.3975 H   0  0  0  0  0  0  0  0  0  0  0  0
   50.0929  160.9938   33.8040 H   0  0  0  0  0  0  0  0  0  0  0  0
   48.4107  160.8851   33.1833 H   0  0  0  0  0  0  0  0  0  0  0  0
   49.4638  159.4299   33.1833 H   0  0  0  0  0  0  0  0  0  0  0  0
   48.0273  161.9115   31.6326 H   0  0  0  0  0  0  0  0  0  0  0  0
   49.1023  162.3550   30.2635 H   0  0  0  0  0  0  0  0  0  0  0  0
   48.2548  160.7712   30.2635 H   0  0  0  0  0  0  0  0  0  0  0  0
  1  2  1  0
  2  3  2  0
  3  4  1  0
  4  5  1  0
  5  6  1  0
  6  7  1  0
  7  8  2  0
  8  9  1  0
  9 10  2  0
 10 11  1  0
 11 12  1  0
 11 13  2  0
 13 14  1  0
 14 15  2  0
 14 16  1  0
 16 17  1  0
  4 18  2  0
 18 19  1  0
 19 20  2  0
 20 21  1  0
 21 22  1  0
 21 23  1  0
 21 24  1  0
 20  2  1  0
 16  5  2  0
 13  7  1  0
  1 25  1  0
  1 26  1  0
  1 27  1  0
  3 28  1  0
  8 29  1  0
  9 30  1  0
 10 31  1  0
 12 32  1  0
 17 33  1  0
 18 34  1  0
 19 35  1  0
 22 36  1  0
 22 37  1  0
 22 38  1  0
 23 39  1  0
 23 40  1  0
 23 41  1  0
 24 42  1  0
 24 43  1  0
 24 44  1  0
M  END
>  <meeko>  (2) 
{"is_sidechain": [false], "free_energy": -10.808, "intermolecular_energy": -12.778, "internal_energy": 0.005}

$$$$
cand_043_out
     RDKit          3D

 44 46  0  0  0  0  0  0  0  0999 V2000
   53.6570  156.3510   25.7500 C   0  0  0  0  0  0  0  0  0  0  0  0
   52.8490  155.9770   26.9650 C   0  0  0  0  0  0  0  0  0  0  0  0
   52.4080  157.0680   27.7560 C   0  0  0  0  0  0  0  0  0  0  0  0
   51.6440  156.8990   28.9150 C   0  0  0  0  0  0  0  0  0  0  0  0
   51.2430  158.0740   29.7190 C   0  0  0  0  0  0  0  0  0  0  0  0
   49.9180  158.0150   30.1370 O   0  0  0  0  0  0  0  0  0  0  0  0
   49.4150  159.0430   30.8920 C   0  0  0  0  0  0  0  0  0  0  0  0
   48.0760  158.9500   31.2770 C   0  0  0  0  0  0  0  0  0  0  0  0
   47.5020  159.9620   32.0490 C   0  0  0  0  0  0  0  0  0  0  0  0
   48.2630  161.0660   32.4360 C   0  0  0  0  0  0  0  0  0  0  0  0
   49.5990  161.1560   32.0510 C   0  0  0  0  0  0  0  0  0  0  0  0
   50.2870  162.2640   32.4640 O   0  0  0  0  0  0  0  0  0  0  0  0
   50.1730  160.1440   31.2770 C   0  0  0  0  0  0  0  0  0  0  0  0
   51.5720  160.1990   30.8510 C   0  0  0  0  0  0  0  0  0  0  0  0
   52.3090  161.1350   31.1570 O   0  0  0  0  0  0  0  0  0  0  0  0
   52.0830  159.0790   30.0270 C   0  0  0  0  0  0  0  0  0  0  0  0
   53.4090  159.1370   29.6410 O   0  0  0  0  0  0  0  0  0  0  0  0
   51.3270  155.6010   29.2920 C   0  0  0  0  0  0  0  0  0  0  0  0
   51.7380  154.5100   28.5160 C   0  0  0  0  0  0  0  0  0  0  0  0
   52.4880  154.6530   27.3250 C   0  0  0  0  0  0  0  0  0  0  0  0
   52.8880  153.3790   26.5320 C   0  0  0  0  0  0  0  0  0  0  0  0
   54.3200  152.8940   26.8510 C   0  0  0  0  0  0  0  0  0  0  0  0
   52.8720  153.5830   24.9900 C   0  0  0  0  0  0  0  0  0  0  0  0
   51.8730  152.2560   26.8330 C   0  0  0  0  0  0  0  0  0  0  0  0
   54.6128  156.7934   26.0673 H   0  0  0  0  0  0  0  0  0  0  0  0
   53.8514  155.4513   25.1477 H   0  0  0  0  0  0  0  0  0  0  0  0
   53.0968  157.0814   25.1477 H   0  0  0  0  0  0  0  0  0  0  0  0
   52.6777  158.0882   27.4455 H   0  0  0  0  0  0  0  0  0  0  0  0
   47.4744  158.0809   30.9726 H   0  0  0  0  0  0  0  0  0  0  0  0
   46.4473  159.8889   32.3529 H   0  0  0  0  0  0  0  0  0  0  0  0
   47.8092  161.8630   33.0434 H   0  0  0  0  0  0  0  0  0  0  0  0
   50.6360  162.8610   31.8320 H   0  0  0  0  0  0  0  0  0  0  0  0
   53.6370  159.4790   28.7990 H   0  0  0  0  0  0  0  0  0  0  0  0
   50.7467  155.4276   30.2102 H   0  0  0  0  0  0  0  0  0  0  0  0
   51.4656  153.4970   28.8472 H   0  0  0  0  0  0  0  0  0  0  0  0
   54.4570  152.8476   27.9414 H   0  0  0  0  0  0  0  0  0  0  0  0
   54.4731  151.8939   26.4193 H   0  0  0  0  0  0  0  0  0  0  0  0
   55.0493  153.5952   26.4193 H   0  0  0  0  0  0  0  0  0  0  0  0
   52.7878  154.6560   24.7629 H   0  0  0  0  0  0  0  0  0  0  0  0
   53.8038  153.1888   24.5583 H   0  0  0  0  0  0  0  0  0  0  0  0
   52.0130  153.0484   24.5583 H   0  0  0  0  0  0  0  0  0  0  0  0
   51.7675  152.1393   27.9217 H   0  0  0  0  0  0  0  0  0  0  0  0
   50.8977  152.5164   26.3959 H   0  0  0  0  0  0  0  0  0  0  0  0
   52.2304  151.3119   26.3959 H   0  0  0  0  0  0  0  0  0  0  0  0
  1  2  1  0
  2  3  2  0
  3  4  1  0
  4  5  1  0
  5  6  1  0
  6  7  1  0
  7  8  2  0
  8  9  1  0
  9 10  2  0
 10 11  1  0
 11 12  1  0
 11 13  2  0
 13 14  1  0
 14 15  2  0
 14 16  1  0
 16 17  1  0
  4 18  2  0
 18 19  1  0
 19 20  2  0
 20 21  1  0
 21 22  1  0
 21 23  1  0
 21 24  1  0
 20  2  1  0
 16  5  2  0
 13  7  1  0
  1 25  1  0
  1 26  1  0
  1 27  1  0
  3 28  1  0
  8 29  1  0
  9 30  1  0
 10 31  1  0
 12 32  1  0
 17 33  1  0
 18 34  1  0
 19 35  1  0
 22 36  1  0
 22 37  1  0
 22 38  1  0
 23 39  1  0
 23 40  1  0
 23 41  1  0
 24 42  1  0
 24 43  1  0
 24 44  1  0
M  END
>  <meeko>  (3) 
{"is_sidechain": [false], "free_energy": -9.966, "intermolecular_energy": -12.016, "internal_energy": 0.231}

$$$$
cand_043_out
     RDKit          3D

 44 46  0  0  0  0  0  0  0  0999 V2000
   53.8290  156.2010   25.4650 C   0  0  0  0  0  0  0  0  0  0  0  0
   53.0180  155.6690   26.6170 C   0  0  0  0  0  0  0  0  0  0  0  0
   52.4220  156.6550   27.4420 C   0  0  0  0  0  0  0  0  0  0  0  0
   51.6320  156.3340   28.5510 C   0  0  0  0  0  0  0  0  0  0  0  0
   51.0650  157.4070   29.3970 C   0  0  0  0  0  0  0  0  0  0  0  0
   51.9580  158.4490   29.6180 O   0  0  0  0  0  0  0  0  0  0  0  0
   51.5590  159.5110   30.3880 C   0  0  0  0  0  0  0  0  0  0  0  0
   52.4920  160.5270   30.5970 C   0  0  0  0  0  0  0  0  0  0  0  0
   52.1500  161.6390   31.3710 C   0  0  0  0  0  0  0  0  0  0  0  0
   50.8760  161.7340   31.9350 C   0  0  0  0  0  0  0  0  0  0  0  0
   49.9470  160.7190   31.7250 C   0  0  0  0  0  0  0  0  0  0  0  0
   48.7180  160.8750   32.3060 O   0  0  0  0  0  0  0  0  0  0  0  0
   50.2900  159.6060   30.9520 C   0  0  0  0  0  0  0  0  0  0  0  0
   49.3440  158.5160   30.7070 C   0  0  0  0  0  0  0  0  0  0  0  0
   48.2030  158.5310   31.1630 O   0  0  0  0  0  0  0  0  0  0  0  0
   49.8080  157.3790   29.8800 C   0  0  0  0  0  0  0  0  0  0  0  0
   48.9020  156.3610   29.6450 O   0  0  0  0  0  0  0  0  0  0  0  0
   51.4510  154.9880   28.8430 C   0  0  0  0  0  0  0  0  0  0  0  0
   52.0170  153.9980   28.0320 C   0  0  0  0  0  0  0  0  0  0  0  0
   52.7970  154.2930   26.8880 C   0  0  0  0  0  0  0  0  0  0  0  0
   53.3740  153.1210   26.0490 C   0  0  0  0  0  0  0  0  0  0  0  0
   54.8320  152.7700   26.4240 C   0  0  0  0  0  0  0  0  0  0  0  0
   53.4180  153.4190   24.5230 C   0  0  0  0  0  0  0  0  0  0  0  0
   52.4730  151.8810   26.2250 C   0  0  0  0  0  0  0  0  0  0  0  0
   54.6898  156.7657   25.8525 H   0  0  0  0  0  0  0  0  0  0  0  0
   54.1874  155.3620   24.8505 H   0  0  0  0  0  0  0  0  0  0  0  0
   53.2022  156.8639   24.8505 H   0  0  0  0  0  0  0  0  0  0  0  0
   52.5872  157.7154   27.2007 H   0  0  0  0  0  0  0  0  0  0  0  0
   53.4957  160.4528   30.1530 H   0  0  0  0  0  0  0  0  0  0  0  0
   52.8851  162.4405   31.5362 H   0  0  0  0  0  0  0  0  0  0  0  0
   50.6071  162.6095   32.5442 H   0  0  0  0  0  0  0  0  0  0  0  0
   48.0590  161.3850   31.8780 H   0  0  0  0  0  0  0  0  0  0  0  0
   48.9740  155.8420   28.8690 H   0  0  0  0  0  0  0  0  0  0  0  0
   50.8562  154.6972   29.7214 H   0  0  0  0  0  0  0  0  0  0  0  0
   51.8483  152.9434   28.2952 H   0  0  0  0  0  0  0  0  0  0  0  0
   54.9332  152.7456   27.5191 H   0  0  0  0  0  0  0  0  0  0  0  0
   55.0899  151.7841   26.0099 H   0  0  0  0  0  0  0  0  0  0  0  0
   55.5103  153.5305   26.0099 H   0  0  0  0  0  0  0  0  0  0  0  0
   53.5770  154.4958   24.3641 H   0  0  0  0  0  0  0  0  0  0  0  0
   54.2426  152.8548   24.0629 H   0  0  0  0  0  0  0  0  0  0  0  0
   52.4656  153.1172   24.0629 H   0  0  0  0  0  0  0  0  0  0  0  0
   52.3284  151.6820   27.2971 H   0  0  0  0  0  0  0  0  0  0  0  0
   51.4975  152.0664   25.7517 H   0  0  0  0  0  0  0  0  0  0  0  0
   52.9507  151.0105   25.7517 H   0  0  0  0  0  0  0  0  0  0  0  0
  1  2  1  0
  2  3  2  0
  3  4  1  0
  4  5  1  0
  5  6  1  0
  6  7  1  0
  7  8  2  0
  8  9  1  0
  9 10  2  0
 10 11  1  0
 11 12  1  0
 11 13  2  0
 13 14  1  0
 14 15  2  0
 14 16  1  0
 16 17  1  0
  4 18  2  0
 18 19  1  0
 19 20  2  0
 20 21  1  0
 21 22  1  0
 21 23  1  0
 21 24  1  0
 20  2  1  0
 16  5  2  0
 13  7  1  0
  1 25  1  0
  1 26  1  0
  1 27  1  0
  3 28  1  0
  8 29  1  0
  9 30  1  0
 10 31  1  0
 12 32  1  0
 17 33  1  0
 18 34  1  0
 19 35  1  0
 22 36  1  0
 22 37  1  0
 22 38  1  0
 23 39  1  0
 23 40  1  0
 23 41  1  0
 24 42  1  0
 24 43  1  0
 24 44  1  0
M  END
>  <meeko>  (4) 
{"is_sidechain": [false], "free_energy": -8.956, "intermolecular_energy": -10.801, "internal_energy": 0.204}

$$$$
