cand_005_out
     RDKit          3D

 36 38  0  0  0  0  0  0  0  0999 V2000
   47.3590  159.4480   30.8660 C   0  0  0  0  0  0  0  0  0  0  0  0
   48.4010  158.8180   31.4190 C   0  0  0  0  0  0  0  0  0  0  0  0
   49.7520  158.8680   30.8450 C   0  0  0  0  0  0  0  0  0  0  0  0
   50.2210  157.7570   30.1200 C   0  0  0  0  0  0  0  0  0  0  0  0
   51.5080  157.7340   29.5610 C   0  0  0  0  0  0  0  0  0  0  0  0
   51.9510  156.5570   28.7850 C   0  0  0  0  0  0  0  0  0  0  0  0
   52.5080  156.8960   27.5580 O   0  0  0  0  0  0  0  0  0  0  0  0
   52.9590  155.8950   26.7360 C   0  0  0  0  0  0  0  0  0  0  0  0
   53.5240  156.2800   25.5180 C   0  0  0  0  0  0  0  0  0  0  0  0
   54.0010  155.3110   24.6340 C   0  0  0  0  0  0  0  0  0  0  0  0
   53.9150  153.9570   24.9660 C   0  0  0  0  0  0  0  0  0  0  0  0
   53.3500  153.5750   26.1800 C   0  0  0  0  0  0  0  0  0  0  0  0
   53.2970  152.2340   26.4410 O   0  0  0  0  0  0  0  0  0  0  0  0
   52.8730  154.5460   27.0650 C   0  0  0  0  0  0  0  0  0  0  0  0
   52.2740  154.1870   28.3520 C   0  0  0  0  0  0  0  0  0  0  0  0
   52.1560  153.0180   28.7120 O   0  0  0  0  0  0  0  0  0  0  0  0
   51.8050  155.2920   29.2200 C   0  0  0  0  0  0  0  0  0  0  0  0
   51.2270  154.9420   30.4260 O   0  0  0  0  0  0  0  0  0  0  0  0
   52.3240  158.8570   29.7270 C   0  0  0  0  0  0  0  0  0  0  0  0
   51.8730  159.9660   30.4490 C   0  0  0  0  0  0  0  0  0  0  0  0
   50.5870  159.9870   31.0190 C   0  0  0  0  0  0  0  0  0  0  0  0
   50.1300  161.2070   31.7830 C   0  0  0  0  0  0  0  0  0  0  0  0
   49.1330  161.8890   31.1540 F   0  0  0  0  0  0  0  0  0  0  0  0
   51.1240  162.1210   31.9820 F   0  0  0  0  0  0  0  0  0  0  0  0
   49.6620  160.9110   33.0290 F   0  0  0  0  0  0  0  0  0  0  0  0
   46.3651  159.3814   31.3327 H   0  0  0  0  0  0  0  0  0  0  0  0
   47.4958  160.0328   29.9444 H   0  0  0  0  0  0  0  0  0  0  0  0
   48.2398  158.2393   32.3405 H   0  0  0  0  0  0  0  0  0  0  0  0
   49.5629  156.8855   29.9882 H   0  0  0  0  0  0  0  0  0  0  0  0
   53.5930  157.3460   25.2557 H   0  0  0  0  0  0  0  0  0  0  0  0
   54.4453  155.6141   23.6744 H   0  0  0  0  0  0  0  0  0  0  0  0
   54.2929  153.1939   24.2697 H   0  0  0  0  0  0  0  0  0  0  0  0
   53.9290  151.6570   26.0600 H   0  0  0  0  0  0  0  0  0  0  0  0
   50.2960  154.8710   30.4980 H   0  0  0  0  0  0  0  0  0  0  0  0
   53.3312  158.8681   29.2850 H   0  0  0  0  0  0  0  0  0  0  0  0
   52.5343  160.8362   30.5734 H   0  0  0  0  0  0  0  0  0  0  0  0
  1  2  2  0
  2  3  1  0
  3  4  2  0
  4  5  1  0
  5  6  1  0
  6  7  1  0
  7  8  1  0
  8  9  2  0
  9 10  1  0
 10 11  2  0
 11 12  1  0
 12 13  1  0
 12 14  2  0
 14 15  1  0
 15 16  2  0
 15 17  1  0
 17 18  1  0
  5 19  2  0
 19 20  1  0
 20 21  2  0
 21 22  1  0
 22 23  1  0
 22 24  1  0
 22 25  1  0
 21  3  1  0
 17  6  2  0
 14  8  1  0
  1 26  1  0
  1 27  1  0
  2 28  1  0
  4 29  1  0
  9 30  1  0
 10 31  1  0
 11 32  1  0
 13 33  1  0
 18 34  1  0
 19 35  1  0
 20 36  1  0
M  END
>  <meeko>  (1) 
{"is_sidechain": [false], "free_energy": -11.131, "intermolecular_energy": -13.734, "internal_energy": -0.075}

$$$$
cand_005_out
     RDKit          3D

 36 38  0  0  0  0  0  0  0  0999 V2000
   52.7410  161.3460   30.5190 C   0  0  0  0  0  0  0  0  0  0  0  0
   51.6890  160.9070   31.2190 C   0  0  0  0  0  0  0  0  0  0  0  0
   50.9200  159.7180   30.8280 C   0  0  0  0  0  0  0  0  0  0  0  0
   51.5640  158.7090   30.0880 C   0  0  0  0  0  0  0  0  0  0  0  0
   50.8820  157.5570   29.6670 C   0  0  0  0  0  0  0  0  0  0  0  0
   51.6040  156.5100   28.9140 C   0  0  0  0  0  0  0  0  0  0  0  0
   52.1260  156.9710   27.7120 O   0  0  0  0  0  0  0  0  0  0  0  0
   52.8200  156.0980   26.9130 C   0  0  0  0  0  0  0  0  0  0  0  0
   53.3390  156.6070   25.7210 C   0  0  0  0  0  0  0  0  0  0  0  0
   54.0540  155.7710   24.8610 C   0  0  0  0  0  0  0  0  0  0  0  0
   54.2500  154.4290   25.1910 C   0  0  0  0  0  0  0  0  0  0  0  0
   53.7300  153.9240   26.3810 C   0  0  0  0  0  0  0  0  0  0  0  0
   53.9590  152.6010   26.6410 O   0  0  0  0  0  0  0  0  0  0  0  0
   53.0160  154.7610   27.2410 C   0  0  0  0  0  0  0  0  0  0  0  0
   52.4540  154.2700   28.5010 C   0  0  0  0  0  0  0  0  0  0  0  0
   52.5770  153.1010   28.8590 O   0  0  0  0  0  0  0  0  0  0  0  0
   51.7180  155.2400   29.3450 C   0  0  0  0  0  0  0  0  0  0  0  0
   51.1780  154.7640   30.5260 O   0  0  0  0  0  0  0  0  0  0  0  0
   49.5340  157.4200   30.0130 C   0  0  0  0  0  0  0  0  0  0  0  0
   48.8800  158.4170   30.7430 C   0  0  0  0  0  0  0  0  0  0  0  0
   49.5590  159.5770   31.1570 C   0  0  0  0  0  0  0  0  0  0  0  0
   48.8230  160.6280   31.9540 C   0  0  0  0  0  0  0  0  0  0  0  0
   49.3330  160.8050   33.2040 F   0  0  0  0  0  0  0  0  0  0  0  0
   47.5030  160.3350   32.1400 F   0  0  0  0  0  0  0  0  0  0  0  0
   48.8370  161.8550   31.3590 F   0  0  0  0  0  0  0  0  0  0  0  0
   53.2870  162.2417   30.8502 H   0  0  0  0  0  0  0  0  0  0  0  0
   53.0601  160.8113   29.6122 H   0  0  0  0  0  0  0  0  0  0  0  0
   51.3881  161.4577   32.1224 H   0  0  0  0  0  0  0  0  0  0  0  0
   52.6277  158.8261   29.8334 H   0  0  0  0  0  0  0  0  0  0  0  0
   53.1850  157.6644   25.4599 H   0  0  0  0  0  0  0  0  0  0  0  0
   54.4636  156.1708   23.9216 H   0  0  0  0  0  0  0  0  0  0  0  0
   54.8138  153.7714   24.5130 H   0  0  0  0  0  0  0  0  0  0  0  0
   53.3260  151.9570   26.3920 H   0  0  0  0  0  0  0  0  0  0  0  0
   51.6270  154.1020   31.0140 H   0  0  0  0  0  0  0  0  0  0  0  0
   48.9826  156.5185   29.7077 H   0  0  0  0  0  0  0  0  0  0  0  0
   47.8172  158.2922   30.9977 H   0  0  0  0  0  0  0  0  0  0  0  0
  1  2  2  0
  2  3  1  0
  3  4  2  0
  4  5  1  0
  5  6  1  0
  6  7  1  0
  7  8  1  0
  8  9  2  0
  9 10  1  0
 10 11  2  0
 11 12  1  0
 12 13  1  0
 12 14  2  0
 14 15  1  0
 15 16  2  0
 15 17  1  0
 17 18  1  0
  5 19  2  0
 19 20  1  0
 20 21  2  0
 21 22  1  0
 22 23  1  0
 22 24  1  0
 22 25  1  0
 21  3  1  0
 17  6  2  0
 14  8  1  0
  1 26  1  0
  1 27  1  0
  2 28  1  0
  4 29  1  0
  9 30  1  0
 10 31  1  0
 11 32  1  0
 13 33  1  0
 18 34  1  0
 19 35  1  0
 20 36  1  0
M  END
>  <meeko>  (2) 
{"is_sidechain": [false], "free_energy": -11.064, "intermolecular_energy": -13.295, "internal_energy": -0.431}

$$$$
cand_005_out
     RDKit          3D

 36 38  0  0  0  0  0  0  0  0999 V2000
   47.7060  159.0710   30.4360 C   0  0  0  0  0  0  0  0  0  0  0  0
   48.7630  158.5600   31.0780 C   0  0  0  0  0  0  0  0  0  0  0  0
   50.0950  158.4750   30.4650 C   0  0  0  0  0  0  0  0  0  0  0  0
   50.4540  157.2950   29.7880 C   0  0  0  0  0  0  0  0  0  0  0  0
   51.7170  157.1420   29.1960 C   0  0  0  0  0  0  0  0  0  0  0  0
   52.0430  155.8950   28.4720 C   0  0  0  0  0  0  0  0  0  0  0  0
   52.5420  156.1260   27.1950 O   0  0  0  0  0  0  0  0  0  0  0  0
   52.8830  155.0520   26.4130 C   0  0  0  0  0  0  0  0  0  0  0  0
   53.3920  155.3290   25.1430 C   0  0  0  0  0  0  0  0  0  0  0  0
   53.7580  154.2820   24.2960 C   0  0  0  0  0  0  0  0  0  0  0  0
   53.6160  152.9580   24.7170 C   0  0  0  0  0  0  0  0  0  0  0  0
   53.1060  152.6840   25.9840 C   0  0  0  0  0  0  0  0  0  0  0  0
   52.9930  151.3670   26.3320 O   0  0  0  0  0  0  0  0  0  0  0  0
   52.7420  153.7330   26.8320 C   0  0  0  0  0  0  0  0  0  0  0  0
   52.2040  153.4880   28.1720 C   0  0  0  0  0  0  0  0  0  0  0  0
   52.0420  152.3530   28.6120 O   0  0  0  0  0  0  0  0  0  0  0  0
   51.8530  154.6700   28.9940 C   0  0  0  0  0  0  0  0  0  0  0  0
   51.3320  154.4290   30.2520 O   0  0  0  0  0  0  0  0  0  0  0  0
   52.6220  158.2040   29.2810 C   0  0  0  0  0  0  0  0  0  0  0  0
   52.2810  159.3800   29.9550 C   0  0  0  0  0  0  0  0  0  0  0  0
   51.0190  159.5310   30.5570 C   0  0  0  0  0  0  0  0  0  0  0  0
   50.6810  160.8200   31.2680 C   0  0  0  0  0  0  0  0  0  0  0  0
   50.2490  160.6290   32.5460 F   0  0  0  0  0  0  0  0  0  0  0  0
   49.6900  161.5300   30.6530 F   0  0  0  0  0  0  0  0  0  0  0  0
   51.7380  161.6780   31.3480 F   0  0  0  0  0  0  0  0  0  0  0  0
   46.7270  159.1141   30.9358 H   0  0  0  0  0  0  0  0  0  0  0  0
   47.8161  159.4480   29.4085 H   0  0  0  0  0  0  0  0  0  0  0  0
   48.6291  158.1891   32.1049 H   0  0  0  0  0  0  0  0  0  0  0  0
   49.7269  156.4723   29.7212 H   0  0  0  0  0  0  0  0  0  0  0  0
   53.5045  156.3714   24.8102 H   0  0  0  0  0  0  0  0  0  0  0  0
   54.1590  154.4999   23.2951 H   0  0  0  0  0  0  0  0  0  0  0  0
   53.9063  152.1332   24.0495 H   0  0  0  0  0  0  0  0  0  0  0  0
   52.5200  150.7750   25.7810 H   0  0  0  0  0  0  0  0  0  0  0  0
   50.5930  153.8620   30.3530 H   0  0  0  0  0  0  0  0  0  0  0  0
   53.6131  158.1132   28.8125 H   0  0  0  0  0  0  0  0  0  0  0  0
   53.0113  160.2004   30.0155 H   0  0  0  0  0  0  0  0  0  0  0  0
  1  2  2  0
  2  3  1  0
  3  4  2  0
  4  5  1  0
  5  6  1  0
  6  7  1  0
  7  8  1  0
  8  9  2  0
  9 10  1  0
 10 11  2  0
 11 12  1  0
 12 13  1  0
 12 14  2  0
 14 15  1  0
 15 16  2  0
 15 17  1  0
 17 18  1  0
  5 19  2  0
 19 20  1  0
 20 21  2  0
 21 22  1  0
 22 23  1  0
 22 24  1  0
 22 25  1  0
 21  3  1  0
 17  6  2  0
 14  8  1  0
  1 26  1  0
  1 27  1  0
  2 28  1  0
  4 29  1  0
  9 30  1  0
 10 31  1  0
 11 32  1  0
 13 33  1  0
 18 34  1  0
 19 35  1  0
 20 36  1  0
M  END
>  <meeko>  (3) 
{"is_sidechain": [false], "free_energy": -11.059, "intermolecular_energy": -13.471, "internal_energy": -0.249}

$$$$
cand_005_out
     RDKit          3D

 36 38  0  0  0  0  0  0  0  0999 V2000
   54.0530  156.5550   25.0120 C   0  0  0  0  0  0  0  0  0  0  0  0
   53.6750  155.3580   25.4730 C   0  0  0  0  0  0  0  0  0  0  0  0
   52.9190  155.1930   26.7210 C   0  0  0  0  0  0  0  0  0  0  0  0
   52.5620  156.3410   27.4520 C   0  0  0  0  0  0  0  0  0  0  0  0
   51.8560  156.2530   28.6620 C   0  0  0  0  0  0  0  0  0  0  0  0
   51.4800  157.4860   29.3850 C   0  0  0  0  0  0  0  0  0  0  0  0
   50.1470  157.4960   29.7790 O   0  0  0  0  0  0  0  0  0  0  0  0
   49.6650  158.5860   30.4580 C   0  0  0  0  0  0  0  0  0  0  0  0
   48.3250  158.5500   30.8460 C   0  0  0  0  0  0  0  0  0  0  0  0
   47.7720  159.6270   31.5400 C   0  0  0  0  0  0  0  0  0  0  0  0
   48.5560  160.7410   31.8460 C   0  0  0  0  0  0  0  0  0  0  0  0
   49.8930  160.7750   31.4560 C   0  0  0  0  0  0  0  0  0  0  0  0
   50.6030  161.8960   31.7880 O   0  0  0  0  0  0  0  0  0  0  0  0
   50.4470  159.6960   30.7630 C   0  0  0  0  0  0  0  0  0  0  0  0
   51.8470  159.6920   30.3370 C   0  0  0  0  0  0  0  0  0  0  0  0
   52.6000  160.6370   30.5620 O   0  0  0  0  0  0  0  0  0  0  0  0
   52.3380  158.4970   29.6130 C   0  0  0  0  0  0  0  0  0  0  0  0
   53.6580  158.5080   29.2010 O   0  0  0  0  0  0  0  0  0  0  0  0
   51.4960  154.9850   29.1290 C   0  0  0  0  0  0  0  0  0  0  0  0
   51.8480  153.8360   28.4160 C   0  0  0  0  0  0  0  0  0  0  0  0
   52.5650  153.9220   27.2090 C   0  0  0  0  0  0  0  0  0  0  0  0
   52.9180  152.6590   26.4590 C   0  0  0  0  0  0  0  0  0  0  0  0
   54.2250  152.3020   26.5990 F   0  0  0  0  0  0  0  0  0  0  0  0
   52.7120  152.7560   25.1130 F   0  0  0  0  0  0  0  0  0  0  0  0
   52.1850  151.5800   26.8560 F   0  0  0  0  0  0  0  0  0  0  0  0
   54.6184  156.6286   24.0713 H   0  0  0  0  0  0  0  0  0  0  0  0
   53.7985  157.4660   25.5735 H   0  0  0  0  0  0  0  0  0  0  0  0
   53.9410  154.4612   24.8942 H   0  0  0  0  0  0  0  0  0  0  0  0
   52.8431  157.3319   27.0657 H   0  0  0  0  0  0  0  0  0  0  0  0
   47.7054  157.6737   30.6051 H   0  0  0  0  0  0  0  0  0  0  0  0
   46.7160  159.5982   31.8467 H   0  0  0  0  0  0  0  0  0  0  0  0
   48.1193  161.5893   32.3934 H   0  0  0  0  0  0  0  0  0  0  0  0
   50.1550  162.6980   31.9730 H   0  0  0  0  0  0  0  0  0  0  0  0
   54.3450  158.3560   29.8210 H   0  0  0  0  0  0  0  0  0  0  0  0
   50.9298  154.8911   30.0674 H   0  0  0  0  0  0  0  0  0  0  0  0
   51.5597  152.8483   28.8049 H   0  0  0  0  0  0  0  0  0  0  0  0
  1  2  2  0
  2  3  1  0
  3  4  2  0
  4  5  1  0
  5  6  1  0
  6  7  1  0
  7  8  1  0
  8  9  2  0
  9 10  1  0
 10 11  2  0
 11 12  1  0
 12 13  1  0
 12 14  2  0
 14 15  1  0
 15 16  2  0
 15 17  1  0
 17 18  1  0
  5 19  2  0
 19 20  1  0
 20 21  2  0
 21 22  1  0
 22 23  1  0
 22 24  1  0
 22 25  1  0
 21  3  1  0
 17  6  2  0
 14  8  1  0
  1 26  1  0
  1 27  1  0
  2 28  1  0
  4 29  1  0
  9 30  1  0
 10 31  1  0
 11 32  1  0
 13 33  1  0
 18 34  1  0
 19 35  1  0
 20 36  1  0
M  END
>  <meeko>  (4) 
{"is_sidechain": [false], "free_energy": -11.015, "intermolecular_energy": -13.504, "internal_energy": -0.163}

$$$$
cand_005_out
     RDKit          3D

 36 38  0  0  0  0  0  0  0  0999 V2000
   54.1730  156.6210   25.2010 C   0  0  0  0  0  0  0  0  0  0  0  0
   53.4980  155.4830   25.4060 C   0  0  0  0  0  0  0  0  0  0  0  0
   52.8110  155.1890   26.6700 C   0  0  0  0  0  0  0  0  0  0  0  0
   52.2880  156.2580   27.4210 C   0  0  0  0  0  0  0  0  0  0  0  0
   51.6360  156.0470   28.6460 C   0  0  0  0  0  0  0  0  0  0  0  0
   51.0780  157.1960   29.3890 C   0  0  0  0  0  0  0  0  0  0  0  0
   52.0180  158.1910   29.6300 O   0  0  0  0  0  0  0  0  0  0  0  0
   51.6310  159.3160   30.3140 C   0  0  0  0  0  0  0  0  0  0  0  0
   52.6030  160.2960   30.5230 C   0  0  0  0  0  0  0  0  0  0  0  0
   52.2760  161.4640   31.2140 C   0  0  0  0  0  0  0  0  0  0  0  0
   50.9790  161.6540   31.6960 C   0  0  0  0  0  0  0  0  0  0  0  0
   50.0120  160.6740   31.4870 C   0  0  0  0  0  0  0  0  0  0  0  0
   48.7630  160.9230   31.9860 O   0  0  0  0  0  0  0  0  0  0  0  0
   50.3390  159.5050   30.7950 C   0  0  0  0  0  0  0  0  0  0  0  0
   49.3520  158.4510   30.5530 C   0  0  0  0  0  0  0  0  0  0  0  0
   48.1930  158.5400   30.9520 O   0  0  0  0  0  0  0  0  0  0  0  0
   49.8000  157.2540   29.8040 C   0  0  0  0  0  0  0  0  0  0  0  0
   48.8640  156.2570   29.5940 O   0  0  0  0  0  0  0  0  0  0  0  0
   51.5010  154.7340   29.1080 C   0  0  0  0  0  0  0  0  0  0  0  0
   52.0210  153.6630   28.3760 C   0  0  0  0  0  0  0  0  0  0  0  0
   52.6830  153.8740   27.1530 C   0  0  0  0  0  0  0  0  0  0  0  0
   53.2220  152.6910   26.3830 C   0  0  0  0  0  0  0  0  0  0  0  0
   54.5540  152.4860   26.5810 F   0  0  0  0  0  0  0  0  0  0  0  0
   53.0720  152.8150   25.0320 F   0  0  0  0  0  0  0  0  0  0  0  0
   52.6050  151.5190   26.7060 F   0  0  0  0  0  0  0  0  0  0  0  0
   54.6726  156.7982   24.2371 H   0  0  0  0  0  0  0  0  0  0  0  0
   54.2280  157.3788   25.9965 H   0  0  0  0  0  0  0  0  0  0  0  0
   53.4565  154.7396   24.5963 H   0  0  0  0  0  0  0  0  0  0  0  0
   52.3927  157.2841   27.0387 H   0  0  0  0  0  0  0  0  0  0  0  0
   53.6249  160.1481   30.1438 H   0  0  0  0  0  0  0  0  0  0  0  0
   53.0415  162.2364   31.3793 H   0  0  0  0  0  0  0  0  0  0  0  0
   50.7220  162.5753   32.2393 H   0  0  0  0  0  0  0  0  0  0  0  0
   48.5280  160.6140   32.8380 H   0  0  0  0  0  0  0  0  0  0  0  0
   49.1370  155.4140   29.2910 H   0  0  0  0  0  0  0  0  0  0  0  0
   50.9800  154.5421   30.0576 H   0  0  0  0  0  0  0  0  0  0  0  0
   51.9108  152.6390   28.7623 H   0  0  0  0  0  0  0  0  0  0  0  0
  1  2  2  0
  2  3  1  0
  3  4  2  0
  4  5  1  0
  5  6  1  0
  6  7  1  0
  7  8  1  0
  8  9  2  0
  9 10  1  0
 10 11  2  0
 11 12  1  0
 12 13  1  0
 12 14  2  0
 14 15  1  0
 15 16  2  0
 15 17  1  0
 17 18  1  0
  5 19  2  0
 19 20  1  0
 20 21  2  0
 21 22  1  0
 22 23  1  0
 22 24  1  0
 22 25  1  0
 21  3  1  0
 17  6  2  0
 14  8  1  0
  1 26  1  0
  1 27  1  0
  2 28  1  0
  4 29  1  0
  9 30  1  0
 10 31  1  0
 11 32  1  0
 13 33  1  0
 18 34  1  0
 19 35  1  0
 20 36  1  0
M  END
>  <meeko>  (5) 
{"is_sidechain": [false], "free_energy": -9.62, "intermolecular_energy": -11.733, "internal_energy": -0.211}

$$$$
cand_005_out
     RDKit          3D

 36 38  0  0  0  0  0  0  0  0999 V2000
   51.4350  152.4450   28.2210 C   0  0  0  0  0  0  0  0  0  0  0  0
   52.2020  153.3500   28.8390 C   0  0  0  0  0  0  0  0  0  0  0  0
   52.3490  154.7270   28.3510 C   0  0  0  0  0  0  0  0  0  0  0  0
   51.8710  155.7830   29.1500 C   0  0  0  0  0  0  0  0  0  0  0  0
   51.9640  157.1200   28.7330 C   0  0  0  0  0  0  0  0  0  0  0  0
   51.4730  158.1990   29.6160 C   0  0  0  0  0  0  0  0  0  0  0  0
   50.1270  158.0650   29.9370 O   0  0  0  0  0  0  0  0  0  0  0  0
   49.5440  159.0030   30.7500 C   0  0  0  0  0  0  0  0  0  0  0  0
   48.1940  158.8230   31.0590 C   0  0  0  0  0  0  0  0  0  0  0  0
   47.5390  159.7420   31.8790 C   0  0  0  0  0  0  0  0  0  0  0  0
   48.2310  160.8420   32.3920 C   0  0  0  0  0  0  0  0  0  0  0  0
   49.5770  161.0200   32.0810 C   0  0  0  0  0  0  0  0  0  0  0  0
   50.1930  162.1180   32.6160 O   0  0  0  0  0  0  0  0  0  0  0  0
   50.2330  160.0990   31.2610 C   0  0  0  0  0  0  0  0  0  0  0  0
   51.6460  160.2490   30.9110 C   0  0  0  0  0  0  0  0  0  0  0  0
   52.3210  161.1930   31.3160 O   0  0  0  0  0  0  0  0  0  0  0  0
   52.2490  159.2140   30.0390 C   0  0  0  0  0  0  0  0  0  0  0  0
   53.5800  159.3720   29.7020 O   0  0  0  0  0  0  0  0  0  0  0  0
   52.5600  157.3910   27.4980 C   0  0  0  0  0  0  0  0  0  0  0  0
   53.0350  156.3520   26.6920 C   0  0  0  0  0  0  0  0  0  0  0  0
   52.9330  155.0110   27.1030 C   0  0  0  0  0  0  0  0  0  0  0  0
   53.4670  153.9150   26.2100 C   0  0  0  0  0  0  0  0  0  0  0  0
   54.1210  152.9370   26.8960 F   0  0  0  0  0  0  0  0  0  0  0  0
   54.3610  154.3650   25.2820 F   0  0  0  0  0  0  0  0  0  0  0  0
   52.4910  153.2890   25.4930 F   0  0  0  0  0  0  0  0  0  0  0  0
   51.3554  151.4245   28.6238 H   0  0  0  0  0  0  0  0  0  0  0  0
   50.8838  152.7213   27.3100 H   0  0  0  0  0  0  0  0  0  0  0  0
   52.7438  153.0509   29.7484 H   0  0  0  0  0  0  0  0  0  0  0  0
   51.4138  155.5549   30.1241 H   0  0  0  0  0  0  0  0  0  0  0  0
   47.6477  157.9574   30.6562 H   0  0  0  0  0  0  0  0  0  0  0  0
   46.4756  159.6004   32.1222 H   0  0  0  0  0  0  0  0  0  0  0  0
   47.7143  161.5655   33.0397 H   0  0  0  0  0  0  0  0  0  0  0  0
   51.1150  162.2400   32.5020 H   0  0  0  0  0  0  0  0  0  0  0  0
   53.8900  159.0860   28.8650 H   0  0  0  0  0  0  0  0  0  0  0  0
   52.6563  158.4323   27.1568 H   0  0  0  0  0  0  0  0  0  0  0  0
   53.4957  156.5872   25.7212 H   0  0  0  0  0  0  0  0  0  0  0  0
  1  2  2  0
  2  3  1  0
  3  4  2  0
  4  5  1  0
  5  6  1  0
  6  7  1  0
  7  8  1  0
  8  9  2  0
  9 10  1  0
 10 11  2  0
 11 12  1  0
 12 13  1  0
 12 14  2  0
 14 15  1  0
 15 16  2  0
 15 17  1  0
 17 18  1  0
  5 19  2  0
 19 20  1  0
 20 21  2  0
 21 22  1  0
 22 23  1  0
 22 24  1  0
 22 25  1  0
 21  3  1  0
 17  6  2  0
 14  8  1  0
  1 26  1  0
  1 27  1  0
  2 28  1  0
  4 29  1  0
  9 30  1  0
 10 31  1  0
 11 32  1  0
 13 33  1  0
 18 34  1  0
 19 35  1  0
 20 36  1  0
M  END
>  <meeko>  (6) 
{"is_sidechain": [false], "free_energy": -8.921, "intermolecular_energy": -11.273, "internal_energy": 0.192}

$$$$
cand_005_out
     RDKit          3D

 36 38  0  0  0  0  0  0  0  0999 V2000
   51.5740  152.1450   27.8070 C   0  0  0  0  0  0  0  0  0  0  0  0
   52.3890  153.0160   28.4120 C   0  0  0  0  0  0  0  0  0  0  0  0
   52.4630  154.4300   28.0240 C   0  0  0  0  0  0  0  0  0  0  0  0
   51.8400  155.3900   28.8440 C   0  0  0  0  0  0  0  0  0  0  0  0
   51.8570  156.7560   28.5210 C   0  0  0  0  0  0  0  0  0  0  0  0
   51.2120  157.7320   29.4240 C   0  0  0  0  0  0  0  0  0  0  0  0
   52.0230  158.8250   29.7060 O   0  0  0  0  0  0  0  0  0  0  0  0
   51.5450  159.8080   30.5350 C   0  0  0  0  0  0  0  0  0  0  0  0
   52.3870  160.8940   30.7820 C   0  0  0  0  0  0  0  0  0  0  0  0
   51.9630  161.9270   31.6180 C   0  0  0  0  0  0  0  0  0  0  0  0
   50.6980  161.8770   32.2090 C   0  0  0  0  0  0  0  0  0  0  0  0
   49.8610  160.7920   31.9620 C   0  0  0  0  0  0  0  0  0  0  0  0
   48.6370  160.8060   32.5720 O   0  0  0  0  0  0  0  0  0  0  0  0
   50.2850  159.7580   31.1240 C   0  0  0  0  0  0  0  0  0  0  0  0
   49.4360  158.6000   30.8380 C   0  0  0  0  0  0  0  0  0  0  0  0
   48.3140  158.4790   31.3240 O   0  0  0  0  0  0  0  0  0  0  0  0
   49.9780  157.5610   29.9310 C   0  0  0  0  0  0  0  0  0  0  0  0
   49.1740  156.4650   29.6790 O   0  0  0  0  0  0  0  0  0  0  0  0
   52.5260  157.1540   27.3590 C   0  0  0  0  0  0  0  0  0  0  0  0
   53.1440  156.2120   26.5330 C   0  0  0  0  0  0  0  0  0  0  0  0
   53.1190  154.8420   26.8500 C   0  0  0  0  0  0  0  0  0  0  0  0
   53.8080  153.8530   25.9390 C   0  0  0  0  0  0  0  0  0  0  0  0
   52.9470  153.1970   25.1130 F   0  0  0  0  0  0  0  0  0  0  0  0
   54.4760  152.8730   26.6160 F   0  0  0  0  0  0  0  0  0  0  0  0
   54.7430  154.4320   25.1330 F   0  0  0  0  0  0  0  0  0  0  0  0
   51.5527  151.0944   28.1323 H   0  0  0  0  0  0  0  0  0  0  0  0
   50.9250  152.4793   26.9842 H   0  0  0  0  0  0  0  0  0  0  0  0
   53.0289  152.6589   29.2324 H   0  0  0  0  0  0  0  0  0  0  0  0
   51.3274  155.0616   29.7602 H   0  0  0  0  0  0  0  0  0  0  0  0
   53.3835  160.9349   30.3179 H   0  0  0  0  0  0  0  0  0  0  0  0
   52.6261  162.7829   31.8124 H   0  0  0  0  0  0  0  0  0  0  0  0
   50.3642  162.6924   32.8675 H   0  0  0  0  0  0  0  0  0  0  0  0
   47.8570  160.8800   32.0580 H   0  0  0  0  0  0  0  0  0  0  0  0
   48.4020  156.5590   29.1570 H   0  0  0  0  0  0  0  0  0  0  0  0
   52.5660  158.2205   27.0926 H   0  0  0  0  0  0  0  0  0  0  0  0
   53.6583  156.5471   25.6202 H   0  0  0  0  0  0  0  0  0  0  0  0
  1  2  2  0
  2  3  1  0
  3  4  2  0
  4  5  1  0
  5  6  1  0
  6  7  1  0
  7  8  1  0
  8  9  2  0
  9 10  1  0
 10 11  2  0
 11 12  1  0
 12 13  1  0
 12 14  2  0
 14 15  1  0
 15 16  2  0
 15 17  1  0
 17 18  1  0
  5 19  2  0
 19 20  1  0
 20 21  2  0
 21 22  1  0
 22 23  1  0
 22 24  1  0
 22 25  1  0
 21  3  1  0
 17  6  2  0
 14  8  1  0
  1 26  1  0
  1 27  1  0
  2 28  1  0
  4 29  1  0
  9 30  1  0
 10 31  1  0
 11 32  1  0
 13 33  1  0
 18 34  1  0
 19 35  1  0
 20 36  1  0
M  END
>  <meeko>  (7) 
{"is_sidechain": [false], "free_energy": -8.412, "intermolecular_energy": -10.472, "internal_energy": 0.018}

$$$$
cand_005_out
     RDKit          3D

 36 38  0  0  0  0  0  0  0  0999 V2000
   47.9300  158.7000   30.0750 C   0  0  0  0  0  0  0  0  0  0  0  0
   48.9430  158.0330   30.6410 C   0  0  0  0  0  0  0  0  0  0  0  0
   50.2950  158.0140   30.0690 C   0  0  0  0  0  0  0  0  0  0  0  0
   50.6760  156.9210   29.2680 C   0  0  0  0  0  0  0  0  0  0  0  0
   51.9590  156.8330   28.7070 C   0  0  0  0  0  0  0  0  0  0  0  0
   52.3090  155.6800   27.8510 C   0  0  0  0  0  0  0  0  0  0  0  0
   51.8260  154.4740   28.3440 O   0  0  0  0  0  0  0  0  0  0  0  0
   52.0820  153.3220   27.6450 C   0  0  0  0  0  0  0  0  0  0  0  0
   51.5670  152.1350   28.1690 C   0  0  0  0  0  0  0  0  0  0  0  0
   51.7930  150.9270   27.5070 C   0  0  0  0  0  0  0  0  0  0  0  0
   52.5320  150.9030   26.3230 C   0  0  0  0  0  0  0  0  0  0  0  0
   53.0460  152.0890   25.8030 C   0  0  0  0  0  0  0  0  0  0  0  0
   53.7600  151.9950   24.6410 O   0  0  0  0  0  0  0  0  0  0  0  0
   52.8190  153.2990   26.4650 C   0  0  0  0  0  0  0  0  0  0  0  0
   53.3400  154.5670   25.9510 C   0  0  0  0  0  0  0  0  0  0  0  0
   54.0060  154.6290   24.9200 O   0  0  0  0  0  0  0  0  0  0  0  0
   53.0380  155.7940   26.7250 C   0  0  0  0  0  0  0  0  0  0  0  0
   53.5470  156.9840   26.2410 O   0  0  0  0  0  0  0  0  0  0  0  0
   52.8620  157.8730   28.9490 C   0  0  0  0  0  0  0  0  0  0  0  0
   52.4990  158.9620   29.7460 C   0  0  0  0  0  0  0  0  0  0  0  0
   51.2170  159.0470   30.3180 C   0  0  0  0  0  0  0  0  0  0  0  0
   50.8570  160.2440   31.1660 C   0  0  0  0  0  0  0  0  0  0  0  0
   50.0780  161.1480   30.5100 F   0  0  0  0  0  0  0  0  0  0  0  0
   51.9450  160.9480   31.5930 F   0  0  0  0  0  0  0  0  0  0  0  0
   50.1790  159.9100   32.3010 F   0  0  0  0  0  0  0  0  0  0  0  0
   46.9335  158.6852   30.5405 H   0  0  0  0  0  0  0  0  0  0  0  0
   48.0940  159.2630   29.1443 H   0  0  0  0  0  0  0  0  0  0  0  0
   48.7552  157.4771   31.5714 H   0  0  0  0  0  0  0  0  0  0  0  0
   49.9504  156.1165   29.0773 H   0  0  0  0  0  0  0  0  0  0  0  0
   50.9842  152.1516   29.1018 H   0  0  0  0  0  0  0  0  0  0  0  0
   51.3876  149.9913   27.9195 H   0  0  0  0  0  0  0  0  0  0  0  0
   52.7081  149.9504   25.8020 H   0  0  0  0  0  0  0  0  0  0  0  0
   53.9460  151.1540   24.2710 H   0  0  0  0  0  0  0  0  0  0  0  0
   53.3700  157.7880   26.6890 H   0  0  0  0  0  0  0  0  0  0  0  0
   53.8687  157.8335   28.5073 H   0  0  0  0  0  0  0  0  0  0  0  0
   53.2276  159.7656   29.9289 H   0  0  0  0  0  0  0  0  0  0  0  0
  1  2  2  0
  2  3  1  0
  3  4  2  0
  4  5  1  0
  5  6  1  0
  6  7  1  0
  7  8  1  0
  8  9  2  0
  9 10  1  0
 10 11  2  0
 11 12  1  0
 12 13  1  0
 12 14  2  0
 14 15  1  0
 15 16  2  0
 15 17  1  0
 17 18  1  0
  5 19  2  0
 19 20  1  0
 20 21  2  0
 21 22  1  0
 22 23  1  0
 22 24  1  0
 22 25  1  0
 21  3  1  0
 17  6  2  0
 14  8  1  0
  1 26  1  0
  1 27  1  0
  2 28  1  0
  4 29  1  0
  9 30  1  0
 10 31  1  0
 11 32  1  0
 13 33  1  0
 18 34  1  0
 19 35  1  0
 20 36  1  0
M  END
>  <meeko>  (8) 
{"is_sidechain": [false], "free_energy": -8.301, "intermolecular_energy": -10.228, "internal_energy": -0.089}

$$$$
