cand_007_out
     RDKit          3D

 35 37  0  0  0  0  0  0  0  0999 V2000
   52.1570  153.0080   28.7790 O   0  0  0  0  0  0  0  0  0  0  0  0
   52.2630  154.1770   28.4150 C   0  0  0  0  0  0  0  0  0  0  0  0
   51.7540  155.2770   29.2670 C   0  0  0  0  0  0  0  0  0  0  0  0
   51.1520  154.9230   30.4600 O   0  0  0  0  0  0  0  0  0  0  0  0
   51.8880  156.5430   28.8290 C   0  0  0  0  0  0  0  0  0  0  0  0
   51.4060  157.7170   29.5870 C   0  0  0  0  0  0  0  0  0  0  0  0
   52.1990  158.8560   29.7650 C   0  0  0  0  0  0  0  0  0  0  0  0
   51.7140  159.9610   30.4690 C   0  0  0  0  0  0  0  0  0  0  0  0
   50.4170  159.9620   31.0090 C   0  0  0  0  0  0  0  0  0  0  0  0
   49.9220  161.1760   31.7650 C   0  0  0  0  0  0  0  0  0  0  0  0
   49.4450  160.8550   33.0000 F   0  0  0  0  0  0  0  0  0  0  0  0
   50.9050  162.0950   31.9740 F   0  0  0  0  0  0  0  0  0  0  0  0
   48.9150  161.8440   31.1370 F   0  0  0  0  0  0  0  0  0  0  0  0
   49.5990  158.8270   30.8250 C   0  0  0  0  0  0  0  0  0  0  0  0
   48.1960  158.7650   31.3830 C   0  0  0  0  0  0  0  0  0  0  0  0
   47.2790  159.4210   30.6140 F   0  0  0  0  0  0  0  0  0  0  0  0
   50.1060  157.7200   30.1160 C   0  0  0  0  0  0  0  0  0  0  0  0
   52.4710  156.8860   27.6140 O   0  0  0  0  0  0  0  0  0  0  0  0
   52.9560  155.8890   26.8080 C   0  0  0  0  0  0  0  0  0  0  0  0
   53.5400  156.2790   25.6010 C   0  0  0  0  0  0  0  0  0  0  0  0
   54.0550  155.3140   24.7330 C   0  0  0  0  0  0  0  0  0  0  0  0
   53.9840  153.9610   25.0690 C   0  0  0  0  0  0  0  0  0  0  0  0
   53.4000  153.5740   26.2720 C   0  0  0  0  0  0  0  0  0  0  0  0
   53.3640  152.2330   26.5380 O   0  0  0  0  0  0  0  0  0  0  0  0
   52.8860  154.5400   27.1420 C   0  0  0  0  0  0  0  0  0  0  0  0
   51.4960  154.2120   30.9660 H   0  0  0  0  0  0  0  0  0  0  0  0
   53.2157  158.8817   29.3459 H   0  0  0  0  0  0  0  0  0  0  0  0
   52.3572  160.8433   30.6025 H   0  0  0  0  0  0  0  0  0  0  0  0
   47.8968  157.7092   31.4585 H   0  0  0  0  0  0  0  0  0  0  0  0
   48.2136  159.2624   32.3640 H   0  0  0  0  0  0  0  0  0  0  0  0
   49.4670  156.8360   29.9735 H   0  0  0  0  0  0  0  0  0  0  0  0
   53.5943  157.3448   25.3344 H   0  0  0  0  0  0  0  0  0  0  0  0
   54.5173  155.6204   23.7831 H   0  0  0  0  0  0  0  0  0  0  0  0
   54.3890  153.2015   24.3841 H   0  0  0  0  0  0  0  0  0  0  0  0
   54.1490  151.7810   26.7730 H   0  0  0  0  0  0  0  0  0  0  0  0
  1  2  2  0
  2  3  1  0
  3  4  1  0
  3  5  2  0
  5  6  1  0
  6  7  2  0
  7  8  1  0
  8  9  2  0
  9 10  1  0
 10 11  1  0
 10 12  1  0
 10 13  1  0
  9 14  1  0
 14 15  1  0
 15 16  1  0
 14 17  2  0
  5 18  1  0
 18 19  1  0
 19 20  2  0
 20 21  1  0
 21 22  2  0
 22 23  1  0
 23 24  1  0
 23 25  2  0
 25  2  1  0
 17  6  1  0
 25 19  1  0
  4 26  1  0
  7 27  1  0
  8 28  1  0
 15 29  1  0
 15 30  1  0
 17 31  1  0
 20 32  1  0
 21 33  1  0
 22 34  1  0
 24 35  1  0
M  END
>  <meeko>  (1) 
{"is_sidechain": [false], "free_energy": -11.062, "intermolecular_energy": -13.649, "internal_energy": -0.2}

$$$$
cand_007_out
     RDKit          3D

 35 37  0  0  0  0  0  0  0  0999 V2000
   52.4410  152.8920   28.8150 O   0  0  0  0  0  0  0  0  0  0  0  0
   52.4020  154.0630   28.4420 C   0  0  0  0  0  0  0  0  0  0  0  0
   51.7320  155.0920   29.2720 C   0  0  0  0  0  0  0  0  0  0  0  0
   51.1540  154.6690   30.4550 O   0  0  0  0  0  0  0  0  0  0  0  0
   51.7090  156.3620   28.8260 C   0  0  0  0  0  0  0  0  0  0  0  0
   51.0600  157.4670   29.5620 C   0  0  0  0  0  0  0  0  0  0  0  0
   49.7750  157.3400   30.1000 C   0  0  0  0  0  0  0  0  0  0  0  0
   49.1890  158.3910   30.8090 C   0  0  0  0  0  0  0  0  0  0  0  0
   49.8760  159.6010   31.0060 C   0  0  0  0  0  0  0  0  0  0  0  0
   49.2140  160.7200   31.7790 C   0  0  0  0  0  0  0  0  0  0  0  0
   47.9400  160.4090   32.1470 F   0  0  0  0  0  0  0  0  0  0  0  0
   49.8730  161.0150   32.9340 F   0  0  0  0  0  0  0  0  0  0  0  0
   49.1280  161.8920   31.0900 F   0  0  0  0  0  0  0  0  0  0  0  0
   51.1800  159.7400   30.4820 C   0  0  0  0  0  0  0  0  0  0  0  0
   51.9710  161.0160   30.6580 C   0  0  0  0  0  0  0  0  0  0  0  0
   52.5520  161.1260   31.8870 F   0  0  0  0  0  0  0  0  0  0  0  0
   51.7520  158.6700   29.7670 C   0  0  0  0  0  0  0  0  0  0  0  0
   52.2710  156.7700   27.6210 O   0  0  0  0  0  0  0  0  0  0  0  0
   52.9020  155.8410   26.8350 C   0  0  0  0  0  0  0  0  0  0  0  0
   53.4590  156.2970   25.6390 C   0  0  0  0  0  0  0  0  0  0  0  0
   54.1160  155.4020   24.7920 C   0  0  0  0  0  0  0  0  0  0  0  0
   54.2150  154.0540   25.1380 C   0  0  0  0  0  0  0  0  0  0  0  0
   53.6590  153.6010   26.3320 C   0  0  0  0  0  0  0  0  0  0  0  0
   53.7920  152.2680   26.6100 O   0  0  0  0  0  0  0  0  0  0  0  0
   53.0020  154.4970   27.1800 C   0  0  0  0  0  0  0  0  0  0  0  0
   51.5390  154.9050   31.2760 H   0  0  0  0  0  0  0  0  0  0  0  0
   49.2192  156.4007   29.9630 H   0  0  0  0  0  0  0  0  0  0  0  0
   48.1755  158.2699   31.2190 H   0  0  0  0  0  0  0  0  0  0  0  0
   52.7620  161.0445   29.8942 H   0  0  0  0  0  0  0  0  0  0  0  0
   51.2651  161.8534   30.5555 H   0  0  0  0  0  0  0  0  0  0  0  0
   52.7675  158.7803   29.3588 H   0  0  0  0  0  0  0  0  0  0  0  0
   53.3805  157.3592   25.3643 H   0  0  0  0  0  0  0  0  0  0  0  0
   54.5564  155.7606   23.8500 H   0  0  0  0  0  0  0  0  0  0  0  0
   54.7314  153.3500   24.4688 H   0  0  0  0  0  0  0  0  0  0  0  0
   53.7740  151.9700   27.4970 H   0  0  0  0  0  0  0  0  0  0  0  0
  1  2  2  0
  2  3  1  0
  3  4  1  0
  3  5  2  0
  5  6  1  0
  6  7  2  0
  7  8  1  0
  8  9  2  0
  9 10  1  0
 10 11  1  0
 10 12  1  0
 10 13  1  0
  9 14  1  0
 14 15  1  0
 15 16  1  0
 14 17  2  0
  5 18  1  0
 18 19  1  0
 19 20  2  0
 20 21  1  0
 21 22  2  0
 22 23  1  0
 23 24  1  0
 23 25  2  0
 25  2  1  0
 17  6  1  0
 25 19  1  0
  4 26  1  0
  7 27  1  0
  8 28  1  0
 15 29  1  0
 15 30  1  0
 17 31  1  0
 20 32  1  0
 21 33  1  0
 22 34  1  0
 24 35  1  0
M  END
>  <meeko>  (2) 
{"is_sidechain": [false], "free_energy": -11.023, "intermolecular_energy": -13.563, "internal_energy": -0.238}

$$$$
cand_007_out
     RDKit          3D

 35 37  0  0  0  0  0  0  0  0999 V2000
   52.5960  160.6360   30.6060 O   0  0  0  0  0  0  0  0  0  0  0  0
   51.8530  159.6870   30.3620 C   0  0  0  0  0  0  0  0  0  0  0  0
   52.3610  158.5090   29.6210 C   0  0  0  0  0  0  0  0  0  0  0  0
   53.6830  158.5420   29.2150 O   0  0  0  0  0  0  0  0  0  0  0  0
   51.5150  157.4920   29.3730 C   0  0  0  0  0  0  0  0  0  0  0  0
   51.9070  156.2740   28.6330 C   0  0  0  0  0  0  0  0  0  0  0  0
   51.5510  154.9960   29.0760 C   0  0  0  0  0  0  0  0  0  0  0  0
   51.9160  153.8600   28.3480 C   0  0  0  0  0  0  0  0  0  0  0  0
   52.6430  153.9710   27.1520 C   0  0  0  0  0  0  0  0  0  0  0  0
   53.0220  152.7220   26.3870 C   0  0  0  0  0  0  0  0  0  0  0  0
   54.3230  152.3700   26.5870 F   0  0  0  0  0  0  0  0  0  0  0  0
   52.2840  151.6400   26.7600 F   0  0  0  0  0  0  0  0  0  0  0  0
   52.8670  152.8310   25.0390 F   0  0  0  0  0  0  0  0  0  0  0  0
   52.9970  155.2560   26.6830 C   0  0  0  0  0  0  0  0  0  0  0  0
   53.7800  155.4420   25.4040 C   0  0  0  0  0  0  0  0  0  0  0  0
   53.5210  156.6270   24.7800 F   0  0  0  0  0  0  0  0  0  0  0  0
   52.6240  156.3890   27.4320 C   0  0  0  0  0  0  0  0  0  0  0  0
   50.1810  157.4820   29.7630 O   0  0  0  0  0  0  0  0  0  0  0  0
   49.6840  158.5570   30.4550 C   0  0  0  0  0  0  0  0  0  0  0  0
   48.3420  158.5000   30.8340 C   0  0  0  0  0  0  0  0  0  0  0  0
   47.7720  159.5610   31.5410 C   0  0  0  0  0  0  0  0  0  0  0  0
   48.5430  160.6780   31.8670 C   0  0  0  0  0  0  0  0  0  0  0  0
   49.8820  160.7320   31.4880 C   0  0  0  0  0  0  0  0  0  0  0  0
   50.5790  161.8560   31.8400 O   0  0  0  0  0  0  0  0  0  0  0  0
   50.4520  159.6700   30.7810 C   0  0  0  0  0  0  0  0  0  0  0  0
   54.3150  157.9870   29.6290 H   0  0  0  0  0  0  0  0  0  0  0  0
   50.9773  154.8836   30.0078 H   0  0  0  0  0  0  0  0  0  0  0  0
   51.6294  152.8644   28.7176 H   0  0  0  0  0  0  0  0  0  0  0  0
   54.8530  155.4002   25.6424 H   0  0  0  0  0  0  0  0  0  0  0  0
   53.4764  154.6387   24.7165 H   0  0  0  0  0  0  0  0  0  0  0  0
   52.9015  157.3887   27.0666 H   0  0  0  0  0  0  0  0  0  0  0  0
   47.7339  157.6204   30.5761 H   0  0  0  0  0  0  0  0  0  0  0  0
   46.7147  159.5164   31.8412 H   0  0  0  0  0  0  0  0  0  0  0  0
   48.0936  161.5144   32.4225 H   0  0  0  0  0  0  0  0  0  0  0  0
   50.1230  162.6560   32.0080 H   0  0  0  0  0  0  0  0  0  0  0  0
  1  2  2  0
  2  3  1  0
  3  4  1  0
  3  5  2  0
  5  6  1  0
  6  7  2  0
  7  8  1  0
  8  9  2  0
  9 10  1  0
 10 11  1  0
 10 12  1  0
 10 13  1  0
  9 14  1  0
 14 15  1  0
 15 16  1  0
 14 17  2  0
  5 18  1  0
 18 19  1  0
 19 20  2  0
 20 21  1  0
 21 22  2  0
 22 23  1  0
 23 24  1  0
 23 25  2  0
 25  2  1  0
 17  6  1  0
 25 19  1  0
  4 26  1  0
  7 27  1  0
  8 28  1  0
 15 29  1  0
 15 30  1  0
 17 31  1  0
 20 32  1  0
 21 33  1  0
 22 34  1  0
 24 35  1  0
M  END
>  <meeko>  (3) 
{"is_sidechain": [false], "free_energy": -10.569, "intermolecular_energy": -13.241, "internal_energy": 0.0}

$$$$
cand_007_out
     RDKit          3D

 35 37  0  0  0  0  0  0  0  0999 V2000
   52.2640  161.2660   31.2900 O   0  0  0  0  0  0  0  0  0  0  0  0
   51.5880  160.3090   30.9160 C   0  0  0  0  0  0  0  0  0  0  0  0
   52.1860  159.2580   30.0610 C   0  0  0  0  0  0  0  0  0  0  0  0
   53.5120  159.4160   29.7020 O   0  0  0  0  0  0  0  0  0  0  0  0
   51.4110  158.2280   29.6720 C   0  0  0  0  0  0  0  0  0  0  0  0
   51.8950  157.1310   28.8090 C   0  0  0  0  0  0  0  0  0  0  0  0
   52.5640  157.3790   27.6060 C   0  0  0  0  0  0  0  0  0  0  0  0
   53.0300  156.3260   26.8160 C   0  0  0  0  0  0  0  0  0  0  0  0
   52.8460  154.9900   27.2110 C   0  0  0  0  0  0  0  0  0  0  0  0
   53.3640  153.8720   26.3340 C   0  0  0  0  0  0  0  0  0  0  0  0
   52.3720  153.2840   25.6090 F   0  0  0  0  0  0  0  0  0  0  0  0
   54.2800  154.3050   25.4250 F   0  0  0  0  0  0  0  0  0  0  0  0
   53.9710  152.8650   27.0220 F   0  0  0  0  0  0  0  0  0  0  0  0
   52.1870  154.7220   28.4310 C   0  0  0  0  0  0  0  0  0  0  0  0
   51.9560  153.3080   28.9110 C   0  0  0  0  0  0  0  0  0  0  0  0
   51.2010  152.5630   28.0530 F   0  0  0  0  0  0  0  0  0  0  0  0
   51.7200  155.7980   29.2120 C   0  0  0  0  0  0  0  0  0  0  0  0
   50.0710  158.0940   30.0180 O   0  0  0  0  0  0  0  0  0  0  0  0
   49.4920  159.0490   30.8140 C   0  0  0  0  0  0  0  0  0  0  0  0
   48.1480  158.8690   31.1420 C   0  0  0  0  0  0  0  0  0  0  0  0
   47.4970  159.8050   31.9490 C   0  0  0  0  0  0  0  0  0  0  0  0
   48.1890  160.9200   32.4250 C   0  0  0  0  0  0  0  0  0  0  0  0
   49.5300  161.0970   32.0960 C   0  0  0  0  0  0  0  0  0  0  0  0
   50.1470  162.2110   32.5950 O   0  0  0  0  0  0  0  0  0  0  0  0
   50.1810  160.1600   31.2890 C   0  0  0  0  0  0  0  0  0  0  0  0
   53.8050  159.1370   28.8560 H   0  0  0  0  0  0  0  0  0  0  0  0
   52.7251  158.4165   27.2781 H   0  0  0  0  0  0  0  0  0  0  0  0
   53.5485  156.5455   25.8710 H   0  0  0  0  0  0  0  0  0  0  0  0
   52.9327  152.8169   29.0330 H   0  0  0  0  0  0  0  0  0  0  0  0
   51.4028  153.3724   29.8596 H   0  0  0  0  0  0  0  0  0  0  0  0
   51.2054  155.5879   30.1613 H   0  0  0  0  0  0  0  0  0  0  0  0
   47.6018  157.9914   30.7657 H   0  0  0  0  0  0  0  0  0  0  0  0
   46.4378  159.6633   32.2097 H   0  0  0  0  0  0  0  0  0  0  0  0
   47.6754  161.6576   33.0591 H   0  0  0  0  0  0  0  0  0  0  0  0
   50.2870  162.9560   32.0450 H   0  0  0  0  0  0  0  0  0  0  0  0
  1  2  2  0
  2  3  1  0
  3  4  1  0
  3  5  2  0
  5  6  1  0
  6  7  2  0
  7  8  1  0
  8  9  2  0
  9 10  1  0
 10 11  1  0
 10 12  1  0
 10 13  1  0
  9 14  1  0
 14 15  1  0
 15 16  1  0
 14 17  2  0
  5 18  1  0
 18 19  1  0
 19 20  2  0
 20 21  1  0
 21 22  2  0
 22 23  1  0
 23 24  1  0
 23 25  2  0
 25  2  1  0
 17  6  1  0
 25 19  1  0
  4 26  1  0
  7 27  1  0
  8 28  1  0
 15 29  1  0
 15 30  1  0
 17 31  1  0
 20 32  1  0
 21 33  1  0
 22 34  1  0
 24 35  1  0
M  END
>  <meeko>  (4) 
{"is_sidechain": [false], "free_energy": -9.477, "intermolecular_energy": -11.82, "internal_energy": -0.073}

$$$$
cand_007_out
     RDKit          3D

 35 37  0  0  0  0  0  0  0  0999 V2000
   48.1440  158.5210   31.0420 O   0  0  0  0  0  0  0  0  0  0  0  0
   49.3000  158.4650   30.6250 C   0  0  0  0  0  0  0  0  0  0  0  0
   49.7640  157.2860   29.8580 C   0  0  0  0  0  0  0  0  0  0  0  0
   48.8510  156.2680   29.6550 O   0  0  0  0  0  0  0  0  0  0  0  0
   51.0370  157.2640   29.4210 C   0  0  0  0  0  0  0  0  0  0  0  0
   51.6120  156.1360   28.6590 C   0  0  0  0  0  0  0  0  0  0  0  0
   51.3740  154.8060   29.0180 C   0  0  0  0  0  0  0  0  0  0  0  0
   51.9120  153.7560   28.2710 C   0  0  0  0  0  0  0  0  0  0  0  0
   52.7010  154.0070   27.1350 C   0  0  0  0  0  0  0  0  0  0  0  0
   53.2680  152.8480   26.3460 C   0  0  0  0  0  0  0  0  0  0  0  0
   52.6060  151.6830   26.5920 F   0  0  0  0  0  0  0  0  0  0  0  0
   53.1870  153.0440   25.0010 F   0  0  0  0  0  0  0  0  0  0  0  0
   54.5810  152.5920   26.6060 F   0  0  0  0  0  0  0  0  0  0  0  0
   52.9380  155.3450   26.7500 C   0  0  0  0  0  0  0  0  0  0  0  0
   53.7790  155.6820   25.5400 C   0  0  0  0  0  0  0  0  0  0  0  0
   53.2730  156.7100   24.8000 F   0  0  0  0  0  0  0  0  0  0  0  0
   52.3900  156.3900   27.5190 C   0  0  0  0  0  0  0  0  0  0  0  0
   51.9540  158.2830   29.6550 O   0  0  0  0  0  0  0  0  0  0  0  0
   51.5510  159.3890   30.3580 C   0  0  0  0  0  0  0  0  0  0  0  0
   52.5020  160.3910   30.5620 C   0  0  0  0  0  0  0  0  0  0  0  0
   52.1570  161.5440   31.2690 C   0  0  0  0  0  0  0  0  0  0  0  0
   50.8650  161.6960   31.7740 C   0  0  0  0  0  0  0  0  0  0  0  0
   49.9180  160.6950   31.5700 C   0  0  0  0  0  0  0  0  0  0  0  0
   48.6710  160.9090   32.0920 O   0  0  0  0  0  0  0  0  0  0  0  0
   50.2630  159.5410   30.8610 C   0  0  0  0  0  0  0  0  0  0  0  0
   48.8480  155.5210   30.2210 H   0  0  0  0  0  0  0  0  0  0  0  0
   50.7552  154.5839   29.8999 H   0  0  0  0  0  0  0  0  0  0  0  0
   51.7156  152.7175   28.5759 H   0  0  0  0  0  0  0  0  0  0  0  0
   54.7866  155.9610   25.8820 H   0  0  0  0  0  0  0  0  0  0  0  0
   53.7919  154.7916   24.8943 H   0  0  0  0  0  0  0  0  0  0  0  0
   52.5765  157.4316   27.2184 H   0  0  0  0  0  0  0  0  0  0  0  0
   53.5214  160.2718   30.1662 H   0  0  0  0  0  0  0  0  0  0  0  0
   52.9051  162.3345   31.4284 H   0  0  0  0  0  0  0  0  0  0  0  0
   50.5949  162.6046   32.3321 H   0  0  0  0  0  0  0  0  0  0  0  0
   48.5510  161.5390   32.7730 H   0  0  0  0  0  0  0  0  0  0  0  0
  1  2  2  0
  2  3  1  0
  3  4  1  0
  3  5  2  0
  5  6  1  0
  6  7  2  0
  7  8  1  0
  8  9  2  0
  9 10  1  0
 10 11  1  0
 10 12  1  0
 10 13  1  0
  9 14  1  0
 14 15  1  0
 15 16  1  0
 14 17  2  0
  5 18  1  0
 18 19  1  0
 19 20  2  0
 20 21  1  0
 21 22  2  0
 22 23  1  0
 23 24  1  0
 23 25  2  0
 25  2  1  0
 17  6  1  0
 25 19  1  0
  4 26  1  0
  7 27  1  0
  8 28  1  0
 15 29  1  0
 15 30  1  0
 17 31  1  0
 20 32  1  0
 21 33  1  0
 22 34  1  0
 24 35  1  0
M  END
>  <meeko>  (5) 
{"is_sidechain": [false], "free_energy": -9.366, "intermolecular_energy": -11.776, "internal_energy": 0.02}

$$$$
cand_007_out
     RDKit          3D

 35 37  0  0  0  0  0  0  0  0999 V2000
   48.2610  158.5100   31.2840 O   0  0  0  0  0  0  0  0  0  0  0  0
   49.3920  158.5920   30.8100 C   0  0  0  0  0  0  0  0  0  0  0  0
   49.9130  157.5280   29.9220 C   0  0  0  0  0  0  0  0  0  0  0  0
   49.0800  156.4520   29.6730 O   0  0  0  0  0  0  0  0  0  0  0  0
   51.1580  157.6560   29.4260 C   0  0  0  0  0  0  0  0  0  0  0  0
   51.7850  156.6510   28.5420 C   0  0  0  0  0  0  0  0  0  0  0  0
   52.5710  157.0220   27.4460 C   0  0  0  0  0  0  0  0  0  0  0  0
   53.1700  156.0540   26.6360 C   0  0  0  0  0  0  0  0  0  0  0  0
   53.0060  154.6850   26.9040 C   0  0  0  0  0  0  0  0  0  0  0  0
   53.6690  153.6620   26.0080 C   0  0  0  0  0  0  0  0  0  0  0  0
   52.7850  153.0750   25.1540 F   0  0  0  0  0  0  0  0  0  0  0  0
   54.6370  154.2080   25.2210 F   0  0  0  0  0  0  0  0  0  0  0  0
   54.2690  152.6430   26.6830 F   0  0  0  0  0  0  0  0  0  0  0  0
   52.2280  154.2940   28.0160 C   0  0  0  0  0  0  0  0  0  0  0  0
   52.0110  152.8380   28.3570 C   0  0  0  0  0  0  0  0  0  0  0  0
   51.4320  152.1270   27.3460 F   0  0  0  0  0  0  0  0  0  0  0  0
   51.6280  155.2840   28.8190 C   0  0  0  0  0  0  0  0  0  0  0  0
   51.9960  158.7290   29.7050 O   0  0  0  0  0  0  0  0  0  0  0  0
   51.5390  159.7330   30.5200 C   0  0  0  0  0  0  0  0  0  0  0  0
   52.4110  160.7950   30.7660 C   0  0  0  0  0  0  0  0  0  0  0  0
   52.0080  161.8500   31.5880 C   0  0  0  0  0  0  0  0  0  0  0  0
   50.7370  161.8430   32.1640 C   0  0  0  0  0  0  0  0  0  0  0  0
   49.8690  160.7820   31.9170 C   0  0  0  0  0  0  0  0  0  0  0  0
   48.6390  160.8390   32.5130 O   0  0  0  0  0  0  0  0  0  0  0  0
   50.2720  159.7270   31.0940 C   0  0  0  0  0  0  0  0  0  0  0  0
   49.2070  155.9280   28.9060 H   0  0  0  0  0  0  0  0  0  0  0  0
   52.7192  158.0881   27.2193 H   0  0  0  0  0  0  0  0  0  0  0  0
   53.7790  156.3686   25.7757 H   0  0  0  0  0  0  0  0  0  0  0  0
   52.9861  152.3846   28.5887 H   0  0  0  0  0  0  0  0  0  0  0  0
   51.3233  152.8034   29.2149 H   0  0  0  0  0  0  0  0  0  0  0  0
   51.0216  154.9781   29.6843 H   0  0  0  0  0  0  0  0  0  0  0  0
   53.4136  160.8010   30.3134 H   0  0  0  0  0  0  0  0  0  0  0  0
   52.6938  162.6879   31.7816 H   0  0  0  0  0  0  0  0  0  0  0  0
   50.4211  162.6739   32.8120 H   0  0  0  0  0  0  0  0  0  0  0  0
   48.3390  161.6410   32.8920 H   0  0  0  0  0  0  0  0  0  0  0  0
  1  2  2  0
  2  3  1  0
  3  4  1  0
  3  5  2  0
  5  6  1  0
  6  7  2  0
  7  8  1  0
  8  9  2  0
  9 10  1  0
 10 11  1  0
 10 12  1  0
 10 13  1  0
  9 14  1  0
 14 15  1  0
 15 16  1  0
 14 17  2  0
  5 18  1  0
 18 19  1  0
 19 20  2  0
 20 21  1  0
 21 22  2  0
 22 23  1  0
 23 24  1  0
 23 25  2  0
 25  2  1  0
 17  6  1  0
 25 19  1  0
  4 26  1  0
  7 27  1  0
  8 28  1  0
 15 29  1  0
 15 30  1  0
 17 31  1  0
 20 32  1  0
 21 33  1  0
 22 34  1  0
 24 35  1  0
M  END
>  <meeko>  (6) 
{"is_sidechain": [false], "free_energy": -8.717, "intermolecular_energy": -11.069, "internal_energy": 0.114}

$$$$
cand_007_out
     RDKit          3D

 35 37  0  0  0  0  0  0  0  0999 V2000
   54.5730  155.4090   25.1810 O   0  0  0  0  0  0  0  0  0  0  0  0
   53.7080  155.0440   25.9750 C   0  0  0  0  0  0  0  0  0  0  0  0
   53.0270  156.0280   26.8470 C   0  0  0  0  0  0  0  0  0  0  0  0
   53.4190  157.3490   26.7320 O   0  0  0  0  0  0  0  0  0  0  0  0
   52.0870  155.5860   27.7040 C   0  0  0  0  0  0  0  0  0  0  0  0
   51.3520  156.4730   28.6300 C   0  0  0  0  0  0  0  0  0  0  0  0
   50.1200  156.1070   29.1800 C   0  0  0  0  0  0  0  0  0  0  0  0
   49.4530  156.9540   30.0680 C   0  0  0  0  0  0  0  0  0  0  0  0
   50.0050  158.1920   30.4380 C   0  0  0  0  0  0  0  0  0  0  0  0
   49.2590  159.0860   31.4030 C   0  0  0  0  0  0  0  0  0  0  0  0
   48.6800  160.1490   30.7780 F   0  0  0  0  0  0  0  0  0  0  0  0
   48.2460  158.4340   32.0400 F   0  0  0  0  0  0  0  0  0  0  0  0
   50.0400  159.6110   32.3870 F   0  0  0  0  0  0  0  0  0  0  0  0
   51.2560  158.5700   29.9030 C   0  0  0  0  0  0  0  0  0  0  0  0
   51.9020  159.8890   30.2600 C   0  0  0  0  0  0  0  0  0  0  0  0
   51.1990  160.9710   29.8180 F   0  0  0  0  0  0  0  0  0  0  0  0
   51.9110  157.7040   29.0060 C   0  0  0  0  0  0  0  0  0  0  0  0
   51.7200  154.2500   27.8290 O   0  0  0  0  0  0  0  0  0  0  0  0
   52.3300  153.3170   27.0310 C   0  0  0  0  0  0  0  0  0  0  0  0
   51.9250  151.9910   27.1840 C   0  0  0  0  0  0  0  0  0  0  0  0
   52.5060  150.9900   26.4030 C   0  0  0  0  0  0  0  0  0  0  0  0
   53.4920  151.3150   25.4700 C   0  0  0  0  0  0  0  0  0  0  0  0
   53.8950  152.6390   25.3180 C   0  0  0  0  0  0  0  0  0  0  0  0
   54.8660  152.8870   24.3870 O   0  0  0  0  0  0  0  0  0  0  0  0
   53.3130  153.6400   26.1000 C   0  0  0  0  0  0  0  0  0  0  0  0
   54.3280  157.5740   26.7760 H   0  0  0  0  0  0  0  0  0  0  0  0
   49.6704  155.1401   28.9101 H   0  0  0  0  0  0  0  0  0  0  0  0
   48.4817  156.6475   30.4836 H   0  0  0  0  0  0  0  0  0  0  0  0
   51.9868  159.9512   31.3550 H   0  0  0  0  0  0  0  0  0  0  0  0
   52.8846  159.9149   29.7661 H   0  0  0  0  0  0  0  0  0  0  0  0
   52.8852  158.0000   28.5897 H   0  0  0  0  0  0  0  0  0  0  0  0
   51.1484  151.7341   27.9195 H   0  0  0  0  0  0  0  0  0  0  0  0
   52.1864  149.9443   26.5231 H   0  0  0  0  0  0  0  0  0  0  0  0
   53.9501  150.5260   24.8555 H   0  0  0  0  0  0  0  0  0  0  0  0
   55.1100  153.7680   24.1870 H   0  0  0  0  0  0  0  0  0  0  0  0
  1  2  2  0
  2  3  1  0
  3  4  1  0
  3  5  2  0
  5  6  1  0
  6  7  2  0
  7  8  1  0
  8  9  2  0
  9 10  1  0
 10 11  1  0
 10 12  1  0
 10 13  1  0
  9 14  1  0
 14 15  1  0
 15 16  1  0
 14 17  2  0
  5 18  1  0
 18 19  1  0
 19 20  2  0
 20 21  1  0
 21 22  2  0
 22 23  1  0
 23 24  1  0
 23 25  2  0
 25  2  1  0
 17  6  1  0
 25 19  1  0
  4 26  1  0
  7 27  1  0
  8 28  1  0
 15 29  1  0
 15 30  1  0
 17 31  1  0
 20 32  1  0
 21 33  1  0
 22 34  1  0
 24 35  1  0
M  END
>  <meeko>  (7) 
{"is_sidechain": [false], "free_energy": -8.259, "intermolecular_energy": -10.599, "internal_energy": 0.209}

$$$$
cand_007_out
     RDKit          3D

 35 37  0  0  0  0  0  0  0  0999 V2000
   54.0350  154.6010   24.8900 O   0  0  0  0  0  0  0  0  0  0  0  0
   53.3480  154.5150   25.9050 C   0  0  0  0  0  0  0  0  0  0  0  0
   53.0060  155.7280   26.6840 C   0  0  0  0  0  0  0  0  0  0  0  0
   53.5060  156.9330   26.2250 O   0  0  0  0  0  0  0  0  0  0  0  0
   52.2530  155.5900   27.7910 C   0  0  0  0  0  0  0  0  0  0  0  0
   51.8620  156.7260   28.6520 C   0  0  0  0  0  0  0  0  0  0  0  0
   52.7280  157.7960   28.8980 C   0  0  0  0  0  0  0  0  0  0  0  0
   52.3290  158.8690   29.6990 C   0  0  0  0  0  0  0  0  0  0  0  0
   51.0470  158.9050   30.2730 C   0  0  0  0  0  0  0  0  0  0  0  0
   50.6460  160.0820   31.1350 C   0  0  0  0  0  0  0  0  0  0  0  0
   51.7220  160.8000   31.5600 F   0  0  0  0  0  0  0  0  0  0  0  0
   49.8490  160.9650   30.4720 F   0  0  0  0  0  0  0  0  0  0  0  0
   49.9600  159.7340   32.2590 F   0  0  0  0  0  0  0  0  0  0  0  0
   50.1550  157.8400   30.0220 C   0  0  0  0  0  0  0  0  0  0  0  0
   48.7640  157.8180   30.6110 C   0  0  0  0  0  0  0  0  0  0  0  0
   47.8920  158.6470   29.9680 F   0  0  0  0  0  0  0  0  0  0  0  0
   50.5770  156.7650   29.2140 C   0  0  0  0  0  0  0  0  0  0  0  0
   51.7780  154.3690   28.2580 O   0  0  0  0  0  0  0  0  0  0  0  0
   52.0740  153.2300   27.5540 C   0  0  0  0  0  0  0  0  0  0  0  0
   51.5700  152.0280   28.0550 C   0  0  0  0  0  0  0  0  0  0  0  0
   51.8340  150.8310   27.3870 C   0  0  0  0  0  0  0  0  0  0  0  0
   52.6010  150.8340   26.2210 C   0  0  0  0  0  0  0  0  0  0  0  0
   53.1030  152.0340   25.7240 C   0  0  0  0  0  0  0  0  0  0  0  0
   53.8470  151.9650   24.5780 O   0  0  0  0  0  0  0  0  0  0  0  0
   52.8380  153.2330   26.3920 C   0  0  0  0  0  0  0  0  0  0  0  0
   53.9150  157.5290   26.8220 H   0  0  0  0  0  0  0  0  0  0  0  0
   53.7352  157.7929   28.4557 H   0  0  0  0  0  0  0  0  0  0  0  0
   53.0287  159.6976   29.8829 H   0  0  0  0  0  0  0  0  0  0  0  0
   48.3763  156.7903   30.5522 H   0  0  0  0  0  0  0  0  0  0  0  0
   48.8445  158.1722   31.6493 H   0  0  0  0  0  0  0  0  0  0  0  0
   49.8813  155.9356   29.0191 H   0  0  0  0  0  0  0  0  0  0  0  0
   50.9660  152.0243   28.9744 H   0  0  0  0  0  0  0  0  0  0  0  0
   51.4368  149.8836   27.7804 H   0  0  0  0  0  0  0  0  0  0  0  0
   52.8086  149.8902   25.6956 H   0  0  0  0  0  0  0  0  0  0  0  0
   53.7820  152.6430   23.9350 H   0  0  0  0  0  0  0  0  0  0  0  0
  1  2  2  0
  2  3  1  0
  3  4  1  0
  3  5  2  0
  5  6  1  0
  6  7  2  0
  7  8  1  0
  8  9  2  0
  9 10  1  0
 10 11  1  0
 10 12  1  0
 10 13  1  0
  9 14  1  0
 14 15  1  0
 15 16  1  0
 14 17  2  0
  5 18  1  0
 18 19  1  0
 19 20  2  0
 20 21  1  0
 21 22  2  0
 22 23  1  0
 23 24  1  0
 23 25  2  0
 25  2  1  0
 17  6  1  0
 25 19  1  0
  4 26  1  0
  7 27  1  0
  8 28  1  0
 15 29  1  0
 15 30  1  0
 17 31  1  0
 20 32  1  0
 21 33  1  0
 22 34  1  0
 24 35  1  0
M  END
>  <meeko>  (8) 
{"is_sidechain": [false], "free_energy": -8.184, "intermolecular_energy": -10.25, "internal_energy": -0.048}

$$$$
