cand_023_out
     RDKit          3D

 47 50  0  0  0  0  0  0  0  0999 V2000
   52.4310  160.6650   30.4230 C   0  0  0  0  0  0  0  0  0  0  0  0
   51.6390  159.4060   30.1860 C   0  0  0  0  0  0  0  0  0  0  0  0
   52.2010  158.3690   29.4190 C   0  0  0  0  0  0  0  0  0  0  0  0
   51.5020  157.1770   29.1760 C   0  0  0  0  0  0  0  0  0  0  0  0
   52.1130  156.1210   28.3430 C   0  0  0  0  0  0  0  0  0  0  0  0
   52.7010  156.6190   27.1860 O   0  0  0  0  0  0  0  0  0  0  0  0
   53.3080  155.7470   26.3200 C   0  0  0  0  0  0  0  0  0  0  0  0
   53.8730  156.2890   25.1650 C   0  0  0  0  0  0  0  0  0  0  0  0
   54.5090  155.4550   24.2430 C   0  0  0  0  0  0  0  0  0  0  0  0
   54.5800  154.0790   24.4750 C   0  0  0  0  0  0  0  0  0  0  0  0
   54.0150  153.5410   25.6280 C   0  0  0  0  0  0  0  0  0  0  0  0
   54.1200  152.1870   25.7940 O   0  0  0  0  0  0  0  0  0  0  0  0
   53.3790  154.3760   26.5510 C   0  0  0  0  0  0  0  0  0  0  0  0
   52.7730  153.8510   27.7760 C   0  0  0  0  0  0  0  0  0  0  0  0
   52.8000  152.6530   28.0540 O   0  0  0  0  0  0  0  0  0  0  0  0
   52.1170  154.8190   28.6850 C   0  0  0  0  0  0  0  0  0  0  0  0
   51.5600  154.3130   29.8450 O   0  0  0  0  0  0  0  0  0  0  0  0
   50.2140  157.0440   29.7070 C   0  0  0  0  0  0  0  0  0  0  0  0
   49.6480  158.0680   30.4730 C   0  0  0  0  0  0  0  0  0  0  0  0
   50.3450  159.2600   30.7210 C   0  0  0  0  0  0  0  0  0  0  0  0
   49.8020  160.3020   31.5030 N   0  0  0  0  0  0  0  0  0  0  0  0
   48.6380  160.9550   30.8830 C   0  0  0  0  0  0  0  0  0  0  0  0
   48.2810  162.2050   31.6870 C   0  0  0  0  0  0  0  0  0  0  0  0
   48.0380  161.8630   33.1560 C   0  0  0  0  0  0  0  0  0  0  0  0
   49.2220  161.0950   33.7420 C   0  0  0  0  0  0  0  0  0  0  0  0
   49.5670  159.8720   32.8910 C   0  0  0  0  0  0  0  0  0  0  0  0
   52.5369  160.8334   31.5049 H   0  0  0  0  0  0  0  0  0  0  0  0
   53.4275  160.5623   29.9686 H   0  0  0  0  0  0  0  0  0  0  0  0
   51.9070  161.5188   29.9686 H   0  0  0  0  0  0  0  0  0  0  0  0
   53.2105  158.4955   29.0007 H   0  0  0  0  0  0  0  0  0  0  0  0
   53.8175  157.3721   24.9809 H   0  0  0  0  0  0  0  0  0  0  0  0
   54.9548  155.8821   23.3326 H   0  0  0  0  0  0  0  0  0  0  0  0
   55.0811  153.4225   23.7484 H   0  0  0  0  0  0  0  0  0  0  0  0
   53.3500  151.6540   25.7950 H   0  0  0  0  0  0  0  0  0  0  0  0
   50.9980  153.5640   29.8070 H   0  0  0  0  0  0  0  0  0  0  0  0
   49.6407  156.1241   29.5198 H   0  0  0  0  0  0  0  0  0  0  0  0
   48.6381  157.9364   30.8886 H   0  0  0  0  0  0  0  0  0  0  0  0
   48.8822  161.2391   29.8488 H   0  0  0  0  0  0  0  0  0  0  0  0
   47.7838  160.2619   30.8752 H   0  0  0  0  0  0  0  0  0  0  0  0
   49.1095  162.9253   31.6181 H   0  0  0  0  0  0  0  0  0  0  0  0
   47.3584  162.6362   31.2713 H   0  0  0  0  0  0  0  0  0  0  0  0
   47.8969  162.7945   33.7237 H   0  0  0  0  0  0  0  0  0  0  0  0
   47.1408  161.2303   33.2250 H   0  0  0  0  0  0  0  0  0  0  0  0
   50.0963  161.7612   33.7830 H   0  0  0  0  0  0  0  0  0  0  0  0
   48.9477  160.7504   34.7500 H   0  0  0  0  0  0  0  0  0  0  0  0
   50.4743  159.3920   33.2866 H   0  0  0  0  0  0  0  0  0  0  0  0
   48.7348  159.1532   32.9205 H   0  0  0  0  0  0  0  0  0  0  0  0
  1  2  1  0
  2  3  2  0
  3  4  1  0
  4  5  1  0
  5  6  1  0
  6  7  1  0
  7  8  2  0
  8  9  1  0
  9 10  2  0
 10 11  1  0
 11 12  1  0
 11 13  2  0
 13 14  1  0
 14 15  2  0
 14 16  1  0
 16 17  1  0
  4 18  2  0
 18 19  1  0
 19 20  2  0
 20 21  1  0
 21 22  1  0
 22 23  1  0
 23 24  1  0
 24 25  1  0
 25 26  1  0
 20  2  1  0
 26 21  1  0
 16  5  2  0
 13  7  1  0
  1 27  1  0
  1 28  1  0
  1 29  1  0
  3 30  1  0
  8 31  1  0
  9 32  1  0
 10 33  1  0
 12 34  1  0
 17 35  1  0
 18 36  1  0
 19 37  1  0
 22 38  1  0
 22 39  1  0
 23 40  1  0
 23 41  1  0
 24 42  1  0
 24 43  1  0
 25 44  1  0
 25 45  1  0
 26 46  1  0
 26 47  1  0
M  END
>  <meeko>  (1) 
{"is_sidechain": [false], "free_energy": -11.343, "intermolecular_energy": -13.333, "internal_energy": -0.454}

$$$$
cand_023_out
     RDKit          3D

 47 50  0  0  0  0  0  0  0  0999 V2000
   52.0440  153.3100   29.0320 C   0  0  0  0  0  0  0  0  0  0  0  0
   52.2440  154.7160   28.5310 C   0  0  0  0  0  0  0  0  0  0  0  0
   51.7610  155.7970   29.2910 C   0  0  0  0  0  0  0  0  0  0  0  0
   51.9290  157.1230   28.8660 C   0  0  0  0  0  0  0  0  0  0  0  0
   51.3840  158.2320   29.6780 C   0  0  0  0  0  0  0  0  0  0  0  0
   50.0480  158.0480   30.0150 O   0  0  0  0  0  0  0  0  0  0  0  0
   49.4160  159.0010   30.7700 C   0  0  0  0  0  0  0  0  0  0  0  0
   48.0710  158.7810   31.0740 C   0  0  0  0  0  0  0  0  0  0  0  0
   47.3690  159.7130   31.8410 C   0  0  0  0  0  0  0  0  0  0  0  0
   48.0100  160.8640   32.3040 C   0  0  0  0  0  0  0  0  0  0  0  0
   49.3510  161.0820   31.9990 C   0  0  0  0  0  0  0  0  0  0  0  0
   49.9170  162.2290   32.4850 O   0  0  0  0  0  0  0  0  0  0  0  0
   50.0540  160.1490   31.2310 C   0  0  0  0  0  0  0  0  0  0  0  0
   51.4640  160.3380   30.8890 C   0  0  0  0  0  0  0  0  0  0  0  0
   52.0990  161.3220   31.2650 O   0  0  0  0  0  0  0  0  0  0  0  0
   52.1150  159.2940   30.0650 C   0  0  0  0  0  0  0  0  0  0  0  0
   53.4520  159.4770   29.7590 O   0  0  0  0  0  0  0  0  0  0  0  0
   52.5820  157.3520   27.6500 C   0  0  0  0  0  0  0  0  0  0  0  0
   53.0680  156.2850   26.8880 C   0  0  0  0  0  0  0  0  0  0  0  0
   52.9060  154.9570   27.3120 C   0  0  0  0  0  0  0  0  0  0  0  0
   53.4000  153.8640   26.5680 N   0  0  0  0  0  0  0  0  0  0  0  0
   52.3910  152.8230   26.3140 C   0  0  0  0  0  0  0  0  0  0  0  0
   53.0810  151.5950   25.7200 C   0  0  0  0  0  0  0  0  0  0  0  0
   53.8660  151.9610   24.4610 C   0  0  0  0  0  0  0  0  0  0  0  0
   54.8310  153.1130   24.7340 C   0  0  0  0  0  0  0  0  0  0  0  0
   54.1080  154.3080   25.3570 C   0  0  0  0  0  0  0  0  0  0  0  0
   52.0439  153.3092   30.1320 H   0  0  0  0  0  0  0  0  0  0  0  0
   51.0818  152.9234   28.6650 H   0  0  0  0  0  0  0  0  0  0  0  0
   52.8602  152.6704   28.6650 H   0  0  0  0  0  0  0  0  0  0  0  0
   51.2402  155.5979   30.2392 H   0  0  0  0  0  0  0  0  0  0  0  0
   47.5652  157.8747   30.7097 H   0  0  0  0  0  0  0  0  0  0  0  0
   46.3095  159.5403   32.0809 H   0  0  0  0  0  0  0  0  0  0  0  0
   47.4564  161.5973   32.9088 H   0  0  0  0  0  0  0  0  0  0  0  0
   50.5380  162.1850   33.1840 H   0  0  0  0  0  0  0  0  0  0  0  0
   53.7630  160.3250   29.5130 H   0  0  0  0  0  0  0  0  0  0  0  0
   52.7145  158.3827   27.2894 H   0  0  0  0  0  0  0  0  0  0  0  0
   53.5863  156.4901   25.9397 H   0  0  0  0  0  0  0  0  0  0  0  0
   51.8986  152.5485   27.2585 H   0  0  0  0  0  0  0  0  0  0  0  0
   51.6357  153.2017   25.6097 H   0  0  0  0  0  0  0  0  0  0  0  0
   53.7726  151.1756   26.4655 H   0  0  0  0  0  0  0  0  0  0  0  0
   52.3107  150.8576   25.4498 H   0  0  0  0  0  0  0  0  0  0  0  0
   54.4387  151.0835   24.1262 H   0  0  0  0  0  0  0  0  0  0  0  0
   53.1547  152.2761   23.6834 H   0  0  0  0  0  0  0  0  0  0  0  0
   55.6143  152.7681   25.4250 H   0  0  0  0  0  0  0  0  0  0  0  0
   55.2693  153.4328   23.7771 H   0  0  0  0  0  0  0  0  0  0  0  0
   54.8406  155.0844   25.6224 H   0  0  0  0  0  0  0  0  0  0  0  0
   53.3869  154.7217   24.6367 H   0  0  0  0  0  0  0  0  0  0  0  0
  1  2  1  0
  2  3  2  0
  3  4  1  0
  4  5  1  0
  5  6  1  0
  6  7  1  0
  7  8  2  0
  8  9  1  0
  9 10  2  0
 10 11  1  0
 11 12  1  0
 11 13  2  0
 13 14  1  0
 14 15  2  0
 14 16  1  0
 16 17  1  0
  4 18  2  0
 18 19  1  0
 19 20  2  0
 20 21  1  0
 21 22  1  0
 22 23  1  0
 23 24  1  0
 24 25  1  0
 25 26  1  0
 20  2  1  0
 26 21  1  0
 16  5  2  0
 13  7  1  0
  1 27  1  0
  1 28  1  0
  1 29  1  0
  3 30  1  0
  8 31  1  0
  9 32  1  0
 10 33  1  0
 12 34  1  0
 17 35  1  0
 18 36  1  0
 19 37  1  0
 22 38  1  0
 22 39  1  0
 23 40  1  0
 23 41  1  0
 24 42  1  0
 24 43  1  0
 25 44  1  0
 25 45  1  0
 26 46  1  0
 26 47  1  0
M  END
>  <meeko>  (2) 
{"is_sidechain": [false], "free_energy": -10.341, "intermolecular_energy": -12.969, "internal_energy": 0.36}

$$$$
cand_023_out
     RDKit          3D

 47 50  0  0  0  0  0  0  0  0999 V2000
   48.3440  158.2520   30.9570 C   0  0  0  0  0  0  0  0  0  0  0  0
   49.7540  158.3210   30.4340 C   0  0  0  0  0  0  0  0  0  0  0  0
   50.2680  157.2480   29.6840 C   0  0  0  0  0  0  0  0  0  0  0  0
   51.5750  157.2720   29.1730 C   0  0  0  0  0  0  0  0  0  0  0  0
   52.0890  156.1130   28.4130 C   0  0  0  0  0  0  0  0  0  0  0  0
   52.6740  156.4760   27.2050 O   0  0  0  0  0  0  0  0  0  0  0  0
   53.1960  155.4980   26.3990 C   0  0  0  0  0  0  0  0  0  0  0  0
   53.7610  155.9060   25.1900 C   0  0  0  0  0  0  0  0  0  0  0  0
   54.3110  154.9600   24.3240 C   0  0  0  0  0  0  0  0  0  0  0  0
   54.2980  153.6060   24.6650 C   0  0  0  0  0  0  0  0  0  0  0  0
   53.7330  153.2010   25.8710 C   0  0  0  0  0  0  0  0  0  0  0  0
   53.7520  151.8600   26.1430 O   0  0  0  0  0  0  0  0  0  0  0  0
   53.1810  154.1480   26.7390 C   0  0  0  0  0  0  0  0  0  0  0  0
   52.5790  153.7650   28.0160 C   0  0  0  0  0  0  0  0  0  0  0  0
   52.5340  152.5940   28.3900 O   0  0  0  0  0  0  0  0  0  0  0  0
   52.0160  154.8450   28.8590 C   0  0  0  0  0  0  0  0  0  0  0  0
   51.4620  154.4720   30.0700 O   0  0  0  0  0  0  0  0  0  0  0  0
   52.3700  158.3910   29.4390 C   0  0  0  0  0  0  0  0  0  0  0  0
   51.8680  159.4650   30.1810 C   0  0  0  0  0  0  0  0  0  0  0  0
   50.5610  159.4460   30.6910 C   0  0  0  0  0  0  0  0  0  0  0  0
   50.0260  160.5230   31.4300 N   0  0  0  0  0  0  0  0  0  0  0  0
   48.8310  161.1220   30.8140 C   0  0  0  0  0  0  0  0  0  0  0  0
   48.4800  162.4110   31.5580 C   0  0  0  0  0  0  0  0  0  0  0  0
   48.2920  162.1500   33.0520 C   0  0  0  0  0  0  0  0  0  0  0  0
   49.5080  161.4350   33.6390 C   0  0  0  0  0  0  0  0  0  0  0  0
   49.8450  160.1700   32.8480 C   0  0  0  0  0  0  0  0  0  0  0  0
   48.3604  158.2528   32.0569 H   0  0  0  0  0  0  0  0  0  0  0  0
   47.7768  159.1235   30.5981 H   0  0  0  0  0  0  0  0  0  0  0  0
   47.8646  157.3293   30.5981 H   0  0  0  0  0  0  0  0  0  0  0  0
   49.6319  156.3710   29.4938 H   0  0  0  0  0  0  0  0  0  0  0  0
   53.7728  156.9723   24.9199 H   0  0  0  0  0  0  0  0  0  0  0  0
   54.7557  155.2816   23.3707 H   0  0  0  0  0  0  0  0  0  0  0  0
   54.7331  152.8613   23.9823 H   0  0  0  0  0  0  0  0  0  0  0  0
   53.6450  151.2400   25.4500 H   0  0  0  0  0  0  0  0  0  0  0  0
   51.8560  154.7550   30.8720 H   0  0  0  0  0  0  0  0  0  0  0  0
   53.4021  158.4271   29.0603 H   0  0  0  0  0  0  0  0  0  0  0  0
   52.5087  160.3394   30.3679 H   0  0  0  0  0  0  0  0  0  0  0  0
   49.0358  161.3501   29.7576 H   0  0  0  0  0  0  0  0  0  0  0  0
   47.9888  160.4170   30.8746 H   0  0  0  0  0  0  0  0  0  0  0  0
   49.2935  163.1384   31.4199 H   0  0  0  0  0  0  0  0  0  0  0  0
   47.5368  162.8039   31.1505 H   0  0  0  0  0  0  0  0  0  0  0  0
   48.1540  163.1102   33.5706 H   0  0  0  0  0  0  0  0  0  0  0  0
   47.4085  161.5089   33.1878 H   0  0  0  0  0  0  0  0  0  0  0  0
   50.3717  162.1156   33.6112 H   0  0  0  0  0  0  0  0  0  0  0  0
   49.2738  161.1450   34.6739 H   0  0  0  0  0  0  0  0  0  0  0  0
   50.7731  159.7273   33.2389 H   0  0  0  0  0  0  0  0  0  0  0  0
   49.0268  159.4416   32.9473 H   0  0  0  0  0  0  0  0  0  0  0  0
  1  2  1  0
  2  3  2  0
  3  4  1  0
  4  5  1  0
  5  6  1  0
  6  7  1  0
  7  8  2  0
  8  9  1  0
  9 10  2  0
 10 11  1  0
 11 12  1  0
 11 13  2  0
 13 14  1  0
 14 15  2  0
 14 16  1  0
 16 17  1  0
  4 18  2  0
 18 19  1  0
 19 20  2  0
 20 21  1  0
 21 22  1  0
 22 23  1  0
 23 24  1  0
 24 25  1  0
 25 26  1  0
 20  2  1  0
 26 21  1  0
 16  5  2  0
 13  7  1  0
  1 27  1  0
  1 28  1  0
  1 29  1  0
  3 30  1  0
  8 31  1  0
  9 32  1  0
 10 33  1  0
 12 34  1  0
 17 35  1  0
 18 36  1  0
 19 37  1  0
 22 38  1  0
 22 39  1  0
 23 40  1  0
 23 41  1  0
 24 42  1  0
 24 43  1  0
 25 44  1  0
 25 45  1  0
 26 46  1  0
 26 47  1  0
M  END
>  <meeko>  (3) 
{"is_sidechain": [false], "free_energy": -10.33, "intermolecular_energy": -13.217, "internal_energy": 0.622}

$$$$
cand_023_out
     RDKit          3D

 47 50  0  0  0  0  0  0  0  0999 V2000
   53.6190  155.6840   25.1610 C   0  0  0  0  0  0  0  0  0  0  0  0
   52.9290  155.4440   26.4770 C   0  0  0  0  0  0  0  0  0  0  0  0
   52.5300  156.5430   27.2590 C   0  0  0  0  0  0  0  0  0  0  0  0
   51.8790  156.3670   28.4900 C   0  0  0  0  0  0  0  0  0  0  0  0
   51.4990  157.5450   29.2980 C   0  0  0  0  0  0  0  0  0  0  0  0
   50.1680  157.5200   29.6980 O   0  0  0  0  0  0  0  0  0  0  0  0
   49.6830  158.5540   30.4560 C   0  0  0  0  0  0  0  0  0  0  0  0
   48.3380  158.4940   30.8230 C   0  0  0  0  0  0  0  0  0  0  0  0
   47.7810  159.5140   31.5970 C   0  0  0  0  0  0  0  0  0  0  0  0
   48.5680  160.5940   32.0040 C   0  0  0  0  0  0  0  0  0  0  0  0
   49.9090  160.6520   31.6350 C   0  0  0  0  0  0  0  0  0  0  0  0
   50.6230  161.7360   32.0680 O   0  0  0  0  0  0  0  0  0  0  0  0
   50.4670  159.6300   30.8610 C   0  0  0  0  0  0  0  0  0  0  0  0
   51.8720  159.6510   30.4530 C   0  0  0  0  0  0  0  0  0  0  0  0
   52.6300  160.5640   30.7770 O   0  0  0  0  0  0  0  0  0  0  0  0
   52.3630  158.5250   29.6270 C   0  0  0  0  0  0  0  0  0  0  0  0
   53.6960  158.5490   29.2580 O   0  0  0  0  0  0  0  0  0  0  0  0
   51.6440  155.0620   28.9350 C   0  0  0  0  0  0  0  0  0  0  0  0
   52.0340  153.9620   28.1640 C   0  0  0  0  0  0  0  0  0  0  0  0
   52.6820  154.1340   26.9310 C   0  0  0  0  0  0  0  0  0  0  0  0
   53.0730  153.0420   26.1270 N   0  0  0  0  0  0  0  0  0  0  0  0
   54.5180  152.9990   25.8580 C   0  0  0  0  0  0  0  0  0  0  0  0
   54.7960  151.9320   24.7980 C   0  0  0  0  0  0  0  0  0  0  0  0
   54.2470  150.5730   25.2280 C   0  0  0  0  0  0  0  0  0  0  0  0
   52.7680  150.6740   25.6000 C   0  0  0  0  0  0  0  0  0  0  0  0
   52.5290  151.7720   26.6360 C   0  0  0  0  0  0  0  0  0  0  0  0
   54.6435  156.0404   25.3438 H   0  0  0  0  0  0  0  0  0  0  0  0
   53.6539  154.7452   24.5887 H   0  0  0  0  0  0  0  0  0  0  0  0
   53.0638  156.4418   24.5887 H   0  0  0  0  0  0  0  0  0  0  0  0
   52.7325  157.5622   26.8981 H   0  0  0  0  0  0  0  0  0  0  0  0
   47.7173  157.6441   30.5029 H   0  0  0  0  0  0  0  0  0  0  0  0
   46.7209  159.4670   31.8867 H   0  0  0  0  0  0  0  0  0  0  0  0
   48.1291  161.3968   32.6147 H   0  0  0  0  0  0  0  0  0  0  0  0
   51.4620  161.6160   32.4650 H   0  0  0  0  0  0  0  0  0  0  0  0
   54.2690  159.1980   29.6170 H   0  0  0  0  0  0  0  0  0  0  0  0
   51.1467  154.8988   29.9025 H   0  0  0  0  0  0  0  0  0  0  0  0
   51.8294  152.9451   28.5302 H   0  0  0  0  0  0  0  0  0  0  0  0
   54.8541  153.9799   25.4908 H   0  0  0  0  0  0  0  0  0  0  0  0
   55.0609  152.7542   26.7828 H   0  0  0  0  0  0  0  0  0  0  0  0
   54.3171  152.2304   23.8537 H   0  0  0  0  0  0  0  0  0  0  0  0
   55.8848  151.8437   24.6685 H   0  0  0  0  0  0  0  0  0  0  0  0
   54.3616  149.8597   24.3985 H   0  0  0  0  0  0  0  0  0  0  0  0
   54.8082  150.2308   26.1100 H   0  0  0  0  0  0  0  0  0  0  0  0
   52.1858  150.9025   24.6951 H   0  0  0  0  0  0  0  0  0  0  0  0
   52.4530  149.7134   26.0336 H   0  0  0  0  0  0  0  0  0  0  0  0
   51.4492  151.8797   26.8160 H   0  0  0  0  0  0  0  0  0  0  0  0
   53.0289  151.5065   27.5792 H   0  0  0  0  0  0  0  0  0  0  0  0
  1  2  1  0
  2  3  2  0
  3  4  1  0
  4  5  1  0
  5  6  1  0
  6  7  1  0
  7  8  2  0
  8  9  1  0
  9 10  2  0
 10 11  1  0
 11 12  1  0
 11 13  2  0
 13 14  1  0
 14 15  2  0
 14 16  1  0
 16 17  1  0
  4 18  2  0
 18 19  1  0
 19 20  2  0
 20 21  1  0
 21 22  1  0
 22 23  1  0
 23 24  1  0
 24 25  1  0
 25 26  1  0
 20  2  1  0
 26 21  1  0
 16  5  2  0
 13  7  1  0
  1 27  1  0
  1 28  1  0
  1 29  1  0
  3 30  1  0
  8 31  1  0
  9 32  1  0
 10 33  1  0
 12 34  1  0
 17 35  1  0
 18 36  1  0
 19 37  1  0
 22 38  1  0
 22 39  1  0
 23 40  1  0
 23 41  1  0
 24 42  1  0
 24 43  1  0
 25 44  1  0
 25 45  1  0
 26 46  1  0
 26 47  1  0
M  END
>  <meeko>  (4) 
{"is_sidechain": [false], "free_energy": -10.111, "intermolecular_energy": -12.53, "internal_energy": 0.193}

$$$$
cand_023_out
     RDKit          3D

 47 50  0  0  0  0  0  0  0  0999 V2000
   54.0160  156.6500   25.4860 C   0  0  0  0  0  0  0  0  0  0  0  0
   53.1650  156.1340   26.6150 C   0  0  0  0  0  0  0  0  0  0  0  0
   52.5330  157.0470   27.4790 C   0  0  0  0  0  0  0  0  0  0  0  0
   51.7270  156.6110   28.5420 C   0  0  0  0  0  0  0  0  0  0  0  0
   51.1020  157.6000   29.4450 C   0  0  0  0  0  0  0  0  0  0  0  0
   51.9200  158.6950   29.6980 O   0  0  0  0  0  0  0  0  0  0  0  0
   51.4620  159.6910   30.5200 C   0  0  0  0  0  0  0  0  0  0  0  0
   52.3220  160.7650   30.7560 C   0  0  0  0  0  0  0  0  0  0  0  0
   51.9160  161.8130   31.5840 C   0  0  0  0  0  0  0  0  0  0  0  0
   50.6510  161.7900   32.1750 C   0  0  0  0  0  0  0  0  0  0  0  0
   49.7950  160.7180   31.9380 C   0  0  0  0  0  0  0  0  0  0  0  0
   48.5710  160.7580   32.5480 O   0  0  0  0  0  0  0  0  0  0  0  0
   50.2020  159.6670   31.1100 C   0  0  0  0  0  0  0  0  0  0  0  0
   49.3330  158.5220   30.8340 C   0  0  0  0  0  0  0  0  0  0  0  0
   48.2030  158.4320   31.3130 O   0  0  0  0  0  0  0  0  0  0  0  0
   49.8610  157.4590   29.9500 C   0  0  0  0  0  0  0  0  0  0  0  0
   49.0260  156.3880   29.6860 O   0  0  0  0  0  0  0  0  0  0  0  0
   51.5740  155.2340   28.7370 C   0  0  0  0  0  0  0  0  0  0  0  0
   52.1960  154.3180   27.8820 C   0  0  0  0  0  0  0  0  0  0  0  0
   53.0000  154.7500   26.8160 C   0  0  0  0  0  0  0  0  0  0  0  0
   53.6260  153.8460   25.9310 N   0  0  0  0  0  0  0  0  0  0  0  0
   53.5280  152.4430   26.3600 C   0  0  0  0  0  0  0  0  0  0  0  0
   54.4310  151.5860   25.4710 C   0  0  0  0  0  0  0  0  0  0  0  0
   54.0810  151.7670   23.9950 C   0  0  0  0  0  0  0  0  0  0  0  0
   54.0920  153.2450   23.6080 C   0  0  0  0  0  0  0  0  0  0  0  0
   53.2030  154.0700   24.5390 C   0  0  0  0  0  0  0  0  0  0  0  0
   54.8886  157.1791   25.8967 H   0  0  0  0  0  0  0  0  0  0  0  0
   54.3564  155.8060   24.8680 H   0  0  0  0  0  0  0  0  0  0  0  0
   53.4250  157.3420   24.8680 H   0  0  0  0  0  0  0  0  0  0  0  0
   52.6737  158.1260   27.3179 H   0  0  0  0  0  0  0  0  0  0  0  0
   53.3183  160.7855   30.2901 H   0  0  0  0  0  0  0  0  0  0  0  0
   52.5940  162.6587   31.7713 H   0  0  0  0  0  0  0  0  0  0  0  0
   50.3317  162.6170   32.8263 H   0  0  0  0  0  0  0  0  0  0  0  0
   47.9240  161.3700   32.2590 H   0  0  0  0  0  0  0  0  0  0  0  0
   48.2980  156.4950   29.1060 H   0  0  0  0  0  0  0  0  0  0  0  0
   50.9580  154.8677   29.5715 H   0  0  0  0  0  0  0  0  0  0  0  0
   52.0524  153.2401   28.0482 H   0  0  0  0  0  0  0  0  0  0  0  0
   53.8507  152.3544   27.4078 H   0  0  0  0  0  0  0  0  0  0  0  0
   52.4866  152.0996   26.2727 H   0  0  0  0  0  0  0  0  0  0  0  0
   55.4782  151.8822   25.6309 H   0  0  0  0  0  0  0  0  0  0  0  0
   54.2831  150.5292   25.7382 H   0  0  0  0  0  0  0  0  0  0  0  0
   54.8186  151.2288   23.3816 H   0  0  0  0  0  0  0  0  0  0  0  0
   53.0712  151.3665   23.8222 H   0  0  0  0  0  0  0  0  0  0  0  0
   55.1230  153.6236   23.6687 H   0  0  0  0  0  0  0  0  0  0  0  0
   53.7026  153.3384   22.5835 H   0  0  0  0  0  0  0  0  0  0  0  0
   53.3005  155.1373   24.2915 H   0  0  0  0  0  0  0  0  0  0  0  0
   52.1534  153.7646   24.4165 H   0  0  0  0  0  0  0  0  0  0  0  0
  1  2  1  0
  2  3  2  0
  3  4  1  0
  4  5  1  0
  5  6  1  0
  6  7  1  0
  7  8  2  0
  8  9  1  0
  9 10  2  0
 10 11  1  0
 11 12  1  0
 11 13  2  0
 13 14  1  0
 14 15  2  0
 14 16  1  0
 16 17  1  0
  4 18  2  0
 18 19  1  0
 19 20  2  0
 20 21  1  0
 21 22  1  0
 22 23  1  0
 23 24  1  0
 24 25  1  0
 25 26  1  0
 20  2  1  0
 26 21  1  0
 16  5  2  0
 13  7  1  0
  1 27  1  0
  1 28  1  0
  1 29  1  0
  3 30  1  0
  8 31  1  0
  9 32  1  0
 10 33  1  0
 12 34  1  0
 17 35  1  0
 18 36  1  0
 19 37  1  0
 22 38  1  0
 22 39  1  0
 23 40  1  0
 23 41  1  0
 24 42  1  0
 24 43  1  0
 25 44  1  0
 25 45  1  0
 26 46  1  0
 26 47  1  0
M  END
>  <meeko>  (5) 
{"is_sidechain": [false], "free_energy": -9.851, "intermolecular_energy": -12.404, "internal_energy": 0.371}

$$$$
cand_023_out
     RDKit          3D

 47 50  0  0  0  0  0  0  0  0999 V2000
   51.8870  159.4630   29.9360 C   0  0  0  0  0  0  0  0  0  0  0  0
   51.3300  158.1060   29.5970 C   0  0  0  0  0  0  0  0  0  0  0  0
   52.0310  157.2730   28.7050 C   0  0  0  0  0  0  0  0  0  0  0  0
   51.5520  155.9990   28.3650 C   0  0  0  0  0  0  0  0  0  0  0  0
   52.3010  155.1640   27.4030 C   0  0  0  0  0  0  0  0  0  0  0  0
   51.9650  153.8170   27.4810 O   0  0  0  0  0  0  0  0  0  0  0  0
   52.5850  152.9280   26.6420 C   0  0  0  0  0  0  0  0  0  0  0  0
   52.2260  151.5850   26.7630 C   0  0  0  0  0  0  0  0  0  0  0  0
   52.8190  150.6280   25.9380 C   0  0  0  0  0  0  0  0  0  0  0  0
   53.7700  151.0130   24.9900 C   0  0  0  0  0  0  0  0  0  0  0  0
   54.1260  152.3540   24.8700 C   0  0  0  0  0  0  0  0  0  0  0  0
   55.0630  152.6620   23.9220 O   0  0  0  0  0  0  0  0  0  0  0  0
   53.5330  153.3110   25.6980 C   0  0  0  0  0  0  0  0  0  0  0  0
   53.8780  154.7310   25.6040 C   0  0  0  0  0  0  0  0  0  0  0  0
   54.7000  155.1480   24.7910 O   0  0  0  0  0  0  0  0  0  0  0  0
   53.1970  155.6630   26.5310 C   0  0  0  0  0  0  0  0  0  0  0  0
   53.5210  157.0040   26.4250 O   0  0  0  0  0  0  0  0  0  0  0  0
   50.3430  155.5740   28.9250 C   0  0  0  0  0  0  0  0  0  0  0  0
   49.6400  156.3930   29.8150 C   0  0  0  0  0  0  0  0  0  0  0  0
   50.1170  157.6660   30.1610 C   0  0  0  0  0  0  0  0  0  0  0  0
   49.4340  158.5060   31.0670 N   0  0  0  0  0  0  0  0  0  0  0  0
   50.2560  159.6180   31.5700 C   0  0  0  0  0  0  0  0  0  0  0  0
   49.5100  160.3140   32.7080 C   0  0  0  0  0  0  0  0  0  0  0  0
   48.1250  160.7750   32.2570 C   0  0  0  0  0  0  0  0  0  0  0  0
   47.3350  159.6180   31.6460 C   0  0  0  0  0  0  0  0  0  0  0  0
   48.1290  158.9300   30.5350 C   0  0  0  0  0  0  0  0  0  0  0  0
   51.9340  159.5775   31.0290 H   0  0  0  0  0  0  0  0  0  0  0  0
   52.8979  159.5605   29.5133 H   0  0  0  0  0  0  0  0  0  0  0  0
   51.2361  160.2426   29.5133 H   0  0  0  0  0  0  0  0  0  0  0  0
   52.9745  157.6284   28.2651 H   0  0  0  0  0  0  0  0  0  0  0  0
   51.4762  151.2807   27.5081 H   0  0  0  0  0  0  0  0  0  0  0  0
   52.5371  149.5691   26.0345 H   0  0  0  0  0  0  0  0  0  0  0  0
   54.2367  150.2585   24.3396 H   0  0  0  0  0  0  0  0  0  0  0  0
   55.0590  152.2170   23.0980 H   0  0  0  0  0  0  0  0  0  0  0  0
   54.1790  157.2790   25.8170 H   0  0  0  0  0  0  0  0  0  0  0  0
   49.9403  154.5846   28.6627 H   0  0  0  0  0  0  0  0  0  0  0  0
   48.6967  156.0325   30.2511 H   0  0  0  0  0  0  0  0  0  0  0  0
   51.2152  159.2286   31.9418 H   0  0  0  0  0  0  0  0  0  0  0  0
   50.4475  160.3351   30.7582 H   0  0  0  0  0  0  0  0  0  0  0  0
   49.3992  159.6117   33.5474 H   0  0  0  0  0  0  0  0  0  0  0  0
   50.0888  161.1971   33.0165 H   0  0  0  0  0  0  0  0  0  0  0  0
   47.5756  161.1666   33.1258 H   0  0  0  0  0  0  0  0  0  0  0  0
   48.2473  161.5577   31.4938 H   0  0  0  0  0  0  0  0  0  0  0  0
   47.1089  158.8833   32.4328 H   0  0  0  0  0  0  0  0  0  0  0  0
   46.4078  160.0208   31.2124 H   0  0  0  0  0  0  0  0  0  0  0  0
   47.5742  158.0505   30.1762 H   0  0  0  0  0  0  0  0  0  0  0  0
   48.2791  159.6294   29.6993 H   0  0  0  0  0  0  0  0  0  0  0  0
  1  2  1  0
  2  3  2  0
  3  4  1  0
  4  5  1  0
  5  6  1  0
  6  7  1  0
  7  8  2  0
  8  9  1  0
  9 10  2  0
 10 11  1  0
 11 12  1  0
 11 13  2  0
 13 14  1  0
 14 15  2  0
 14 16  1  0
 16 17  1  0
  4 18  2  0
 18 19  1  0
 19 20  2  0
 20 21  1  0
 21 22  1  0
 22 23  1  0
 23 24  1  0
 24 25  1  0
 25 26  1  0
 20  2  1  0
 26 21  1  0
 16  5  2  0
 13  7  1  0
  1 27  1  0
  1 28  1  0
  1 29  1  0
  3 30  1  0
  8 31  1  0
  9 32  1  0
 10 33  1  0
 12 34  1  0
 17 35  1  0
 18 36  1  0
 19 37  1  0
 22 38  1  0
 22 39  1  0
 23 40  1  0
 23 41  1  0
 24 42  1  0
 24 43  1  0
 25 44  1  0
 25 45  1  0
 26 46  1  0
 26 47  1  0
M  END
>  <meeko>  (6) 
{"is_sidechain": [false], "free_energy": -8.978, "intermolecular_energy": -12.716, "internal_energy": 1.71}

$$$$
cand_023_out
     RDKit          3D

 47 50  0  0  0  0  0  0  0  0999 V2000
   52.4580  160.4040   30.3220 C   0  0  0  0  0  0  0  0  0  0  0  0
   51.6380  159.1650   30.0800 C   0  0  0  0  0  0  0  0  0  0  0  0
   52.1560  158.1390   29.2690 C   0  0  0  0  0  0  0  0  0  0  0  0
   51.4280  156.9650   29.0200 C   0  0  0  0  0  0  0  0  0  0  0  0
   51.9940  155.9210   28.1400 C   0  0  0  0  0  0  0  0  0  0  0  0
   51.5070  154.6510   28.4260 O   0  0  0  0  0  0  0  0  0  0  0  0
   51.9480  153.5870   27.6830 C   0  0  0  0  0  0  0  0  0  0  0  0
   51.4440  152.3290   28.0140 C   0  0  0  0  0  0  0  0  0  0  0  0
   51.8500  151.2040   27.2950 C   0  0  0  0  0  0  0  0  0  0  0  0
   52.7610  151.3350   26.2450 C   0  0  0  0  0  0  0  0  0  0  0  0
   53.2640  152.5920   25.9160 C   0  0  0  0  0  0  0  0  0  0  0  0
   54.1520  152.6500   24.8770 O   0  0  0  0  0  0  0  0  0  0  0  0
   52.8570  153.7180   26.6370 C   0  0  0  0  0  0  0  0  0  0  0  0
   53.3590  155.0570   26.3240 C   0  0  0  0  0  0  0  0  0  0  0  0
   54.1580  155.2540   25.4100 O   0  0  0  0  0  0  0  0  0  0  0  0
   52.8710  156.1830   27.1520 C   0  0  0  0  0  0  0  0  0  0  0  0
   53.3420  157.4450   26.8380 O   0  0  0  0  0  0  0  0  0  0  0  0
   50.1570  156.8400   29.5900 C   0  0  0  0  0  0  0  0  0  0  0  0
   49.6340  157.8530   30.4000 C   0  0  0  0  0  0  0  0  0  0  0  0
   50.3600  159.0260   30.6550 C   0  0  0  0  0  0  0  0  0  0  0  0
   49.8600  160.0560   31.4800 N   0  0  0  0  0  0  0  0  0  0  0  0
   48.8180  160.8710   30.8360 C   0  0  0  0  0  0  0  0  0  0  0  0
   48.5230  162.0870   31.7150 C   0  0  0  0  0  0  0  0  0  0  0  0
   48.1320  161.6610   33.1290 C   0  0  0  0  0  0  0  0  0  0  0  0
   49.1860  160.7330   33.7310 C   0  0  0  0  0  0  0  0  0  0  0  0
   49.4760  159.5490   32.8070 C   0  0  0  0  0  0  0  0  0  0  0  0
   52.5657  160.5668   31.4045 H   0  0  0  0  0  0  0  0  0  0  0  0
   53.4527  160.2796   29.8691 H   0  0  0  0  0  0  0  0  0  0  0  0
   51.9548  161.2710   29.8691 H   0  0  0  0  0  0  0  0  0  0  0  0
   53.1531  158.2593   28.8203 H   0  0  0  0  0  0  0  0  0  0  0  0
   50.7268  152.2239   28.8414 H   0  0  0  0  0  0  0  0  0  0  0  0
   51.4517  150.2124   27.5559 H   0  0  0  0  0  0  0  0  0  0  0  0
   53.0809  150.4478   25.6788 H   0  0  0  0  0  0  0  0  0  0  0  0
   54.3420  153.4710   24.4690 H   0  0  0  0  0  0  0  0  0  0  0  0
   52.7390  158.1480   26.6970 H   0  0  0  0  0  0  0  0  0  0  0  0
   49.5620  155.9347   29.3991 H   0  0  0  0  0  0  0  0  0  0  0  0
   48.6358  157.7278   30.8450 H   0  0  0  0  0  0  0  0  0  0  0  0
   49.1693  161.2060   29.8489 H   0  0  0  0  0  0  0  0  0  0  0  0
   47.9034  160.2730   30.7098 H   0  0  0  0  0  0  0  0  0  0  0  0
   49.4212  162.7200   31.7658 H   0  0  0  0  0  0  0  0  0  0  0  0
   47.6831  162.6427   31.2725 H   0  0  0  0  0  0  0  0  0  0  0  0
   48.0371  162.5561   33.7613 H   0  0  0  0  0  0  0  0  0  0  0  0
   47.1750  161.1208   33.0808 H   0  0  0  0  0  0  0  0  0  0  0  0
   50.1150  161.3004   33.8889 H   0  0  0  0  0  0  0  0  0  0  0  0
   48.8016  160.3432   34.6851 H   0  0  0  0  0  0  0  0  0  0  0  0
   50.2983  158.9491   33.2241 H   0  0  0  0  0  0  0  0  0  0  0  0
   48.5778  158.9203   32.7176 H   0  0  0  0  0  0  0  0  0  0  0  0
  1  2  1  0
  2  3  2  0
  3  4  1  0
  4  5  1  0
  5  6  1  0
  6  7  1  0
  7  8  2  0
  8  9  1  0
  9 10  2  0
 10 11  1  0
 11 12  1  0
 11 13  2  0
 13 14  1  0
 14 15  2  0
 14 16  1  0
 16 17  1  0
  4 18  2  0
 18 19  1  0
 19 20  2  0
 20 21  1  0
 21 22  1  0
 22 23  1  0
 23 24  1  0
 24 25  1  0
 25 26  1  0
 20  2  1  0
 26 21  1  0
 16  5  2  0
 13  7  1  0
  1 27  1  0
  1 28  1  0
  1 29  1  0
  3 30  1  0
  8 31  1  0
  9 32  1  0
 10 33  1  0
 12 34  1  0
 17 35  1  0
 18 36  1  0
 19 37  1  0
 22 38  1  0
 22 39  1  0
 23 40  1  0
 23 41  1  0
 24 42  1  0
 24 43  1  0
 25 44  1  0
 25 45  1  0
 26 46  1  0
 26 47  1  0
M  END
>  <meeko>  (7) 
{"is_sidechain": [false], "free_energy": -8.651, "intermolecular_energy": -10.464, "internal_energy": -0.159}

$$$$
