cand_055_out
     RDKit          3D

 41 43  0  0  0  0  0  0  0  0999 V2000
   48.7100  161.5200   33.7000 C   0  0  0  0  0  0  0  0  0  0  0  0
   50.0270  161.1490   33.0360 C   0  0  0  0  0  0  0  0  0  0  0  0
   49.9370  161.2670   31.5130 C   0  0  0  0  0  0  0  0  0  0  0  0
   50.4070  160.0060   30.8230 C   0  0  0  0  0  0  0  0  0  0  0  0
   51.7300  159.9570   30.3530 C   0  0  0  0  0  0  0  0  0  0  0  0
   52.2200  158.8240   29.6990 C   0  0  0  0  0  0  0  0  0  0  0  0
   51.4040  157.7070   29.5000 C   0  0  0  0  0  0  0  0  0  0  0  0
   51.8900  156.5040   28.7900 C   0  0  0  0  0  0  0  0  0  0  0  0
   52.4570  156.7990   27.5550 O   0  0  0  0  0  0  0  0  0  0  0  0
   52.9500  155.7740   26.7900 C   0  0  0  0  0  0  0  0  0  0  0  0
   53.5240  156.1160   25.5650 C   0  0  0  0  0  0  0  0  0  0  0  0
   54.0430  155.1200   24.7350 C   0  0  0  0  0  0  0  0  0  0  0  0
   53.9870  153.7810   25.1300 C   0  0  0  0  0  0  0  0  0  0  0  0
   53.4140  153.4420   26.3530 C   0  0  0  0  0  0  0  0  0  0  0  0
   53.3910  152.1130   26.6770 O   0  0  0  0  0  0  0  0  0  0  0  0
   52.8950  154.4400   27.1830 C   0  0  0  0  0  0  0  0  0  0  0  0
   52.2840  154.1260   28.4760 C   0  0  0  0  0  0  0  0  0  0  0  0
   52.1920  152.9730   28.8890 O   0  0  0  0  0  0  0  0  0  0  0  0
   51.7710  155.2580   29.2830 C   0  0  0  0  0  0  0  0  0  0  0  0
   51.1850  154.9480   30.4970 O   0  0  0  0  0  0  0  0  0  0  0  0
   50.0780  157.7610   29.9560 C   0  0  0  0  0  0  0  0  0  0  0  0
   49.5650  158.8970   30.6110 C   0  0  0  0  0  0  0  0  0  0  0  0
   48.1390  158.8780   31.0880 C   0  0  0  0  0  0  0  0  0  0  0  0
   48.8283  161.4867   34.7931 H   0  0  0  0  0  0  0  0  0  0  0  0
   48.4181  162.5353   33.3936 H   0  0  0  0  0  0  0  0  0  0  0  0
   47.9310  160.8063   33.3936 H   0  0  0  0  0  0  0  0  0  0  0  0
   50.8147  161.8243   33.4014 H   0  0  0  0  0  0  0  0  0  0  0  0
   50.2602  160.1042   33.2892 H   0  0  0  0  0  0  0  0  0  0  0  0
   48.8908  161.4578   31.2319 H   0  0  0  0  0  0  0  0  0  0  0  0
   50.5891  162.0939   31.1951 H   0  0  0  0  0  0  0  0  0  0  0  0
   52.3902  160.8241   30.5023 H   0  0  0  0  0  0  0  0  0  0  0  0
   53.2586  158.8109   29.3370 H   0  0  0  0  0  0  0  0  0  0  0  0
   53.5677  157.1700   25.2531 H   0  0  0  0  0  0  0  0  0  0  0  0
   54.4962  155.3898   23.7697 H   0  0  0  0  0  0  0  0  0  0  0  0
   54.3948  152.9961   24.4761 H   0  0  0  0  0  0  0  0  0  0  0  0
   54.1940  151.6500   26.8110 H   0  0  0  0  0  0  0  0  0  0  0  0
   51.5820  155.2350   31.2950 H   0  0  0  0  0  0  0  0  0  0  0  0
   49.4217  156.8926   29.7975 H   0  0  0  0  0  0  0  0  0  0  0  0
   48.1202  158.8778   32.1878 H   0  0  0  0  0  0  0  0  0  0  0  0
   47.6149  159.7692   30.7125 H   0  0  0  0  0  0  0  0  0  0  0  0
   47.6388  157.9731   30.7125 H   0  0  0  0  0  0  0  0  0  0  0  0
  1  2  1  0
  2  3  1  0
  3  4  1  0
  4  5  2  0
  5  6  1  0
  6  7  2  0
  7  8  1  0
  8  9  1  0
  9 10  1  0
 10 11  2  0
 11 12  1  0
 12 13  2  0
 13 14  1  0
 14 15  1  0
 14 16  2  0
 16 17  1  0
 17 18  2  0
 17 19  1  0
 19 20  1  0
  7 21  1  0
 21 22  2  0
 22 23  1  0
 22  4  1  0
 19  8  2  0
 16 10  1  0
  1 24  1  0
  1 25  1  0
  1 26  1  0
  2 27  1  0
  2 28  1  0
  3 29  1  0
  3 30  1  0
  5 31  1  0
  6 32  1  0
 11 33  1  0
 12 34  1  0
 13 35  1  0
 15 36  1  0
 20 37  1  0
 21 38  1  0
 23 39  1  0
 23 40  1  0
 23 41  1  0
M  END
>  <meeko>  (1) 
{"is_sidechain": [false], "free_energy": -10.85, "intermolecular_energy": -13.388, "internal_energy": -0.324}

$$$$
cand_055_out
     RDKit          3D

 41 43  0  0  0  0  0  0  0  0999 V2000
   48.4960  161.5860   33.9120 C   0  0  0  0  0  0  0  0  0  0  0  0
   49.2570  160.5010   33.1670 C   0  0  0  0  0  0  0  0  0  0  0  0
   49.4190  160.8500   31.6860 C   0  0  0  0  0  0  0  0  0  0  0  0
   50.0670  159.7240   30.9110 C   0  0  0  0  0  0  0  0  0  0  0  0
   49.3400  158.5370   30.7260 C   0  0  0  0  0  0  0  0  0  0  0  0
   49.8880  157.4580   30.0270 C   0  0  0  0  0  0  0  0  0  0  0  0
   51.1750  157.5380   29.4890 C   0  0  0  0  0  0  0  0  0  0  0  0
   51.7880  156.4030   28.7660 C   0  0  0  0  0  0  0  0  0  0  0  0
   52.3400  156.7760   27.5450 O   0  0  0  0  0  0  0  0  0  0  0  0
   52.9430  155.8200   26.7700 C   0  0  0  0  0  0  0  0  0  0  0  0
   53.4970  156.2400   25.5600 C   0  0  0  0  0  0  0  0  0  0  0  0
   54.1240  155.3160   24.7220 C   0  0  0  0  0  0  0  0  0  0  0  0
   54.1970  153.9720   25.0920 C   0  0  0  0  0  0  0  0  0  0  0  0
   53.6450  153.5550   26.3010 C   0  0  0  0  0  0  0  0  0  0  0  0
   53.7500  152.2240   26.6020 O   0  0  0  0  0  0  0  0  0  0  0  0
   53.0170  154.4800   27.1390 C   0  0  0  0  0  0  0  0  0  0  0  0
   52.4230  154.0830   28.4170 C   0  0  0  0  0  0  0  0  0  0  0  0
   52.4410  152.9190   28.8090 O   0  0  0  0  0  0  0  0  0  0  0  0
   51.7890  155.1420   29.2360 C   0  0  0  0  0  0  0  0  0  0  0  0
   51.2200  154.7530   30.4350 O   0  0  0  0  0  0  0  0  0  0  0  0
   51.9080  158.7190   29.6860 C   0  0  0  0  0  0  0  0  0  0  0  0
   51.3740  159.8120   30.3950 C   0  0  0  0  0  0  0  0  0  0  0  0
   52.2100  161.0520   30.5520 C   0  0  0  0  0  0  0  0  0  0  0  0
   48.6043  161.4316   34.9957 H   0  0  0  0  0  0  0  0  0  0  0  0
   48.9019  162.5714   33.6397 H   0  0  0  0  0  0  0  0  0  0  0  0
   47.4312  161.5400   33.6397 H   0  0  0  0  0  0  0  0  0  0  0  0
   50.2533  160.3877   33.6192 H   0  0  0  0  0  0  0  0  0  0  0  0
   48.6859  159.5638   33.2416 H   0  0  0  0  0  0  0  0  0  0  0  0
   48.4264  161.0522   31.2572 H   0  0  0  0  0  0  0  0  0  0  0  0
   50.0692  161.7342   31.6123 H   0  0  0  0  0  0  0  0  0  0  0  0
   48.3232  158.4551   31.1377 H   0  0  0  0  0  0  0  0  0  0  0  0
   49.3005  156.5369   29.8992 H   0  0  0  0  0  0  0  0  0  0  0  0
   53.4397  157.2986   25.2666 H   0  0  0  0  0  0  0  0  0  0  0  0
   54.5612  155.6476   23.7686 H   0  0  0  0  0  0  0  0  0  0  0  0
   54.6892  153.2440   24.4304 H   0  0  0  0  0  0  0  0  0  0  0  0
   53.0130  151.6580   26.4840 H   0  0  0  0  0  0  0  0  0  0  0  0
   51.2620  153.8570   30.7040 H   0  0  0  0  0  0  0  0  0  0  0  0
   52.9260  158.7924   29.2758 H   0  0  0  0  0  0  0  0  0  0  0  0
   52.3533  161.2646   31.6217 H   0  0  0  0  0  0  0  0  0  0  0  0
   53.1888  160.8972   30.0746 H   0  0  0  0  0  0  0  0  0  0  0  0
   51.6994  161.9013   30.0746 H   0  0  0  0  0  0  0  0  0  0  0  0
  1  2  1  0
  2  3  1  0
  3  4  1  0
  4  5  2  0
  5  6  1  0
  6  7  2  0
  7  8  1  0
  8  9  1  0
  9 10  1  0
 10 11  2  0
 11 12  1  0
 12 13  2  0
 13 14  1  0
 14 15  1  0
 14 16  2  0
 16 17  1  0
 17 18  2  0
 17 19  1  0
 19 20  1  0
  7 21  1  0
 21 22  2  0
 22 23  1  0
 22  4  1  0
 19  8  2  0
 16 10  1  0
  1 24  1  0
  1 25  1  0
  1 26  1  0
  2 27  1  0
  2 28  1  0
  3 29  1  0
  3 30  1  0
  5 31  1  0
  6 32  1  0
 11 33  1  0
 12 34  1  0
 13 35  1  0
 15 36  1  0
 20 37  1  0
 21 38  1  0
 23 39  1  0
 23 40  1  0
 23 41  1  0
M  END
>  <meeko>  (2) 
{"is_sidechain": [false], "free_energy": -10.848, "intermolecular_energy": -13.425, "internal_energy": -0.283}

$$$$
cand_055_out
     RDKit          3D

 41 43  0  0  0  0  0  0  0  0999 V2000
   54.3160  151.1160   24.7920 C   0  0  0  0  0  0  0  0  0  0  0  0
   54.1320  152.1230   25.9160 C   0  0  0  0  0  0  0  0  0  0  0  0
   52.6600  152.2570   26.3090 C   0  0  0  0  0  0  0  0  0  0  0  0
   52.3870  153.5560   27.0340 C   0  0  0  0  0  0  0  0  0  0  0  0
   51.9430  153.4970   28.3660 C   0  0  0  0  0  0  0  0  0  0  0  0
   51.6660  154.6620   29.0850 C   0  0  0  0  0  0  0  0  0  0  0  0
   51.8290  155.9180   28.4960 C   0  0  0  0  0  0  0  0  0  0  0  0
   51.5200  157.1670   29.2270 C   0  0  0  0  0  0  0  0  0  0  0  0
   50.2110  157.2080   29.6950 O   0  0  0  0  0  0  0  0  0  0  0  0
   49.7900  158.3110   30.3920 C   0  0  0  0  0  0  0  0  0  0  0  0
   48.4740  158.3040   30.8560 C   0  0  0  0  0  0  0  0  0  0  0  0
   47.9810  159.3980   31.5710 C   0  0  0  0  0  0  0  0  0  0  0  0
   48.8030  160.4990   31.8210 C   0  0  0  0  0  0  0  0  0  0  0  0
   50.1170  160.5030   31.3570 C   0  0  0  0  0  0  0  0  0  0  0  0
   50.8660  161.6130   31.6360 O   0  0  0  0  0  0  0  0  0  0  0  0
   50.6090  159.4080   30.6420 C   0  0  0  0  0  0  0  0  0  0  0  0
   51.9830  159.3730   30.1370 C   0  0  0  0  0  0  0  0  0  0  0  0
   52.7640  160.3050   30.3100 O   0  0  0  0  0  0  0  0  0  0  0  0
   52.4090  158.1620   29.3970 C   0  0  0  0  0  0  0  0  0  0  0  0
   53.7050  158.1460   28.9130 O   0  0  0  0  0  0  0  0  0  0  0  0
   52.2580  155.9780   27.1610 C   0  0  0  0  0  0  0  0  0  0  0  0
   52.5350  154.8150   26.4190 C   0  0  0  0  0  0  0  0  0  0  0  0
   53.0080  154.9550   24.9990 C   0  0  0  0  0  0  0  0  0  0  0  0
   54.4982  150.1189   25.2192 H   0  0  0  0  0  0  0  0  0  0  0  0
   53.4080  151.0888   24.1718 H   0  0  0  0  0  0  0  0  0  0  0  0
   55.1750  151.4117   24.1718 H   0  0  0  0  0  0  0  0  0  0  0  0
   54.7077  151.7905   26.7924 H   0  0  0  0  0  0  0  0  0  0  0  0
   54.4874  153.1030   25.5648 H   0  0  0  0  0  0  0  0  0  0  0  0
   52.0439  152.2214   25.3984 H   0  0  0  0  0  0  0  0  0  0  0  0
   52.4111  151.4282   26.9881 H   0  0  0  0  0  0  0  0  0  0  0  0
   51.8115  152.5180   28.8500 H   0  0  0  0  0  0  0  0  0  0  0  0
   51.3160  154.5897   30.1253 H   0  0  0  0  0  0  0  0  0  0  0  0
   47.8254  157.4377   30.6589 H   0  0  0  0  0  0  0  0  0  0  0  0
   46.9439  159.3923   31.9376 H   0  0  0  0  0  0  0  0  0  0  0  0
   48.4141  161.3610   32.3829 H   0  0  0  0  0  0  0  0  0  0  0  0
   50.7930  162.0290   32.4720 H   0  0  0  0  0  0  0  0  0  0  0  0
   54.3530  157.6130   29.3300 H   0  0  0  0  0  0  0  0  0  0  0  0
   52.3810  156.9605   26.6819 H   0  0  0  0  0  0  0  0  0  0  0  0
   54.0628  155.2672   24.9930 H   0  0  0  0  0  0  0  0  0  0  0  0
   52.9086  153.9889   24.4825 H   0  0  0  0  0  0  0  0  0  0  0  0
   52.3988  155.7113   24.4825 H   0  0  0  0  0  0  0  0  0  0  0  0
  1  2  1  0
  2  3  1  0
  3  4  1  0
  4  5  2  0
  5  6  1  0
  6  7  2  0
  7  8  1  0
  8  9  1  0
  9 10  1  0
 10 11  2  0
 11 12  1  0
 12 13  2  0
 13 14  1  0
 14 15  1  0
 14 16  2  0
 16 17  1  0
 17 18  2  0
 17 19  1  0
 19 20  1  0
  7 21  1  0
 21 22  2  0
 22 23  1  0
 22  4  1  0
 19  8  2  0
 16 10  1  0
  1 24  1  0
  1 25  1  0
  1 26  1  0
  2 27  1  0
  2 28  1  0
  3 29  1  0
  3 30  1  0
  5 31  1  0
  6 32  1  0
 11 33  1  0
 12 34  1  0
 13 35  1  0
 15 36  1  0
 20 37  1  0
 21 38  1  0
 23 39  1  0
 23 40  1  0
 23 41  1  0
M  END
>  <meeko>  (3) 
{"is_sidechain": [false], "free_energy": -9.986, "intermolecular_energy": -12.577, "internal_energy": -0.067}

$$$$
cand_055_out
     RDKit          3D

 41 43  0  0  0  0  0  0  0  0999 V2000
   48.8550  161.4580   31.0660 C   0  0  0  0  0  0  0  0  0  0  0  0
   49.7720  160.7860   30.0580 C   0  0  0  0  0  0  0  0  0  0  0  0
   50.8940  160.0130   30.7540 C   0  0  0  0  0  0  0  0  0  0  0  0
   51.2130  158.7190   30.0390 C   0  0  0  0  0  0  0  0  0  0  0  0
   52.4700  158.5870   29.4260 C   0  0  0  0  0  0  0  0  0  0  0  0
   52.8190  157.4200   28.7430 C   0  0  0  0  0  0  0  0  0  0  0  0
   51.9250  156.3500   28.6570 C   0  0  0  0  0  0  0  0  0  0  0  0
   52.2590  155.1120   27.9190 C   0  0  0  0  0  0  0  0  0  0  0  0
   52.9440  155.3580   26.7340 O   0  0  0  0  0  0  0  0  0  0  0  0
   53.3170  154.2970   25.9510 C   0  0  0  0  0  0  0  0  0  0  0  0
   54.0150  154.5900   24.7780 C   0  0  0  0  0  0  0  0  0  0  0  0
   54.4230  153.5550   23.9330 C   0  0  0  0  0  0  0  0  0  0  0  0
   54.1310  152.2290   24.2600 C   0  0  0  0  0  0  0  0  0  0  0  0
   53.4350  151.9400   25.4310 C   0  0  0  0  0  0  0  0  0  0  0  0
   53.1820  150.6210   25.6900 O   0  0  0  0  0  0  0  0  0  0  0  0
   53.0280  152.9760   26.2760 C   0  0  0  0  0  0  0  0  0  0  0  0
   52.2940  152.7160   27.5150 C   0  0  0  0  0  0  0  0  0  0  0  0
   51.9950  151.5770   27.8680 O   0  0  0  0  0  0  0  0  0  0  0  0
   51.9150  153.8830   28.3450 C   0  0  0  0  0  0  0  0  0  0  0  0
   51.2100  153.6260   29.5070 O   0  0  0  0  0  0  0  0  0  0  0  0
   50.6630  156.4860   29.2560 C   0  0  0  0  0  0  0  0  0  0  0  0
   50.2910  157.6580   29.9420 C   0  0  0  0  0  0  0  0  0  0  0  0
   48.9290  157.7270   30.5740 C   0  0  0  0  0  0  0  0  0  0  0  0
   49.1887  161.2135   32.0852 H   0  0  0  0  0  0  0  0  0  0  0  0
   48.8871  162.5480   30.9213 H   0  0  0  0  0  0  0  0  0  0  0  0
   47.8253  161.0991   30.9213 H   0  0  0  0  0  0  0  0  0  0  0  0
   49.1816  160.0875   29.4469 H   0  0  0  0  0  0  0  0  0  0  0  0
   50.2266  161.5658   29.4293 H   0  0  0  0  0  0  0  0  0  0  0  0
   51.7977  160.6398   30.7757 H   0  0  0  0  0  0  0  0  0  0  0  0
   50.5585  159.7669   31.7723 H   0  0  0  0  0  0  0  0  0  0  0  0
   53.1907  159.4159   29.4849 H   0  0  0  0  0  0  0  0  0  0  0  0
   53.8080  157.3425   28.2678 H   0  0  0  0  0  0  0  0  0  0  0  0
   54.2434  155.6345   24.5194 H   0  0  0  0  0  0  0  0  0  0  0  0
   54.9746  153.7846   23.0094 H   0  0  0  0  0  0  0  0  0  0  0  0
   54.4503  151.4142   23.5936 H   0  0  0  0  0  0  0  0  0  0  0  0
   52.5230  150.1660   25.2030 H   0  0  0  0  0  0  0  0  0  0  0  0
   50.4600  154.1430   29.7240 H   0  0  0  0  0  0  0  0  0  0  0  0
   49.9456  155.6550   29.1877 H   0  0  0  0  0  0  0  0  0  0  0  0
   49.0323  157.7218   31.6691 H   0  0  0  0  0  0  0  0  0  0  0  0
   48.4244  158.6519   30.2577 H   0  0  0  0  0  0  0  0  0  0  0  0
   48.3335  156.8579   30.2577 H   0  0  0  0  0  0  0  0  0  0  0  0
  1  2  1  0
  2  3  1  0
  3  4  1  0
  4  5  2  0
  5  6  1  0
  6  7  2  0
  7  8  1  0
  8  9  1  0
  9 10  1  0
 10 11  2  0
 11 12  1  0
 12 13  2  0
 13 14  1  0
 14 15  1  0
 14 16  2  0
 16 17  1  0
 17 18  2  0
 17 19  1  0
 19 20  1  0
  7 21  1  0
 21 22  2  0
 22 23  1  0
 22  4  1  0
 19  8  2  0
 16 10  1  0
  1 24  1  0
  1 25  1  0
  1 26  1  0
  2 27  1  0
  2 28  1  0
  3 29  1  0
  3 30  1  0
  5 31  1  0
  6 32  1  0
 11 33  1  0
 12 34  1  0
 13 35  1  0
 15 36  1  0
 20 37  1  0
 21 38  1  0
 23 39  1  0
 23 40  1  0
 23 41  1  0
M  END
>  <meeko>  (4) 
{"is_sidechain": [false], "free_energy": -9.582, "intermolecular_energy": -12.227, "internal_energy": 0.08}

$$$$
cand_055_out
     RDKit          3D

 41 43  0  0  0  0  0  0  0  0999 V2000
   53.3650  150.9640   25.5610 C   0  0  0  0  0  0  0  0  0  0  0  0
   52.6870  152.1130   26.2900 C   0  0  0  0  0  0  0  0  0  0  0  0
   53.6090  153.3290   26.3930 C   0  0  0  0  0  0  0  0  0  0  0  0
   52.9740  154.4510   27.1850 C   0  0  0  0  0  0  0  0  0  0  0  0
   52.2790  154.1250   28.3610 C   0  0  0  0  0  0  0  0  0  0  0  0
   51.6640  155.1160   29.1310 C   0  0  0  0  0  0  0  0  0  0  0  0
   51.7300  156.4590   28.7490 C   0  0  0  0  0  0  0  0  0  0  0  0
   51.0670  157.5240   29.5320 C   0  0  0  0  0  0  0  0  0  0  0  0
   51.9150  158.5860   29.8250 O   0  0  0  0  0  0  0  0  0  0  0  0
   51.4280  159.6450   30.5470 C   0  0  0  0  0  0  0  0  0  0  0  0
   52.3100  160.6950   30.8060 C   0  0  0  0  0  0  0  0  0  0  0  0
   51.8790  161.8040   31.5370 C   0  0  0  0  0  0  0  0  0  0  0  0
   50.5660  161.8610   32.0120 C   0  0  0  0  0  0  0  0  0  0  0  0
   49.6890  160.8120   31.7520 C   0  0  0  0  0  0  0  0  0  0  0  0
   48.4190  160.9320   32.2470 O   0  0  0  0  0  0  0  0  0  0  0  0
   50.1210  159.7030   31.0190 C   0  0  0  0  0  0  0  0  0  0  0  0
   49.2310  158.5790   30.7250 C   0  0  0  0  0  0  0  0  0  0  0  0
   48.0650  158.5530   31.1140 O   0  0  0  0  0  0  0  0  0  0  0  0
   49.7850  157.4550   29.9340 C   0  0  0  0  0  0  0  0  0  0  0  0
   48.9380  156.3930   29.6730 O   0  0  0  0  0  0  0  0  0  0  0  0
   52.4110  156.7820   27.5660 C   0  0  0  0  0  0  0  0  0  0  0  0
   53.0310  155.7970   26.7750 C   0  0  0  0  0  0  0  0  0  0  0  0
   53.7590  156.2190   25.5280 C   0  0  0  0  0  0  0  0  0  0  0  0
   53.7812  150.2586   26.2953 H   0  0  0  0  0  0  0  0  0  0  0  0
   52.6286  150.4446   24.9301 H   0  0  0  0  0  0  0  0  0  0  0  0
   54.1757  151.3575   24.9301 H   0  0  0  0  0  0  0  0  0  0  0  0
   51.7777  152.3986   25.7408 H   0  0  0  0  0  0  0  0  0  0  0  0
   52.4388  151.7790   27.3083 H   0  0  0  0  0  0  0  0  0  0  0  0
   54.5427  153.0267   26.8899 H   0  0  0  0  0  0  0  0  0  0  0  0
   53.8038  153.6972   25.3749 H   0  0  0  0  0  0  0  0  0  0  0  0
   52.2178  153.0743   28.6807 H   0  0  0  0  0  0  0  0  0  0  0  0
   51.1226  154.8363   30.0468 H   0  0  0  0  0  0  0  0  0  0  0  0
   53.3443  160.6491   30.4345 H   0  0  0  0  0  0  0  0  0  0  0  0
   52.5732  162.6330   31.7390 H   0  0  0  0  0  0  0  0  0  0  0  0
   50.2263  162.7330   32.5901 H   0  0  0  0  0  0  0  0  0  0  0  0
   47.6950  160.5750   31.7710 H   0  0  0  0  0  0  0  0  0  0  0  0
   49.2920  155.5430   29.5060 H   0  0  0  0  0  0  0  0  0  0  0  0
   52.4618  157.8338   27.2480 H   0  0  0  0  0  0  0  0  0  0  0  0
   54.6802  156.7530   25.8042 H   0  0  0  0  0  0  0  0  0  0  0  0
   54.0150  155.3293   24.9340 H   0  0  0  0  0  0  0  0  0  0  0  0
   53.1141  156.8833   24.9340 H   0  0  0  0  0  0  0  0  0  0  0  0
  1  2  1  0
  2  3  1  0
  3  4  1  0
  4  5  2  0
  5  6  1  0
  6  7  2  0
  7  8  1  0
  8  9  1  0
  9 10  1  0
 10 11  2  0
 11 12  1  0
 12 13  2  0
 13 14  1  0
 14 15  1  0
 14 16  2  0
 16 17  1  0
 17 18  2  0
 17 19  1  0
 19 20  1  0
  7 21  1  0
 21 22  2  0
 22 23  1  0
 22  4  1  0
 19  8  2  0
 16 10  1  0
  1 24  1  0
  1 25  1  0
  1 26  1  0
  2 27  1  0
  2 28  1  0
  3 29  1  0
  3 30  1  0
  5 31  1  0
  6 32  1  0
 11 33  1  0
 12 34  1  0
 13 35  1  0
 15 36  1  0
 20 37  1  0
 21 38  1  0
 23 39  1  0
 23 40  1  0
 23 41  1  0
M  END
>  <meeko>  (5) 
{"is_sidechain": [false], "free_energy": -9.056, "intermolecular_energy": -11.215, "internal_energy": -0.283}

$$$$
cand_055_out
     RDKit          3D

 41 43  0  0  0  0  0  0  0  0999 V2000
   47.3830  159.8200   31.5540 C   0  0  0  0  0  0  0  0  0  0  0  0
   48.1270  158.9730   30.5330 C   0  0  0  0  0  0  0  0  0  0  0  0
   49.3060  158.2370   31.1720 C   0  0  0  0  0  0  0  0  0  0  0  0
   50.1090  157.4670   30.1470 C   0  0  0  0  0  0  0  0  0  0  0  0
   49.6460  156.2020   29.7500 C   0  0  0  0  0  0  0  0  0  0  0  0
   50.3490  155.4380   28.8150 C   0  0  0  0  0  0  0  0  0  0  0  0
   51.5320  155.9190   28.2480 C   0  0  0  0  0  0  0  0  0  0  0  0
   52.3090  155.1220   27.2740 C   0  0  0  0  0  0  0  0  0  0  0  0
   52.0490  153.7590   27.3620 O   0  0  0  0  0  0  0  0  0  0  0  0
   52.7030  152.9020   26.5150 C   0  0  0  0  0  0  0  0  0  0  0  0
   52.4000  151.5440   26.6280 C   0  0  0  0  0  0  0  0  0  0  0  0
   53.0320  150.6180   25.7960 C   0  0  0  0  0  0  0  0  0  0  0  0
   53.9670  151.0480   24.8530 C   0  0  0  0  0  0  0  0  0  0  0  0
   54.2670  152.4030   24.7410 C   0  0  0  0  0  0  0  0  0  0  0  0
   55.1920  152.7560   23.7980 O   0  0  0  0  0  0  0  0  0  0  0  0
   53.6330  153.3300   25.5740 C   0  0  0  0  0  0  0  0  0  0  0  0
   53.9200  154.7630   25.4890 C   0  0  0  0  0  0  0  0  0  0  0  0
   54.7350  155.2180   24.6900 O   0  0  0  0  0  0  0  0  0  0  0  0
   53.1890  155.6630   26.4120 C   0  0  0  0  0  0  0  0  0  0  0  0
   53.4780  157.0140   26.3320 O   0  0  0  0  0  0  0  0  0  0  0  0
   52.0040  157.1760   28.6560 C   0  0  0  0  0  0  0  0  0  0  0  0
   51.3130  157.9560   29.6020 C   0  0  0  0  0  0  0  0  0  0  0  0
   51.8680  159.3010   29.9800 C   0  0  0  0  0  0  0  0  0  0  0  0
   47.6631  159.5011   32.5688 H   0  0  0  0  0  0  0  0  0  0  0  0
   47.6487  160.8784   31.4158 H   0  0  0  0  0  0  0  0  0  0  0  0
   46.2991  159.6930   31.4158 H   0  0  0  0  0  0  0  0  0  0  0  0
   47.4325  158.2342   30.1065 H   0  0  0  0  0  0  0  0  0  0  0  0
   48.5178  159.6388   29.7494 H   0  0  0  0  0  0  0  0  0  0  0  0
   49.9628  158.9723   31.6598 H   0  0  0  0  0  0  0  0  0  0  0  0
   48.9056  157.5189   31.9028 H   0  0  0  0  0  0  0  0  0  0  0  0
   48.7150  155.8063   30.1821 H   0  0  0  0  0  0  0  0  0  0  0  0
   49.9676  154.4486   28.5225 H   0  0  0  0  0  0  0  0  0  0  0  0
   51.6642  151.2040   27.3716 H   0  0  0  0  0  0  0  0  0  0  0  0
   52.7928  149.5479   25.8837 H   0  0  0  0  0  0  0  0  0  0  0  0
   54.4661  150.3175   24.1993 H   0  0  0  0  0  0  0  0  0  0  0  0
   56.0780  152.9260   24.0510 H   0  0  0  0  0  0  0  0  0  0  0  0
   54.2520  157.3010   25.8890 H   0  0  0  0  0  0  0  0  0  0  0  0
   52.9394  157.5621   28.2248 H   0  0  0  0  0  0  0  0  0  0  0  0
   51.9039  159.3880   31.0760 H   0  0  0  0  0  0  0  0  0  0  0  0
   52.8833  159.4070   29.5703 H   0  0  0  0  0  0  0  0  0  0  0  0
   51.2229  160.0922   29.5703 H   0  0  0  0  0  0  0  0  0  0  0  0
  1  2  1  0
  2  3  1  0
  3  4  1  0
  4  5  2  0
  5  6  1  0
  6  7  2  0
  7  8  1  0
  8  9  1  0
  9 10  1  0
 10 11  2  0
 11 12  1  0
 12 13  2  0
 13 14  1  0
 14 15  1  0
 14 16  2  0
 16 17  1  0
 17 18  2  0
 17 19  1  0
 19 20  1  0
  7 21  1  0
 21 22  2  0
 22 23  1  0
 22  4  1  0
 19  8  2  0
 16 10  1  0
  1 24  1  0
  1 25  1  0
  1 26  1  0
  2 27  1  0
  2 28  1  0
  3 29  1  0
  3 30  1  0
  5 31  1  0
  6 32  1  0
 11 33  1  0
 12 34  1  0
 13 35  1  0
 15 36  1  0
 20 37  1  0
 21 38  1  0
 23 39  1  0
 23 40  1  0
 23 41  1  0
M  END
>  <meeko>  (6) 
{"is_sidechain": [false], "free_energy": -9.034, "intermolecular_energy": -11.507, "internal_energy": 0.037}

$$$$
