cand_004_out
     RDKit          3D

 38 40  0  0  0  0  0  0  0  0999 V2000
   47.3100  159.5720   30.7380 C   0  0  0  0  0  0  0  0  0  0  0  0
   48.3410  158.8010   31.5500 C   0  0  0  0  0  0  0  0  0  0  0  0
   49.7160  158.8610   30.9200 C   0  0  0  0  0  0  0  0  0  0  0  0
   50.1630  157.7370   30.1940 C   0  0  0  0  0  0  0  0  0  0  0  0
   51.4310  157.6980   29.5980 C   0  0  0  0  0  0  0  0  0  0  0  0
   51.8890  156.5290   28.8190 C   0  0  0  0  0  0  0  0  0  0  0  0
   52.4870  156.8810   27.6150 O   0  0  0  0  0  0  0  0  0  0  0  0
   52.9580  155.8900   26.7930 C   0  0  0  0  0  0  0  0  0  0  0  0
   53.5360  156.2880   25.5870 C   0  0  0  0  0  0  0  0  0  0  0  0
   54.0380  155.3280   24.7040 C   0  0  0  0  0  0  0  0  0  0  0  0
   53.9610  153.9710   25.0280 C   0  0  0  0  0  0  0  0  0  0  0  0
   53.3830  153.5770   26.2320 C   0  0  0  0  0  0  0  0  0  0  0  0
   53.3410  152.2340   26.4860 O   0  0  0  0  0  0  0  0  0  0  0  0
   52.8810  154.5370   27.1140 C   0  0  0  0  0  0  0  0  0  0  0  0
   52.2660  154.1660   28.3890 C   0  0  0  0  0  0  0  0  0  0  0  0
   52.1680  152.9940   28.7480 O   0  0  0  0  0  0  0  0  0  0  0  0
   51.7580  155.2590   29.2490 C   0  0  0  0  0  0  0  0  0  0  0  0
   51.1910  154.8990   30.4570 O   0  0  0  0  0  0  0  0  0  0  0  0
   52.2570  158.8200   29.7220 C   0  0  0  0  0  0  0  0  0  0  0  0
   51.8320  159.9420   30.4390 C   0  0  0  0  0  0  0  0  0  0  0  0
   50.5670  159.9800   31.0520 C   0  0  0  0  0  0  0  0  0  0  0  0
   50.1560  161.2240   31.8130 C   0  0  0  0  0  0  0  0  0  0  0  0
   49.1610  161.9210   31.1990 F   0  0  0  0  0  0  0  0  0  0  0  0
   51.1870  162.1000   31.9750 F   0  0  0  0  0  0  0  0  0  0  0  0
   49.6950  160.9640   33.0700 F   0  0  0  0  0  0  0  0  0  0  0  0
   46.6186  160.0891   31.4196 H   0  0  0  0  0  0  0  0  0  0  0  0
   47.8211  160.3113   30.1038 H   0  0  0  0  0  0  0  0  0  0  0  0
   46.7453  158.8728   30.1038 H   0  0  0  0  0  0  0  0  0  0  0  0
   48.3936  159.2333   32.5601 H   0  0  0  0  0  0  0  0  0  0  0  0
   48.0281  157.7470   31.5852 H   0  0  0  0  0  0  0  0  0  0  0  0
   49.4978  156.8668   30.0928 H   0  0  0  0  0  0  0  0  0  0  0  0
   53.5965  157.3562   25.3315 H   0  0  0  0  0  0  0  0  0  0  0  0
   54.4941  155.6410   23.7532 H   0  0  0  0  0  0  0  0  0  0  0  0
   54.3563  153.2153   24.3332 H   0  0  0  0  0  0  0  0  0  0  0  0
   53.7330  151.8910   27.2640 H   0  0  0  0  0  0  0  0  0  0  0  0
   50.9860  155.5570   31.0930 H   0  0  0  0  0  0  0  0  0  0  0  0
   53.2509  158.8193   29.2506 H   0  0  0  0  0  0  0  0  0  0  0  0
   52.4998  160.8118   30.5254 H   0  0  0  0  0  0  0  0  0  0  0  0
  1  2  1  0
  2  3  1  0
  3  4  2  0
  4  5  1  0
  5  6  1  0
  6  7  1  0
  7  8  1  0
  8  9  2  0
  9 10  1  0
 10 11  2  0
 11 12  1  0
 12 13  1  0
 12 14  2  0
 14 15  1  0
 15 16  2  0
 15 17  1  0
 17 18  1  0
  5 19  2  0
 19 20  1  0
 20 21  2  0
 21 22  1  0
 22 23  1  0
 22 24  1  0
 22 25  1  0
 21  3  1  0
 17  6  2  0
 14  8  1  0
  1 26  1  0
  1 27  1  0
  1 28  1  0
  2 29  1  0
  2 30  1  0
  4 31  1  0
  9 32  1  0
 10 33  1  0
 11 34  1  0
 13 35  1  0
 18 36  1  0
 19 37  1  0
 20 38  1  0
M  END
>  <meeko>  (1) 
{"is_sidechain": [false], "free_energy": -11.118, "intermolecular_energy": -13.718, "internal_energy": -0.194}

$$$$
cand_004_out
     RDKit          3D

 38 40  0  0  0  0  0  0  0  0999 V2000
   52.7800  161.2000   31.5100 C   0  0  0  0  0  0  0  0  0  0  0  0
   51.7380  161.1560   30.4020 C   0  0  0  0  0  0  0  0  0  0  0  0
   51.0260  159.8220   30.3480 C   0  0  0  0  0  0  0  0  0  0  0  0
   51.6400  158.7710   29.6360 C   0  0  0  0  0  0  0  0  0  0  0  0
   51.0410  157.5090   29.5160 C   0  0  0  0  0  0  0  0  0  0  0  0
   51.6960  156.4030   28.7870 C   0  0  0  0  0  0  0  0  0  0  0  0
   52.2550  156.8070   27.5800 O   0  0  0  0  0  0  0  0  0  0  0  0
   52.8960  155.8770   26.8020 C   0  0  0  0  0  0  0  0  0  0  0  0
   53.4280  156.3220   25.5910 C   0  0  0  0  0  0  0  0  0  0  0  0
   54.0960  155.4270   24.7520 C   0  0  0  0  0  0  0  0  0  0  0  0
   54.2290  154.0870   25.1240 C   0  0  0  0  0  0  0  0  0  0  0  0
   53.6970  153.6450   26.3320 C   0  0  0  0  0  0  0  0  0  0  0  0
   53.8650  152.3210   26.6330 O   0  0  0  0  0  0  0  0  0  0  0  0
   53.0300  154.5410   27.1710 C   0  0  0  0  0  0  0  0  0  0  0  0
   52.4550  154.1180   28.4480 C   0  0  0  0  0  0  0  0  0  0  0  0
   52.5370  152.9580   28.8480 O   0  0  0  0  0  0  0  0  0  0  0  0
   51.7610  155.1430   29.2600 C   0  0  0  0  0  0  0  0  0  0  0  0
   51.2330  154.7380   30.4720 O   0  0  0  0  0  0  0  0  0  0  0  0
   49.8070  157.2990   30.1400 C   0  0  0  0  0  0  0  0  0  0  0  0
   49.1820  158.3290   30.8490 C   0  0  0  0  0  0  0  0  0  0  0  0
   49.7730  159.6000   30.9590 C   0  0  0  0  0  0  0  0  0  0  0  0
   49.0530  160.6790   31.7430 C   0  0  0  0  0  0  0  0  0  0  0  0
   49.7380  161.0830   32.8480 F   0  0  0  0  0  0  0  0  0  0  0  0
   47.8300  160.2740   32.1850 F   0  0  0  0  0  0  0  0  0  0  0  0
   48.8250  161.8140   31.0230 F   0  0  0  0  0  0  0  0  0  0  0  0
   52.2766  161.1787   32.4878 H   0  0  0  0  0  0  0  0  0  0  0  0
   53.4462  160.3292   31.4216 H   0  0  0  0  0  0  0  0  0  0  0  0
   53.3705  162.1239   31.4216 H   0  0  0  0  0  0  0  0  0  0  0  0
   50.9958  161.9480   30.5805 H   0  0  0  0  0  0  0  0  0  0  0  0
   52.2549  161.3050   29.4425 H   0  0  0  0  0  0  0  0  0  0  0  0
   52.6167  158.9462   29.1612 H   0  0  0  0  0  0  0  0  0  0  0  0
   53.3214  157.3767   25.2974 H   0  0  0  0  0  0  0  0  0  0  0  0
   54.5174  155.7774   23.7982 H   0  0  0  0  0  0  0  0  0  0  0  0
   54.7537  153.3817   24.4628 H   0  0  0  0  0  0  0  0  0  0  0  0
   53.1250  151.7960   26.8630 H   0  0  0  0  0  0  0  0  0  0  0  0
   51.7880  154.3440   31.1170 H   0  0  0  0  0  0  0  0  0  0  0  0
   49.3234  156.3133   30.0722 H   0  0  0  0  0  0  0  0  0  0  0  0
   48.2104  158.1417   31.3295 H   0  0  0  0  0  0  0  0  0  0  0  0
  1  2  1  0
  2  3  1  0
  3  4  2  0
  4  5  1  0
  5  6  1  0
  6  7  1  0
  7  8  1  0
  8  9  2  0
  9 10  1  0
 10 11  2  0
 11 12  1  0
 12 13  1  0
 12 14  2  0
 14 15  1  0
 15 16  2  0
 15 17  1  0
 17 18  1  0
  5 19  2  0
 19 20  1  0
 20 21  2  0
 21 22  1  0
 22 23  1  0
 22 24  1  0
 22 25  1  0
 21  3  1  0
 17  6  2  0
 14  8  1  0
  1 26  1  0
  1 27  1  0
  1 28  1  0
  2 29  1  0
  2 30  1  0
  4 31  1  0
  9 32  1  0
 10 33  1  0
 11 34  1  0
 13 35  1  0
 18 36  1  0
 19 37  1  0
 20 38  1  0
M  END
>  <meeko>  (2) 
{"is_sidechain": [false], "free_energy": -10.816, "intermolecular_energy": -13.187, "internal_energy": -0.352}

$$$$
cand_004_out
     RDKit          3D

 38 40  0  0  0  0  0  0  0  0999 V2000
   54.1100  156.6920   25.1150 C   0  0  0  0  0  0  0  0  0  0  0  0
   53.7200  155.2450   25.3820 C   0  0  0  0  0  0  0  0  0  0  0  0
   52.9370  155.1000   26.6690 C   0  0  0  0  0  0  0  0  0  0  0  0
   52.6070  156.2720   27.3800 C   0  0  0  0  0  0  0  0  0  0  0  0
   51.9030  156.2280   28.5930 C   0  0  0  0  0  0  0  0  0  0  0  0
   51.5390  157.4590   29.3250 C   0  0  0  0  0  0  0  0  0  0  0  0
   50.2190  157.4580   29.7600 O   0  0  0  0  0  0  0  0  0  0  0  0
   49.7490  158.5430   30.4560 C   0  0  0  0  0  0  0  0  0  0  0  0
   48.4130  158.5060   30.8590 C   0  0  0  0  0  0  0  0  0  0  0  0
   47.8720  159.5780   31.5730 C   0  0  0  0  0  0  0  0  0  0  0  0
   48.6660  160.6860   31.8820 C   0  0  0  0  0  0  0  0  0  0  0  0
   49.9970  160.7190   31.4770 C   0  0  0  0  0  0  0  0  0  0  0  0
   50.7170  161.8330   31.8140 O   0  0  0  0  0  0  0  0  0  0  0  0
   50.5380  159.6470   30.7640 C   0  0  0  0  0  0  0  0  0  0  0  0
   51.9330  159.6420   30.3190 C   0  0  0  0  0  0  0  0  0  0  0  0
   52.6960  160.5760   30.5580 O   0  0  0  0  0  0  0  0  0  0  0  0
   52.4070  158.4610   29.5620 C   0  0  0  0  0  0  0  0  0  0  0  0
   53.7290  158.4590   29.1590 O   0  0  0  0  0  0  0  0  0  0  0  0
   51.5130  154.9800   29.0880 C   0  0  0  0  0  0  0  0  0  0  0  0
   51.8330  153.8070   28.3980 C   0  0  0  0  0  0  0  0  0  0  0  0
   52.5510  153.8460   27.1900 C   0  0  0  0  0  0  0  0  0  0  0  0
   52.8670  152.5440   26.4820 C   0  0  0  0  0  0  0  0  0  0  0  0
   52.1380  151.4920   26.9470 F   0  0  0  0  0  0  0  0  0  0  0  0
   54.1750  152.1830   26.6120 F   0  0  0  0  0  0  0  0  0  0  0  0
   52.6310  152.5840   25.1390 F   0  0  0  0  0  0  0  0  0  0  0  0
   54.2513  157.2162   26.0717 H   0  0  0  0  0  0  0  0  0  0  0  0
   55.0475  156.7190   24.5402 H   0  0  0  0  0  0  0  0  0  0  0  0
   53.3131  157.1865   24.5402 H   0  0  0  0  0  0  0  0  0  0  0  0
   53.1019  154.8834   24.5470 H   0  0  0  0  0  0  0  0  0  0  0  0
   54.6435  154.6548   25.4764 H   0  0  0  0  0  0  0  0  0  0  0  0
   52.9098  157.2478   26.9725 H   0  0  0  0  0  0  0  0  0  0  0  0
   47.7876  157.6346   30.6149 H   0  0  0  0  0  0  0  0  0  0  0  0
   46.8198  159.5501   31.8924 H   0  0  0  0  0  0  0  0  0  0  0  0
   48.2398  161.5301   32.4441 H   0  0  0  0  0  0  0  0  0  0  0  0
   51.5450  161.9960   31.4080 H   0  0  0  0  0  0  0  0  0  0  0  0
   53.9420  158.3780   28.2500 H   0  0  0  0  0  0  0  0  0  0  0  0
   50.9485  154.9204   30.0302 H   0  0  0  0  0  0  0  0  0  0  0  0
   51.5173  152.8362   28.8076 H   0  0  0  0  0  0  0  0  0  0  0  0
  1  2  1  0
  2  3  1  0
  3  4  2  0
  4  5  1  0
  5  6  1  0
  6  7  1  0
  7  8  1  0
  8  9  2  0
  9 10  1  0
 10 11  2  0
 11 12  1  0
 12 13  1  0
 12 14  2  0
 14 15  1  0
 15 16  2  0
 15 17  1  0
 17 18  1  0
  5 19  2  0
 19 20  1  0
 20 21  2  0
 21 22  1  0
 22 23  1  0
 22 24  1  0
 22 25  1  0
 21  3  1  0
 17  6  2  0
 14  8  1  0
  1 26  1  0
  1 27  1  0
  1 28  1  0
  2 29  1  0
  2 30  1  0
  4 31  1  0
  9 32  1  0
 10 33  1  0
 11 34  1  0
 13 35  1  0
 18 36  1  0
 19 37  1  0
 20 38  1  0
M  END
>  <meeko>  (3) 
{"is_sidechain": [false], "free_energy": -10.708, "intermolecular_energy": -13.136, "internal_energy": -0.27}

$$$$
cand_004_out
     RDKit          3D

 38 40  0  0  0  0  0  0  0  0999 V2000
   54.1800  156.7630   25.2270 C   0  0  0  0  0  0  0  0  0  0  0  0
   53.4640  155.4200   25.2080 C   0  0  0  0  0  0  0  0  0  0  0  0
   52.8210  155.1040   26.5410 C   0  0  0  0  0  0  0  0  0  0  0  0
   52.2890  156.1740   27.2910 C   0  0  0  0  0  0  0  0  0  0  0  0
   51.6950  155.9750   28.5460 C   0  0  0  0  0  0  0  0  0  0  0  0
   51.1190  157.0930   29.3200 C   0  0  0  0  0  0  0  0  0  0  0  0
   52.0270  158.1230   29.5390 O   0  0  0  0  0  0  0  0  0  0  0  0
   51.6200  159.2260   30.2460 C   0  0  0  0  0  0  0  0  0  0  0  0
   52.5680  160.2290   30.4550 C   0  0  0  0  0  0  0  0  0  0  0  0
   52.2190  161.3800   31.1660 C   0  0  0  0  0  0  0  0  0  0  0  0
   50.9230  161.5270   31.6670 C   0  0  0  0  0  0  0  0  0  0  0  0
   49.9800  160.5250   31.4560 C   0  0  0  0  0  0  0  0  0  0  0  0
   48.7310  160.7350   31.9730 O   0  0  0  0  0  0  0  0  0  0  0  0
   50.3290  159.3740   30.7460 C   0  0  0  0  0  0  0  0  0  0  0  0
   49.3690  158.2970   30.5020 C   0  0  0  0  0  0  0  0  0  0  0  0
   48.2080  158.3560   30.9050 O   0  0  0  0  0  0  0  0  0  0  0  0
   49.8420  157.1160   29.7450 C   0  0  0  0  0  0  0  0  0  0  0  0
   48.9230  156.1100   29.5080 O   0  0  0  0  0  0  0  0  0  0  0  0
   51.6240  154.6710   29.0460 C   0  0  0  0  0  0  0  0  0  0  0  0
   52.1470  153.5980   28.3180 C   0  0  0  0  0  0  0  0  0  0  0  0
   52.7560  153.7950   27.0660 C   0  0  0  0  0  0  0  0  0  0  0  0
   53.3030  152.5960   26.3180 C   0  0  0  0  0  0  0  0  0  0  0  0
   52.7030  151.4260   26.6730 F   0  0  0  0  0  0  0  0  0  0  0  0
   54.6370  152.4150   26.5280 F   0  0  0  0  0  0  0  0  0  0  0  0
   53.1540  152.6850   24.9660 F   0  0  0  0  0  0  0  0  0  0  0  0
   54.3464  157.0751   26.2686 H   0  0  0  0  0  0  0  0  0  0  0  0
   55.1481  156.6697   24.7131 H   0  0  0  0  0  0  0  0  0  0  0  0
   53.5630  157.5148   24.7131 H   0  0  0  0  0  0  0  0  0  0  0  0
   52.6833  155.4442   24.4335 H   0  0  0  0  0  0  0  0  0  0  0  0
   54.2094  154.6394   24.9957 H   0  0  0  0  0  0  0  0  0  0  0  0
   52.3415  157.1930   26.8800 H   0  0  0  0  0  0  0  0  0  0  0  0
   53.5883  160.1134   30.0605 H   0  0  0  0  0  0  0  0  0  0  0  0
   52.9652  162.1711   31.3315 H   0  0  0  0  0  0  0  0  0  0  0  0
   50.6483  162.4329   32.2272 H   0  0  0  0  0  0  0  0  0  0  0  0
   48.5620  160.5550   32.8770 H   0  0  0  0  0  0  0  0  0  0  0  0
   48.1650  156.0290   30.0540 H   0  0  0  0  0  0  0  0  0  0  0  0
   51.1517  154.4875   30.0224 H   0  0  0  0  0  0  0  0  0  0  0  0
   52.0808  152.5811   28.7322 H   0  0  0  0  0  0  0  0  0  0  0  0
  1  2  1  0
  2  3  1  0
  3  4  2  0
  4  5  1  0
  5  6  1  0
  6  7  1  0
  7  8  1  0
  8  9  2  0
  9 10  1  0
 10 11  2  0
 11 12  1  0
 12 13  1  0
 12 14  2  0
 14 15  1  0
 15 16  2  0
 15 17  1  0
 17 18  1  0
  5 19  2  0
 19 20  1  0
 20 21  2  0
 21 22  1  0
 22 23  1  0
 22 24  1  0
 22 25  1  0
 21  3  1  0
 17  6  2  0
 14  8  1  0
  1 26  1  0
  1 27  1  0
  1 28  1  0
  2 29  1  0
  2 30  1  0
  4 31  1  0
  9 32  1  0
 10 33  1  0
 11 34  1  0
 13 35  1  0
 18 36  1  0
 19 37  1  0
 20 38  1  0
M  END
>  <meeko>  (4) 
{"is_sidechain": [false], "free_energy": -9.348, "intermolecular_energy": -11.5, "internal_energy": -0.228}

$$$$
cand_004_out
     RDKit          3D

 38 40  0  0  0  0  0  0  0  0999 V2000
   51.5470  152.1550   28.0820 C   0  0  0  0  0  0  0  0  0  0  0  0
   52.7390  152.9600   28.5790 C   0  0  0  0  0  0  0  0  0  0  0  0
   52.7470  154.3640   28.0130 C   0  0  0  0  0  0  0  0  0  0  0  0
   52.2720  155.4110   28.8310 C   0  0  0  0  0  0  0  0  0  0  0  0
   52.2230  156.7380   28.3800 C   0  0  0  0  0  0  0  0  0  0  0  0
   51.7460  157.8360   29.2460 C   0  0  0  0  0  0  0  0  0  0  0  0
   50.4080  157.7030   29.6000 O   0  0  0  0  0  0  0  0  0  0  0  0
   49.8370  158.6560   30.4040 C   0  0  0  0  0  0  0  0  0  0  0  0
   48.4880  158.4910   30.7230 C   0  0  0  0  0  0  0  0  0  0  0  0
   47.8460  159.4250   31.5390 C   0  0  0  0  0  0  0  0  0  0  0  0
   48.5520  160.5240   32.0350 C   0  0  0  0  0  0  0  0  0  0  0  0
   49.8970  160.6850   31.7160 C   0  0  0  0  0  0  0  0  0  0  0  0
   50.5270  161.7830   32.2360 O   0  0  0  0  0  0  0  0  0  0  0  0
   50.5390  159.7510   30.9000 C   0  0  0  0  0  0  0  0  0  0  0  0
   51.9510  159.8840   30.5390 C   0  0  0  0  0  0  0  0  0  0  0  0
   52.6420  160.8190   30.9420 O   0  0  0  0  0  0  0  0  0  0  0  0
   52.5360  158.8440   29.6620 C   0  0  0  0  0  0  0  0  0  0  0  0
   53.8740  158.9710   29.3380 O   0  0  0  0  0  0  0  0  0  0  0  0
   52.6760  157.0160   27.0870 C   0  0  0  0  0  0  0  0  0  0  0  0
   53.1480  155.9910   26.2610 C   0  0  0  0  0  0  0  0  0  0  0  0
   53.1850  154.6570   26.7040 C   0  0  0  0  0  0  0  0  0  0  0  0
   53.7110  153.5870   25.7690 C   0  0  0  0  0  0  0  0  0  0  0  0
   54.5390  152.6990   26.3840 F   0  0  0  0  0  0  0  0  0  0  0  0
   54.4210  154.1070   24.7280 F   0  0  0  0  0  0  0  0  0  0  0  0
   52.7280  152.8320   25.2000 F   0  0  0  0  0  0  0  0  0  0  0  0
   50.9791  151.7715   28.9425 H   0  0  0  0  0  0  0  0  0  0  0  0
   50.8975  152.8001   27.4721 H   0  0  0  0  0  0  0  0  0  0  0  0
   51.9028  151.3115   27.4721 H   0  0  0  0  0  0  0  0  0  0  0  0
   52.6955  153.0192   29.6765 H   0  0  0  0  0  0  0  0  0  0  0  0
   53.6562  152.4526   28.2455 H   0  0  0  0  0  0  0  0  0  0  0  0
   51.9306  155.1799   29.8508 H   0  0  0  0  0  0  0  0  0  0  0  0
   47.9314  157.6264   30.3322 H   0  0  0  0  0  0  0  0  0  0  0  0
   46.7833  159.2953   31.7915 H   0  0  0  0  0  0  0  0  0  0  0  0
   48.0457  161.2605   32.6763 H   0  0  0  0  0  0  0  0  0  0  0  0
   50.8600  162.4470   31.6660 H   0  0  0  0  0  0  0  0  0  0  0  0
   54.2440  158.4410   28.6600 H   0  0  0  0  0  0  0  0  0  0  0  0
   52.6610  158.0513   26.7156 H   0  0  0  0  0  0  0  0  0  0  0  0
   53.4967  156.2328   25.2461 H   0  0  0  0  0  0  0  0  0  0  0  0
  1  2  1  0
  2  3  1  0
  3  4  2  0
  4  5  1  0
  5  6  1  0
  6  7  1  0
  7  8  1  0
  8  9  2  0
  9 10  1  0
 10 11  2  0
 11 12  1  0
 12 13  1  0
 12 14  2  0
 14 15  1  0
 15 16  2  0
 15 17  1  0
 17 18  1  0
  5 19  2  0
 19 20  1  0
 20 21  2  0
 21 22  1  0
 22 23  1  0
 22 24  1  0
 22 25  1  0
 21  3  1  0
 17  6  2  0
 14  8  1  0
  1 26  1  0
  1 27  1  0
  1 28  1  0
  2 29  1  0
  2 30  1  0
  4 31  1  0
  9 32  1  0
 10 33  1  0
 11 34  1  0
 13 35  1  0
 18 36  1  0
 19 37  1  0
 20 38  1  0
M  END
>  <meeko>  (5) 
{"is_sidechain": [false], "free_energy": -8.537, "intermolecular_energy": -10.365, "internal_energy": -0.363}

$$$$
cand_004_out
     RDKit          3D

 38 40  0  0  0  0  0  0  0  0999 V2000
   51.8830  152.0570   26.8660 C   0  0  0  0  0  0  0  0  0  0  0  0
   52.9760  152.7990   27.6220 C   0  0  0  0  0  0  0  0  0  0  0  0
   52.9490  154.2860   27.3380 C   0  0  0  0  0  0  0  0  0  0  0  0
   52.2800  155.1240   28.2550 C   0  0  0  0  0  0  0  0  0  0  0  0
   52.1860  156.5090   28.0590 C   0  0  0  0  0  0  0  0  0  0  0  0
   51.5040  157.3880   29.0310 C   0  0  0  0  0  0  0  0  0  0  0  0
   52.2220  158.5450   29.3100 O   0  0  0  0  0  0  0  0  0  0  0  0
   51.7010  159.4510   30.1990 C   0  0  0  0  0  0  0  0  0  0  0  0
   52.4620  160.5910   30.4620 C   0  0  0  0  0  0  0  0  0  0  0  0
   51.9880  161.5540   31.3560 C   0  0  0  0  0  0  0  0  0  0  0  0
   50.7540  161.3760   31.9860 C   0  0  0  0  0  0  0  0  0  0  0  0
   49.9980  160.2380   31.7220 C   0  0  0  0  0  0  0  0  0  0  0  0
   48.7990  160.1290   32.3740 O   0  0  0  0  0  0  0  0  0  0  0  0
   50.4720  159.2750   30.8280 C   0  0  0  0  0  0  0  0  0  0  0  0
   49.7080  158.0640   30.5230 C   0  0  0  0  0  0  0  0  0  0  0  0
   48.6110  157.8400   31.0320 O   0  0  0  0  0  0  0  0  0  0  0  0
   50.3030  157.1020   29.5680 C   0  0  0  0  0  0  0  0  0  0  0  0
   49.5680  155.9680   29.2750 O   0  0  0  0  0  0  0  0  0  0  0  0
   52.7930  157.0610   26.9260 C   0  0  0  0  0  0  0  0  0  0  0  0
   53.4590  156.2460   26.0060 C   0  0  0  0  0  0  0  0  0  0  0  0
   53.5420  154.8540   26.1910 C   0  0  0  0  0  0  0  0  0  0  0  0
   54.2800  154.0200   25.1630 C   0  0  0  0  0  0  0  0  0  0  0  0
   55.1880  154.7370   24.4450 F   0  0  0  0  0  0  0  0  0  0  0  0
   53.4410  153.4520   24.2520 F   0  0  0  0  0  0  0  0  0  0  0  0
   54.9830  152.9860   25.7070 F   0  0  0  0  0  0  0  0  0  0  0  0
   51.1935  151.5889   27.5840 H   0  0  0  0  0  0  0  0  0  0  0  0
   51.3283  152.7660   26.2338 H   0  0  0  0  0  0  0  0  0  0  0  0
   52.3372  151.2798   26.2338 H   0  0  0  0  0  0  0  0  0  0  0  0
   52.8327  152.6403   28.7010 H   0  0  0  0  0  0  0  0  0  0  0  0
   53.9479  152.4059   27.2891 H   0  0  0  0  0  0  0  0  0  0  0  0
   51.8192  154.6781   29.1488 H   0  0  0  0  0  0  0  0  0  0  0  0
   53.4338  160.7310   29.9659 H   0  0  0  0  0  0  0  0  0  0  0  0
   52.5868  162.4530   31.5640 H   0  0  0  0  0  0  0  0  0  0  0  0
   50.3804  162.1344   32.6898 H   0  0  0  0  0  0  0  0  0  0  0  0
   48.3460  160.9000   32.6530 H   0  0  0  0  0  0  0  0  0  0  0  0
   49.3940  155.7390   28.3830 H   0  0  0  0  0  0  0  0  0  0  0  0
   52.7458  158.1470   26.7574 H   0  0  0  0  0  0  0  0  0  0  0  0
   53.9269  156.7017   25.1209 H   0  0  0  0  0  0  0  0  0  0  0  0
  1  2  1  0
  2  3  1  0
  3  4  2  0
  4  5  1  0
  5  6  1  0
  6  7  1  0
  7  8  1  0
  8  9  2  0
  9 10  1  0
 10 11  2  0
 11 12  1  0
 12 13  1  0
 12 14  2  0
 14 15  1  0
 15 16  2  0
 15 17  1  0
 17 18  1  0
  5 19  2  0
 19 20  1  0
 20 21  2  0
 21 22  1  0
 22 23  1  0
 22 24  1  0
 22 25  1  0
 21  3  1  0
 17  6  2  0
 14  8  1  0
  1 26  1  0
  1 27  1  0
  1 28  1  0
  2 29  1  0
  2 30  1  0
  4 31  1  0
  9 32  1  0
 10 33  1  0
 11 34  1  0
 13 35  1  0
 18 36  1  0
 19 37  1  0
 20 38  1  0
M  END
>  <meeko>  (6) 
{"is_sidechain": [false], "free_energy": -8.482, "intermolecular_energy": -10.457, "internal_energy": -0.203}

$$$$
cand_004_out
     RDKit          3D

 38 40  0  0  0  0  0  0  0  0999 V2000
   47.9010  158.8630   29.9810 C   0  0  0  0  0  0  0  0  0  0  0  0
   48.8660  157.9590   30.7350 C   0  0  0  0  0  0  0  0  0  0  0  0
   50.2480  157.9700   30.1180 C   0  0  0  0  0  0  0  0  0  0  0  0
   50.6270  156.8720   29.3190 C   0  0  0  0  0  0  0  0  0  0  0  0
   51.8960  156.7890   28.7280 C   0  0  0  0  0  0  0  0  0  0  0  0
   52.2820  155.6480   27.8730 C   0  0  0  0  0  0  0  0  0  0  0  0
   51.7790  154.4350   28.3300 O   0  0  0  0  0  0  0  0  0  0  0  0
   52.0630  153.2920   27.6270 C   0  0  0  0  0  0  0  0  0  0  0  0
   51.5500  152.0950   28.1300 C   0  0  0  0  0  0  0  0  0  0  0  0
   51.8010  150.8950   27.4610 C   0  0  0  0  0  0  0  0  0  0  0  0
   52.5640  150.8920   26.2910 C   0  0  0  0  0  0  0  0  0  0  0  0
   53.0740  152.0870   25.7920 C   0  0  0  0  0  0  0  0  0  0  0  0
   53.8110  152.0110   24.6420 O   0  0  0  0  0  0  0  0  0  0  0  0
   52.8230  153.2870   26.4610 C   0  0  0  0  0  0  0  0  0  0  0  0
   53.3410  154.5660   25.9710 C   0  0  0  0  0  0  0  0  0  0  0  0
   54.0140  154.6450   24.9450 O   0  0  0  0  0  0  0  0  0  0  0  0
   53.0250  155.7790   26.7570 C   0  0  0  0  0  0  0  0  0  0  0  0
   53.5070  156.9840   26.2790 O   0  0  0  0  0  0  0  0  0  0  0  0
   52.7930  157.8420   28.9340 C   0  0  0  0  0  0  0  0  0  0  0  0
   52.4360  158.9380   29.7240 C   0  0  0  0  0  0  0  0  0  0  0  0
   51.1700  159.0180   30.3320 C   0  0  0  0  0  0  0  0  0  0  0  0
   50.8350  160.2310   31.1750 C   0  0  0  0  0  0  0  0  0  0  0  0
   50.1000  161.1600   30.5050 F   0  0  0  0  0  0  0  0  0  0  0  0
   51.9480  160.8800   31.6200 F   0  0  0  0  0  0  0  0  0  0  0  0
   50.1130  159.9330   32.2930 F   0  0  0  0  0  0  0  0  0  0  0  0
   47.2936  159.4320   30.7003 H   0  0  0  0  0  0  0  0  0  0  0  0
   48.4700  159.5606   29.3489 H   0  0  0  0  0  0  0  0  0  0  0  0
   47.2420  158.2497   29.3489 H   0  0  0  0  0  0  0  0  0  0  0  0
   48.9386  158.3061   31.7763 H   0  0  0  0  0  0  0  0  0  0  0  0
   48.4788  156.9306   30.6861 H   0  0  0  0  0  0  0  0  0  0  0  0
   49.9067  156.0571   29.1545 H   0  0  0  0  0  0  0  0  0  0  0  0
   50.9493  152.0970   29.0515 H   0  0  0  0  0  0  0  0  0  0  0  0
   51.3973  149.9511   27.8560 H   0  0  0  0  0  0  0  0  0  0  0  0
   52.7615  149.9465   25.7647 H   0  0  0  0  0  0  0  0  0  0  0  0
   54.4380  151.3230   24.5320 H   0  0  0  0  0  0  0  0  0  0  0  0
   53.9450  157.5770   26.8580 H   0  0  0  0  0  0  0  0  0  0  0  0
   53.7895  157.8071   28.4695 H   0  0  0  0  0  0  0  0  0  0  0  0
   53.1587  159.7537   29.8733 H   0  0  0  0  0  0  0  0  0  0  0  0
  1  2  1  0
  2  3  1  0
  3  4  2  0
  4  5  1  0
  5  6  1  0
  6  7  1  0
  7  8  1  0
  8  9  2  0
  9 10  1  0
 10 11  2  0
 11 12  1  0
 12 13  1  0
 12 14  2  0
 14 15  1  0
 15 16  2  0
 15 17  1  0
 17 18  1  0
  5 19  2  0
 19 20  1  0
 20 21  2  0
 21 22  1  0
 22 23  1  0
 22 24  1  0
 22 25  1  0
 21  3  1  0
 17  6  2  0
 14  8  1  0
  1 26  1  0
  1 27  1  0
  1 28  1  0
  2 29  1  0
  2 30  1  0
  4 31  1  0
  9 32  1  0
 10 33  1  0
 11 34  1  0
 13 35  1  0
 18 36  1  0
 19 37  1  0
 20 38  1  0
M  END
>  <meeko>  (7) 
{"is_sidechain": [false], "free_energy": -8.186, "intermolecular_energy": -10.278, "internal_energy": -0.016}

$$$$
