cand_030_out
     RDKit          3D

 38 40  0  0  0  0  0  0  0  0999 V2000
   50.1000  161.1310   33.0220 C   0  0  0  0  0  0  0  0  0  0  0  0
   49.9270  161.2310   31.5140 C   0  0  0  0  0  0  0  0  0  0  0  0
   50.3840  159.9740   30.8050 C   0  0  0  0  0  0  0  0  0  0  0  0
   51.7150  159.9120   30.3580 C   0  0  0  0  0  0  0  0  0  0  0  0
   52.1980  158.7840   29.6910 C   0  0  0  0  0  0  0  0  0  0  0  0
   51.3680  157.6840   29.4550 C   0  0  0  0  0  0  0  0  0  0  0  0
   51.8920  156.5070   28.7320 C   0  0  0  0  0  0  0  0  0  0  0  0
   52.4860  156.8360   27.5190 O   0  0  0  0  0  0  0  0  0  0  0  0
   53.0110  155.8320   26.7450 C   0  0  0  0  0  0  0  0  0  0  0  0
   53.5820  156.2050   25.5280 C   0  0  0  0  0  0  0  0  0  0  0  0
   54.1370  155.2330   24.6930 C   0  0  0  0  0  0  0  0  0  0  0  0
   54.1220  153.8890   25.0760 C   0  0  0  0  0  0  0  0  0  0  0  0
   53.5510  153.5200   26.2910 C   0  0  0  0  0  0  0  0  0  0  0  0
   53.5700  152.1890   26.6040 O   0  0  0  0  0  0  0  0  0  0  0  0
   52.9950  154.4940   27.1250 C   0  0  0  0  0  0  0  0  0  0  0  0
   52.3850  154.1490   28.4110 C   0  0  0  0  0  0  0  0  0  0  0  0
   52.3400  152.9920   28.8210 O   0  0  0  0  0  0  0  0  0  0  0  0
   51.8170  155.2540   29.2170 C   0  0  0  0  0  0  0  0  0  0  0  0
   51.2540  154.9220   30.4360 O   0  0  0  0  0  0  0  0  0  0  0  0
   50.0350  157.7510   29.8850 C   0  0  0  0  0  0  0  0  0  0  0  0
   49.5260  158.8830   30.5550 C   0  0  0  0  0  0  0  0  0  0  0  0
   48.0850  158.8650   31.0150 C   0  0  0  0  0  0  0  0  0  0  0  0
   47.9550  158.8310   32.3710 F   0  0  0  0  0  0  0  0  0  0  0  0
   47.3710  159.9570   30.6140 F   0  0  0  0  0  0  0  0  0  0  0  0
   49.2516  161.6214   33.5217 H   0  0  0  0  0  0  0  0  0  0  0  0
   50.1373  160.0721   33.3174 H   0  0  0  0  0  0  0  0  0  0  0  0
   51.0362  161.6272   33.3174 H   0  0  0  0  0  0  0  0  0  0  0  0
   48.8633  161.3986   31.2891 H   0  0  0  0  0  0  0  0  0  0  0  0
   50.5464  162.0666   31.1561 H   0  0  0  0  0  0  0  0  0  0  0  0
   52.3865  160.7648   30.5362 H   0  0  0  0  0  0  0  0  0  0  0  0
   53.2428  158.7608   29.3476 H   0  0  0  0  0  0  0  0  0  0  0  0
   53.5950  157.2629   25.2267 H   0  0  0  0  0  0  0  0  0  0  0  0
   54.5865  155.5255   23.7326 H   0  0  0  0  0  0  0  0  0  0  0  0
   54.5606  153.1239   24.4185 H   0  0  0  0  0  0  0  0  0  0  0  0
   54.3880  151.7470   26.7200 H   0  0  0  0  0  0  0  0  0  0  0  0
   50.3300  154.7810   30.5010 H   0  0  0  0  0  0  0  0  0  0  0  0
   49.3680  156.8973   29.6946 H   0  0  0  0  0  0  0  0  0  0  0  0
   47.6952  157.9468   30.5515 H   0  0  0  0  0  0  0  0  0  0  0  0
  1  2  1  0
  2  3  1  0
  3  4  2  0
  4  5  1  0
  5  6  2  0
  6  7  1  0
  7  8  1  0
  8  9  1  0
  9 10  2  0
 10 11  1  0
 11 12  2  0
 12 13  1  0
 13 14  1  0
 13 15  2  0
 15 16  1  0
 16 17  2  0
 16 18  1  0
 18 19  1  0
  6 20  1  0
 20 21  2  0
 21 22  1  0
 22 23  1  0
 22 24  1  0
 21  3  1  0
 18  7  2  0
 15  9  1  0
  1 25  1  0
  1 26  1  0
  1 27  1  0
  2 28  1  0
  2 29  1  0
  4 30  1  0
  5 31  1  0
 10 32  1  0
 11 33  1  0
 12 34  1  0
 14 35  1  0
 19 36  1  0
 20 37  1  0
 22 38  1  0
M  END
>  <meeko>  (1) 
{"is_sidechain": [false], "free_energy": -10.759, "intermolecular_energy": -13.275, "internal_energy": -0.376}

$$$$
cand_030_out
     RDKit          3D

 38 40  0  0  0  0  0  0  0  0999 V2000
   49.2370  160.5400   33.2890 C   0  0  0  0  0  0  0  0  0  0  0  0
   49.1290  160.7490   31.7860 C   0  0  0  0  0  0  0  0  0  0  0  0
   49.8380  159.6610   31.0080 C   0  0  0  0  0  0  0  0  0  0  0  0
   49.1400  158.4690   30.7490 C   0  0  0  0  0  0  0  0  0  0  0  0
   49.7390  157.4240   30.0420 C   0  0  0  0  0  0  0  0  0  0  0  0
   51.0500  157.5400   29.5700 C   0  0  0  0  0  0  0  0  0  0  0  0
   51.6720  156.4170   28.8410 C   0  0  0  0  0  0  0  0  0  0  0  0
   52.2570  156.8070   27.6420 O   0  0  0  0  0  0  0  0  0  0  0  0
   52.8690  155.8570   26.8630 C   0  0  0  0  0  0  0  0  0  0  0  0
   53.4280  156.2900   25.6600 C   0  0  0  0  0  0  0  0  0  0  0  0
   54.0680  155.3740   24.8210 C   0  0  0  0  0  0  0  0  0  0  0  0
   54.1500  154.0280   25.1860 C   0  0  0  0  0  0  0  0  0  0  0  0
   53.5910  153.6000   26.3880 C   0  0  0  0  0  0  0  0  0  0  0  0
   53.7070  152.2690   26.6830 O   0  0  0  0  0  0  0  0  0  0  0  0
   52.9490  154.5170   27.2250 C   0  0  0  0  0  0  0  0  0  0  0  0
   52.3490  154.1080   28.4970 C   0  0  0  0  0  0  0  0  0  0  0  0
   52.3860  152.9450   28.8910 O   0  0  0  0  0  0  0  0  0  0  0  0
   51.6870  155.1550   29.3080 C   0  0  0  0  0  0  0  0  0  0  0  0
   51.1330  154.7640   30.5130 O   0  0  0  0  0  0  0  0  0  0  0  0
   51.7540  158.7210   29.8430 C   0  0  0  0  0  0  0  0  0  0  0  0
   51.1690  159.7860   30.5600 C   0  0  0  0  0  0  0  0  0  0  0  0
   51.9830  161.0410   30.7850 C   0  0  0  0  0  0  0  0  0  0  0  0
   52.3020  161.2460   32.0940 F   0  0  0  0  0  0  0  0  0  0  0  0
   53.1750  161.0440   30.1210 F   0  0  0  0  0  0  0  0  0  0  0  0
   48.7927  161.3999   33.8116 H   0  0  0  0  0  0  0  0  0  0  0  0
   48.7003  159.6222   33.5711 H   0  0  0  0  0  0  0  0  0  0  0  0
   50.2961  160.4468   33.5711 H   0  0  0  0  0  0  0  0  0  0  0  0
   48.0659  160.7518   31.5036 H   0  0  0  0  0  0  0  0  0  0  0  0
   49.6090  161.7081   31.5417 H   0  0  0  0  0  0  0  0  0  0  0  0
   48.1064  158.3574   31.1085 H   0  0  0  0  0  0  0  0  0  0  0  0
   49.1731  156.4995   29.8544 H   0  0  0  0  0  0  0  0  0  0  0  0
   53.3650  157.3500   25.3728 H   0  0  0  0  0  0  0  0  0  0  0  0
   54.5079  155.7133   23.8716 H   0  0  0  0  0  0  0  0  0  0  0  0
   54.6549  153.3076   24.5256 H   0  0  0  0  0  0  0  0  0  0  0  0
   52.9990  151.8180   27.0990 H   0  0  0  0  0  0  0  0  0  0  0  0
   51.3060  153.9070   30.8510 H   0  0  0  0  0  0  0  0  0  0  0  0
   52.7906  158.8201   29.4886 H   0  0  0  0  0  0  0  0  0  0  0  0
   51.3183  161.8311   30.4056 H   0  0  0  0  0  0  0  0  0  0  0  0
  1  2  1  0
  2  3  1  0
  3  4  2  0
  4  5  1  0
  5  6  2  0
  6  7  1  0
  7  8  1  0
  8  9  1  0
  9 10  2  0
 10 11  1  0
 11 12  2  0
 12 13  1  0
 13 14  1  0
 13 15  2  0
 15 16  1  0
 16 17  2  0
 16 18  1  0
 18 19  1  0
  6 20  1  0
 20 21  2  0
 21 22  1  0
 22 23  1  0
 22 24  1  0
 21  3  1  0
 18  7  2  0
 15  9  1  0
  1 25  1  0
  1 26  1  0
  1 27  1  0
  2 28  1  0
  2 29  1  0
  4 30  1  0
  5 31  1  0
 10 32  1  0
 11 33  1  0
 12 34  1  0
 14 35  1  0
 19 36  1  0
 20 37  1  0
 22 38  1  0
M  END
>  <meeko>  (2) 
{"is_sidechain": [false], "free_energy": -10.722, "intermolecular_energy": -13.166, "internal_energy": -0.438}

$$$$
cand_030_out
     RDKit          3D

 38 40  0  0  0  0  0  0  0  0999 V2000
   51.9940  151.5490   26.7410 C   0  0  0  0  0  0  0  0  0  0  0  0
   53.1170  152.5730   26.6650 C   0  0  0  0  0  0  0  0  0  0  0  0
   52.7370  153.8820   27.3240 C   0  0  0  0  0  0  0  0  0  0  0  0
   52.0980  153.8340   28.5740 C   0  0  0  0  0  0  0  0  0  0  0  0
   51.7160  155.0050   29.2330 C   0  0  0  0  0  0  0  0  0  0  0  0
   51.9640  156.2580   28.6640 C   0  0  0  0  0  0  0  0  0  0  0  0
   51.5370  157.4840   29.3670 C   0  0  0  0  0  0  0  0  0  0  0  0
   50.2050  157.4450   29.7640 O   0  0  0  0  0  0  0  0  0  0  0  0
   49.6790  158.5260   30.4250 C   0  0  0  0  0  0  0  0  0  0  0  0
   48.3340  158.4520   30.7900 C   0  0  0  0  0  0  0  0  0  0  0  0
   47.7380  159.5170   31.4680 C   0  0  0  0  0  0  0  0  0  0  0  0
   48.4850  160.6540   31.7830 C   0  0  0  0  0  0  0  0  0  0  0  0
   49.8270  160.7250   31.4180 C   0  0  0  0  0  0  0  0  0  0  0  0
   50.5000  161.8670   31.7570 O   0  0  0  0  0  0  0  0  0  0  0  0
   50.4230  159.6590   30.7380 C   0  0  0  0  0  0  0  0  0  0  0  0
   51.8310  159.6940   30.3360 C   0  0  0  0  0  0  0  0  0  0  0  0
   52.5560  160.6540   30.5830 O   0  0  0  0  0  0  0  0  0  0  0  0
   52.3650  158.5160   29.6130 C   0  0  0  0  0  0  0  0  0  0  0  0
   53.6980  158.5510   29.2480 O   0  0  0  0  0  0  0  0  0  0  0  0
   52.5860  156.3070   27.4090 C   0  0  0  0  0  0  0  0  0  0  0  0
   52.9750  155.1370   26.7240 C   0  0  0  0  0  0  0  0  0  0  0  0
   53.6700  155.2750   25.3880 C   0  0  0  0  0  0  0  0  0  0  0  0
   52.9240  154.8160   24.3450 F   0  0  0  0  0  0  0  0  0  0  0  0
   53.9800  156.5640   25.0660 F   0  0  0  0  0  0  0  0  0  0  0  0
   51.7617  151.3372   27.7951 H   0  0  0  0  0  0  0  0  0  0  0  0
   51.0991  151.9485   26.2414 H   0  0  0  0  0  0  0  0  0  0  0  0
   52.3094  150.6211   26.2414 H   0  0  0  0  0  0  0  0  0  0  0  0
   54.0043  152.1651   27.1712 H   0  0  0  0  0  0  0  0  0  0  0  0
   53.3218  152.7742   25.6031 H   0  0  0  0  0  0  0  0  0  0  0  0
   51.8952  152.8590   29.0413 H   0  0  0  0  0  0  0  0  0  0  0  0
   51.2147  154.9407   30.2100 H   0  0  0  0  0  0  0  0  0  0  0  0
   47.7447  157.5564   30.5440 H   0  0  0  0  0  0  0  0  0  0  0  0
   46.6775  159.4603   31.7547 H   0  0  0  0  0  0  0  0  0  0  0  0
   48.0144  161.4918   32.3183 H   0  0  0  0  0  0  0  0  0  0  0  0
   50.4390  162.2050   32.6280 H   0  0  0  0  0  0  0  0  0  0  0  0
   54.0890  159.3600   28.9820 H   0  0  0  0  0  0  0  0  0  0  0  0
   52.7763  157.2860   26.9449 H   0  0  0  0  0  0  0  0  0  0  0  0
   54.5799  154.6725   25.5261 H   0  0  0  0  0  0  0  0  0  0  0  0
  1  2  1  0
  2  3  1  0
  3  4  2  0
  4  5  1  0
  5  6  2  0
  6  7  1  0
  7  8  1  0
  8  9  1  0
  9 10  2  0
 10 11  1  0
 11 12  2  0
 12 13  1  0
 13 14  1  0
 13 15  2  0
 15 16  1  0
 16 17  2  0
 16 18  1  0
 18 19  1  0
  6 20  1  0
 20 21  2  0
 21 22  1  0
 22 23  1  0
 22 24  1  0
 21  3  1  0
 18  7  2  0
 15  9  1  0
  1 25  1  0
  1 26  1  0
  1 27  1  0
  2 28  1  0
  2 29  1  0
  4 30  1  0
  5 31  1  0
 10 32  1  0
 11 33  1  0
 12 34  1  0
 14 35  1  0
 19 36  1  0
 20 37  1  0
 22 38  1  0
M  END
>  <meeko>  (3) 
{"is_sidechain": [false], "free_energy": -10.187, "intermolecular_energy": -12.499, "internal_energy": -0.445}

$$$$
cand_030_out
     RDKit          3D

 38 40  0  0  0  0  0  0  0  0999 V2000
   49.9700  161.1950   30.3400 C   0  0  0  0  0  0  0  0  0  0  0  0
   51.1840  160.4530   30.8800 C   0  0  0  0  0  0  0  0  0  0  0  0
   51.4030  159.1320   30.1740 C   0  0  0  0  0  0  0  0  0  0  0  0
   52.6840  158.8580   29.6640 C   0  0  0  0  0  0  0  0  0  0  0  0
   52.9520  157.6610   28.9970 C   0  0  0  0  0  0  0  0  0  0  0  0
   51.9490  156.7010   28.8220 C   0  0  0  0  0  0  0  0  0  0  0  0
   52.2470  155.4490   28.0970 C   0  0  0  0  0  0  0  0  0  0  0  0
   52.8400  155.6670   26.8590 O   0  0  0  0  0  0  0  0  0  0  0  0
   53.1650  154.5850   26.0810 C   0  0  0  0  0  0  0  0  0  0  0  0
   53.7430  154.8500   24.8390 C   0  0  0  0  0  0  0  0  0  0  0  0
   54.1000  153.7930   23.9980 C   0  0  0  0  0  0  0  0  0  0  0  0
   53.8800  152.4730   24.4000 C   0  0  0  0  0  0  0  0  0  0  0  0
   53.3030  152.2120   25.6400 C   0  0  0  0  0  0  0  0  0  0  0  0
   53.1170  150.8980   25.9700 O   0  0  0  0  0  0  0  0  0  0  0  0
   52.9450  153.2700   26.4800 C   0  0  0  0  0  0  0  0  0  0  0  0
   52.3370  153.0390   27.7920 C   0  0  0  0  0  0  0  0  0  0  0  0
   52.1180  151.9090   28.2190 O   0  0  0  0  0  0  0  0  0  0  0  0
   51.9870  154.2290   28.6020 C   0  0  0  0  0  0  0  0  0  0  0  0
   51.4240  154.0030   29.8450 O   0  0  0  0  0  0  0  0  0  0  0  0
   50.6670  156.9810   29.3140 C   0  0  0  0  0  0  0  0  0  0  0  0
   50.3740  158.1860   29.9860 C   0  0  0  0  0  0  0  0  0  0  0  0
   48.9740  158.3990   30.5160 C   0  0  0  0  0  0  0  0  0  0  0  0
   48.0770  157.4880   30.0440 F   0  0  0  0  0  0  0  0  0  0  0  0
   48.8860  158.3170   31.8750 F   0  0  0  0  0  0  0  0  0  0  0  0
   49.3635  161.5657   31.1795 H   0  0  0  0  0  0  0  0  0  0  0  0
   50.3029  162.0442   29.7251 H   0  0  0  0  0  0  0  0  0  0  0  0
   49.3661  160.5115   29.7251 H   0  0  0  0  0  0  0  0  0  0  0  0
   52.0755  161.0821   30.7404 H   0  0  0  0  0  0  0  0  0  0  0  0
   51.0072  160.2431   31.9452 H   0  0  0  0  0  0  0  0  0  0  0  0
   53.4876  159.5980   29.7924 H   0  0  0  0  0  0  0  0  0  0  0  0
   53.9620  157.4706   28.6050 H   0  0  0  0  0  0  0  0  0  0  0  0
   53.9172  155.8890   24.5226 H   0  0  0  0  0  0  0  0  0  0  0  0
   54.5549  154.0002   23.0181 H   0  0  0  0  0  0  0  0  0  0  0  0
   54.1622  151.6412   23.7378 H   0  0  0  0  0  0  0  0  0  0  0  0
   53.1160  150.2420   25.3010 H   0  0  0  0  0  0  0  0  0  0  0  0
   50.9900  153.1910   30.0210 H   0  0  0  0  0  0  0  0  0  0  0  0
   49.8665  156.2400   29.1721 H   0  0  0  0  0  0  0  0  0  0  0  0
   48.7366  159.4146   30.1664 H   0  0  0  0  0  0  0  0  0  0  0  0
  1  2  1  0
  2  3  1  0
  3  4  2  0
  4  5  1  0
  5  6  2  0
  6  7  1  0
  7  8  1  0
  8  9  1  0
  9 10  2  0
 10 11  1  0
 11 12  2  0
 12 13  1  0
 13 14  1  0
 13 15  2  0
 15 16  1  0
 16 17  2  0
 16 18  1  0
 18 19  1  0
  6 20  1  0
 20 21  2  0
 21 22  1  0
 22 23  1  0
 22 24  1  0
 21  3  1  0
 18  7  2  0
 15  9  1  0
  1 25  1  0
  1 26  1  0
  1 27  1  0
  2 28  1  0
  2 29  1  0
  4 30  1  0
  5 31  1  0
 10 32  1  0
 11 33  1  0
 12 34  1  0
 14 35  1  0
 19 36  1  0
 20 37  1  0
 22 38  1  0
M  END
>  <meeko>  (4) 
{"is_sidechain": [false], "free_energy": -9.327, "intermolecular_energy": -11.944, "internal_energy": 0.061}

$$$$
cand_030_out
     RDKit          3D

 38 40  0  0  0  0  0  0  0  0999 V2000
   52.3330  152.0690   26.3100 C   0  0  0  0  0  0  0  0  0  0  0  0
   53.3900  152.9480   26.9630 C   0  0  0  0  0  0  0  0  0  0  0  0
   52.7850  154.1670   27.6270 C   0  0  0  0  0  0  0  0  0  0  0  0
   52.1010  153.9900   28.8420 C   0  0  0  0  0  0  0  0  0  0  0  0
   51.5150  155.0710   29.5020 C   0  0  0  0  0  0  0  0  0  0  0  0
   51.5980  156.3620   28.9710 C   0  0  0  0  0  0  0  0  0  0  0  0
   50.9570  157.4910   29.6750 C   0  0  0  0  0  0  0  0  0  0  0  0
   51.8400  158.5270   29.9550 O   0  0  0  0  0  0  0  0  0  0  0  0
   51.3700  159.6370   30.6110 C   0  0  0  0  0  0  0  0  0  0  0  0
   52.2950  160.6460   30.8870 C   0  0  0  0  0  0  0  0  0  0  0  0
   51.8820  161.8040   31.5500 C   0  0  0  0  0  0  0  0  0  0  0  0
   50.5480  161.9540   31.9350 C   0  0  0  0  0  0  0  0  0  0  0  0
   49.6280  160.9460   31.6570 C   0  0  0  0  0  0  0  0  0  0  0  0
   48.3390  161.1570   32.0620 O   0  0  0  0  0  0  0  0  0  0  0  0
   50.0420  159.7860   30.9950 C   0  0  0  0  0  0  0  0  0  0  0  0
   49.1070  158.7030   30.6840 C   0  0  0  0  0  0  0  0  0  0  0  0
   47.9170  158.7630   30.9830 O   0  0  0  0  0  0  0  0  0  0  0  0
   49.6470  157.5130   29.9860 C   0  0  0  0  0  0  0  0  0  0  0  0
   48.7570  156.5000   29.6850 O   0  0  0  0  0  0  0  0  0  0  0  0
   52.2650  156.5380   27.7510 C   0  0  0  0  0  0  0  0  0  0  0  0
   52.8590  155.4580   27.0650 C   0  0  0  0  0  0  0  0  0  0  0  0
   53.5890  155.7350   25.7690 C   0  0  0  0  0  0  0  0  0  0  0  0
   52.7870  155.6410   24.6720 F   0  0  0  0  0  0  0  0  0  0  0  0
   54.1350  156.9840   25.7080 F   0  0  0  0  0  0  0  0  0  0  0  0
   51.7362  151.5727   27.0895 H   0  0  0  0  0  0  0  0  0  0  0  0
   51.6751  152.6901   25.6843 H   0  0  0  0  0  0  0  0  0  0  0  0
   52.8237  151.3089   25.6843 H   0  0  0  0  0  0  0  0  0  0  0  0
   53.9225  152.3574   27.7231 H   0  0  0  0  0  0  0  0  0  0  0  0
   54.0754  153.2956   26.1760 H   0  0  0  0  0  0  0  0  0  0  0  0
   52.0264  152.9835   29.2796 H   0  0  0  0  0  0  0  0  0  0  0  0
   50.9821  154.9058   30.4500 H   0  0  0  0  0  0  0  0  0  0  0  0
   53.3458  160.5293   30.5832 H   0  0  0  0  0  0  0  0  0  0  0  0
   52.6092  162.5996   31.7694 H   0  0  0  0  0  0  0  0  0  0  0  0
   50.2244  162.8666   32.4569 H   0  0  0  0  0  0  0  0  0  0  0  0
   47.8950  161.9450   31.8180 H   0  0  0  0  0  0  0  0  0  0  0  0
   48.6780  156.1930   28.8030 H   0  0  0  0  0  0  0  0  0  0  0  0
   52.3270  157.5465   27.3162 H   0  0  0  0  0  0  0  0  0  0  0  0
   54.3714  154.9618   25.7614 H   0  0  0  0  0  0  0  0  0  0  0  0
  1  2  1  0
  2  3  1  0
  3  4  2  0
  4  5  1  0
  5  6  2  0
  6  7  1  0
  7  8  1  0
  8  9  1  0
  9 10  2  0
 10 11  1  0
 11 12  2  0
 12 13  1  0
 13 14  1  0
 13 15  2  0
 15 16  1  0
 16 17  2  0
 16 18  1  0
 18 19  1  0
  6 20  1  0
 20 21  2  0
 21 22  1  0
 22 23  1  0
 22 24  1  0
 21  3  1  0
 18  7  2  0
 15  9  1  0
  1 25  1  0
  1 26  1  0
  1 27  1  0
  2 28  1  0
  2 29  1  0
  4 30  1  0
  5 31  1  0
 10 32  1  0
 11 33  1  0
 12 34  1  0
 14 35  1  0
 19 36  1  0
 20 37  1  0
 22 38  1  0
M  END
>  <meeko>  (5) 
{"is_sidechain": [false], "free_energy": -9.283, "intermolecular_energy": -11.319, "internal_energy": -0.511}

$$$$
cand_030_out
     RDKit          3D

 38 40  0  0  0  0  0  0  0  0999 V2000
   52.9980  154.2930   24.7590 C   0  0  0  0  0  0  0  0  0  0  0  0
   53.4640  154.0820   26.1920 C   0  0  0  0  0  0  0  0  0  0  0  0
   52.9070  155.1300   27.1310 C   0  0  0  0  0  0  0  0  0  0  0  0
   53.0080  156.4800   26.7530 C   0  0  0  0  0  0  0  0  0  0  0  0
   52.5200  157.4980   27.5760 C   0  0  0  0  0  0  0  0  0  0  0  0
   51.9130  157.1960   28.7990 C   0  0  0  0  0  0  0  0  0  0  0  0
   51.4190  158.2860   29.6650 C   0  0  0  0  0  0  0  0  0  0  0  0
   50.0860  158.1280   30.0280 O   0  0  0  0  0  0  0  0  0  0  0  0
   49.5020  159.0750   30.8300 C   0  0  0  0  0  0  0  0  0  0  0  0
   48.1590  158.8860   31.1570 C   0  0  0  0  0  0  0  0  0  0  0  0
   47.5040  159.8120   31.9720 C   0  0  0  0  0  0  0  0  0  0  0  0
   48.1920  160.9260   32.4610 C   0  0  0  0  0  0  0  0  0  0  0  0
   49.5330  161.1110   32.1330 C   0  0  0  0  0  0  0  0  0  0  0  0
   50.1460  162.2220   32.6450 O   0  0  0  0  0  0  0  0  0  0  0  0
   50.1870  160.1850   31.3160 C   0  0  0  0  0  0  0  0  0  0  0  0
   51.5950  160.3430   30.9480 C   0  0  0  0  0  0  0  0  0  0  0  0
   52.2700  161.2900   31.3440 O   0  0  0  0  0  0  0  0  0  0  0  0
   52.1930  159.3090   30.0720 C   0  0  0  0  0  0  0  0  0  0  0  0
   53.5260  159.4580   29.7380 O   0  0  0  0  0  0  0  0  0  0  0  0
   51.8270  155.8510   29.1860 C   0  0  0  0  0  0  0  0  0  0  0  0
   52.3190  154.8100   28.3720 C   0  0  0  0  0  0  0  0  0  0  0  0
   52.1590  153.3820   28.8460 C   0  0  0  0  0  0  0  0  0  0  0  0
   51.5150  153.2830   30.0420 F   0  0  0  0  0  0  0  0  0  0  0  0
   51.4440  152.6000   27.9880 F   0  0  0  0  0  0  0  0  0  0  0  0
   51.9959  154.7467   24.7623 H   0  0  0  0  0  0  0  0  0  0  0  0
   53.7010  154.9606   24.2393 H   0  0  0  0  0  0  0  0  0  0  0  0
   52.9601  153.3242   24.2393 H   0  0  0  0  0  0  0  0  0  0  0  0
   53.1318  153.0896   26.5307 H   0  0  0  0  0  0  0  0  0  0  0  0
   54.5610  154.1618   26.2071 H   0  0  0  0  0  0  0  0  0  0  0  0
   53.4790  156.7393   25.7934 H   0  0  0  0  0  0  0  0  0  0  0  0
   52.6142  158.5471   27.2589 H   0  0  0  0  0  0  0  0  0  0  0  0
   47.6168  158.0091   30.7736 H   0  0  0  0  0  0  0  0  0  0  0  0
   46.4448  159.6643   32.2295 H   0  0  0  0  0  0  0  0  0  0  0  0
   47.6758  161.6547   33.1032 H   0  0  0  0  0  0  0  0  0  0  0  0
   50.4210  162.9100   32.0730 H   0  0  0  0  0  0  0  0  0  0  0  0
   53.7760  160.0600   29.0640 H   0  0  0  0  0  0  0  0  0  0  0  0
   51.3628  155.6010   30.1514 H   0  0  0  0  0  0  0  0  0  0  0  0
   53.2000  153.0346   28.9212 H   0  0  0  0  0  0  0  0  0  0  0  0
  1  2  1  0
  2  3  1  0
  3  4  2  0
  4  5  1  0
  5  6  2  0
  6  7  1  0
  7  8  1  0
  8  9  1  0
  9 10  2  0
 10 11  1  0
 11 12  2  0
 12 13  1  0
 13 14  1  0
 13 15  2  0
 15 16  1  0
 16 17  2  0
 16 18  1  0
 18 19  1  0
  6 20  1  0
 20 21  2  0
 21 22  1  0
 22 23  1  0
 22 24  1  0
 21  3  1  0
 18  7  2  0
 15  9  1  0
  1 25  1  0
  1 26  1  0
  1 27  1  0
  2 28  1  0
  2 29  1  0
  4 30  1  0
  5 31  1  0
 10 32  1  0
 11 33  1  0
 12 34  1  0
 14 35  1  0
 19 36  1  0
 20 37  1  0
 22 38  1  0
M  END
>  <meeko>  (6) 
{"is_sidechain": [false], "free_energy": -8.942, "intermolecular_energy": -11.023, "internal_energy": -0.385}

$$$$
cand_030_out
     RDKit          3D

 38 40  0  0  0  0  0  0  0  0999 V2000
   48.0560  159.1280   30.5960 C   0  0  0  0  0  0  0  0  0  0  0  0
   49.1980  158.3710   31.2570 C   0  0  0  0  0  0  0  0  0  0  0  0
   50.0300  157.6050   30.2510 C   0  0  0  0  0  0  0  0  0  0  0  0
   49.6110  156.3120   29.8920 C   0  0  0  0  0  0  0  0  0  0  0  0
   50.3360  155.5490   28.9740 C   0  0  0  0  0  0  0  0  0  0  0  0
   51.4980  156.0570   28.3840 C   0  0  0  0  0  0  0  0  0  0  0  0
   52.2610  155.2280   27.4290 C   0  0  0  0  0  0  0  0  0  0  0  0
   51.9270  153.8800   27.4930 O   0  0  0  0  0  0  0  0  0  0  0  0
   52.5670  152.9990   26.6580 C   0  0  0  0  0  0  0  0  0  0  0  0
   52.2130  151.6540   26.7670 C   0  0  0  0  0  0  0  0  0  0  0  0
   52.8250  150.7050   25.9450 C   0  0  0  0  0  0  0  0  0  0  0  0
   53.7890  151.1010   25.0150 C   0  0  0  0  0  0  0  0  0  0  0  0
   54.1400  152.4440   24.9090 C   0  0  0  0  0  0  0  0  0  0  0  0
   55.0900  152.7630   23.9770 O   0  0  0  0  0  0  0  0  0  0  0  0
   53.5280  153.3930   25.7330 C   0  0  0  0  0  0  0  0  0  0  0  0
   53.8680  154.8150   25.6520 C   0  0  0  0  0  0  0  0  0  0  0  0
   54.6990  155.2430   24.8560 O   0  0  0  0  0  0  0  0  0  0  0  0
   53.1670  155.7380   26.5750 C   0  0  0  0  0  0  0  0  0  0  0  0
   53.4840  157.0810   26.4850 O   0  0  0  0  0  0  0  0  0  0  0  0
   51.9260  157.3390   28.7530 C   0  0  0  0  0  0  0  0  0  0  0  0
   51.2120  158.1240   29.6820 C   0  0  0  0  0  0  0  0  0  0  0  0
   51.7220  159.5110   30.0040 C   0  0  0  0  0  0  0  0  0  0  0  0
   50.9380  160.5020   29.4960 F   0  0  0  0  0  0  0  0  0  0  0  0
   51.8000  159.7660   31.3420 F   0  0  0  0  0  0  0  0  0  0  0  0
   47.4051  159.5594   31.3708 H   0  0  0  0  0  0  0  0  0  0  0  0
   48.4648  159.9346   29.9696 H   0  0  0  0  0  0  0  0  0  0  0  0
   47.4723  158.4374   29.9696 H   0  0  0  0  0  0  0  0  0  0  0  0
   49.8459  159.0908   31.7786 H   0  0  0  0  0  0  0  0  0  0  0  0
   48.7621  157.6452   31.9592 H   0  0  0  0  0  0  0  0  0  0  0  0
   48.6977  155.8946   30.3412 H   0  0  0  0  0  0  0  0  0  0  0  0
   49.9897  154.5383   28.7123 H   0  0  0  0  0  0  0  0  0  0  0  0
   51.4535  151.3415   27.4988 H   0  0  0  0  0  0  0  0  0  0  0  0
   52.5474  149.6440   26.0302 H   0  0  0  0  0  0  0  0  0  0  0  0
   54.2700  150.3530   24.3675 H   0  0  0  0  0  0  0  0  0  0  0  0
   55.1610  153.6420   23.6620 H   0  0  0  0  0  0  0  0  0  0  0  0
   54.3700  157.3430   26.3260 H   0  0  0  0  0  0  0  0  0  0  0  0
   52.8452  157.7449   28.3054 H   0  0  0  0  0  0  0  0  0  0  0  0
   52.7208  159.5139   29.5432 H   0  0  0  0  0  0  0  0  0  0  0  0
  1  2  1  0
  2  3  1  0
  3  4  2  0
  4  5  1  0
  5  6  2  0
  6  7  1  0
  7  8  1  0
  8  9  1  0
  9 10  2  0
 10 11  1  0
 11 12  2  0
 12 13  1  0
 13 14  1  0
 13 15  2  0
 15 16  1  0
 16 17  2  0
 16 18  1  0
 18 19  1  0
  6 20  1  0
 20 21  2  0
 21 22  1  0
 22 23  1  0
 22 24  1  0
 21  3  1  0
 18  7  2  0
 15  9  1  0
  1 25  1  0
  1 26  1  0
  1 27  1  0
  2 28  1  0
  2 29  1  0
  4 30  1  0
  5 31  1  0
 10 32  1  0
 11 33  1  0
 12 34  1  0
 14 35  1  0
 19 36  1  0
 20 37  1  0
 22 38  1  0
M  END
>  <meeko>  (7) 
{"is_sidechain": [false], "free_energy": -8.759, "intermolecular_energy": -11.154, "internal_energy": -0.028}

$$$$
cand_030_out
     RDKit          3D

 38 40  0  0  0  0  0  0  0  0999 V2000
   54.9160  154.6660   24.5230 C   0  0  0  0  0  0  0  0  0  0  0  0
   53.9850  153.8710   25.4250 C   0  0  0  0  0  0  0  0  0  0  0  0
   53.2720  154.7540   26.4260 C   0  0  0  0  0  0  0  0  0  0  0  0
   53.4000  156.1480   26.2910 C   0  0  0  0  0  0  0  0  0  0  0  0
   52.7730  157.0190   27.1840 C   0  0  0  0  0  0  0  0  0  0  0  0
   51.9960  156.5250   28.2360 C   0  0  0  0  0  0  0  0  0  0  0  0
   51.3550  157.4610   29.1820 C   0  0  0  0  0  0  0  0  0  0  0  0
   52.1290  158.5870   29.4380 O   0  0  0  0  0  0  0  0  0  0  0  0
   51.6490  159.5360   30.3040 C   0  0  0  0  0  0  0  0  0  0  0  0
   52.4660  160.6420   30.5460 C   0  0  0  0  0  0  0  0  0  0  0  0
   52.0370  161.6470   31.4160 C   0  0  0  0  0  0  0  0  0  0  0  0
   50.7920  161.5470   32.0430 C   0  0  0  0  0  0  0  0  0  0  0  0
   49.9790  160.4420   31.7990 C   0  0  0  0  0  0  0  0  0  0  0  0
   48.7740  160.4080   32.4450 O   0  0  0  0  0  0  0  0  0  0  0  0
   50.4100  159.4370   30.9290 C   0  0  0  0  0  0  0  0  0  0  0  0
   49.5870  158.2600   30.6460 C   0  0  0  0  0  0  0  0  0  0  0  0
   48.4780  158.1030   31.1510 O   0  0  0  0  0  0  0  0  0  0  0  0
   50.1380  157.2480   29.7160 C   0  0  0  0  0  0  0  0  0  0  0  0
   49.3500  156.1450   29.4430 O   0  0  0  0  0  0  0  0  0  0  0  0
   51.8800  155.1350   28.3830 C   0  0  0  0  0  0  0  0  0  0  0  0
   52.5100  154.2380   27.4950 C   0  0  0  0  0  0  0  0  0  0  0  0
   52.3100  152.7530   27.7020 C   0  0  0  0  0  0  0  0  0  0  0  0
   51.6280  152.4570   28.8430 F   0  0  0  0  0  0  0  0  0  0  0  0
   51.6080  152.1530   26.6990 F   0  0  0  0  0  0  0  0  0  0  0  0
   55.6083  155.2572   25.1405 H   0  0  0  0  0  0  0  0  0  0  0  0
   55.4898  153.9749   23.8880 H   0  0  0  0  0  0  0  0  0  0  0  0
   54.3233  155.3410   23.8880 H   0  0  0  0  0  0  0  0  0  0  0  0
   53.2342  153.3638   24.8012 H   0  0  0  0  0  0  0  0  0  0  0  0
   54.5934  153.1460   25.9855 H   0  0  0  0  0  0  0  0  0  0  0  0
   54.0039  156.5587   25.4685 H   0  0  0  0  0  0  0  0  0  0  0  0
   52.8916  158.1054   27.0585 H   0  0  0  0  0  0  0  0  0  0  0  0
   53.4458  160.7218   30.0524 H   0  0  0  0  0  0  0  0  0  0  0  0
   52.6801  162.5186   31.6079 H   0  0  0  0  0  0  0  0  0  0  0  0
   50.4546  162.3390   32.7277 H   0  0  0  0  0  0  0  0  0  0  0  0
   48.4140  159.5890   32.7210 H   0  0  0  0  0  0  0  0  0  0  0  0
   49.6070  155.2980   29.7530 H   0  0  0  0  0  0  0  0  0  0  0  0
   51.2812  154.7332   29.2137 H   0  0  0  0  0  0  0  0  0  0  0  0
   53.3419  152.3742   27.7425 H   0  0  0  0  0  0  0  0  0  0  0  0
  1  2  1  0
  2  3  1  0
  3  4  2  0
  4  5  1  0
  5  6  2  0
  6  7  1  0
  7  8  1  0
  8  9  1  0
  9 10  2  0
 10 11  1  0
 11 12  2  0
 12 13  1  0
 13 14  1  0
 13 15  2  0
 15 16  1  0
 16 17  2  0
 16 18  1  0
 18 19  1  0
  6 20  1  0
 20 21  2  0
 21 22  1  0
 22 23  1  0
 22 24  1  0
 21  3  1  0
 18  7  2  0
 15  9  1  0
  1 25  1  0
  1 26  1  0
  1 27  1  0
  2 28  1  0
  2 29  1  0
  4 30  1  0
  5 31  1  0
 10 32  1  0
 11 33  1  0
 12 34  1  0
 14 35  1  0
 19 36  1  0
 20 37  1  0
 22 38  1  0
M  END
>  <meeko>  (8) 
{"is_sidechain": [false], "free_energy": -8.694, "intermolecular_energy": -10.872, "internal_energy": -0.23}

$$$$
cand_030_out
     RDKit          3D

 38 40  0  0  0  0  0  0  0  0999 V2000
   50.4100  160.7170   30.1010 C   0  0  0  0  0  0  0  0  0  0  0  0
   50.9180  159.4950   30.8510 C   0  0  0  0  0  0  0  0  0  0  0  0
   51.3450  158.3880   29.9110 C   0  0  0  0  0  0  0  0  0  0  0  0
   52.6250  158.4640   29.3360 C   0  0  0  0  0  0  0  0  0  0  0  0
   53.0790  157.4790   28.4560 C   0  0  0  0  0  0  0  0  0  0  0  0
   52.2690  156.3870   28.1280 C   0  0  0  0  0  0  0  0  0  0  0  0
   52.7580  155.3650   27.1820 C   0  0  0  0  0  0  0  0  0  0  0  0
   52.3140  154.0840   27.4890 O   0  0  0  0  0  0  0  0  0  0  0  0
   52.7000  153.0390   26.6880 C   0  0  0  0  0  0  0  0  0  0  0  0
   52.2450  151.7680   27.0440 C   0  0  0  0  0  0  0  0  0  0  0  0
   52.6000  150.6610   26.2700 C   0  0  0  0  0  0  0  0  0  0  0  0
   53.4080  150.8240   25.1420 C   0  0  0  0  0  0  0  0  0  0  0  0
   53.8600  152.0940   24.7900 C   0  0  0  0  0  0  0  0  0  0  0  0
   54.6470  152.1820   23.6740 O   0  0  0  0  0  0  0  0  0  0  0  0
   53.5060  153.2010   25.5660 C   0  0  0  0  0  0  0  0  0  0  0  0
   53.9600  154.5520   25.2310 C   0  0  0  0  0  0  0  0  0  0  0  0
   54.6660  154.7790   24.2520 O   0  0  0  0  0  0  0  0  0  0  0  0
   53.5350  155.6570   26.1220 C   0  0  0  0  0  0  0  0  0  0  0  0
   53.9570  156.9310   25.7920 O   0  0  0  0  0  0  0  0  0  0  0  0
   50.9850  156.3190   28.6870 C   0  0  0  0  0  0  0  0  0  0  0  0
   50.5060  157.3060   29.5730 C   0  0  0  0  0  0  0  0  0  0  0  0
   49.1210  157.1430   30.1600 C   0  0  0  0  0  0  0  0  0  0  0  0
   48.3070  158.2080   29.9160 F   0  0  0  0  0  0  0  0  0  0  0  0
   48.4480  156.0600   29.6750 F   0  0  0  0  0  0  0  0  0  0  0  0
   50.0913  161.4837   30.8225 H   0  0  0  0  0  0  0  0  0  0  0  0
   51.2150  161.1202   29.4691 H   0  0  0  0  0  0  0  0  0  0  0  0
   49.5564  160.4307   29.4691 H   0  0  0  0  0  0  0  0  0  0  0  0
   51.7803  159.7898   31.4670 H   0  0  0  0  0  0  0  0  0  0  0  0
   50.0955  159.1129   31.4735 H   0  0  0  0  0  0  0  0  0  0  0  0
   53.2798  159.3127   29.5829 H   0  0  0  0  0  0  0  0  0  0  0  0
   54.0838  157.5629   28.0164 H   0  0  0  0  0  0  0  0  0  0  0  0
   51.6085  151.6388   27.9318 H   0  0  0  0  0  0  0  0  0  0  0  0
   52.2427  149.6588   26.5491 H   0  0  0  0  0  0  0  0  0  0  0  0
   53.6868  149.9514   24.5330 H   0  0  0  0  0  0  0  0  0  0  0  0
   54.4670  151.6420   22.9310 H   0  0  0  0  0  0  0  0  0  0  0  0
   53.5100  157.6770   26.1420 H   0  0  0  0  0  0  0  0  0  0  0  0
   50.3330  155.4720   28.4272 H   0  0  0  0  0  0  0  0  0  0  0  0
   49.3254  157.0317   31.2351 H   0  0  0  0  0  0  0  0  0  0  0  0
  1  2  1  0
  2  3  1  0
  3  4  2  0
  4  5  1  0
  5  6  2  0
  6  7  1  0
  7  8  1  0
  8  9  1  0
  9 10  2  0
 10 11  1  0
 11 12  2  0
 12 13  1  0
 13 14  1  0
 13 15  2  0
 15 16  1  0
 16 17  2  0
 16 18  1  0
 18 19  1  0
  6 20  1  0
 20 21  2  0
 21 22  1  0
 22 23  1  0
 22 24  1  0
 21  3  1  0
 18  7  2  0
 15  9  1  0
  1 25  1  0
  1 26  1  0
  1 27  1  0
  2 28  1  0
  2 29  1  0
  4 30  1  0
  5 31  1  0
 10 32  1  0
 11 33  1  0
 12 34  1  0
 14 35  1  0
 19 36  1  0
 20 37  1  0
 22 38  1  0
M  END
>  <meeko>  (9) 
{"is_sidechain": [false], "free_energy": -8.118, "intermolecular_energy": -10.239, "internal_energy": -0.153}

$$$$
