cand_024_out
     RDKit          3D

 47 49  0  0  0  0  0  0  0  0999 V2000
   54.1510  152.1820   23.8940 C   0  0  0  0  0  0  0  0  0  0  0  0
   54.4110  151.5290   25.1790 N   0  0  0  0  0  0  0  0  0  0  0  0
   53.6740  150.2630   25.2400 C   0  0  0  0  0  0  0  0  0  0  0  0
   54.0260  152.3870   26.3170 C   0  0  0  0  0  0  0  0  0  0  0  0
   52.5440  152.8020   26.2890 C   0  0  0  0  0  0  0  0  0  0  0  0
   52.3030  154.0930   27.0520 C   0  0  0  0  0  0  0  0  0  0  0  0
   51.6770  154.0140   28.3070 C   0  0  0  0  0  0  0  0  0  0  0  0
   51.4170  155.1650   29.0540 C   0  0  0  0  0  0  0  0  0  0  0  0
   51.7810  156.4270   28.5740 C   0  0  0  0  0  0  0  0  0  0  0  0
   51.4810  157.6340   29.3730 C   0  0  0  0  0  0  0  0  0  0  0  0
   50.1730  157.6640   29.8400 O   0  0  0  0  0  0  0  0  0  0  0  0
   49.7640  158.7310   30.5990 C   0  0  0  0  0  0  0  0  0  0  0  0
   48.4380  158.7270   31.0340 C   0  0  0  0  0  0  0  0  0  0  0  0
   47.9580  159.7830   31.8110 C   0  0  0  0  0  0  0  0  0  0  0  0
   48.8020  160.8410   32.1530 C   0  0  0  0  0  0  0  0  0  0  0  0
   50.1250  160.8420   31.7180 C   0  0  0  0  0  0  0  0  0  0  0  0
   50.8960  161.9090   32.0890 O   0  0  0  0  0  0  0  0  0  0  0  0
   50.6050  159.7860   30.9390 C   0  0  0  0  0  0  0  0  0  0  0  0
   51.9880  159.7490   30.4610 C   0  0  0  0  0  0  0  0  0  0  0  0
   52.7930  160.6380   30.7250 O   0  0  0  0  0  0  0  0  0  0  0  0
   52.3950  158.5870   29.6360 C   0  0  0  0  0  0  0  0  0  0  0  0
   53.7070  158.5520   29.1990 O   0  0  0  0  0  0  0  0  0  0  0  0
   52.3940  156.5080   27.3150 C   0  0  0  0  0  0  0  0  0  0  0  0
   52.6640  155.3590   26.5410 C   0  0  0  0  0  0  0  0  0  0  0  0
   53.3480  155.5260   25.2020 C   0  0  0  0  0  0  0  0  0  0  0  0
   54.6430  155.0970   25.1900 F   0  0  0  0  0  0  0  0  0  0  0  0
   52.7250  154.8390   24.2040 F   0  0  0  0  0  0  0  0  0  0  0  0
   53.3960  156.8240   24.7890 F   0  0  0  0  0  0  0  0  0  0  0  0
   53.7493  153.1908   24.0700 H   0  0  0  0  0  0  0  0  0  0  0  0
   55.0886  152.2551   23.3235 H   0  0  0  0  0  0  0  0  0  0  0  0
   53.4198  151.5906   23.3235 H   0  0  0  0  0  0  0  0  0  0  0  0
   55.4130  151.3540   25.2500 H   0  0  0  0  0  0  0  0  0  0  0  0
   53.5114  149.9837   26.2914 H   0  0  0  0  0  0  0  0  0  0  0  0
   52.7026  150.3796   24.7372 H   0  0  0  0  0  0  0  0  0  0  0  0
   54.2550  149.4759   24.7372 H   0  0  0  0  0  0  0  0  0  0  0  0
   54.2175  151.8369   27.2501 H   0  0  0  0  0  0  0  0  0  0  0  0
   54.6246  153.3074   26.2498 H   0  0  0  0  0  0  0  0  0  0  0  0
   52.2341  152.9439   25.2431 H   0  0  0  0  0  0  0  0  0  0  0  0
   51.9579  152.0061   26.7717 H   0  0  0  0  0  0  0  0  0  0  0  0
   51.3873  153.0312   28.7073 H   0  0  0  0  0  0  0  0  0  0  0  0
   50.9200  155.0778   30.0315 H   0  0  0  0  0  0  0  0  0  0  0  0
   47.7723  157.8935   30.7652 H   0  0  0  0  0  0  0  0  0  0  0  0
   46.9129  159.7813   32.1543 H   0  0  0  0  0  0  0  0  0  0  0  0
   48.4227  161.6726   32.7651 H   0  0  0  0  0  0  0  0  0  0  0  0
   50.9420  162.6680   31.5400 H   0  0  0  0  0  0  0  0  0  0  0  0
   54.2460  157.8110   29.3950 H   0  0  0  0  0  0  0  0  0  0  0  0
   52.6725  157.4959   26.9193 H   0  0  0  0  0  0  0  0  0  0  0  0
  1  2  1  0
  2  3  1  0
  2  4  1  0
  4  5  1  0
  5  6  1  0
  6  7  2  0
  7  8  1  0
  8  9  2  0
  9 10  1  0
 10 11  1  0
 11 12  1  0
 12 13  2  0
 13 14  1  0
 14 15  2  0
 15 16  1  0
 16 17  1  0
 16 18  2  0
 18 19  1  0
 19 20  2  0
 19 21  1  0
 21 22  1  0
  9 23  1  0
 23 24  2  0
 24 25  1  0
 25 26  1  0
 25 27  1  0
 25 28  1  0
 24  6  1  0
 21 10  2  0
 18 12  1  0
  1 29  1  0
  1 30  1  0
  1 31  1  0
  2 32  1  0
  3 33  1  0
  3 34  1  0
  3 35  1  0
  4 36  1  0
  4 37  1  0
  5 38  1  0
  5 39  1  0
  7 40  1  0
  8 41  1  0
 13 42  1  0
 14 43  1  0
 15 44  1  0
 17 45  1  0
 22 46  1  0
 23 47  1  0
M  CHG  1   2   1
M  END
>  <meeko>  (1) 
{"is_sidechain": [false], "free_energy": -10.522, "intermolecular_energy": -14.212, "internal_energy": -0.149}

$$$$
cand_024_out
     RDKit          3D

 47 49  0  0  0  0  0  0  0  0999 V2000
   49.0320  161.2510   34.2140 C   0  0  0  0  0  0  0  0  0  0  0  0
   49.8390  161.8430   33.1430 N   0  0  0  0  0  0  0  0  0  0  0  0
   48.9520  162.4160   32.1250 C   0  0  0  0  0  0  0  0  0  0  0  0
   50.7380  160.8510   32.5220 C   0  0  0  0  0  0  0  0  0  0  0  0
   50.8120  160.9740   30.9890 C   0  0  0  0  0  0  0  0  0  0  0  0
   51.0710  159.6330   30.3260 C   0  0  0  0  0  0  0  0  0  0  0  0
   52.3780  159.3490   29.8940 C   0  0  0  0  0  0  0  0  0  0  0  0
   52.6800  158.1390   29.2670 C   0  0  0  0  0  0  0  0  0  0  0  0
   51.6890  157.1740   29.0590 C   0  0  0  0  0  0  0  0  0  0  0  0
   52.0270  155.9060   28.3770 C   0  0  0  0  0  0  0  0  0  0  0  0
   52.5170  156.0960   27.0910 O   0  0  0  0  0  0  0  0  0  0  0  0
   52.8720  154.9990   26.3480 C   0  0  0  0  0  0  0  0  0  0  0  0
   53.3450  155.2350   25.0570 C   0  0  0  0  0  0  0  0  0  0  0  0
   53.7250  154.1620   24.2480 C   0  0  0  0  0  0  0  0  0  0  0  0
   53.6300  152.8550   24.7290 C   0  0  0  0  0  0  0  0  0  0  0  0
   53.1580  152.6220   26.0180 C   0  0  0  0  0  0  0  0  0  0  0  0
   53.0910  151.3180   26.4250 O   0  0  0  0  0  0  0  0  0  0  0  0
   52.7770  153.6960   26.8270 C   0  0  0  0  0  0  0  0  0  0  0  0
   52.2750  153.4950   28.1870 C   0  0  0  0  0  0  0  0  0  0  0  0
   52.1690  152.3770   28.6840 O   0  0  0  0  0  0  0  0  0  0  0  0
   51.8920  154.7000   28.9590 C   0  0  0  0  0  0  0  0  0  0  0  0
   51.4310  154.5030   30.2480 O   0  0  0  0  0  0  0  0  0  0  0  0
   50.3820  157.4620   29.4770 C   0  0  0  0  0  0  0  0  0  0  0  0
   50.0520  158.6800   30.1100 C   0  0  0  0  0  0  0  0  0  0  0  0
   48.6230  158.9090   30.5530 C   0  0  0  0  0  0  0  0  0  0  0  0
   48.1470  160.1510   30.2500 F   0  0  0  0  0  0  0  0  0  0  0  0
   47.7500  158.0320   29.9830 F   0  0  0  0  0  0  0  0  0  0  0  0
   48.4590  158.7790   31.9000 F   0  0  0  0  0  0  0  0  0  0  0  0
   49.4411  161.5511   35.1900 H   0  0  0  0  0  0  0  0  0  0  0  0
   47.9934  161.6030   34.1278 H   0  0  0  0  0  0  0  0  0  0  0  0
   49.0559  160.1546   34.1278 H   0  0  0  0  0  0  0  0  0  0  0  0
   50.4210  162.5760   33.5510 H   0  0  0  0  0  0  0  0  0  0  0  0
   48.1257  162.9498   32.6172 H   0  0  0  0  0  0  0  0  0  0  0  0
   49.5199  163.1184   31.4972 H   0  0  0  0  0  0  0  0  0  0  0  0
   48.5452  161.6095   31.4972 H   0  0  0  0  0  0  0  0  0  0  0  0
   51.7489  160.9900   32.9329 H   0  0  0  0  0  0  0  0  0  0  0  0
   50.3320  159.8545   32.7503 H   0  0  0  0  0  0  0  0  0  0  0  0
   49.8577  161.3759   30.6179 H   0  0  0  0  0  0  0  0  0  0  0  0
   51.6478  161.6446   30.7405 H   0  0  0  0  0  0  0  0  0  0  0  0
   53.1744  160.0910   30.0523 H   0  0  0  0  0  0  0  0  0  0  0  0
   53.7093  157.9421   28.9326 H   0  0  0  0  0  0  0  0  0  0  0  0
   53.4185  156.2646   24.6769 H   0  0  0  0  0  0  0  0  0  0  0  0
   54.0997  154.3470   23.2304 H   0  0  0  0  0  0  0  0  0  0  0  0
   53.9277  152.0102   24.0905 H   0  0  0  0  0  0  0  0  0  0  0  0
   53.7920  150.9480   26.9250 H   0  0  0  0  0  0  0  0  0  0  0  0
   51.7300  155.0570   30.9430 H   0  0  0  0  0  0  0  0  0  0  0  0
   49.5906  156.7172   29.3067 H   0  0  0  0  0  0  0  0  0  0  0  0
  1  2  1  0
  2  3  1  0
  2  4  1  0
  4  5  1  0
  5  6  1  0
  6  7  2  0
  7  8  1  0
  8  9  2  0
  9 10  1  0
 10 11  1  0
 11 12  1  0
 12 13  2  0
 13 14  1  0
 14 15  2  0
 15 16  1  0
 16 17  1  0
 16 18  2  0
 18 19  1  0
 19 20  2  0
 19 21  1  0
 21 22  1  0
  9 23  1  0
 23 24  2  0
 24 25  1  0
 25 26  1  0
 25 27  1  0
 25 28  1  0
 24  6  1  0
 21 10  2  0
 18 12  1  0
  1 29  1  0
  1 30  1  0
  1 31  1  0
  2 32  1  0
  3 33  1  0
  3 34  1  0
  3 35  1  0
  4 36  1  0
  4 37  1  0
  5 38  1  0
  5 39  1  0
  7 40  1  0
  8 41  1  0
 13 42  1  0
 14 43  1  0
 15 44  1  0
 17 45  1  0
 22 46  1  0
 23 47  1  0
M  CHG  1   2   1
M  END
>  <meeko>  (2) 
{"is_sidechain": [false], "free_energy": -10.111, "intermolecular_energy": -13.308, "internal_energy": -0.499}

$$$$
cand_024_out
     RDKit          3D

 47 49  0  0  0  0  0  0  0  0999 V2000
   54.9600  161.9270   31.5480 C   0  0  0  0  0  0  0  0  0  0  0  0
   53.7240  161.7290   30.7870 N   0  0  0  0  0  0  0  0  0  0  0  0
   53.3290  162.9950   30.1610 C   0  0  0  0  0  0  0  0  0  0  0  0
   52.6290  161.2300   31.6420 C   0  0  0  0  0  0  0  0  0  0  0  0
   51.3740  160.8260   30.8470 C   0  0  0  0  0  0  0  0  0  0  0  0
   51.5340  159.4660   30.1910 C   0  0  0  0  0  0  0  0  0  0  0  0
   52.7990  159.1170   29.6890 C   0  0  0  0  0  0  0  0  0  0  0  0
   53.0090  157.8850   29.0650 C   0  0  0  0  0  0  0  0  0  0  0  0
   51.9650  156.9650   28.9290 C   0  0  0  0  0  0  0  0  0  0  0  0
   52.2050  155.6740   28.2500 C   0  0  0  0  0  0  0  0  0  0  0  0
   52.7740  155.8220   26.9910 O   0  0  0  0  0  0  0  0  0  0  0  0
   53.0510  154.6990   26.2530 C   0  0  0  0  0  0  0  0  0  0  0  0
   53.6090  154.8940   24.9890 C   0  0  0  0  0  0  0  0  0  0  0  0
   53.9160  153.7940   24.1860 C   0  0  0  0  0  0  0  0  0  0  0  0
   53.6660  152.5000   24.6460 C   0  0  0  0  0  0  0  0  0  0  0  0
   53.1110  152.3080   25.9080 C   0  0  0  0  0  0  0  0  0  0  0  0
   52.8920  151.0150   26.2970 O   0  0  0  0  0  0  0  0  0  0  0  0
   52.8020  153.4090   26.7110 C   0  0  0  0  0  0  0  0  0  0  0  0
   52.2160  153.2520   28.0440 C   0  0  0  0  0  0  0  0  0  0  0  0
   51.9740  152.1460   28.5220 O   0  0  0  0  0  0  0  0  0  0  0  0
   51.9210  154.4840   28.8110 C   0  0  0  0  0  0  0  0  0  0  0  0
   51.3800  154.3260   30.0740 O   0  0  0  0  0  0  0  0  0  0  0  0
   50.6990  157.3180   29.4170 C   0  0  0  0  0  0  0  0  0  0  0  0
   50.4620  158.5590   30.0490 C   0  0  0  0  0  0  0  0  0  0  0  0
   49.0730  158.8590   30.5690 C   0  0  0  0  0  0  0  0  0  0  0  0
   48.9890  158.8800   31.9300 F   0  0  0  0  0  0  0  0  0  0  0  0
   48.6060  160.0690   30.1530 F   0  0  0  0  0  0  0  0  0  0  0  0
   48.1470  157.9420   30.1660 F   0  0  0  0  0  0  0  0  0  0  0  0
   54.7374  161.8913   32.6247 H   0  0  0  0  0  0  0  0  0  0  0  0
   55.6774  161.1323   31.2954 H   0  0  0  0  0  0  0  0  0  0  0  0
   55.3933  162.9060   31.2954 H   0  0  0  0  0  0  0  0  0  0  0  0
   53.9010  161.0250   30.0700 H   0  0  0  0  0  0  0  0  0  0  0  0
   53.0984  163.7341   30.9423 H   0  0  0  0  0  0  0  0  0  0  0  0
   54.1535  163.3677   29.5356 H   0  0  0  0  0  0  0  0  0  0  0  0
   52.4388  162.8327   29.5356 H   0  0  0  0  0  0  0  0  0  0  0  0
   52.9905  160.3506   32.1951 H   0  0  0  0  0  0  0  0  0  0  0  0
   52.3395  162.0510   32.3144 H   0  0  0  0  0  0  0  0  0  0  0  0
   50.5144  160.7915   31.5325 H   0  0  0  0  0  0  0  0  0  0  0  0
   51.2180  161.5715   30.0534 H   0  0  0  0  0  0  0  0  0  0  0  0
   53.6359  159.8239   29.7888 H   0  0  0  0  0  0  0  0  0  0  0  0
   54.0073  157.6358   28.6761 H   0  0  0  0  0  0  0  0  0  0  0  0
   53.8068  155.9133   24.6257 H   0  0  0  0  0  0  0  0  0  0  0  0
   54.3555  153.9472   23.1893 H   0  0  0  0  0  0  0  0  0  0  0  0
   53.9071  151.6337   24.0124 H   0  0  0  0  0  0  0  0  0  0  0  0
   52.8890  150.7940   27.2080 H   0  0  0  0  0  0  0  0  0  0  0  0
   51.3600  153.4770   30.4720 H   0  0  0  0  0  0  0  0  0  0  0  0
   49.8662  156.6082   29.3045 H   0  0  0  0  0  0  0  0  0  0  0  0
  1  2  1  0
  2  3  1  0
  2  4  1  0
  4  5  1  0
  5  6  1  0
  6  7  2  0
  7  8  1  0
  8  9  2  0
  9 10  1  0
 10 11  1  0
 11 12  1  0
 12 13  2  0
 13 14  1  0
 14 15  2  0
 15 16  1  0
 16 17  1  0
 16 18  2  0
 18 19  1  0
 19 20  2  0
 19 21  1  0
 21 22  1  0
  9 23  1  0
 23 24  2  0
 24 25  1  0
 25 26  1  0
 25 27  1  0
 25 28  1  0
 24  6  1  0
 21 10  2  0
 18 12  1  0
  1 29  1  0
  1 30  1  0
  1 31  1  0
  2 32  1  0
  3 33  1  0
  3 34  1  0
  3 35  1  0
  4 36  1  0
  4 37  1  0
  5 38  1  0
  5 39  1  0
  7 40  1  0
  8 41  1  0
 13 42  1  0
 14 43  1  0
 15 44  1  0
 17 45  1  0
 22 46  1  0
 23 47  1  0
M  CHG  1   2   1
M  END
>  <meeko>  (3) 
{"is_sidechain": [false], "free_energy": -9.96, "intermolecular_energy": -13.455, "internal_energy": -0.148}

$$$$
cand_024_out
     RDKit          3D

 47 49  0  0  0  0  0  0  0  0999 V2000
   53.4160  149.6890   25.2530 C   0  0  0  0  0  0  0  0  0  0  0  0
   53.4470  151.1260   24.9680 N   0  0  0  0  0  0  0  0  0  0  0  0
   54.8380  151.5620   24.8120 C   0  0  0  0  0  0  0  0  0  0  0  0
   52.7920  151.9100   26.0330 C   0  0  0  0  0  0  0  0  0  0  0  0
   53.7780  152.7720   26.8440 C   0  0  0  0  0  0  0  0  0  0  0  0
   53.0910  153.9660   27.4820 C   0  0  0  0  0  0  0  0  0  0  0  0
   52.5840  153.8210   28.7850 C   0  0  0  0  0  0  0  0  0  0  0  0
   51.9330  154.8780   29.4230 C   0  0  0  0  0  0  0  0  0  0  0  0
   51.7740  156.1120   28.7840 C   0  0  0  0  0  0  0  0  0  0  0  0
   51.0650  157.2120   29.4720 C   0  0  0  0  0  0  0  0  0  0  0  0
   51.8950  158.2850   29.7750 O   0  0  0  0  0  0  0  0  0  0  0  0
   51.3610  159.3760   30.4130 C   0  0  0  0  0  0  0  0  0  0  0  0
   52.2330  160.4240   30.7110 C   0  0  0  0  0  0  0  0  0  0  0  0
   51.7540  161.5650   31.3590 C   0  0  0  0  0  0  0  0  0  0  0  0
   50.4060  161.6560   31.7100 C   0  0  0  0  0  0  0  0  0  0  0  0
   49.5390  160.6090   31.4110 C   0  0  0  0  0  0  0  0  0  0  0  0
   48.2310  160.7650   31.7820 O   0  0  0  0  0  0  0  0  0  0  0  0
   50.0180  159.4680   30.7640 C   0  0  0  0  0  0  0  0  0  0  0  0
   49.1400  158.3440   30.4320 C   0  0  0  0  0  0  0  0  0  0  0  0
   47.9410  158.3530   30.7010 O   0  0  0  0  0  0  0  0  0  0  0  0
   49.7490  157.1780   29.7510 C   0  0  0  0  0  0  0  0  0  0  0  0
   48.9100  156.1270   29.4290 O   0  0  0  0  0  0  0  0  0  0  0  0
   52.2670  156.2530   27.4790 C   0  0  0  0  0  0  0  0  0  0  0  0
   52.9260  155.1980   26.8120 C   0  0  0  0  0  0  0  0  0  0  0  0
   53.4500  155.4340   25.4130 C   0  0  0  0  0  0  0  0  0  0  0  0
   53.3790  156.7370   25.0130 F   0  0  0  0  0  0  0  0  0  0  0  0
   54.7580  155.0780   25.2740 F   0  0  0  0  0  0  0  0  0  0  0  0
   52.7670  154.7300   24.4650 F   0  0  0  0  0  0  0  0  0  0  0  0
   53.4126  149.5311   26.3416 H   0  0  0  0  0  0  0  0  0  0  0  0
   52.5081  149.2480   24.8157 H   0  0  0  0  0  0  0  0  0  0  0  0
   54.3040  149.2092   24.8157 H   0  0  0  0  0  0  0  0  0  0  0  0
   52.9310  151.2890   24.1020 H   0  0  0  0  0  0  0  0  0  0  0  0
   55.2912  151.7040   25.8042 H   0  0  0  0  0  0  0  0  0  0  0  0
   55.4019  150.7975   24.2574 H   0  0  0  0  0  0  0  0  0  0  0  0
   54.8646  152.5116   24.2574 H   0  0  0  0  0  0  0  0  0  0  0  0
   52.0459  152.5731   25.5708 H   0  0  0  0  0  0  0  0  0  0  0  0
   52.3322  151.1945   26.7306 H   0  0  0  0  0  0  0  0  0  0  0  0
   54.2239  152.1527   27.6362 H   0  0  0  0  0  0  0  0  0  0  0  0
   54.5486  153.1489   26.1555 H   0  0  0  0  0  0  0  0  0  0  0  0
   52.7019  152.8611   29.3091 H   0  0  0  0  0  0  0  0  0  0  0  0
   51.5401  154.7388   30.4410 H   0  0  0  0  0  0  0  0  0  0  0  0
   53.2956  160.3517   30.4361 H   0  0  0  0  0  0  0  0  0  0  0  0
   52.4398  162.3927   31.5929 H   0  0  0  0  0  0  0  0  0  0  0  0
   50.0295  162.5538   32.2221 H   0  0  0  0  0  0  0  0  0  0  0  0
   47.5610  160.2670   31.3560 H   0  0  0  0  0  0  0  0  0  0  0  0
   49.2380  155.4000   28.9350 H   0  0  0  0  0  0  0  0  0  0  0  0
   52.1364  157.2139   26.9598 H   0  0  0  0  0  0  0  0  0  0  0  0
  1  2  1  0
  2  3  1  0
  2  4  1  0
  4  5  1  0
  5  6  1  0
  6  7  2  0
  7  8  1  0
  8  9  2  0
  9 10  1  0
 10 11  1  0
 11 12  1  0
 12 13  2  0
 13 14  1  0
 14 15  2  0
 15 16  1  0
 16 17  1  0
 16 18  2  0
 18 19  1  0
 19 20  2  0
 19 21  1  0
 21 22  1  0
  9 23  1  0
 23 24  2  0
 24 25  1  0
 25 26  1  0
 25 27  1  0
 25 28  1  0
 24  6  1  0
 21 10  2  0
 18 12  1  0
  1 29  1  0
  1 30  1  0
  1 31  1  0
  2 32  1  0
  3 33  1  0
  3 34  1  0
  3 35  1  0
  4 36  1  0
  4 37  1  0
  5 38  1  0
  5 39  1  0
  7 40  1  0
  8 41  1  0
 13 42  1  0
 14 43  1  0
 15 44  1  0
 17 45  1  0
 22 46  1  0
 23 47  1  0
M  CHG  1   2   1
M  END
>  <meeko>  (4) 
{"is_sidechain": [false], "free_energy": -9.629, "intermolecular_energy": -12.486, "internal_energy": -0.67}

$$$$
cand_024_out
     RDKit          3D

 47 49  0  0  0  0  0  0  0  0999 V2000
   54.0400  152.2360   24.0570 C   0  0  0  0  0  0  0  0  0  0  0  0
   53.8460  153.6630   23.7860 N   0  0  0  0  0  0  0  0  0  0  0  0
   55.1500  154.3350   23.7610 C   0  0  0  0  0  0  0  0  0  0  0  0
   52.9740  154.2990   24.7930 C   0  0  0  0  0  0  0  0  0  0  0  0
   53.4740  154.1060   26.2360 C   0  0  0  0  0  0  0  0  0  0  0  0
   52.9070  155.1550   27.1760 C   0  0  0  0  0  0  0  0  0  0  0  0
   52.9980  156.5040   26.7960 C   0  0  0  0  0  0  0  0  0  0  0  0
   52.5060  157.5180   27.6210 C   0  0  0  0  0  0  0  0  0  0  0  0
   51.9030  157.2140   28.8460 C   0  0  0  0  0  0  0  0  0  0  0  0
   51.4040  158.3040   29.7110 C   0  0  0  0  0  0  0  0  0  0  0  0
   50.0730  158.1420   30.0730 O   0  0  0  0  0  0  0  0  0  0  0  0
   49.4860  159.0830   30.8790 C   0  0  0  0  0  0  0  0  0  0  0  0
   48.1430  158.8890   31.2060 C   0  0  0  0  0  0  0  0  0  0  0  0
   47.4850  159.8100   32.0240 C   0  0  0  0  0  0  0  0  0  0  0  0
   48.1690  160.9250   32.5140 C   0  0  0  0  0  0  0  0  0  0  0  0
   49.5080  161.1160   32.1860 C   0  0  0  0  0  0  0  0  0  0  0  0
   50.1170  162.2280   32.7000 O   0  0  0  0  0  0  0  0  0  0  0  0
   50.1660  160.1950   31.3670 C   0  0  0  0  0  0  0  0  0  0  0  0
   51.5730  160.3590   30.9990 C   0  0  0  0  0  0  0  0  0  0  0  0
   52.2440  161.3090   31.3960 O   0  0  0  0  0  0  0  0  0  0  0  0
   52.1740  159.3290   30.1200 C   0  0  0  0  0  0  0  0  0  0  0  0
   53.5080  159.4840   29.7870 O   0  0  0  0  0  0  0  0  0  0  0  0
   51.8250  155.8690   29.2330 C   0  0  0  0  0  0  0  0  0  0  0  0
   52.3180  154.8280   28.4170 C   0  0  0  0  0  0  0  0  0  0  0  0
   52.1770  153.3980   28.8940 C   0  0  0  0  0  0  0  0  0  0  0  0
   51.4850  152.5980   28.0330 F   0  0  0  0  0  0  0  0  0  0  0  0
   53.3800  152.7850   29.0790 F   0  0  0  0  0  0  0  0  0  0  0  0
   51.5190  153.2990   30.0840 F   0  0  0  0  0  0  0  0  0  0  0  0
   54.0627  152.0690   25.1440 H   0  0  0  0  0  0  0  0  0  0  0  0
   53.2115  151.6629   23.6152 H   0  0  0  0  0  0  0  0  0  0  0  0
   54.9914  151.9049   23.6152 H   0  0  0  0  0  0  0  0  0  0  0  0
   53.3890  153.7560   22.8780 H   0  0  0  0  0  0  0  0  0  0  0  0
   55.4916  154.5110   24.7917 H   0  0  0  0  0  0  0  0  0  0  0  0
   55.8795  153.7005   23.2363 H   0  0  0  0  0  0  0  0  0  0  0  0
   55.0566  155.2973   23.2363 H   0  0  0  0  0  0  0  0  0  0  0  0
   52.9242  155.3773   24.5814 H   0  0  0  0  0  0  0  0  0  0  0  0
   51.9872  153.8182   24.7217 H   0  0  0  0  0  0  0  0  0  0  0  0
   53.1679  153.1099   26.5883 H   0  0  0  0  0  0  0  0  0  0  0  0
   54.5694  154.2062   26.2338 H   0  0  0  0  0  0  0  0  0  0  0  0
   53.4636  156.7659   25.8344 H   0  0  0  0  0  0  0  0  0  0  0  0
   52.5937  158.5676   27.3038 H   0  0  0  0  0  0  0  0  0  0  0  0
   47.6035  158.0116   30.8198 H   0  0  0  0  0  0  0  0  0  0  0  0
   46.4268  159.6572   32.2827 H   0  0  0  0  0  0  0  0  0  0  0  0
   47.6504  161.6506   33.1578 H   0  0  0  0  0  0  0  0  0  0  0  0
   50.6550  162.1570   33.4650 H   0  0  0  0  0  0  0  0  0  0  0  0
   53.9270  158.8590   29.2280 H   0  0  0  0  0  0  0  0  0  0  0  0
   51.3663  155.6174   30.2006 H   0  0  0  0  0  0  0  0  0  0  0  0
  1  2  1  0
  2  3  1  0
  2  4  1  0
  4  5  1  0
  5  6  1  0
  6  7  2  0
  7  8  1  0
  8  9  2  0
  9 10  1  0
 10 11  1  0
 11 12  1  0
 12 13  2  0
 13 14  1  0
 14 15  2  0
 15 16  1  0
 16 17  1  0
 16 18  2  0
 18 19  1  0
 19 20  2  0
 19 21  1  0
 21 22  1  0
  9 23  1  0
 23 24  2  0
 24 25  1  0
 25 26  1  0
 25 27  1  0
 25 28  1  0
 24  6  1  0
 21 10  2  0
 18 12  1  0
  1 29  1  0
  1 30  1  0
  1 31  1  0
  2 32  1  0
  3 33  1  0
  3 34  1  0
  3 35  1  0
  4 36  1  0
  4 37  1  0
  5 38  1  0
  5 39  1  0
  7 40  1  0
  8 41  1  0
 13 42  1  0
 14 43  1  0
 15 44  1  0
 17 45  1  0
 22 46  1  0
 23 47  1  0
M  CHG  1   2   1
M  END
>  <meeko>  (5) 
{"is_sidechain": [false], "free_energy": -9.529, "intermolecular_energy": -12.504, "internal_energy": -0.517}

$$$$
cand_024_out
     RDKit          3D

 47 49  0  0  0  0  0  0  0  0999 V2000
   48.0670  161.7390   34.4010 C   0  0  0  0  0  0  0  0  0  0  0  0
   49.3660  161.3370   33.8550 N   0  0  0  0  0  0  0  0  0  0  0  0
   49.9030  162.4210   33.0260 C   0  0  0  0  0  0  0  0  0  0  0  0
   49.2660  160.0990   33.0580 C   0  0  0  0  0  0  0  0  0  0  0  0
   49.1750  160.3580   31.5430 C   0  0  0  0  0  0  0  0  0  0  0  0
   49.9310  159.3130   30.7440 C   0  0  0  0  0  0  0  0  0  0  0  0
   49.2630  158.1220   30.4100 C   0  0  0  0  0  0  0  0  0  0  0  0
   49.9060  157.1170   29.6860 C   0  0  0  0  0  0  0  0  0  0  0  0
   51.2320  157.2720   29.2670 C   0  0  0  0  0  0  0  0  0  0  0  0
   51.8990  156.1870   28.5160 C   0  0  0  0  0  0  0  0  0  0  0  0
   52.4390  156.6160   27.3110 O   0  0  0  0  0  0  0  0  0  0  0  0
   53.0900  155.7080   26.5150 C   0  0  0  0  0  0  0  0  0  0  0  0
   53.6050  156.1780   25.3060 C   0  0  0  0  0  0  0  0  0  0  0  0
   54.2800  155.3060   24.4500 C   0  0  0  0  0  0  0  0  0  0  0  0
   54.4390  153.9640   24.8020 C   0  0  0  0  0  0  0  0  0  0  0  0
   53.9250  153.4970   26.0090 C   0  0  0  0  0  0  0  0  0  0  0  0
   54.1180  152.1720   26.2920 O   0  0  0  0  0  0  0  0  0  0  0  0
   53.2490  154.3700   26.8650 C   0  0  0  0  0  0  0  0  0  0  0  0
   52.6930  153.9200   28.1430 C   0  0  0  0  0  0  0  0  0  0  0  0
   52.7990  152.7580   28.5260 O   0  0  0  0  0  0  0  0  0  0  0  0
   51.9890  154.9240   28.9730 C   0  0  0  0  0  0  0  0  0  0  0  0
   51.4780  154.4940   30.1840 O   0  0  0  0  0  0  0  0  0  0  0  0
   51.9040  158.4530   29.6120 C   0  0  0  0  0  0  0  0  0  0  0  0
   51.2750  159.4820   30.3460 C   0  0  0  0  0  0  0  0  0  0  0  0
   52.0590  160.7380   30.6610 C   0  0  0  0  0  0  0  0  0  0  0  0
   51.4610  161.8830   30.2240 F   0  0  0  0  0  0  0  0  0  0  0  0
   52.2570  160.9130   31.9970 F   0  0  0  0  0  0  0  0  0  0  0  0
   53.3000  160.7430   30.0950 F   0  0  0  0  0  0  0  0  0  0  0  0
   48.1111  161.7253   35.5000 H   0  0  0  0  0  0  0  0  0  0  0  0
   47.8229  162.7547   34.0564 H   0  0  0  0  0  0  0  0  0  0  0  0
   47.2918  161.0387   34.0564 H   0  0  0  0  0  0  0  0  0  0  0  0
   49.9950  161.1510   34.6370 H   0  0  0  0  0  0  0  0  0  0  0  0
   50.2975  163.2174   33.6742 H   0  0  0  0  0  0  0  0  0  0  0  0
   50.7119  162.0307   32.3910 H   0  0  0  0  0  0  0  0  0  0  0  0
   49.1023  162.8281   32.3910 H   0  0  0  0  0  0  0  0  0  0  0  0
   50.1565  159.4839   33.2545 H   0  0  0  0  0  0  0  0  0  0  0  0
   48.3379  159.5909   33.3588 H   0  0  0  0  0  0  0  0  0  0  0  0
   48.1172  160.3393   31.2419 H   0  0  0  0  0  0  0  0  0  0  0  0
   49.6286  161.3387   31.3369 H   0  0  0  0  0  0  0  0  0  0  0  0
   48.2183  157.9801   30.7239 H   0  0  0  0  0  0  0  0  0  0  0  0
   49.3637  156.1917   29.4417 H   0  0  0  0  0  0  0  0  0  0  0  0
   53.4791  157.2348   25.0278 H   0  0  0  0  0  0  0  0  0  0  0  0
   54.6870  155.6763   23.4975 H   0  0  0  0  0  0  0  0  0  0  0  0
   54.9696  153.2767   24.1267 H   0  0  0  0  0  0  0  0  0  0  0  0
   53.5930  151.7520   26.9440 H   0  0  0  0  0  0  0  0  0  0  0  0
   51.3730  153.5770   30.3490 H   0  0  0  0  0  0  0  0  0  0  0  0
   52.9515  158.5816   29.3019 H   0  0  0  0  0  0  0  0  0  0  0  0
  1  2  1  0
  2  3  1  0
  2  4  1  0
  4  5  1  0
  5  6  1  0
  6  7  2  0
  7  8  1  0
  8  9  2  0
  9 10  1  0
 10 11  1  0
 11 12  1  0
 12 13  2  0
 13 14  1  0
 14 15  2  0
 15 16  1  0
 16 17  1  0
 16 18  2  0
 18 19  1  0
 19 20  2  0
 19 21  1  0
 21 22  1  0
  9 23  1  0
 23 24  2  0
 24 25  1  0
 25 26  1  0
 25 27  1  0
 25 28  1  0
 24  6  1  0
 21 10  2  0
 18 12  1  0
  1 29  1  0
  1 30  1  0
  1 31  1  0
  2 32  1  0
  3 33  1  0
  3 34  1  0
  3 35  1  0
  4 36  1  0
  4 37  1  0
  5 38  1  0
  5 39  1  0
  7 40  1  0
  8 41  1  0
 13 42  1  0
 14 43  1  0
 15 44  1  0
 17 45  1  0
 22 46  1  0
 23 47  1  0
M  CHG  1   2   1
M  END
>  <meeko>  (6) 
{"is_sidechain": [false], "free_energy": -9.516, "intermolecular_energy": -12.539, "internal_energy": -0.465}

$$$$
cand_024_out
     RDKit          3D

 47 49  0  0  0  0  0  0  0  0999 V2000
   54.0180  151.9640   24.4040 C   0  0  0  0  0  0  0  0  0  0  0  0
   53.7340  153.3080   23.8930 N   0  0  0  0  0  0  0  0  0  0  0  0
   54.9930  153.9750   23.5470 C   0  0  0  0  0  0  0  0  0  0  0  0
   52.9890  154.1210   24.8740 C   0  0  0  0  0  0  0  0  0  0  0  0
   53.7730  154.3670   26.1760 C   0  0  0  0  0  0  0  0  0  0  0  0
   53.0140  155.2690   27.1320 C   0  0  0  0  0  0  0  0  0  0  0  0
   53.0180  156.6520   26.8830 C   0  0  0  0  0  0  0  0  0  0  0  0
   52.3480  157.5370   27.7300 C   0  0  0  0  0  0  0  0  0  0  0  0
   51.6480  157.0680   28.8470 C   0  0  0  0  0  0  0  0  0  0  0  0
   50.9600  158.0230   29.7400 C   0  0  0  0  0  0  0  0  0  0  0  0
   51.7490  159.1170   30.0740 O   0  0  0  0  0  0  0  0  0  0  0  0
   51.2280  160.0830   30.8970 C   0  0  0  0  0  0  0  0  0  0  0  0
   52.0600  161.1570   31.2180 C   0  0  0  0  0  0  0  0  0  0  0  0
   51.5920  162.1750   32.0510 C   0  0  0  0  0  0  0  0  0  0  0  0
   50.2940  162.1200   32.5630 C   0  0  0  0  0  0  0  0  0  0  0  0
   49.4660  161.0480   32.2400 C   0  0  0  0  0  0  0  0  0  0  0  0
   48.2070  161.0560   32.7750 O   0  0  0  0  0  0  0  0  0  0  0  0
   49.9350  160.0280   31.4080 C   0  0  0  0  0  0  0  0  0  0  0  0
   49.0980  158.8830   31.0450 C   0  0  0  0  0  0  0  0  0  0  0  0
   47.9430  158.7670   31.4490 O   0  0  0  0  0  0  0  0  0  0  0  0
   49.6930  157.8540   30.1620 C   0  0  0  0  0  0  0  0  0  0  0  0
   48.8910  156.7820   29.8130 O   0  0  0  0  0  0  0  0  0  0  0  0
   51.6550  155.6890   29.1040 C   0  0  0  0  0  0  0  0  0  0  0  0
   52.3280  154.7760   28.2630 C   0  0  0  0  0  0  0  0  0  0  0  0
   52.2710  153.3010   28.5950 C   0  0  0  0  0  0  0  0  0  0  0  0
   51.7180  152.5370   27.6090 F   0  0  0  0  0  0  0  0  0  0  0  0
   53.5030  152.7670   28.8270 F   0  0  0  0  0  0  0  0  0  0  0  0
   51.5320  153.0370   29.7100 F   0  0  0  0  0  0  0  0  0  0  0  0
   54.0143  151.9815   25.5039 H   0  0  0  0  0  0  0  0  0  0  0  0
   53.2477  151.2652   24.0458 H   0  0  0  0  0  0  0  0  0  0  0  0
   55.0052  151.6366   24.0458 H   0  0  0  0  0  0  0  0  0  0  0  0
   53.1480  153.2150   23.0620 H   0  0  0  0  0  0  0  0  0  0  0  0
   55.5241  154.2564   24.4683 H   0  0  0  0  0  0  0  0  0  0  0  0
   55.6202  153.2909   22.9566 H   0  0  0  0  0  0  0  0  0  0  0  0
   54.7793  154.8782   22.9566 H   0  0  0  0  0  0  0  0  0  0  0  0
   52.7558  155.0940   24.4169 H   0  0  0  0  0  0  0  0  0  0  0  0
   52.0799  153.5616   25.1399 H   0  0  0  0  0  0  0  0  0  0  0  0
   53.9563  153.4007   26.6687 H   0  0  0  0  0  0  0  0  0  0  0  0
   54.7185  154.8651   25.9156 H   0  0  0  0  0  0  0  0  0  0  0  0
   53.5571  157.0433   26.0076 H   0  0  0  0  0  0  0  0  0  0  0  0
   52.3708  158.6159   27.5166 H   0  0  0  0  0  0  0  0  0  0  0  0
   53.0827  161.2012   30.8153 H   0  0  0  0  0  0  0  0  0  0  0  0
   52.2468  163.0218   32.3044 H   0  0  0  0  0  0  0  0  0  0  0  0
   49.9263  162.9219   33.2201 H   0  0  0  0  0  0  0  0  0  0  0  0
   48.0910  161.1600   33.6990 H   0  0  0  0  0  0  0  0  0  0  0  0
   48.3050  156.8540   29.0850 H   0  0  0  0  0  0  0  0  0  0  0  0
   51.1205  155.3077   29.9866 H   0  0  0  0  0  0  0  0  0  0  0  0
  1  2  1  0
  2  3  1  0
  2  4  1  0
  4  5  1  0
  5  6  1  0
  6  7  2  0
  7  8  1  0
  8  9  2  0
  9 10  1  0
 10 11  1  0
 11 12  1  0
 12 13  2  0
 13 14  1  0
 14 15  2  0
 15 16  1  0
 16 17  1  0
 16 18  2  0
 18 19  1  0
 19 20  2  0
 19 21  1  0
 21 22  1  0
  9 23  1  0
 23 24  2  0
 24 25  1  0
 25 26  1  0
 25 27  1  0
 25 28  1  0
 24  6  1  0
 21 10  2  0
 18 12  1  0
  1 29  1  0
  1 30  1  0
  1 31  1  0
  2 32  1  0
  3 33  1  0
  3 34  1  0
  3 35  1  0
  4 36  1  0
  4 37  1  0
  5 38  1  0
  5 39  1  0
  7 40  1  0
  8 41  1  0
 13 42  1  0
 14 43  1  0
 15 44  1  0
 17 45  1  0
 22 46  1  0
 23 47  1  0
M  CHG  1   2   1
M  END
>  <meeko>  (7) 
{"is_sidechain": [false], "free_energy": -8.755, "intermolecular_energy": -11.487, "internal_energy": -0.488}

$$$$
cand_024_out
     RDKit          3D

 47 49  0  0  0  0  0  0  0  0999 V2000
   48.4520  161.3880   30.6150 C   0  0  0  0  0  0  0  0  0  0  0  0
   47.9740  160.1850   31.3020 N   0  0  0  0  0  0  0  0  0  0  0  0
   48.6510  160.0630   32.5970 C   0  0  0  0  0  0  0  0  0  0  0  0
   48.2040  158.9680   30.5000 C   0  0  0  0  0  0  0  0  0  0  0  0
   49.1960  157.9890   31.1540 C   0  0  0  0  0  0  0  0  0  0  0  0
   50.0540  157.2800   30.1220 C   0  0  0  0  0  0  0  0  0  0  0  0
   49.6610  155.9980   29.7000 C   0  0  0  0  0  0  0  0  0  0  0  0
   50.4130  155.2890   28.7620 C   0  0  0  0  0  0  0  0  0  0  0  0
   51.5750  155.8390   28.2120 C   0  0  0  0  0  0  0  0  0  0  0  0
   52.3660  155.0630   27.2330 C   0  0  0  0  0  0  0  0  0  0  0  0
   52.0900  153.7020   27.2710 O   0  0  0  0  0  0  0  0  0  0  0  0
   52.7550  152.8670   26.4100 C   0  0  0  0  0  0  0  0  0  0  0  0
   52.4580  151.5050   26.4910 C   0  0  0  0  0  0  0  0  0  0  0  0
   53.0980  150.6010   25.6420 C   0  0  0  0  0  0  0  0  0  0  0  0
   54.0360  151.0560   24.7130 C   0  0  0  0  0  0  0  0  0  0  0  0
   54.3300  152.4150   24.6330 C   0  0  0  0  0  0  0  0  0  0  0  0
   55.2570  152.7920   23.7010 O   0  0  0  0  0  0  0  0  0  0  0  0
   53.6900  153.3200   25.4840 C   0  0  0  0  0  0  0  0  0  0  0  0
   53.9700  154.7560   25.4330 C   0  0  0  0  0  0  0  0  0  0  0  0
   54.7760  155.2340   24.6380 O   0  0  0  0  0  0  0  0  0  0  0  0
   53.2420  155.6290   26.3820 C   0  0  0  0  0  0  0  0  0  0  0  0
   53.5030  156.9850   26.3190 O   0  0  0  0  0  0  0  0  0  0  0  0
   51.9760  157.1110   28.6430 C   0  0  0  0  0  0  0  0  0  0  0  0
   51.2340  157.8460   29.5930 C   0  0  0  0  0  0  0  0  0  0  0  0
   51.7200  159.2230   29.9910 C   0  0  0  0  0  0  0  0  0  0  0  0
   51.5570  159.5000   31.3170 F   0  0  0  0  0  0  0  0  0  0  0  0
   53.0460  159.4060   29.7380 F   0  0  0  0  0  0  0  0  0  0  0  0
   51.0710  160.2250   29.3320 F   0  0  0  0  0  0  0  0  0  0  0  0
   48.7511  162.1408   31.3592 H   0  0  0  0  0  0  0  0  0  0  0  0
   49.3165  161.1314   29.9851 H   0  0  0  0  0  0  0  0  0  0  0  0
   47.6472  161.7947   29.9851 H   0  0  0  0  0  0  0  0  0  0  0  0
   46.9670  160.2770   31.4420 H   0  0  0  0  0  0  0  0  0  0  0  0
   47.9189  160.1949   33.4073 H   0  0  0  0  0  0  0  0  0  0  0  0
   49.1117  159.0674   32.6776 H   0  0  0  0  0  0  0  0  0  0  0  0
   49.4303  160.8352   32.6776 H   0  0  0  0  0  0  0  0  0  0  0  0
   47.2421  158.4521   30.3638 H   0  0  0  0  0  0  0  0  0  0  0  0
   48.6418  159.2857   29.5422 H   0  0  0  0  0  0  0  0  0  0  0  0
   49.8513  158.5497   31.8368 H   0  0  0  0  0  0  0  0  0  0  0  0
   48.6164  157.2278   31.6969 H   0  0  0  0  0  0  0  0  0  0  0  0
   48.7476  155.5471   30.1151 H   0  0  0  0  0  0  0  0  0  0  0  0
   50.0875  154.2852   28.4516 H   0  0  0  0  0  0  0  0  0  0  0  0
   51.7203  151.1450   27.2233 H   0  0  0  0  0  0  0  0  0  0  0  0
   52.8631  149.5282   25.7047 H   0  0  0  0  0  0  0  0  0  0  0  0
   54.5417  150.3425   24.0457 H   0  0  0  0  0  0  0  0  0  0  0  0
   55.8550  152.1600   23.3520 H   0  0  0  0  0  0  0  0  0  0  0  0
   52.9870  157.5850   26.8210 H   0  0  0  0  0  0  0  0  0  0  0  0
   52.8959  157.5495   28.2289 H   0  0  0  0  0  0  0  0  0  0  0  0
  1  2  1  0
  2  3  1  0
  2  4  1  0
  4  5  1  0
  5  6  1  0
  6  7  2  0
  7  8  1  0
  8  9  2  0
  9 10  1  0
 10 11  1  0
 11 12  1  0
 12 13  2  0
 13 14  1  0
 14 15  2  0
 15 16  1  0
 16 17  1  0
 16 18  2  0
 18 19  1  0
 19 20  2  0
 19 21  1  0
 21 22  1  0
  9 23  1  0
 23 24  2  0
 24 25  1  0
 25 26  1  0
 25 27  1  0
 25 28  1  0
 24  6  1  0
 21 10  2  0
 18 12  1  0
  1 29  1  0
  1 30  1  0
  1 31  1  0
  2 32  1  0
  3 33  1  0
  3 34  1  0
  3 35  1  0
  4 36  1  0
  4 37  1  0
  5 38  1  0
  5 39  1  0
  7 40  1  0
  8 41  1  0
 13 42  1  0
 14 43  1  0
 15 44  1  0
 17 45  1  0
 22 46  1  0
 23 47  1  0
M  CHG  1   2   1
M  END
>  <meeko>  (8) 
{"is_sidechain": [false], "free_energy": -8.712, "intermolecular_energy": -11.791, "internal_energy": -0.126}

$$$$
cand_024_out
     RDKit          3D

 47 49  0  0  0  0  0  0  0  0999 V2000
   48.7170  160.9040   32.2330 C   0  0  0  0  0  0  0  0  0  0  0  0
   47.6750  160.4120   31.3270 N   0  0  0  0  0  0  0  0  0  0  0  0
   46.5160  159.9710   32.1100 C   0  0  0  0  0  0  0  0  0  0  0  0
   48.1610  159.3030   30.4840 C   0  0  0  0  0  0  0  0  0  0  0  0
   49.1390  158.3670   31.2180 C   0  0  0  0  0  0  0  0  0  0  0  0
   49.9640  157.5380   30.2500 C   0  0  0  0  0  0  0  0  0  0  0  0
   49.4810  156.2700   29.8840 C   0  0  0  0  0  0  0  0  0  0  0  0
   50.1980  155.4540   29.0060 C   0  0  0  0  0  0  0  0  0  0  0  0
   51.4130  155.8820   28.4630 C   0  0  0  0  0  0  0  0  0  0  0  0
   52.1640  154.9950   27.5490 C   0  0  0  0  0  0  0  0  0  0  0  0
   52.8960  155.6940   26.5960 O   0  0  0  0  0  0  0  0  0  0  0  0
   53.6420  154.9890   25.6860 C   0  0  0  0  0  0  0  0  0  0  0  0
   54.3490  155.7290   24.7380 C   0  0  0  0  0  0  0  0  0  0  0  0
   55.1290  155.0740   23.7830 C   0  0  0  0  0  0  0  0  0  0  0  0
   55.2010  153.6800   23.7750 C   0  0  0  0  0  0  0  0  0  0  0  0
   54.4940  152.9430   24.7220 C   0  0  0  0  0  0  0  0  0  0  0  0
   54.6090  151.5810   24.6570 O   0  0  0  0  0  0  0  0  0  0  0  0
   53.7130  153.5990   25.6770 C   0  0  0  0  0  0  0  0  0  0  0  0
   52.9540  152.8630   26.6900 C   0  0  0  0  0  0  0  0  0  0  0  0
   52.9720  151.6360   26.7520 O   0  0  0  0  0  0  0  0  0  0  0  0
   52.1520  153.6530   27.6520 C   0  0  0  0  0  0  0  0  0  0  0  0
   51.4490  152.9510   28.6140 O   0  0  0  0  0  0  0  0  0  0  0  0
   51.9030  157.1410   28.8380 C   0  0  0  0  0  0  0  0  0  0  0  0
   51.1980  157.9820   29.7260 C   0  0  0  0  0  0  0  0  0  0  0  0
   51.7810  159.3360   30.0660 C   0  0  0  0  0  0  0  0  0  0  0  0
   51.7240  159.6410   31.3950 F   0  0  0  0  0  0  0  0  0  0  0  0
   53.0940  159.4450   29.7200 F   0  0  0  0  0  0  0  0  0  0  0  0
   51.1410  160.3620   29.4350 F   0  0  0  0  0  0  0  0  0  0  0  0
   48.3980  160.7534   33.2749 H   0  0  0  0  0  0  0  0  0  0  0  0
   49.6509  160.3518   32.0520 H   0  0  0  0  0  0  0  0  0  0  0  0
   48.8840  161.9761   32.0520 H   0  0  0  0  0  0  0  0  0  0  0  0
   47.4070  161.1770   30.7060 H   0  0  0  0  0  0  0  0  0  0  0  0
   46.7437  160.0576   33.1827 H   0  0  0  0  0  0  0  0  0  0  0  0
   45.6481  160.6017   31.8673 H   0  0  0  0  0  0  0  0  0  0  0  0
   46.2869  158.9228   31.8673 H   0  0  0  0  0  0  0  0  0  0  0  0
   47.2953  158.7120   30.1504 H   0  0  0  0  0  0  0  0  0  0  0  0
   48.7068  159.7491   29.6395 H   0  0  0  0  0  0  0  0  0  0  0  0
   49.8181  158.9747   31.8340 H   0  0  0  0  0  0  0  0  0  0  0  0
   48.5491  157.6777   31.8400 H   0  0  0  0  0  0  0  0  0  0  0  0
   48.5244  155.9150   30.2950 H   0  0  0  0  0  0  0  0  0  0  0  0
   49.8021  154.4631   28.7387 H   0  0  0  0  0  0  0  0  0  0  0  0
   54.2920  156.8275   24.7429 H   0  0  0  0  0  0  0  0  0  0  0  0
   55.6875  155.6572   23.0360 H   0  0  0  0  0  0  0  0  0  0  0  0
   55.8151  153.1644   23.0220 H   0  0  0  0  0  0  0  0  0  0  0  0
   54.8630  151.0960   25.4180 H   0  0  0  0  0  0  0  0  0  0  0  0
   50.5180  152.8630   28.5420 H   0  0  0  0  0  0  0  0  0  0  0  0
   52.8647  157.4834   28.4283 H   0  0  0  0  0  0  0  0  0  0  0  0
  1  2  1  0
  2  3  1  0
  2  4  1  0
  4  5  1  0
  5  6  1  0
  6  7  2  0
  7  8  1  0
  8  9  2  0
  9 10  1  0
 10 11  1  0
 11 12  1  0
 12 13  2  0
 13 14  1  0
 14 15  2  0
 15 16  1  0
 16 17  1  0
 16 18  2  0
 18 19  1  0
 19 20  2  0
 19 21  1  0
 21 22  1  0
  9 23  1  0
 23 24  2  0
 24 25  1  0
 25 26  1  0
 25 27  1  0
 25 28  1  0
 24  6  1  0
 21 10  2  0
 18 12  1  0
  1 29  1  0
  1 30  1  0
  1 31  1  0
  2 32  1  0
  3 33  1  0
  3 34  1  0
  3 35  1  0
  4 36  1  0
  4 37  1  0
  5 38  1  0
  5 39  1  0
  7 40  1  0
  8 41  1  0
 13 42  1  0
 14 43  1  0
 15 44  1  0
 17 45  1  0
 22 46  1  0
 23 47  1  0
M  CHG  1   2   1
M  END
>  <meeko>  (9) 
{"is_sidechain": [false], "free_energy": -8.24, "intermolecular_energy": -11.031, "internal_energy": -0.249}

$$$$
