cand_045_out
     RDKit          3D

 35 37  0  0  0  0  0  0  0  0999 V2000
   49.3280  160.9220   31.6630 C   0  0  0  0  0  0  0  0  0  0  0  0
   49.9610  159.7680   30.9350 C   0  0  0  0  0  0  0  0  0  0  0  0
   49.2220  158.5930   30.7390 C   0  0  0  0  0  0  0  0  0  0  0  0
   49.7770  157.4990   30.0680 C   0  0  0  0  0  0  0  0  0  0  0  0
   51.0870  157.5480   29.5820 C   0  0  0  0  0  0  0  0  0  0  0  0
   51.6900  156.4160   28.8470 C   0  0  0  0  0  0  0  0  0  0  0  0
   52.2640  156.7990   27.6400 O   0  0  0  0  0  0  0  0  0  0  0  0
   52.8650  155.8470   26.8590 C   0  0  0  0  0  0  0  0  0  0  0  0
   53.4210  156.2760   25.6530 C   0  0  0  0  0  0  0  0  0  0  0  0
   54.0490  155.3570   24.8090 C   0  0  0  0  0  0  0  0  0  0  0  0
   54.1200  154.0100   25.1710 C   0  0  0  0  0  0  0  0  0  0  0  0
   53.5650  153.5850   26.3750 C   0  0  0  0  0  0  0  0  0  0  0  0
   53.6710  152.2530   26.6690 O   0  0  0  0  0  0  0  0  0  0  0  0
   52.9370  154.5050   27.2190 C   0  0  0  0  0  0  0  0  0  0  0  0
   52.3420  154.1010   28.4930 C   0  0  0  0  0  0  0  0  0  0  0  0
   52.3690  152.9350   28.8840 O   0  0  0  0  0  0  0  0  0  0  0  0
   51.6960  155.1530   29.3120 C   0  0  0  0  0  0  0  0  0  0  0  0
   51.1510  154.7620   30.5220 O   0  0  0  0  0  0  0  0  0  0  0  0
   51.8230  158.7290   29.7690 C   0  0  0  0  0  0  0  0  0  0  0  0
   51.2780  159.8400   30.4410 C   0  0  0  0  0  0  0  0  0  0  0  0
   52.1200  161.0790   30.6190 C   0  0  0  0  0  0  0  0  0  0  0  0
   52.6180  161.2260   31.8810 F   0  0  0  0  0  0  0  0  0  0  0  0
   49.4151  160.7632   32.7480 H   0  0  0  0  0  0  0  0  0  0  0  0
   49.8404  161.8553   31.3867 H   0  0  0  0  0  0  0  0  0  0  0  0
   48.2655  160.9914   31.3867 H   0  0  0  0  0  0  0  0  0  0  0  0
   48.1913  158.5308   31.1183 H   0  0  0  0  0  0  0  0  0  0  0  0
   49.1761  156.5894   29.9208 H   0  0  0  0  0  0  0  0  0  0  0  0
   53.3648  157.3368   25.3673 H   0  0  0  0  0  0  0  0  0  0  0  0
   54.4879  155.6945   23.8585 H   0  0  0  0  0  0  0  0  0  0  0  0
   54.6136  153.2861   24.5059 H   0  0  0  0  0  0  0  0  0  0  0  0
   52.9200  151.7770   26.9640 H   0  0  0  0  0  0  0  0  0  0  0  0
   50.2870  155.0370   30.7560 H   0  0  0  0  0  0  0  0  0  0  0  0
   52.8506  158.7878   29.3810 H   0  0  0  0  0  0  0  0  0  0  0  0
   52.9644  161.0292   29.9158 H   0  0  0  0  0  0  0  0  0  0  0  0
   51.4661  161.9427   30.4283 H   0  0  0  0  0  0  0  0  0  0  0  0
  1  2  1  0
  2  3  2  0
  3  4  1  0
  4  5  2  0
  5  6  1  0
  6  7  1  0
  7  8  1  0
  8  9  2  0
  9 10  1  0
 10 11  2  0
 11 12  1  0
 12 13  1  0
 12 14  2  0
 14 15  1  0
 15 16  2  0
 15 17  1  0
 17 18  1  0
  5 19  1  0
 19 20  2  0
 20 21  1  0
 21 22  1  0
 20  2  1  0
 17  6  2  0
 14  8  1  0
  1 23  1  0
  1 24  1  0
  1 25  1  0
  3 26  1  0
  4 27  1  0
  9 28  1  0
 10 29  1  0
 11 30  1  0
 13 31  1  0
 18 32  1  0
 19 33  1  0
 21 34  1  0
 21 35  1  0
M  END
>  <meeko>  (1) 
{"is_sidechain": [false], "free_energy": -10.392, "intermolecular_energy": -12.214, "internal_energy": -0.222}

$$$$
cand_045_out
     RDKit          3D

 35 37  0  0  0  0  0  0  0  0999 V2000
   50.0550  161.2220   31.7430 C   0  0  0  0  0  0  0  0  0  0  0  0
   50.5090  160.0110   30.9750 C   0  0  0  0  0  0  0  0  0  0  0  0
   51.7940  159.9980   30.4140 C   0  0  0  0  0  0  0  0  0  0  0  0
   52.2510  158.8900   29.6930 C   0  0  0  0  0  0  0  0  0  0  0  0
   51.4340  157.7700   29.5090 C   0  0  0  0  0  0  0  0  0  0  0  0
   51.9020  156.5760   28.7730 C   0  0  0  0  0  0  0  0  0  0  0  0
   52.5010  156.8900   27.5590 O   0  0  0  0  0  0  0  0  0  0  0  0
   52.9870  155.8750   26.7760 C   0  0  0  0  0  0  0  0  0  0  0  0
   53.5730  156.2360   25.5620 C   0  0  0  0  0  0  0  0  0  0  0  0
   54.0890  155.2520   24.7170 C   0  0  0  0  0  0  0  0  0  0  0  0
   54.0170  153.9060   25.0840 C   0  0  0  0  0  0  0  0  0  0  0  0
   53.4320  153.5490   26.2970 C   0  0  0  0  0  0  0  0  0  0  0  0
   53.3960  152.2140   26.5960 O   0  0  0  0  0  0  0  0  0  0  0  0
   52.9170  154.5350   27.1430 C   0  0  0  0  0  0  0  0  0  0  0  0
   52.2950  154.2030   28.4240 C   0  0  0  0  0  0  0  0  0  0  0  0
   52.2000  153.0430   28.8210 O   0  0  0  0  0  0  0  0  0  0  0  0
   51.7760  155.3220   29.2450 C   0  0  0  0  0  0  0  0  0  0  0  0
   51.2040  154.9970   30.4620 O   0  0  0  0  0  0  0  0  0  0  0  0
   50.1520  157.7800   30.0810 C   0  0  0  0  0  0  0  0  0  0  0  0
   49.6770  158.8860   30.8110 C   0  0  0  0  0  0  0  0  0  0  0  0
   48.2870  158.8420   31.3950 C   0  0  0  0  0  0  0  0  0  0  0  0
   47.3120  159.2230   30.5190 F   0  0  0  0  0  0  0  0  0  0  0  0
   50.1302  161.0214   32.8219 H   0  0  0  0  0  0  0  0  0  0  0  0
   50.6924  162.0804   31.4844 H   0  0  0  0  0  0  0  0  0  0  0  0
   49.0104  161.4498   31.4844 H   0  0  0  0  0  0  0  0  0  0  0  0
   52.4513  160.8706   30.5426 H   0  0  0  0  0  0  0  0  0  0  0  0
   53.2646  158.8997   29.2658 H   0  0  0  0  0  0  0  0  0  0  0  0
   53.6283  157.2954   25.2711 H   0  0  0  0  0  0  0  0  0  0  0  0
   54.5528  155.5368   23.7611 H   0  0  0  0  0  0  0  0  0  0  0  0
   54.4211  153.1302   24.4171 H   0  0  0  0  0  0  0  0  0  0  0  0
   53.6860  151.5850   25.9650 H   0  0  0  0  0  0  0  0  0  0  0  0
   51.6580  155.1910   31.2580 H   0  0  0  0  0  0  0  0  0  0  0  0
   49.5022  156.9014   29.9556 H   0  0  0  0  0  0  0  0  0  0  0  0
   48.0791  157.8118   31.7196 H   0  0  0  0  0  0  0  0  0  0  0  0
   48.2663  159.5573   32.2304 H   0  0  0  0  0  0  0  0  0  0  0  0
  1  2  1  0
  2  3  2  0
  3  4  1  0
  4  5  2  0
  5  6  1  0
  6  7  1  0
  7  8  1  0
  8  9  2  0
  9 10  1  0
 10 11  2  0
 11 12  1  0
 12 13  1  0
 12 14  2  0
 14 15  1  0
 15 16  2  0
 15 17  1  0
 17 18  1  0
  5 19  1  0
 19 20  2  0
 20 21  1  0
 21 22  1  0
 20  2  1  0
 17  6  2  0
 14  8  1  0
  1 23  1  0
  1 24  1  0
  1 25  1  0
  3 26  1  0
  4 27  1  0
  9 28  1  0
 10 29  1  0
 11 30  1  0
 13 31  1  0
 18 32  1  0
 19 33  1  0
 21 34  1  0
 21 35  1  0
M  END
>  <meeko>  (2) 
{"is_sidechain": [false], "free_energy": -10.305, "intermolecular_energy": -12.21, "internal_energy": -0.124}

$$$$
cand_045_out
     RDKit          3D

 35 37  0  0  0  0  0  0  0  0999 V2000
   53.0640  152.6660   26.5950 C   0  0  0  0  0  0  0  0  0  0  0  0
   52.6580  153.9330   27.2960 C   0  0  0  0  0  0  0  0  0  0  0  0
   51.9850  153.8520   28.5230 C   0  0  0  0  0  0  0  0  0  0  0  0
   51.5910  155.0080   29.2050 C   0  0  0  0  0  0  0  0  0  0  0  0
   51.8520  156.2750   28.6730 C   0  0  0  0  0  0  0  0  0  0  0  0
   51.4690  157.5130   29.3850 C   0  0  0  0  0  0  0  0  0  0  0  0
   50.1430  157.5080   29.8010 O   0  0  0  0  0  0  0  0  0  0  0  0
   49.6560  158.5950   30.4810 C   0  0  0  0  0  0  0  0  0  0  0  0
   48.3180  158.5500   30.8720 C   0  0  0  0  0  0  0  0  0  0  0  0
   47.7590  159.6240   31.5680 C   0  0  0  0  0  0  0  0  0  0  0  0
   48.5380  160.7430   31.8720 C   0  0  0  0  0  0  0  0  0  0  0  0
   49.8740  160.7840   31.4800 C   0  0  0  0  0  0  0  0  0  0  0  0
   50.5800  161.9090   31.8110 O   0  0  0  0  0  0  0  0  0  0  0  0
   50.4330  159.7090   30.7840 C   0  0  0  0  0  0  0  0  0  0  0  0
   51.8310  159.7120   30.3550 C   0  0  0  0  0  0  0  0  0  0  0  0
   52.5830  160.6560   30.5900 O   0  0  0  0  0  0  0  0  0  0  0  0
   52.3250  158.5250   29.6190 C   0  0  0  0  0  0  0  0  0  0  0  0
   53.6530  158.5320   29.2330 O   0  0  0  0  0  0  0  0  0  0  0  0
   52.5360  156.3550   27.4500 C   0  0  0  0  0  0  0  0  0  0  0  0
   52.9420  155.2020   26.7520 C   0  0  0  0  0  0  0  0  0  0  0  0
   53.6660  155.3520   25.4370 C   0  0  0  0  0  0  0  0  0  0  0  0
   53.4370  156.5460   24.8190 F   0  0  0  0  0  0  0  0  0  0  0  0
   53.3105  151.8967   27.3416 H   0  0  0  0  0  0  0  0  0  0  0  0
   52.2339  152.3132   25.9653 H   0  0  0  0  0  0  0  0  0  0  0  0
   53.9445  152.8613   25.9653 H   0  0  0  0  0  0  0  0  0  0  0  0
   51.7635  152.8652   28.9557 H   0  0  0  0  0  0  0  0  0  0  0  0
   51.0704  154.9197   30.1700 H   0  0  0  0  0  0  0  0  0  0  0  0
   47.7037  157.6695   30.6324 H   0  0  0  0  0  0  0  0  0  0  0  0
   46.7039  159.5887   31.8772 H   0  0  0  0  0  0  0  0  0  0  0  0
   48.0976  161.5894   32.4194 H   0  0  0  0  0  0  0  0  0  0  0  0
   50.4400  162.7060   31.3380 H   0  0  0  0  0  0  0  0  0  0  0  0
   54.2030  159.2560   29.4600 H   0  0  0  0  0  0  0  0  0  0  0  0
   52.7607  157.3447   27.0258 H   0  0  0  0  0  0  0  0  0  0  0  0
   54.7462  155.2583   25.6225 H   0  0  0  0  0  0  0  0  0  0  0  0
   53.2856  154.5655   24.7686 H   0  0  0  0  0  0  0  0  0  0  0  0
  1  2  1  0
  2  3  2  0
  3  4  1  0
  4  5  2  0
  5  6  1  0
  6  7  1  0
  7  8  1  0
  8  9  2  0
  9 10  1  0
 10 11  2  0
 11 12  1  0
 12 13  1  0
 12 14  2  0
 14 15  1  0
 15 16  2  0
 15 17  1  0
 17 18  1  0
  5 19  1  0
 19 20  2  0
 20 21  1  0
 21 22  1  0
 20  2  1  0
 17  6  2  0
 14  8  1  0
  1 23  1  0
  1 24  1  0
  1 25  1  0
  3 26  1  0
  4 27  1  0
  9 28  1  0
 10 29  1  0
 11 30  1  0
 13 31  1  0
 18 32  1  0
 19 33  1  0
 21 34  1  0
 21 35  1  0
M  END
>  <meeko>  (3) 
{"is_sidechain": [false], "free_energy": -9.842, "intermolecular_energy": -11.665, "internal_energy": -0.124}

$$$$
cand_045_out
     RDKit          3D

 35 37  0  0  0  0  0  0  0  0999 V2000
   50.7470  160.4040   31.0490 C   0  0  0  0  0  0  0  0  0  0  0  0
   51.0620  159.1320   30.3110 C   0  0  0  0  0  0  0  0  0  0  0  0
   52.3230  158.9780   29.7190 C   0  0  0  0  0  0  0  0  0  0  0  0
   52.6530  157.8100   29.0240 C   0  0  0  0  0  0  0  0  0  0  0  0
   51.7270  156.7690   28.8970 C   0  0  0  0  0  0  0  0  0  0  0  0
   52.0580  155.5130   28.1890 C   0  0  0  0  0  0  0  0  0  0  0  0
   52.6130  155.7310   26.9340 O   0  0  0  0  0  0  0  0  0  0  0  0
   52.9740  154.6510   26.1710 C   0  0  0  0  0  0  0  0  0  0  0  0
   53.5200  154.9160   24.9140 C   0  0  0  0  0  0  0  0  0  0  0  0
   53.9090  153.8620   24.0860 C   0  0  0  0  0  0  0  0  0  0  0  0
   53.7510  152.5420   24.5140 C   0  0  0  0  0  0  0  0  0  0  0  0
   53.2070  152.2800   25.7690 C   0  0  0  0  0  0  0  0  0  0  0  0
   53.0820  150.9650   26.1260 O   0  0  0  0  0  0  0  0  0  0  0  0
   52.8180  153.3360   26.5970 C   0  0  0  0  0  0  0  0  0  0  0  0
   52.2430  153.1050   27.9220 C   0  0  0  0  0  0  0  0  0  0  0  0
   52.0790  151.9720   28.3730 O   0  0  0  0  0  0  0  0  0  0  0  0
   51.8600  154.2930   28.7200 C   0  0  0  0  0  0  0  0  0  0  0  0
   51.3320  154.0620   29.9780 O   0  0  0  0  0  0  0  0  0  0  0  0
   50.4690  156.9200   29.4990 C   0  0  0  0  0  0  0  0  0  0  0  0
   50.1220  158.0880   30.2050 C   0  0  0  0  0  0  0  0  0  0  0  0
   48.7500  158.1960   30.8240 C   0  0  0  0  0  0  0  0  0  0  0  0
   47.8580  158.8910   30.0610 F   0  0  0  0  0  0  0  0  0  0  0  0
   50.7925  160.2201   32.1326 H   0  0  0  0  0  0  0  0  0  0  0  0
   51.4808  161.1770   30.7771 H   0  0  0  0  0  0  0  0  0  0  0  0
   49.7372  160.7452   30.7771 H   0  0  0  0  0  0  0  0  0  0  0  0
   53.0636  159.7871   29.8021 H   0  0  0  0  0  0  0  0  0  0  0  0
   53.6510  157.7088   28.5726 H   0  0  0  0  0  0  0  0  0  0  0  0
   53.6437  155.9555   24.5761 H   0  0  0  0  0  0  0  0  0  0  0  0
   54.3402  154.0710   23.0959 H   0  0  0  0  0  0  0  0  0  0  0  0
   54.0557  151.7108   23.8611 H   0  0  0  0  0  0  0  0  0  0  0  0
   52.8530  150.7380   27.0060 H   0  0  0  0  0  0  0  0  0  0  0  0
   51.5500  154.6320   30.6880 H   0  0  0  0  0  0  0  0  0  0  0  0
   49.7347  156.1051   29.4175 H   0  0  0  0  0  0  0  0  0  0  0  0
   48.3576  157.1800   30.9784 H   0  0  0  0  0  0  0  0  0  0  0  0
   48.8655  158.7489   31.7679 H   0  0  0  0  0  0  0  0  0  0  0  0
  1  2  1  0
  2  3  2  0
  3  4  1  0
  4  5  2  0
  5  6  1  0
  6  7  1  0
  7  8  1  0
  8  9  2  0
  9 10  1  0
 10 11  2  0
 11 12  1  0
 12 13  1  0
 12 14  2  0
 14 15  1  0
 15 16  2  0
 15 17  1  0
 17 18  1  0
  5 19  1  0
 19 20  2  0
 20 21  1  0
 21 22  1  0
 20  2  1  0
 17  6  2  0
 14  8  1  0
  1 23  1  0
  1 24  1  0
  1 25  1  0
  3 26  1  0
  4 27  1  0
  9 28  1  0
 10 29  1  0
 11 30  1  0
 13 31  1  0
 18 32  1  0
 19 33  1  0
 21 34  1  0
 21 35  1  0
M  END
>  <meeko>  (4) 
{"is_sidechain": [false], "free_energy": -9.742, "intermolecular_energy": -11.518, "internal_energy": -0.154}

$$$$
cand_045_out
     RDKit          3D

 35 37  0  0  0  0  0  0  0  0999 V2000
   53.5480  152.8880   26.5940 C   0  0  0  0  0  0  0  0  0  0  0  0
   52.9110  154.0380   27.3240 C   0  0  0  0  0  0  0  0  0  0  0  0
   52.2130  153.7920   28.5150 C   0  0  0  0  0  0  0  0  0  0  0  0
   51.6070  154.8350   29.2210 C   0  0  0  0  0  0  0  0  0  0  0  0
   51.6750  156.1510   28.7510 C   0  0  0  0  0  0  0  0  0  0  0  0
   51.0650  157.2760   29.4910 C   0  0  0  0  0  0  0  0  0  0  0  0
   51.9610  158.3100   29.7370 O   0  0  0  0  0  0  0  0  0  0  0  0
   51.5240  159.4210   30.4110 C   0  0  0  0  0  0  0  0  0  0  0  0
   52.4590  160.4300   30.6440 C   0  0  0  0  0  0  0  0  0  0  0  0
   52.0800  161.5890   31.3240 C   0  0  0  0  0  0  0  0  0  0  0  0
   50.7660  161.7380   31.7730 C   0  0  0  0  0  0  0  0  0  0  0  0
   49.8340  160.7290   31.5390 C   0  0  0  0  0  0  0  0  0  0  0  0
   48.5650  160.9410   32.0040 O   0  0  0  0  0  0  0  0  0  0  0  0
   50.2150  159.5710   30.8580 C   0  0  0  0  0  0  0  0  0  0  0  0
   49.2670  158.4880   30.5900 C   0  0  0  0  0  0  0  0  0  0  0  0
   48.0920  158.5480   30.9470 O   0  0  0  0  0  0  0  0  0  0  0  0
   49.7720  157.2990   29.8640 C   0  0  0  0  0  0  0  0  0  0  0  0
   48.8630  156.2900   29.6030 O   0  0  0  0  0  0  0  0  0  0  0  0
   52.3830  156.3980   27.5640 C   0  0  0  0  0  0  0  0  0  0  0  0
   53.0020  155.3590   26.8420 C   0  0  0  0  0  0  0  0  0  0  0  0
   53.7420  155.6850   25.5690 C   0  0  0  0  0  0  0  0  0  0  0  0
   53.1430  156.6560   24.8200 F   0  0  0  0  0  0  0  0  0  0  0  0
   53.9473  152.1672   27.3227 H   0  0  0  0  0  0  0  0  0  0  0  0
   52.7957  152.3926   25.9627 H   0  0  0  0  0  0  0  0  0  0  0  0
   54.3670  153.2630   25.9627 H   0  0  0  0  0  0  0  0  0  0  0  0
   52.1414  152.7637   28.8991 H   0  0  0  0  0  0  0  0  0  0  0  0
   51.0706  154.6187   30.1567 H   0  0  0  0  0  0  0  0  0  0  0  0
   53.4945  160.3124   30.2920 H   0  0  0  0  0  0  0  0  0  0  0  0
   52.8168  162.3852   31.5062 H   0  0  0  0  0  0  0  0  0  0  0  0
   50.4674  162.6502   32.3104 H   0  0  0  0  0  0  0  0  0  0  0  0
   48.4160  161.0530   32.9220 H   0  0  0  0  0  0  0  0  0  0  0  0
   48.7710  155.5760   30.2030 H   0  0  0  0  0  0  0  0  0  0  0  0
   52.4562  157.4292   27.1883 H   0  0  0  0  0  0  0  0  0  0  0  0
   54.7543  156.0249   25.8330 H   0  0  0  0  0  0  0  0  0  0  0  0
   53.7526  154.7693   24.9596 H   0  0  0  0  0  0  0  0  0  0  0  0
  1  2  1  0
  2  3  2  0
  3  4  1  0
  4  5  2  0
  5  6  1  0
  6  7  1  0
  7  8  1  0
  8  9  2  0
  9 10  1  0
 10 11  2  0
 11 12  1  0
 12 13  1  0
 12 14  2  0
 14 15  1  0
 15 16  2  0
 15 17  1  0
 17 18  1  0
  5 19  1  0
 19 20  2  0
 20 21  1  0
 21 22  1  0
 20  2  1  0
 17  6  2  0
 14  8  1  0
  1 23  1  0
  1 24  1  0
  1 25  1  0
  3 26  1  0
  4 27  1  0
  9 28  1  0
 10 29  1  0
 11 30  1  0
 13 31  1  0
 18 32  1  0
 19 33  1  0
 21 34  1  0
 21 35  1  0
M  END
>  <meeko>  (5) 
{"is_sidechain": [false], "free_energy": -8.929, "intermolecular_energy": -10.49, "internal_energy": -0.227}

$$$$
cand_045_out
     RDKit          3D

 35 37  0  0  0  0  0  0  0  0999 V2000
   53.2550  153.8970   26.3350 C   0  0  0  0  0  0  0  0  0  0  0  0
   52.7750  155.0110   27.2260 C   0  0  0  0  0  0  0  0  0  0  0  0
   52.9780  156.3400   26.8300 C   0  0  0  0  0  0  0  0  0  0  0  0
   52.5470  157.4020   27.6310 C   0  0  0  0  0  0  0  0  0  0  0  0
   51.9090  157.1630   28.8520 C   0  0  0  0  0  0  0  0  0  0  0  0
   51.4200  158.2670   29.7060 C   0  0  0  0  0  0  0  0  0  0  0  0
   50.0860  158.1210   30.0670 O   0  0  0  0  0  0  0  0  0  0  0  0
   49.5060  159.0730   30.8650 C   0  0  0  0  0  0  0  0  0  0  0  0
   48.1620  158.8900   31.1950 C   0  0  0  0  0  0  0  0  0  0  0  0
   47.5100  159.8220   32.0050 C   0  0  0  0  0  0  0  0  0  0  0  0
   48.2010  160.9370   32.4840 C   0  0  0  0  0  0  0  0  0  0  0  0
   49.5420  161.1170   32.1530 C   0  0  0  0  0  0  0  0  0  0  0  0
   50.1590  162.2300   32.6560 O   0  0  0  0  0  0  0  0  0  0  0  0
   50.1940  160.1830   31.3430 C   0  0  0  0  0  0  0  0  0  0  0  0
   51.6010  160.3340   30.9720 C   0  0  0  0  0  0  0  0  0  0  0  0
   52.2780  161.2850   31.3590 O   0  0  0  0  0  0  0  0  0  0  0  0
   52.1970  159.2910   30.1050 C   0  0  0  0  0  0  0  0  0  0  0  0
   53.5320  159.4350   29.7740 O   0  0  0  0  0  0  0  0  0  0  0  0
   51.6960  155.8320   29.2420 C   0  0  0  0  0  0  0  0  0  0  0  0
   52.1210  154.7510   28.4460 C   0  0  0  0  0  0  0  0  0  0  0  0
   51.8720  153.3410   28.9220 C   0  0  0  0  0  0  0  0  0  0  0  0
   51.4370  152.5000   27.9400 F   0  0  0  0  0  0  0  0  0  0  0  0
   53.6149  153.0618   26.9538 H   0  0  0  0  0  0  0  0  0  0  0  0
   52.4256  153.5521   25.7000 H   0  0  0  0  0  0  0  0  0  0  0  0
   54.0753  154.2629   25.7000 H   0  0  0  0  0  0  0  0  0  0  0  0
   53.4834  156.5505   25.8759 H   0  0  0  0  0  0  0  0  0  0  0  0
   52.7117  158.4370   27.2968 H   0  0  0  0  0  0  0  0  0  0  0  0
   47.6170  158.0123   30.8173 H   0  0  0  0  0  0  0  0  0  0  0  0
   46.4512  159.6778   32.2660 H   0  0  0  0  0  0  0  0  0  0  0  0
   47.6873  161.6717   33.1215 H   0  0  0  0  0  0  0  0  0  0  0  0
   50.6390  162.1760   33.4590 H   0  0  0  0  0  0  0  0  0  0  0  0
   53.8850  160.2880   29.6150 H   0  0  0  0  0  0  0  0  0  0  0  0
   51.1839  155.6279   30.1939 H   0  0  0  0  0  0  0  0  0  0  0  0
   52.8118  152.9412   29.3306 H   0  0  0  0  0  0  0  0  0  0  0  0
   51.0745  153.3928   29.6778 H   0  0  0  0  0  0  0  0  0  0  0  0
  1  2  1  0
  2  3  2  0
  3  4  1  0
  4  5  2  0
  5  6  1  0
  6  7  1  0
  7  8  1  0
  8  9  2  0
  9 10  1  0
 10 11  2  0
 11 12  1  0
 12 13  1  0
 12 14  2  0
 14 15  1  0
 15 16  2  0
 15 17  1  0
 17 18  1  0
  5 19  1  0
 19 20  2  0
 20 21  1  0
 21 22  1  0
 20  2  1  0
 17  6  2  0
 14  8  1  0
  1 23  1  0
  1 24  1  0
  1 25  1  0
  3 26  1  0
  4 27  1  0
  9 28  1  0
 10 29  1  0
 11 30  1  0
 13 31  1  0
 18 32  1  0
 19 33  1  0
 21 34  1  0
 21 35  1  0
M  END
>  <meeko>  (6) 
{"is_sidechain": [false], "free_energy": -8.711, "intermolecular_energy": -10.551, "internal_energy": 0.09}

$$$$
cand_045_out
     RDKit          3D

 35 37  0  0  0  0  0  0  0  0999 V2000
   49.2150  158.3470   31.1770 C   0  0  0  0  0  0  0  0  0  0  0  0
   50.0220  157.5330   30.2030 C   0  0  0  0  0  0  0  0  0  0  0  0
   49.5490  156.2740   29.8050 C   0  0  0  0  0  0  0  0  0  0  0  0
   50.2710  155.4880   28.9020 C   0  0  0  0  0  0  0  0  0  0  0  0
   51.4890  155.9360   28.3790 C   0  0  0  0  0  0  0  0  0  0  0  0
   52.2610  155.1360   27.4040 C   0  0  0  0  0  0  0  0  0  0  0  0
   51.9640  153.7790   27.4630 O   0  0  0  0  0  0  0  0  0  0  0  0
   52.6040  152.9210   26.6070 C   0  0  0  0  0  0  0  0  0  0  0  0
   52.2820  151.5670   26.7070 C   0  0  0  0  0  0  0  0  0  0  0  0
   52.8970  150.6400   25.8650 C   0  0  0  0  0  0  0  0  0  0  0  0
   53.8360  151.0650   24.9230 C   0  0  0  0  0  0  0  0  0  0  0  0
   54.1560  152.4180   24.8240 C   0  0  0  0  0  0  0  0  0  0  0  0
   55.0820  152.7660   23.8790 O   0  0  0  0  0  0  0  0  0  0  0  0
   53.5390  153.3450   25.6670 C   0  0  0  0  0  0  0  0  0  0  0  0
   53.8450  154.7740   25.5970 C   0  0  0  0  0  0  0  0  0  0  0  0
   54.6550  155.2270   24.7900 O   0  0  0  0  0  0  0  0  0  0  0  0
   53.1400  155.6740   26.5380 C   0  0  0  0  0  0  0  0  0  0  0  0
   53.4260  157.0250   26.4510 O   0  0  0  0  0  0  0  0  0  0  0  0
   51.9570  157.2000   28.7700 C   0  0  0  0  0  0  0  0  0  0  0  0
   51.2410  158.0060   29.6760 C   0  0  0  0  0  0  0  0  0  0  0  0
   51.7980  159.3520   30.0660 C   0  0  0  0  0  0  0  0  0  0  0  0
   51.0140  160.4010   29.6830 F   0  0  0  0  0  0  0  0  0  0  0  0
   49.4911  158.0685   32.2047 H   0  0  0  0  0  0  0  0  0  0  0  0
   49.4197  159.4162   31.0193 H   0  0  0  0  0  0  0  0  0  0  0  0
   48.1441  158.1515   31.0193 H   0  0  0  0  0  0  0  0  0  0  0  0
   48.5967  155.8998   30.2090 H   0  0  0  0  0  0  0  0  0  0  0  0
   49.8772  154.5065   28.5993 H   0  0  0  0  0  0  0  0  0  0  0  0
   51.5434  151.2306   27.4495 H   0  0  0  0  0  0  0  0  0  0  0  0
   52.6418  149.5729   25.9433 H   0  0  0  0  0  0  0  0  0  0  0  0
   54.3221  150.3337   24.2605 H   0  0  0  0  0  0  0  0  0  0  0  0
   54.9490  152.5280   22.9830 H   0  0  0  0  0  0  0  0  0  0  0  0
   52.8610  157.5920   25.9650 H   0  0  0  0  0  0  0  0  0  0  0  0
   52.9073  157.5706   28.3583 H   0  0  0  0  0  0  0  0  0  0  0  0
   51.9052  159.3798   31.1604 H   0  0  0  0  0  0  0  0  0  0  0  0
   52.7616  159.4641   29.5474 H   0  0  0  0  0  0  0  0  0  0  0  0
  1  2  1  0
  2  3  2  0
  3  4  1  0
  4  5  2  0
  5  6  1  0
  6  7  1  0
  7  8  1  0
  8  9  2  0
  9 10  1  0
 10 11  2  0
 11 12  1  0
 12 13  1  0
 12 14  2  0
 14 15  1  0
 15 16  2  0
 15 17  1  0
 17 18  1  0
  5 19  1  0
 19 20  2  0
 20 21  1  0
 21 22  1  0
 20  2  1  0
 17  6  2  0
 14  8  1  0
  1 23  1  0
  1 24  1  0
  1 25  1  0
  3 26  1  0
  4 27  1  0
  9 28  1  0
 10 29  1  0
 11 30  1  0
 13 31  1  0
 18 32  1  0
 19 33  1  0
 21 34  1  0
 21 35  1  0
M  END
>  <meeko>  (7) 
{"is_sidechain": [false], "free_energy": -8.409, "intermolecular_energy": -10.343, "internal_energy": 0.238}

$$$$
cand_045_out
     RDKit          3D

 35 37  0  0  0  0  0  0  0  0999 V2000
   53.6920  153.7040   25.9600 C   0  0  0  0  0  0  0  0  0  0  0  0
   53.0380  154.6990   26.8800 C   0  0  0  0  0  0  0  0  0  0  0  0
   53.2380  156.0690   26.6620 C   0  0  0  0  0  0  0  0  0  0  0  0
   52.6470  157.0230   27.4950 C   0  0  0  0  0  0  0  0  0  0  0  0
   51.8460  156.6320   28.5740 C   0  0  0  0  0  0  0  0  0  0  0  0
   51.1890  157.6210   29.4560 C   0  0  0  0  0  0  0  0  0  0  0  0
   51.9900  158.7260   29.7190 O   0  0  0  0  0  0  0  0  0  0  0  0
   51.5000  159.7250   30.5200 C   0  0  0  0  0  0  0  0  0  0  0  0
   52.3410  160.8110   30.7650 C   0  0  0  0  0  0  0  0  0  0  0  0
   51.9040  161.8630   31.5720 C   0  0  0  0  0  0  0  0  0  0  0  0
   50.6270  161.8290   32.1360 C   0  0  0  0  0  0  0  0  0  0  0  0
   49.7890  160.7430   31.8900 C   0  0  0  0  0  0  0  0  0  0  0  0
   48.5510  160.7740   32.4710 O   0  0  0  0  0  0  0  0  0  0  0  0
   50.2270  159.6910   31.0810 C   0  0  0  0  0  0  0  0  0  0  0  0
   49.3790  158.5330   30.7970 C   0  0  0  0  0  0  0  0  0  0  0  0
   48.2400  158.4330   31.2510 O   0  0  0  0  0  0  0  0  0  0  0  0
   49.9390  157.4690   29.9320 C   0  0  0  0  0  0  0  0  0  0  0  0
   49.1230  156.3870   29.6570 O   0  0  0  0  0  0  0  0  0  0  0  0
   51.6380  155.2600   28.7850 C   0  0  0  0  0  0  0  0  0  0  0  0
   52.2230  154.2870   27.9540 C   0  0  0  0  0  0  0  0  0  0  0  0
   51.9690  152.8270   28.2350 C   0  0  0  0  0  0  0  0  0  0  0  0
   51.5680  152.1190   27.1400 F   0  0  0  0  0  0  0  0  0  0  0  0
   54.1996  152.9317   26.5565 H   0  0  0  0  0  0  0  0  0  0  0  0
   52.9267  153.2332   25.3255 H   0  0  0  0  0  0  0  0  0  0  0  0
   54.4278  154.2198   25.3255 H   0  0  0  0  0  0  0  0  0  0  0  0
   53.8691  156.3981   25.8233 H   0  0  0  0  0  0  0  0  0  0  0  0
   52.8132  158.0928   27.3004 H   0  0  0  0  0  0  0  0  0  0  0  0
   53.3477  160.8383   30.3226 H   0  0  0  0  0  0  0  0  0  0  0  0
   52.5665  162.7199   31.7639 H   0  0  0  0  0  0  0  0  0  0  0  0
   50.2833  162.6574   32.7729 H   0  0  0  0  0  0  0  0  0  0  0  0
   48.3890  161.3430   33.1980 H   0  0  0  0  0  0  0  0  0  0  0  0
   49.2420  155.9000   28.8660 H   0  0  0  0  0  0  0  0  0  0  0  0
   51.0011  154.9371   29.6217 H   0  0  0  0  0  0  0  0  0  0  0  0
   52.8990  152.3799   28.6161 H   0  0  0  0  0  0  0  0  0  0  0  0
   51.1491  152.7786   28.9668 H   0  0  0  0  0  0  0  0  0  0  0  0
  1  2  1  0
  2  3  2  0
  3  4  1  0
  4  5  2  0
  5  6  1  0
  6  7  1  0
  7  8  1  0
  8  9  2  0
  9 10  1  0
 10 11  2  0
 11 12  1  0
 12 13  1  0
 12 14  2  0
 14 15  1  0
 15 16  2  0
 15 17  1  0
 17 18  1  0
  5 19  1  0
 19 20  2  0
 20 21  1  0
 21 22  1  0
 20  2  1  0
 17  6  2  0
 14  8  1  0
  1 23  1  0
  1 24  1  0
  1 25  1  0
  3 26  1  0
  4 27  1  0
  9 28  1  0
 10 29  1  0
 11 30  1  0
 13 31  1  0
 18 32  1  0
 19 33  1  0
 21 34  1  0
 21 35  1  0
M  END
>  <meeko>  (8) 
{"is_sidechain": [false], "free_energy": -8.03, "intermolecular_energy": -9.879, "internal_energy": 0.219}

$$$$
