cand_048_out
     RDKit          3D

 37 39  0  0  0  0  0  0  0  0999 V2000
   50.0630  161.3200   33.0080 C   0  0  0  0  0  0  0  0  0  0  0  0
   50.0720  161.2340   31.6720 C   0  0  0  0  0  0  0  0  0  0  0  0
   50.4850  160.0300   30.9290 C   0  0  0  0  0  0  0  0  0  0  0  0
   51.7680  159.9830   30.3580 C   0  0  0  0  0  0  0  0  0  0  0  0
   52.2120  158.8450   29.6800 C   0  0  0  0  0  0  0  0  0  0  0  0
   51.3940  157.7170   29.5640 C   0  0  0  0  0  0  0  0  0  0  0  0
   51.8700  156.5360   28.8160 C   0  0  0  0  0  0  0  0  0  0  0  0
   52.4580  156.8650   27.6000 O   0  0  0  0  0  0  0  0  0  0  0  0
   52.9430  155.8600   26.8030 C   0  0  0  0  0  0  0  0  0  0  0  0
   53.5100  156.2350   25.5850 C   0  0  0  0  0  0  0  0  0  0  0  0
   54.0250  155.2610   24.7270 C   0  0  0  0  0  0  0  0  0  0  0  0
   53.9730  153.9130   25.0870 C   0  0  0  0  0  0  0  0  0  0  0  0
   53.4060  153.5410   26.3040 C   0  0  0  0  0  0  0  0  0  0  0  0
   53.3890  152.2050   26.5940 O   0  0  0  0  0  0  0  0  0  0  0  0
   52.8910  154.5170   27.1620 C   0  0  0  0  0  0  0  0  0  0  0  0
   52.2870  154.1680   28.4490 C   0  0  0  0  0  0  0  0  0  0  0  0
   52.2110  153.0060   28.8390 O   0  0  0  0  0  0  0  0  0  0  0  0
   51.7630  155.2770   29.2810 C   0  0  0  0  0  0  0  0  0  0  0  0
   51.2070  154.9400   30.5010 O   0  0  0  0  0  0  0  0  0  0  0  0
   50.1120  157.7620   30.1330 C   0  0  0  0  0  0  0  0  0  0  0  0
   49.6520  158.8950   30.8320 C   0  0  0  0  0  0  0  0  0  0  0  0
   48.2850  158.8920   31.3830 C   0  0  0  0  0  0  0  0  0  0  0  0
   47.2890  159.6480   30.9020 C   0  0  0  0  0  0  0  0  0  0  0  0
   49.7421  162.2516   33.4970 H   0  0  0  0  0  0  0  0  0  0  0  0
   50.3765  160.4591   33.6167 H   0  0  0  0  0  0  0  0  0  0  0  0
   49.7522  162.1140   31.0947 H   0  0  0  0  0  0  0  0  0  0  0  0
   52.4326  160.8551   30.4461 H   0  0  0  0  0  0  0  0  0  0  0  0
   53.2167  158.8363   29.2323 H   0  0  0  0  0  0  0  0  0  0  0  0
   53.5514  157.2968   25.3006 H   0  0  0  0  0  0  0  0  0  0  0  0
   54.4722  155.5562   23.7663 H   0  0  0  0  0  0  0  0  0  0  0  0
   54.3790  153.1461   24.4110 H   0  0  0  0  0  0  0  0  0  0  0  0
   54.0010  151.6280   26.1820 H   0  0  0  0  0  0  0  0  0  0  0  0
   51.2270  154.0510   30.7950 H   0  0  0  0  0  0  0  0  0  0  0  0
   49.4493  156.8900   30.0305 H   0  0  0  0  0  0  0  0  0  0  0  0
   48.0706  158.2323   32.2367 H   0  0  0  0  0  0  0  0  0  0  0  0
   46.2902  159.5982   31.3601 H   0  0  0  0  0  0  0  0  0  0  0  0
   47.4701  160.3185   30.0490 H   0  0  0  0  0  0  0  0  0  0  0  0
  1  2  2  0
  2  3  1  0
  3  4  2  0
  4  5  1  0
  5  6  2  0
  6  7  1  0
  7  8  1  0
  8  9  1  0
  9 10  2  0
 10 11  1  0
 11 12  2  0
 12 13  1  0
 13 14  1  0
 13 15  2  0
 15 16  1  0
 16 17  2  0
 16 18  1  0
 18 19  1  0
  6 20  1  0
 20 21  2  0
 21 22  1  0
 22 23  2  0
 21  3  1  0
 18  7  2  0
 15  9  1  0
  1 24  1  0
  1 25  1  0
  2 26  1  0
  4 27  1  0
  5 28  1  0
 10 29  1  0
 11 30  1  0
 12 31  1  0
 14 32  1  0
 19 33  1  0
 20 34  1  0
 22 35  1  0
 23 36  1  0
 23 37  1  0
M  END
>  <meeko>  (1) 
{"is_sidechain": [false], "free_energy": -10.827, "intermolecular_energy": -13.358, "internal_energy": -0.064}

$$$$
cand_048_out
     RDKit          3D

 37 39  0  0  0  0  0  0  0  0999 V2000
   49.0840  160.8400   33.0390 C   0  0  0  0  0  0  0  0  0  0  0  0
   49.1940  160.7770   31.7070 C   0  0  0  0  0  0  0  0  0  0  0  0
   49.8710  159.6820   30.9890 C   0  0  0  0  0  0  0  0  0  0  0  0
   49.2110  158.4520   30.8330 C   0  0  0  0  0  0  0  0  0  0  0  0
   49.8020  157.4030   30.1240 C   0  0  0  0  0  0  0  0  0  0  0  0
   51.0640  157.5560   29.5420 C   0  0  0  0  0  0  0  0  0  0  0  0
   51.6860  156.4240   28.8250 C   0  0  0  0  0  0  0  0  0  0  0  0
   52.2650  156.8000   27.6180 O   0  0  0  0  0  0  0  0  0  0  0  0
   52.8770  155.8430   26.8490 C   0  0  0  0  0  0  0  0  0  0  0  0
   53.4300  156.2610   25.6380 C   0  0  0  0  0  0  0  0  0  0  0  0
   54.0690  155.3390   24.8080 C   0  0  0  0  0  0  0  0  0  0  0  0
   54.1570  153.9990   25.1900 C   0  0  0  0  0  0  0  0  0  0  0  0
   53.6040  153.5830   26.3980 C   0  0  0  0  0  0  0  0  0  0  0  0
   53.7260  152.2570   26.7100 O   0  0  0  0  0  0  0  0  0  0  0  0
   52.9630  154.5070   27.2280 C   0  0  0  0  0  0  0  0  0  0  0  0
   52.3700  154.1120   28.5060 C   0  0  0  0  0  0  0  0  0  0  0  0
   52.4120  152.9540   28.9140 O   0  0  0  0  0  0  0  0  0  0  0  0
   51.7060  155.1670   29.3080 C   0  0  0  0  0  0  0  0  0  0  0  0
   51.1600  154.7880   30.5200 O   0  0  0  0  0  0  0  0  0  0  0  0
   51.7260  158.7830   29.6960 C   0  0  0  0  0  0  0  0  0  0  0  0
   51.1400  159.8570   30.3950 C   0  0  0  0  0  0  0  0  0  0  0  0
   51.8970  161.1120   30.5480 C   0  0  0  0  0  0  0  0  0  0  0  0
   52.7450  161.3500   31.5580 C   0  0  0  0  0  0  0  0  0  0  0  0
   48.5643  161.6883   33.5084 H   0  0  0  0  0  0  0  0  0  0  0  0
   49.5132  160.0435   33.6646 H   0  0  0  0  0  0  0  0  0  0  0  0
   48.7530  161.5907   31.1124 H   0  0  0  0  0  0  0  0  0  0  0  0
   48.2137  158.3124   31.2757 H   0  0  0  0  0  0  0  0  0  0  0  0
   49.2685  156.4464   30.0226 H   0  0  0  0  0  0  0  0  0  0  0  0
   53.3623  157.3170   25.3377 H   0  0  0  0  0  0  0  0  0  0  0  0
   54.5035  155.6681   23.8525 H   0  0  0  0  0  0  0  0  0  0  0  0
   54.6629  153.2725   24.5370 H   0  0  0  0  0  0  0  0  0  0  0  0
   54.3020  151.7100   26.2140 H   0  0  0  0  0  0  0  0  0  0  0  0
   51.4770  155.1670   31.3150 H   0  0  0  0  0  0  0  0  0  0  0  0
   52.7279  158.9100   29.2601 H   0  0  0  0  0  0  0  0  0  0  0  0
   51.7582  161.8976   29.7906 H   0  0  0  0  0  0  0  0  0  0  0  0
   53.2794  162.3099   31.6129 H   0  0  0  0  0  0  0  0  0  0  0  0
   52.9067  160.5855   32.3322 H   0  0  0  0  0  0  0  0  0  0  0  0
  1  2  2  0
  2  3  1  0
  3  4  2  0
  4  5  1  0
  5  6  2  0
  6  7  1  0
  7  8  1  0
  8  9  1  0
  9 10  2  0
 10 11  1  0
 11 12  2  0
 12 13  1  0
 13 14  1  0
 13 15  2  0
 15 16  1  0
 16 17  2  0
 16 18  1  0
 18 19  1  0
  6 20  1  0
 20 21  2  0
 21 22  1  0
 22 23  2  0
 21  3  1  0
 18  7  2  0
 15  9  1  0
  1 24  1  0
  1 25  1  0
  2 26  1  0
  4 27  1  0
  5 28  1  0
 10 29  1  0
 11 30  1  0
 12 31  1  0
 14 32  1  0
 19 33  1  0
 20 34  1  0
 22 35  1  0
 23 36  1  0
 23 37  1  0
M  END
>  <meeko>  (2) 
{"is_sidechain": [false], "free_energy": -10.604, "intermolecular_energy": -12.829, "internal_energy": -0.318}

$$$$
cand_048_out
     RDKit          3D

 37 39  0  0  0  0  0  0  0  0999 V2000
   52.2300  151.5250   26.6340 C   0  0  0  0  0  0  0  0  0  0  0  0
   52.9590  152.6450   26.5740 C   0  0  0  0  0  0  0  0  0  0  0  0
   52.5850  153.9060   27.2390 C   0  0  0  0  0  0  0  0  0  0  0  0
   51.8800  153.8580   28.4530 C   0  0  0  0  0  0  0  0  0  0  0  0
   51.5410  155.0300   29.1350 C   0  0  0  0  0  0  0  0  0  0  0  0
   51.9070  156.2820   28.6300 C   0  0  0  0  0  0  0  0  0  0  0  0
   51.5110  157.5100   29.3500 C   0  0  0  0  0  0  0  0  0  0  0  0
   50.1820  157.4950   29.7550 O   0  0  0  0  0  0  0  0  0  0  0  0
   49.6830  158.5780   30.4340 C   0  0  0  0  0  0  0  0  0  0  0  0
   48.3400  158.5280   30.8080 C   0  0  0  0  0  0  0  0  0  0  0  0
   47.7700  159.5960   31.5030 C   0  0  0  0  0  0  0  0  0  0  0  0
   48.5430  160.7120   31.8260 C   0  0  0  0  0  0  0  0  0  0  0  0
   49.8830  160.7610   31.4520 C   0  0  0  0  0  0  0  0  0  0  0  0
   50.5820  161.8830   31.8000 O   0  0  0  0  0  0  0  0  0  0  0  0
   50.4530  159.6910   30.7550 C   0  0  0  0  0  0  0  0  0  0  0  0
   51.8580  159.7020   30.3440 C   0  0  0  0  0  0  0  0  0  0  0  0
   52.6040  160.6450   30.5970 O   0  0  0  0  0  0  0  0  0  0  0  0
   52.3620  158.5220   29.6020 C   0  0  0  0  0  0  0  0  0  0  0  0
   53.6930  158.5350   29.2300 O   0  0  0  0  0  0  0  0  0  0  0  0
   52.6110  156.3320   27.4180 C   0  0  0  0  0  0  0  0  0  0  0  0
   52.9740  155.1610   26.7240 C   0  0  0  0  0  0  0  0  0  0  0  0
   53.6880  155.2800   25.4390 C   0  0  0  0  0  0  0  0  0  0  0  0
   54.0920  156.4470   24.9190 C   0  0  0  0  0  0  0  0  0  0  0  0
   52.5705  150.6185   26.1121 H   0  0  0  0  0  0  0  0  0  0  0  0
   51.2901  151.5105   27.2053 H   0  0  0  0  0  0  0  0  0  0  0  0
   53.8933  152.6236   25.9938 H   0  0  0  0  0  0  0  0  0  0  0  0
   51.5904  152.8835   28.8732 H   0  0  0  0  0  0  0  0  0  0  0  0
   50.9802  154.9671   30.0792 H   0  0  0  0  0  0  0  0  0  0  0  0
   47.7307  157.6477   30.5554 H   0  0  0  0  0  0  0  0  0  0  0  0
   46.7105  159.5578   31.7963 H   0  0  0  0  0  0  0  0  0  0  0  0
   48.0938  161.5523   32.3757 H   0  0  0  0  0  0  0  0  0  0  0  0
   50.3200  162.3860   32.5470 H   0  0  0  0  0  0  0  0  0  0  0  0
   54.3570  158.3320   29.8590 H   0  0  0  0  0  0  0  0  0  0  0  0
   52.8868  157.3108   26.9985 H   0  0  0  0  0  0  0  0  0  0  0  0
   53.9008  154.3593   24.8760 H   0  0  0  0  0  0  0  0  0  0  0  0
   54.6206  156.4658   23.9545 H   0  0  0  0  0  0  0  0  0  0  0  0
   53.8950  157.3863   25.4566 H   0  0  0  0  0  0  0  0  0  0  0  0
  1  2  2  0
  2  3  1  0
  3  4  2  0
  4  5  1  0
  5  6  2  0
  6  7  1  0
  7  8  1  0
  8  9  1  0
  9 10  2  0
 10 11  1  0
 11 12  2  0
 12 13  1  0
 13 14  1  0
 13 15  2  0
 15 16  1  0
 16 17  2  0
 16 18  1  0
 18 19  1  0
  6 20  1  0
 20 21  2  0
 21 22  1  0
 22 23  2  0
 21  3  1  0
 18  7  2  0
 15  9  1  0
  1 24  1  0
  1 25  1  0
  2 26  1  0
  4 27  1  0
  5 28  1  0
 10 29  1  0
 11 30  1  0
 12 31  1  0
 14 32  1  0
 19 33  1  0
 20 34  1  0
 22 35  1  0
 23 36  1  0
 23 37  1  0
M  END
>  <meeko>  (3) 
{"is_sidechain": [false], "free_energy": -10.233, "intermolecular_energy": -12.34, "internal_energy": -0.35}

$$$$
cand_048_out
     RDKit          3D

 37 39  0  0  0  0  0  0  0  0999 V2000
   52.9380  151.7010   25.9710 C   0  0  0  0  0  0  0  0  0  0  0  0
   53.6160  152.7440   26.4660 C   0  0  0  0  0  0  0  0  0  0  0  0
   52.9850  153.8800   27.1590 C   0  0  0  0  0  0  0  0  0  0  0  0
   52.4000  153.6750   28.4200 C   0  0  0  0  0  0  0  0  0  0  0  0
   51.8270  154.7350   29.1280 C   0  0  0  0  0  0  0  0  0  0  0  0
   51.8310  156.0310   28.6030 C   0  0  0  0  0  0  0  0  0  0  0  0
   51.1910  157.1320   29.3520 C   0  0  0  0  0  0  0  0  0  0  0  0
   52.0550  158.1930   29.5980 O   0  0  0  0  0  0  0  0  0  0  0  0
   51.5880  159.2820   30.2880 C   0  0  0  0  0  0  0  0  0  0  0  0
   52.4930  160.3170   30.5260 C   0  0  0  0  0  0  0  0  0  0  0  0
   52.0820  161.4560   31.2210 C   0  0  0  0  0  0  0  0  0  0  0  0
   50.7660  161.5610   31.6770 C   0  0  0  0  0  0  0  0  0  0  0  0
   49.8650  160.5260   31.4380 C   0  0  0  0  0  0  0  0  0  0  0  0
   48.5930  160.6940   31.9120 O   0  0  0  0  0  0  0  0  0  0  0  0
   50.2770  159.3860   30.7430 C   0  0  0  0  0  0  0  0  0  0  0  0
   49.3620  158.2770   30.4710 C   0  0  0  0  0  0  0  0  0  0  0  0
   48.1880  158.2970   30.8340 O   0  0  0  0  0  0  0  0  0  0  0  0
   49.9010  157.1100   29.7340 C   0  0  0  0  0  0  0  0  0  0  0  0
   49.0250  156.0730   29.4690 O   0  0  0  0  0  0  0  0  0  0  0  0
   52.4140  156.2380   27.3440 C   0  0  0  0  0  0  0  0  0  0  0  0
   53.0090  155.1850   26.6220 C   0  0  0  0  0  0  0  0  0  0  0  0
   53.5790  155.4600   25.2900 C   0  0  0  0  0  0  0  0  0  0  0  0
   54.2790  156.5630   24.9940 C   0  0  0  0  0  0  0  0  0  0  0  0
   53.4756  150.8860   25.4643 H   0  0  0  0  0  0  0  0  0  0  0  0
   51.8434  151.6591   26.0710 H   0  0  0  0  0  0  0  0  0  0  0  0
   54.7096  152.7530   26.3480 H   0  0  0  0  0  0  0  0  0  0  0  0
   52.3929  152.6653   28.8564 H   0  0  0  0  0  0  0  0  0  0  0  0
   51.3675  154.5476   30.1097 H   0  0  0  0  0  0  0  0  0  0  0  0
   53.5294  160.2356   30.1664 H   0  0  0  0  0  0  0  0  0  0  0  0
   52.7955  162.2717   31.4097 H   0  0  0  0  0  0  0  0  0  0  0  0
   50.4419  162.4589   32.2236 H   0  0  0  0  0  0  0  0  0  0  0  0
   48.2560  160.1160   32.5680 H   0  0  0  0  0  0  0  0  0  0  0  0
   49.2520  155.4180   28.8390 H   0  0  0  0  0  0  0  0  0  0  0  0
   52.4063  157.2485   26.9095 H   0  0  0  0  0  0  0  0  0  0  0  0
   53.4203  154.7172   24.4944 H   0  0  0  0  0  0  0  0  0  0  0  0
   54.6768  156.7059   23.9785 H   0  0  0  0  0  0  0  0  0  0  0  0
   54.4560  157.3259   25.7664 H   0  0  0  0  0  0  0  0  0  0  0  0
  1  2  2  0
  2  3  1  0
  3  4  2  0
  4  5  1  0
  5  6  2  0
  6  7  1  0
  7  8  1  0
  8  9  1  0
  9 10  2  0
 10 11  1  0
 11 12  2  0
 12 13  1  0
 13 14  1  0
 13 15  2  0
 15 16  1  0
 16 17  2  0
 16 18  1  0
 18 19  1  0
  6 20  1  0
 20 21  2  0
 21 22  1  0
 22 23  2  0
 21  3  1  0
 18  7  2  0
 15  9  1  0
  1 24  1  0
  1 25  1  0
  2 26  1  0
  4 27  1  0
  5 28  1  0
 10 29  1  0
 11 30  1  0
 12 31  1  0
 14 32  1  0
 19 33  1  0
 20 34  1  0
 22 35  1  0
 23 36  1  0
 23 37  1  0
M  END
>  <meeko>  (4) 
{"is_sidechain": [false], "free_energy": -9.371, "intermolecular_energy": -11.189, "internal_energy": -0.437}

$$$$
cand_048_out
     RDKit          3D

 37 39  0  0  0  0  0  0  0  0999 V2000
   53.1780  154.0460   24.9390 C   0  0  0  0  0  0  0  0  0  0  0  0
   53.3330  154.0150   26.2690 C   0  0  0  0  0  0  0  0  0  0  0  0
   52.8440  155.0670   27.1780 C   0  0  0  0  0  0  0  0  0  0  0  0
   52.9890  156.4150   26.8080 C   0  0  0  0  0  0  0  0  0  0  0  0
   52.5030  157.4400   27.6240 C   0  0  0  0  0  0  0  0  0  0  0  0
   51.8490  157.1490   28.8240 C   0  0  0  0  0  0  0  0  0  0  0  0
   51.3710  158.2490   29.6880 C   0  0  0  0  0  0  0  0  0  0  0  0
   50.0380  158.1090   30.0550 O   0  0  0  0  0  0  0  0  0  0  0  0
   49.4660  159.0640   30.8560 C   0  0  0  0  0  0  0  0  0  0  0  0
   48.1210  158.8920   31.1870 C   0  0  0  0  0  0  0  0  0  0  0  0
   47.4790  159.8270   32.0010 C   0  0  0  0  0  0  0  0  0  0  0  0
   48.1810  160.9320   32.4850 C   0  0  0  0  0  0  0  0  0  0  0  0
   49.5230  161.1020   32.1540 C   0  0  0  0  0  0  0  0  0  0  0  0
   50.1500  162.2050   32.6630 O   0  0  0  0  0  0  0  0  0  0  0  0
   50.1650  160.1660   31.3380 C   0  0  0  0  0  0  0  0  0  0  0  0
   51.5740  160.3070   30.9670 C   0  0  0  0  0  0  0  0  0  0  0  0
   52.2600  161.2480   31.3590 O   0  0  0  0  0  0  0  0  0  0  0  0
   52.1580  159.2640   30.0910 C   0  0  0  0  0  0  0  0  0  0  0  0
   53.4930  159.3980   29.7560 O   0  0  0  0  0  0  0  0  0  0  0  0
   51.7030  155.8040   29.1960 C   0  0  0  0  0  0  0  0  0  0  0  0
   52.1740  154.7570   28.3800 C   0  0  0  0  0  0  0  0  0  0  0  0
   52.0170  153.3640   28.8390 C   0  0  0  0  0  0  0  0  0  0  0  0
   51.6400  152.3570   28.0400 C   0  0  0  0  0  0  0  0  0  0  0  0
   53.5691  153.2248   24.3204 H   0  0  0  0  0  0  0  0  0  0  0  0
   52.6596  154.8927   24.4653 H   0  0  0  0  0  0  0  0  0  0  0  0
   53.8563  153.1533   26.7090 H   0  0  0  0  0  0  0  0  0  0  0  0
   53.4921  156.6668   25.8628 H   0  0  0  0  0  0  0  0  0  0  0  0
   52.6368  158.4881   27.3181 H   0  0  0  0  0  0  0  0  0  0  0  0
   47.5675  158.0207   30.8069 H   0  0  0  0  0  0  0  0  0  0  0  0
   46.4187  159.6927   32.2612 H   0  0  0  0  0  0  0  0  0  0  0  0
   47.6748  161.6678   33.1272 H   0  0  0  0  0  0  0  0  0  0  0  0
   50.6090  162.1500   33.4780 H   0  0  0  0  0  0  0  0  0  0  0  0
   54.0330  158.6370   29.6720 H   0  0  0  0  0  0  0  0  0  0  0  0
   51.2086  155.5613   30.1482 H   0  0  0  0  0  0  0  0  0  0  0  0
   52.2209  153.1395   29.8964 H   0  0  0  0  0  0  0  0  0  0  0  0
   51.5419  151.3396   28.4464 H   0  0  0  0  0  0  0  0  0  0  0  0
   51.4285  152.5476   26.9775 H   0  0  0  0  0  0  0  0  0  0  0  0
  1  2  2  0
  2  3  1  0
  3  4  2  0
  4  5  1  0
  5  6  2  0
  6  7  1  0
  7  8  1  0
  8  9  1  0
  9 10  2  0
 10 11  1  0
 11 12  2  0
 12 13  1  0
 13 14  1  0
 13 15  2  0
 15 16  1  0
 16 17  2  0
 16 18  1  0
 18 19  1  0
  6 20  1  0
 20 21  2  0
 21 22  1  0
 22 23  2  0
 21  3  1  0
 18  7  2  0
 15  9  1  0
  1 24  1  0
  1 25  1  0
  2 26  1  0
  4 27  1  0
  5 28  1  0
 10 29  1  0
 11 30  1  0
 12 31  1  0
 14 32  1  0
 19 33  1  0
 20 34  1  0
 22 35  1  0
 23 36  1  0
 23 37  1  0
M  END
>  <meeko>  (5) 
{"is_sidechain": [false], "free_energy": -8.885, "intermolecular_energy": -11.218, "internal_energy": 0.19}

$$$$
cand_048_out
     RDKit          3D

 37 39  0  0  0  0  0  0  0  0999 V2000
   48.1530  158.9260   30.8650 C   0  0  0  0  0  0  0  0  0  0  0  0
   49.3120  158.3310   31.1740 C   0  0  0  0  0  0  0  0  0  0  0  0
   50.1090  157.5380   30.2210 C   0  0  0  0  0  0  0  0  0  0  0  0
   49.6230  156.2920   29.7920 C   0  0  0  0  0  0  0  0  0  0  0  0
   50.3290  155.5280   28.8590 C   0  0  0  0  0  0  0  0  0  0  0  0
   51.5330  155.9910   28.3200 C   0  0  0  0  0  0  0  0  0  0  0  0
   52.2800  155.1530   27.3590 C   0  0  0  0  0  0  0  0  0  0  0  0
   51.9600  153.8040   27.4540 O   0  0  0  0  0  0  0  0  0  0  0  0
   52.5850  152.9140   26.6180 C   0  0  0  0  0  0  0  0  0  0  0  0
   52.2450  151.5670   26.7590 C   0  0  0  0  0  0  0  0  0  0  0  0
   52.8420  150.6090   25.9380 C   0  0  0  0  0  0  0  0  0  0  0  0
   53.7770  150.9960   24.9770 C   0  0  0  0  0  0  0  0  0  0  0  0
   54.1150  152.3400   24.8380 C   0  0  0  0  0  0  0  0  0  0  0  0
   55.0370  152.6490   23.8770 O   0  0  0  0  0  0  0  0  0  0  0  0
   53.5170  153.2990   25.6610 C   0  0  0  0  0  0  0  0  0  0  0  0
   53.8440  154.7210   25.5480 C   0  0  0  0  0  0  0  0  0  0  0  0
   54.6510  155.1410   24.7220 O   0  0  0  0  0  0  0  0  0  0  0  0
   53.1600  155.6560   26.4730 C   0  0  0  0  0  0  0  0  0  0  0  0
   53.4640  156.9980   26.3500 O   0  0  0  0  0  0  0  0  0  0  0  0
   52.0200  157.2350   28.7480 C   0  0  0  0  0  0  0  0  0  0  0  0
   51.3160  158.0260   29.6760 C   0  0  0  0  0  0  0  0  0  0  0  0
   51.8940  159.3110   30.1100 C   0  0  0  0  0  0  0  0  0  0  0  0
   51.2370  160.4770   30.0570 C   0  0  0  0  0  0  0  0  0  0  0  0
   47.6106  159.5034   31.6281 H   0  0  0  0  0  0  0  0  0  0  0  0
   47.7433  158.8374   29.8480 H   0  0  0  0  0  0  0  0  0  0  0  0
   49.6920  158.4406   32.2004 H   0  0  0  0  0  0  0  0  0  0  0  0
   48.6731  155.9122   30.1962 H   0  0  0  0  0  0  0  0  0  0  0  0
   49.9329  154.5510   28.5450 H   0  0  0  0  0  0  0  0  0  0  0  0
   51.5077  151.2613   27.5160 H   0  0  0  0  0  0  0  0  0  0  0  0
   52.5752  149.5476   26.0486 H   0  0  0  0  0  0  0  0  0  0  0  0
   54.2465  150.2404   24.3300 H   0  0  0  0  0  0  0  0  0  0  0  0
   54.9410  153.4310   23.3690 H   0  0  0  0  0  0  0  0  0  0  0  0
   54.3560  157.2700   26.2620 H   0  0  0  0  0  0  0  0  0  0  0  0
   52.9768  157.6021   28.3482 H   0  0  0  0  0  0  0  0  0  0  0  0
   52.9228  159.3122   30.4993 H   0  0  0  0  0  0  0  0  0  0  0  0
   51.7277  161.4008   30.3974 H   0  0  0  0  0  0  0  0  0  0  0  0
   50.2067  160.5108   29.6730 H   0  0  0  0  0  0  0  0  0  0  0  0
  1  2  2  0
  2  3  1  0
  3  4  2  0
  4  5  1  0
  5  6  2  0
  6  7  1  0
  7  8  1  0
  8  9  1  0
  9 10  2  0
 10 11  1  0
 11 12  2  0
 12 13  1  0
 13 14  1  0
 13 15  2  0
 15 16  1  0
 16 17  2  0
 16 18  1  0
 18 19  1  0
  6 20  1  0
 20 21  2  0
 21 22  1  0
 22 23  2  0
 21  3  1  0
 18  7  2  0
 15  9  1  0
  1 24  1  0
  1 25  1  0
  2 26  1  0
  4 27  1  0
  5 28  1  0
 10 29  1  0
 11 30  1  0
 12 31  1  0
 14 32  1  0
 19 33  1  0
 20 34  1  0
 22 35  1  0
 23 36  1  0
 23 37  1  0
M  END
>  <meeko>  (6) 
{"is_sidechain": [false], "free_energy": -8.7, "intermolecular_energy": -11.146, "internal_energy": 0.347}

$$$$
cand_048_out
     RDKit          3D

 37 39  0  0  0  0  0  0  0  0999 V2000
   53.4060  153.8310   24.6870 C   0  0  0  0  0  0  0  0  0  0  0  0
   53.7640  153.9820   25.9680 C   0  0  0  0  0  0  0  0  0  0  0  0
   53.0970  154.9050   26.9040 C   0  0  0  0  0  0  0  0  0  0  0  0
   53.1140  156.2840   26.6370 C   0  0  0  0  0  0  0  0  0  0  0  0
   52.4590  157.1880   27.4780 C   0  0  0  0  0  0  0  0  0  0  0  0
   51.7600  156.7390   28.6020 C   0  0  0  0  0  0  0  0  0  0  0  0
   51.1010  157.7140   29.4970 C   0  0  0  0  0  0  0  0  0  0  0  0
   51.8960  158.8220   29.7680 O   0  0  0  0  0  0  0  0  0  0  0  0
   51.4040  159.8050   30.5890 C   0  0  0  0  0  0  0  0  0  0  0  0
   52.2410  160.8920   30.8460 C   0  0  0  0  0  0  0  0  0  0  0  0
   51.8030  161.9290   31.6720 C   0  0  0  0  0  0  0  0  0  0  0  0
   50.5270  161.8800   32.2380 C   0  0  0  0  0  0  0  0  0  0  0  0
   49.6940  160.7950   31.9800 C   0  0  0  0  0  0  0  0  0  0  0  0
   48.4590  160.8110   32.5660 O   0  0  0  0  0  0  0  0  0  0  0  0
   50.1340  159.7570   31.1540 C   0  0  0  0  0  0  0  0  0  0  0  0
   49.2900  158.5990   30.8560 C   0  0  0  0  0  0  0  0  0  0  0  0
   48.1540  158.4860   31.3110 O   0  0  0  0  0  0  0  0  0  0  0  0
   49.8540  157.5490   29.9760 C   0  0  0  0  0  0  0  0  0  0  0  0
   49.0450  156.4650   29.6890 O   0  0  0  0  0  0  0  0  0  0  0  0
   51.7410  155.3630   28.8710 C   0  0  0  0  0  0  0  0  0  0  0  0
   52.3830  154.4350   28.0270 C   0  0  0  0  0  0  0  0  0  0  0  0
   52.3530  153.0040   28.3790 C   0  0  0  0  0  0  0  0  0  0  0  0
   51.5910  152.1000   27.7500 C   0  0  0  0  0  0  0  0  0  0  0  0
   53.9490  153.1227   24.0440 H   0  0  0  0  0  0  0  0  0  0  0  0
   52.5688  154.4152   24.2774 H   0  0  0  0  0  0  0  0  0  0  0  0
   54.6056  153.3819   26.3444 H   0  0  0  0  0  0  0  0  0  0  0  0
   53.6509  156.6580   25.7528 H   0  0  0  0  0  0  0  0  0  0  0  0
   52.4940  158.2642   27.2529 H   0  0  0  0  0  0  0  0  0  0  0  0
   53.2449  160.9316   30.3981 H   0  0  0  0  0  0  0  0  0  0  0  0
   52.4630  162.7848   31.8771 H   0  0  0  0  0  0  0  0  0  0  0  0
   50.1807  162.6979   32.8869 H   0  0  0  0  0  0  0  0  0  0  0  0
   48.1230  160.0380   32.9750 H   0  0  0  0  0  0  0  0  0  0  0  0
   48.8760  156.2300   28.7980 H   0  0  0  0  0  0  0  0  0  0  0  0
   51.2114  154.9987   29.7636 H   0  0  0  0  0  0  0  0  0  0  0  0
   52.9925  152.6591   29.2049 H   0  0  0  0  0  0  0  0  0  0  0  0
   51.6162  151.0459   28.0634 H   0  0  0  0  0  0  0  0  0  0  0  0
   50.9399  152.4116   26.9199 H   0  0  0  0  0  0  0  0  0  0  0  0
  1  2  2  0
  2  3  1  0
  3  4  2  0
  4  5  1  0
  5  6  2  0
  6  7  1  0
  7  8  1  0
  8  9  1  0
  9 10  2  0
 10 11  1  0
 11 12  2  0
 12 13  1  0
 13 14  1  0
 13 15  2  0
 15 16  1  0
 16 17  2  0
 16 18  1  0
 18 19  1  0
  6 20  1  0
 20 21  2  0
 21 22  1  0
 22 23  2  0
 21  3  1  0
 18  7  2  0
 15  9  1  0
  1 24  1  0
  1 25  1  0
  2 26  1  0
  4 27  1  0
  5 28  1  0
 10 29  1  0
 11 30  1  0
 12 31  1  0
 14 32  1  0
 19 33  1  0
 20 34  1  0
 22 35  1  0
 23 36  1  0
 23 37  1  0
M  END
>  <meeko>  (7) 
{"is_sidechain": [false], "free_energy": -8.15, "intermolecular_energy": -9.882, "internal_energy": -0.239}

$$$$
cand_048_out
     RDKit          3D

 37 39  0  0  0  0  0  0  0  0999 V2000
   50.9150  160.8390   30.4520 C   0  0  0  0  0  0  0  0  0  0  0  0
   51.0120  159.5630   30.8440 C   0  0  0  0  0  0  0  0  0  0  0  0
   51.3730  158.4520   29.9440 C   0  0  0  0  0  0  0  0  0  0  0  0
   52.6340  158.4540   29.3260 C   0  0  0  0  0  0  0  0  0  0  0  0
   53.0310  157.4000   28.4990 C   0  0  0  0  0  0  0  0  0  0  0  0
   52.1840  156.3100   28.2740 C   0  0  0  0  0  0  0  0  0  0  0  0
   52.6090  155.2220   27.3700 C   0  0  0  0  0  0  0  0  0  0  0  0
   52.1000  153.9820   27.7390 O   0  0  0  0  0  0  0  0  0  0  0  0
   52.4190  152.8820   26.9830 C   0  0  0  0  0  0  0  0  0  0  0  0
   51.9000  151.6550   27.3990 C   0  0  0  0  0  0  0  0  0  0  0  0
   52.1840  150.4970   26.6750 C   0  0  0  0  0  0  0  0  0  0  0  0
   52.9850  150.5650   25.5330 C   0  0  0  0  0  0  0  0  0  0  0  0
   53.5030  151.7900   25.1200 C   0  0  0  0  0  0  0  0  0  0  0  0
   54.2790  151.7840   23.9950 O   0  0  0  0  0  0  0  0  0  0  0  0
   53.2180  152.9490   25.8470 C   0  0  0  0  0  0  0  0  0  0  0  0
   53.7420  154.2560   25.4470 C   0  0  0  0  0  0  0  0  0  0  0  0
   54.4480  154.3990   24.4520 O   0  0  0  0  0  0  0  0  0  0  0  0
   53.3880  155.4220   26.2910 C   0  0  0  0  0  0  0  0  0  0  0  0
   53.8750  156.6550   25.8970 O   0  0  0  0  0  0  0  0  0  0  0  0
   50.9240  156.3070   28.8900 C   0  0  0  0  0  0  0  0  0  0  0  0
   50.5120  157.3530   29.7390 C   0  0  0  0  0  0  0  0  0  0  0  0
   49.1640  157.3070   30.3340 C   0  0  0  0  0  0  0  0  0  0  0  0
   48.2040  158.2030   30.0690 C   0  0  0  0  0  0  0  0  0  0  0  0
   50.6406  161.6182   31.1784 H   0  0  0  0  0  0  0  0  0  0  0  0
   51.1097  161.1086   29.4035 H   0  0  0  0  0  0  0  0  0  0  0  0
   50.8106  159.3292   31.8998 H   0  0  0  0  0  0  0  0  0  0  0  0
   53.3192  159.2976   29.4954 H   0  0  0  0  0  0  0  0  0  0  0  0
   54.0207  157.4278   28.0196 H   0  0  0  0  0  0  0  0  0  0  0  0
   51.2674  151.6012   28.2973 H   0  0  0  0  0  0  0  0  0  0  0  0
   51.7767  149.5295   27.0038 H   0  0  0  0  0  0  0  0  0  0  0  0
   53.2065  149.6522   24.9605 H   0  0  0  0  0  0  0  0  0  0  0  0
   55.0710  152.2850   23.9680 H   0  0  0  0  0  0  0  0  0  0  0  0
   54.6380  156.7050   25.3550 H   0  0  0  0  0  0  0  0  0  0  0  0
   50.2396  155.4659   28.7054 H   0  0  0  0  0  0  0  0  0  0  0  0
   48.9335  156.4912   31.0349 H   0  0  0  0  0  0  0  0  0  0  0  0
   47.2180  158.1105   30.5478 H   0  0  0  0  0  0  0  0  0  0  0  0
   48.4017  159.0312   29.3726 H   0  0  0  0  0  0  0  0  0  0  0  0
  1  2  2  0
  2  3  1  0
  3  4  2  0
  4  5  1  0
  5  6  2  0
  6  7  1  0
  7  8  1  0
  8  9  1  0
  9 10  2  0
 10 11  1  0
 11 12  2  0
 12 13  1  0
 13 14  1  0
 13 15  2  0
 15 16  1  0
 16 17  2  0
 16 18  1  0
 18 19  1  0
  6 20  1  0
 20 21  2  0
 21 22  1  0
 22 23  2  0
 21  3  1  0
 18  7  2  0
 15  9  1  0
  1 24  1  0
  1 25  1  0
  2 26  1  0
  4 27  1  0
  5 28  1  0
 10 29  1  0
 11 30  1  0
 12 31  1  0
 14 32  1  0
 19 33  1  0
 20 34  1  0
 22 35  1  0
 23 36  1  0
 23 37  1  0
M  END
>  <meeko>  (8) 
{"is_sidechain": [false], "free_energy": -7.947, "intermolecular_energy": -9.976, "internal_energy": 0.107}

$$$$
