cand_019_out
     RDKit          3D

 35 37  0  0  0  0  0  0  0  0999 V2000
   52.1250  152.9760   28.7980 O   0  0  0  0  0  0  0  0  0  0  0  0
   52.2500  154.1360   28.4120 C   0  0  0  0  0  0  0  0  0  0  0  0
   51.7540  155.2610   29.2380 C   0  0  0  0  0  0  0  0  0  0  0  0
   51.1410  154.9390   30.4350 O   0  0  0  0  0  0  0  0  0  0  0  0
   51.9110  156.5150   28.7760 C   0  0  0  0  0  0  0  0  0  0  0  0
   51.4440  157.7120   29.5090 C   0  0  0  0  0  0  0  0  0  0  0  0
   52.2620  158.8330   29.6850 C   0  0  0  0  0  0  0  0  0  0  0  0
   51.7910  159.9630   30.3600 C   0  0  0  0  0  0  0  0  0  0  0  0
   50.4880  160.0010   30.8760 C   0  0  0  0  0  0  0  0  0  0  0  0
   50.0090  161.2380   31.5930 C   0  0  0  0  0  0  0  0  0  0  0  0
   50.0630  161.1070   32.9480 F   0  0  0  0  0  0  0  0  0  0  0  0
   49.6390  158.8890   30.6840 C   0  0  0  0  0  0  0  0  0  0  0  0
   48.2170  158.8870   31.1990 C   0  0  0  0  0  0  0  0  0  0  0  0
   48.1580  158.8870   32.5610 F   0  0  0  0  0  0  0  0  0  0  0  0
   47.5050  159.9860   30.8100 F   0  0  0  0  0  0  0  0  0  0  0  0
   50.1330  157.7580   30.0060 C   0  0  0  0  0  0  0  0  0  0  0  0
   52.5050  156.8240   27.5590 O   0  0  0  0  0  0  0  0  0  0  0  0
   52.9800  155.8040   26.7740 C   0  0  0  0  0  0  0  0  0  0  0  0
   53.5780  156.1610   25.5640 C   0  0  0  0  0  0  0  0  0  0  0  0
   54.0820  155.1700   24.7180 C   0  0  0  0  0  0  0  0  0  0  0  0
   53.9880  153.8250   25.0810 C   0  0  0  0  0  0  0  0  0  0  0  0
   53.3900  153.4730   26.2890 C   0  0  0  0  0  0  0  0  0  0  0  0
   53.3320  152.1370   26.5810 O   0  0  0  0  0  0  0  0  0  0  0  0
   52.8870  154.4630   27.1340 C   0  0  0  0  0  0  0  0  0  0  0  0
   51.1960  154.0660   30.7700 H   0  0  0  0  0  0  0  0  0  0  0  0
   53.2877  158.8253   29.2877 H   0  0  0  0  0  0  0  0  0  0  0  0
   52.4512  160.8335   30.4879 H   0  0  0  0  0  0  0  0  0  0  0  0
   50.6422  162.0866   31.2947 H   0  0  0  0  0  0  0  0  0  0  0  0
   48.9577  161.4015   31.3136 H   0  0  0  0  0  0  0  0  0  0  0  0
   47.7885  157.9679   30.7727 H   0  0  0  0  0  0  0  0  0  0  0  0
   49.4744  156.8887   29.8625 H   0  0  0  0  0  0  0  0  0  0  0  0
   53.6522  157.2204   25.2773 H   0  0  0  0  0  0  0  0  0  0  0  0
   54.5536  155.4498   23.7644 H   0  0  0  0  0  0  0  0  0  0  0  0
   54.3852  153.0451   24.4147 H   0  0  0  0  0  0  0  0  0  0  0  0
   52.9700  151.8520   27.3960 H   0  0  0  0  0  0  0  0  0  0  0  0
  1  2  2  0
  2  3  1  0
  3  4  1  0
  3  5  2  0
  5  6  1  0
  6  7  2  0
  7  8  1  0
  8  9  2  0
  9 10  1  0
 10 11  1  0
  9 12  1  0
 12 13  1  0
 13 14  1  0
 13 15  1  0
 12 16  2  0
  5 17  1  0
 17 18  1  0
 18 19  2  0
 19 20  1  0
 20 21  2  0
 21 22  1  0
 22 23  1  0
 22 24  2  0
 24  2  1  0
 16  6  1  0
 24 18  1  0
  4 25  1  0
  7 26  1  0
  8 27  1  0
 10 28  1  0
 10 29  1  0
 13 30  1  0
 16 31  1  0
 19 32  1  0
 20 33  1  0
 21 34  1  0
 23 35  1  0
M  END
>  <meeko>  (1) 
{"is_sidechain": [false], "free_energy": -10.596, "intermolecular_energy": -13.074, "internal_energy": -0.129}

$$$$
cand_019_out
     RDKit          3D

 35 37  0  0  0  0  0  0  0  0999 V2000
   52.5300  160.6660   30.5600 O   0  0  0  0  0  0  0  0  0  0  0  0
   51.7920  159.7040   30.3560 C   0  0  0  0  0  0  0  0  0  0  0  0
   52.3010  158.5010   29.6580 C   0  0  0  0  0  0  0  0  0  0  0  0
   53.6200  158.5260   29.2420 O   0  0  0  0  0  0  0  0  0  0  0  0
   51.4590  157.4720   29.4540 C   0  0  0  0  0  0  0  0  0  0  0  0
   51.8530  156.2280   28.7580 C   0  0  0  0  0  0  0  0  0  0  0  0
   51.5680  154.9660   29.2880 C   0  0  0  0  0  0  0  0  0  0  0  0
   51.9290  153.8030   28.6020 C   0  0  0  0  0  0  0  0  0  0  0  0
   52.5840  153.8730   27.3640 C   0  0  0  0  0  0  0  0  0  0  0  0
   52.9540  152.6000   26.6460 C   0  0  0  0  0  0  0  0  0  0  0  0
   51.9580  151.6700   26.6920 F   0  0  0  0  0  0  0  0  0  0  0  0
   52.8560  155.1390   26.8000 C   0  0  0  0  0  0  0  0  0  0  0  0
   53.5380  155.2720   25.4570 C   0  0  0  0  0  0  0  0  0  0  0  0
   52.7050  154.9760   24.4200 F   0  0  0  0  0  0  0  0  0  0  0  0
   53.9870  156.5370   25.2070 F   0  0  0  0  0  0  0  0  0  0  0  0
   52.4890  156.2990   27.5090 C   0  0  0  0  0  0  0  0  0  0  0  0
   50.1270  157.4700   29.8520 O   0  0  0  0  0  0  0  0  0  0  0  0
   49.6280  158.5670   30.5070 C   0  0  0  0  0  0  0  0  0  0  0  0
   48.2890  158.5180   30.8970 C   0  0  0  0  0  0  0  0  0  0  0  0
   47.7190  159.6020   31.5680 C   0  0  0  0  0  0  0  0  0  0  0  0
   48.4860  160.7350   31.8470 C   0  0  0  0  0  0  0  0  0  0  0  0
   49.8220  160.7810   31.4560 C   0  0  0  0  0  0  0  0  0  0  0  0
   50.5150  161.9210   31.7610 O   0  0  0  0  0  0  0  0  0  0  0  0
   50.3920  159.6960   30.7860 C   0  0  0  0  0  0  0  0  0  0  0  0
   54.1080  159.3250   29.2820 H   0  0  0  0  0  0  0  0  0  0  0  0
   51.0532  154.8874   30.2569 H   0  0  0  0  0  0  0  0  0  0  0  0
   51.6964  152.8205   29.0386 H   0  0  0  0  0  0  0  0  0  0  0  0
   53.1677  152.8373   25.5934 H   0  0  0  0  0  0  0  0  0  0  0  0
   53.8345  152.1743   27.1495 H   0  0  0  0  0  0  0  0  0  0  0  0
   54.3759  154.5622   25.5209 H   0  0  0  0  0  0  0  0  0  0  0  0
   52.7062  157.2853   27.0730 H   0  0  0  0  0  0  0  0  0  0  0  0
   47.6833  157.6267   30.6762 H   0  0  0  0  0  0  0  0  0  0  0  0
   46.6641  159.5633   31.8773 H   0  0  0  0  0  0  0  0  0  0  0  0
   48.0362  161.5891   32.3743 H   0  0  0  0  0  0  0  0  0  0  0  0
   50.9530  161.9960   32.5850 H   0  0  0  0  0  0  0  0  0  0  0  0
  1  2  2  0
  2  3  1  0
  3  4  1  0
  3  5  2  0
  5  6  1  0
  6  7  2  0
  7  8  1  0
  8  9  2  0
  9 10  1  0
 10 11  1  0
  9 12  1  0
 12 13  1  0
 13 14  1  0
 13 15  1  0
 12 16  2  0
  5 17  1  0
 17 18  1  0
 18 19  2  0
 19 20  1  0
 20 21  2  0
 21 22  1  0
 22 23  1  0
 22 24  2  0
 24  2  1  0
 16  6  1  0
 24 18  1  0
  4 25  1  0
  7 26  1  0
  8 27  1  0
 10 28  1  0
 10 29  1  0
 13 30  1  0
 16 31  1  0
 19 32  1  0
 20 33  1  0
 21 34  1  0
 23 35  1  0
M  END
>  <meeko>  (2) 
{"is_sidechain": [false], "free_energy": -10.524, "intermolecular_energy": -12.837, "internal_energy": -0.277}

$$$$
cand_019_out
     RDKit          3D

 35 37  0  0  0  0  0  0  0  0999 V2000
   52.4790  153.0290   28.8110 O   0  0  0  0  0  0  0  0  0  0  0  0
   52.4200  154.1980   28.4370 C   0  0  0  0  0  0  0  0  0  0  0  0
   51.7460  155.2210   29.2690 C   0  0  0  0  0  0  0  0  0  0  0  0
   51.1820  154.7930   30.4580 O   0  0  0  0  0  0  0  0  0  0  0  0
   51.7040  156.4890   28.8210 C   0  0  0  0  0  0  0  0  0  0  0  0
   51.0470  157.5890   29.5600 C   0  0  0  0  0  0  0  0  0  0  0  0
   49.7350  157.4790   30.0320 C   0  0  0  0  0  0  0  0  0  0  0  0
   49.1420  158.5220   30.7480 C   0  0  0  0  0  0  0  0  0  0  0  0
   49.8480  159.7040   31.0140 C   0  0  0  0  0  0  0  0  0  0  0  0
   49.1820  160.8080   31.7960 C   0  0  0  0  0  0  0  0  0  0  0  0
   48.6740  161.7820   30.9900 F   0  0  0  0  0  0  0  0  0  0  0  0
   51.1830  159.8220   30.5700 C   0  0  0  0  0  0  0  0  0  0  0  0
   51.9980  161.0660   30.8500 C   0  0  0  0  0  0  0  0  0  0  0  0
   52.3750  161.1560   32.1560 F   0  0  0  0  0  0  0  0  0  0  0  0
   53.1610  161.1160   30.1370 F   0  0  0  0  0  0  0  0  0  0  0  0
   51.7610  158.7630   29.8440 C   0  0  0  0  0  0  0  0  0  0  0  0
   52.2500  156.9020   27.6110 O   0  0  0  0  0  0  0  0  0  0  0  0
   52.8870  155.9790   26.8220 C   0  0  0  0  0  0  0  0  0  0  0  0
   53.4290  156.4390   25.6210 C   0  0  0  0  0  0  0  0  0  0  0  0
   54.0910  155.5510   24.7700 C   0  0  0  0  0  0  0  0  0  0  0  0
   54.2090  154.2040   25.1190 C   0  0  0  0  0  0  0  0  0  0  0  0
   53.6670  153.7480   26.3180 C   0  0  0  0  0  0  0  0  0  0  0  0
   53.8190  152.4180   26.5970 O   0  0  0  0  0  0  0  0  0  0  0  0
   53.0060  154.6370   27.1690 C   0  0  0  0  0  0  0  0  0  0  0  0
   51.7120  154.3580   31.0970 H   0  0  0  0  0  0  0  0  0  0  0  0
   49.1629  156.5599   29.8371 H   0  0  0  0  0  0  0  0  0  0  0  0
   48.1080  158.4145   31.1077 H   0  0  0  0  0  0  0  0  0  0  0  0
   48.3618  160.3762   32.3883 H   0  0  0  0  0  0  0  0  0  0  0  0
   49.9447  161.2698   32.4402 H   0  0  0  0  0  0  0  0  0  0  0  0
   51.3244  161.8870   30.5631 H   0  0  0  0  0  0  0  0  0  0  0  0
   52.7983  158.8585   29.4906 H   0  0  0  0  0  0  0  0  0  0  0  0
   53.3350  157.4996   25.3449 H   0  0  0  0  0  0  0  0  0  0  0  0
   54.5198  155.9131   23.8240 H   0  0  0  0  0  0  0  0  0  0  0  0
   54.7291  153.5045   24.4481 H   0  0  0  0  0  0  0  0  0  0  0  0
   54.6740  152.0660   26.7520 H   0  0  0  0  0  0  0  0  0  0  0  0
  1  2  2  0
  2  3  1  0
  3  4  1  0
  3  5  2  0
  5  6  1  0
  6  7  2  0
  7  8  1  0
  8  9  2  0
  9 10  1  0
 10 11  1  0
  9 12  1  0
 12 13  1  0
 13 14  1  0
 13 15  1  0
 12 16  2  0
  5 17  1  0
 17 18  1  0
 18 19  2  0
 19 20  1  0
 20 21  2  0
 21 22  1  0
 22 23  1  0
 22 24  2  0
 24  2  1  0
 16  6  1  0
 24 18  1  0
  4 25  1  0
  7 26  1  0
  8 27  1  0
 10 28  1  0
 10 29  1  0
 13 30  1  0
 16 31  1  0
 19 32  1  0
 20 33  1  0
 21 34  1  0
 23 35  1  0
M  END
>  <meeko>  (3) 
{"is_sidechain": [false], "free_energy": -10.472, "intermolecular_energy": -12.704, "internal_energy": -0.347}

$$$$
cand_019_out
     RDKit          3D

 35 37  0  0  0  0  0  0  0  0999 V2000
   48.0760  158.5090   30.7780 O   0  0  0  0  0  0  0  0  0  0  0  0
   49.2620  158.4390   30.4630 C   0  0  0  0  0  0  0  0  0  0  0  0
   49.7880  157.2370   29.7770 C   0  0  0  0  0  0  0  0  0  0  0  0
   48.8930  156.2120   29.5300 O   0  0  0  0  0  0  0  0  0  0  0  0
   51.0930  157.2020   29.4520 C   0  0  0  0  0  0  0  0  0  0  0  0
   51.7300  156.0490   28.7780 C   0  0  0  0  0  0  0  0  0  0  0  0
   51.6670  154.7580   29.3100 C   0  0  0  0  0  0  0  0  0  0  0  0
   52.2570  153.6800   28.6440 C   0  0  0  0  0  0  0  0  0  0  0  0
   52.9240  153.8660   27.4240 C   0  0  0  0  0  0  0  0  0  0  0  0
   53.5420  152.6810   26.7280 C   0  0  0  0  0  0  0  0  0  0  0  0
   52.6380  151.9880   25.9800 F   0  0  0  0  0  0  0  0  0  0  0  0
   52.9740  155.1590   26.8590 C   0  0  0  0  0  0  0  0  0  0  0  0
   53.6600  155.4110   25.5340 C   0  0  0  0  0  0  0  0  0  0  0  0
   52.9000  155.0200   24.4730 F   0  0  0  0  0  0  0  0  0  0  0  0
   53.9300  156.7310   25.3140 F   0  0  0  0  0  0  0  0  0  0  0  0
   52.3790  156.2330   27.5470 C   0  0  0  0  0  0  0  0  0  0  0  0
   51.9890  158.2270   29.7310 O   0  0  0  0  0  0  0  0  0  0  0  0
   51.5300  159.3570   30.3600 C   0  0  0  0  0  0  0  0  0  0  0  0
   52.4620  160.3650   30.6110 C   0  0  0  0  0  0  0  0  0  0  0  0
   52.0600  161.5410   31.2480 C   0  0  0  0  0  0  0  0  0  0  0  0
   50.7290  161.7080   31.6360 C   0  0  0  0  0  0  0  0  0  0  0  0
   49.8020  160.7000   31.3840 C   0  0  0  0  0  0  0  0  0  0  0  0
   48.5160  160.9290   31.7890 O   0  0  0  0  0  0  0  0  0  0  0  0
   50.2040  159.5240   30.7460 C   0  0  0  0  0  0  0  0  0  0  0  0
   47.9750  156.3930   29.4820 H   0  0  0  0  0  0  0  0  0  0  0  0
   51.1468  154.5883   30.2643 H   0  0  0  0  0  0  0  0  0  0  0  0
   52.1975  152.6728   29.0822 H   0  0  0  0  0  0  0  0  0  0  0  0
   54.3461  153.0388   26.0682 H   0  0  0  0  0  0  0  0  0  0  0  0
   53.9280  152.0013   27.5020 H   0  0  0  0  0  0  0  0  0  0  0  0
   54.5881  154.8252   25.6073 H   0  0  0  0  0  0  0  0  0  0  0  0
   52.4236  157.2412   27.1094 H   0  0  0  0  0  0  0  0  0  0  0  0
   53.5111  160.2335   30.3077 H   0  0  0  0  0  0  0  0  0  0  0  0
   52.7932  162.3372   31.4445 H   0  0  0  0  0  0  0  0  0  0  0  0
   50.4136  162.6337   32.1396 H   0  0  0  0  0  0  0  0  0  0  0  0
   47.9550  161.4810   31.2800 H   0  0  0  0  0  0  0  0  0  0  0  0
  1  2  2  0
  2  3  1  0
  3  4  1  0
  3  5  2  0
  5  6  1  0
  6  7  2  0
  7  8  1  0
  8  9  2  0
  9 10  1  0
 10 11  1  0
  9 12  1  0
 12 13  1  0
 13 14  1  0
 13 15  1  0
 12 16  2  0
  5 17  1  0
 17 18  1  0
 18 19  2  0
 19 20  1  0
 20 21  2  0
 21 22  1  0
 22 23  1  0
 22 24  2  0
 24  2  1  0
 16  6  1  0
 24 18  1  0
  4 25  1  0
  7 26  1  0
  8 27  1  0
 10 28  1  0
 10 29  1  0
 13 30  1  0
 16 31  1  0
 19 32  1  0
 20 33  1  0
 21 34  1  0
 23 35  1  0
M  END
>  <meeko>  (4) 
{"is_sidechain": [false], "free_energy": -9.456, "intermolecular_energy": -11.349, "internal_energy": -0.448}

$$$$
cand_019_out
     RDKit          3D

 35 37  0  0  0  0  0  0  0  0999 V2000
   52.3250  161.2470   31.3410 O   0  0  0  0  0  0  0  0  0  0  0  0
   51.6450  160.3070   30.9330 C   0  0  0  0  0  0  0  0  0  0  0  0
   52.2390  159.2760   30.0520 C   0  0  0  0  0  0  0  0  0  0  0  0
   53.5690  159.4340   29.7070 O   0  0  0  0  0  0  0  0  0  0  0  0
   51.4590  158.2650   29.6280 C   0  0  0  0  0  0  0  0  0  0  0  0
   51.9410  157.1880   28.7360 C   0  0  0  0  0  0  0  0  0  0  0  0
   52.5540  157.4650   27.5110 C   0  0  0  0  0  0  0  0  0  0  0  0
   53.0230  156.4310   26.6950 C   0  0  0  0  0  0  0  0  0  0  0  0
   52.8910  155.0910   27.0860 C   0  0  0  0  0  0  0  0  0  0  0  0
   53.4140  154.0010   26.1860 C   0  0  0  0  0  0  0  0  0  0  0  0
   52.4490  153.4970   25.3650 F   0  0  0  0  0  0  0  0  0  0  0  0
   52.2980  154.7930   28.3320 C   0  0  0  0  0  0  0  0  0  0  0  0
   52.1530  153.3660   28.8130 C   0  0  0  0  0  0  0  0  0  0  0  0
   51.5410  153.2870   30.0280 F   0  0  0  0  0  0  0  0  0  0  0  0
   51.3940  152.5950   27.9790 F   0  0  0  0  0  0  0  0  0  0  0  0
   51.8270  155.8480   29.1380 C   0  0  0  0  0  0  0  0  0  0  0  0
   50.1150  158.1320   29.9590 O   0  0  0  0  0  0  0  0  0  0  0  0
   49.5380  159.0680   30.7790 C   0  0  0  0  0  0  0  0  0  0  0  0
   48.1900  158.8900   31.0930 C   0  0  0  0  0  0  0  0  0  0  0  0
   47.5410  159.8080   31.9230 C   0  0  0  0  0  0  0  0  0  0  0  0
   48.2400  160.9030   32.4360 C   0  0  0  0  0  0  0  0  0  0  0  0
   49.5850  161.0780   32.1200 C   0  0  0  0  0  0  0  0  0  0  0  0
   50.2070  162.1710   32.6570 O   0  0  0  0  0  0  0  0  0  0  0  0
   50.2330  160.1600   31.2910 C   0  0  0  0  0  0  0  0  0  0  0  0
   54.0070  160.2420   29.8880 H   0  0  0  0  0  0  0  0  0  0  0  0
   52.6689  158.5092   27.1848 H   0  0  0  0  0  0  0  0  0  0  0  0
   53.5015  156.6718   25.7343 H   0  0  0  0  0  0  0  0  0  0  0  0
   54.2248  154.4127   25.5670 H   0  0  0  0  0  0  0  0  0  0  0  0
   53.7720  153.1809   26.8257 H   0  0  0  0  0  0  0  0  0  0  0  0
   53.1895  153.0001   28.8550 H   0  0  0  0  0  0  0  0  0  0  0  0
   51.3585  155.6161   30.1059 H   0  0  0  0  0  0  0  0  0  0  0  0
   47.6391  158.0284   30.6878 H   0  0  0  0  0  0  0  0  0  0  0  0
   46.4788  159.6681   32.1725 H   0  0  0  0  0  0  0  0  0  0  0  0
   47.7289  161.6261   33.0886 H   0  0  0  0  0  0  0  0  0  0  0  0
   50.6340  162.7900   32.0980 H   0  0  0  0  0  0  0  0  0  0  0  0
  1  2  2  0
  2  3  1  0
  3  4  1  0
  3  5  2  0
  5  6  1  0
  6  7  2  0
  7  8  1  0
  8  9  2  0
  9 10  1  0
 10 11  1  0
  9 12  1  0
 12 13  1  0
 13 14  1  0
 13 15  1  0
 12 16  2  0
  5 17  1  0
 17 18  1  0
 18 19  2  0
 19 20  1  0
 20 21  2  0
 21 22  1  0
 22 23  1  0
 22 24  2  0
 24  2  1  0
 16  6  1  0
 24 18  1  0
  4 25  1  0
  7 26  1  0
  8 27  1  0
 10 28  1  0
 10 29  1  0
 13 30  1  0
 16 31  1  0
 19 32  1  0
 20 33  1  0
 21 34  1  0
 23 35  1  0
M  END
>  <meeko>  (5) 
{"is_sidechain": [false], "free_energy": -8.929, "intermolecular_energy": -10.813, "internal_energy": -0.334}

$$$$
cand_019_out
     RDKit          3D

 35 37  0  0  0  0  0  0  0  0999 V2000
   48.5000  158.1250   31.1780 O   0  0  0  0  0  0  0  0  0  0  0  0
   49.6010  158.2930   30.6590 C   0  0  0  0  0  0  0  0  0  0  0  0
   50.1410  157.2980   29.7040 C   0  0  0  0  0  0  0  0  0  0  0  0
   49.3610  156.1860   29.4460 O   0  0  0  0  0  0  0  0  0  0  0  0
   51.3520  157.5210   29.1600 C   0  0  0  0  0  0  0  0  0  0  0  0
   51.9950  156.5920   28.2060 C   0  0  0  0  0  0  0  0  0  0  0  0
   52.8010  157.0520   27.1600 C   0  0  0  0  0  0  0  0  0  0  0  0
   53.4170  156.1540   26.2840 C   0  0  0  0  0  0  0  0  0  0  0  0
   53.2450  154.7700   26.4320 C   0  0  0  0  0  0  0  0  0  0  0  0
   53.9300  153.8290   25.4740 C   0  0  0  0  0  0  0  0  0  0  0  0
   53.4180  153.9070   24.2140 F   0  0  0  0  0  0  0  0  0  0  0  0
   52.4560  154.2870   27.4990 C   0  0  0  0  0  0  0  0  0  0  0  0
   52.2570  152.8040   27.7200 C   0  0  0  0  0  0  0  0  0  0  0  0
   51.5770  152.5370   28.8700 F   0  0  0  0  0  0  0  0  0  0  0  0
   51.5310  152.2070   26.7280 F   0  0  0  0  0  0  0  0  0  0  0  0
   51.8390  155.2070   28.3680 C   0  0  0  0  0  0  0  0  0  0  0  0
   52.1390  158.6290   29.4480 O   0  0  0  0  0  0  0  0  0  0  0  0
   51.6630  159.5720   30.3240 C   0  0  0  0  0  0  0  0  0  0  0  0
   52.4820  160.6730   30.5770 C   0  0  0  0  0  0  0  0  0  0  0  0
   52.0570  161.6690   31.4600 C   0  0  0  0  0  0  0  0  0  0  0  0
   50.8160  161.5620   32.0900 C   0  0  0  0  0  0  0  0  0  0  0  0
   50.0010  160.4620   31.8360 C   0  0  0  0  0  0  0  0  0  0  0  0
   48.7990  160.4210   32.4870 O   0  0  0  0  0  0  0  0  0  0  0  0
   50.4260  159.4670   30.9530 C   0  0  0  0  0  0  0  0  0  0  0  0
   48.4360  156.2180   29.5930 H   0  0  0  0  0  0  0  0  0  0  0  0
   52.9519  158.1332   27.0251 H   0  0  0  0  0  0  0  0  0  0  0  0
   54.0455  156.5381   25.4670 H   0  0  0  0  0  0  0  0  0  0  0  0
   55.0003  154.0803   25.4366 H   0  0  0  0  0  0  0  0  0  0  0  0
   53.7692  152.8037   25.8385 H   0  0  0  0  0  0  0  0  0  0  0  0
   53.2825  152.4073   27.7519 H   0  0  0  0  0  0  0  0  0  0  0  0
   51.2189  154.8305   29.1949 H   0  0  0  0  0  0  0  0  0  0  0  0
   53.4608  160.7567   30.0820 H   0  0  0  0  0  0  0  0  0  0  0  0
   52.7010  162.5383   31.6589 H   0  0  0  0  0  0  0  0  0  0  0  0
   50.4824  162.3456   32.7862 H   0  0  0  0  0  0  0  0  0  0  0  0
   48.6750  160.9130   33.2750 H   0  0  0  0  0  0  0  0  0  0  0  0
  1  2  2  0
  2  3  1  0
  3  4  1  0
  3  5  2  0
  5  6  1  0
  6  7  2  0
  7  8  1  0
  8  9  2  0
  9 10  1  0
 10 11  1  0
  9 12  1  0
 12 13  1  0
 13 14  1  0
 13 15  1  0
 12 16  2  0
  5 17  1  0
 17 18  1  0
 18 19  2  0
 19 20  1  0
 20 21  2  0
 21 22  1  0
 22 23  1  0
 22 24  2  0
 24  2  1  0
 16  6  1  0
 24 18  1  0
  4 25  1  0
  7 26  1  0
  8 27  1  0
 10 28  1  0
 10 29  1  0
 13 30  1  0
 16 31  1  0
 19 32  1  0
 20 33  1  0
 21 34  1  0
 23 35  1  0
M  END
>  <meeko>  (6) 
{"is_sidechain": [false], "free_energy": -8.473, "intermolecular_energy": -10.488, "internal_energy": -0.096}

$$$$
cand_019_out
     RDKit          3D

 35 37  0  0  0  0  0  0  0  0999 V2000
   52.9640  159.7450   29.8610 O   0  0  0  0  0  0  0  0  0  0  0  0
   52.2370  158.7780   29.6430 C   0  0  0  0  0  0  0  0  0  0  0  0
   52.6980  157.6720   28.7730 C   0  0  0  0  0  0  0  0  0  0  0  0
   53.9600  157.7920   28.2180 O   0  0  0  0  0  0  0  0  0  0  0  0
   51.8700  156.6340   28.5600 C   0  0  0  0  0  0  0  0  0  0  0  0
   52.2180  155.4810   27.7010 C   0  0  0  0  0  0  0  0  0  0  0  0
   51.5850  154.2420   27.8380 C   0  0  0  0  0  0  0  0  0  0  0  0
   51.9140  153.1730   27.0000 C   0  0  0  0  0  0  0  0  0  0  0  0
   52.8860  153.3170   25.9990 C   0  0  0  0  0  0  0  0  0  0  0  0
   53.2120  152.1460   25.1070 C   0  0  0  0  0  0  0  0  0  0  0  0
   53.6290  151.0570   25.8110 F   0  0  0  0  0  0  0  0  0  0  0  0
   53.5170  154.5680   25.8280 C   0  0  0  0  0  0  0  0  0  0  0  0
   54.5550  154.7850   24.7490 C   0  0  0  0  0  0  0  0  0  0  0  0
   54.9080  156.0950   24.6240 F   0  0  0  0  0  0  0  0  0  0  0  0
   55.7240  154.1210   24.9890 F   0  0  0  0  0  0  0  0  0  0  0  0
   53.1760  155.6320   26.6860 C   0  0  0  0  0  0  0  0  0  0  0  0
   50.5930  156.5370   29.1010 O   0  0  0  0  0  0  0  0  0  0  0  0
   50.1400  157.5430   29.9160 C   0  0  0  0  0  0  0  0  0  0  0  0
   48.8560  157.4010   30.4450 C   0  0  0  0  0  0  0  0  0  0  0  0
   48.3340  158.3900   31.2820 C   0  0  0  0  0  0  0  0  0  0  0  0
   49.0950  159.5210   31.5880 C   0  0  0  0  0  0  0  0  0  0  0  0
   50.3750  159.6600   31.0580 C   0  0  0  0  0  0  0  0  0  0  0  0
   51.0640  160.7910   31.3990 O   0  0  0  0  0  0  0  0  0  0  0  0
   50.8970  158.6700   30.2220 C   0  0  0  0  0  0  0  0  0  0  0  0
   54.4380  158.5920   28.3110 H   0  0  0  0  0  0  0  0  0  0  0  0
   50.8183  154.1068   28.6152 H   0  0  0  0  0  0  0  0  0  0  0  0
   51.4043  152.2065   27.1270 H   0  0  0  0  0  0  0  0  0  0  0  0
   52.3111  151.8745   24.5372 H   0  0  0  0  0  0  0  0  0  0  0  0
   54.0336  152.4498   24.4416 H   0  0  0  0  0  0  0  0  0  0  0  0
   54.0656  154.4064   23.8395 H   0  0  0  0  0  0  0  0  0  0  0  0
   53.6726  156.6051   26.5575 H   0  0  0  0  0  0  0  0  0  0  0  0
   48.2560  156.5114   30.2030 H   0  0  0  0  0  0  0  0  0  0  0  0
   47.3229  158.2783   31.7006 H   0  0  0  0  0  0  0  0  0  0  0  0
   48.6837  160.3003   32.2465 H   0  0  0  0  0  0  0  0  0  0  0  0
   51.8740  160.7250   31.8650 H   0  0  0  0  0  0  0  0  0  0  0  0
  1  2  2  0
  2  3  1  0
  3  4  1  0
  3  5  2  0
  5  6  1  0
  6  7  2  0
  7  8  1  0
  8  9  2  0
  9 10  1  0
 10 11  1  0
  9 12  1  0
 12 13  1  0
 13 14  1  0
 13 15  1  0
 12 16  2  0
  5 17  1  0
 17 18  1  0
 18 19  2  0
 19 20  1  0
 20 21  2  0
 21 22  1  0
 22 23  1  0
 22 24  2  0
 24  2  1  0
 16  6  1  0
 24 18  1  0
  4 25  1  0
  7 26  1  0
  8 27  1  0
 10 28  1  0
 10 29  1  0
 13 30  1  0
 16 31  1  0
 19 32  1  0
 20 33  1  0
 21 34  1  0
 23 35  1  0
M  END
>  <meeko>  (7) 
{"is_sidechain": [false], "free_energy": -8.275, "intermolecular_energy": -10.381, "internal_energy": 0.041}

$$$$
cand_019_out
     RDKit          3D

 35 37  0  0  0  0  0  0  0  0999 V2000
   54.6930  155.2040   24.8080 O   0  0  0  0  0  0  0  0  0  0  0  0
   53.8600  154.7600   25.5950 C   0  0  0  0  0  0  0  0  0  0  0  0
   53.1260  155.6700   26.5040 C   0  0  0  0  0  0  0  0  0  0  0  0
   53.4350  157.0170   26.4310 O   0  0  0  0  0  0  0  0  0  0  0  0
   52.2240  155.1420   27.3510 C   0  0  0  0  0  0  0  0  0  0  0  0
   51.4420  155.9520   28.3110 C   0  0  0  0  0  0  0  0  0  0  0  0
   50.2980  155.4500   28.9380 C   0  0  0  0  0  0  0  0  0  0  0  0
   49.5880  156.2250   29.8590 C   0  0  0  0  0  0  0  0  0  0  0  0
   50.0070  157.5240   30.1790 C   0  0  0  0  0  0  0  0  0  0  0  0
   49.2220  158.3310   31.1830 C   0  0  0  0  0  0  0  0  0  0  0  0
   48.0250  158.7520   30.6890 F   0  0  0  0  0  0  0  0  0  0  0  0
   51.1750  158.0380   29.5770 C   0  0  0  0  0  0  0  0  0  0  0  0
   51.6840  159.4240   29.9050 C   0  0  0  0  0  0  0  0  0  0  0  0
   50.8290  160.4020   29.4930 F   0  0  0  0  0  0  0  0  0  0  0  0
   51.8480  159.6320   31.2440 F   0  0  0  0  0  0  0  0  0  0  0  0
   51.8740  157.2440   28.6470 C   0  0  0  0  0  0  0  0  0  0  0  0
   51.9420  153.7840   27.4360 O   0  0  0  0  0  0  0  0  0  0  0  0
   52.6010  152.9170   26.6020 C   0  0  0  0  0  0  0  0  0  0  0  0
   52.2800  151.5630   26.7130 C   0  0  0  0  0  0  0  0  0  0  0  0
   52.9150  150.6270   25.8940 C   0  0  0  0  0  0  0  0  0  0  0  0
   53.8710  151.0440   24.9660 C   0  0  0  0  0  0  0  0  0  0  0  0
   54.1900  152.3950   24.8570 C   0  0  0  0  0  0  0  0  0  0  0  0
   55.1350  152.7330   23.9270 O   0  0  0  0  0  0  0  0  0  0  0  0
   53.5540  153.3310   25.6760 C   0  0  0  0  0  0  0  0  0  0  0  0
   52.7930  157.6280   26.1260 H   0  0  0  0  0  0  0  0  0  0  0  0
   49.9523  154.4324   28.7036 H   0  0  0  0  0  0  0  0  0  0  0  0
   48.6891  155.8106   30.3389 H   0  0  0  0  0  0  0  0  0  0  0  0
   49.0383  157.7080   32.0708 H   0  0  0  0  0  0  0  0  0  0  0  0
   49.8144  159.2237   31.4324 H   0  0  0  0  0  0  0  0  0  0  0  0
   52.6478  159.4769   29.3775 H   0  0  0  0  0  0  0  0  0  0  0  0
   52.7809  157.6467   28.1724 H   0  0  0  0  0  0  0  0  0  0  0  0
   51.5277  151.2337   27.4448 H   0  0  0  0  0  0  0  0  0  0  0  0
   52.6617  149.5600   25.9802 H   0  0  0  0  0  0  0  0  0  0  0  0
   54.3716  150.3062   24.3217 H   0  0  0  0  0  0  0  0  0  0  0  0
   55.6850  152.0720   23.5560 H   0  0  0  0  0  0  0  0  0  0  0  0
  1  2  2  0
  2  3  1  0
  3  4  1  0
  3  5  2  0
  5  6  1  0
  6  7  2  0
  7  8  1  0
  8  9  2  0
  9 10  1  0
 10 11  1  0
  9 12  1  0
 12 13  1  0
 13 14  1  0
 13 15  1  0
 12 16  2  0
  5 17  1  0
 17 18  1  0
 18 19  2  0
 19 20  1  0
 20 21  2  0
 21 22  1  0
 22 23  1  0
 22 24  2  0
 24  2  1  0
 16  6  1  0
 24 18  1  0
  4 25  1  0
  7 26  1  0
  8 27  1  0
 10 28  1  0
 10 29  1  0
 13 30  1  0
 16 31  1  0
 19 32  1  0
 20 33  1  0
 21 34  1  0
 23 35  1  0
M  END
>  <meeko>  (8) 
{"is_sidechain": [false], "free_energy": -8.217, "intermolecular_energy": -10.548, "internal_energy": 0.279}

$$$$
cand_019_out
     RDKit          3D

 35 37  0  0  0  0  0  0  0  0999 V2000
   54.6910  154.7540   24.1580 O   0  0  0  0  0  0  0  0  0  0  0  0
   53.9890  154.5240   25.1400 C   0  0  0  0  0  0  0  0  0  0  0  0
   53.5550  155.6260   26.0290 C   0  0  0  0  0  0  0  0  0  0  0  0
   53.9890  156.9000   25.7090 O   0  0  0  0  0  0  0  0  0  0  0  0
   52.7880  155.3290   27.0940 C   0  0  0  0  0  0  0  0  0  0  0  0
   52.3080  156.3450   28.0550 C   0  0  0  0  0  0  0  0  0  0  0  0
   53.0730  157.4680   28.3840 C   0  0  0  0  0  0  0  0  0  0  0  0
   52.5890  158.4280   29.2770 C   0  0  0  0  0  0  0  0  0  0  0  0
   51.3240  158.2890   29.8660 C   0  0  0  0  0  0  0  0  0  0  0  0
   50.8290  159.3460   30.8200 C   0  0  0  0  0  0  0  0  0  0  0  0
   50.2840  160.4150   30.1740 F   0  0  0  0  0  0  0  0  0  0  0  0
   50.5260  157.1750   29.5250 C   0  0  0  0  0  0  0  0  0  0  0  0
   49.1440  156.9890   30.1120 C   0  0  0  0  0  0  0  0  0  0  0  0
   48.3370  158.0640   29.8910 F   0  0  0  0  0  0  0  0  0  0  0  0
   48.4760  155.9240   29.5820 F   0  0  0  0  0  0  0  0  0  0  0  0
   51.0330  156.2170   28.6270 C   0  0  0  0  0  0  0  0  0  0  0  0
   52.3810  154.0410   27.4210 O   0  0  0  0  0  0  0  0  0  0  0  0
   52.7610  153.0000   26.6130 C   0  0  0  0  0  0  0  0  0  0  0  0
   52.3220  151.7250   26.9730 C   0  0  0  0  0  0  0  0  0  0  0  0
   52.6740  150.6210   26.1940 C   0  0  0  0  0  0  0  0  0  0  0  0
   53.4660  150.7910   25.0560 C   0  0  0  0  0  0  0  0  0  0  0  0
   53.9020  152.0650   24.6990 C   0  0  0  0  0  0  0  0  0  0  0  0
   54.6740  152.1590   23.5730 O   0  0  0  0  0  0  0  0  0  0  0  0
   53.5500  153.1680   25.4790 C   0  0  0  0  0  0  0  0  0  0  0  0
   54.9060  157.0720   25.6130 H   0  0  0  0  0  0  0  0  0  0  0  0
   54.0685  157.5976   27.9343 H   0  0  0  0  0  0  0  0  0  0  0  0
   53.2083  159.3038   29.5209 H   0  0  0  0  0  0  0  0  0  0  0  0
   50.0646  158.9013   31.4742 H   0  0  0  0  0  0  0  0  0  0  0  0
   51.6927  159.7077   31.3972 H   0  0  0  0  0  0  0  0  0  0  0  0
   49.3366  156.8388   31.1845 H   0  0  0  0  0  0  0  0  0  0  0  0
   50.4139  155.3457   28.3670 H   0  0  0  0  0  0  0  0  0  0  0  0
   51.6992  151.5900   27.8696 H   0  0  0  0  0  0  0  0  0  0  0  0
   52.3272  149.6161   26.4768 H   0  0  0  0  0  0  0  0  0  0  0  0
   53.7447  149.9210   24.4433 H   0  0  0  0  0  0  0  0  0  0  0  0
   55.0100  151.3840   23.1690 H   0  0  0  0  0  0  0  0  0  0  0  0
  1  2  2  0
  2  3  1  0
  3  4  1  0
  3  5  2  0
  5  6  1  0
  6  7  2  0
  7  8  1  0
  8  9  2  0
  9 10  1  0
 10 11  1  0
  9 12  1  0
 12 13  1  0
 13 14  1  0
 13 15  1  0
 12 16  2  0
  5 17  1  0
 17 18  1  0
 18 19  2  0
 19 20  1  0
 20 21  2  0
 21 22  1  0
 22 23  1  0
 22 24  2  0
 24  2  1  0
 16  6  1  0
 24 18  1  0
  4 25  1  0
  7 26  1  0
  8 27  1  0
 10 28  1  0
 10 29  1  0
 13 30  1  0
 16 31  1  0
 19 32  1  0
 20 33  1  0
 21 34  1  0
 23 35  1  0
M  END
>  <meeko>  (9) 
{"is_sidechain": [false], "free_energy": -7.961, "intermolecular_energy": -9.916, "internal_energy": -0.036}

$$$$
