cand_040_out
     RDKit          3D

 36 38  0  0  0  0  0  0  0  0999 V2000
   49.1600  160.7380   33.0750 C   0  0  0  0  0  0  0  0  0  0  0  0
   49.3560  160.7560   31.7500 C   0  0  0  0  0  0  0  0  0  0  0  0
   50.0060  159.6630   31.0130 C   0  0  0  0  0  0  0  0  0  0  0  0
   49.3000  158.4770   30.7670 C   0  0  0  0  0  0  0  0  0  0  0  0
   49.8770  157.4330   30.0390 C   0  0  0  0  0  0  0  0  0  0  0  0
   51.1730  157.5520   29.5230 C   0  0  0  0  0  0  0  0  0  0  0  0
   51.7740  156.4280   28.7760 C   0  0  0  0  0  0  0  0  0  0  0  0
   52.3480  156.8240   27.5730 O   0  0  0  0  0  0  0  0  0  0  0  0
   52.9430  155.8790   26.7790 C   0  0  0  0  0  0  0  0  0  0  0  0
   53.4920  156.3190   25.5730 C   0  0  0  0  0  0  0  0  0  0  0  0
   54.1150  155.4080   24.7180 C   0  0  0  0  0  0  0  0  0  0  0  0
   54.1890  154.0570   25.0680 C   0  0  0  0  0  0  0  0  0  0  0  0
   53.6400  153.6210   26.2710 C   0  0  0  0  0  0  0  0  0  0  0  0
   53.7480  152.2870   26.5510 O   0  0  0  0  0  0  0  0  0  0  0  0
   53.0160  154.5330   27.1260 C   0  0  0  0  0  0  0  0  0  0  0  0
   52.4260  154.1170   28.3990 C   0  0  0  0  0  0  0  0  0  0  0  0
   52.4580  152.9480   28.7800 O   0  0  0  0  0  0  0  0  0  0  0  0
   51.7820  155.1600   29.2300 C   0  0  0  0  0  0  0  0  0  0  0  0
   51.2400  154.7590   30.4360 O   0  0  0  0  0  0  0  0  0  0  0  0
   51.8800  158.7390   29.7690 C   0  0  0  0  0  0  0  0  0  0  0  0
   51.3130  159.7980   30.5050 C   0  0  0  0  0  0  0  0  0  0  0  0
   52.1230  161.0480   30.7200 C   0  0  0  0  0  0  0  0  0  0  0  0
   48.6668  161.5878   33.5696 H   0  0  0  0  0  0  0  0  0  0  0  0
   49.4923  159.8735   33.6684 H   0  0  0  0  0  0  0  0  0  0  0  0
   49.0126  161.6345   31.1840 H   0  0  0  0  0  0  0  0  0  0  0  0
   48.2759  158.3665   31.1531 H   0  0  0  0  0  0  0  0  0  0  0  0
   49.3068  156.5077   29.8696 H   0  0  0  0  0  0  0  0  0  0  0  0
   53.4337  157.3822   25.2969 H   0  0  0  0  0  0  0  0  0  0  0  0
   54.5481  155.7539   23.7679 H   0  0  0  0  0  0  0  0  0  0  0  0
   54.6801  153.3394   24.3943 H   0  0  0  0  0  0  0  0  0  0  0  0
   53.5390  151.6510   25.8940 H   0  0  0  0  0  0  0  0  0  0  0  0
   50.5950  154.0790   30.4570 H   0  0  0  0  0  0  0  0  0  0  0  0
   52.9024  158.8452   29.3774 H   0  0  0  0  0  0  0  0  0  0  0  0
   52.2398  161.2282   31.7988 H   0  0  0  0  0  0  0  0  0  0  0  0
   53.1144  160.9263   30.2592 H   0  0  0  0  0  0  0  0  0  0  0  0
   51.6069  161.9031   30.2592 H   0  0  0  0  0  0  0  0  0  0  0  0
  1  2  2  0
  2  3  1  0
  3  4  2  0
  4  5  1  0
  5  6  2  0
  6  7  1  0
  7  8  1  0
  8  9  1  0
  9 10  2  0
 10 11  1  0
 11 12  2  0
 12 13  1  0
 13 14  1  0
 13 15  2  0
 15 16  1  0
 16 17  2  0
 16 18  1  0
 18 19  1  0
  6 20  1  0
 20 21  2  0
 21 22  1  0
 21  3  1  0
 18  7  2  0
 15  9  1  0
  1 23  1  0
  1 24  1  0
  2 25  1  0
  4 26  1  0
  5 27  1  0
 10 28  1  0
 11 29  1  0
 12 30  1  0
 14 31  1  0
 19 32  1  0
 20 33  1  0
 22 34  1  0
 22 35  1  0
 22 36  1  0
M  END
>  <meeko>  (1) 
{"is_sidechain": [false], "free_energy": -10.867, "intermolecular_energy": -12.773, "internal_energy": -0.183}

$$$$
cand_040_out
     RDKit          3D

 36 38  0  0  0  0  0  0  0  0999 V2000
   50.0150  161.3030   32.9810 C   0  0  0  0  0  0  0  0  0  0  0  0
   49.9540  161.1940   31.6480 C   0  0  0  0  0  0  0  0  0  0  0  0
   50.3920  159.9990   30.9120 C   0  0  0  0  0  0  0  0  0  0  0  0
   51.7010  159.9340   30.4130 C   0  0  0  0  0  0  0  0  0  0  0  0
   52.1590  158.7980   29.7390 C   0  0  0  0  0  0  0  0  0  0  0  0
   51.3240  157.6900   29.5580 C   0  0  0  0  0  0  0  0  0  0  0  0
   51.8190  156.5070   28.8220 C   0  0  0  0  0  0  0  0  0  0  0  0
   52.4140  156.8360   27.6100 O   0  0  0  0  0  0  0  0  0  0  0  0
   52.9190  155.8320   26.8240 C   0  0  0  0  0  0  0  0  0  0  0  0
   53.4930  156.2070   25.6080 C   0  0  0  0  0  0  0  0  0  0  0  0
   54.0280  155.2340   24.7620 C   0  0  0  0  0  0  0  0  0  0  0  0
   53.9870  153.8860   25.1300 C   0  0  0  0  0  0  0  0  0  0  0  0
   53.4130  153.5160   26.3430 C   0  0  0  0  0  0  0  0  0  0  0  0
   53.4070  152.1810   26.6410 O   0  0  0  0  0  0  0  0  0  0  0  0
   52.8780  154.4900   27.1900 C   0  0  0  0  0  0  0  0  0  0  0  0
   52.2650  154.1440   28.4730 C   0  0  0  0  0  0  0  0  0  0  0  0
   52.1990  152.9820   28.8700 O   0  0  0  0  0  0  0  0  0  0  0  0
   51.7210  155.2500   29.2940 C   0  0  0  0  0  0  0  0  0  0  0  0
   51.1570  154.9130   30.5100 O   0  0  0  0  0  0  0  0  0  0  0  0
   50.0140  157.7540   30.0570 C   0  0  0  0  0  0  0  0  0  0  0  0
   49.5370  158.8940   30.7350 C   0  0  0  0  0  0  0  0  0  0  0  0
   48.1250  158.8910   31.2550 C   0  0  0  0  0  0  0  0  0  0  0  0
   49.6713  162.2244   33.4738 H   0  0  0  0  0  0  0  0  0  0  0  0
   50.4088  160.4711   33.5834 H   0  0  0  0  0  0  0  0  0  0  0  0
   49.5553  162.0430   31.0734 H   0  0  0  0  0  0  0  0  0  0  0  0
   52.3776  160.7898   30.5540 H   0  0  0  0  0  0  0  0  0  0  0  0
   53.1865  158.7750   29.3469 H   0  0  0  0  0  0  0  0  0  0  0  0
   53.5237  157.2674   25.3170 H   0  0  0  0  0  0  0  0  0  0  0  0
   54.4824  155.5284   23.8045 H   0  0  0  0  0  0  0  0  0  0  0  0
   54.4074  153.1194   24.4625 H   0  0  0  0  0  0  0  0  0  0  0  0
   54.1500  151.6500   26.4280 H   0  0  0  0  0  0  0  0  0  0  0  0
   51.5000  154.1930   31.0020 H   0  0  0  0  0  0  0  0  0  0  0  0
   49.3432  156.8938   29.9156 H   0  0  0  0  0  0  0  0  0  0  0  0
   48.1393  158.8910   32.3549 H   0  0  0  0  0  0  0  0  0  0  0  0
   47.5998  159.7880   30.8951 H   0  0  0  0  0  0  0  0  0  0  0  0
   47.6036  157.9918   30.8951 H   0  0  0  0  0  0  0  0  0  0  0  0
  1  2  2  0
  2  3  1  0
  3  4  2  0
  4  5  1  0
  5  6  2  0
  6  7  1  0
  7  8  1  0
  8  9  1  0
  9 10  2  0
 10 11  1  0
 11 12  2  0
 12 13  1  0
 13 14  1  0
 13 15  2  0
 15 16  1  0
 16 17  2  0
 16 18  1  0
 18 19  1  0
  6 20  1  0
 20 21  2  0
 21 22  1  0
 21  3  1  0
 18  7  2  0
 15  9  1  0
  1 23  1  0
  1 24  1  0
  2 25  1  0
  4 26  1  0
  5 27  1  0
 10 28  1  0
 11 29  1  0
 12 30  1  0
 14 31  1  0
 19 32  1  0
 20 33  1  0
 22 34  1  0
 22 35  1  0
 22 36  1  0
M  END
>  <meeko>  (2) 
{"is_sidechain": [false], "free_energy": -10.768, "intermolecular_energy": -12.672, "internal_energy": -0.168}

$$$$
cand_040_out
     RDKit          3D

 36 38  0  0  0  0  0  0  0  0999 V2000
   52.2350  152.3190   26.5980 C   0  0  0  0  0  0  0  0  0  0  0  0
   52.9940  153.4120   26.7480 C   0  0  0  0  0  0  0  0  0  0  0  0
   52.5490  154.6150   27.4660 C   0  0  0  0  0  0  0  0  0  0  0  0
   51.8600  154.4820   28.6800 C   0  0  0  0  0  0  0  0  0  0  0  0
   51.4550  155.6070   29.4050 C   0  0  0  0  0  0  0  0  0  0  0  0
   51.7400  156.8960   28.9410 C   0  0  0  0  0  0  0  0  0  0  0  0
   51.2820  158.0720   29.7100 C   0  0  0  0  0  0  0  0  0  0  0  0
   49.9500  157.9790   30.0970 O   0  0  0  0  0  0  0  0  0  0  0  0
   49.3950  159.0040   30.8190 C   0  0  0  0  0  0  0  0  0  0  0  0
   48.0500  158.8750   31.1720 C   0  0  0  0  0  0  0  0  0  0  0  0
   47.4250  159.8830   31.9090 C   0  0  0  0  0  0  0  0  0  0  0  0
   48.1420  161.0200   32.2910 C   0  0  0  0  0  0  0  0  0  0  0  0
   49.4830  161.1450   31.9370 C   0  0  0  0  0  0  0  0  0  0  0  0
   50.1250  162.2820   32.3450 O   0  0  0  0  0  0  0  0  0  0  0  0
   50.1090  160.1360   31.1990 C   0  0  0  0  0  0  0  0  0  0  0  0
   51.5150  160.2290   30.8060 C   0  0  0  0  0  0  0  0  0  0  0  0
   52.2150  161.1930   31.1120 O   0  0  0  0  0  0  0  0  0  0  0  0
   52.0820  159.1100   30.0190 C   0  0  0  0  0  0  0  0  0  0  0  0
   53.4150  159.2010   29.6640 O   0  0  0  0  0  0  0  0  0  0  0  0
   52.4290  157.0300   27.7270 C   0  0  0  0  0  0  0  0  0  0  0  0
   52.8410  155.9050   26.9830 C   0  0  0  0  0  0  0  0  0  0  0  0
   53.5860  156.1210   25.6940 C   0  0  0  0  0  0  0  0  0  0  0  0
   52.6255  151.4493   26.0492 H   0  0  0  0  0  0  0  0  0  0  0  0
   51.2210  152.2909   27.0236 H   0  0  0  0  0  0  0  0  0  0  0  0
   54.0035  153.4095   26.3110 H   0  0  0  0  0  0  0  0  0  0  0  0
   51.6347  153.4776   29.0678 H   0  0  0  0  0  0  0  0  0  0  0  0
   50.9067  155.4774   30.3498 H   0  0  0  0  0  0  0  0  0  0  0  0
   47.4842  157.9813   30.8701 H   0  0  0  0  0  0  0  0  0  0  0  0
   46.3662  159.7818   32.1894 H   0  0  0  0  0  0  0  0  0  0  0  0
   47.6483  161.8144   32.8700 H   0  0  0  0  0  0  0  0  0  0  0  0
   50.0980  163.0530   31.8120 H   0  0  0  0  0  0  0  0  0  0  0  0
   54.0570  158.6960   30.1230 H   0  0  0  0  0  0  0  0  0  0  0  0
   52.6536  158.0371   27.3458 H   0  0  0  0  0  0  0  0  0  0  0  0
   54.6210  156.4211   25.9146 H   0  0  0  0  0  0  0  0  0  0  0  0
   53.5910  155.1873   25.1125 H   0  0  0  0  0  0  0  0  0  0  0  0
   53.0907  156.9125   25.1125 H   0  0  0  0  0  0  0  0  0  0  0  0
  1  2  2  0
  2  3  1  0
  3  4  2  0
  4  5  1  0
  5  6  2  0
  6  7  1  0
  7  8  1  0
  8  9  1  0
  9 10  2  0
 10 11  1  0
 11 12  2  0
 12 13  1  0
 13 14  1  0
 13 15  2  0
 15 16  1  0
 16 17  2  0
 16 18  1  0
 18 19  1  0
  6 20  1  0
 20 21  2  0
 21 22  1  0
 21  3  1  0
 18  7  2  0
 15  9  1  0
  1 23  1  0
  1 24  1  0
  2 25  1  0
  4 26  1  0
  5 27  1  0
 10 28  1  0
 11 29  1  0
 12 30  1  0
 14 31  1  0
 19 32  1  0
 20 33  1  0
 22 34  1  0
 22 35  1  0
 22 36  1  0
M  END
>  <meeko>  (3) 
{"is_sidechain": [false], "free_energy": -10.017, "intermolecular_energy": -11.739, "internal_energy": -0.218}

$$$$
cand_040_out
     RDKit          3D

 36 38  0  0  0  0  0  0  0  0999 V2000
   52.7890  152.0040   26.0900 C   0  0  0  0  0  0  0  0  0  0  0  0
   53.4870  153.0200   26.6130 C   0  0  0  0  0  0  0  0  0  0  0  0
   52.8670  154.1510   27.3190 C   0  0  0  0  0  0  0  0  0  0  0  0
   52.1740  153.9230   28.5170 C   0  0  0  0  0  0  0  0  0  0  0  0
   51.6040  154.9820   29.2300 C   0  0  0  0  0  0  0  0  0  0  0  0
   51.7230  156.2980   28.7710 C   0  0  0  0  0  0  0  0  0  0  0  0
   51.0920  157.4010   29.5270 C   0  0  0  0  0  0  0  0  0  0  0  0
   51.9700  158.4470   29.7900 O   0  0  0  0  0  0  0  0  0  0  0  0
   51.5130  159.5370   30.4850 C   0  0  0  0  0  0  0  0  0  0  0  0
   52.4330  160.5560   30.7400 C   0  0  0  0  0  0  0  0  0  0  0  0
   52.0330  161.6950   31.4420 C   0  0  0  0  0  0  0  0  0  0  0  0
   50.7140  161.8150   31.8890 C   0  0  0  0  0  0  0  0  0  0  0  0
   49.8000  160.7960   31.6330 C   0  0  0  0  0  0  0  0  0  0  0  0
   48.5270  160.9800   32.0980 O   0  0  0  0  0  0  0  0  0  0  0  0
   50.2010  159.6570   30.9310 C   0  0  0  0  0  0  0  0  0  0  0  0
   49.2720  158.5630   30.6420 C   0  0  0  0  0  0  0  0  0  0  0  0
   48.0950  158.5990   30.9950 O   0  0  0  0  0  0  0  0  0  0  0  0
   49.7980  157.3960   29.8980 C   0  0  0  0  0  0  0  0  0  0  0  0
   48.9090  156.3750   29.6180 O   0  0  0  0  0  0  0  0  0  0  0  0
   52.4160  156.5260   27.5730 C   0  0  0  0  0  0  0  0  0  0  0  0
   52.9930  155.4690   26.8410 C   0  0  0  0  0  0  0  0  0  0  0  0
   53.7330  155.7860   25.5700 C   0  0  0  0  0  0  0  0  0  0  0  0
   53.3120  151.1861   25.5728 H   0  0  0  0  0  0  0  0  0  0  0  0
   51.6926  151.9873   26.1775 H   0  0  0  0  0  0  0  0  0  0  0  0
   54.5820  153.0079   26.5090 H   0  0  0  0  0  0  0  0  0  0  0  0
   52.0776  152.8967   28.9009 H   0  0  0  0  0  0  0  0  0  0  0  0
   51.0561  154.7781   30.1618 H   0  0  0  0  0  0  0  0  0  0  0  0
   53.4711  160.4617   30.3885 H   0  0  0  0  0  0  0  0  0  0  0  0
   52.7566  162.4986   31.6434 H   0  0  0  0  0  0  0  0  0  0  0  0
   50.3987  162.7123   32.4417 H   0  0  0  0  0  0  0  0  0  0  0  0
   47.8600  161.3030   31.5240 H   0  0  0  0  0  0  0  0  0  0  0  0
   48.7120  155.7330   30.2720 H   0  0  0  0  0  0  0  0  0  0  0  0
   52.5114  157.5549   27.1957 H   0  0  0  0  0  0  0  0  0  0  0  0
   54.7187  156.2082   25.8152 H   0  0  0  0  0  0  0  0  0  0  0  0
   53.8643  154.8652   24.9828 H   0  0  0  0  0  0  0  0  0  0  0  0
   53.1570  156.5163   24.9828 H   0  0  0  0  0  0  0  0  0  0  0  0
  1  2  2  0
  2  3  1  0
  3  4  2  0
  4  5  1  0
  5  6  2  0
  6  7  1  0
  7  8  1  0
  8  9  1  0
  9 10  2  0
 10 11  1  0
 11 12  2  0
 12 13  1  0
 13 14  1  0
 13 15  2  0
 15 16  1  0
 16 17  2  0
 16 18  1  0
 18 19  1  0
  6 20  1  0
 20 21  2  0
 21 22  1  0
 21  3  1  0
 18  7  2  0
 15  9  1  0
  1 23  1  0
  1 24  1  0
  2 25  1  0
  4 26  1  0
  5 27  1  0
 10 28  1  0
 11 29  1  0
 12 30  1  0
 14 31  1  0
 19 32  1  0
 20 33  1  0
 22 34  1  0
 22 35  1  0
 22 36  1  0
M  END
>  <meeko>  (4) 
{"is_sidechain": [false], "free_energy": -9.085, "intermolecular_energy": -10.651, "internal_energy": -0.21}

$$$$
cand_040_out
     RDKit          3D

 36 38  0  0  0  0  0  0  0  0999 V2000
   48.2310  159.0070   30.7890 C   0  0  0  0  0  0  0  0  0  0  0  0
   49.3550  158.3600   31.1250 C   0  0  0  0  0  0  0  0  0  0  0  0
   50.1390  157.5540   30.1780 C   0  0  0  0  0  0  0  0  0  0  0  0
   49.6590  156.3000   29.7730 C   0  0  0  0  0  0  0  0  0  0  0  0
   50.3640  155.5240   28.8480 C   0  0  0  0  0  0  0  0  0  0  0  0
   51.5610  155.9880   28.2920 C   0  0  0  0  0  0  0  0  0  0  0  0
   52.3040  155.1430   27.3340 C   0  0  0  0  0  0  0  0  0  0  0  0
   51.9790  153.7950   27.4380 O   0  0  0  0  0  0  0  0  0  0  0  0
   52.5950  152.8970   26.6060 C   0  0  0  0  0  0  0  0  0  0  0  0
   52.2510  151.5530   26.7570 C   0  0  0  0  0  0  0  0  0  0  0  0
   52.8410  150.5870   25.9390 C   0  0  0  0  0  0  0  0  0  0  0  0
   53.7760  150.9650   24.9710 C   0  0  0  0  0  0  0  0  0  0  0  0
   54.1170  152.3060   24.8240 C   0  0  0  0  0  0  0  0  0  0  0  0
   55.0370  152.6060   23.8570 O   0  0  0  0  0  0  0  0  0  0  0  0
   53.5270  153.2730   25.6420 C   0  0  0  0  0  0  0  0  0  0  0  0
   53.8580  154.6930   25.5200 C   0  0  0  0  0  0  0  0  0  0  0  0
   54.6640  155.1040   24.6880 O   0  0  0  0  0  0  0  0  0  0  0  0
   53.1830  155.6360   26.4410 C   0  0  0  0  0  0  0  0  0  0  0  0
   53.4930  156.9760   26.3080 O   0  0  0  0  0  0  0  0  0  0  0  0
   52.0420  157.2420   28.6970 C   0  0  0  0  0  0  0  0  0  0  0  0
   51.3440  158.0340   29.6310 C   0  0  0  0  0  0  0  0  0  0  0  0
   51.9110  159.3750   30.0130 C   0  0  0  0  0  0  0  0  0  0  0  0
   47.6882  159.5948   31.5438 H   0  0  0  0  0  0  0  0  0  0  0  0
   47.8510  158.9504   29.7583 H   0  0  0  0  0  0  0  0  0  0  0  0
   49.7097  158.4358   32.1635 H   0  0  0  0  0  0  0  0  0  0  0  0
   48.7138  155.9214   30.1893 H   0  0  0  0  0  0  0  0  0  0  0  0
   49.9735  154.5385   28.5544 H   0  0  0  0  0  0  0  0  0  0  0  0
   51.5161  151.2549   27.5193 H   0  0  0  0  0  0  0  0  0  0  0  0
   52.5697  149.5275   26.0565 H   0  0  0  0  0  0  0  0  0  0  0  0
   54.2411  150.2041   24.3270 H   0  0  0  0  0  0  0  0  0  0  0  0
   55.8220  153.0660   24.0820 H   0  0  0  0  0  0  0  0  0  0  0  0
   53.8740  157.4420   27.0260 H   0  0  0  0  0  0  0  0  0  0  0  0
   52.9866  157.6163   28.2755 H   0  0  0  0  0  0  0  0  0  0  0  0
   51.9466  159.4592   31.1092 H   0  0  0  0  0  0  0  0  0  0  0  0
   52.9276  159.4731   29.6045 H   0  0  0  0  0  0  0  0  0  0  0  0
   51.2731  160.1726   29.6045 H   0  0  0  0  0  0  0  0  0  0  0  0
  1  2  2  0
  2  3  1  0
  3  4  2  0
  4  5  1  0
  5  6  2  0
  6  7  1  0
  7  8  1  0
  8  9  1  0
  9 10  2  0
 10 11  1  0
 11 12  2  0
 12 13  1  0
 13 14  1  0
 13 15  2  0
 15 16  1  0
 16 17  2  0
 16 18  1  0
 18 19  1  0
  6 20  1  0
 20 21  2  0
 21 22  1  0
 21  3  1  0
 18  7  2  0
 15  9  1  0
  1 23  1  0
  1 24  1  0
  2 25  1  0
  4 26  1  0
  5 27  1  0
 10 28  1  0
 11 29  1  0
 12 30  1  0
 14 31  1  0
 19 32  1  0
 20 33  1  0
 22 34  1  0
 22 35  1  0
 22 36  1  0
M  END
>  <meeko>  (5) 
{"is_sidechain": [false], "free_energy": -8.946, "intermolecular_energy": -10.751, "internal_energy": 0.053}

$$$$
cand_040_out
     RDKit          3D

 36 38  0  0  0  0  0  0  0  0999 V2000
   54.1510  154.2340   25.0680 C   0  0  0  0  0  0  0  0  0  0  0  0
   53.5880  153.8750   26.2280 C   0  0  0  0  0  0  0  0  0  0  0  0
   52.9290  154.8230   27.1380 C   0  0  0  0  0  0  0  0  0  0  0  0
   53.0920  156.2010   26.9370 C   0  0  0  0  0  0  0  0  0  0  0  0
   52.4520  157.1290   27.7630 C   0  0  0  0  0  0  0  0  0  0  0  0
   51.6180  156.7040   28.8040 C   0  0  0  0  0  0  0  0  0  0  0  0
   50.9680  157.7000   29.6810 C   0  0  0  0  0  0  0  0  0  0  0  0
   51.7870  158.7900   29.9590 O   0  0  0  0  0  0  0  0  0  0  0  0
   51.3070  159.7910   30.7630 C   0  0  0  0  0  0  0  0  0  0  0  0
   52.1680  160.8580   31.0280 C   0  0  0  0  0  0  0  0  0  0  0  0
   51.7410  161.9120   31.8380 C   0  0  0  0  0  0  0  0  0  0  0  0
   50.4540  161.9000   32.3830 C   0  0  0  0  0  0  0  0  0  0  0  0
   49.5990  160.8350   32.1160 C   0  0  0  0  0  0  0  0  0  0  0  0
   48.3530  160.8880   32.6800 O   0  0  0  0  0  0  0  0  0  0  0  0
   50.0260  159.7800   31.3060 C   0  0  0  0  0  0  0  0  0  0  0  0
   49.1580  158.6420   31.0010 C   0  0  0  0  0  0  0  0  0  0  0  0
   48.0110  158.5630   31.4370 O   0  0  0  0  0  0  0  0  0  0  0  0
   49.7090  157.5710   30.1390 C   0  0  0  0  0  0  0  0  0  0  0  0
   48.8770  156.5080   29.8460 O   0  0  0  0  0  0  0  0  0  0  0  0
   51.4550  155.3250   29.0050 C   0  0  0  0  0  0  0  0  0  0  0  0
   52.0980  154.3770   28.1830 C   0  0  0  0  0  0  0  0  0  0  0  0
   51.8690  152.9140   28.4470 C   0  0  0  0  0  0  0  0  0  0  0  0
   54.6292  153.4755   24.4308 H   0  0  0  0  0  0  0  0  0  0  0  0
   54.1355  155.2875   24.7519 H   0  0  0  0  0  0  0  0  0  0  0  0
   53.6201  152.8138   26.5158 H   0  0  0  0  0  0  0  0  0  0  0  0
   53.7331  156.5569   26.1170 H   0  0  0  0  0  0  0  0  0  0  0  0
   52.6052  158.2050   27.5934 H   0  0  0  0  0  0  0  0  0  0  0  0
   53.1810  160.8681   30.5993 H   0  0  0  0  0  0  0  0  0  0  0  0
   52.4184  162.7530   32.0475 H   0  0  0  0  0  0  0  0  0  0  0  0
   50.1178  162.7303   33.0214 H   0  0  0  0  0  0  0  0  0  0  0  0
   47.7950  161.6240   32.5170 H   0  0  0  0  0  0  0  0  0  0  0  0
   48.2500  156.2150   30.4790 H   0  0  0  0  0  0  0  0  0  0  0  0
   50.8096  154.9749   29.8241 H   0  0  0  0  0  0  0  0  0  0  0  0
   51.8413  152.7372   29.5323 H   0  0  0  0  0  0  0  0  0  0  0  0
   50.9118  152.6063   28.0009 H   0  0  0  0  0  0  0  0  0  0  0  0
   52.6864  152.3286   28.0009 H   0  0  0  0  0  0  0  0  0  0  0  0
  1  2  2  0
  2  3  1  0
  3  4  2  0
  4  5  1  0
  5  6  2  0
  6  7  1  0
  7  8  1  0
  8  9  1  0
  9 10  2  0
 10 11  1  0
 11 12  2  0
 12 13  1  0
 13 14  1  0
 13 15  2  0
 15 16  1  0
 16 17  2  0
 16 18  1  0
 18 19  1  0
  6 20  1  0
 20 21  2  0
 21 22  1  0
 21  3  1  0
 18  7  2  0
 15  9  1  0
  1 23  1  0
  1 24  1  0
  2 25  1  0
  4 26  1  0
  5 27  1  0
 10 28  1  0
 11 29  1  0
 12 30  1  0
 14 31  1  0
 19 32  1  0
 20 33  1  0
 22 34  1  0
 22 35  1  0
 22 36  1  0
M  END
>  <meeko>  (6) 
{"is_sidechain": [false], "free_energy": -8.265, "intermolecular_energy": -9.791, "internal_energy": -0.106}

$$$$
