cand_020_out
     RDKit          3D

 50 53  0  0  0  0  0  0  0  0999 V2000
   53.0960  162.2050   30.9250 C   0  0  0  0  0  0  0  0  0  0  0  0
   51.8190  161.4020   31.1210 C   0  0  0  0  0  0  0  0  0  0  0  0
   51.8910  160.0480   30.4500 C   0  0  0  0  0  0  0  0  0  0  0  0
   53.1260  159.6030   29.9540 C   0  0  0  0  0  0  0  0  0  0  0  0
   53.2370  158.3690   29.3120 C   0  0  0  0  0  0  0  0  0  0  0  0
   52.1140  157.5510   29.1410 C   0  0  0  0  0  0  0  0  0  0  0  0
   52.2560  156.2340   28.4840 C   0  0  0  0  0  0  0  0  0  0  0  0
   52.7710  156.3270   27.1960 O   0  0  0  0  0  0  0  0  0  0  0  0
   52.9540  155.1780   26.4710 C   0  0  0  0  0  0  0  0  0  0  0  0
   53.4870  155.3170   25.1880 C   0  0  0  0  0  0  0  0  0  0  0  0
   53.6980  154.1860   24.3960 C   0  0  0  0  0  0  0  0  0  0  0  0
   53.3760  152.9180   24.8840 C   0  0  0  0  0  0  0  0  0  0  0  0
   52.8440  152.7830   26.1640 C   0  0  0  0  0  0  0  0  0  0  0  0
   52.5510  151.5140   26.5800 O   0  0  0  0  0  0  0  0  0  0  0  0
   52.6340  153.9140   26.9580 C   0  0  0  0  0  0  0  0  0  0  0  0
   52.0780  153.8170   28.3080 C   0  0  0  0  0  0  0  0  0  0  0  0
   51.7640  152.7370   28.8050 O   0  0  0  0  0  0  0  0  0  0  0  0
   51.9020  155.0750   29.0690 C   0  0  0  0  0  0  0  0  0  0  0  0
   51.3640  154.9710   30.3390 O   0  0  0  0  0  0  0  0  0  0  0  0
   50.8810  157.9970   29.6400 C   0  0  0  0  0  0  0  0  0  0  0  0
   50.7470  159.2430   30.2830 C   0  0  0  0  0  0  0  0  0  0  0  0
   49.5020  159.6970   30.7770 N   0  0  0  0  0  0  0  0  0  0  0  0
   48.3630  158.8920   30.3070 C   0  0  0  0  0  0  0  0  0  0  0  0
   47.0640  159.6010   30.6880 C   0  0  0  0  0  0  0  0  0  0  0  0
   47.0040  159.8660   32.1920 C   0  0  0  0  0  0  0  0  0  0  0  0
   48.2510  160.6100   32.6670 C   0  0  0  0  0  0  0  0  0  0  0  0
   49.5290  159.8860   32.2360 C   0  0  0  0  0  0  0  0  0  0  0  0
   53.5169  162.4697   31.9062 H   0  0  0  0  0  0  0  0  0  0  0  0
   53.8254  161.6027   30.3635 H   0  0  0  0  0  0  0  0  0  0  0  0
   52.8691  163.1233   30.3635 H   0  0  0  0  0  0  0  0  0  0  0  0
   51.6536  161.2557   32.1986 H   0  0  0  0  0  0  0  0  0  0  0  0
   50.9913  161.9638   30.6635 H   0  0  0  0  0  0  0  0  0  0  0  0
   54.0183  160.2352   30.0728 H   0  0  0  0  0  0  0  0  0  0  0  0
   54.2160  158.0360   28.9368 H   0  0  0  0  0  0  0  0  0  0  0  0
   53.7403  156.3153   24.8017 H   0  0  0  0  0  0  0  0  0  0  0  0
   54.1188  154.2945   23.3855 H   0  0  0  0  0  0  0  0  0  0  0  0
   53.5421  152.0281   24.2591 H   0  0  0  0  0  0  0  0  0  0  0  0
   53.0030  150.7820   26.2070 H   0  0  0  0  0  0  0  0  0  0  0  0
   50.8840  154.2040   30.5830 H   0  0  0  0  0  0  0  0  0  0  0  0
   49.9944  157.3559   29.5259 H   0  0  0  0  0  0  0  0  0  0  0  0
   48.4158  158.7806   29.2139 H   0  0  0  0  0  0  0  0  0  0  0  0
   48.3938  157.8958   30.7725 H   0  0  0  0  0  0  0  0  0  0  0  0
   47.0069  160.5596   30.1515 H   0  0  0  0  0  0  0  0  0  0  0  0
   46.2183  158.9537   30.4127 H   0  0  0  0  0  0  0  0  0  0  0  0
   46.1152  160.4746   32.4149 H   0  0  0  0  0  0  0  0  0  0  0  0
   46.9511  158.9004   32.7162 H   0  0  0  0  0  0  0  0  0  0  0  0
   48.2501  161.6222   32.2363 H   0  0  0  0  0  0  0  0  0  0  0  0
   48.2311  160.6544   33.7659 H   0  0  0  0  0  0  0  0  0  0  0  0
   50.4062  160.4887   32.5139 H   0  0  0  0  0  0  0  0  0  0  0  0
   49.5901  158.9086   32.7369 H   0  0  0  0  0  0  0  0  0  0  0  0
  1  2  1  0
  2  3  1  0
  3  4  2  0
  4  5  1  0
  5  6  2  0
  6  7  1  0
  7  8  1  0
  8  9  1  0
  9 10  2  0
 10 11  1  0
 11 12  2  0
 12 13  1  0
 13 14  1  0
 13 15  2  0
 15 16  1  0
 16 17  2  0
 16 18  1  0
 18 19  1  0
  6 20  1  0
 20 21  2  0
 21 22  1  0
 22 23  1  0
 23 24  1  0
 24 25  1  0
 25 26  1  0
 26 27  1  0
 21  3  1  0
 27 22  1  0
 18  7  2  0
 15  9  1  0
  1 28  1  0
  1 29  1  0
  1 30  1  0
  2 31  1  0
  2 32  1  0
  4 33  1  0
  5 34  1  0
 10 35  1  0
 11 36  1  0
 12 37  1  0
 14 38  1  0
 19 39  1  0
 20 40  1  0
 23 41  1  0
 23 42  1  0
 24 43  1  0
 24 44  1  0
 25 45  1  0
 25 46  1  0
 26 47  1  0
 26 48  1  0
 27 49  1  0
 27 50  1  0
M  END
>  <meeko>  (1) 
{"is_sidechain": [false], "free_energy": -9.654, "intermolecular_energy": -11.911, "internal_energy": -0.13}

$$$$
cand_020_out
     RDKit          3D

 50 53  0  0  0  0  0  0  0  0999 V2000
   51.6200  151.3410   28.0600 C   0  0  0  0  0  0  0  0  0  0  0  0
   52.4060  152.4290   27.3440 C   0  0  0  0  0  0  0  0  0  0  0  0
   52.1340  153.8010   27.9220 C   0  0  0  0  0  0  0  0  0  0  0  0
   51.4540  153.8970   29.1450 C   0  0  0  0  0  0  0  0  0  0  0  0
   51.1640  155.1420   29.7070 C   0  0  0  0  0  0  0  0  0  0  0  0
   51.5410  156.3220   29.0560 C   0  0  0  0  0  0  0  0  0  0  0  0
   51.2530  157.6310   29.6810 C   0  0  0  0  0  0  0  0  0  0  0  0
   49.9480  157.7280   30.1520 O   0  0  0  0  0  0  0  0  0  0  0  0
   49.5460  158.8910   30.7550 C   0  0  0  0  0  0  0  0  0  0  0  0
   48.2320  158.9390   31.2260 C   0  0  0  0  0  0  0  0  0  0  0  0
   47.7580  160.0950   31.8490 C   0  0  0  0  0  0  0  0  0  0  0  0
   48.5940  161.2020   32.0020 C   0  0  0  0  0  0  0  0  0  0  0  0
   49.9040  161.1520   31.5320 C   0  0  0  0  0  0  0  0  0  0  0  0
   50.6690  162.2710   31.7130 O   0  0  0  0  0  0  0  0  0  0  0  0
   50.3790  159.9940   30.9080 C   0  0  0  0  0  0  0  0  0  0  0  0
   51.7480  159.8990   30.3990 C   0  0  0  0  0  0  0  0  0  0  0  0
   52.5420  160.8330   30.4910 O   0  0  0  0  0  0  0  0  0  0  0  0
   52.1560  158.6250   29.7630 C   0  0  0  0  0  0  0  0  0  0  0  0
   53.4470  158.5520   29.2750 O   0  0  0  0  0  0  0  0  0  0  0  0
   52.2240  156.2230   27.8340 C   0  0  0  0  0  0  0  0  0  0  0  0
   52.5170  154.9770   27.2470 C   0  0  0  0  0  0  0  0  0  0  0  0
   53.1960  154.8780   26.0110 N   0  0  0  0  0  0  0  0  0  0  0  0
   53.9160  156.1070   25.6440 C   0  0  0  0  0  0  0  0  0  0  0  0
   54.4020  155.9840   24.2000 C   0  0  0  0  0  0  0  0  0  0  0  0
   55.2600  154.7330   24.0130 C   0  0  0  0  0  0  0  0  0  0  0  0
   54.5240  153.4870   24.5030 C   0  0  0  0  0  0  0  0  0  0  0  0
   54.0250  153.6640   25.9380 C   0  0  0  0  0  0  0  0  0  0  0  0
   51.7164  151.4744   29.1476 H   0  0  0  0  0  0  0  0  0  0  0  0
   50.5596  151.4069   27.7751 H   0  0  0  0  0  0  0  0  0  0  0  0
   52.0157  150.3550   27.7751 H   0  0  0  0  0  0  0  0  0  0  0  0
   53.4801  152.2110   27.4379 H   0  0  0  0  0  0  0  0  0  0  0  0
   52.0913  152.4367   26.2900 H   0  0  0  0  0  0  0  0  0  0  0  0
   51.1452  152.9799   29.6681 H   0  0  0  0  0  0  0  0  0  0  0  0
   50.6346  155.1956   30.6698 H   0  0  0  0  0  0  0  0  0  0  0  0
   47.5717  158.0674   31.1063 H   0  0  0  0  0  0  0  0  0  0  0  0
   46.7232  160.1334   32.2201 H   0  0  0  0  0  0  0  0  0  0  0  0
   48.2190  162.1122   32.4928 H   0  0  0  0  0  0  0  0  0  0  0  0
   50.3000  163.0300   32.1210 H   0  0  0  0  0  0  0  0  0  0  0  0
   53.5990  158.2990   28.3860 H   0  0  0  0  0  0  0  0  0  0  0  0
   52.5390  157.1436   27.3209 H   0  0  0  0  0  0  0  0  0  0  0  0
   53.2413  156.9711   25.7341 H   0  0  0  0  0  0  0  0  0  0  0  0
   54.7755  156.2499   26.3155 H   0  0  0  0  0  0  0  0  0  0  0  0
   53.5305  155.9252   23.5314 H   0  0  0  0  0  0  0  0  0  0  0  0
   55.0138  156.8663   23.9609 H   0  0  0  0  0  0  0  0  0  0  0  0
   55.4961  154.6149   22.9451 H   0  0  0  0  0  0  0  0  0  0  0  0
   56.1826  154.8493   24.6007 H   0  0  0  0  0  0  0  0  0  0  0  0
   53.6630  153.2976   23.8451 H   0  0  0  0  0  0  0  0  0  0  0  0
   55.2246  152.6392   24.4813 H   0  0  0  0  0  0  0  0  0  0  0  0
   53.4250  152.7896   26.2303 H   0  0  0  0  0  0  0  0  0  0  0  0
   54.8825  153.7580   26.6206 H   0  0  0  0  0  0  0  0  0  0  0  0
  1  2  1  0
  2  3  1  0
  3  4  2  0
  4  5  1  0
  5  6  2  0
  6  7  1  0
  7  8  1  0
  8  9  1  0
  9 10  2  0
 10 11  1  0
 11 12  2  0
 12 13  1  0
 13 14  1  0
 13 15  2  0
 15 16  1  0
 16 17  2  0
 16 18  1  0
 18 19  1  0
  6 20  1  0
 20 21  2  0
 21 22  1  0
 22 23  1  0
 23 24  1  0
 24 25  1  0
 25 26  1  0
 26 27  1  0
 21  3  1  0
 27 22  1  0
 18  7  2  0
 15  9  1  0
  1 28  1  0
  1 29  1  0
  1 30  1  0
  2 31  1  0
  2 32  1  0
  4 33  1  0
  5 34  1  0
 10 35  1  0
 11 36  1  0
 12 37  1  0
 14 38  1  0
 19 39  1  0
 20 40  1  0
 23 41  1  0
 23 42  1  0
 24 43  1  0
 24 44  1  0
 25 45  1  0
 25 46  1  0
 26 47  1  0
 26 48  1  0
 27 49  1  0
 27 50  1  0
M  END
>  <meeko>  (2) 
{"is_sidechain": [false], "free_energy": -9.218, "intermolecular_energy": -12.351, "internal_energy": 0.847}

$$$$
cand_020_out
     RDKit          3D

 50 53  0  0  0  0  0  0  0  0999 V2000
   47.2260  159.7650   31.6380 C   0  0  0  0  0  0  0  0  0  0  0  0
   48.6920  160.1690   31.5770 C   0  0  0  0  0  0  0  0  0  0  0  0
   49.5270  159.1670   30.8120 C   0  0  0  0  0  0  0  0  0  0  0  0
   48.9790  157.9070   30.5260 C   0  0  0  0  0  0  0  0  0  0  0  0
   49.7190  156.9430   29.8390 C   0  0  0  0  0  0  0  0  0  0  0  0
   51.0290  157.2120   29.4280 C   0  0  0  0  0  0  0  0  0  0  0  0
   51.7880  156.1900   28.6750 C   0  0  0  0  0  0  0  0  0  0  0  0
   52.2810  156.6670   27.4660 O   0  0  0  0  0  0  0  0  0  0  0  0
   53.0050  155.8210   26.6660 C   0  0  0  0  0  0  0  0  0  0  0  0
   53.4940  156.3460   25.4680 C   0  0  0  0  0  0  0  0  0  0  0  0
   54.2380  155.5370   24.6060 C   0  0  0  0  0  0  0  0  0  0  0  0
   54.4930  154.2060   24.9390 C   0  0  0  0  0  0  0  0  0  0  0  0
   54.0050  153.6850   26.1350 C   0  0  0  0  0  0  0  0  0  0  0  0
   54.2900  152.3740   26.4000 O   0  0  0  0  0  0  0  0  0  0  0  0
   53.2610  154.4940   26.9980 C   0  0  0  0  0  0  0  0  0  0  0  0
   52.7290  153.9870   28.2640 C   0  0  0  0  0  0  0  0  0  0  0  0
   52.9060  152.8250   28.6240 O   0  0  0  0  0  0  0  0  0  0  0  0
   51.9600  154.9280   29.1110 C   0  0  0  0  0  0  0  0  0  0  0  0
   51.4530  154.4330   30.2980 O   0  0  0  0  0  0  0  0  0  0  0  0
   51.5740  158.4730   29.7130 C   0  0  0  0  0  0  0  0  0  0  0  0
   50.8470  159.4550   30.4120 C   0  0  0  0  0  0  0  0  0  0  0  0
   51.4000  160.7220   30.7080 N   0  0  0  0  0  0  0  0  0  0  0  0
   51.0770  161.1930   32.0640 C   0  0  0  0  0  0  0  0  0  0  0  0
   51.5040  162.6550   32.1960 C   0  0  0  0  0  0  0  0  0  0  0  0
   52.9850  162.8270   31.8600 C   0  0  0  0  0  0  0  0  0  0  0  0
   53.3090  162.2320   30.4910 C   0  0  0  0  0  0  0  0  0  0  0  0
   52.8350  160.7810   30.3890 C   0  0  0  0  0  0  0  0  0  0  0  0
   46.9129  159.6787   32.6890 H   0  0  0  0  0  0  0  0  0  0  0  0
   46.6141  160.5280   31.1346 H   0  0  0  0  0  0  0  0  0  0  0  0
   47.0914  158.7963   31.1346 H   0  0  0  0  0  0  0  0  0  0  0  0
   48.7698  161.1477   31.0810 H   0  0  0  0  0  0  0  0  0  0  0  0
   49.0745  160.2121   32.6074 H   0  0  0  0  0  0  0  0  0  0  0  0
   47.9527  157.6759   30.8475 H   0  0  0  0  0  0  0  0  0  0  0  0
   49.2684  155.9639   29.6190 H   0  0  0  0  0  0  0  0  0  0  0  0
   53.2936  157.3948   25.2036 H   0  0  0  0  0  0  0  0  0  0  0  0
   54.6239  155.9501   23.6623 H   0  0  0  0  0  0  0  0  0  0  0  0
   55.0780  153.5698   24.2585 H   0  0  0  0  0  0  0  0  0  0  0  0
   54.7780  151.8660   25.7810 H   0  0  0  0  0  0  0  0  0  0  0  0
   52.0350  154.1350   30.9690 H   0  0  0  0  0  0  0  0  0  0  0  0
   52.5977  158.7006   29.3810 H   0  0  0  0  0  0  0  0  0  0  0  0
   49.9939  161.1078   32.2361 H   0  0  0  0  0  0  0  0  0  0  0  0
   51.6090  160.5811   32.8073 H   0  0  0  0  0  0  0  0  0  0  0  0
   50.9054  163.2680   31.5062 H   0  0  0  0  0  0  0  0  0  0  0  0
   51.3419  162.9743   33.2361 H   0  0  0  0  0  0  0  0  0  0  0  0
   53.2300  163.8993   31.8532 H   0  0  0  0  0  0  0  0  0  0  0  0
   53.5801  162.3003   32.6205 H   0  0  0  0  0  0  0  0  0  0  0  0
   52.8083  162.8279   29.7137 H   0  0  0  0  0  0  0  0  0  0  0  0
   54.4002  162.2511   30.3537 H   0  0  0  0  0  0  0  0  0  0  0  0
   53.0011  160.4098   29.3669 H   0  0  0  0  0  0  0  0  0  0  0  0
   53.3989  160.1554   31.0966 H   0  0  0  0  0  0  0  0  0  0  0  0
  1  2  1  0
  2  3  1  0
  3  4  2  0
  4  5  1  0
  5  6  2  0
  6  7  1  0
  7  8  1  0
  8  9  1  0
  9 10  2  0
 10 11  1  0
 11 12  2  0
 12 13  1  0
 13 14  1  0
 13 15  2  0
 15 16  1  0
 16 17  2  0
 16 18  1  0
 18 19  1  0
  6 20  1  0
 20 21  2  0
 21 22  1  0
 22 23  1  0
 23 24  1  0
 24 25  1  0
 25 26  1  0
 26 27  1  0
 21  3  1  0
 27 22  1  0
 18  7  2  0
 15  9  1  0
  1 28  1  0
  1 29  1  0
  1 30  1  0
  2 31  1  0
  2 32  1  0
  4 33  1  0
  5 34  1  0
 10 35  1  0
 11 36  1  0
 12 37  1  0
 14 38  1  0
 19 39  1  0
 20 40  1  0
 23 41  1  0
 23 42  1  0
 24 43  1  0
 24 44  1  0
 25 45  1  0
 25 46  1  0
 26 47  1  0
 26 48  1  0
 27 49  1  0
 27 50  1  0
M  END
>  <meeko>  (3) 
{"is_sidechain": [false], "free_energy": -8.759, "intermolecular_energy": -11.367, "internal_energy": 0.43}

$$$$
cand_020_out
     RDKit          3D

 50 53  0  0  0  0  0  0  0  0999 V2000
   52.1240  151.6560   26.8300 C   0  0  0  0  0  0  0  0  0  0  0  0
   53.2000  152.6300   27.2870 C   0  0  0  0  0  0  0  0  0  0  0  0
   52.6110  153.8900   27.8800 C   0  0  0  0  0  0  0  0  0  0  0  0
   51.7400  153.7810   28.9760 C   0  0  0  0  0  0  0  0  0  0  0  0
   51.1580  154.9160   29.5430 C   0  0  0  0  0  0  0  0  0  0  0  0
   51.4260  156.1880   29.0260 C   0  0  0  0  0  0  0  0  0  0  0  0
   50.8240  157.3810   29.6590 C   0  0  0  0  0  0  0  0  0  0  0  0
   51.7610  158.3660   29.9540 O   0  0  0  0  0  0  0  0  0  0  0  0
   51.3380  159.5280   30.5450 C   0  0  0  0  0  0  0  0  0  0  0  0
   52.3090  160.4940   30.8090 C   0  0  0  0  0  0  0  0  0  0  0  0
   51.9460  161.7000   31.4120 C   0  0  0  0  0  0  0  0  0  0  0  0
   50.6120  161.9410   31.7500 C   0  0  0  0  0  0  0  0  0  0  0  0
   49.6450  160.9750   31.4850 C   0  0  0  0  0  0  0  0  0  0  0  0
   48.3590  161.2740   31.8420 O   0  0  0  0  0  0  0  0  0  0  0  0
   50.0090  159.7680   30.8810 C   0  0  0  0  0  0  0  0  0  0  0  0
   49.0240  158.7260   30.5860 C   0  0  0  0  0  0  0  0  0  0  0  0
   47.8330  158.8610   30.8590 O   0  0  0  0  0  0  0  0  0  0  0  0
   49.5110  157.4870   29.9370 C   0  0  0  0  0  0  0  0  0  0  0  0
   48.5740  156.5060   29.6740 O   0  0  0  0  0  0  0  0  0  0  0  0
   52.2990  156.2950   27.9330 C   0  0  0  0  0  0  0  0  0  0  0  0
   52.8890  155.1620   27.3400 C   0  0  0  0  0  0  0  0  0  0  0  0
   53.7600  155.2690   26.2320 N   0  0  0  0  0  0  0  0  0  0  0  0
   53.5610  154.2070   25.2330 C   0  0  0  0  0  0  0  0  0  0  0  0
   54.6990  154.2670   24.2140 C   0  0  0  0  0  0  0  0  0  0  0  0
   54.7930  155.6520   23.5750 C   0  0  0  0  0  0  0  0  0  0  0  0
   54.8900  156.7410   24.6420 C   0  0  0  0  0  0  0  0  0  0  0  0
   53.7550  156.6260   25.6610 C   0  0  0  0  0  0  0  0  0  0  0  0
   51.6338  151.2123   27.7091 H   0  0  0  0  0  0  0  0  0  0  0  0
   51.3774  152.1917   26.2253 H   0  0  0  0  0  0  0  0  0  0  0  0
   52.5829  150.8600   26.2253 H   0  0  0  0  0  0  0  0  0  0  0  0
   53.8241  152.1380   28.0476 H   0  0  0  0  0  0  0  0  0  0  0  0
   53.7948  152.9155   26.4068 H   0  0  0  0  0  0  0  0  0  0  0  0
   51.5135  152.7887   29.3930 H   0  0  0  0  0  0  0  0  0  0  0  0
   50.4823  154.8093   30.4044 H   0  0  0  0  0  0  0  0  0  0  0  0
   53.3595  160.3060   30.5425 H   0  0  0  0  0  0  0  0  0  0  0  0
   52.7116  162.4616   31.6213 H   0  0  0  0  0  0  0  0  0  0  0  0
   50.3264  162.8915   32.2243 H   0  0  0  0  0  0  0  0  0  0  0  0
   47.9900  160.9020   32.6190 H   0  0  0  0  0  0  0  0  0  0  0  0
   48.1550  156.4700   28.8360 H   0  0  0  0  0  0  0  0  0  0  0  0
   52.5291  157.2915   27.5279 H   0  0  0  0  0  0  0  0  0  0  0  0
   53.5626  153.2263   25.7312 H   0  0  0  0  0  0  0  0  0  0  0  0
   52.5965  154.3500   24.7238 H   0  0  0  0  0  0  0  0  0  0  0  0
   55.6482  154.0405   24.7217 H   0  0  0  0  0  0  0  0  0  0  0  0
   54.4984  153.5300   23.4225 H   0  0  0  0  0  0  0  0  0  0  0  0
   55.6874  155.6935   22.9361 H   0  0  0  0  0  0  0  0  0  0  0  0
   53.8853  155.8254   22.9784 H   0  0  0  0  0  0  0  0  0  0  0  0
   55.8525  156.6443   25.1657 H   0  0  0  0  0  0  0  0  0  0  0  0
   54.8124  157.7198   24.1460 H   0  0  0  0  0  0  0  0  0  0  0  0
   53.9030  157.3642   26.4629 H   0  0  0  0  0  0  0  0  0  0  0  0
   52.7910  156.8182   25.1672 H   0  0  0  0  0  0  0  0  0  0  0  0
  1  2  1  0
  2  3  1  0
  3  4  2  0
  4  5  1  0
  5  6  2  0
  6  7  1  0
  7  8  1  0
  8  9  1  0
  9 10  2  0
 10 11  1  0
 11 12  2  0
 12 13  1  0
 13 14  1  0
 13 15  2  0
 15 16  1  0
 16 17  2  0
 16 18  1  0
 18 19  1  0
  6 20  1  0
 20 21  2  0
 21 22  1  0
 22 23  1  0
 23 24  1  0
 24 25  1  0
 25 26  1  0
 26 27  1  0
 21  3  1  0
 27 22  1  0
 18  7  2  0
 15  9  1  0
  1 28  1  0
  1 29  1  0
  1 30  1  0
  2 31  1  0
  2 32  1  0
  4 33  1  0
  5 34  1  0
 10 35  1  0
 11 36  1  0
 12 37  1  0
 14 38  1  0
 19 39  1  0
 20 40  1  0
 23 41  1  0
 23 42  1  0
 24 43  1  0
 24 44  1  0
 25 45  1  0
 25 46  1  0
 26 47  1  0
 26 48  1  0
 27 49  1  0
 27 50  1  0
M  END
>  <meeko>  (4) 
{"is_sidechain": [false], "free_energy": -8.047, "intermolecular_energy": -10.737, "internal_energy": 0.678}

$$$$
cand_020_out
     RDKit          3D

 50 53  0  0  0  0  0  0  0  0999 V2000
   55.0850  155.2330   24.1880 C   0  0  0  0  0  0  0  0  0  0  0  0
   54.3070  154.3440   25.1450 C   0  0  0  0  0  0  0  0  0  0  0  0
   53.5520  155.1470   26.1820 C   0  0  0  0  0  0  0  0  0  0  0  0
   53.6480  156.5470   26.1550 C   0  0  0  0  0  0  0  0  0  0  0  0
   52.9850  157.3280   27.1030 C   0  0  0  0  0  0  0  0  0  0  0  0
   52.2150  156.7300   28.1060 C   0  0  0  0  0  0  0  0  0  0  0  0
   51.4950  157.5750   29.0830 C   0  0  0  0  0  0  0  0  0  0  0  0
   52.1880  158.7370   29.4050 O   0  0  0  0  0  0  0  0  0  0  0  0
   51.6340  159.6120   30.3020 C   0  0  0  0  0  0  0  0  0  0  0  0
   52.3570  160.7720   30.5840 C   0  0  0  0  0  0  0  0  0  0  0  0
   51.8490  161.7060   31.4900 C   0  0  0  0  0  0  0  0  0  0  0  0
   50.6210  161.4800   32.1150 C   0  0  0  0  0  0  0  0  0  0  0  0
   49.9010  160.3220   31.8310 C   0  0  0  0  0  0  0  0  0  0  0  0
   48.7070  160.1630   32.4770 O   0  0  0  0  0  0  0  0  0  0  0  0
   50.4090  159.3880   30.9230 C   0  0  0  0  0  0  0  0  0  0  0  0
   49.6860  158.1580   30.5970 C   0  0  0  0  0  0  0  0  0  0  0  0
   48.6020  157.8860   31.1100 O   0  0  0  0  0  0  0  0  0  0  0  0
   50.3060  157.2380   29.6160 C   0  0  0  0  0  0  0  0  0  0  0  0
   49.6190  156.0740   29.3260 O   0  0  0  0  0  0  0  0  0  0  0  0
   52.1180  155.3300   28.1290 C   0  0  0  0  0  0  0  0  0  0  0  0
   52.7870  154.5240   27.1880 C   0  0  0  0  0  0  0  0  0  0  0  0
   52.6980  153.1140   27.2170 N   0  0  0  0  0  0  0  0  0  0  0  0
   51.5670  152.6210   28.0200 C   0  0  0  0  0  0  0  0  0  0  0  0
   51.7030  151.1080   28.1900 C   0  0  0  0  0  0  0  0  0  0  0  0
   51.7980  150.4090   26.8340 C   0  0  0  0  0  0  0  0  0  0  0  0
   52.9120  151.0160   25.9830 C   0  0  0  0  0  0  0  0  0  0  0  0
   52.7590  152.5330   25.8660 C   0  0  0  0  0  0  0  0  0  0  0  0
   55.7025  155.9387   24.7631 H   0  0  0  0  0  0  0  0  0  0  0  0
   55.7336  154.6103   23.5543 H   0  0  0  0  0  0  0  0  0  0  0  0
   54.3818  155.7933   23.5543 H   0  0  0  0  0  0  0  0  0  0  0  0
   53.5875  153.7452   24.5673 H   0  0  0  0  0  0  0  0  0  0  0  0
   55.0278  153.7021   25.6727 H   0  0  0  0  0  0  0  0  0  0  0  0
   54.2534  157.0349   25.3769 H   0  0  0  0  0  0  0  0  0  0  0  0
   53.0688  158.4240   27.0609 H   0  0  0  0  0  0  0  0  0  0  0  0
   53.3253  160.9505   30.0936 H   0  0  0  0  0  0  0  0  0  0  0  0
   52.4175  162.6213   31.7115 H   0  0  0  0  0  0  0  0  0  0  0  0
   50.2230  162.2150   32.8302 H   0  0  0  0  0  0  0  0  0  0  0  0
   48.1790  160.9120   32.6780 H   0  0  0  0  0  0  0  0  0  0  0  0
   49.5210  155.4120   29.9820 H   0  0  0  0  0  0  0  0  0  0  0  0
   51.5024  154.8492   28.9035 H   0  0  0  0  0  0  0  0  0  0  0  0
   51.5760  153.1058   29.0073 H   0  0  0  0  0  0  0  0  0  0  0  0
   50.6195  152.8554   27.5128 H   0  0  0  0  0  0  0  0  0  0  0  0
   52.6122  150.8918   28.7703 H   0  0  0  0  0  0  0  0  0  0  0  0
   50.8117  150.7335   28.7148 H   0  0  0  0  0  0  0  0  0  0  0  0
   52.0083  149.3411   26.9935 H   0  0  0  0  0  0  0  0  0  0  0  0
   50.8423  150.5383   26.3049 H   0  0  0  0  0  0  0  0  0  0  0  0
   53.8825  150.7887   26.4483 H   0  0  0  0  0  0  0  0  0  0  0  0
   52.8528  150.5826   24.9737 H   0  0  0  0  0  0  0  0  0  0  0  0
   53.6205  152.9499   25.3238 H   0  0  0  0  0  0  0  0  0  0  0  0
   51.8366  152.7723   25.3165 H   0  0  0  0  0  0  0  0  0  0  0  0
  1  2  1  0
  2  3  1  0
  3  4  2  0
  4  5  1  0
  5  6  2  0
  6  7  1  0
  7  8  1  0
  8  9  1  0
  9 10  2  0
 10 11  1  0
 11 12  2  0
 12 13  1  0
 13 14  1  0
 13 15  2  0
 15 16  1  0
 16 17  2  0
 16 18  1  0
 18 19  1  0
  6 20  1  0
 20 21  2  0
 21 22  1  0
 22 23  1  0
 23 24  1  0
 24 25  1  0
 25 26  1  0
 26 27  1  0
 21  3  1  0
 27 22  1  0
 18  7  2  0
 15  9  1  0
  1 28  1  0
  1 29  1  0
  1 30  1  0
  2 31  1  0
  2 32  1  0
  4 33  1  0
  5 34  1  0
 10 35  1  0
 11 36  1  0
 12 37  1  0
 14 38  1  0
 19 39  1  0
 20 40  1  0
 23 41  1  0
 23 42  1  0
 24 43  1  0
 24 44  1  0
 25 45  1  0
 25 46  1  0
 26 47  1  0
 26 48  1  0
 27 49  1  0
 27 50  1  0
M  END
>  <meeko>  (5) 
{"is_sidechain": [false], "free_energy": -6.757, "intermolecular_energy": -9.408, "internal_energy": 0.941}

$$$$
cand_020_out
     RDKit          3D

 50 53  0  0  0  0  0  0  0  0999 V2000
   47.4800  159.5100   30.7830 C   0  0  0  0  0  0  0  0  0  0  0  0
   48.5520  158.7120   31.5100 C   0  0  0  0  0  0  0  0  0  0  0  0
   49.4320  157.9400   30.5520 C   0  0  0  0  0  0  0  0  0  0  0  0
   49.0430  156.6470   30.1660 C   0  0  0  0  0  0  0  0  0  0  0  0
   49.8340  155.8910   29.3000 C   0  0  0  0  0  0  0  0  0  0  0  0
   51.0370  156.4030   28.8030 C   0  0  0  0  0  0  0  0  0  0  0  0
   51.8470  155.5990   27.8620 C   0  0  0  0  0  0  0  0  0  0  0  0
   51.5410  154.2430   27.9110 O   0  0  0  0  0  0  0  0  0  0  0  0
   52.2190  153.3810   27.0890 C   0  0  0  0  0  0  0  0  0  0  0  0
   51.8700  152.0320   27.1610 C   0  0  0  0  0  0  0  0  0  0  0  0
   52.5230  151.0990   26.3510 C   0  0  0  0  0  0  0  0  0  0  0  0
   53.5250  151.5150   25.4710 C   0  0  0  0  0  0  0  0  0  0  0  0
   53.8700  152.8620   25.4020 C   0  0  0  0  0  0  0  0  0  0  0  0
   54.8590  153.2010   24.5200 O   0  0  0  0  0  0  0  0  0  0  0  0
   53.2160  153.7950   26.2110 C   0  0  0  0  0  0  0  0  0  0  0  0
   53.5490  155.2200   26.1700 C   0  0  0  0  0  0  0  0  0  0  0  0
   54.4230  155.6620   25.4260 O   0  0  0  0  0  0  0  0  0  0  0  0
   52.7910  156.1270   27.0620 C   0  0  0  0  0  0  0  0  0  0  0  0
   53.1240  157.4680   27.0230 O   0  0  0  0  0  0  0  0  0  0  0  0
   51.4220  157.6970   29.1870 C   0  0  0  0  0  0  0  0  0  0  0  0
   50.6440  158.4720   30.0670 C   0  0  0  0  0  0  0  0  0  0  0  0
   51.0370  159.7710   30.4630 N   0  0  0  0  0  0  0  0  0  0  0  0
   50.6360  160.1050   31.8390 C   0  0  0  0  0  0  0  0  0  0  0  0
   50.8840  161.5940   32.0800 C   0  0  0  0  0  0  0  0  0  0  0  0
   52.3410  161.9610   31.7970 C   0  0  0  0  0  0  0  0  0  0  0  0
   52.7580  161.5050   30.4000 C   0  0  0  0  0  0  0  0  0  0  0  0
   52.4610  160.0190   30.1870 C   0  0  0  0  0  0  0  0  0  0  0  0
   46.8241  159.9982   31.5188 H   0  0  0  0  0  0  0  0  0  0  0  0
   47.9567  160.2748   30.1523 H   0  0  0  0  0  0  0  0  0  0  0  0
   46.8841  158.8339   30.1523 H   0  0  0  0  0  0  0  0  0  0  0  0
   49.1799  159.4057   32.0884 H   0  0  0  0  0  0  0  0  0  0  0  0
   48.0488  157.9878   32.1675 H   0  0  0  0  0  0  0  0  0  0  0  0
   48.1030  156.2249   30.5511 H   0  0  0  0  0  0  0  0  0  0  0  0
   49.5083  154.8825   29.0053 H   0  0  0  0  0  0  0  0  0  0  0  0
   51.0819  151.7033   27.8544 H   0  0  0  0  0  0  0  0  0  0  0  0
   52.2476  150.0355   26.4065 H   0  0  0  0  0  0  0  0  0  0  0  0
   54.0399  150.7804   24.8344 H   0  0  0  0  0  0  0  0  0  0  0  0
   54.9840  152.6980   23.7390 H   0  0  0  0  0  0  0  0  0  0  0  0
   52.9200  158.0240   27.7490 H   0  0  0  0  0  0  0  0  0  0  0  0
   52.3576  158.1169   28.7891 H   0  0  0  0  0  0  0  0  0  0  0  0
   49.5678  159.8817   31.9767 H   0  0  0  0  0  0  0  0  0  0  0  0
   51.2234  159.5092   32.5531 H   0  0  0  0  0  0  0  0  0  0  0  0
   50.2305  162.1793   31.4164 H   0  0  0  0  0  0  0  0  0  0  0  0
   50.6649  161.8190   33.1342 H   0  0  0  0  0  0  0  0  0  0  0  0
   52.4577  163.0524   31.8691 H   0  0  0  0  0  0  0  0  0  0  0  0
   52.9800  161.4558   32.5363 H   0  0  0  0  0  0  0  0  0  0  0  0
   52.2047  162.0916   29.6518 H   0  0  0  0  0  0  0  0  0  0  0  0
   53.8417  161.6606   30.2937 H   0  0  0  0  0  0  0  0  0  0  0  0
   52.6887  159.7427   29.1469 H   0  0  0  0  0  0  0  0  0  0  0  0
   53.0818  159.4149   30.8650 H   0  0  0  0  0  0  0  0  0  0  0  0
  1  2  1  0
  2  3  1  0
  3  4  2  0
  4  5  1  0
  5  6  2  0
  6  7  1  0
  7  8  1  0
  8  9  1  0
  9 10  2  0
 10 11  1  0
 11 12  2  0
 12 13  1  0
 13 14  1  0
 13 15  2  0
 15 16  1  0
 16 17  2  0
 16 18  1  0
 18 19  1  0
  6 20  1  0
 20 21  2  0
 21 22  1  0
 22 23  1  0
 23 24  1  0
 24 25  1  0
 25 26  1  0
 26 27  1  0
 21  3  1  0
 27 22  1  0
 18  7  2  0
 15  9  1  0
  1 28  1  0
  1 29  1  0
  1 30  1  0
  2 31  1  0
  2 32  1  0
  4 33  1  0
  5 34  1  0
 10 35  1  0
 11 36  1  0
 12 37  1  0
 14 38  1  0
 19 39  1  0
 20 40  1  0
 23 41  1  0
 23 42  1  0
 24 43  1  0
 24 44  1  0
 25 45  1  0
 25 46  1  0
 26 47  1  0
 26 48  1  0
 27 49  1  0
 27 50  1  0
M  END
>  <meeko>  (6) 
{"is_sidechain": [false], "free_energy": -6.67, "intermolecular_energy": -9.466, "internal_energy": 1.107}

$$$$
