cand_032_out
     RDKit          3D

 43 45  0  0  0  0  0  0  0  0999 V2000
   54.8220  156.9060   24.3010 C   0  0  0  0  0  0  0  0  0  0  0  0
   53.4620  156.2420   24.4660 C   0  0  0  0  0  0  0  0  0  0  0  0
   53.6130  154.9140   25.0920 N   0  0  0  0  0  0  0  0  0  0  0  0
   54.9910  154.4110   25.1540 C   0  0  0  0  0  0  0  0  0  0  0  0
   52.9850  154.8340   26.3570 C   0  0  0  0  0  0  0  0  0  0  0  0
   52.6410  155.9920   27.0830 C   0  0  0  0  0  0  0  0  0  0  0  0
   52.0120  155.9210   28.3350 C   0  0  0  0  0  0  0  0  0  0  0  0
   51.6700  157.1360   29.1020 C   0  0  0  0  0  0  0  0  0  0  0  0
   50.3550  157.1390   29.5540 O   0  0  0  0  0  0  0  0  0  0  0  0
   49.9050  158.2120   30.2810 C   0  0  0  0  0  0  0  0  0  0  0  0
   48.5840  158.1650   30.7270 C   0  0  0  0  0  0  0  0  0  0  0  0
   48.0620  159.2260   31.4700 C   0  0  0  0  0  0  0  0  0  0  0  0
   48.8600  160.3320   31.7680 C   0  0  0  0  0  0  0  0  0  0  0  0
   50.1790  160.3750   31.3220 C   0  0  0  0  0  0  0  0  0  0  0  0
   50.9050  161.4870   31.6490 O   0  0  0  0  0  0  0  0  0  0  0  0
   50.7010  159.3140   30.5790 C   0  0  0  0  0  0  0  0  0  0  0  0
   52.0810  159.3190   30.0910 C   0  0  0  0  0  0  0  0  0  0  0  0
   52.8440  160.2580   30.3060 O   0  0  0  0  0  0  0  0  0  0  0  0
   52.5390  158.1420   29.3180 C   0  0  0  0  0  0  0  0  0  0  0  0
   53.8410  158.1640   28.8510 O   0  0  0  0  0  0  0  0  0  0  0  0
   51.7460  154.6580   28.8730 C   0  0  0  0  0  0  0  0  0  0  0  0
   52.0830  153.5000   28.1710 C   0  0  0  0  0  0  0  0  0  0  0  0
   52.7020  153.5720   26.9100 C   0  0  0  0  0  0  0  0  0  0  0  0
   53.0490  152.3040   26.1670 C   0  0  0  0  0  0  0  0  0  0  0  0
   54.3500  151.9220   26.3120 F   0  0  0  0  0  0  0  0  0  0  0  0
   52.3210  151.2270   26.6020 F   0  0  0  0  0  0  0  0  0  0  0  0
   52.8070  152.3660   24.8270 F   0  0  0  0  0  0  0  0  0  0  0  0
   55.2506  157.1152   25.2922 H   0  0  0  0  0  0  0  0  0  0  0  0
   55.4931  156.2342   23.7458 H   0  0  0  0  0  0  0  0  0  0  0  0
   54.7050  157.8484   23.7458 H   0  0  0  0  0  0  0  0  0  0  0  0
   52.8249  156.8731   25.1030 H   0  0  0  0  0  0  0  0  0  0  0  0
   53.0007  156.1200   23.4749 H   0  0  0  0  0  0  0  0  0  0  0  0
   55.2940  154.3004   26.2056 H   0  0  0  0  0  0  0  0  0  0  0  0
   55.0477  153.4342   24.6514 H   0  0  0  0  0  0  0  0  0  0  0  0
   55.6637  155.1216   24.6514 H   0  0  0  0  0  0  0  0  0  0  0  0
   52.8722  156.9791   26.6560 H   0  0  0  0  0  0  0  0  0  0  0  0
   47.9545  157.2936   30.4938 H   0  0  0  0  0  0  0  0  0  0  0  0
   47.0201  159.1902   31.8211 H   0  0  0  0  0  0  0  0  0  0  0  0
   48.4483  161.1673   32.3535 H   0  0  0  0  0  0  0  0  0  0  0  0
   50.6410  162.0250   32.3700 H   0  0  0  0  0  0  0  0  0  0  0  0
   54.0270  158.5070   28.0010 H   0  0  0  0  0  0  0  0  0  0  0  0
   51.2663  154.5765   29.8595 H   0  0  0  0  0  0  0  0  0  0  0  0
   51.8613  152.5162   28.6103 H   0  0  0  0  0  0  0  0  0  0  0  0
  1  2  1  0
  2  3  1  0
  3  4  1  0
  3  5  1  0
  5  6  2  0
  6  7  1  0
  7  8  1  0
  8  9  1  0
  9 10  1  0
 10 11  2  0
 11 12  1  0
 12 13  2  0
 13 14  1  0
 14 15  1  0
 14 16  2  0
 16 17  1  0
 17 18  2  0
 17 19  1  0
 19 20  1  0
  7 21  2  0
 21 22  1  0
 22 23  2  0
 23 24  1  0
 24 25  1  0
 24 26  1  0
 24 27  1  0
 23  5  1  0
 19  8  2  0
 16 10  1  0
  1 28  1  0
  1 29  1  0
  1 30  1  0
  2 31  1  0
  2 32  1  0
  4 33  1  0
  4 34  1  0
  4 35  1  0
  6 36  1  0
 11 37  1  0
 12 38  1  0
 13 39  1  0
 15 40  1  0
 20 41  1  0
 21 42  1  0
 22 43  1  0
M  END
>  <meeko>  (1) 
{"is_sidechain": [false], "free_energy": -9.637, "intermolecular_energy": -12.454, "internal_energy": 0.646}

$$$$
cand_032_out
     RDKit          3D

 43 45  0  0  0  0  0  0  0  0999 V2000
   53.0590  161.9790   30.8510 C   0  0  0  0  0  0  0  0  0  0  0  0
   52.5930  160.5300   30.8910 C   0  0  0  0  0  0  0  0  0  0  0  0
   51.1220  160.4630   30.7870 N   0  0  0  0  0  0  0  0  0  0  0  0
   50.5140  161.4880   29.9290 C   0  0  0  0  0  0  0  0  0  0  0  0
   50.6580  159.1710   30.4450 C   0  0  0  0  0  0  0  0  0  0  0  0
   51.4510  158.2810   29.6930 C   0  0  0  0  0  0  0  0  0  0  0  0
   51.0010  156.9960   29.3530 C   0  0  0  0  0  0  0  0  0  0  0  0
   51.8260  156.0720   28.5480 C   0  0  0  0  0  0  0  0  0  0  0  0
   52.3070  156.6540   27.3800 O   0  0  0  0  0  0  0  0  0  0  0  0
   53.0870  155.9040   26.5370 C   0  0  0  0  0  0  0  0  0  0  0  0
   53.5600  156.5320   25.3860 C   0  0  0  0  0  0  0  0  0  0  0  0
   54.3580  155.8250   24.4840 C   0  0  0  0  0  0  0  0  0  0  0  0
   54.6840  154.4900   24.7350 C   0  0  0  0  0  0  0  0  0  0  0  0
   54.2110  153.8660   25.8860 C   0  0  0  0  0  0  0  0  0  0  0  0
   54.5670  152.5580   26.0700 O   0  0  0  0  0  0  0  0  0  0  0  0
   53.4120  154.5740   26.7870 C   0  0  0  0  0  0  0  0  0  0  0  0
   52.8940  153.9560   28.0090 C   0  0  0  0  0  0  0  0  0  0  0  0
   53.1310  152.7840   28.2970 O   0  0  0  0  0  0  0  0  0  0  0  0
   52.0630  154.7950   28.9030 C   0  0  0  0  0  0  0  0  0  0  0  0
   51.5680  154.1960   30.0470 O   0  0  0  0  0  0  0  0  0  0  0  0
   49.7200  156.6120   29.7620 C   0  0  0  0  0  0  0  0  0  0  0  0
   48.9200  157.4820   30.5050 C   0  0  0  0  0  0  0  0  0  0  0  0
   49.3770  158.7650   30.8550 C   0  0  0  0  0  0  0  0  0  0  0  0
   48.4940  159.6840   31.6660 C   0  0  0  0  0  0  0  0  0  0  0  0
   48.0300  160.7580   30.9650 F   0  0  0  0  0  0  0  0  0  0  0  0
   47.3650  159.0560   32.1230 F   0  0  0  0  0  0  0  0  0  0  0  0
   49.0940  160.1770   32.7860 F   0  0  0  0  0  0  0  0  0  0  0  0
   53.1796  162.3539   31.8781 H   0  0  0  0  0  0  0  0  0  0  0  0
   54.0221  162.0400   30.3230 H   0  0  0  0  0  0  0  0  0  0  0  0
   52.3120  162.5899   30.3230 H   0  0  0  0  0  0  0  0  0  0  0  0
   53.0418  159.9809   30.0501 H   0  0  0  0  0  0  0  0  0  0  0  0
   52.9057  160.0793   31.8445 H   0  0  0  0  0  0  0  0  0  0  0  0
   50.0531  162.2651   30.5564 H   0  0  0  0  0  0  0  0  0  0  0  0
   51.2892  161.9416   29.2939 H   0  0  0  0  0  0  0  0  0  0  0  0
   49.7443  161.0252   29.2939 H   0  0  0  0  0  0  0  0  0  0  0  0
   52.4501  158.6025   29.3636 H   0  0  0  0  0  0  0  0  0  0  0  0
   53.3049  157.5836   25.1883 H   0  0  0  0  0  0  0  0  0  0  0  0
   54.7303  156.3199   23.5749 H   0  0  0  0  0  0  0  0  0  0  0  0
   55.3130  153.9332   24.0248 H   0  0  0  0  0  0  0  0  0  0  0  0
   54.4270  151.9330   25.3860 H   0  0  0  0  0  0  0  0  0  0  0  0
   51.1890  154.7210   30.7230 H   0  0  0  0  0  0  0  0  0  0  0  0
   49.3391  155.6150   29.4957 H   0  0  0  0  0  0  0  0  0  0  0  0
   47.9172  157.1591   30.8214 H   0  0  0  0  0  0  0  0  0  0  0  0
  1  2  1  0
  2  3  1  0
  3  4  1  0
  3  5  1  0
  5  6  2  0
  6  7  1  0
  7  8  1  0
  8  9  1  0
  9 10  1  0
 10 11  2  0
 11 12  1  0
 12 13  2  0
 13 14  1  0
 14 15  1  0
 14 16  2  0
 16 17  1  0
 17 18  2  0
 17 19  1  0
 19 20  1  0
  7 21  2  0
 21 22  1  0
 22 23  2  0
 23 24  1  0
 24 25  1  0
 24 26  1  0
 24 27  1  0
 23  5  1  0
 19  8  2  0
 16 10  1  0
  1 28  1  0
  1 29  1  0
  1 30  1  0
  2 31  1  0
  2 32  1  0
  4 33  1  0
  4 34  1  0
  4 35  1  0
  6 36  1  0
 11 37  1  0
 12 38  1  0
 13 39  1  0
 15 40  1  0
 20 41  1  0
 21 42  1  0
 22 43  1  0
M  END
>  <meeko>  (2) 
{"is_sidechain": [false], "free_energy": -9.403, "intermolecular_energy": -11.7, "internal_energy": 0.194}

$$$$
cand_032_out
     RDKit          3D

 43 45  0  0  0  0  0  0  0  0999 V2000
   46.5060  160.0870   30.8990 C   0  0  0  0  0  0  0  0  0  0  0  0
   47.7120  159.2990   30.4080 C   0  0  0  0  0  0  0  0  0  0  0  0
   48.8040  159.3640   31.3990 N   0  0  0  0  0  0  0  0  0  0  0  0
   48.6330  158.4910   32.5680 C   0  0  0  0  0  0  0  0  0  0  0  0
   50.0810  159.1890   30.8160 C   0  0  0  0  0  0  0  0  0  0  0  0
   50.4050  158.0250   30.0900 C   0  0  0  0  0  0  0  0  0  0  0  0
   51.6670  157.8460   29.5040 C   0  0  0  0  0  0  0  0  0  0  0  0
   52.0100  156.6160   28.7610 C   0  0  0  0  0  0  0  0  0  0  0  0
   52.5100  156.8750   27.4890 O   0  0  0  0  0  0  0  0  0  0  0  0
   52.8690  155.8190   26.6890 C   0  0  0  0  0  0  0  0  0  0  0  0
   53.3790  156.1250   25.4280 C   0  0  0  0  0  0  0  0  0  0  0  0
   53.7610  155.0970   24.5630 C   0  0  0  0  0  0  0  0  0  0  0  0
   53.6340  153.7640   24.9600 C   0  0  0  0  0  0  0  0  0  0  0  0
   53.1250  153.4620   26.2200 C   0  0  0  0  0  0  0  0  0  0  0  0
   53.0260  152.1370   26.5450 O   0  0  0  0  0  0  0  0  0  0  0  0
   52.7420  154.4910   27.0850 C   0  0  0  0  0  0  0  0  0  0  0  0
   52.2020  154.2170   28.4180 C   0  0  0  0  0  0  0  0  0  0  0  0
   52.0530  153.0710   28.8380 O   0  0  0  0  0  0  0  0  0  0  0  0
   51.8340  155.3780   29.2600 C   0  0  0  0  0  0  0  0  0  0  0  0
   51.3130  155.1070   30.5120 O   0  0  0  0  0  0  0  0  0  0  0  0
   52.6250  158.8500   29.6720 C   0  0  0  0  0  0  0  0  0  0  0  0
   52.3230  160.0080   30.3900 C   0  0  0  0  0  0  0  0  0  0  0  0
   51.0530  160.1920   30.9670 C   0  0  0  0  0  0  0  0  0  0  0  0
   50.7500  161.4580   31.7320 C   0  0  0  0  0  0  0  0  0  0  0  0
   49.6100  162.0860   31.3240 F   0  0  0  0  0  0  0  0  0  0  0  0
   50.5570  161.2280   33.0700 F   0  0  0  0  0  0  0  0  0  0  0  0
   51.7470  162.3860   31.6810 F   0  0  0  0  0  0  0  0  0  0  0  0
   46.4955  160.0938   31.9989 H   0  0  0  0  0  0  0  0  0  0  0  0
   46.5667  161.1202   30.5265 H   0  0  0  0  0  0  0  0  0  0  0  0
   45.5841  159.6165   30.5265 H   0  0  0  0  0  0  0  0  0  0  0  0
   47.4220  158.2489   30.2559 H   0  0  0  0  0  0  0  0  0  0  0  0
   48.0622  159.7341   29.4603 H   0  0  0  0  0  0  0  0  0  0  0  0
   48.7490  159.0830   33.4878 H   0  0  0  0  0  0  0  0  0  0  0  0
   47.6296  158.0408   32.5458 H   0  0  0  0  0  0  0  0  0  0  0  0
   49.3924  157.6955   32.5458 H   0  0  0  0  0  0  0  0  0  0  0  0
   49.6473  157.2352   29.9799 H   0  0  0  0  0  0  0  0  0  0  0  0
   53.4804  157.1746   25.1148 H   0  0  0  0  0  0  0  0  0  0  0  0
   54.1625  155.3377   23.5676 H   0  0  0  0  0  0  0  0  0  0  0  0
   53.9354  152.9547   24.2787 H   0  0  0  0  0  0  0  0  0  0  0  0
   53.4070  151.8190   27.3400 H   0  0  0  0  0  0  0  0  0  0  0  0
   50.4220  154.8320   30.5980 H   0  0  0  0  0  0  0  0  0  0  0  0
   53.6265  158.7262   29.2341 H   0  0  0  0  0  0  0  0  0  0  0  0
   53.0893  160.7885   30.5066 H   0  0  0  0  0  0  0  0  0  0  0  0
  1  2  1  0
  2  3  1  0
  3  4  1  0
  3  5  1  0
  5  6  2  0
  6  7  1  0
  7  8  1  0
  8  9  1  0
  9 10  1  0
 10 11  2  0
 11 12  1  0
 12 13  2  0
 13 14  1  0
 14 15  1  0
 14 16  2  0
 16 17  1  0
 17 18  2  0
 17 19  1  0
 19 20  1  0
  7 21  2  0
 21 22  1  0
 22 23  2  0
 23 24  1  0
 24 25  1  0
 24 26  1  0
 24 27  1  0
 23  5  1  0
 19  8  2  0
 16 10  1  0
  1 28  1  0
  1 29  1  0
  1 30  1  0
  2 31  1  0
  2 32  1  0
  4 33  1  0
  4 34  1  0
  4 35  1  0
  6 36  1  0
 11 37  1  0
 12 38  1  0
 13 39  1  0
 15 40  1  0
 20 41  1  0
 21 42  1  0
 22 43  1  0
M  END
>  <meeko>  (3) 
{"is_sidechain": [false], "free_energy": -9.229, "intermolecular_energy": -10.776, "internal_energy": -0.504}

$$$$
cand_032_out
     RDKit          3D

 43 45  0  0  0  0  0  0  0  0999 V2000
   54.1960  154.0420   23.6360 C   0  0  0  0  0  0  0  0  0  0  0  0
   53.1080  154.6250   24.5270 C   0  0  0  0  0  0  0  0  0  0  0  0
   53.7040  155.2130   25.7430 N   0  0  0  0  0  0  0  0  0  0  0  0
   54.1530  156.6040   25.6030 C   0  0  0  0  0  0  0  0  0  0  0  0
   52.8820  155.0560   26.8830 C   0  0  0  0  0  0  0  0  0  0  0  0
   52.3440  156.1680   27.5610 C   0  0  0  0  0  0  0  0  0  0  0  0
   51.5230  156.0210   28.6890 C   0  0  0  0  0  0  0  0  0  0  0  0
   50.9760  157.1890   29.4090 C   0  0  0  0  0  0  0  0  0  0  0  0
   51.9280  158.1760   29.6420 O   0  0  0  0  0  0  0  0  0  0  0  0
   51.5530  159.3170   30.3050 C   0  0  0  0  0  0  0  0  0  0  0  0
   52.5370  160.2860   30.5030 C   0  0  0  0  0  0  0  0  0  0  0  0
   52.2220  161.4710   31.1720 C   0  0  0  0  0  0  0  0  0  0  0  0
   50.9250  161.6860   31.6430 C   0  0  0  0  0  0  0  0  0  0  0  0
   49.9450  160.7170   31.4420 C   0  0  0  0  0  0  0  0  0  0  0  0
   48.6960  160.9920   31.9280 O   0  0  0  0  0  0  0  0  0  0  0  0
   50.2600  159.5320   30.7730 C   0  0  0  0  0  0  0  0  0  0  0  0
   49.2610  158.4880   30.5410 C   0  0  0  0  0  0  0  0  0  0  0  0
   48.1000  158.6000   30.9300 O   0  0  0  0  0  0  0  0  0  0  0  0
   49.6950  157.2730   29.8140 C   0  0  0  0  0  0  0  0  0  0  0  0
   48.7450  156.2870   29.6140 O   0  0  0  0  0  0  0  0  0  0  0  0
   51.2580  154.7290   29.1540 C   0  0  0  0  0  0  0  0  0  0  0  0
   51.7860  153.6150   28.4970 C   0  0  0  0  0  0  0  0  0  0  0  0
   52.5990  153.7630   27.3590 C   0  0  0  0  0  0  0  0  0  0  0  0
   53.1500  152.5420   26.6630 C   0  0  0  0  0  0  0  0  0  0  0  0
   54.5140  152.4940   26.6370 F   0  0  0  0  0  0  0  0  0  0  0  0
   52.7750  151.3750   27.2770 F   0  0  0  0  0  0  0  0  0  0  0  0
   52.7300  152.4050   25.3730 F   0  0  0  0  0  0  0  0  0  0  0  0
   54.9931  153.6149   24.2623 H   0  0  0  0  0  0  0  0  0  0  0  0
   53.7663  153.2533   23.0009 H   0  0  0  0  0  0  0  0  0  0  0  0
   54.6147  154.8366   23.0009 H   0  0  0  0  0  0  0  0  0  0  0  0
   52.5657  155.4062   23.9741 H   0  0  0  0  0  0  0  0  0  0  0  0
   52.4156  153.8218   24.8195 H   0  0  0  0  0  0  0  0  0  0  0  0
   54.2955  157.0454   26.6004 H   0  0  0  0  0  0  0  0  0  0  0  0
   55.1047  156.6284   25.0519 H   0  0  0  0  0  0  0  0  0  0  0  0
   53.3952  157.1802   25.0519 H   0  0  0  0  0  0  0  0  0  0  0  0
   52.5742  157.1797   27.1956 H   0  0  0  0  0  0  0  0  0  0  0  0
   53.5590  160.1171   30.1329 H   0  0  0  0  0  0  0  0  0  0  0  0
   52.9968  162.2361   31.3281 H   0  0  0  0  0  0  0  0  0  0  0  0
   50.6780  162.6185   32.1715 H   0  0  0  0  0  0  0  0  0  0  0  0
   47.9700  161.0640   31.3410 H   0  0  0  0  0  0  0  0  0  0  0  0
   49.0130  155.4070   29.4460 H   0  0  0  0  0  0  0  0  0  0  0  0
   50.6283  154.5887   30.0449 H   0  0  0  0  0  0  0  0  0  0  0  0
   51.5625  152.6067   28.8755 H   0  0  0  0  0  0  0  0  0  0  0  0
  1  2  1  0
  2  3  1  0
  3  4  1  0
  3  5  1  0
  5  6  2  0
  6  7  1  0
  7  8  1  0
  8  9  1  0
  9 10  1  0
 10 11  2  0
 11 12  1  0
 12 13  2  0
 13 14  1  0
 14 15  1  0
 14 16  2  0
 16 17  1  0
 17 18  2  0
 17 19  1  0
 19 20  1  0
  7 21  2  0
 21 22  1  0
 22 23  2  0
 23 24  1  0
 24 25  1  0
 24 26  1  0
 24 27  1  0
 23  5  1  0
 19  8  2  0
 16 10  1  0
  1 28  1  0
  1 29  1  0
  1 30  1  0
  2 31  1  0
  2 32  1  0
  4 33  1  0
  4 34  1  0
  4 35  1  0
  6 36  1  0
 11 37  1  0
 12 38  1  0
 13 39  1  0
 15 40  1  0
 20 41  1  0
 21 42  1  0
 22 43  1  0
M  END
>  <meeko>  (4) 
{"is_sidechain": [false], "free_energy": -7.835, "intermolecular_energy": -10.757, "internal_energy": 1.278}

$$$$
cand_032_out
     RDKit          3D

 43 45  0  0  0  0  0  0  0  0999 V2000
   54.3290  150.8580   25.1390 C   0  0  0  0  0  0  0  0  0  0  0  0
   54.3130  152.1200   25.9900 C   0  0  0  0  0  0  0  0  0  0  0  0
   53.0360  152.8380   25.8190 N   0  0  0  0  0  0  0  0  0  0  0  0
   51.9000  152.2690   26.5570 C   0  0  0  0  0  0  0  0  0  0  0  0
   53.1540  154.2270   26.0590 C   0  0  0  0  0  0  0  0  0  0  0  0
   52.4150  154.8620   27.0770 C   0  0  0  0  0  0  0  0  0  0  0  0
   52.5310  156.2380   27.3260 C   0  0  0  0  0  0  0  0  0  0  0  0
   51.7410  156.9060   28.3820 C   0  0  0  0  0  0  0  0  0  0  0  0
   52.2860  158.1220   28.7770 O   0  0  0  0  0  0  0  0  0  0  0  0
   51.6510  158.8480   29.7540 C   0  0  0  0  0  0  0  0  0  0  0  0
   52.2240  160.0690   30.1090 C   0  0  0  0  0  0  0  0  0  0  0  0
   51.6290  160.8560   31.0970 C   0  0  0  0  0  0  0  0  0  0  0  0
   50.4620  160.4230   31.7290 C   0  0  0  0  0  0  0  0  0  0  0  0
   49.8910  159.2040   31.3710 C   0  0  0  0  0  0  0  0  0  0  0  0
   48.7490  158.8400   32.0300 O   0  0  0  0  0  0  0  0  0  0  0  0
   50.4870  158.4160   30.3830 C   0  0  0  0  0  0  0  0  0  0  0  0
   49.9210  157.1290   29.9770 C   0  0  0  0  0  0  0  0  0  0  0  0
   48.8990  156.6760   30.4910 O   0  0  0  0  0  0  0  0  0  0  0  0
   50.6240  156.3750   28.9140 C   0  0  0  0  0  0  0  0  0  0  0  0
   50.0880  155.1540   28.5490 O   0  0  0  0  0  0  0  0  0  0  0  0
   53.3920  156.9890   26.5190 C   0  0  0  0  0  0  0  0  0  0  0  0
   54.1280  156.3770   25.5040 C   0  0  0  0  0  0  0  0  0  0  0  0
   54.0210  154.9950   25.2630 C   0  0  0  0  0  0  0  0  0  0  0  0
   54.8350  154.3570   24.1640 C   0  0  0  0  0  0  0  0  0  0  0  0
   54.1170  153.5130   23.3680 F   0  0  0  0  0  0  0  0  0  0  0  0
   55.3640  155.2800   23.2990 F   0  0  0  0  0  0  0  0  0  0  0  0
   55.9100  153.6490   24.6130 F   0  0  0  0  0  0  0  0  0  0  0  0
   54.3402  149.9743   25.7939 H   0  0  0  0  0  0  0  0  0  0  0  0
   53.4311  150.8325   24.5041 H   0  0  0  0  0  0  0  0  0  0  0  0
   55.2273  150.8553   24.5041 H   0  0  0  0  0  0  0  0  0  0  0  0
   54.4358  151.8455   27.0481 H   0  0  0  0  0  0  0  0  0  0  0  0
   55.1370  152.7758   25.6721 H   0  0  0  0  0  0  0  0  0  0  0  0
   52.0823  152.3603   27.6379 H   0  0  0  0  0  0  0  0  0  0  0  0
   50.9814  152.8134   26.2928 H   0  0  0  0  0  0  0  0  0  0  0  0
   51.7859  151.2073   26.2928 H   0  0  0  0  0  0  0  0  0  0  0  0
   51.7286  154.2627   27.6932 H   0  0  0  0  0  0  0  0  0  0  0  0
   53.1433  160.4115   29.6114 H   0  0  0  0  0  0  0  0  0  0  0  0
   52.0806  161.8189   31.3779 H   0  0  0  0  0  0  0  0  0  0  0  0
   49.9944  161.0431   32.5080 H   0  0  0  0  0  0  0  0  0  0  0  0
   48.7150  158.8760   32.9660 H   0  0  0  0  0  0  0  0  0  0  0  0
   49.5880  154.6590   29.1660 H   0  0  0  0  0  0  0  0  0  0  0  0
   53.4897  158.0718   26.6861 H   0  0  0  0  0  0  0  0  0  0  0  0
   54.8024  156.9844   24.8825 H   0  0  0  0  0  0  0  0  0  0  0  0
  1  2  1  0
  2  3  1  0
  3  4  1  0
  3  5  1  0
  5  6  2  0
  6  7  1  0
  7  8  1  0
  8  9  1  0
  9 10  1  0
 10 11  2  0
 11 12  1  0
 12 13  2  0
 13 14  1  0
 14 15  1  0
 14 16  2  0
 16 17  1  0
 17 18  2  0
 17 19  1  0
 19 20  1  0
  7 21  2  0
 21 22  1  0
 22 23  2  0
 23 24  1  0
 24 25  1  0
 24 26  1  0
 24 27  1  0
 23  5  1  0
 19  8  2  0
 16 10  1  0
  1 28  1  0
  1 29  1  0
  1 30  1  0
  2 31  1  0
  2 32  1  0
  4 33  1  0
  4 34  1  0
  4 35  1  0
  6 36  1  0
 11 37  1  0
 12 38  1  0
 13 39  1  0
 15 40  1  0
 20 41  1  0
 21 42  1  0
 22 43  1  0
M  END
>  <meeko>  (5) 
{"is_sidechain": [false], "free_energy": -7.478, "intermolecular_energy": -10.234, "internal_energy": 1.217}

$$$$
cand_032_out
     RDKit          3D

 43 45  0  0  0  0  0  0  0  0999 V2000
   52.9810  161.8220   30.9530 C   0  0  0  0  0  0  0  0  0  0  0  0
   52.5940  160.3980   30.5770 C   0  0  0  0  0  0  0  0  0  0  0  0
   51.1250  160.2520   30.5690 N   0  0  0  0  0  0  0  0  0  0  0  0
   50.4090  161.2410   29.7520 C   0  0  0  0  0  0  0  0  0  0  0  0
   50.7090  158.9370   30.2570 C   0  0  0  0  0  0  0  0  0  0  0  0
   51.4430  158.1240   29.3710 C   0  0  0  0  0  0  0  0  0  0  0  0
   51.0410  156.8170   29.0600 C   0  0  0  0  0  0  0  0  0  0  0  0
   51.8020  155.9730   28.1150 C   0  0  0  0  0  0  0  0  0  0  0  0
   51.4540  154.6290   28.1890 O   0  0  0  0  0  0  0  0  0  0  0  0
   52.0870  153.7330   27.3650 C   0  0  0  0  0  0  0  0  0  0  0  0
   51.6970  152.3980   27.4620 C   0  0  0  0  0  0  0  0  0  0  0  0
   52.3020  151.4340   26.6530 C   0  0  0  0  0  0  0  0  0  0  0  0
   53.2980  151.8060   25.7470 C   0  0  0  0  0  0  0  0  0  0  0  0
   53.6850  153.1400   25.6510 C   0  0  0  0  0  0  0  0  0  0  0  0
   54.6650  153.4350   24.7440 O   0  0  0  0  0  0  0  0  0  0  0  0
   53.0790  154.1040   26.4610 C   0  0  0  0  0  0  0  0  0  0  0  0
   53.4550  155.5160   26.3930 C   0  0  0  0  0  0  0  0  0  0  0  0
   54.3270  155.9220   25.6260 O   0  0  0  0  0  0  0  0  0  0  0  0
   52.7470  156.4590   27.2890 C   0  0  0  0  0  0  0  0  0  0  0  0
   53.1210  157.7890   27.2250 O   0  0  0  0  0  0  0  0  0  0  0  0
   49.8650  156.3290   29.6390 C   0  0  0  0  0  0  0  0  0  0  0  0
   49.1230  157.1210   30.5160 C   0  0  0  0  0  0  0  0  0  0  0  0
   49.5340  158.4280   30.8360 C   0  0  0  0  0  0  0  0  0  0  0  0
   48.7170  159.2610   31.7950 C   0  0  0  0  0  0  0  0  0  0  0  0
   48.1160  160.3380   31.2110 F   0  0  0  0  0  0  0  0  0  0  0  0
   47.6880  158.5530   32.3580 F   0  0  0  0  0  0  0  0  0  0  0  0
   49.4290  159.7390   32.8550 F   0  0  0  0  0  0  0  0  0  0  0  0
   53.0070  161.9178   32.0485 H   0  0  0  0  0  0  0  0  0  0  0  0
   53.9745  162.0529   30.5410 H   0  0  0  0  0  0  0  0  0  0  0  0
   52.2411  162.5240   30.5410 H   0  0  0  0  0  0  0  0  0  0  0  0
   52.9871  160.1673   29.5759 H   0  0  0  0  0  0  0  0  0  0  0  0
   53.0187  159.7042   31.3174 H   0  0  0  0  0  0  0  0  0  0  0  0
   49.8921  161.9550   30.4100 H   0  0  0  0  0  0  0  0  0  0  0  0
   51.1269  161.7809   29.1171 H   0  0  0  0  0  0  0  0  0  0  0  0
   49.6719  160.7276   29.1171 H   0  0  0  0  0  0  0  0  0  0  0  0
   52.3574  158.5258   28.9101 H   0  0  0  0  0  0  0  0  0  0  0  0
   50.9130  152.1042   28.1755 H   0  0  0  0  0  0  0  0  0  0  0  0
   51.9940  150.3808   26.7292 H   0  0  0  0  0  0  0  0  0  0  0  0
   53.7757  151.0465   25.1106 H   0  0  0  0  0  0  0  0  0  0  0  0
   54.9620  154.3190   24.6450 H   0  0  0  0  0  0  0  0  0  0  0  0
   53.1730  158.2220   26.3970 H   0  0  0  0  0  0  0  0  0  0  0  0
   49.5219  155.3114   29.4008 H   0  0  0  0  0  0  0  0  0  0  0  0
   48.2029  156.7175   30.9639 H   0  0  0  0  0  0  0  0  0  0  0  0
  1  2  1  0
  2  3  1  0
  3  4  1  0
  3  5  1  0
  5  6  2  0
  6  7  1  0
  7  8  1  0
  8  9  1  0
  9 10  1  0
 10 11  2  0
 11 12  1  0
 12 13  2  0
 13 14  1  0
 14 15  1  0
 14 16  2  0
 16 17  1  0
 17 18  2  0
 17 19  1  0
 19 20  1  0
  7 21  2  0
 21 22  1  0
 22 23  2  0
 23 24  1  0
 24 25  1  0
 24 26  1  0
 24 27  1  0
 23  5  1  0
 19  8  2  0
 16 10  1  0
  1 28  1  0
  1 29  1  0
  1 30  1  0
  2 31  1  0
  2 32  1  0
  4 33  1  0
  4 34  1  0
  4 35  1  0
  6 36  1  0
 11 37  1  0
 12 38  1  0
 13 39  1  0
 15 40  1  0
 20 41  1  0
 21 42  1  0
 22 43  1  0
M  END
>  <meeko>  (6) 
{"is_sidechain": [false], "free_energy": -7.342, "intermolecular_energy": -9.221, "internal_energy": 0.379}

$$$$
