cand_009_out
     RDKit          3D

 41 43  0  0  0  0  0  0  0  0999 V2000
   52.9760  152.4540   26.9530 C   0  0  0  0  0  0  0  0  0  0  0  0
   52.5970  153.7820   27.5490 C   0  0  0  0  0  0  0  0  0  0  0  0
   51.8960  153.7920   28.7670 C   0  0  0  0  0  0  0  0  0  0  0  0
   51.5140  154.9920   29.3700 C   0  0  0  0  0  0  0  0  0  0  0  0
   51.8170  156.2170   28.7710 C   0  0  0  0  0  0  0  0  0  0  0  0
   51.4270  157.4780   29.4370 C   0  0  0  0  0  0  0  0  0  0  0  0
   50.0890  157.5000   29.8120 O   0  0  0  0  0  0  0  0  0  0  0  0
   49.5940  158.6120   30.4430 C   0  0  0  0  0  0  0  0  0  0  0  0
   48.2490  158.5840   30.8140 C   0  0  0  0  0  0  0  0  0  0  0  0
   47.6810  159.6860   31.4580 C   0  0  0  0  0  0  0  0  0  0  0  0
   48.4580  160.8150   31.7300 C   0  0  0  0  0  0  0  0  0  0  0  0
   49.7990  160.8400   31.3580 C   0  0  0  0  0  0  0  0  0  0  0  0
   50.5020  161.9760   31.6520 O   0  0  0  0  0  0  0  0  0  0  0  0
   50.3670  159.7370   30.7130 C   0  0  0  0  0  0  0  0  0  0  0  0
   51.7720  159.7220   30.3060 C   0  0  0  0  0  0  0  0  0  0  0  0
   52.5180  160.6790   30.5030 O   0  0  0  0  0  0  0  0  0  0  0  0
   52.2790  158.5010   29.6370 C   0  0  0  0  0  0  0  0  0  0  0  0
   53.6050  158.5040   29.2450 O   0  0  0  0  0  0  0  0  0  0  0  0
   52.5270  156.2080   27.5620 C   0  0  0  0  0  0  0  0  0  0  0  0
   52.9210  155.0080   26.9300 C   0  0  0  0  0  0  0  0  0  0  0  0
   53.6810  155.0740   25.6090 C   0  0  0  0  0  0  0  0  0  0  0  0
   54.0100  156.5200   25.2230 C   0  0  0  0  0  0  0  0  0  0  0  0
   52.9190  154.3680   24.4830 C   0  0  0  0  0  0  0  0  0  0  0  0
   53.1812  151.7351   27.7599 H   0  0  0  0  0  0  0  0  0  0  0  0
   52.1483  152.0814   26.3316 H   0  0  0  0  0  0  0  0  0  0  0  0
   53.8757  152.5743   26.3316 H   0  0  0  0  0  0  0  0  0  0  0  0
   51.6440  152.8382   29.2536 H   0  0  0  0  0  0  0  0  0  0  0  0
   50.9694  154.9726   30.3255 H   0  0  0  0  0  0  0  0  0  0  0  0
   47.6369  157.6955   30.5997 H   0  0  0  0  0  0  0  0  0  0  0  0
   46.6210  159.6649   31.7512 H   0  0  0  0  0  0  0  0  0  0  0  0
   48.0107  161.6825   32.2372 H   0  0  0  0  0  0  0  0  0  0  0  0
   51.4380  161.9660   31.6300 H   0  0  0  0  0  0  0  0  0  0  0  0
   53.9620  157.7650   28.7930 H   0  0  0  0  0  0  0  0  0  0  0  0
   52.7857  157.1673   27.0901 H   0  0  0  0  0  0  0  0  0  0  0  0
   54.6310  154.5393   25.7561 H   0  0  0  0  0  0  0  0  0  0  0  0
   54.1467  157.1207   26.1343 H   0  0  0  0  0  0  0  0  0  0  0  0
   54.9355  156.5394   24.6288 H   0  0  0  0  0  0  0  0  0  0  0  0
   53.1840  156.9379   24.6288 H   0  0  0  0  0  0  0  0  0  0  0  0
   52.1775  153.6810   24.9167 H   0  0  0  0  0  0  0  0  0  0  0  0
   52.4058  155.1169   23.8619 H   0  0  0  0  0  0  0  0  0  0  0  0
   53.6266  153.7992   23.8619 H   0  0  0  0  0  0  0  0  0  0  0  0
  1  2  1  0
  2  3  2  0
  3  4  1  0
  4  5  2  0
  5  6  1  0
  6  7  1  0
  7  8  1  0
  8  9  2  0
  9 10  1  0
 10 11  2  0
 11 12  1  0
 12 13  1  0
 12 14  2  0
 14 15  1  0
 15 16  2  0
 15 17  1  0
 17 18  1  0
  5 19  1  0
 19 20  2  0
 20 21  1  0
 21 22  1  0
 21 23  1  0
 20  2  1  0
 17  6  2  0
 14  8  1  0
  1 24  1  0
  1 25  1  0
  1 26  1  0
  3 27  1  0
  4 28  1  0
  9 29  1  0
 10 30  1  0
 11 31  1  0
 13 32  1  0
 18 33  1  0
 19 34  1  0
 21 35  1  0
 22 36  1  0
 22 37  1  0
 22 38  1  0
 23 39  1  0
 23 40  1  0
 23 41  1  0
M  END
>  <meeko>  (1) 
{"is_sidechain": [false], "free_energy": -10.435, "intermolecular_energy": -12.265, "internal_energy": 0.062}

$$$$
cand_009_out
     RDKit          3D

 41 43  0  0  0  0  0  0  0  0999 V2000
   50.5520  161.0970   31.4440 C   0  0  0  0  0  0  0  0  0  0  0  0
   50.8450  159.8110   30.7200 C   0  0  0  0  0  0  0  0  0  0  0  0
   52.0950  159.6680   30.0940 C   0  0  0  0  0  0  0  0  0  0  0  0
   52.4260  158.5000   29.4050 C   0  0  0  0  0  0  0  0  0  0  0  0
   51.5170  157.4430   29.3160 C   0  0  0  0  0  0  0  0  0  0  0  0
   51.8950  156.2040   28.6040 C   0  0  0  0  0  0  0  0  0  0  0  0
   52.3600  156.4420   27.3160 O   0  0  0  0  0  0  0  0  0  0  0  0
   52.7470  155.3780   26.5430 C   0  0  0  0  0  0  0  0  0  0  0  0
   53.2210  155.6640   25.2610 C   0  0  0  0  0  0  0  0  0  0  0  0
   53.6300  154.6250   24.4220 C   0  0  0  0  0  0  0  0  0  0  0  0
   53.5640  153.3020   24.8620 C   0  0  0  0  0  0  0  0  0  0  0  0
   53.0900  153.0190   26.1410 C   0  0  0  0  0  0  0  0  0  0  0  0
   53.0510  151.7020   26.5080 O   0  0  0  0  0  0  0  0  0  0  0  0
   52.6820  154.0590   26.9810 C   0  0  0  0  0  0  0  0  0  0  0  0
   52.1790  153.8050   28.3310 C   0  0  0  0  0  0  0  0  0  0  0  0
   52.0830  152.6680   28.7880 O   0  0  0  0  0  0  0  0  0  0  0  0
   51.7780  154.9770   29.1450 C   0  0  0  0  0  0  0  0  0  0  0  0
   51.2920  154.7240   30.4140 O   0  0  0  0  0  0  0  0  0  0  0  0
   50.2740  157.5810   29.9510 C   0  0  0  0  0  0  0  0  0  0  0  0
   49.9130  158.7540   30.6520 C   0  0  0  0  0  0  0  0  0  0  0  0
   48.5390  158.8390   31.3070 C   0  0  0  0  0  0  0  0  0  0  0  0
   47.5560  159.6400   30.4480 C   0  0  0  0  0  0  0  0  0  0  0  0
   48.6240  159.4160   32.7240 C   0  0  0  0  0  0  0  0  0  0  0  0
   50.5915  160.9238   32.5296 H   0  0  0  0  0  0  0  0  0  0  0  0
   51.3009  161.8532   31.1659 H   0  0  0  0  0  0  0  0  0  0  0  0
   49.5495  161.4542   31.1659 H   0  0  0  0  0  0  0  0  0  0  0  0
   52.8243  160.4897   30.1478 H   0  0  0  0  0  0  0  0  0  0  0  0
   53.4128  158.4110   28.9272 H   0  0  0  0  0  0  0  0  0  0  0  0
   53.2722  156.7061   24.9124 H   0  0  0  0  0  0  0  0  0  0  0  0
   54.0048  154.8497   23.4126 H   0  0  0  0  0  0  0  0  0  0  0  0
   53.8856  152.4844   24.2001 H   0  0  0  0  0  0  0  0  0  0  0  0
   52.3920  151.4020   27.1030 H   0  0  0  0  0  0  0  0  0  0  0  0
   50.6230  155.2700   30.7780 H   0  0  0  0  0  0  0  0  0  0  0  0
   49.5564  156.7488   29.9018 H   0  0  0  0  0  0  0  0  0  0  0  0
   48.1554  157.8112   31.3871 H   0  0  0  0  0  0  0  0  0  0  0  0
   46.8698  160.1992   31.1010 H   0  0  0  0  0  0  0  0  0  0  0  0
   48.1135  160.3443   29.8130 H   0  0  0  0  0  0  0  0  0  0  0  0
   46.9788  158.9518   29.8130 H   0  0  0  0  0  0  0  0  0  0  0  0
   48.5046  158.6053   33.4578 H   0  0  0  0  0  0  0  0  0  0  0  0
   49.6028  159.8976   32.8657 H   0  0  0  0  0  0  0  0  0  0  0  0
   47.8257  160.1594   32.8657 H   0  0  0  0  0  0  0  0  0  0  0  0
  1  2  1  0
  2  3  2  0
  3  4  1  0
  4  5  2  0
  5  6  1  0
  6  7  1  0
  7  8  1  0
  8  9  2  0
  9 10  1  0
 10 11  2  0
 11 12  1  0
 12 13  1  0
 12 14  2  0
 14 15  1  0
 15 16  2  0
 15 17  1  0
 17 18  1  0
  5 19  1  0
 19 20  2  0
 20 21  1  0
 21 22  1  0
 21 23  1  0
 20  2  1  0
 17  6  2  0
 14  8  1  0
  1 24  1  0
  1 25  1  0
  1 26  1  0
  3 27  1  0
  4 28  1  0
  9 29  1  0
 10 30  1  0
 11 31  1  0
 13 32  1  0
 18 33  1  0
 19 34  1  0
 21 35  1  0
 22 36  1  0
 22 37  1  0
 22 38  1  0
 23 39  1  0
 23 40  1  0
 23 41  1  0
M  END
>  <meeko>  (2) 
{"is_sidechain": [false], "free_energy": -10.198, "intermolecular_energy": -12.411, "internal_energy": 0.485}

$$$$
cand_009_out
     RDKit          3D

 41 43  0  0  0  0  0  0  0  0999 V2000
   48.5690  160.0890   31.5220 C   0  0  0  0  0  0  0  0  0  0  0  0
   49.4510  159.1230   30.7780 C   0  0  0  0  0  0  0  0  0  0  0  0
   48.9320  157.8590   30.4540 C   0  0  0  0  0  0  0  0  0  0  0  0
   49.7010  156.9180   29.7670 C   0  0  0  0  0  0  0  0  0  0  0  0
   51.0140  157.2110   29.3890 C   0  0  0  0  0  0  0  0  0  0  0  0
   51.8050  156.2120   28.6410 C   0  0  0  0  0  0  0  0  0  0  0  0
   52.3010  156.7050   27.4390 O   0  0  0  0  0  0  0  0  0  0  0  0
   53.0560  155.8820   26.6440 C   0  0  0  0  0  0  0  0  0  0  0  0
   53.5460  156.4240   25.4550 C   0  0  0  0  0  0  0  0  0  0  0  0
   54.3190  155.6380   24.5980 C   0  0  0  0  0  0  0  0  0  0  0  0
   54.6030  154.3110   24.9300 C   0  0  0  0  0  0  0  0  0  0  0  0
   54.1130  153.7740   26.1170 C   0  0  0  0  0  0  0  0  0  0  0  0
   54.4270  152.4680   26.3800 O   0  0  0  0  0  0  0  0  0  0  0  0
   53.3390  154.5600   26.9740 C   0  0  0  0  0  0  0  0  0  0  0  0
   52.8050  154.0340   28.2310 C   0  0  0  0  0  0  0  0  0  0  0  0
   53.0040  152.8750   28.5880 O   0  0  0  0  0  0  0  0  0  0  0  0
   52.0030  154.9520   29.0730 C   0  0  0  0  0  0  0  0  0  0  0  0
   51.4930  154.4400   30.2510 O   0  0  0  0  0  0  0  0  0  0  0  0
   51.5290  158.4770   29.7030 C   0  0  0  0  0  0  0  0  0  0  0  0
   50.7720  159.4450   30.4010 C   0  0  0  0  0  0  0  0  0  0  0  0
   51.4010  160.7970   30.7180 C   0  0  0  0  0  0  0  0  0  0  0  0
   52.9150  160.7810   30.4830 C   0  0  0  0  0  0  0  0  0  0  0  0
   51.0740  161.2510   32.1450 C   0  0  0  0  0  0  0  0  0  0  0  0
   48.6998  159.9457   32.6048 H   0  0  0  0  0  0  0  0  0  0  0  0
   48.8445  161.1193   31.2525 H   0  0  0  0  0  0  0  0  0  0  0  0
   47.5180  159.9081   31.2525 H   0  0  0  0  0  0  0  0  0  0  0  0
   47.9022  157.6061   30.7465 H   0  0  0  0  0  0  0  0  0  0  0  0
   49.2693  155.9366   29.5209 H   0  0  0  0  0  0  0  0  0  0  0  0
   53.3236  157.4690   25.1933 H   0  0  0  0  0  0  0  0  0  0  0  0
   54.7049  156.0642   23.6602 H   0  0  0  0  0  0  0  0  0  0  0  0
   55.2124  153.6921   24.2550 H   0  0  0  0  0  0  0  0  0  0  0  0
   53.7440  151.8350   26.4840 H   0  0  0  0  0  0  0  0  0  0  0  0
   51.2650  155.0160   30.9540 H   0  0  0  0  0  0  0  0  0  0  0  0
   52.5558  158.7247   29.3960 H   0  0  0  0  0  0  0  0  0  0  0  0
   50.9603  161.5285   30.0247 H   0  0  0  0  0  0  0  0  0  0  0  0
   53.4364  160.7755   31.4516 H   0  0  0  0  0  0  0  0  0  0  0  0
   53.1883  159.8799   29.9144 H   0  0  0  0  0  0  0  0  0  0  0  0
   53.2073  161.6761   29.9144 H   0  0  0  0  0  0  0  0  0  0  0  0
   51.5601  160.5761   32.8649 H   0  0  0  0  0  0  0  0  0  0  0  0
   51.4424  162.2763   32.2971 H   0  0  0  0  0  0  0  0  0  0  0  0
   49.9848  161.2264   32.2971 H   0  0  0  0  0  0  0  0  0  0  0  0
  1  2  1  0
  2  3  2  0
  3  4  1  0
  4  5  2  0
  5  6  1  0
  6  7  1  0
  7  8  1  0
  8  9  2  0
  9 10  1  0
 10 11  2  0
 11 12  1  0
 12 13  1  0
 12 14  2  0
 14 15  1  0
 15 16  2  0
 15 17  1  0
 17 18  1  0
  5 19  1  0
 19 20  2  0
 20 21  1  0
 21 22  1  0
 21 23  1  0
 20  2  1  0
 17  6  2  0
 14  8  1  0
  1 24  1  0
  1 25  1  0
  1 26  1  0
  3 27  1  0
  4 28  1  0
  9 29  1  0
 10 30  1  0
 11 31  1  0
 13 32  1  0
 18 33  1  0
 19 34  1  0
 21 35  1  0
 22 36  1  0
 22 37  1  0
 22 38  1  0
 23 39  1  0
 23 40  1  0
 23 41  1  0
M  END
>  <meeko>  (3) 
{"is_sidechain": [false], "free_energy": -9.508, "intermolecular_energy": -11.531, "internal_energy": 0.417}

$$$$
cand_009_out
     RDKit          3D

 41 43  0  0  0  0  0  0  0  0999 V2000
   53.4820  152.5180   26.8640 C   0  0  0  0  0  0  0  0  0  0  0  0
   52.8790  153.7490   27.4820 C   0  0  0  0  0  0  0  0  0  0  0  0
   52.1880  153.6150   28.6980 C   0  0  0  0  0  0  0  0  0  0  0  0
   51.6030  154.7190   29.3210 C   0  0  0  0  0  0  0  0  0  0  0  0
   51.6870  155.9890   28.7440 C   0  0  0  0  0  0  0  0  0  0  0  0
   51.0840  157.1500   29.4310 C   0  0  0  0  0  0  0  0  0  0  0  0
   52.0020  158.1630   29.6870 O   0  0  0  0  0  0  0  0  0  0  0  0
   51.5750  159.3020   30.3190 C   0  0  0  0  0  0  0  0  0  0  0  0
   52.5270  160.2980   30.5420 C   0  0  0  0  0  0  0  0  0  0  0  0
   52.1580  161.4830   31.1830 C   0  0  0  0  0  0  0  0  0  0  0  0
   50.8390  161.6710   31.6020 C   0  0  0  0  0  0  0  0  0  0  0  0
   49.8920  160.6760   31.3780 C   0  0  0  0  0  0  0  0  0  0  0  0
   48.6190  160.9240   31.8140 O   0  0  0  0  0  0  0  0  0  0  0  0
   50.2610  159.4900   30.7360 C   0  0  0  0  0  0  0  0  0  0  0  0
   49.2960  158.4200   30.4810 C   0  0  0  0  0  0  0  0  0  0  0  0
   48.1200  158.5070   30.8260 O   0  0  0  0  0  0  0  0  0  0  0  0
   49.7870  157.2060   29.7860 C   0  0  0  0  0  0  0  0  0  0  0  0
   48.8710  156.1960   29.5630 O   0  0  0  0  0  0  0  0  0  0  0  0
   52.3870  156.1250   27.5360 C   0  0  0  0  0  0  0  0  0  0  0  0
   52.9840  155.0220   26.8840 C   0  0  0  0  0  0  0  0  0  0  0  0
   53.7180  155.2430   25.5670 C   0  0  0  0  0  0  0  0  0  0  0  0
   53.9510  156.7340   25.2960 C   0  0  0  0  0  0  0  0  0  0  0  0
   52.9860  154.5840   24.3940 C   0  0  0  0  0  0  0  0  0  0  0  0
   53.8166  151.8350   27.6587 H   0  0  0  0  0  0  0  0  0  0  0  0
   52.7287  152.0141   26.2406 H   0  0  0  0  0  0  0  0  0  0  0  0
   54.3419  152.8043   26.2406 H   0  0  0  0  0  0  0  0  0  0  0  0
   52.1065  152.6234   29.1671 H   0  0  0  0  0  0  0  0  0  0  0  0
   51.0710  154.5879   30.2749 H   0  0  0  0  0  0  0  0  0  0  0  0
   53.5663  160.1500   30.2135 H   0  0  0  0  0  0  0  0  0  0  0  0
   52.9073  162.2691   31.3580 H   0  0  0  0  0  0  0  0  0  0  0  0
   50.5492  162.6037   32.1081 H   0  0  0  0  0  0  0  0  0  0  0  0
   47.8910  160.7730   31.2440 H   0  0  0  0  0  0  0  0  0  0  0  0
   48.9220  155.3990   30.0530 H   0  0  0  0  0  0  0  0  0  0  0  0
   52.4742  157.1228   27.0812 H   0  0  0  0  0  0  0  0  0  0  0  0
   54.7014  154.7594   25.6624 H   0  0  0  0  0  0  0  0  0  0  0  0
   54.0350  157.2717   26.2520 H   0  0  0  0  0  0  0  0  0  0  0  0
   54.8799  156.8613   24.7208 H   0  0  0  0  0  0  0  0  0  0  0  0
   53.1052  157.1387   24.7208 H   0  0  0  0  0  0  0  0  0  0  0  0
   52.2205  153.8948   24.7801 H   0  0  0  0  0  0  0  0  0  0  0  0
   52.5050  155.3594   23.7797 H   0  0  0  0  0  0  0  0  0  0  0  0
   53.7068  154.0244   23.7797 H   0  0  0  0  0  0  0  0  0  0  0  0
  1  2  1  0
  2  3  2  0
  3  4  1  0
  4  5  2  0
  5  6  1  0
  6  7  1  0
  7  8  1  0
  8  9  2  0
  9 10  1  0
 10 11  2  0
 11 12  1  0
 12 13  1  0
 12 14  2  0
 14 15  1  0
 15 16  2  0
 15 17  1  0
 17 18  1  0
  5 19  1  0
 19 20  2  0
 20 21  1  0
 21 22  1  0
 21 23  1  0
 20  2  1  0
 17  6  2  0
 14  8  1  0
  1 24  1  0
  1 25  1  0
  1 26  1  0
  3 27  1  0
  4 28  1  0
  9 29  1  0
 10 30  1  0
 11 31  1  0
 13 32  1  0
 18 33  1  0
 19 34  1  0
 21 35  1  0
 22 36  1  0
 22 37  1  0
 22 38  1  0
 23 39  1  0
 23 40  1  0
 23 41  1  0
M  END
>  <meeko>  (4) 
{"is_sidechain": [false], "free_energy": -9.186, "intermolecular_energy": -10.588, "internal_energy": -0.147}

$$$$
cand_009_out
     RDKit          3D

 41 43  0  0  0  0  0  0  0  0999 V2000
   54.0990  154.3290   25.3420 C   0  0  0  0  0  0  0  0  0  0  0  0
   53.3870  155.1540   26.3790 C   0  0  0  0  0  0  0  0  0  0  0  0
   53.4380  156.5530   26.2680 C   0  0  0  0  0  0  0  0  0  0  0  0
   52.8000  157.3740   27.2000 C   0  0  0  0  0  0  0  0  0  0  0  0
   52.0960  156.8200   28.2720 C   0  0  0  0  0  0  0  0  0  0  0  0
   51.4050  157.7040   29.2340 C   0  0  0  0  0  0  0  0  0  0  0  0
   52.1350  158.8460   29.5400 O   0  0  0  0  0  0  0  0  0  0  0  0
   51.6090  159.7560   30.4210 C   0  0  0  0  0  0  0  0  0  0  0  0
   52.3700  160.8950   30.6870 C   0  0  0  0  0  0  0  0  0  0  0  0
   51.8920  161.8590   31.5770 C   0  0  0  0  0  0  0  0  0  0  0  0
   50.6550  161.6850   32.2010 C   0  0  0  0  0  0  0  0  0  0  0  0
   49.8980  160.5470   31.9330 C   0  0  0  0  0  0  0  0  0  0  0  0
   48.6960  160.4390   32.5790 O   0  0  0  0  0  0  0  0  0  0  0  0
   50.3760  159.5820   31.0430 C   0  0  0  0  0  0  0  0  0  0  0  0
   49.6120  158.3730   30.7340 C   0  0  0  0  0  0  0  0  0  0  0  0
   48.5190  158.1440   31.2480 O   0  0  0  0  0  0  0  0  0  0  0  0
   50.2030  157.4160   29.7700 C   0  0  0  0  0  0  0  0  0  0  0  0
   49.4790  156.2710   29.4960 O   0  0  0  0  0  0  0  0  0  0  0  0
   52.0350  155.4230   28.3760 C   0  0  0  0  0  0  0  0  0  0  0  0
   52.6760  154.5710   27.4490 C   0  0  0  0  0  0  0  0  0  0  0  0
   52.5770  153.0600   27.6310 C   0  0  0  0  0  0  0  0  0  0  0  0
   51.8970  152.3930   26.4310 C   0  0  0  0  0  0  0  0  0  0  0  0
   51.8620  152.6940   28.9360 C   0  0  0  0  0  0  0  0  0  0  0  0
   54.7396  153.5867   25.8405 H   0  0  0  0  0  0  0  0  0  0  0  0
   53.3591  153.8117   24.7136 H   0  0  0  0  0  0  0  0  0  0  0  0
   54.7189  154.9853   24.7136 H   0  0  0  0  0  0  0  0  0  0  0  0
   53.9897  157.0096   25.4330 H   0  0  0  0  0  0  0  0  0  0  0  0
   52.8522  158.4671   27.0891 H   0  0  0  0  0  0  0  0  0  0  0  0
   53.3448  161.0333   30.1964 H   0  0  0  0  0  0  0  0  0  0  0  0
   52.4911  162.7573   31.7870 H   0  0  0  0  0  0  0  0  0  0  0  0
   50.2794  162.4446   32.9023 H   0  0  0  0  0  0  0  0  0  0  0  0
   48.6640  160.1010   33.4520 H   0  0  0  0  0  0  0  0  0  0  0  0
   49.7210  155.7230   28.7760 H   0  0  0  0  0  0  0  0  0  0  0  0
   51.4694  154.9757   29.2067 H   0  0  0  0  0  0  0  0  0  0  0  0
   53.6055  152.6749   27.6930 H   0  0  0  0  0  0  0  0  0  0  0  0
   51.1544  151.6646   26.7886 H   0  0  0  0  0  0  0  0  0  0  0  0
   51.3953  153.1590   25.8214 H   0  0  0  0  0  0  0  0  0  0  0  0
   52.6531  151.8766   25.8214 H   0  0  0  0  0  0  0  0  0  0  0  0
   52.4771  153.0089   29.7919 H   0  0  0  0  0  0  0  0  0  0  0  0
   50.8886  153.2047   28.9765 H   0  0  0  0  0  0  0  0  0  0  0  0
   51.7071  151.6057   28.9765 H   0  0  0  0  0  0  0  0  0  0  0  0
  1  2  1  0
  2  3  2  0
  3  4  1  0
  4  5  2  0
  5  6  1  0
  6  7  1  0
  7  8  1  0
  8  9  2  0
  9 10  1  0
 10 11  2  0
 11 12  1  0
 12 13  1  0
 12 14  2  0
 14 15  1  0
 15 16  2  0
 15 17  1  0
 17 18  1  0
  5 19  1  0
 19 20  2  0
 20 21  1  0
 21 22  1  0
 21 23  1  0
 20  2  1  0
 17  6  2  0
 14  8  1  0
  1 24  1  0
  1 25  1  0
  1 26  1  0
  3 27  1  0
  4 28  1  0
  9 29  1  0
 10 30  1  0
 11 31  1  0
 13 32  1  0
 18 33  1  0
 19 34  1  0
 21 35  1  0
 22 36  1  0
 22 37  1  0
 22 38  1  0
 23 39  1  0
 23 40  1  0
 23 41  1  0
M  END
>  <meeko>  (5) 
{"is_sidechain": [false], "free_energy": -7.531, "intermolecular_energy": -8.971, "internal_energy": 0.182}

$$$$
cand_009_out
     RDKit          3D

 41 43  0  0  0  0  0  0  0  0999 V2000
   49.2310  158.3430   31.2880 C   0  0  0  0  0  0  0  0  0  0  0  0
   50.0780  157.6460   30.2590 C   0  0  0  0  0  0  0  0  0  0  0  0
   49.9000  156.2640   30.0740 C   0  0  0  0  0  0  0  0  0  0  0  0
   50.6580  155.5590   29.1360 C   0  0  0  0  0  0  0  0  0  0  0  0
   51.6180  156.2130   28.3610 C   0  0  0  0  0  0  0  0  0  0  0  0
   52.3920  155.4550   27.3550 C   0  0  0  0  0  0  0  0  0  0  0  0
   52.1250  154.0910   27.3830 O   0  0  0  0  0  0  0  0  0  0  0  0
   52.7750  153.2690   26.4990 C   0  0  0  0  0  0  0  0  0  0  0  0
   52.4650  151.9090   26.5520 C   0  0  0  0  0  0  0  0  0  0  0  0
   53.0940  151.0170   25.6810 C   0  0  0  0  0  0  0  0  0  0  0  0
   54.0320  151.4840   24.7570 C   0  0  0  0  0  0  0  0  0  0  0  0
   54.3390  152.8410   24.7070 C   0  0  0  0  0  0  0  0  0  0  0  0
   55.2680  153.2300   23.7800 O   0  0  0  0  0  0  0  0  0  0  0  0
   53.7100  153.7330   25.5790 C   0  0  0  0  0  0  0  0  0  0  0  0
   54.0040  155.1670   25.5580 C   0  0  0  0  0  0  0  0  0  0  0  0
   54.8230  155.6530   24.7810 O   0  0  0  0  0  0  0  0  0  0  0  0
   53.2760  156.0300   26.5180 C   0  0  0  0  0  0  0  0  0  0  0  0
   53.5720  157.3800   26.4980 O   0  0  0  0  0  0  0  0  0  0  0  0
   51.7870  157.5940   28.5370 C   0  0  0  0  0  0  0  0  0  0  0  0
   51.0360  158.3290   29.4810 C   0  0  0  0  0  0  0  0  0  0  0  0
   51.2820  159.8270   29.6280 C   0  0  0  0  0  0  0  0  0  0  0  0
   52.0530  160.1460   30.9130 C   0  0  0  0  0  0  0  0  0  0  0  0
   49.9750  160.6240   29.5620 C   0  0  0  0  0  0  0  0  0  0  0  0
   49.5724  158.0621   32.2952 H   0  0  0  0  0  0  0  0  0  0  0  0
   49.3213  159.4319   31.1607 H   0  0  0  0  0  0  0  0  0  0  0  0
   48.1799  158.0448   31.1607 H   0  0  0  0  0  0  0  0  0  0  0  0
   49.1519  155.7291   30.6775 H   0  0  0  0  0  0  0  0  0  0  0  0
   50.4971  154.4785   29.0067 H   0  0  0  0  0  0  0  0  0  0  0  0
   51.7262  151.5404   27.2789 H   0  0  0  0  0  0  0  0  0  0  0  0
   52.8506  149.9451   25.7225 H   0  0  0  0  0  0  0  0  0  0  0  0
   54.5268  150.7812   24.0706 H   0  0  0  0  0  0  0  0  0  0  0  0
   56.0140  152.6900   23.6100 H   0  0  0  0  0  0  0  0  0  0  0  0
   52.9030  158.0090   26.6820 H   0  0  0  0  0  0  0  0  0  0  0  0
   52.5286  158.1221   27.9197 H   0  0  0  0  0  0  0  0  0  0  0  0
   51.9049  160.1364   28.7758 H   0  0  0  0  0  0  0  0  0  0  0  0
   51.4338  159.8898   31.7853 H   0  0  0  0  0  0  0  0  0  0  0  0
   52.9828  159.5587   30.9381 H   0  0  0  0  0  0  0  0  0  0  0  0
   52.2960  161.2185   30.9381 H   0  0  0  0  0  0  0  0  0  0  0  0
   49.6241  160.8380   30.5823 H   0  0  0  0  0  0  0  0  0  0  0  0
   50.1489  161.5699   29.0281 H   0  0  0  0  0  0  0  0  0  0  0  0
   49.2137  160.0363   29.0281 H   0  0  0  0  0  0  0  0  0  0  0  0
  1  2  1  0
  2  3  2  0
  3  4  1  0
  4  5  2  0
  5  6  1  0
  6  7  1  0
  7  8  1  0
  8  9  2  0
  9 10  1  0
 10 11  2  0
 11 12  1  0
 12 13  1  0
 12 14  2  0
 14 15  1  0
 15 16  2  0
 15 17  1  0
 17 18  1  0
  5 19  1  0
 19 20  2  0
 20 21  1  0
 21 22  1  0
 21 23  1  0
 20  2  1  0
 17  6  2  0
 14  8  1  0
  1 24  1  0
  1 25  1  0
  1 26  1  0
  3 27  1  0
  4 28  1  0
  9 29  1  0
 10 30  1  0
 11 31  1  0
 13 32  1  0
 18 33  1  0
 19 34  1  0
 21 35  1  0
 22 36  1  0
 22 37  1  0
 22 38  1  0
 23 39  1  0
 23 40  1  0
 23 41  1  0
M  END
>  <meeko>  (6) 
{"is_sidechain": [false], "free_energy": -7.516, "intermolecular_energy": -9.586, "internal_energy": 0.814}

$$$$
cand_009_out
     RDKit          3D

 41 43  0  0  0  0  0  0  0  0999 V2000
   53.5490  154.3020   25.8640 C   0  0  0  0  0  0  0  0  0  0  0  0
   53.0110  155.2920   26.8610 C   0  0  0  0  0  0  0  0  0  0  0  0
   53.1000  156.6610   26.5570 C   0  0  0  0  0  0  0  0  0  0  0  0
   52.6210  157.6280   27.4430 C   0  0  0  0  0  0  0  0  0  0  0  0
   52.0450  157.2570   28.6600 C   0  0  0  0  0  0  0  0  0  0  0  0
   51.5210  158.2940   29.5740 C   0  0  0  0  0  0  0  0  0  0  0  0
   50.1680  158.1350   29.8520 O   0  0  0  0  0  0  0  0  0  0  0  0
   49.5530  159.0290   30.6900 C   0  0  0  0  0  0  0  0  0  0  0  0
   48.1970  158.8220   30.9520 C   0  0  0  0  0  0  0  0  0  0  0  0
   47.5110  159.6980   31.7960 C   0  0  0  0  0  0  0  0  0  0  0  0
   48.1770  160.7800   32.3750 C   0  0  0  0  0  0  0  0  0  0  0  0
   49.5290  160.9840   32.1110 C   0  0  0  0  0  0  0  0  0  0  0  0
   50.1200  162.0630   32.7090 O   0  0  0  0  0  0  0  0  0  0  0  0
   50.2160  160.1070   31.2670 C   0  0  0  0  0  0  0  0  0  0  0  0
   51.6370  160.2850   30.9640 C   0  0  0  0  0  0  0  0  0  0  0  0
   52.2900  161.2170   31.4280 O   0  0  0  0  0  0  0  0  0  0  0  0
   52.2750  159.2950   30.0640 C   0  0  0  0  0  0  0  0  0  0  0  0
   53.6130  159.4810   29.7740 O   0  0  0  0  0  0  0  0  0  0  0  0
   51.9470  155.8900   28.9590 C   0  0  0  0  0  0  0  0  0  0  0  0
   52.4270  154.8920   28.0810 C   0  0  0  0  0  0  0  0  0  0  0  0
   52.2960  153.4250   28.4770 C   0  0  0  0  0  0  0  0  0  0  0  0
   51.6470  152.5980   27.3630 C   0  0  0  0  0  0  0  0  0  0  0  0
   51.5330  153.2610   29.7960 C   0  0  0  0  0  0  0  0  0  0  0  0
   54.0083  153.4569   26.3977 H   0  0  0  0  0  0  0  0  0  0  0  0
   52.7269  153.9338   25.2327 H   0  0  0  0  0  0  0  0  0  0  0  0
   54.3052  154.7915   25.2327 H   0  0  0  0  0  0  0  0  0  0  0  0
   53.5542  156.9758   25.6059 H   0  0  0  0  0  0  0  0  0  0  0  0
   52.6981  158.6932   27.1797 H   0  0  0  0  0  0  0  0  0  0  0  0
   47.6706  157.9712   30.4948 H   0  0  0  0  0  0  0  0  0  0  0  0
   46.4434  159.5352   32.0051 H   0  0  0  0  0  0  0  0  0  0  0  0
   47.6348  161.4699   33.0384 H   0  0  0  0  0  0  0  0  0  0  0  0
   50.7420  162.5780   32.2340 H   0  0  0  0  0  0  0  0  0  0  0  0
   54.2650  159.2750   30.4140 H   0  0  0  0  0  0  0  0  0  0  0  0
   51.4814  155.5849   29.9077 H   0  0  0  0  0  0  0  0  0  0  0  0
   53.3152  153.0409   28.6310 H   0  0  0  0  0  0  0  0  0  0  0  0
   51.0260  151.8067   27.8081 H   0  0  0  0  0  0  0  0  0  0  0  0
   51.0179  153.2512   26.7404 H   0  0  0  0  0  0  0  0  0  0  0  0
   52.4310  152.1422   26.7404 H   0  0  0  0  0  0  0  0  0  0  0  0
   52.2231  153.4093   30.6397 H   0  0  0  0  0  0  0  0  0  0  0  0
   50.7254  154.0061   29.8475 H   0  0  0  0  0  0  0  0  0  0  0  0
   51.1029  152.2499   29.8475 H   0  0  0  0  0  0  0  0  0  0  0  0
  1  2  1  0
  2  3  2  0
  3  4  1  0
  4  5  2  0
  5  6  1  0
  6  7  1  0
  7  8  1  0
  8  9  2  0
  9 10  1  0
 10 11  2  0
 11 12  1  0
 12 13  1  0
 12 14  2  0
 14 15  1  0
 15 16  2  0
 15 17  1  0
 17 18  1  0
  5 19  1  0
 19 20  2  0
 20 21  1  0
 21 22  1  0
 21 23  1  0
 20  2  1  0
 17  6  2  0
 14  8  1  0
  1 24  1  0
  1 25  1  0
  1 26  1  0
  3 27  1  0
  4 28  1  0
  9 29  1  0
 10 30  1  0
 11 31  1  0
 13 32  1  0
 18 33  1  0
 19 34  1  0
 21 35  1  0
 22 36  1  0
 22 37  1  0
 22 38  1  0
 23 39  1  0
 23 40  1  0
 23 41  1  0
M  END
>  <meeko>  (7) 
{"is_sidechain": [false], "free_energy": -7.48, "intermolecular_energy": -8.911, "internal_energy": 0.181}

$$$$
