cand_027_out
     RDKit          3D

 44 46  0  0  0  0  0  0  0  0999 V2000
   52.8840  152.4040   26.7660 C   0  0  0  0  0  0  0  0  0  0  0  0
   52.5750  153.7520   27.3620 C   0  0  0  0  0  0  0  0  0  0  0  0
   51.9290  153.7220   28.6180 C   0  0  0  0  0  0  0  0  0  0  0  0
   51.5840  154.8880   29.2960 C   0  0  0  0  0  0  0  0  0  0  0  0
   51.8800  156.1270   28.7430 C   0  0  0  0  0  0  0  0  0  0  0  0
   51.5170  157.3890   29.4220 C   0  0  0  0  0  0  0  0  0  0  0  0
   50.1950  157.4090   29.8550 O   0  0  0  0  0  0  0  0  0  0  0  0
   49.7250  158.5230   30.5000 C   0  0  0  0  0  0  0  0  0  0  0  0
   48.3970  158.4950   30.9280 C   0  0  0  0  0  0  0  0  0  0  0  0
   47.8540  159.5980   31.5900 C   0  0  0  0  0  0  0  0  0  0  0  0
   48.6390  160.7290   31.8240 C   0  0  0  0  0  0  0  0  0  0  0  0
   49.9630  160.7550   31.3960 C   0  0  0  0  0  0  0  0  0  0  0  0
   50.6740  161.8950   31.6570 O   0  0  0  0  0  0  0  0  0  0  0  0
   50.5060  159.6510   30.7340 C   0  0  0  0  0  0  0  0  0  0  0  0
   51.8930  159.6370   30.2680 C   0  0  0  0  0  0  0  0  0  0  0  0
   52.6440  160.5960   30.4310 O   0  0  0  0  0  0  0  0  0  0  0  0
   52.3730  158.4150   29.5820 C   0  0  0  0  0  0  0  0  0  0  0  0
   53.6810  158.4180   29.1330 O   0  0  0  0  0  0  0  0  0  0  0  0
   52.5020  156.1620   27.4810 C   0  0  0  0  0  0  0  0  0  0  0  0
   52.8530  155.0000   26.7440 C   0  0  0  0  0  0  0  0  0  0  0  0
   53.5370  155.1670   25.3590 C   0  0  0  0  0  0  0  0  0  0  0  0
   54.0400  156.6060   25.1030 C   0  0  0  0  0  0  0  0  0  0  0  0
   52.5450  154.7510   24.2520 C   0  0  0  0  0  0  0  0  0  0  0  0
   54.7950  154.2690   25.1810 C   0  0  0  0  0  0  0  0  0  0  0  0
   53.0509  151.6757   27.5733 H   0  0  0  0  0  0  0  0  0  0  0  0
   52.0379  152.0752   26.1447 H   0  0  0  0  0  0  0  0  0  0  0  0
   53.7888  152.4765   26.1447 H   0  0  0  0  0  0  0  0  0  0  0  0
   51.6917  152.7492   29.0735 H   0  0  0  0  0  0  0  0  0  0  0  0
   51.0767  154.8278   30.2702 H   0  0  0  0  0  0  0  0  0  0  0  0
   47.7782  157.6043   30.7439 H   0  0  0  0  0  0  0  0  0  0  0  0
   46.8073  159.5760   31.9274 H   0  0  0  0  0  0  0  0  0  0  0  0
   48.2115  161.5979   32.3458 H   0  0  0  0  0  0  0  0  0  0  0  0
   50.6320  162.6190   31.0650 H   0  0  0  0  0  0  0  0  0  0  0  0
   54.3490  157.9970   29.6360 H   0  0  0  0  0  0  0  0  0  0  0  0
   52.7289  157.1443   27.0410 H   0  0  0  0  0  0  0  0  0  0  0  0
   54.2160  157.1095   26.0650 H   0  0  0  0  0  0  0  0  0  0  0  0
   54.9788  156.5699   24.5309 H   0  0  0  0  0  0  0  0  0  0  0  0
   53.2831  157.1626   24.5309 H   0  0  0  0  0  0  0  0  0  0  0  0
   51.6234  154.3646   24.7118 H   0  0  0  0  0  0  0  0  0  0  0  0
   52.3050  155.6243   23.6277 H   0  0  0  0  0  0  0  0  0  0  0  0
   52.9996  153.9677   23.6277 H   0  0  0  0  0  0  0  0  0  0  0  0
   55.1880  153.9884   26.1693 H   0  0  0  0  0  0  0  0  0  0  0  0
   54.5214  153.3608   24.6239 H   0  0  0  0  0  0  0  0  0  0  0  0
   55.5650  154.8228   24.6239 H   0  0  0  0  0  0  0  0  0  0  0  0
  1  2  1  0
  2  3  2  0
  3  4  1  0
  4  5  2  0
  5  6  1  0
  6  7  1  0
  7  8  1  0
  8  9  2  0
  9 10  1  0
 10 11  2  0
 11 12  1  0
 12 13  1  0
 12 14  2  0
 14 15  1  0
 15 16  2  0
 15 17  1  0
 17 18  1  0
  5 19  1  0
 19 20  2  0
 20 21  1  0
 21 22  1  0
 21 23  1  0
 21 24  1  0
 20  2  1  0
 17  6  2  0
 14  8  1  0
  1 25  1  0
  1 26  1  0
  1 27  1  0
  3 28  1  0
  4 29  1  0
  9 30  1  0
 10 31  1  0
 11 32  1  0
 13 33  1  0
 18 34  1  0
 19 35  1  0
 22 36  1  0
 22 37  1  0
 22 38  1  0
 23 39  1  0
 23 40  1  0
 23 41  1  0
 24 42  1  0
 24 43  1  0
 24 44  1  0
M  END
>  <meeko>  (1) 
{"is_sidechain": [false], "free_energy": -10.288, "intermolecular_energy": -12.092, "internal_energy": 0.078}

$$$$
cand_027_out
     RDKit          3D

 44 46  0  0  0  0  0  0  0  0999 V2000
   51.3850  161.3180   31.2440 C   0  0  0  0  0  0  0  0  0  0  0  0
   51.4740  159.9800   30.5590 C   0  0  0  0  0  0  0  0  0  0  0  0
   52.7560  159.6330   30.0790 C   0  0  0  0  0  0  0  0  0  0  0  0
   52.9970  158.4260   29.4290 C   0  0  0  0  0  0  0  0  0  0  0  0
   51.9610  157.5200   29.2410 C   0  0  0  0  0  0  0  0  0  0  0  0
   52.1700  156.2340   28.5410 C   0  0  0  0  0  0  0  0  0  0  0  0
   52.6490  156.3960   27.2460 O   0  0  0  0  0  0  0  0  0  0  0  0
   52.8860  155.2820   26.4820 C   0  0  0  0  0  0  0  0  0  0  0  0
   53.3780  155.4900   25.1930 C   0  0  0  0  0  0  0  0  0  0  0  0
   53.6390  154.3990   24.3620 C   0  0  0  0  0  0  0  0  0  0  0  0
   53.4060  153.0990   24.8190 C   0  0  0  0  0  0  0  0  0  0  0  0
   52.9150  152.8950   26.1050 C   0  0  0  0  0  0  0  0  0  0  0  0
   52.7100  151.5970   26.4890 O   0  0  0  0  0  0  0  0  0  0  0  0
   52.6550  153.9870   26.9370 C   0  0  0  0  0  0  0  0  0  0  0  0
   52.1390  153.8160   28.2950 C   0  0  0  0  0  0  0  0  0  0  0  0
   51.9040  152.7050   28.7670 O   0  0  0  0  0  0  0  0  0  0  0  0
   51.9020  155.0380   29.0980 C   0  0  0  0  0  0  0  0  0  0  0  0
   51.4010  154.8660   30.3740 O   0  0  0  0  0  0  0  0  0  0  0  0
   50.6770  157.8720   29.6960 C   0  0  0  0  0  0  0  0  0  0  0  0
   50.3810  159.0990   30.3450 C   0  0  0  0  0  0  0  0  0  0  0  0
   48.9220  159.3740   30.8030 C   0  0  0  0  0  0  0  0  0  0  0  0
   48.7350  159.2490   32.3330 C   0  0  0  0  0  0  0  0  0  0  0  0
   47.9720  158.4000   30.0750 C   0  0  0  0  0  0  0  0  0  0  0  0
   48.4280  160.8090   30.4600 C   0  0  0  0  0  0  0  0  0  0  0  0
   51.3946  161.1731   32.3344 H   0  0  0  0  0  0  0  0  0  0  0  0
   52.2438  161.9388   30.9490 H   0  0  0  0  0  0  0  0  0  0  0  0
   50.4515  161.8196   30.9490 H   0  0  0  0  0  0  0  0  0  0  0  0
   53.5886  160.3373   30.2230 H   0  0  0  0  0  0  0  0  0  0  0  0
   54.0075  158.1897   29.0643 H   0  0  0  0  0  0  0  0  0  0  0  0
   53.5601  156.5129   24.8318 H   0  0  0  0  0  0  0  0  0  0  0  0
   54.0285  154.5628   23.3464 H   0  0  0  0  0  0  0  0  0  0  0  0
   53.6102  152.2393   24.1639 H   0  0  0  0  0  0  0  0  0  0  0  0
   52.3090  150.9920   25.8970 H   0  0  0  0  0  0  0  0  0  0  0  0
   51.8180  154.2700   30.9650 H   0  0  0  0  0  0  0  0  0  0  0  0
   49.8566  157.1561   29.5400 H   0  0  0  0  0  0  0  0  0  0  0  0
   49.5437  159.7896   32.8466 H   0  0  0  0  0  0  0  0  0  0  0  0
   47.7650  159.6809   32.6203 H   0  0  0  0  0  0  0  0  0  0  0  0
   48.7633  158.1876   32.6203 H   0  0  0  0  0  0  0  0  0  0  0  0
   47.4046  157.8183   30.8164 H   0  0  0  0  0  0  0  0  0  0  0  0
   47.2741  158.9708   29.4448 H   0  0  0  0  0  0  0  0  0  0  0  0
   48.5600  157.7166   29.4448 H   0  0  0  0  0  0  0  0  0  0  0  0
   48.2372  161.3633   31.3907 H   0  0  0  0  0  0  0  0  0  0  0  0
   49.1980  161.3314   29.8734 H   0  0  0  0  0  0  0  0  0  0  0  0
   47.4996  160.7467   29.8734 H   0  0  0  0  0  0  0  0  0  0  0  0
  1  2  1  0
  2  3  2  0
  3  4  1  0
  4  5  2  0
  5  6  1  0
  6  7  1  0
  7  8  1  0
  8  9  2  0
  9 10  1  0
 10 11  2  0
 11 12  1  0
 12 13  1  0
 12 14  2  0
 14 15  1  0
 15 16  2  0
 15 17  1  0
 17 18  1  0
  5 19  1  0
 19 20  2  0
 20 21  1  0
 21 22  1  0
 21 23  1  0
 21 24  1  0
 20  2  1  0
 17  6  2  0
 14  8  1  0
  1 25  1  0
  1 26  1  0
  1 27  1  0
  3 28  1  0
  4 29  1  0
  9 30  1  0
 10 31  1  0
 11 32  1  0
 13 33  1  0
 18 34  1  0
 19 35  1  0
 22 36  1  0
 22 37  1  0
 22 38  1  0
 23 39  1  0
 23 40  1  0
 23 41  1  0
 24 42  1  0
 24 43  1  0
 24 44  1  0
M  END
>  <meeko>  (2) 
{"is_sidechain": [false], "free_energy": -10.25, "intermolecular_energy": -11.903, "internal_energy": -0.067}

$$$$
cand_027_out
     RDKit          3D

 44 46  0  0  0  0  0  0  0  0999 V2000
   53.5680  152.4520   26.7640 C   0  0  0  0  0  0  0  0  0  0  0  0
   52.9780  153.7100   27.3450 C   0  0  0  0  0  0  0  0  0  0  0  0
   52.3450  153.5570   28.5980 C   0  0  0  0  0  0  0  0  0  0  0  0
   51.7580  154.6290   29.2630 C   0  0  0  0  0  0  0  0  0  0  0  0
   51.7890  155.8980   28.6980 C   0  0  0  0  0  0  0  0  0  0  0  0
   51.1640  157.0610   29.3620 C   0  0  0  0  0  0  0  0  0  0  0  0
   52.0660  158.0900   29.6110 O   0  0  0  0  0  0  0  0  0  0  0  0
   51.6170  159.2300   30.2270 C   0  0  0  0  0  0  0  0  0  0  0  0
   52.5540  160.2420   30.4460 C   0  0  0  0  0  0  0  0  0  0  0  0
   52.1640  161.4290   31.0700 C   0  0  0  0  0  0  0  0  0  0  0  0
   50.8390  161.6040   31.4760 C   0  0  0  0  0  0  0  0  0  0  0  0
   49.9080  160.5930   31.2560 C   0  0  0  0  0  0  0  0  0  0  0  0
   48.6280  160.8300   31.6790 O   0  0  0  0  0  0  0  0  0  0  0  0
   50.2970  159.4060   30.6310 C   0  0  0  0  0  0  0  0  0  0  0  0
   49.3510  158.3190   30.3820 C   0  0  0  0  0  0  0  0  0  0  0  0
   48.1700  158.3950   30.7150 O   0  0  0  0  0  0  0  0  0  0  0  0
   49.8640  157.1040   29.7070 C   0  0  0  0  0  0  0  0  0  0  0  0
   48.9640  156.0770   29.4890 O   0  0  0  0  0  0  0  0  0  0  0  0
   52.3980  156.0520   27.4380 C   0  0  0  0  0  0  0  0  0  0  0  0
   52.9900  154.9830   26.7150 C   0  0  0  0  0  0  0  0  0  0  0  0
   53.6330  155.2770   25.3310 C   0  0  0  0  0  0  0  0  0  0  0  0
   54.1130  156.7390   25.1860 C   0  0  0  0  0  0  0  0  0  0  0  0
   52.6140  154.9450   24.2200 C   0  0  0  0  0  0  0  0  0  0  0  0
   54.8950  154.4150   25.0410 C   0  0  0  0  0  0  0  0  0  0  0  0
   53.8815  151.7835   27.5794 H   0  0  0  0  0  0  0  0  0  0  0  0
   52.8135  151.9455   26.1441 H   0  0  0  0  0  0  0  0  0  0  0  0
   54.4399  152.7082   26.1441 H   0  0  0  0  0  0  0  0  0  0  0  0
   52.3151  152.5603   29.0623 H   0  0  0  0  0  0  0  0  0  0  0  0
   51.2694  154.4719   30.2359 H   0  0  0  0  0  0  0  0  0  0  0  0
   53.5978  160.1044   30.1275 H   0  0  0  0  0  0  0  0  0  0  0  0
   52.9012  162.2271   31.2420 H   0  0  0  0  0  0  0  0  0  0  0  0
   50.5321  162.5385   31.9684 H   0  0  0  0  0  0  0  0  0  0  0  0
   48.2650  160.3250   32.3790 H   0  0  0  0  0  0  0  0  0  0  0  0
   49.0240  155.2880   29.9900 H   0  0  0  0  0  0  0  0  0  0  0  0
   52.4162  157.0560   26.9889 H   0  0  0  0  0  0  0  0  0  0  0  0
   54.2572  157.1783   26.1841 H   0  0  0  0  0  0  0  0  0  0  0  0
   55.0650  156.7595   24.6353 H   0  0  0  0  0  0  0  0  0  0  0  0
   53.3584  157.3198   24.6353 H   0  0  0  0  0  0  0  0  0  0  0  0
   51.6623  154.6349   24.6761 H   0  0  0  0  0  0  0  0  0  0  0  0
   52.4486  155.8357   23.5961 H   0  0  0  0  0  0  0  0  0  0  0  0
   53.0050  154.1278   23.5961 H   0  0  0  0  0  0  0  0  0  0  0  0
   55.3521  154.1028   25.9916 H   0  0  0  0  0  0  0  0  0  0  0  0
   54.6061  153.5247   24.4632 H   0  0  0  0  0  0  0  0  0  0  0  0
   55.6192  155.0080   24.4632 H   0  0  0  0  0  0  0  0  0  0  0  0
  1  2  1  0
  2  3  2  0
  3  4  1  0
  4  5  2  0
  5  6  1  0
  6  7  1  0
  7  8  1  0
  8  9  2  0
  9 10  1  0
 10 11  2  0
 11 12  1  0
 12 13  1  0
 12 14  2  0
 14 15  1  0
 15 16  2  0
 15 17  1  0
 17 18  1  0
  5 19  1  0
 19 20  2  0
 20 21  1  0
 21 22  1  0
 21 23  1  0
 21 24  1  0
 20  2  1  0
 17  6  2  0
 14  8  1  0
  1 25  1  0
  1 26  1  0
  1 27  1  0
  3 28  1  0
  4 29  1  0
  9 30  1  0
 10 31  1  0
 11 32  1  0
 13 33  1  0
 18 34  1  0
 19 35  1  0
 22 36  1  0
 22 37  1  0
 22 38  1  0
 23 39  1  0
 23 40  1  0
 23 41  1  0
 24 42  1  0
 24 43  1  0
 24 44  1  0
M  END
>  <meeko>  (3) 
{"is_sidechain": [false], "free_energy": -8.777, "intermolecular_energy": -10.334, "internal_energy": 0.095}

$$$$
cand_027_out
     RDKit          3D

 44 46  0  0  0  0  0  0  0  0999 V2000
   48.1720  159.3860   31.5850 C   0  0  0  0  0  0  0  0  0  0  0  0
   49.1710  158.5860   30.7920 C   0  0  0  0  0  0  0  0  0  0  0  0
   48.7450  157.2930   30.4140 C   0  0  0  0  0  0  0  0  0  0  0  0
   49.5560  156.4380   29.6740 C   0  0  0  0  0  0  0  0  0  0  0  0
   50.8220  156.8490   29.2790 C   0  0  0  0  0  0  0  0  0  0  0  0
   51.7210  155.9660   28.5060 C   0  0  0  0  0  0  0  0  0  0  0  0
   52.1880  156.5590   27.3380 O   0  0  0  0  0  0  0  0  0  0  0  0
   53.0320  155.8480   26.5250 C   0  0  0  0  0  0  0  0  0  0  0  0
   53.4850  156.4860   25.3700 C   0  0  0  0  0  0  0  0  0  0  0  0
   54.3450  155.8170   24.4960 C   0  0  0  0  0  0  0  0  0  0  0  0
   54.7500  154.5100   24.7760 C   0  0  0  0  0  0  0  0  0  0  0  0
   54.2960  153.8760   25.9290 C   0  0  0  0  0  0  0  0  0  0  0  0
   54.7320  152.5960   26.1420 O   0  0  0  0  0  0  0  0  0  0  0  0
   53.4360  154.5460   26.8040 C   0  0  0  0  0  0  0  0  0  0  0  0
   52.9350  153.9160   28.0250 C   0  0  0  0  0  0  0  0  0  0  0  0
   53.2420  152.7670   28.3370 O   0  0  0  0  0  0  0  0  0  0  0  0
   52.0330  154.7130   28.8880 C   0  0  0  0  0  0  0  0  0  0  0  0
   51.5550  154.1030   30.0320 O   0  0  0  0  0  0  0  0  0  0  0  0
   51.2610  158.1270   29.6730 C   0  0  0  0  0  0  0  0  0  0  0  0
   50.4760  159.0250   30.4450 C   0  0  0  0  0  0  0  0  0  0  0  0
   51.0700  160.4110   30.8180 C   0  0  0  0  0  0  0  0  0  0  0  0
   50.9550  160.7330   32.3260 C   0  0  0  0  0  0  0  0  0  0  0  0
   50.3600  161.5040   29.9910 C   0  0  0  0  0  0  0  0  0  0  0  0
   52.5880  160.5380   30.5010 C   0  0  0  0  0  0  0  0  0  0  0  0
   48.3551  159.2394   32.6597 H   0  0  0  0  0  0  0  0  0  0  0  0
   48.2769  160.4526   31.3373 H   0  0  0  0  0  0  0  0  0  0  0  0
   47.1541  159.0505   31.3373 H   0  0  0  0  0  0  0  0  0  0  0  0
   47.7429  156.9522   30.7134 H   0  0  0  0  0  0  0  0  0  0  0  0
   49.1938  155.4357   29.4017 H   0  0  0  0  0  0  0  0  0  0  0  0
   53.1653  157.5148   25.1478 H   0  0  0  0  0  0  0  0  0  0  0  0
   54.7038  156.3202   23.5860 H   0  0  0  0  0  0  0  0  0  0  0  0
   55.4262  153.9828   24.0869 H   0  0  0  0  0  0  0  0  0  0  0  0
   55.5880  152.4450   26.4890 H   0  0  0  0  0  0  0  0  0  0  0  0
   52.0530  154.1390   30.8250 H   0  0  0  0  0  0  0  0  0  0  0  0
   52.2674  158.4482   29.3663 H   0  0  0  0  0  0  0  0  0  0  0  0
   51.2679  159.8569   32.9129 H   0  0  0  0  0  0  0  0  0  0  0  0
   51.6035  161.5877   32.5689 H   0  0  0  0  0  0  0  0  0  0  0  0
   49.9118  160.9835   32.5689 H   0  0  0  0  0  0  0  0  0  0  0  0
   49.8887  162.2296   30.6702 H   0  0  0  0  0  0  0  0  0  0  0  0
   51.0959  162.0199   29.3567 H   0  0  0  0  0  0  0  0  0  0  0  0
   49.5895  161.0414   29.3567 H   0  0  0  0  0  0  0  0  0  0  0  0
   53.1563  160.5855   31.4416 H   0  0  0  0  0  0  0  0  0  0  0  0
   52.9153  159.6641   29.9186 H   0  0  0  0  0  0  0  0  0  0  0  0
   52.7656  161.4541   29.9186 H   0  0  0  0  0  0  0  0  0  0  0  0
  1  2  1  0
  2  3  2  0
  3  4  1  0
  4  5  2  0
  5  6  1  0
  6  7  1  0
  7  8  1  0
  8  9  2  0
  9 10  1  0
 10 11  2  0
 11 12  1  0
 12 13  1  0
 12 14  2  0
 14 15  1  0
 15 16  2  0
 15 17  1  0
 17 18  1  0
  5 19  1  0
 19 20  2  0
 20 21  1  0
 21 22  1  0
 21 23  1  0
 21 24  1  0
 20  2  1  0
 17  6  2  0
 14  8  1  0
  1 25  1  0
  1 26  1  0
  1 27  1  0
  3 28  1  0
  4 29  1  0
  9 30  1  0
 10 31  1  0
 11 32  1  0
 13 33  1  0
 18 34  1  0
 19 35  1  0
 22 36  1  0
 22 37  1  0
 22 38  1  0
 23 39  1  0
 23 40  1  0
 23 41  1  0
 24 42  1  0
 24 43  1  0
 24 44  1  0
M  END
>  <meeko>  (4) 
{"is_sidechain": [false], "free_energy": -8.553, "intermolecular_energy": -9.918, "internal_energy": -0.057}

$$$$
