cand_026_out
     RDKit          3D

 41 43  0  0  0  0  0  0  0  0999 V2000
   52.2870  161.0500   30.6270 C   0  0  0  0  0  0  0  0  0  0  0  0
   51.4230  159.8290   30.4640 C   0  0  0  0  0  0  0  0  0  0  0  0
   51.9410  158.7360   29.7400 C   0  0  0  0  0  0  0  0  0  0  0  0
   51.1990  157.5630   29.5370 C   0  0  0  0  0  0  0  0  0  0  0  0
   51.7960  156.4330   28.7940 C   0  0  0  0  0  0  0  0  0  0  0  0
   52.3470  156.8180   27.5760 O   0  0  0  0  0  0  0  0  0  0  0  0
   52.9360  155.8660   26.7840 C   0  0  0  0  0  0  0  0  0  0  0  0
   53.4890  156.3000   25.5790 C   0  0  0  0  0  0  0  0  0  0  0  0
   54.1020  155.3810   24.7230 C   0  0  0  0  0  0  0  0  0  0  0  0
   54.1620  154.0310   25.0750 C   0  0  0  0  0  0  0  0  0  0  0  0
   53.6110  153.6010   26.2780 C   0  0  0  0  0  0  0  0  0  0  0  0
   53.7040  152.2660   26.5600 O   0  0  0  0  0  0  0  0  0  0  0  0
   52.9980  154.5210   27.1340 C   0  0  0  0  0  0  0  0  0  0  0  0
   52.4050  154.1120   28.4080 C   0  0  0  0  0  0  0  0  0  0  0  0
   52.4120  152.9410   28.7830 O   0  0  0  0  0  0  0  0  0  0  0  0
   51.7860  155.1650   29.2450 C   0  0  0  0  0  0  0  0  0  0  0  0
   51.2180  154.7650   30.4410 O   0  0  0  0  0  0  0  0  0  0  0  0
   49.9190  157.4880   30.0880 C   0  0  0  0  0  0  0  0  0  0  0  0
   49.3890  158.5640   30.8080 C   0  0  0  0  0  0  0  0  0  0  0  0
   50.1240  159.7470   31.0080 C   0  0  0  0  0  0  0  0  0  0  0  0
   49.5000  160.8910   31.7990 C   0  0  0  0  0  0  0  0  0  0  0  0
   49.3210  160.5220   33.2750 C   0  0  0  0  0  0  0  0  0  0  0  0
   48.1710  161.3440   31.1850 C   0  0  0  0  0  0  0  0  0  0  0  0
   52.4326  161.2558   31.6977 H   0  0  0  0  0  0  0  0  0  0  0  0
   53.2632  160.8746   30.1512 H   0  0  0  0  0  0  0  0  0  0  0  0
   51.7968  161.9122   30.1512 H   0  0  0  0  0  0  0  0  0  0  0  0
   52.9562  158.8049   29.3222 H   0  0  0  0  0  0  0  0  0  0  0  0
   53.4426  157.3638   25.3031 H   0  0  0  0  0  0  0  0  0  0  0  0
   54.5373  155.7211   23.7718 H   0  0  0  0  0  0  0  0  0  0  0  0
   54.6448  153.3077   24.4013 H   0  0  0  0  0  0  0  0  0  0  0  0
   54.5150  151.8150   26.4250 H   0  0  0  0  0  0  0  0  0  0  0  0
   51.7600  154.4290   31.1280 H   0  0  0  0  0  0  0  0  0  0  0  0
   49.3212  156.5743   29.9549 H   0  0  0  0  0  0  0  0  0  0  0  0
   48.3752  158.4834   31.2271 H   0  0  0  0  0  0  0  0  0  0  0  0
   50.1997  161.7381   31.7455 H   0  0  0  0  0  0  0  0  0  0  0  0
   49.7143  161.3327   33.9059 H   0  0  0  0  0  0  0  0  0  0  0  0
   48.2520  160.3762   33.4895 H   0  0  0  0  0  0  0  0  0  0  0  0
   49.8682  159.5922   33.4895 H   0  0  0  0  0  0  0  0  0  0  0  0
   47.4597  161.5864   31.9883 H   0  0  0  0  0  0  0  0  0  0  0  0
   48.3394  162.2355   30.5630 H   0  0  0  0  0  0  0  0  0  0  0  0
   47.7599  160.5352   30.5630 H   0  0  0  0  0  0  0  0  0  0  0  0
  1  2  1  0
  2  3  2  0
  3  4  1  0
  4  5  1  0
  5  6  1  0
  6  7  1  0
  7  8  2  0
  8  9  1  0
  9 10  2  0
 10 11  1  0
 11 12  1  0
 11 13  2  0
 13 14  1  0
 14 15  2  0
 14 16  1  0
 16 17  1  0
  4 18  2  0
 18 19  1  0
 19 20  2  0
 20 21  1  0
 21 22  1  0
 21 23  1  0
 20  2  1  0
 16  5  2  0
 13  7  1  0
  1 24  1  0
  1 25  1  0
  1 26  1  0
  3 27  1  0
  8 28  1  0
  9 29  1  0
 10 30  1  0
 12 31  1  0
 17 32  1  0
 18 33  1  0
 19 34  1  0
 21 35  1  0
 22 36  1  0
 22 37  1  0
 22 38  1  0
 23 39  1  0
 23 40  1  0
 23 41  1  0
M  END
>  <meeko>  (1) 
{"is_sidechain": [false], "free_energy": -11.437, "intermolecular_energy": -13.442, "internal_energy": -0.344}

$$$$
cand_026_out
     RDKit          3D

 41 43  0  0  0  0  0  0  0  0999 V2000
   48.6720  158.0290   30.7620 C   0  0  0  0  0  0  0  0  0  0  0  0
   50.0600  158.0000   30.1800 C   0  0  0  0  0  0  0  0  0  0  0  0
   50.4740  156.8390   29.4970 C   0  0  0  0  0  0  0  0  0  0  0  0
   51.7530  156.7280   28.9310 C   0  0  0  0  0  0  0  0  0  0  0  0
   52.1310  155.5000   28.2010 C   0  0  0  0  0  0  0  0  0  0  0  0
   52.6560  155.7610   26.9390 O   0  0  0  0  0  0  0  0  0  0  0  0
   53.0500  154.7090   26.1540 C   0  0  0  0  0  0  0  0  0  0  0  0
   53.5830  155.0180   24.9020 C   0  0  0  0  0  0  0  0  0  0  0  0
   54.0020  153.9930   24.0500 C   0  0  0  0  0  0  0  0  0  0  0  0
   53.8870  152.6600   24.4510 C   0  0  0  0  0  0  0  0  0  0  0  0
   53.3540  152.3540   25.7010 C   0  0  0  0  0  0  0  0  0  0  0  0
   53.2700  151.0290   26.0290 O   0  0  0  0  0  0  0  0  0  0  0  0
   52.9360  153.3810   26.5530 C   0  0  0  0  0  0  0  0  0  0  0  0
   52.3700  153.1030   27.8740 C   0  0  0  0  0  0  0  0  0  0  0  0
   52.2310  151.9570   28.2940 O   0  0  0  0  0  0  0  0  0  0  0  0
   51.9650  154.2620   28.7020 C   0  0  0  0  0  0  0  0  0  0  0  0
   51.4200  153.9870   29.9430 O   0  0  0  0  0  0  0  0  0  0  0  0
   52.6210  157.8160   29.0440 C   0  0  0  0  0  0  0  0  0  0  0  0
   52.2260  158.9750   29.7190 C   0  0  0  0  0  0  0  0  0  0  0  0
   50.9490  159.0900   30.2980 C   0  0  0  0  0  0  0  0  0  0  0  0
   50.5680  160.3750   31.0250 C   0  0  0  0  0  0  0  0  0  0  0  0
   49.4930  161.1550   30.2620 C   0  0  0  0  0  0  0  0  0  0  0  0
   51.7930  161.2550   31.2930 C   0  0  0  0  0  0  0  0  0  0  0  0
   48.7348  158.0277   31.8602 H   0  0  0  0  0  0  0  0  0  0  0  0
   48.1522  158.9382   30.4255 H   0  0  0  0  0  0  0  0  0  0  0  0
   48.1147  157.1423   30.4255 H   0  0  0  0  0  0  0  0  0  0  0  0
   49.7742  155.9954   29.4049 H   0  0  0  0  0  0  0  0  0  0  0  0
   53.6732  156.0678   24.5861 H   0  0  0  0  0  0  0  0  0  0  0  0
   54.4226  154.2359   23.0630 H   0  0  0  0  0  0  0  0  0  0  0  0
   54.2170  151.8528   23.7805 H   0  0  0  0  0  0  0  0  0  0  0  0
   52.5300  150.5250   25.7540 H   0  0  0  0  0  0  0  0  0  0  0  0
   50.7740  153.3150   30.0330 H   0  0  0  0  0  0  0  0  0  0  0  0
   53.6249  157.7607   28.5978 H   0  0  0  0  0  0  0  0  0  0  0  0
   52.9300  159.8164   29.7992 H   0  0  0  0  0  0  0  0  0  0  0  0
   50.1454  160.0822   31.9974 H   0  0  0  0  0  0  0  0  0  0  0  0
   48.8175  161.6451   30.9786 H   0  0  0  0  0  0  0  0  0  0  0  0
   49.9722  161.9170   29.6297 H   0  0  0  0  0  0  0  0  0  0  0  0
   48.9173  160.4631   29.6297 H   0  0  0  0  0  0  0  0  0  0  0  0
   51.9388  161.3598   32.3782 H   0  0  0  0  0  0  0  0  0  0  0  0
   52.6839  160.7891   30.8466 H   0  0  0  0  0  0  0  0  0  0  0  0
   51.6359  162.2480   30.8466 H   0  0  0  0  0  0  0  0  0  0  0  0
  1  2  1  0
  2  3  2  0
  3  4  1  0
  4  5  1  0
  5  6  1  0
  6  7  1  0
  7  8  2  0
  8  9  1  0
  9 10  2  0
 10 11  1  0
 11 12  1  0
 11 13  2  0
 13 14  1  0
 14 15  2  0
 14 16  1  0
 16 17  1  0
  4 18  2  0
 18 19  1  0
 19 20  2  0
 20 21  1  0
 21 22  1  0
 21 23  1  0
 20  2  1  0
 16  5  2  0
 13  7  1  0
  1 24  1  0
  1 25  1  0
  1 26  1  0
  3 27  1  0
  8 28  1  0
  9 29  1  0
 10 30  1  0
 12 31  1  0
 17 32  1  0
 18 33  1  0
 19 34  1  0
 21 35  1  0
 22 36  1  0
 22 37  1  0
 22 38  1  0
 23 39  1  0
 23 40  1  0
 23 41  1  0
M  END
>  <meeko>  (2) 
{"is_sidechain": [false], "free_energy": -10.396, "intermolecular_energy": -12.499, "internal_energy": -0.064}

$$$$
cand_026_out
     RDKit          3D

 41 43  0  0  0  0  0  0  0  0999 V2000
   53.6190  155.5730   25.2270 C   0  0  0  0  0  0  0  0  0  0  0  0
   52.8980  155.3280   26.5250 C   0  0  0  0  0  0  0  0  0  0  0  0
   52.5490  156.4410   27.3150 C   0  0  0  0  0  0  0  0  0  0  0  0
   51.8820  156.3000   28.5410 C   0  0  0  0  0  0  0  0  0  0  0  0
   51.5120  157.4990   29.3210 C   0  0  0  0  0  0  0  0  0  0  0  0
   50.1800  157.4970   29.7180 O   0  0  0  0  0  0  0  0  0  0  0  0
   49.7040  158.5520   30.4520 C   0  0  0  0  0  0  0  0  0  0  0  0
   48.3650  158.5010   30.8410 C   0  0  0  0  0  0  0  0  0  0  0  0
   47.8150  159.5450   31.5880 C   0  0  0  0  0  0  0  0  0  0  0  0
   48.6050  160.6410   31.9450 C   0  0  0  0  0  0  0  0  0  0  0  0
   49.9410  160.6900   31.5560 C   0  0  0  0  0  0  0  0  0  0  0  0
   50.6570  161.7910   31.9390 O   0  0  0  0  0  0  0  0  0  0  0  0
   50.4900  159.6430   30.8090 C   0  0  0  0  0  0  0  0  0  0  0  0
   51.8890  159.6560   30.3790 C   0  0  0  0  0  0  0  0  0  0  0  0
   52.6450  160.5870   30.6480 O   0  0  0  0  0  0  0  0  0  0  0  0
   52.3760  158.4950   29.5970 C   0  0  0  0  0  0  0  0  0  0  0  0
   53.6950  158.5230   29.1860 O   0  0  0  0  0  0  0  0  0  0  0  0
   51.5490  155.0120   28.9660 C   0  0  0  0  0  0  0  0  0  0  0  0
   51.8890  153.8970   28.1950 C   0  0  0  0  0  0  0  0  0  0  0  0
   52.5670  154.0300   26.9680 C   0  0  0  0  0  0  0  0  0  0  0  0
   52.9160  152.7820   26.1660 C   0  0  0  0  0  0  0  0  0  0  0  0
   52.1200  151.5640   26.6460 C   0  0  0  0  0  0  0  0  0  0  0  0
   54.4210  152.4960   26.1950 C   0  0  0  0  0  0  0  0  0  0  0  0
   54.6416  155.9205   25.4355 H   0  0  0  0  0  0  0  0  0  0  0  0
   53.6602  154.6384   24.6483 H   0  0  0  0  0  0  0  0  0  0  0  0
   53.0822  156.3392   24.6483 H   0  0  0  0  0  0  0  0  0  0  0  0
   52.8070  157.4497   26.9602 H   0  0  0  0  0  0  0  0  0  0  0  0
   47.7428  157.6387   30.5594 H   0  0  0  0  0  0  0  0  0  0  0  0
   46.7596  159.5045   31.8954 H   0  0  0  0  0  0  0  0  0  0  0  0
   48.1719  161.4639   32.5326 H   0  0  0  0  0  0  0  0  0  0  0  0
   51.0110  162.3670   31.2900 H   0  0  0  0  0  0  0  0  0  0  0  0
   53.9730  157.9910   28.4660 H   0  0  0  0  0  0  0  0  0  0  0  0
   51.0138  154.8737   29.9170 H   0  0  0  0  0  0  0  0  0  0  0  0
   51.6209  152.8927   28.5548 H   0  0  0  0  0  0  0  0  0  0  0  0
   52.6318  152.9799   25.1219 H   0  0  0  0  0  0  0  0  0  0  0  0
   52.1072  151.5445   27.7458 H   0  0  0  0  0  0  0  0  0  0  0  0
   51.0888  151.6279   26.2684 H   0  0  0  0  0  0  0  0  0  0  0  0
   52.5925  150.6452   26.2684 H   0  0  0  0  0  0  0  0  0  0  0  0
   54.7619  152.4312   27.2388 H   0  0  0  0  0  0  0  0  0  0  0  0
   54.6231  151.5434   25.6835 H   0  0  0  0  0  0  0  0  0  0  0  0
   54.9585  153.3081   25.6835 H   0  0  0  0  0  0  0  0  0  0  0  0
  1  2  1  0
  2  3  2  0
  3  4  1  0
  4  5  1  0
  5  6  1  0
  6  7  1  0
  7  8  2  0
  8  9  1  0
  9 10  2  0
 10 11  1  0
 11 12  1  0
 11 13  2  0
 13 14  1  0
 14 15  2  0
 14 16  1  0
 16 17  1  0
  4 18  2  0
 18 19  1  0
 19 20  2  0
 20 21  1  0
 21 22  1  0
 21 23  1  0
 20  2  1  0
 16  5  2  0
 13  7  1  0
  1 24  1  0
  1 25  1  0
  1 26  1  0
  3 27  1  0
  8 28  1  0
  9 29  1  0
 10 30  1  0
 12 31  1  0
 17 32  1  0
 18 33  1  0
 19 34  1  0
 21 35  1  0
 22 36  1  0
 22 37  1  0
 22 38  1  0
 23 39  1  0
 23 40  1  0
 23 41  1  0
M  END
>  <meeko>  (3) 
{"is_sidechain": [false], "free_energy": -9.894, "intermolecular_energy": -11.876, "internal_energy": -0.097}

$$$$
cand_026_out
     RDKit          3D

 41 43  0  0  0  0  0  0  0  0999 V2000
   53.9220  156.3040   25.4360 C   0  0  0  0  0  0  0  0  0  0  0  0
   53.1050  155.8160   26.6020 C   0  0  0  0  0  0  0  0  0  0  0  0
   52.5110  156.7740   27.4480 C   0  0  0  0  0  0  0  0  0  0  0  0
   51.7400  156.4030   28.5600 C   0  0  0  0  0  0  0  0  0  0  0  0
   51.1150  157.4440   29.4030 C   0  0  0  0  0  0  0  0  0  0  0  0
   51.9720  158.5030   29.6790 O   0  0  0  0  0  0  0  0  0  0  0  0
   51.5180  159.5410   30.4510 C   0  0  0  0  0  0  0  0  0  0  0  0
   52.4070  160.5890   30.6910 C   0  0  0  0  0  0  0  0  0  0  0  0
   52.0090  161.6760   31.4720 C   0  0  0  0  0  0  0  0  0  0  0  0
   50.7220  161.7140   32.0140 C   0  0  0  0  0  0  0  0  0  0  0  0
   49.8360  160.6670   31.7730 C   0  0  0  0  0  0  0  0  0  0  0  0
   48.5930  160.7680   32.3330 O   0  0  0  0  0  0  0  0  0  0  0  0
   50.2350  159.5800   30.9900 C   0  0  0  0  0  0  0  0  0  0  0  0
   49.3360  158.4590   30.7130 C   0  0  0  0  0  0  0  0  0  0  0  0
   48.1920  158.4170   31.1600 O   0  0  0  0  0  0  0  0  0  0  0  0
   49.8530  157.3590   29.8670 C   0  0  0  0  0  0  0  0  0  0  0  0
   49.0000  156.3000   29.6220 O   0  0  0  0  0  0  0  0  0  0  0  0
   51.5540  155.0430   28.8110 C   0  0  0  0  0  0  0  0  0  0  0  0
   52.1380  154.0790   27.9810 C   0  0  0  0  0  0  0  0  0  0  0  0
   52.9200  154.4430   26.8700 C   0  0  0  0  0  0  0  0  0  0  0  0
   53.5360  153.3540   25.9980 C   0  0  0  0  0  0  0  0  0  0  0  0
   53.4120  153.6900   24.5080 C   0  0  0  0  0  0  0  0  0  0  0  0
   52.9290  151.9800   26.2990 C   0  0  0  0  0  0  0  0  0  0  0  0
   54.8108  156.8349   25.8077 H   0  0  0  0  0  0  0  0  0  0  0  0
   54.2367  155.4458   24.8241 H   0  0  0  0  0  0  0  0  0  0  0  0
   53.3156  156.9880   24.8241 H   0  0  0  0  0  0  0  0  0  0  0  0
   52.6559  157.8425   27.2304 H   0  0  0  0  0  0  0  0  0  0  0  0
   53.4208  160.5591   30.2653 H   0  0  0  0  0  0  0  0  0  0  0  0
   52.7094  162.5030   31.6606 H   0  0  0  0  0  0  0  0  0  0  0  0
   50.4089  162.5697   32.6302 H   0  0  0  0  0  0  0  0  0  0  0  0
   48.1900  161.6090   32.4300 H   0  0  0  0  0  0  0  0  0  0  0  0
   48.4710  156.2930   28.8480 H   0  0  0  0  0  0  0  0  0  0  0  0
   50.9429  154.7256   29.6688 H   0  0  0  0  0  0  0  0  0  0  0  0
   51.9819  153.0129   28.2026 H   0  0  0  0  0  0  0  0  0  0  0  0
   54.6068  153.3097   26.2460 H   0  0  0  0  0  0  0  0  0  0  0  0
   53.0332  154.7164   24.3939 H   0  0  0  0  0  0  0  0  0  0  0  0
   54.3995  153.6084   24.0303 H   0  0  0  0  0  0  0  0  0  0  0  0
   52.7143  152.9864   24.0303 H   0  0  0  0  0  0  0  0  0  0  0  0
   52.8661  151.8375   27.3879 H   0  0  0  0  0  0  0  0  0  0  0  0
   51.9210  151.9209   25.8626 H   0  0  0  0  0  0  0  0  0  0  0  0
   53.5641  151.1950   25.8626 H   0  0  0  0  0  0  0  0  0  0  0  0
  1  2  1  0
  2  3  2  0
  3  4  1  0
  4  5  1  0
  5  6  1  0
  6  7  1  0
  7  8  2  0
  8  9  1  0
  9 10  2  0
 10 11  1  0
 11 12  1  0
 11 13  2  0
 13 14  1  0
 14 15  2  0
 14 16  1  0
 16 17  1  0
  4 18  2  0
 18 19  1  0
 19 20  2  0
 20 21  1  0
 21 22  1  0
 21 23  1  0
 20  2  1  0
 16  5  2  0
 13  7  1  0
  1 24  1  0
  1 25  1  0
  1 26  1  0
  3 27  1  0
  8 28  1  0
  9 29  1  0
 10 30  1  0
 12 31  1  0
 17 32  1  0
 18 33  1  0
 19 34  1  0
 21 35  1  0
 22 36  1  0
 22 37  1  0
 22 38  1  0
 23 39  1  0
 23 40  1  0
 23 41  1  0
M  END
>  <meeko>  (4) 
{"is_sidechain": [false], "free_energy": -8.618, "intermolecular_energy": -11.058, "internal_energy": 0.584}

$$$$
