cand_010_out
     RDKit          3D

 35 37  0  0  0  0  0  0  0  0999 V2000
   52.5780  160.6190   30.5870 O   0  0  0  0  0  0  0  0  0  0  0  0
   51.8270  159.6740   30.3520 C   0  0  0  0  0  0  0  0  0  0  0  0
   52.3190  158.4880   29.6140 C   0  0  0  0  0  0  0  0  0  0  0  0
   53.6460  158.4940   29.2240 O   0  0  0  0  0  0  0  0  0  0  0  0
   51.4640  157.4750   29.3810 C   0  0  0  0  0  0  0  0  0  0  0  0
   51.8490  156.2400   28.6650 C   0  0  0  0  0  0  0  0  0  0  0  0
   51.6840  154.9750   29.2390 C   0  0  0  0  0  0  0  0  0  0  0  0
   52.0800  153.8220   28.5550 C   0  0  0  0  0  0  0  0  0  0  0  0
   52.6610  153.9030   27.2810 C   0  0  0  0  0  0  0  0  0  0  0  0
   53.0690  152.6330   26.5710 C   0  0  0  0  0  0  0  0  0  0  0  0
   54.4100  152.3880   26.6290 F   0  0  0  0  0  0  0  0  0  0  0  0
   52.8380  155.1720   26.6870 C   0  0  0  0  0  0  0  0  0  0  0  0
   53.4610  155.3190   25.3170 C   0  0  0  0  0  0  0  0  0  0  0  0
   54.7710  154.9480   25.2640 F   0  0  0  0  0  0  0  0  0  0  0  0
   52.8240  154.5680   24.3770 F   0  0  0  0  0  0  0  0  0  0  0  0
   53.4180  156.6010   24.8610 F   0  0  0  0  0  0  0  0  0  0  0  0
   52.4350  156.3250   27.3940 C   0  0  0  0  0  0  0  0  0  0  0  0
   50.1400  157.4650   29.8030 O   0  0  0  0  0  0  0  0  0  0  0  0
   49.6520  158.5530   30.4800 C   0  0  0  0  0  0  0  0  0  0  0  0
   48.3140  158.5070   30.8730 C   0  0  0  0  0  0  0  0  0  0  0  0
   47.7550  159.5820   31.5680 C   0  0  0  0  0  0  0  0  0  0  0  0
   48.5330  160.7010   31.8700 C   0  0  0  0  0  0  0  0  0  0  0  0
   49.8680  160.7440   31.4780 C   0  0  0  0  0  0  0  0  0  0  0  0
   50.5730  161.8700   31.8080 O   0  0  0  0  0  0  0  0  0  0  0  0
   50.4280  159.6690   30.7820 C   0  0  0  0  0  0  0  0  0  0  0  0
   53.8680  158.4290   28.3160 H   0  0  0  0  0  0  0  0  0  0  0  0
   51.2374  154.8866   30.2404 H   0  0  0  0  0  0  0  0  0  0  0  0
   51.9339  152.8371   29.0226 H   0  0  0  0  0  0  0  0  0  0  0  0
   52.5395  151.7881   27.0355 H   0  0  0  0  0  0  0  0  0  0  0  0
   52.8062  152.7548   25.5098 H   0  0  0  0  0  0  0  0  0  0  0  0
   52.5842  157.3143   26.9369 H   0  0  0  0  0  0  0  0  0  0  0  0
   47.7003  157.6255   30.6359 H   0  0  0  0  0  0  0  0  0  0  0  0
   46.7001  159.5467   31.8778 H   0  0  0  0  0  0  0  0  0  0  0  0
   48.0919  161.5474   32.4168 H   0  0  0  0  0  0  0  0  0  0  0  0
   51.1710  162.2450   31.1910 H   0  0  0  0  0  0  0  0  0  0  0  0
  1  2  2  0
  2  3  1  0
  3  4  1  0
  3  5  2  0
  5  6  1  0
  6  7  2  0
  7  8  1  0
  8  9  2  0
  9 10  1  0
 10 11  1  0
  9 12  1  0
 12 13  1  0
 13 14  1  0
 13 15  1  0
 13 16  1  0
 12 17  2  0
  5 18  1  0
 18 19  1  0
 19 20  2  0
 20 21  1  0
 21 22  2  0
 22 23  1  0
 23 24  1  0
 23 25  2  0
 25  2  1  0
 17  6  1  0
 25 19  1  0
  4 26  1  0
  7 27  1  0
  8 28  1  0
 10 29  1  0
 10 30  1  0
 17 31  1  0
 20 32  1  0
 21 33  1  0
 22 34  1  0
 24 35  1  0
M  END
>  <meeko>  (1) 
{"is_sidechain": [false], "free_energy": -10.71, "intermolecular_energy": -13.214, "internal_energy": -0.291}

$$$$
cand_010_out
     RDKit          3D

 35 37  0  0  0  0  0  0  0  0999 V2000
   52.0800  153.0940   28.8510 O   0  0  0  0  0  0  0  0  0  0  0  0
   52.2340  154.2420   28.4370 C   0  0  0  0  0  0  0  0  0  0  0  0
   51.7610  155.3970   29.2330 C   0  0  0  0  0  0  0  0  0  0  0  0
   51.1630  155.1230   30.4490 O   0  0  0  0  0  0  0  0  0  0  0  0
   51.9530  156.6360   28.7430 C   0  0  0  0  0  0  0  0  0  0  0  0
   51.5330  157.8620   29.4570 C   0  0  0  0  0  0  0  0  0  0  0  0
   52.4440  158.8680   29.7900 C   0  0  0  0  0  0  0  0  0  0  0  0
   52.0300  160.0060   30.4880 C   0  0  0  0  0  0  0  0  0  0  0  0
   50.6930  160.1650   30.8800 C   0  0  0  0  0  0  0  0  0  0  0  0
   50.2830  161.4130   31.6270 C   0  0  0  0  0  0  0  0  0  0  0  0
   50.1570  161.2210   32.9720 F   0  0  0  0  0  0  0  0  0  0  0  0
   49.7580  159.1570   30.5540 C   0  0  0  0  0  0  0  0  0  0  0  0
   48.3050  159.2740   30.9540 C   0  0  0  0  0  0  0  0  0  0  0  0
   47.8110  160.5410   30.8740 F   0  0  0  0  0  0  0  0  0  0  0  0
   47.4920  158.5070   30.1770 F   0  0  0  0  0  0  0  0  0  0  0  0
   48.0840  158.8690   32.2350 F   0  0  0  0  0  0  0  0  0  0  0  0
   50.1960  158.0140   29.8520 C   0  0  0  0  0  0  0  0  0  0  0  0
   52.5830  156.9040   27.5330 O   0  0  0  0  0  0  0  0  0  0  0  0
   53.0230  155.8530   26.7690 C   0  0  0  0  0  0  0  0  0  0  0  0
   53.6360  156.1660   25.5560 C   0  0  0  0  0  0  0  0  0  0  0  0
   54.1090  155.1440   24.7310 C   0  0  0  0  0  0  0  0  0  0  0  0
   53.9680  153.8100   25.1180 C   0  0  0  0  0  0  0  0  0  0  0  0
   53.3560  153.5000   26.3300 C   0  0  0  0  0  0  0  0  0  0  0  0
   53.2520  152.1730   26.6490 O   0  0  0  0  0  0  0  0  0  0  0  0
   52.8830  154.5230   27.1560 C   0  0  0  0  0  0  0  0  0  0  0  0
   51.6450  155.2400   31.2450 H   0  0  0  0  0  0  0  0  0  0  0  0
   53.4997  158.7630   29.4993 H   0  0  0  0  0  0  0  0  0  0  0  0
   52.7635  160.7881   30.7334 H   0  0  0  0  0  0  0  0  0  0  0  0
   51.0439  162.1885   31.4550 H   0  0  0  0  0  0  0  0  0  0  0  0
   49.2945  161.7099   31.2467 H   0  0  0  0  0  0  0  0  0  0  0  0
   49.4712  157.2231   29.6087 H   0  0  0  0  0  0  0  0  0  0  0  0
   53.7466  157.2167   25.2498 H   0  0  0  0  0  0  0  0  0  0  0  0
   54.5935  155.3901   23.7746 H   0  0  0  0  0  0  0  0  0  0  0  0
   54.3397  153.0052   24.4667 H   0  0  0  0  0  0  0  0  0  0  0  0
   54.0230  151.6790   26.8500 H   0  0  0  0  0  0  0  0  0  0  0  0
  1  2  2  0
  2  3  1  0
  3  4  1  0
  3  5  2  0
  5  6  1  0
  6  7  2  0
  7  8  1  0
  8  9  2  0
  9 10  1  0
 10 11  1  0
  9 12  1  0
 12 13  1  0
 13 14  1  0
 13 15  1  0
 13 16  1  0
 12 17  2  0
  5 18  1  0
 18 19  1  0
 19 20  2  0
 20 21  1  0
 21 22  2  0
 22 23  1  0
 23 24  1  0
 23 25  2  0
 25  2  1  0
 17  6  1  0
 25 19  1  0
  4 26  1  0
  7 27  1  0
  8 28  1  0
 10 29  1  0
 10 30  1  0
 17 31  1  0
 20 32  1  0
 21 33  1  0
 22 34  1  0
 24 35  1  0
M  END
>  <meeko>  (2) 
{"is_sidechain": [false], "free_energy": -10.438, "intermolecular_energy": -12.991, "internal_energy": -0.178}

$$$$
cand_010_out
     RDKit          3D

 35 37  0  0  0  0  0  0  0  0999 V2000
   52.8890  152.8490   28.5760 O   0  0  0  0  0  0  0  0  0  0  0  0
   52.7360  154.0140   28.2130 C   0  0  0  0  0  0  0  0  0  0  0  0
   51.9880  154.9720   29.0610 C   0  0  0  0  0  0  0  0  0  0  0  0
   51.4950  154.4990   30.2630 O   0  0  0  0  0  0  0  0  0  0  0  0
   51.8460  156.2380   28.6280 C   0  0  0  0  0  0  0  0  0  0  0  0
   51.1300  157.2800   29.3950 C   0  0  0  0  0  0  0  0  0  0  0  0
   49.7980  157.1190   29.7880 C   0  0  0  0  0  0  0  0  0  0  0  0
   49.1320  158.1280   30.4900 C   0  0  0  0  0  0  0  0  0  0  0  0
   49.7790  159.3310   30.8110 C   0  0  0  0  0  0  0  0  0  0  0  0
   49.0270  160.3940   31.5770 C   0  0  0  0  0  0  0  0  0  0  0  0
   48.5970  161.4240   30.7910 F   0  0  0  0  0  0  0  0  0  0  0  0
   51.1240  159.5120   30.4190 C   0  0  0  0  0  0  0  0  0  0  0  0
   51.8690  160.7890   30.7360 C   0  0  0  0  0  0  0  0  0  0  0  0
   51.3890  161.8840   30.0840 F   0  0  0  0  0  0  0  0  0  0  0  0
   51.8270  161.0960   32.0620 F   0  0  0  0  0  0  0  0  0  0  0  0
   53.1900  160.7140   30.4140 F   0  0  0  0  0  0  0  0  0  0  0  0
   51.7780  158.4840   29.7090 C   0  0  0  0  0  0  0  0  0  0  0  0
   52.3710  156.7130   27.4310 O   0  0  0  0  0  0  0  0  0  0  0  0
   53.0600  155.8470   26.6210 C   0  0  0  0  0  0  0  0  0  0  0  0
   53.5580  156.3620   25.4230 C   0  0  0  0  0  0  0  0  0  0  0  0
   54.2710  155.5340   24.5530 C   0  0  0  0  0  0  0  0  0  0  0  0
   54.4860  154.1940   24.8800 C   0  0  0  0  0  0  0  0  0  0  0  0
   53.9880  153.6830   26.0760 C   0  0  0  0  0  0  0  0  0  0  0  0
   54.2360  152.3620   26.3340 O   0  0  0  0  0  0  0  0  0  0  0  0
   53.2750  154.5110   26.9470 C   0  0  0  0  0  0  0  0  0  0  0  0
   51.7880  153.6730   30.5970 H   0  0  0  0  0  0  0  0  0  0  0  0
   49.2677  156.1872   29.5419 H   0  0  0  0  0  0  0  0  0  0  0  0
   48.0860  157.9767   30.7950 H   0  0  0  0  0  0  0  0  0  0  0  0
   48.1510  159.9281   32.0520 H   0  0  0  0  0  0  0  0  0  0  0  0
   49.7234  160.8170   32.3159 H   0  0  0  0  0  0  0  0  0  0  0  0
   52.8217  158.6297   29.3937 H   0  0  0  0  0  0  0  0  0  0  0  0
   53.3893  157.4178   25.1646 H   0  0  0  0  0  0  0  0  0  0  0  0
   54.6638  155.9385   23.6085 H   0  0  0  0  0  0  0  0  0  0  0  0
   55.0478  153.5428   24.1942 H   0  0  0  0  0  0  0  0  0  0  0  0
   54.1890  151.7330   25.6410 H   0  0  0  0  0  0  0  0  0  0  0  0
  1  2  2  0
  2  3  1  0
  3  4  1  0
  3  5  2  0
  5  6  1  0
  6  7  2  0
  7  8  1  0
  8  9  2  0
  9 10  1  0
 10 11  1  0
  9 12  1  0
 12 13  1  0
 13 14  1  0
 13 15  1  0
 13 16  1  0
 12 17  2  0
  5 18  1  0
 18 19  1  0
 19 20  2  0
 20 21  1  0
 21 22  2  0
 22 23  1  0
 23 24  1  0
 23 25  2  0
 25  2  1  0
 17  6  1  0
 25 19  1  0
  4 26  1  0
  7 27  1  0
  8 28  1  0
 10 29  1  0
 10 30  1  0
 17 31  1  0
 20 32  1  0
 21 33  1  0
 22 34  1  0
 24 35  1  0
M  END
>  <meeko>  (3) 
{"is_sidechain": [false], "free_energy": -10.313, "intermolecular_energy": -12.654, "internal_energy": -0.361}

$$$$
cand_010_out
     RDKit          3D

 35 37  0  0  0  0  0  0  0  0999 V2000
   48.1400  158.2850   30.7780 O   0  0  0  0  0  0  0  0  0  0  0  0
   49.3190  158.2380   30.4310 C   0  0  0  0  0  0  0  0  0  0  0  0
   49.8440  157.0550   29.7120 C   0  0  0  0  0  0  0  0  0  0  0  0
   48.9510  156.0330   29.4440 O   0  0  0  0  0  0  0  0  0  0  0  0
   51.1390  157.0470   29.3480 C   0  0  0  0  0  0  0  0  0  0  0  0
   51.7670  155.9240   28.6180 C   0  0  0  0  0  0  0  0  0  0  0  0
   51.8570  154.6440   29.1720 C   0  0  0  0  0  0  0  0  0  0  0  0
   52.4780  153.6040   28.4750 C   0  0  0  0  0  0  0  0  0  0  0  0
   53.0350  153.8190   27.2050 C   0  0  0  0  0  0  0  0  0  0  0  0
   53.6910  152.6670   26.4800 C   0  0  0  0  0  0  0  0  0  0  0  0
   52.7970  151.7860   25.9460 F   0  0  0  0  0  0  0  0  0  0  0  0
   52.9550  155.1060   26.6300 C   0  0  0  0  0  0  0  0  0  0  0  0
   53.5400  155.3950   25.2660 C   0  0  0  0  0  0  0  0  0  0  0  0
   54.8850  155.1950   25.1890 F   0  0  0  0  0  0  0  0  0  0  0  0
   52.9910  154.6160   24.2940 F   0  0  0  0  0  0  0  0  0  0  0  0
   53.3330  156.6820   24.8730 F   0  0  0  0  0  0  0  0  0  0  0  0
   52.3270  156.1440   27.3510 C   0  0  0  0  0  0  0  0  0  0  0  0
   52.0210  158.0920   29.5950 O   0  0  0  0  0  0  0  0  0  0  0  0
   51.5670  159.1970   30.2680 C   0  0  0  0  0  0  0  0  0  0  0  0
   52.4890  160.2160   30.5070 C   0  0  0  0  0  0  0  0  0  0  0  0
   52.0910  161.3710   31.1850 C   0  0  0  0  0  0  0  0  0  0  0  0
   50.7720  161.5050   31.6230 C   0  0  0  0  0  0  0  0  0  0  0  0
   49.8540  160.4870   31.3830 C   0  0  0  0  0  0  0  0  0  0  0  0
   48.5790  160.6850   31.8380 O   0  0  0  0  0  0  0  0  0  0  0  0
   50.2520  159.3320   30.7050 C   0  0  0  0  0  0  0  0  0  0  0  0
   48.8700  155.6990   28.5720 H   0  0  0  0  0  0  0  0  0  0  0  0
   51.4337  154.4528   30.1691 H   0  0  0  0  0  0  0  0  0  0  0  0
   52.5309  152.6031   28.9281 H   0  0  0  0  0  0  0  0  0  0  0  0
   54.3093  153.0735   25.6660 H   0  0  0  0  0  0  0  0  0  0  0  0
   54.2898  152.1153   27.2197 H   0  0  0  0  0  0  0  0  0  0  0  0
   52.2755  157.1498   26.9087 H   0  0  0  0  0  0  0  0  0  0  0  0
   53.5282  160.1104   30.1621 H   0  0  0  0  0  0  0  0  0  0  0  0
   52.8173  162.1753   31.3739 H   0  0  0  0  0  0  0  0  0  0  0  0
   50.4589  162.4142   32.1571 H   0  0  0  0  0  0  0  0  0  0  0  0
   47.9550  161.1340   31.3020 H   0  0  0  0  0  0  0  0  0  0  0  0
  1  2  2  0
  2  3  1  0
  3  4  1  0
  3  5  2  0
  5  6  1  0
  6  7  2  0
  7  8  1  0
  8  9  2  0
  9 10  1  0
 10 11  1  0
  9 12  1  0
 12 13  1  0
 13 14  1  0
 13 15  1  0
 13 16  1  0
 12 17  2  0
  5 18  1  0
 18 19  1  0
 19 20  2  0
 20 21  1  0
 21 22  2  0
 22 23  1  0
 23 24  1  0
 23 25  2  0
 25  2  1  0
 17  6  1  0
 25 19  1  0
  4 26  1  0
  7 27  1  0
  8 28  1  0
 10 29  1  0
 10 30  1  0
 17 31  1  0
 20 32  1  0
 21 33  1  0
 22 34  1  0
 24 35  1  0
M  END
>  <meeko>  (4) 
{"is_sidechain": [false], "free_energy": -9.65, "intermolecular_energy": -11.805, "internal_energy": -0.392}

$$$$
cand_010_out
     RDKit          3D

 35 37  0  0  0  0  0  0  0  0999 V2000
   54.6070  155.2310   24.9560 O   0  0  0  0  0  0  0  0  0  0  0  0
   53.7720  154.7760   25.7360 C   0  0  0  0  0  0  0  0  0  0  0  0
   53.0420  155.6720   26.6620 C   0  0  0  0  0  0  0  0  0  0  0  0
   53.3330  157.0230   26.5930 O   0  0  0  0  0  0  0  0  0  0  0  0
   52.1350  155.1330   27.4960 C   0  0  0  0  0  0  0  0  0  0  0  0
   51.3400  155.9330   28.4530 C   0  0  0  0  0  0  0  0  0  0  0  0
   50.1270  155.4690   28.9710 C   0  0  0  0  0  0  0  0  0  0  0  0
   49.3790  156.2530   29.8540 C   0  0  0  0  0  0  0  0  0  0  0  0
   49.8210  157.5280   30.2370 C   0  0  0  0  0  0  0  0  0  0  0  0
   48.9870  158.3420   31.2000 C   0  0  0  0  0  0  0  0  0  0  0  0
   47.8820  158.8970   30.6220 F   0  0  0  0  0  0  0  0  0  0  0  0
   51.0430  158.0150   29.7220 C   0  0  0  0  0  0  0  0  0  0  0  0
   51.5650  159.3830   30.0980 C   0  0  0  0  0  0  0  0  0  0  0  0
   51.5340  159.6370   31.4360 F   0  0  0  0  0  0  0  0  0  0  0  0
   52.8580  159.5650   29.7150 F   0  0  0  0  0  0  0  0  0  0  0  0
   50.8580  160.3880   29.5120 F   0  0  0  0  0  0  0  0  0  0  0  0
   51.7820  157.2100   28.8300 C   0  0  0  0  0  0  0  0  0  0  0  0
   51.8270  153.7780   27.5380 O   0  0  0  0  0  0  0  0  0  0  0  0
   52.4930  152.9220   26.6990 C   0  0  0  0  0  0  0  0  0  0  0  0
   52.1640  151.5690   26.7840 C   0  0  0  0  0  0  0  0  0  0  0  0
   52.8040  150.6430   25.9560 C   0  0  0  0  0  0  0  0  0  0  0  0
   53.7720  151.0700   25.0460 C   0  0  0  0  0  0  0  0  0  0  0  0
   54.0990  152.4210   24.9630 C   0  0  0  0  0  0  0  0  0  0  0  0
   55.0550  152.7710   24.0490 O   0  0  0  0  0  0  0  0  0  0  0  0
   53.4590  153.3470   25.7910 C   0  0  0  0  0  0  0  0  0  0  0  0
   53.9340  157.4040   27.2020 H   0  0  0  0  0  0  0  0  0  0  0  0
   49.7568  154.4748   28.6801 H   0  0  0  0  0  0  0  0  0  0  0  0
   48.4307  155.8648   30.2540 H   0  0  0  0  0  0  0  0  0  0  0  0
   48.6597  157.6854   32.0196 H   0  0  0  0  0  0  0  0  0  0  0  0
   49.6175  159.1692   31.5580 H   0  0  0  0  0  0  0  0  0  0  0  0
   52.7281  157.5930   28.4199 H   0  0  0  0  0  0  0  0  0  0  0  0
   51.4019  151.2315   27.5018 H   0  0  0  0  0  0  0  0  0  0  0  0
   52.5444  149.5761   26.0216 H   0  0  0  0  0  0  0  0  0  0  0  0
   54.2760  150.3404   24.3952 H   0  0  0  0  0  0  0  0  0  0  0  0
   54.8370  153.3440   23.3400 H   0  0  0  0  0  0  0  0  0  0  0  0
  1  2  2  0
  2  3  1  0
  3  4  1  0
  3  5  2  0
  5  6  1  0
  6  7  2  0
  7  8  1  0
  8  9  2  0
  9 10  1  0
 10 11  1  0
  9 12  1  0
 12 13  1  0
 13 14  1  0
 13 15  1  0
 13 16  1  0
 12 17  2  0
  5 18  1  0
 18 19  1  0
 19 20  2  0
 20 21  1  0
 21 22  2  0
 22 23  1  0
 23 24  1  0
 23 25  2  0
 25  2  1  0
 17  6  1  0
 25 19  1  0
  4 26  1  0
  7 27  1  0
  8 28  1  0
 10 29  1  0
 10 30  1  0
 17 31  1  0
 20 32  1  0
 21 33  1  0
 22 34  1  0
 24 35  1  0
M  END
>  <meeko>  (5) 
{"is_sidechain": [false], "free_energy": -8.394, "intermolecular_energy": -10.824, "internal_energy": 0.176}

$$$$
cand_010_out
     RDKit          3D

 35 37  0  0  0  0  0  0  0  0999 V2000
   48.3620  158.3830   31.3870 O   0  0  0  0  0  0  0  0  0  0  0  0
   49.4690  158.5730   30.8850 C   0  0  0  0  0  0  0  0  0  0  0  0
   50.0490  157.5820   29.9500 C   0  0  0  0  0  0  0  0  0  0  0  0
   49.2890  156.4620   29.6660 O   0  0  0  0  0  0  0  0  0  0  0  0
   51.2610  157.8310   29.4210 C   0  0  0  0  0  0  0  0  0  0  0  0
   51.9310  156.9190   28.4690 C   0  0  0  0  0  0  0  0  0  0  0  0
   52.6710  157.4010   27.3850 C   0  0  0  0  0  0  0  0  0  0  0  0
   53.2740  156.5200   26.4820 C   0  0  0  0  0  0  0  0  0  0  0  0
   53.1450  155.1320   26.6340 C   0  0  0  0  0  0  0  0  0  0  0  0
   53.8180  154.2130   25.6400 C   0  0  0  0  0  0  0  0  0  0  0  0
   53.0990  154.0390   24.4930 F   0  0  0  0  0  0  0  0  0  0  0  0
   52.3990  154.6270   27.7220 C   0  0  0  0  0  0  0  0  0  0  0  0
   52.2250  153.1400   27.9320 C   0  0  0  0  0  0  0  0  0  0  0  0
   51.5480  152.5160   26.9280 F   0  0  0  0  0  0  0  0  0  0  0  0
   53.4170  152.4900   28.0380 F   0  0  0  0  0  0  0  0  0  0  0  0
   51.5430  152.8530   29.0750 F   0  0  0  0  0  0  0  0  0  0  0  0
   51.7950  155.5310   28.6200 C   0  0  0  0  0  0  0  0  0  0  0  0
   52.0060  158.9740   29.6890 O   0  0  0  0  0  0  0  0  0  0  0  0
   51.4980  159.9050   30.5590 C   0  0  0  0  0  0  0  0  0  0  0  0
   52.2840  161.0300   30.8110 C   0  0  0  0  0  0  0  0  0  0  0  0
   51.8260  162.0180   31.6850 C   0  0  0  0  0  0  0  0  0  0  0  0
   50.5840  161.8810   32.3070 C   0  0  0  0  0  0  0  0  0  0  0  0
   49.8010  160.7570   32.0550 C   0  0  0  0  0  0  0  0  0  0  0  0
   48.5940  160.6870   32.6960 O   0  0  0  0  0  0  0  0  0  0  0  0
   50.2600  159.7690   31.1790 C   0  0  0  0  0  0  0  0  0  0  0  0
   48.8710  155.9910   30.3600 H   0  0  0  0  0  0  0  0  0  0  0  0
   52.7801  158.4860   27.2409 H   0  0  0  0  0  0  0  0  0  0  0  0
   53.8578  156.9214   25.6405 H   0  0  0  0  0  0  0  0  0  0  0  0
   54.7970  154.6401   25.3770 H   0  0  0  0  0  0  0  0  0  0  0  0
   53.9110  153.2271   26.1189 H   0  0  0  0  0  0  0  0  0  0  0  0
   51.2026  155.1382   29.4595 H   0  0  0  0  0  0  0  0  0  0  0  0
   53.2632  161.1384   30.3218 H   0  0  0  0  0  0  0  0  0  0  0  0
   52.4448  162.9055   31.8836 H   0  0  0  0  0  0  0  0  0  0  0  0
   50.2240  162.6598   32.9954 H   0  0  0  0  0  0  0  0  0  0  0  0
   47.8960  161.2570   32.4410 H   0  0  0  0  0  0  0  0  0  0  0  0
  1  2  2  0
  2  3  1  0
  3  4  1  0
  3  5  2  0
  5  6  1  0
  6  7  2  0
  7  8  1  0
  8  9  2  0
  9 10  1  0
 10 11  1  0
  9 12  1  0
 12 13  1  0
 13 14  1  0
 13 15  1  0
 13 16  1  0
 12 17  2  0
  5 18  1  0
 18 19  1  0
 19 20  2  0
 20 21  1  0
 21 22  2  0
 22 23  1  0
 23 24  1  0
 23 25  2  0
 25  2  1  0
 17  6  1  0
 25 19  1  0
  4 26  1  0
  7 27  1  0
  8 28  1  0
 10 29  1  0
 10 30  1  0
 17 31  1  0
 20 32  1  0
 21 33  1  0
 22 34  1  0
 24 35  1  0
M  END
>  <meeko>  (6) 
{"is_sidechain": [false], "free_energy": -8.143, "intermolecular_energy": -10.285, "internal_energy": -0.053}

$$$$
