03_receptors/2Z5X/native_HRM.pdb
 OpenBabel08202615303D

 28 30  0  0  0  0  0  0  0  0999 V2000
   37.9770   27.0500  -17.7610 C   0  0  0  0  0  0  0  0  0  0  0  0
   38.2180   27.4840  -16.3270 C   0  0  0  0  0  0  0  0  0  0  0  0
   37.3130   28.3190  -15.7820 N   0  0  0  0  0  0  0  0  0  0  0  0
   37.4270   28.8250  -14.5370 C   0  0  0  0  0  0  0  0  0  0  0  0
   38.5280   28.4870  -13.7520 C   0  0  0  0  0  0  0  0  0  0  0  0
   39.5060   27.6500  -14.3040 C   0  0  0  0  0  0  0  0  0  0  0  0
   39.3440   27.1250  -15.6030 C   0  0  0  0  0  0  0  0  0  0  0  0
   40.4290   26.3750  -15.8550 N   0  0  0  0  0  0  0  0  0  0  0  0
   41.2340   26.3960  -14.7790 C   0  0  0  0  0  0  0  0  0  0  0  0
   42.4500   25.7810  -14.5650 C   0  0  0  0  0  0  0  0  0  0  0  0
   40.6940   27.1720  -13.7850 C   0  0  0  0  0  0  0  0  0  0  0  0
   41.3130   27.3740  -12.5100 C   0  0  0  0  0  0  0  0  0  0  0  0
   42.5570   26.7670  -12.2850 C   0  0  0  0  0  0  0  0  0  0  0  0
   43.0880   25.9660  -13.3350 C   0  0  0  0  0  0  0  0  0  0  0  0
   44.3000   25.3650  -13.1470 O   0  0  0  0  0  0  0  0  0  0  0  0
   44.9390   24.7660  -14.3200 C   0  0  0  0  0  0  0  0  0  0  0  0
   37.0452   27.4498  -18.1028 H   0  0  0  0  0  0  0  0  0  0  0  0
   37.9460   25.9816  -17.8099 H   0  0  0  0  0  0  0  0  0  0  0  0
   38.7698   27.4126  -18.3814 H   0  0  0  0  0  0  0  0  0  0  0  0
   36.7021   29.4597  -14.1672 H   0  0  0  0  0  0  0  0  0  0  0  0
   38.6203   28.8445  -12.7883 H   0  0  0  0  0  0  0  0  0  0  0  0
   43.1186   26.1327  -15.3228 H   0  0  0  0  0  0  0  0  0  0  0  0
   42.2199   24.7362  -14.5841 H   0  0  0  0  0  0  0  0  0  0  0  0
   40.8592   27.9468  -11.7813 H   0  0  0  0  0  0  0  0  0  0  0  0
   43.0656   26.8955  -11.3963 H   0  0  0  0  0  0  0  0  0  0  0  0
   45.8749   24.3331  -14.0342 H   0  0  0  0  0  0  0  0  0  0  0  0
   45.1062   25.5210  -15.0595 H   0  0  0  0  0  0  0  0  0  0  0  0
   44.3029   24.0061  -14.7236 H   0  0  0  0  0  0  0  0  0  0  0  0
  1  2  1  0  0  0  0
  1 17  1  0  0  0  0
  1 18  1  0  0  0  0
  1 19  1  0  0  0  0
  2  3  2  0  0  0  0
  2  7  1  0  0  0  0
  3  4  1  0  0  0  0
  4  5  2  0  0  0  0
  4 20  1  0  0  0  0
  5 21  1  0  0  0  0
  6 11  1  0  0  0  0
  6  5  1  0  0  0  0
  7  6  2  0  0  0  0
  8  7  1  0  0  0  0
  8  9  2  0  0  0  0
  9 10  1  0  0  0  0
  9 11  1  0  0  0  0
 10 14  1  0  0  0  0
 10 22  1  0  0  0  0
 10 23  1  0  0  0  0
 11 12  2  0  0  0  0
 12 13  1  0  0  0  0
 12 24  1  0  0  0  0
 13 25  1  0  0  0  0
 14 15  1  0  0  0  0
 14 13  2  0  0  0  0
 16 15  1  0  0  0  0
 16 26  1  0  0  0  0
 16 27  1  0  0  0  0
 16 28  1  0  0  0  0
M  END
$$$$
