harmine_out
     RDKit          3D

 28 30  0  0  0  0  0  0  0  0999 V2000
   52.5190  153.5460   27.3600 C   0  0  0  0  0  0  0  0  0  0  0  0
   51.4380  154.0160   28.1550 O   0  0  0  0  0  0  0  0  0  0  0  0
   51.5210  155.3040   28.6160 C   0  0  0  0  0  0  0  0  0  0  0  0
   52.6220  156.1480   28.4830 C   0  0  0  0  0  0  0  0  0  0  0  0
   52.5940  157.4540   28.9960 C   0  0  0  0  0  0  0  0  0  0  0  0
   51.4390  157.9200   29.6560 C   0  0  0  0  0  0  0  0  0  0  0  0
   50.3520  157.0580   29.7750 C   0  0  0  0  0  0  0  0  0  0  0  0
   50.3650  155.7530   29.2680 C   0  0  0  0  0  0  0  0  0  0  0  0
   49.3660  157.7400   30.4460 N   0  0  0  0  0  0  0  0  0  0  0  0
   49.7760  159.0140   30.7660 C   0  0  0  0  0  0  0  0  0  0  0  0
   49.1060  160.0420   31.4400 C   0  0  0  0  0  0  0  0  0  0  0  0
   47.7130  159.9310   31.9750 C   0  0  0  0  0  0  0  0  0  0  0  0
   49.7660  161.2180   31.6180 N   0  0  0  0  0  0  0  0  0  0  0  0
   51.0250  161.3590   31.1500 C   0  0  0  0  0  0  0  0  0  0  0  0
   51.7330  160.3770   30.4790 C   0  0  0  0  0  0  0  0  0  0  0  0
   51.0760  159.1550   30.2810 C   0  0  0  0  0  0  0  0  0  0  0  0
   53.3296  153.1936   28.0148 H   0  0  0  0  0  0  0  0  0  0  0  0
   52.1738  152.7167   26.7251 H   0  0  0  0  0  0  0  0  0  0  0  0
   52.8900  154.3641   26.7251 H   0  0  0  0  0  0  0  0  0  0  0  0
   53.5247  155.7858   27.9693 H   0  0  0  0  0  0  0  0  0  0  0  0
   53.4692  158.1108   28.8836 H   0  0  0  0  0  0  0  0  0  0  0  0
   49.4894  155.0965   29.3788 H   0  0  0  0  0  0  0  0  0  0  0  0
   48.4840  157.3670   30.6700 H   0  0  0  0  0  0  0  0  0  0  0  0
   47.7413  159.9333   33.0746 H   0  0  0  0  0  0  0  0  0  0  0  0
   47.1155  160.7844   31.6218 H   0  0  0  0  0  0  0  0  0  0  0  0
   47.2582  158.9938   31.6218 H   0  0  0  0  0  0  0  0  0  0  0  0
   51.5245  162.3252   31.3141 H   0  0  0  0  0  0  0  0  0  0  0  0
   52.7586  160.5470   30.1196 H   0  0  0  0  0  0  0  0  0  0  0  0
  1  2  1  0
  2  3  1  0
  3  4  2  0
  4  5  1  0
  5  6  2  0
  6  7  1  0
  7  8  2  0
  7  9  1  0
  9 10  1  0
 10 11  2  0
 11 12  1  0
 11 13  1  0
 13 14  2  0
 14 15  1  0
 15 16  2  0
  8  3  1  0
 16 10  1  0
 16  6  1  0
  1 17  1  0
  1 18  1  0
  1 19  1  0
  4 20  1  0
  5 21  1  0
  8 22  1  0
  9 23  1  0
 12 24  1  0
 12 25  1  0
 12 26  1  0
 14 27  1  0
 15 28  1  0
M  END
>  <meeko>  (1) 
{"is_sidechain": [false], "free_energy": -8.192, "intermolecular_energy": -8.671, "internal_energy": -0.042}

$$$$
harmine_out
     RDKit          3D

 28 30  0  0  0  0  0  0  0  0999 V2000
   50.0190  159.3650   30.4190 C   0  0  0  0  0  0  0  0  0  0  0  0
   51.3400  158.8450   30.3360 O   0  0  0  0  0  0  0  0  0  0  0  0
   51.5030  157.6700   29.6510 C   0  0  0  0  0  0  0  0  0  0  0  0
   50.8850  156.4570   29.9530 C   0  0  0  0  0  0  0  0  0  0  0  0
   51.1280  155.3140   29.1770 C   0  0  0  0  0  0  0  0  0  0  0  0
   52.0070  155.3880   28.0790 C   0  0  0  0  0  0  0  0  0  0  0  0
   52.6120  156.6100   27.7970 C   0  0  0  0  0  0  0  0  0  0  0  0
   52.3790  157.7610   28.5610 C   0  0  0  0  0  0  0  0  0  0  0  0
   53.4100  156.4230   26.6950 N   0  0  0  0  0  0  0  0  0  0  0  0
   53.3440  155.1220   26.2520 C   0  0  0  0  0  0  0  0  0  0  0  0
   53.9840  154.4950   25.1770 C   0  0  0  0  0  0  0  0  0  0  0  0
   54.9290  155.1810   24.2410 C   0  0  0  0  0  0  0  0  0  0  0  0
   53.7290  153.1750   24.9700 N   0  0  0  0  0  0  0  0  0  0  0  0
   52.8820  152.5180   25.7920 C   0  0  0  0  0  0  0  0  0  0  0  0
   52.2240  153.0880   26.8680 C   0  0  0  0  0  0  0  0  0  0  0  0
   52.4690  154.4480   27.1040 C   0  0  0  0  0  0  0  0  0  0  0  0
   49.7347  159.4769   31.4757 H   0  0  0  0  0  0  0  0  0  0  0  0
   49.9792  160.3459   29.9227 H   0  0  0  0  0  0  0  0  0  0  0  0
   49.3213  158.6744   29.9227 H   0  0  0  0  0  0  0  0  0  0  0  0
   50.1985  156.3957   30.8103 H   0  0  0  0  0  0  0  0  0  0  0  0
   50.6337  154.3631   29.4252 H   0  0  0  0  0  0  0  0  0  0  0  0
   52.8714  158.7124   28.3115 H   0  0  0  0  0  0  0  0  0  0  0  0
   53.9570  157.1260   26.2780 H   0  0  0  0  0  0  0  0  0  0  0  0
   55.6854  155.7301   24.8209 H   0  0  0  0  0  0  0  0  0  0  0  0
   55.4257  154.4317   23.6071 H   0  0  0  0  0  0  0  0  0  0  0  0
   54.3705  155.8854   23.6071 H   0  0  0  0  0  0  0  0  0  0  0  0
   52.7020  151.4515   25.5914 H   0  0  0  0  0  0  0  0  0  0  0  0
   51.5438  152.5039   27.5052 H   0  0  0  0  0  0  0  0  0  0  0  0
  1  2  1  0
  2  3  1  0
  3  4  2  0
  4  5  1  0
  5  6  2  0
  6  7  1  0
  7  8  2  0
  7  9  1  0
  9 10  1  0
 10 11  2  0
 11 12  1  0
 11 13  1  0
 13 14  2  0
 14 15  1  0
 15 16  2  0
  8  3  1  0
 16 10  1  0
 16  6  1  0
  1 17  1  0
  1 18  1  0
  1 19  1  0
  4 20  1  0
  5 21  1  0
  8 22  1  0
  9 23  1  0
 12 24  1  0
 12 25  1  0
 12 26  1  0
 14 27  1  0
 15 28  1  0
M  END
>  <meeko>  (2) 
{"is_sidechain": [false], "free_energy": -8.161, "intermolecular_energy": -8.644, "internal_energy": -0.036}

$$$$
harmine_out
     RDKit          3D

 28 30  0  0  0  0  0  0  0  0999 V2000
   53.0850  155.3610   26.5070 C   0  0  0  0  0  0  0  0  0  0  0  0
   53.0700  155.2160   27.9210 O   0  0  0  0  0  0  0  0  0  0  0  0
   52.1260  155.9330   28.6090 C   0  0  0  0  0  0  0  0  0  0  0  0
   50.8530  155.4830   28.9550 C   0  0  0  0  0  0  0  0  0  0  0  0
   49.9660  156.3080   29.6640 C   0  0  0  0  0  0  0  0  0  0  0  0
   50.3650  157.6090   30.0320 C   0  0  0  0  0  0  0  0  0  0  0  0
   51.6420  158.0340   29.6750 C   0  0  0  0  0  0  0  0  0  0  0  0
   52.5390  157.2230   28.9690 C   0  0  0  0  0  0  0  0  0  0  0  0
   51.7860  159.3180   30.1440 N   0  0  0  0  0  0  0  0  0  0  0  0
   50.6480  159.7390   30.7910 C   0  0  0  0  0  0  0  0  0  0  0  0
   50.3540  160.9580   31.4140 C   0  0  0  0  0  0  0  0  0  0  0  0
   51.3020  162.1130   31.4950 C   0  0  0  0  0  0  0  0  0  0  0  0
   49.1270  161.0990   31.9830 N   0  0  0  0  0  0  0  0  0  0  0  0
   48.2420  160.0800   31.9330 C   0  0  0  0  0  0  0  0  0  0  0  0
   48.4790  158.8570   31.3300 C   0  0  0  0  0  0  0  0  0  0  0  0
   49.7370  158.6840   30.7360 C   0  0  0  0  0  0  0  0  0  0  0  0
   53.1950  156.4245   26.2486 H   0  0  0  0  0  0  0  0  0  0  0  0
   53.9292  154.7929   26.0891 H   0  0  0  0  0  0  0  0  0  0  0  0
   52.1424  154.9777   26.0891 H   0  0  0  0  0  0  0  0  0  0  0  0
   50.5395  154.4682   28.6687 H   0  0  0  0  0  0  0  0  0  0  0  0
   48.9641  155.9410   29.9313 H   0  0  0  0  0  0  0  0  0  0  0  0
   53.5419  157.5889   28.7038 H   0  0  0  0  0  0  0  0  0  0  0  0
   52.5970  159.8640   30.0300 H   0  0  0  0  0  0  0  0  0  0  0  0
   51.4987  162.3526   32.5504 H   0  0  0  0  0  0  0  0  0  0  0  0
   52.2463  161.8479   30.9971 H   0  0  0  0  0  0  0  0  0  0  0  0
   50.8578  162.9875   30.9971 H   0  0  0  0  0  0  0  0  0  0  0  0
   47.2609  160.2333   32.4062 H   0  0  0  0  0  0  0  0  0  0  0  0
   47.7193  158.0616   31.3175 H   0  0  0  0  0  0  0  0  0  0  0  0
  1  2  1  0
  2  3  1  0
  3  4  2  0
  4  5  1  0
  5  6  2  0
  6  7  1  0
  7  8  2  0
  7  9  1  0
  9 10  1  0
 10 11  2  0
 11 12  1  0
 11 13  1  0
 13 14  2  0
 14 15  1  0
 15 16  2  0
  8  3  1  0
 16 10  1  0
 16  6  1  0
  1 17  1  0
  1 18  1  0
  1 19  1  0
  4 20  1  0
  5 21  1  0
  8 22  1  0
  9 23  1  0
 12 24  1  0
 12 25  1  0
 12 26  1  0
 14 27  1  0
 15 28  1  0
M  END
>  <meeko>  (3) 
{"is_sidechain": [false], "free_energy": -8.079, "intermolecular_energy": -8.553, "internal_energy": -0.04}

$$$$
harmine_out
     RDKit          3D

 28 30  0  0  0  0  0  0  0  0999 V2000
   51.7970  159.0880   29.6920 C   0  0  0  0  0  0  0  0  0  0  0  0
   51.1890  157.8610   30.0740 O   0  0  0  0  0  0  0  0  0  0  0  0
   51.5320  156.7470   29.3530 C   0  0  0  0  0  0  0  0  0  0  0  0
   51.1400  155.4400   29.6370 C   0  0  0  0  0  0  0  0  0  0  0  0
   51.5540  154.3720   28.8260 C   0  0  0  0  0  0  0  0  0  0  0  0
   52.3780  154.6210   27.7100 C   0  0  0  0  0  0  0  0  0  0  0  0
   52.7550  155.9360   27.4470 C   0  0  0  0  0  0  0  0  0  0  0  0
   52.3500  157.0120   28.2460 C   0  0  0  0  0  0  0  0  0  0  0  0
   53.5440  155.9130   26.3220 N   0  0  0  0  0  0  0  0  0  0  0  0
   53.6900  154.6300   25.8460 C   0  0  0  0  0  0  0  0  0  0  0  0
   54.3980  154.1470   24.7400 C   0  0  0  0  0  0  0  0  0  0  0  0
   55.1850  155.0060   23.8010 C   0  0  0  0  0  0  0  0  0  0  0  0
   54.3680  152.8080   24.5040 N   0  0  0  0  0  0  0  0  0  0  0  0
   53.6690  151.9970   25.3280 C   0  0  0  0  0  0  0  0  0  0  0  0
   52.9530  152.4210   26.4340 C   0  0  0  0  0  0  0  0  0  0  0  0
   52.9670  153.7970   26.7000 C   0  0  0  0  0  0  0  0  0  0  0  0
   52.0775  159.6541   30.5924 H   0  0  0  0  0  0  0  0  0  0  0  0
   52.6967  158.8808   29.0940 H   0  0  0  0  0  0  0  0  0  0  0  0
   51.0872  159.6784   29.0940 H   0  0  0  0  0  0  0  0  0  0  0  0
   50.4978  155.2430   30.5081 H   0  0  0  0  0  0  0  0  0  0  0  0
   51.2368  153.3451   29.0603 H   0  0  0  0  0  0  0  0  0  0  0  0
   52.6657  158.0392   28.0110 H   0  0  0  0  0  0  0  0  0  0  0  0
   53.9510  156.7100   25.9110 H   0  0  0  0  0  0  0  0  0  0  0  0
   55.8175  155.6964   24.3784 H   0  0  0  0  0  0  0  0  0  0  0  0
   55.8203  154.3698   23.1672 H   0  0  0  0  0  0  0  0  0  0  0  0
   54.4958  155.5833   23.1672 H   0  0  0  0  0  0  0  0  0  0  0  0
   53.6689  150.9202   25.1033 H   0  0  0  0  0  0  0  0  0  0  0  0
   52.4013  151.7144   27.0714 H   0  0  0  0  0  0  0  0  0  0  0  0
  1  2  1  0
  2  3  1  0
  3  4  2  0
  4  5  1  0
  5  6  2  0
  6  7  1  0
  7  8  2  0
  7  9  1  0
  9 10  1  0
 10 11  2  0
 11 12  1  0
 11 13  1  0
 13 14  2  0
 14 15  1  0
 15 16  2  0
  8  3  1  0
 16 10  1  0
 16  6  1  0
  1 17  1  0
  1 18  1  0
  1 19  1  0
  4 20  1  0
  5 21  1  0
  8 22  1  0
  9 23  1  0
 12 24  1  0
 12 25  1  0
 12 26  1  0
 14 27  1  0
 15 28  1  0
M  END
>  <meeko>  (4) 
{"is_sidechain": [false], "free_energy": -7.89, "intermolecular_energy": -8.332, "internal_energy": -0.061}

$$$$
harmine_out
     RDKit          3D

 28 30  0  0  0  0  0  0  0  0999 V2000
   49.3240  156.8070   30.0690 C   0  0  0  0  0  0  0  0  0  0  0  0
   50.4750  155.9750   30.1300 O   0  0  0  0  0  0  0  0  0  0  0  0
   51.3220  156.0060   29.0540 C   0  0  0  0  0  0  0  0  0  0  0  0
   51.9970  157.1300   28.5800 C   0  0  0  0  0  0  0  0  0  0  0  0
   52.8430  157.0440   27.4640 C   0  0  0  0  0  0  0  0  0  0  0  0
   53.0150  155.8070   26.8110 C   0  0  0  0  0  0  0  0  0  0  0  0
   52.3300  154.6990   27.3040 C   0  0  0  0  0  0  0  0  0  0  0  0
   51.4830  154.7680   28.4160 C   0  0  0  0  0  0  0  0  0  0  0  0
   52.6620  153.6310   26.5060 N   0  0  0  0  0  0  0  0  0  0  0  0
   53.5380  154.0080   25.5140 C   0  0  0  0  0  0  0  0  0  0  0  0
   54.1300  153.2570   24.4910 C   0  0  0  0  0  0  0  0  0  0  0  0
   53.8990  151.7950   24.2770 C   0  0  0  0  0  0  0  0  0  0  0  0
   54.9700  153.9020   23.6370 N   0  0  0  0  0  0  0  0  0  0  0  0
   55.2050  155.2220   23.7960 C   0  0  0  0  0  0  0  0  0  0  0  0
   54.6470  156.0110   24.7880 C   0  0  0  0  0  0  0  0  0  0  0  0
   53.7770  155.3710   25.6820 C   0  0  0  0  0  0  0  0  0  0  0  0
   48.9911  157.0477   31.0894 H   0  0  0  0  0  0  0  0  0  0  0  0
   49.5713  157.7365   29.5352 H   0  0  0  0  0  0  0  0  0  0  0  0
   48.5190  156.2807   29.5352 H   0  0  0  0  0  0  0  0  0  0  0  0
   51.8646  158.0969   29.0876 H   0  0  0  0  0  0  0  0  0  0  0  0
   53.3699  157.9385   27.1002 H   0  0  0  0  0  0  0  0  0  0  0  0
   50.9568  153.8734   28.7803 H   0  0  0  0  0  0  0  0  0  0  0  0
   52.3180  152.7170   26.6270 H   0  0  0  0  0  0  0  0  0  0  0  0
   53.8192  151.2900   25.2510 H   0  0  0  0  0  0  0  0  0  0  0  0
   52.9668  151.6500   23.7113 H   0  0  0  0  0  0  0  0  0  0  0  0
   54.7411  151.3697   23.7113 H   0  0  0  0  0  0  0  0  0  0  0  0
   55.8904  155.7066   23.0850 H   0  0  0  0  0  0  0  0  0  0  0  0
   54.8745  157.0841   24.8702 H   0  0  0  0  0  0  0  0  0  0  0  0
  1  2  1  0
  2  3  1  0
  3  4  2  0
  4  5  1  0
  5  6  2  0
  6  7  1  0
  7  8  2  0
  7  9  1  0
  9 10  1  0
 10 11  2  0
 11 12  1  0
 11 13  1  0
 13 14  2  0
 14 15  1  0
 15 16  2  0
  8  3  1  0
 16 10  1  0
 16  6  1  0
  1 17  1  0
  1 18  1  0
  1 19  1  0
  4 20  1  0
  5 21  1  0
  8 22  1  0
  9 23  1  0
 12 24  1  0
 12 25  1  0
 12 26  1  0
 14 27  1  0
 15 28  1  0
M  END
>  <meeko>  (5) 
{"is_sidechain": [false], "free_energy": -7.687, "intermolecular_energy": -8.143, "internal_energy": -0.036}

$$$$
harmine_out
     RDKit          3D

 28 30  0  0  0  0  0  0  0  0999 V2000
   54.0860  151.6100   23.9440 C   0  0  0  0  0  0  0  0  0  0  0  0
   54.1820  152.9520   23.4840 O   0  0  0  0  0  0  0  0  0  0  0  0
   53.9190  153.9410   24.3950 C   0  0  0  0  0  0  0  0  0  0  0  0
   54.3260  155.2700   24.2950 C   0  0  0  0  0  0  0  0  0  0  0  0
   53.9970  156.2000   25.2930 C   0  0  0  0  0  0  0  0  0  0  0  0
   53.2440  155.7890   26.4110 C   0  0  0  0  0  0  0  0  0  0  0  0
   52.8480  154.4560   26.4870 C   0  0  0  0  0  0  0  0  0  0  0  0
   53.1680  153.5160   25.4990 C   0  0  0  0  0  0  0  0  0  0  0  0
   52.1370  154.3110   27.6530 N   0  0  0  0  0  0  0  0  0  0  0  0
   52.0580  155.5030   28.3360 C   0  0  0  0  0  0  0  0  0  0  0  0
   51.4390  155.8140   29.5520 C   0  0  0  0  0  0  0  0  0  0  0  0
   50.6930  154.8280   30.3950 C   0  0  0  0  0  0  0  0  0  0  0  0
   51.5230  157.0970   29.9960 N   0  0  0  0  0  0  0  0  0  0  0  0
   52.1880  158.0180   29.2650 C   0  0  0  0  0  0  0  0  0  0  0  0
   52.8170  157.7650   28.0580 C   0  0  0  0  0  0  0  0  0  0  0  0
   52.7460  156.4500   27.5770 C   0  0  0  0  0  0  0  0  0  0  0  0
   54.0852  151.5986   25.0439 H   0  0  0  0  0  0  0  0  0  0  0  0
   53.1534  151.1607   23.5720 H   0  0  0  0  0  0  0  0  0  0  0  0
   54.9451  151.0325   23.5720 H   0  0  0  0  0  0  0  0  0  0  0  0
   54.9126  155.5942   23.4227 H   0  0  0  0  0  0  0  0  0  0  0  0
   54.3256  157.2459   25.2030 H   0  0  0  0  0  0  0  0  0  0  0  0
   52.8380  152.4704   25.5876 H   0  0  0  0  0  0  0  0  0  0  0  0
   51.7370  153.4650   27.9600 H   0  0  0  0  0  0  0  0  0  0  0  0
   50.8627  155.0523   31.4584 H   0  0  0  0  0  0  0  0  0  0  0  0
   49.6177  154.8954   30.1731 H   0  0  0  0  0  0  0  0  0  0  0  0
   51.0502  153.8115   30.1731 H   0  0  0  0  0  0  0  0  0  0  0  0
   52.2330  159.0445   29.6577 H   0  0  0  0  0  0  0  0  0  0  0  0
   53.3455  158.5553   27.5046 H   0  0  0  0  0  0  0  0  0  0  0  0
  1  2  1  0
  2  3  1  0
  3  4  2  0
  4  5  1  0
  5  6  2  0
  6  7  1  0
  7  8  2  0
  7  9  1  0
  9 10  1  0
 10 11  2  0
 11 12  1  0
 11 13  1  0
 13 14  2  0
 14 15  1  0
 15 16  2  0
  8  3  1  0
 16 10  1  0
 16  6  1  0
  1 17  1  0
  1 18  1  0
  1 19  1  0
  4 20  1  0
  5 21  1  0
  8 22  1  0
  9 23  1  0
 12 24  1  0
 12 25  1  0
 12 26  1  0
 14 27  1  0
 15 28  1  0
M  END
>  <meeko>  (6) 
{"is_sidechain": [false], "free_energy": -7.322, "intermolecular_energy": -7.732, "internal_energy": -0.06}

$$$$
harmine_out
     RDKit          3D

 28 30  0  0  0  0  0  0  0  0999 V2000
   54.5010  153.2900   22.9380 C   0  0  0  0  0  0  0  0  0  0  0  0
   54.8100  154.2820   23.9090 O   0  0  0  0  0  0  0  0  0  0  0  0
   53.9310  154.4270   24.9490 C   0  0  0  0  0  0  0  0  0  0  0  0
   53.0170  153.4690   25.3840 C   0  0  0  0  0  0  0  0  0  0  0  0
   52.1620  153.7300   26.4660 C   0  0  0  0  0  0  0  0  0  0  0  0
   52.2250  154.9750   27.1230 C   0  0  0  0  0  0  0  0  0  0  0  0
   53.1470  155.9150   26.6700 C   0  0  0  0  0  0  0  0  0  0  0  0
   54.0080  155.6700   25.5920 C   0  0  0  0  0  0  0  0  0  0  0  0
   53.0140  157.0280   27.4640 N   0  0  0  0  0  0  0  0  0  0  0  0
   52.0380  156.8420   28.4170 C   0  0  0  0  0  0  0  0  0  0  0  0
   51.5740  157.6990   29.4210 C   0  0  0  0  0  0  0  0  0  0  0  0
   52.0970  159.0810   29.6590 C   0  0  0  0  0  0  0  0  0  0  0  0
   50.5820  157.2450   30.2330 N   0  0  0  0  0  0  0  0  0  0  0  0
   50.0820  156.0030   30.0520 C   0  0  0  0  0  0  0  0  0  0  0  0
   50.5040  155.1160   29.0760 C   0  0  0  0  0  0  0  0  0  0  0  0
   51.5250  155.5590   28.2250 C   0  0  0  0  0  0  0  0  0  0  0  0
   54.2107  152.3582   23.4454 H   0  0  0  0  0  0  0  0  0  0  0  0
   53.6691  153.6394   22.3088 H   0  0  0  0  0  0  0  0  0  0  0  0
   55.3841  153.1052   22.3088 H   0  0  0  0  0  0  0  0  0  0  0  0
   52.9651  152.4963   24.8730 H   0  0  0  0  0  0  0  0  0  0  0  0
   51.4452  152.9653   26.8000 H   0  0  0  0  0  0  0  0  0  0  0  0
   54.7261  156.4338   25.2589 H   0  0  0  0  0  0  0  0  0  0  0  0
   53.5460  157.8500   27.3650 H   0  0  0  0  0  0  0  0  0  0  0  0
   52.1668  159.2653   30.7412 H   0  0  0  0  0  0  0  0  0  0  0  0
   53.0943  159.1788   29.2054 H   0  0  0  0  0  0  0  0  0  0  0  0
   51.4143  159.8146   29.2054 H   0  0  0  0  0  0  0  0  0  0  0  0
   49.2811  155.6722   30.7295 H   0  0  0  0  0  0  0  0  0  0  0  0
   50.0603  154.1147   28.9740 H   0  0  0  0  0  0  0  0  0  0  0  0
  1  2  1  0
  2  3  1  0
  3  4  2  0
  4  5  1  0
  5  6  2  0
  6  7  1  0
  7  8  2  0
  7  9  1  0
  9 10  1  0
 10 11  2  0
 11 12  1  0
 11 13  1  0
 13 14  2  0
 14 15  1  0
 15 16  2  0
  8  3  1  0
 16 10  1  0
 16  6  1  0
  1 17  1  0
  1 18  1  0
  1 19  1  0
  4 20  1  0
  5 21  1  0
  8 22  1  0
  9 23  1  0
 12 24  1  0
 12 25  1  0
 12 26  1  0
 14 27  1  0
 15 28  1  0
M  END
>  <meeko>  (7) 
{"is_sidechain": [false], "free_energy": -6.374, "intermolecular_energy": -6.748, "internal_energy": -0.041}

$$$$
harmine_out
     RDKit          3D

 28 30  0  0  0  0  0  0  0  0999 V2000
   48.5180  162.1880   33.6430 C   0  0  0  0  0  0  0  0  0  0  0  0
   48.9060  162.1020   32.2780 O   0  0  0  0  0  0  0  0  0  0  0  0
   49.0790  160.8460   31.7590 C   0  0  0  0  0  0  0  0  0  0  0  0
   48.2120  159.7680   31.9280 C   0  0  0  0  0  0  0  0  0  0  0  0
   48.4920  158.5210   31.3480 C   0  0  0  0  0  0  0  0  0  0  0  0
   49.6650  158.3540   30.5840 C   0  0  0  0  0  0  0  0  0  0  0  0
   50.5140  159.4460   30.4290 C   0  0  0  0  0  0  0  0  0  0  0  0
   50.2480  160.6960   31.0010 C   0  0  0  0  0  0  0  0  0  0  0  0
   51.5690  159.0310   29.6530 N   0  0  0  0  0  0  0  0  0  0  0  0
   51.4330  157.7080   29.2990 C   0  0  0  0  0  0  0  0  0  0  0  0
   52.2610  156.8850   28.5280 C   0  0  0  0  0  0  0  0  0  0  0  0
   53.5430  157.3300   27.8980 C   0  0  0  0  0  0  0  0  0  0  0  0
   51.8720  155.5950   28.3380 N   0  0  0  0  0  0  0  0  0  0  0  0
   50.7210  155.1530   28.8900 C   0  0  0  0  0  0  0  0  0  0  0  0
   49.8670  155.9230   29.6610 C   0  0  0  0  0  0  0  0  0  0  0  0
   50.2440  157.2570   29.8710 C   0  0  0  0  0  0  0  0  0  0  0  0
   49.3901  161.9947   34.2850 H   0  0  0  0  0  0  0  0  0  0  0  0
   48.1262  163.1948   33.8501 H   0  0  0  0  0  0  0  0  0  0  0  0
   47.7375  161.4411   33.8501 H   0  0  0  0  0  0  0  0  0  0  0  0
   47.2962  159.8962   32.5238 H   0  0  0  0  0  0  0  0  0  0  0  0
   47.7995  157.6780   31.4889 H   0  0  0  0  0  0  0  0  0  0  0  0
   50.9396  161.5395   30.8589 H   0  0  0  0  0  0  0  0  0  0  0  0
   52.3240  159.6050   29.3860 H   0  0  0  0  0  0  0  0  0  0  0  0
   54.2697  157.5823   28.6843 H   0  0  0  0  0  0  0  0  0  0  0  0
   53.9454  156.5190   27.2733 H   0  0  0  0  0  0  0  0  0  0  0  0
   53.3564  158.2159   27.2733 H   0  0  0  0  0  0  0  0  0  0  0  0
   50.4417  154.1037   28.7139 H   0  0  0  0  0  0  0  0  0  0  0  0
   48.9408  155.5097   30.0867 H   0  0  0  0  0  0  0  0  0  0  0  0
  1  2  1  0
  2  3  1  0
  3  4  2  0
  4  5  1  0
  5  6  2  0
  6  7  1  0
  7  8  2  0
  7  9  1  0
  9 10  1  0
 10 11  2  0
 11 12  1  0
 11 13  1  0
 13 14  2  0
 14 15  1  0
 15 16  2  0
  8  3  1  0
 16 10  1  0
 16  6  1  0
  1 17  1  0
  1 18  1  0
  1 19  1  0
  4 20  1  0
  5 21  1  0
  8 22  1  0
  9 23  1  0
 12 24  1  0
 12 25  1  0
 12 26  1  0
 14 27  1  0
 15 28  1  0
M  END
>  <meeko>  (8) 
{"is_sidechain": [false], "free_energy": -6.332, "intermolecular_energy": -6.707, "internal_energy": -0.038}

$$$$
harmine_out
     RDKit          3D

 28 30  0  0  0  0  0  0  0  0999 V2000
   48.4240  161.5500   33.5730 C   0  0  0  0  0  0  0  0  0  0  0  0
   48.0360  160.7700   32.4500 O   0  0  0  0  0  0  0  0  0  0  0  0
   49.0410  160.2490   31.6780 C   0  0  0  0  0  0  0  0  0  0  0  0
   50.1600  160.9430   31.2200 C   0  0  0  0  0  0  0  0  0  0  0  0
   51.1300  160.3040   30.4330 C   0  0  0  0  0  0  0  0  0  0  0  0
   50.9740  158.9440   30.0980 C   0  0  0  0  0  0  0  0  0  0  0  0
   49.8490  158.2730   30.5690 C   0  0  0  0  0  0  0  0  0  0  0  0
   48.8720  158.8960   31.3560 C   0  0  0  0  0  0  0  0  0  0  0  0
   49.9290  156.9790   30.1130 N   0  0  0  0  0  0  0  0  0  0  0  0
   51.0680  156.7880   29.3650 C   0  0  0  0  0  0  0  0  0  0  0  0
   51.5470  155.6450   28.7150 C   0  0  0  0  0  0  0  0  0  0  0  0
   50.8530  154.3200   28.7190 C   0  0  0  0  0  0  0  0  0  0  0  0
   52.7220  155.7470   28.0370 N   0  0  0  0  0  0  0  0  0  0  0  0
   53.3810  156.9260   28.0090 C   0  0  0  0  0  0  0  0  0  0  0  0
   52.9520  158.0860   28.6320 C   0  0  0  0  0  0  0  0  0  0  0  0
   51.7450  158.0080   29.3390 C   0  0  0  0  0  0  0  0  0  0  0  0
   48.1591  161.0176   34.4984 H   0  0  0  0  0  0  0  0  0  0  0  0
   49.5107  161.7181   33.5449 H   0  0  0  0  0  0  0  0  0  0  0  0
   47.9024  162.5181   33.5449 H   0  0  0  0  0  0  0  0  0  0  0  0
   50.2840  162.0049   31.4789 H   0  0  0  0  0  0  0  0  0  0  0  0
   52.0090  160.8625   30.0788 H   0  0  0  0  0  0  0  0  0  0  0  0
   47.9942  158.3370   31.7123 H   0  0  0  0  0  0  0  0  0  0  0  0
   49.2600  156.2810   30.2980 H   0  0  0  0  0  0  0  0  0  0  0  0
   50.6842  153.9977   29.7571 H   0  0  0  0  0  0  0  0  0  0  0  0
   49.8866  154.4107   28.2014 H   0  0  0  0  0  0  0  0  0  0  0  0
   51.4778  153.5772   28.2014 H   0  0  0  0  0  0  0  0  0  0  0  0
   54.3277  156.9676   27.4504 H   0  0  0  0  0  0  0  0  0  0  0  0
   53.5292  159.0206   28.5747 H   0  0  0  0  0  0  0  0  0  0  0  0
  1  2  1  0
  2  3  1  0
  3  4  2  0
  4  5  1  0
  5  6  2  0
  6  7  1  0
  7  8  2  0
  7  9  1  0
  9 10  1  0
 10 11  2  0
 11 12  1  0
 11 13  1  0
 13 14  2  0
 14 15  1  0
 15 16  2  0
  8  3  1  0
 16 10  1  0
 16  6  1  0
  1 17  1  0
  1 18  1  0
  1 19  1  0
  4 20  1  0
  5 21  1  0
  8 22  1  0
  9 23  1  0
 12 24  1  0
 12 25  1  0
 12 26  1  0
 14 27  1  0
 15 28  1  0
M  END
>  <meeko>  (9) 
{"is_sidechain": [false], "free_energy": -6.301, "intermolecular_energy": -6.673, "internal_energy": -0.038}

$$$$
