kaempferol_maoa_out
     RDKit          3D

 31 33  0  0  0  0  0  0  0  0999 V2000
   52.2670  152.8530   28.8250 O   0  0  0  0  0  0  0  0  0  0  0  0
   52.3340  154.0220   28.4490 C   0  0  0  0  0  0  0  0  0  0  0  0
   51.7310  155.1080   29.2530 C   0  0  0  0  0  0  0  0  0  0  0  0
   51.1120  154.7460   30.4360 O   0  0  0  0  0  0  0  0  0  0  0  0
   51.8320  156.3730   28.8040 C   0  0  0  0  0  0  0  0  0  0  0  0
   51.2820  157.5390   29.5290 C   0  0  0  0  0  0  0  0  0  0  0  0
   49.9790  157.5370   30.0520 C   0  0  0  0  0  0  0  0  0  0  0  0
   49.4700  158.6580   30.7140 C   0  0  0  0  0  0  0  0  0  0  0  0
   50.2620  159.7920   30.8480 C   0  0  0  0  0  0  0  0  0  0  0  0
   49.8060  160.9070   31.4850 O   0  0  0  0  0  0  0  0  0  0  0  0
   51.5490  159.8230   30.3300 C   0  0  0  0  0  0  0  0  0  0  0  0
   52.0570  158.7010   29.6700 C   0  0  0  0  0  0  0  0  0  0  0  0
   52.4810  156.7270   27.6260 O   0  0  0  0  0  0  0  0  0  0  0  0
   53.0430  155.7420   26.8550 C   0  0  0  0  0  0  0  0  0  0  0  0
   53.6740  156.1390   25.6770 C   0  0  0  0  0  0  0  0  0  0  0  0
   54.2620  155.1810   24.8570 C   0  0  0  0  0  0  0  0  0  0  0  0
   54.8690  155.6120   23.7150 O   0  0  0  0  0  0  0  0  0  0  0  0
   54.2320  153.8300   25.1940 C   0  0  0  0  0  0  0  0  0  0  0  0
   53.6000  153.4390   26.3720 C   0  0  0  0  0  0  0  0  0  0  0  0
   53.6000  152.0990   26.6550 O   0  0  0  0  0  0  0  0  0  0  0  0
   53.0060  154.3950   27.2030 C   0  0  0  0  0  0  0  0  0  0  0  0
   50.1840  154.8400   30.5260 H   0  0  0  0  0  0  0  0  0  0  0  0
   49.3504  156.6414   29.9393 H   0  0  0  0  0  0  0  0  0  0  0  0
   48.4501  158.6426   31.1258 H   0  0  0  0  0  0  0  0  0  0  0  0
   48.9100  161.1680   31.3920 H   0  0  0  0  0  0  0  0  0  0  0  0
   52.1665  160.7268   30.4385 H   0  0  0  0  0  0  0  0  0  0  0  0
   53.0758  158.7286   29.2562 H   0  0  0  0  0  0  0  0  0  0  0  0
   53.7068  157.2024   25.3977 H   0  0  0  0  0  0  0  0  0  0  0  0
   55.7130  156.0170   23.7570 H   0  0  0  0  0  0  0  0  0  0  0  0
   54.7012  153.0816   24.5385 H   0  0  0  0  0  0  0  0  0  0  0  0
   53.0970  151.5090   26.1290 H   0  0  0  0  0  0  0  0  0  0  0  0
  1  2  2  0
  2  3  1  0
  3  4  1  0
  3  5  2  0
  5  6  1  0
  6  7  2  0
  7  8  1  0
  8  9  2  0
  9 10  1  0
  9 11  1  0
 11 12  2  0
  5 13  1  0
 13 14  1  0
 14 15  2  0
 15 16  1  0
 16 17  1  0
 16 18  2  0
 18 19  1  0
 19 20  1  0
 19 21  2  0
 21  2  1  0
 12  6  1  0
 21 14  1  0
  4 22  1  0
  7 23  1  0
  8 24  1  0
 10 25  1  0
 11 26  1  0
 12 27  1  0
 15 28  1  0
 17 29  1  0
 18 30  1  0
 20 31  1  0
M  END
>  <meeko>  (1) 
{"is_sidechain": [false], "free_energy": -9.77, "intermolecular_energy": -11.483, "internal_energy": -0.02}

$$$$
kaempferol_maoa_out
     RDKit          3D

 31 33  0  0  0  0  0  0  0  0999 V2000
   52.5630  160.4380   30.3660 O   0  0  0  0  0  0  0  0  0  0  0  0
   51.7890  159.4990   30.1870 C   0  0  0  0  0  0  0  0  0  0  0  0
   52.2610  158.2430   29.5630 C   0  0  0  0  0  0  0  0  0  0  0  0
   53.5970  158.1790   29.2100 O   0  0  0  0  0  0  0  0  0  0  0  0
   51.3800  157.2400   29.3890 C   0  0  0  0  0  0  0  0  0  0  0  0
   51.7400  155.9360   28.7910 C   0  0  0  0  0  0  0  0  0  0  0  0
   51.5720  154.7300   29.4890 C   0  0  0  0  0  0  0  0  0  0  0  0
   51.9410  153.5100   28.9130 C   0  0  0  0  0  0  0  0  0  0  0  0
   52.4890  153.4940   27.6360 C   0  0  0  0  0  0  0  0  0  0  0  0
   52.8610  152.3280   27.0370 O   0  0  0  0  0  0  0  0  0  0  0  0
   52.6740  154.6740   26.9290 C   0  0  0  0  0  0  0  0  0  0  0  0
   52.3050  155.8930   27.5050 C   0  0  0  0  0  0  0  0  0  0  0  0
   50.0450  157.3070   29.7730 O   0  0  0  0  0  0  0  0  0  0  0  0
   49.5760  158.4610   30.3480 C   0  0  0  0  0  0  0  0  0  0  0  0
   48.2290  158.4900   30.7070 C   0  0  0  0  0  0  0  0  0  0  0  0
   47.7010  159.6350   31.2950 C   0  0  0  0  0  0  0  0  0  0  0  0
   46.3800  159.6220   31.6310 O   0  0  0  0  0  0  0  0  0  0  0  0
   48.4960  160.7540   31.5320 C   0  0  0  0  0  0  0  0  0  0  0  0
   49.8400  160.7200   31.1710 C   0  0  0  0  0  0  0  0  0  0  0  0
   50.5750  161.8460   31.4260 O   0  0  0  0  0  0  0  0  0  0  0  0
   50.3810  159.5730   30.5790 C   0  0  0  0  0  0  0  0  0  0  0  0
   53.9630  157.3710   28.9070 H   0  0  0  0  0  0  0  0  0  0  0  0
   51.1445  154.7445   30.5024 H   0  0  0  0  0  0  0  0  0  0  0  0
   51.7985  152.5702   29.4666 H   0  0  0  0  0  0  0  0  0  0  0  0
   52.4080  152.0280   26.2730 H   0  0  0  0  0  0  0  0  0  0  0  0
   53.1094  154.6500   25.9191 H   0  0  0  0  0  0  0  0  0  0  0  0
   52.4584  156.8279   26.9461 H   0  0  0  0  0  0  0  0  0  0  0  0
   47.5885  157.6141   30.5266 H   0  0  0  0  0  0  0  0  0  0  0  0
   46.0050  158.8590   32.0260 H   0  0  0  0  0  0  0  0  0  0  0  0
   48.0672  161.6532   31.9985 H   0  0  0  0  0  0  0  0  0  0  0  0
   51.2650  161.8220   32.0590 H   0  0  0  0  0  0  0  0  0  0  0  0
  1  2  2  0
  2  3  1  0
  3  4  1  0
  3  5  2  0
  5  6  1  0
  6  7  2  0
  7  8  1  0
  8  9  2  0
  9 10  1  0
  9 11  1  0
 11 12  2  0
  5 13  1  0
 13 14  1  0
 14 15  2  0
 15 16  1  0
 16 17  1  0
 16 18  2  0
 18 19  1  0
 19 20  1  0
 19 21  2  0
 21  2  1  0
 12  6  1  0
 21 14  1  0
  4 22  1  0
  7 23  1  0
  8 24  1  0
 10 25  1  0
 11 26  1  0
 12 27  1  0
 15 28  1  0
 17 29  1  0
 18 30  1  0
 20 31  1  0
M  END
>  <meeko>  (2) 
{"is_sidechain": [false], "free_energy": -9.768, "intermolecular_energy": -11.407, "internal_energy": -0.094}

$$$$
kaempferol_maoa_out
     RDKit          3D

 31 33  0  0  0  0  0  0  0  0999 V2000
   47.6210  158.3680   30.4580 O   0  0  0  0  0  0  0  0  0  0  0  0
   48.8390  158.3380   30.2920 C   0  0  0  0  0  0  0  0  0  0  0  0
   49.4870  157.1540   29.6850 C   0  0  0  0  0  0  0  0  0  0  0  0
   48.6630  156.1080   29.3100 O   0  0  0  0  0  0  0  0  0  0  0  0
   50.8230  157.1660   29.5190 C   0  0  0  0  0  0  0  0  0  0  0  0
   51.5770  156.0480   28.9120 C   0  0  0  0  0  0  0  0  0  0  0  0
   52.3280  156.2130   27.7380 C   0  0  0  0  0  0  0  0  0  0  0  0
   53.0150  155.1370   27.1680 C   0  0  0  0  0  0  0  0  0  0  0  0
   52.9450  153.8850   27.7680 C   0  0  0  0  0  0  0  0  0  0  0  0
   53.5980  152.8090   27.2460 O   0  0  0  0  0  0  0  0  0  0  0  0
   52.2000  153.6930   28.9230 C   0  0  0  0  0  0  0  0  0  0  0  0
   51.5150  154.7700   29.4930 C   0  0  0  0  0  0  0  0  0  0  0  0
   51.6380  158.2350   29.8770 O   0  0  0  0  0  0  0  0  0  0  0  0
   51.0670  159.3440   30.4480 C   0  0  0  0  0  0  0  0  0  0  0  0
   51.9210  160.3880   30.8010 C   0  0  0  0  0  0  0  0  0  0  0  0
   51.3950  161.5370   31.3830 C   0  0  0  0  0  0  0  0  0  0  0  0
   52.2650  162.5340   31.7130 O   0  0  0  0  0  0  0  0  0  0  0  0
   50.0280  161.6630   31.6190 C   0  0  0  0  0  0  0  0  0  0  0  0
   49.1800  160.6170   31.2650 C   0  0  0  0  0  0  0  0  0  0  0  0
   47.8470  160.7930   31.5190 O   0  0  0  0  0  0  0  0  0  0  0  0
   49.6990  159.4570   30.6790 C   0  0  0  0  0  0  0  0  0  0  0  0
   48.1900  156.1520   28.5020 H   0  0  0  0  0  0  0  0  0  0  0  0
   52.3768  157.2024   27.2598 H   0  0  0  0  0  0  0  0  0  0  0  0
   53.6065  155.2800   26.2516 H   0  0  0  0  0  0  0  0  0  0  0  0
   53.1140  152.0570   26.9650 H   0  0  0  0  0  0  0  0  0  0  0  0
   52.1487  152.6974   29.3880 H   0  0  0  0  0  0  0  0  0  0  0  0
   50.9212  154.6155   30.4060 H   0  0  0  0  0  0  0  0  0  0  0  0
   53.0028  160.3038   30.6207 H   0  0  0  0  0  0  0  0  0  0  0  0
   52.8370  162.8900   31.0620 H   0  0  0  0  0  0  0  0  0  0  0  0
   49.6238  162.5768   32.0790 H   0  0  0  0  0  0  0  0  0  0  0  0
   47.5720  161.2500   32.2890 H   0  0  0  0  0  0  0  0  0  0  0  0
  1  2  2  0
  2  3  1  0
  3  4  1  0
  3  5  2  0
  5  6  1  0
  6  7  2  0
  7  8  1  0
  8  9  2  0
  9 10  1  0
  9 11  1  0
 11 12  2  0
  5 13  1  0
 13 14  1  0
 14 15  2  0
 15 16  1  0
 16 17  1  0
 16 18  2  0
 18 19  1  0
 19 20  1  0
 19 21  2  0
 21  2  1  0
 12  6  1  0
 21 14  1  0
  4 22  1  0
  7 23  1  0
  8 24  1  0
 10 25  1  0
 11 26  1  0
 12 27  1  0
 15 28  1  0
 17 29  1  0
 18 30  1  0
 20 31  1  0
M  END
>  <meeko>  (3) 
{"is_sidechain": [false], "free_energy": -8.504, "intermolecular_energy": -9.902, "internal_energy": -0.113}

$$$$
kaempferol_maoa_out
     RDKit          3D

 31 33  0  0  0  0  0  0  0  0999 V2000
   47.5730  158.3750   30.4580 O   0  0  0  0  0  0  0  0  0  0  0  0
   48.7900  158.3340   30.2910 C   0  0  0  0  0  0  0  0  0  0  0  0
   49.4280  157.1420   29.6890 C   0  0  0  0  0  0  0  0  0  0  0  0
   48.5950  156.1020   29.3190 O   0  0  0  0  0  0  0  0  0  0  0  0
   50.7640  157.1420   29.5230 C   0  0  0  0  0  0  0  0  0  0  0  0
   51.5080  156.0150   28.9200 C   0  0  0  0  0  0  0  0  0  0  0  0
   51.4940  154.7320   29.4900 C   0  0  0  0  0  0  0  0  0  0  0  0
   52.2240  153.6850   28.9180 C   0  0  0  0  0  0  0  0  0  0  0  0
   52.9780  153.9210   27.7750 C   0  0  0  0  0  0  0  0  0  0  0  0
   53.7030  152.9300   27.1840 O   0  0  0  0  0  0  0  0  0  0  0  0
   53.0160  155.1830   27.1990 C   0  0  0  0  0  0  0  0  0  0  0  0
   52.2860  156.2290   27.7710 C   0  0  0  0  0  0  0  0  0  0  0  0
   51.5880  158.2050   29.8750 O   0  0  0  0  0  0  0  0  0  0  0  0
   51.0270  159.3220   30.4420 C   0  0  0  0  0  0  0  0  0  0  0  0
   51.8900  160.3600   30.7900 C   0  0  0  0  0  0  0  0  0  0  0  0
   51.3740  161.5160   31.3680 C   0  0  0  0  0  0  0  0  0  0  0  0
   52.2520  162.5070   31.6930 O   0  0  0  0  0  0  0  0  0  0  0  0
   50.0080  161.6540   31.6040 C   0  0  0  0  0  0  0  0  0  0  0  0
   49.1510  160.6140   31.2540 C   0  0  0  0  0  0  0  0  0  0  0  0
   47.8190  160.8030   31.5080 O   0  0  0  0  0  0  0  0  0  0  0  0
   49.6600  159.4480   30.6730 C   0  0  0  0  0  0  0  0  0  0  0  0
   47.8290  155.9130   29.8250 H   0  0  0  0  0  0  0  0  0  0  0  0
   50.9013  154.5478   30.3982 H   0  0  0  0  0  0  0  0  0  0  0  0
   52.2014  152.6822   29.3696 H   0  0  0  0  0  0  0  0  0  0  0  0
   54.6210  152.8520   27.3600 H   0  0  0  0  0  0  0  0  0  0  0  0
   53.6183  155.3596   26.2957 H   0  0  0  0  0  0  0  0  0  0  0  0
   52.3215  157.2300   27.3162 H   0  0  0  0  0  0  0  0  0  0  0  0
   52.9709  160.2660   30.6091 H   0  0  0  0  0  0  0  0  0  0  0  0
   52.3100  163.2750   31.1590 H   0  0  0  0  0  0  0  0  0  0  0  0
   49.6116  162.5727   32.0609 H   0  0  0  0  0  0  0  0  0  0  0  0
   47.5430  161.4980   32.0720 H   0  0  0  0  0  0  0  0  0  0  0  0
  1  2  2  0
  2  3  1  0
  3  4  1  0
  3  5  2  0
  5  6  1  0
  6  7  2  0
  7  8  1  0
  8  9  2  0
  9 10  1  0
  9 11  1  0
 11 12  2  0
  5 13  1  0
 13 14  1  0
 14 15  2  0
 15 16  1  0
 16 17  1  0
 16 18  2  0
 18 19  1  0
 19 20  1  0
 19 21  2  0
 21  2  1  0
 12  6  1  0
 21 14  1  0
  4 22  1  0
  7 23  1  0
  8 24  1  0
 10 25  1  0
 11 26  1  0
 12 27  1  0
 15 28  1  0
 17 29  1  0
 18 30  1  0
 20 31  1  0
M  END
>  <meeko>  (4) 
{"is_sidechain": [false], "free_energy": -8.443, "intermolecular_energy": -9.784, "internal_energy": -0.16}

$$$$
kaempferol_maoa_out
     RDKit          3D

 31 33  0  0  0  0  0  0  0  0999 V2000
   50.7110  153.9980   28.5910 O   0  0  0  0  0  0  0  0  0  0  0  0
   51.2270  155.1030   28.4350 C   0  0  0  0  0  0  0  0  0  0  0  0
   50.8780  156.2300   29.3300 C   0  0  0  0  0  0  0  0  0  0  0  0
   49.9690  155.9730   30.3400 O   0  0  0  0  0  0  0  0  0  0  0  0
   51.4700  157.4210   29.1240 C   0  0  0  0  0  0  0  0  0  0  0  0
   51.2110  158.6120   29.9620 C   0  0  0  0  0  0  0  0  0  0  0  0
   52.1980  159.5840   30.1890 C   0  0  0  0  0  0  0  0  0  0  0  0
   51.9400  160.6920   31.0030 C   0  0  0  0  0  0  0  0  0  0  0  0
   50.6930  160.8260   31.6020 C   0  0  0  0  0  0  0  0  0  0  0  0
   50.3980  161.8890   32.4020 O   0  0  0  0  0  0  0  0  0  0  0  0
   49.7040  159.8730   31.4010 C   0  0  0  0  0  0  0  0  0  0  0  0
   49.9630  158.7670   30.5860 C   0  0  0  0  0  0  0  0  0  0  0  0
   52.4030  157.6590   28.1210 O   0  0  0  0  0  0  0  0  0  0  0  0
   52.7410  156.6370   27.2710 C   0  0  0  0  0  0  0  0  0  0  0  0
   53.6720  156.9210   26.2730 C   0  0  0  0  0  0  0  0  0  0  0  0
   54.0520  155.9200   25.3840 C   0  0  0  0  0  0  0  0  0  0  0  0
   54.9640  156.2400   24.4230 O   0  0  0  0  0  0  0  0  0  0  0  0
   53.5170  154.6370   25.4750 C   0  0  0  0  0  0  0  0  0  0  0  0
   52.5880  154.3590   26.4740 C   0  0  0  0  0  0  0  0  0  0  0  0
   52.0950  153.0820   26.5170 O   0  0  0  0  0  0  0  0  0  0  0  0
   52.2000  155.3580   27.3720 C   0  0  0  0  0  0  0  0  0  0  0  0
   49.0710  155.8070   30.1300 H   0  0  0  0  0  0  0  0  0  0  0  0
   53.1871  159.4730   29.7207 H   0  0  0  0  0  0  0  0  0  0  0  0
   52.7183  161.4516   31.1678 H   0  0  0  0  0  0  0  0  0  0  0  0
   50.0150  162.6610   32.0340 H   0  0  0  0  0  0  0  0  0  0  0  0
   48.7208  159.9875   31.8808 H   0  0  0  0  0  0  0  0  0  0  0  0
   49.1802  158.0097   30.4320 H   0  0  0  0  0  0  0  0  0  0  0  0
   54.1033  157.9294   26.1888 H   0  0  0  0  0  0  0  0  0  0  0  0
   55.2320  157.1310   24.3100 H   0  0  0  0  0  0  0  0  0  0  0  0
   53.8246  153.8536   24.7667 H   0  0  0  0  0  0  0  0  0  0  0  0
   51.4210  152.8610   27.1290 H   0  0  0  0  0  0  0  0  0  0  0  0
  1  2  2  0
  2  3  1  0
  3  4  1  0
  3  5  2  0
  5  6  1  0
  6  7  2  0
  7  8  1  0
  8  9  2  0
  9 10  1  0
  9 11  1  0
 11 12  2  0
  5 13  1  0
 13 14  1  0
 14 15  2  0
 15 16  1  0
 16 17  1  0
 16 18  2  0
 18 19  1  0
 19 20  1  0
 19 21  2  0
 21  2  1  0
 12  6  1  0
 21 14  1  0
  4 22  1  0
  7 23  1  0
  8 24  1  0
 10 25  1  0
 11 26  1  0
 12 27  1  0
 15 28  1  0
 17 29  1  0
 18 30  1  0
 20 31  1  0
M  END
>  <meeko>  (5) 
{"is_sidechain": [false], "free_energy": -7.428, "intermolecular_energy": -8.993, "internal_energy": 0.242}

$$$$
kaempferol_maoa_out
     RDKit          3D

 31 33  0  0  0  0  0  0  0  0999 V2000
   53.0270  152.2220   27.0570 O   0  0  0  0  0  0  0  0  0  0  0  0
   52.9250  153.4460   27.0020 C   0  0  0  0  0  0  0  0  0  0  0  0
   52.0870  154.1760   27.9800 C   0  0  0  0  0  0  0  0  0  0  0  0
   51.4480  153.4210   28.9480 O   0  0  0  0  0  0  0  0  0  0  0  0
   52.0060  155.5160   27.8850 C   0  0  0  0  0  0  0  0  0  0  0  0
   51.2120  156.3500   28.8130 C   0  0  0  0  0  0  0  0  0  0  0  0
   50.0190  155.8850   29.3890 C   0  0  0  0  0  0  0  0  0  0  0  0
   49.2710  156.6980   30.2460 C   0  0  0  0  0  0  0  0  0  0  0  0
   49.7110  157.9870   30.5230 C   0  0  0  0  0  0  0  0  0  0  0  0
   49.0130  158.8130   31.3520 O   0  0  0  0  0  0  0  0  0  0  0  0
   50.8800  158.4740   29.9570 C   0  0  0  0  0  0  0  0  0  0  0  0
   51.6280  157.6600   29.1020 C   0  0  0  0  0  0  0  0  0  0  0  0
   52.6740  156.2650   26.9230 O   0  0  0  0  0  0  0  0  0  0  0  0
   53.4530  155.6180   25.9980 C   0  0  0  0  0  0  0  0  0  0  0  0
   54.0960  156.4060   25.0450 C   0  0  0  0  0  0  0  0  0  0  0  0
   54.9000  155.8000   24.0840 C   0  0  0  0  0  0  0  0  0  0  0  0
   55.5110  156.6070   23.1700 O   0  0  0  0  0  0  0  0  0  0  0  0
   55.0730  154.4180   24.0580 C   0  0  0  0  0  0  0  0  0  0  0  0
   54.4280  153.6360   25.0120 C   0  0  0  0  0  0  0  0  0  0  0  0
   54.6330  152.2840   24.9410 O   0  0  0  0  0  0  0  0  0  0  0  0
   53.6180  154.2350   25.9830 C   0  0  0  0  0  0  0  0  0  0  0  0
   51.8840  152.6850   29.3300 H   0  0  0  0  0  0  0  0  0  0  0  0
   49.6680  154.8673   29.1630 H   0  0  0  0  0  0  0  0  0  0  0  0
   48.3417  156.3205   30.6974 H   0  0  0  0  0  0  0  0  0  0  0  0
   48.3510  159.3790   31.0030 H   0  0  0  0  0  0  0  0  0  0  0  0
   51.2170  159.4970   30.1803 H   0  0  0  0  0  0  0  0  0  0  0  0
   52.5524  158.0494   28.6506 H   0  0  0  0  0  0  0  0  0  0  0  0
   53.9690  157.4986   25.0523 H   0  0  0  0  0  0  0  0  0  0  0  0
   55.0080  157.0040   22.4870 H   0  0  0  0  0  0  0  0  0  0  0  0
   55.7111  153.9507   23.2935 H   0  0  0  0  0  0  0  0  0  0  0  0
   54.8450  151.8010   25.7150 H   0  0  0  0  0  0  0  0  0  0  0  0
  1  2  2  0
  2  3  1  0
  3  4  1  0
  3  5  2  0
  5  6  1  0
  6  7  2  0
  7  8  1  0
  8  9  2  0
  9 10  1  0
  9 11  1  0
 11 12  2  0
  5 13  1  0
 13 14  1  0
 14 15  2  0
 15 16  1  0
 16 17  1  0
 16 18  2  0
 18 19  1  0
 19 20  1  0
 19 21  2  0
 21  2  1  0
 12  6  1  0
 21 14  1  0
  4 22  1  0
  7 23  1  0
  8 24  1  0
 10 25  1  0
 11 26  1  0
 12 27  1  0
 15 28  1  0
 17 29  1  0
 18 30  1  0
 20 31  1  0
M  END
>  <meeko>  (6) 
{"is_sidechain": [false], "free_energy": -7.127, "intermolecular_energy": -8.541, "internal_energy": 0.144}

$$$$
kaempferol_maoa_out
     RDKit          3D

 31 33  0  0  0  0  0  0  0  0999 V2000
   48.4960  156.9360   30.4670 O   0  0  0  0  0  0  0  0  0  0  0  0
   49.6070  157.2450   30.0400 C   0  0  0  0  0  0  0  0  0  0  0  0
   50.3400  156.3400   29.1250 C   0  0  0  0  0  0  0  0  0  0  0  0
   49.7130  155.1590   28.7740 O   0  0  0  0  0  0  0  0  0  0  0  0
   51.5520  156.7200   28.6790 C   0  0  0  0  0  0  0  0  0  0  0  0
   52.3680  155.9070   27.7530 C   0  0  0  0  0  0  0  0  0  0  0  0
   52.6190  154.5460   27.9890 C   0  0  0  0  0  0  0  0  0  0  0  0
   53.4130  153.8000   27.1120 C   0  0  0  0  0  0  0  0  0  0  0  0
   53.9680  154.4180   25.9980 C   0  0  0  0  0  0  0  0  0  0  0  0
   54.7480  153.7290   25.1170 O   0  0  0  0  0  0  0  0  0  0  0  0
   53.7440  155.7640   25.7480 C   0  0  0  0  0  0  0  0  0  0  0  0
   52.9490  156.5080   26.6250 C   0  0  0  0  0  0  0  0  0  0  0  0
   52.1590  157.9240   29.0200 O   0  0  0  0  0  0  0  0  0  0  0  0
   51.5080  158.7800   29.8710 C   0  0  0  0  0  0  0  0  0  0  0  0
   52.1580  159.9700   30.1950 C   0  0  0  0  0  0  0  0  0  0  0  0
   51.5420  160.8760   31.0540 C   0  0  0  0  0  0  0  0  0  0  0  0
   52.2110  162.0270   31.3440 O   0  0  0  0  0  0  0  0  0  0  0  0
   50.2860  160.6130   31.5960 C   0  0  0  0  0  0  0  0  0  0  0  0
   49.6420  159.4220   31.2690 C   0  0  0  0  0  0  0  0  0  0  0  0
   48.4110  159.2150   31.8300 O   0  0  0  0  0  0  0  0  0  0  0  0
   50.2530  158.5060   30.4070 C   0  0  0  0  0  0  0  0  0  0  0  0
   49.7290  154.4280   29.3600 H   0  0  0  0  0  0  0  0  0  0  0  0
   52.1854  154.0599   28.8754 H   0  0  0  0  0  0  0  0  0  0  0  0
   53.5967  152.7323   27.3026 H   0  0  0  0  0  0  0  0  0  0  0  0
   54.3510  153.2450   24.4190 H   0  0  0  0  0  0  0  0  0  0  0  0
   54.1897  156.2436   24.8641 H   0  0  0  0  0  0  0  0  0  0  0  0
   52.7767  157.5766   26.4290 H   0  0  0  0  0  0  0  0  0  0  0  0
   53.1503  160.1915   29.7750 H   0  0  0  0  0  0  0  0  0  0  0  0
   52.6140  162.1360   32.1840 H   0  0  0  0  0  0  0  0  0  0  0  0
   49.8089  161.3365   32.2735 H   0  0  0  0  0  0  0  0  0  0  0  0
   47.7200  159.8310   31.6850 H   0  0  0  0  0  0  0  0  0  0  0  0
  1  2  2  0
  2  3  1  0
  3  4  1  0
  3  5  2  0
  5  6  1  0
  6  7  2  0
  7  8  1  0
  8  9  2  0
  9 10  1  0
  9 11  1  0
 11 12  2  0
  5 13  1  0
 13 14  1  0
 14 15  2  0
 15 16  1  0
 16 17  1  0
 16 18  2  0
 18 19  1  0
 19 20  1  0
 19 21  2  0
 21  2  1  0
 12  6  1  0
 21 14  1  0
  4 22  1  0
  7 23  1  0
  8 24  1  0
 10 25  1  0
 11 26  1  0
 12 27  1  0
 15 28  1  0
 17 29  1  0
 18 30  1  0
 20 31  1  0
M  END
>  <meeko>  (7) 
{"is_sidechain": [false], "free_energy": -6.949, "intermolecular_energy": -8.141, "internal_energy": -0.047}

$$$$
kaempferol_maoa_out
     RDKit          3D

 31 33  0  0  0  0  0  0  0  0999 V2000
   49.2030  155.8030   29.6920 O   0  0  0  0  0  0  0  0  0  0  0  0
   50.2550  156.2650   29.2550 C   0  0  0  0  0  0  0  0  0  0  0  0
   51.0520  155.5120   28.2600 C   0  0  0  0  0  0  0  0  0  0  0  0
   50.5520  154.2910   27.8470 O   0  0  0  0  0  0  0  0  0  0  0  0
   52.1960  156.0580   27.8070 C   0  0  0  0  0  0  0  0  0  0  0  0
   53.0650  155.4060   26.8040 C   0  0  0  0  0  0  0  0  0  0  0  0
   53.6950  156.1370   25.7850 C   0  0  0  0  0  0  0  0  0  0  0  0
   54.4950  155.4980   24.8320 C   0  0  0  0  0  0  0  0  0  0  0  0
   54.6610  154.1190   24.8920 C   0  0  0  0  0  0  0  0  0  0  0  0
   55.4310  153.4560   23.9840 O   0  0  0  0  0  0  0  0  0  0  0  0
   54.0410  153.3730   25.8830 C   0  0  0  0  0  0  0  0  0  0  0  0
   53.2420  154.0130   26.8360 C   0  0  0  0  0  0  0  0  0  0  0  0
   52.6750  157.2990   28.2110 O   0  0  0  0  0  0  0  0  0  0  0  0
   51.9620  158.0180   29.1370 C   0  0  0  0  0  0  0  0  0  0  0  0
   52.4840  159.2520   29.5220 C   0  0  0  0  0  0  0  0  0  0  0  0
   51.8000  160.0230   30.4580 C   0  0  0  0  0  0  0  0  0  0  0  0
   52.3440  161.2230   30.8070 O   0  0  0  0  0  0  0  0  0  0  0  0
   50.6030  159.5820   31.0170 C   0  0  0  0  0  0  0  0  0  0  0  0
   50.0870  158.3480   30.6290 C   0  0  0  0  0  0  0  0  0  0  0  0
   48.9090  157.9640   31.2090 O   0  0  0  0  0  0  0  0  0  0  0  0
   50.7660  157.5660   29.6880 C   0  0  0  0  0  0  0  0  0  0  0  0
   51.0750  153.5180   27.9310 H   0  0  0  0  0  0  0  0  0  0  0  0
   53.5578  157.2273   25.7351 H   0  0  0  0  0  0  0  0  0  0  0  0
   54.9889  156.0819   24.0414 H   0  0  0  0  0  0  0  0  0  0  0  0
   55.0700  152.7430   23.4940 H   0  0  0  0  0  0  0  0  0  0  0  0
   54.1771  152.2821   25.9194 H   0  0  0  0  0  0  0  0  0  0  0  0
   52.7471  153.4193   27.6187 H   0  0  0  0  0  0  0  0  0  0  0  0
   53.4287  159.6136   29.0898 H   0  0  0  0  0  0  0  0  0  0  0  0
   52.2150  161.9720   30.2590 H   0  0  0  0  0  0  0  0  0  0  0  0
   50.0719  160.2005   31.7555 H   0  0  0  0  0  0  0  0  0  0  0  0
   48.2490  158.6020   31.3980 H   0  0  0  0  0  0  0  0  0  0  0  0
  1  2  2  0
  2  3  1  0
  3  4  1  0
  3  5  2  0
  5  6  1  0
  6  7  2  0
  7  8  1  0
  8  9  2  0
  9 10  1  0
  9 11  1  0
 11 12  2  0
  5 13  1  0
 13 14  1  0
 14 15  2  0
 15 16  1  0
 16 17  1  0
 16 18  2  0
 18 19  1  0
 19 20  1  0
 19 21  2  0
 21  2  1  0
 12  6  1  0
 21 14  1  0
  4 22  1  0
  7 23  1  0
  8 24  1  0
 10 25  1  0
 11 26  1  0
 12 27  1  0
 15 28  1  0
 17 29  1  0
 18 30  1  0
 20 31  1  0
M  END
>  <meeko>  (8) 
{"is_sidechain": [false], "free_energy": -6.833, "intermolecular_energy": -8.195, "internal_energy": 0.143}

$$$$
