lazabemide_out
     RDKit          3D

 24 24  0  0  0  0  0  0  0  0999 V2000
   54.7680  153.2960   23.3010 N   0  0  0  0  0  0  0  0  0  0  0  0
   54.0660  152.2470   24.0510 C   0  0  0  0  0  0  0  0  0  0  0  0
   54.5880  152.1270   25.4910 C   0  0  0  0  0  0  0  0  0  0  0  0
   54.1270  153.2090   26.3380 N   0  0  0  0  0  0  0  0  0  0  0  0
   52.9680  153.1370   27.0780 C   0  0  0  0  0  0  0  0  0  0  0  0
   52.2620  152.1380   27.1520 O   0  0  0  0  0  0  0  0  0  0  0  0
   52.6100  154.4050   27.7910 C   0  0  0  0  0  0  0  0  0  0  0  0
   51.8410  154.3560   28.9490 C   0  0  0  0  0  0  0  0  0  0  0  0
   51.5220  155.5570   29.5830 C   0  0  0  0  0  0  0  0  0  0  0  0
   51.9790  156.7540   29.0410 C   0  0  0  0  0  0  0  0  0  0  0  0
   51.6090  158.2510   29.7940 Cl  0  0  0  0  0  0  0  0  0  0  0  0
   52.7400  156.7090   27.8810 C   0  0  0  0  0  0  0  0  0  0  0  0
   53.0690  155.5640   27.2340 N   0  0  0  0  0  0  0  0  0  0  0  0
   55.5690  152.8900   22.8180 H   0  0  0  0  0  0  0  0  0  0  0  0
   55.0880  154.0180   23.9460 H   0  0  0  0  0  0  0  0  0  0  0  0
   54.1320  153.7080   22.6180 H   0  0  0  0  0  0  0  0  0  0  0  0
   52.9931  152.4879   24.0803 H   0  0  0  0  0  0  0  0  0  0  0  0
   54.2426  151.2876   23.5428 H   0  0  0  0  0  0  0  0  0  0  0  0
   54.2394  151.1736   25.9148 H   0  0  0  0  0  0  0  0  0  0  0  0
   55.6864  152.1744   25.4545 H   0  0  0  0  0  0  0  0  0  0  0  0
   54.6670  154.0310   26.3870 H   0  0  0  0  0  0  0  0  0  0  0  0
   51.4932  153.3945   29.3546 H   0  0  0  0  0  0  0  0  0  0  0  0
   50.9160  155.5576   30.5010 H   0  0  0  0  0  0  0  0  0  0  0  0
   53.0980  157.6606   27.4610 H   0  0  0  0  0  0  0  0  0  0  0  0
  1  2  1  0
  2  3  1  0
  3  4  1  0
  4  5  1  0
  5  6  2  0
  5  7  1  0
  7  8  2  0
  8  9  1  0
  9 10  2  0
 10 11  1  0
 10 12  1  0
 12 13  2  0
 13  7  1  0
  1 14  1  0
  1 15  1  0
  1 16  1  0
  2 17  1  0
  2 18  1  0
  3 19  1  0
  3 20  1  0
  4 21  1  0
  8 22  1  0
  9 23  1  0
 12 24  1  0
M  CHG  1   1   1
M  END
>  <meeko>  (1) 
{"is_sidechain": [false], "free_energy": -7.165, "intermolecular_energy": -8.632, "internal_energy": -0.186}

$$$$
lazabemide_out
     RDKit          3D

 24 24  0  0  0  0  0  0  0  0999 V2000
   54.8340  153.2780   23.3430 N   0  0  0  0  0  0  0  0  0  0  0  0
   54.0870  152.2340   24.0570 C   0  0  0  0  0  0  0  0  0  0  0  0
   54.5340  152.1120   25.5210 C   0  0  0  0  0  0  0  0  0  0  0  0
   54.0990  153.2350   26.3280 N   0  0  0  0  0  0  0  0  0  0  0  0
   52.9390  153.2180   27.0690 C   0  0  0  0  0  0  0  0  0  0  0  0
   52.2100  152.2390   27.1800 O   0  0  0  0  0  0  0  0  0  0  0  0
   52.6110  154.5200   27.7340 C   0  0  0  0  0  0  0  0  0  0  0  0
   52.9950  155.7180   27.1410 C   0  0  0  0  0  0  0  0  0  0  0  0
   52.6770  156.9100   27.7910 C   0  0  0  0  0  0  0  0  0  0  0  0
   51.9920  156.8630   29.0000 C   0  0  0  0  0  0  0  0  0  0  0  0
   51.5820  158.3090   29.8290 Cl  0  0  0  0  0  0  0  0  0  0  0  0
   51.6490  155.6220   29.5210 C   0  0  0  0  0  0  0  0  0  0  0  0
   51.9410  154.4420   28.9210 N   0  0  0  0  0  0  0  0  0  0  0  0
   55.3330  152.8610   22.5580 H   0  0  0  0  0  0  0  0  0  0  0  0
   55.5010  153.7130   23.9790 H   0  0  0  0  0  0  0  0  0  0  0  0
   54.1840  153.9840   22.9960 H   0  0  0  0  0  0  0  0  0  0  0  0
   53.0157  152.4823   24.0315 H   0  0  0  0  0  0  0  0  0  0  0  0
   54.2825  151.2729   23.5589 H   0  0  0  0  0  0  0  0  0  0  0  0
   54.1110  151.1887   25.9436 H   0  0  0  0  0  0  0  0  0  0  0  0
   55.6338  152.0954   25.5352 H   0  0  0  0  0  0  0  0  0  0  0  0
   54.6580  154.0460   26.3470 H   0  0  0  0  0  0  0  0  0  0  0  0
   53.5360  155.7250   26.1833 H   0  0  0  0  0  0  0  0  0  0  0  0
   52.9649  157.8767   27.3521 H   0  0  0  0  0  0  0  0  0  0  0  0
   51.1077  155.5950   30.4782 H   0  0  0  0  0  0  0  0  0  0  0  0
  1  2  1  0
  2  3  1  0
  3  4  1  0
  4  5  1  0
  5  6  2  0
  5  7  1  0
  7  8  2  0
  8  9  1  0
  9 10  2  0
 10 11  1  0
 10 12  1  0
 12 13  2  0
 13  7  1  0
  1 14  1  0
  1 15  1  0
  1 16  1  0
  2 17  1  0
  2 18  1  0
  3 19  1  0
  3 20  1  0
  4 21  1  0
  8 22  1  0
  9 23  1  0
 12 24  1  0
M  CHG  1   1   1
M  END
>  <meeko>  (2) 
{"is_sidechain": [false], "free_energy": -7.097, "intermolecular_energy": -8.552, "internal_energy": -0.183}

$$$$
lazabemide_out
     RDKit          3D

 24 24  0  0  0  0  0  0  0  0999 V2000
   54.1540  151.4700   24.0510 N   0  0  0  0  0  0  0  0  0  0  0  0
   53.8140  152.7160   24.7510 C   0  0  0  0  0  0  0  0  0  0  0  0
   53.7680  152.5210   26.2740 C   0  0  0  0  0  0  0  0  0  0  0  0
   53.4250  153.7420   26.9760 N   0  0  0  0  0  0  0  0  0  0  0  0
   52.5360  153.7740   28.0270 C   0  0  0  0  0  0  0  0  0  0  0  0
   52.0130  152.7790   28.5140 O   0  0  0  0  0  0  0  0  0  0  0  0
   52.2290  155.1500   28.5350 C   0  0  0  0  0  0  0  0  0  0  0  0
   51.1710  155.3430   29.4180 C   0  0  0  0  0  0  0  0  0  0  0  0
   50.9120  156.6380   29.8660 C   0  0  0  0  0  0  0  0  0  0  0  0
   51.7110  157.6850   29.4200 C   0  0  0  0  0  0  0  0  0  0  0  0
   51.4240  159.2910   29.9500 Cl  0  0  0  0  0  0  0  0  0  0  0  0
   52.7450  157.4010   28.5370 C   0  0  0  0  0  0  0  0  0  0  0  0
   53.0270  156.1580   28.0770 N   0  0  0  0  0  0  0  0  0  0  0  0
   53.3230  151.1030   23.5890 H   0  0  0  0  0  0  0  0  0  0  0  0
   54.5010  150.7870   24.7230 H   0  0  0  0  0  0  0  0  0  0  0  0
   54.8750  151.6580   23.3540 H   0  0  0  0  0  0  0  0  0  0  0  0
   54.5719  153.4766   24.5123 H   0  0  0  0  0  0  0  0  0  0  0  0
   52.8154  153.0341   24.4169 H   0  0  0  0  0  0  0  0  0  0  0  0
   53.0152  151.7543   26.5097 H   0  0  0  0  0  0  0  0  0  0  0  0
   54.7715  152.2143   26.6039 H   0  0  0  0  0  0  0  0  0  0  0  0
   53.8470  154.5840   26.6900 H   0  0  0  0  0  0  0  0  0  0  0  0
   50.5548  154.4960   29.7540 H   0  0  0  0  0  0  0  0  0  0  0  0
   50.0843  156.8292   30.5649 H   0  0  0  0  0  0  0  0  0  0  0  0
   53.3726  158.2352   28.1904 H   0  0  0  0  0  0  0  0  0  0  0  0
  1  2  1  0
  2  3  1  0
  3  4  1  0
  4  5  1  0
  5  6  2  0
  5  7  1  0
  7  8  2  0
  8  9  1  0
  9 10  2  0
 10 11  1  0
 10 12  1  0
 12 13  2  0
 13  7  1  0
  1 14  1  0
  1 15  1  0
  1 16  1  0
  2 17  1  0
  2 18  1  0
  3 19  1  0
  3 20  1  0
  4 21  1  0
  8 22  1  0
  9 23  1  0
 12 24  1  0
M  CHG  1   1   1
M  END
>  <meeko>  (3) 
{"is_sidechain": [false], "free_energy": -6.821, "intermolecular_energy": -8.257, "internal_energy": -0.145}

$$$$
lazabemide_out
     RDKit          3D

 24 24  0  0  0  0  0  0  0  0999 V2000
   52.6770  152.9690   28.3930 N   0  0  0  0  0  0  0  0  0  0  0  0
   51.9020  154.0730   28.9710 C   0  0  0  0  0  0  0  0  0  0  0  0
   52.3090  155.4300   28.3770 C   0  0  0  0  0  0  0  0  0  0  0  0
   51.6070  156.5370   28.9950 N   0  0  0  0  0  0  0  0  0  0  0  0
   52.2030  157.7530   29.2470 C   0  0  0  0  0  0  0  0  0  0  0  0
   53.3450  158.0400   28.9080 O   0  0  0  0  0  0  0  0  0  0  0  0
   51.3410  158.7200   30.0000 C   0  0  0  0  0  0  0  0  0  0  0  0
   51.8480  159.9650   30.3590 C   0  0  0  0  0  0  0  0  0  0  0  0
   51.0190  160.8380   31.0640 C   0  0  0  0  0  0  0  0  0  0  0  0
   49.7250  160.4380   31.3820 C   0  0  0  0  0  0  0  0  0  0  0  0
   48.6760  161.4850   32.2470 Cl  0  0  0  0  0  0  0  0  0  0  0  0
   49.3030  159.1760   30.9850 C   0  0  0  0  0  0  0  0  0  0  0  0
   50.0790  158.2990   30.3010 N   0  0  0  0  0  0  0  0  0  0  0  0
   52.1890  152.0890   28.5570 H   0  0  0  0  0  0  0  0  0  0  0  0
   53.5980  152.9350   28.8310 H   0  0  0  0  0  0  0  0  0  0  0  0
   52.7840  153.1170   27.3890 H   0  0  0  0  0  0  0  0  0  0  0  0
   50.8343  153.9021   28.7691 H   0  0  0  0  0  0  0  0  0  0  0  0
   52.1012  154.1003   30.0525 H   0  0  0  0  0  0  0  0  0  0  0  0
   53.3899  155.5704   28.5251 H   0  0  0  0  0  0  0  0  0  0  0  0
   52.0461  155.4208   27.3089 H   0  0  0  0  0  0  0  0  0  0  0  0
   50.6630  156.4150   29.2460 H   0  0  0  0  0  0  0  0  0  0  0  0
   52.8758  160.2535   30.0938 H   0  0  0  0  0  0  0  0  0  0  0  0
   51.3842  161.8310   31.3649 H   0  0  0  0  0  0  0  0  0  0  0  0
   48.2780  158.8693   31.2406 H   0  0  0  0  0  0  0  0  0  0  0  0
  1  2  1  0
  2  3  1  0
  3  4  1  0
  4  5  1  0
  5  6  2  0
  5  7  1  0
  7  8  2  0
  8  9  1  0
  9 10  2  0
 10 11  1  0
 10 12  1  0
 12 13  2  0
 13  7  1  0
  1 14  1  0
  1 15  1  0
  1 16  1  0
  2 17  1  0
  2 18  1  0
  3 19  1  0
  3 20  1  0
  4 21  1  0
  8 22  1  0
  9 23  1  0
 12 24  1  0
M  CHG  1   1   1
M  END
>  <meeko>  (4) 
{"is_sidechain": [false], "free_energy": -6.55, "intermolecular_energy": -7.931, "internal_energy": -0.144}

$$$$
lazabemide_out
     RDKit          3D

 24 24  0  0  0  0  0  0  0  0999 V2000
   52.7010  153.0200   28.3800 N   0  0  0  0  0  0  0  0  0  0  0  0
   51.8600  154.1090   28.8930 C   0  0  0  0  0  0  0  0  0  0  0  0
   52.3280  155.4810   28.3850 C   0  0  0  0  0  0  0  0  0  0  0  0
   51.6070  156.5750   29.0050 N   0  0  0  0  0  0  0  0  0  0  0  0
   52.1850  157.7970   29.2650 C   0  0  0  0  0  0  0  0  0  0  0  0
   53.3250  158.1020   28.9350 O   0  0  0  0  0  0  0  0  0  0  0  0
   51.3060  158.7490   30.0180 C   0  0  0  0  0  0  0  0  0  0  0  0
   50.0020  158.3830   30.3370 C   0  0  0  0  0  0  0  0  0  0  0  0
   49.2100  159.2960   31.0340 C   0  0  0  0  0  0  0  0  0  0  0  0
   49.7450  160.5310   31.3840 C   0  0  0  0  0  0  0  0  0  0  0  0
   48.8030  161.6800   32.2420 Cl  0  0  0  0  0  0  0  0  0  0  0  0
   51.0560  160.8130   31.0230 C   0  0  0  0  0  0  0  0  0  0  0  0
   51.8560  159.9540   30.3440 N   0  0  0  0  0  0  0  0  0  0  0  0
   52.6350  152.2170   29.0050 H   0  0  0  0  0  0  0  0  0  0  0  0
   53.6700  153.3340   28.3300 H   0  0  0  0  0  0  0  0  0  0  0  0
   52.3810  152.7540   27.4490 H   0  0  0  0  0  0  0  0  0  0  0  0
   50.8233  153.9428   28.5648 H   0  0  0  0  0  0  0  0  0  0  0  0
   51.9329  154.1084   29.9906 H   0  0  0  0  0  0  0  0  0  0  0  0
   53.3995  155.5932   28.6070 H   0  0  0  0  0  0  0  0  0  0  0  0
   52.1342  155.5220   27.3030 H   0  0  0  0  0  0  0  0  0  0  0  0
   50.6630  156.4390   29.2490 H   0  0  0  0  0  0  0  0  0  0  0  0
   49.6056  157.3987   30.0470 H   0  0  0  0  0  0  0  0  0  0  0  0
   48.1743  159.0419   31.3036 H   0  0  0  0  0  0  0  0  0  0  0  0
   51.4705  161.7922   31.3048 H   0  0  0  0  0  0  0  0  0  0  0  0
  1  2  1  0
  2  3  1  0
  3  4  1  0
  4  5  1  0
  5  6  2  0
  5  7  1  0
  7  8  2  0
  8  9  1  0
  9 10  2  0
 10 11  1  0
 10 12  1  0
 12 13  2  0
 13  7  1  0
  1 14  1  0
  1 15  1  0
  1 16  1  0
  2 17  1  0
  2 18  1  0
  3 19  1  0
  3 20  1  0
  4 21  1  0
  8 22  1  0
  9 23  1  0
 12 24  1  0
M  CHG  1   1   1
M  END
>  <meeko>  (5) 
{"is_sidechain": [false], "free_energy": -6.541, "intermolecular_energy": -7.923, "internal_energy": -0.142}

$$$$
lazabemide_out
     RDKit          3D

 24 24  0  0  0  0  0  0  0  0999 V2000
   52.9160  158.3480   29.2940 N   0  0  0  0  0  0  0  0  0  0  0  0
   51.5320  158.1080   29.7220 C   0  0  0  0  0  0  0  0  0  0  0  0
   51.1930  156.6100   29.7460 C   0  0  0  0  0  0  0  0  0  0  0  0
   51.6470  155.9210   28.5540 N   0  0  0  0  0  0  0  0  0  0  0  0
   51.9840  154.5870   28.5450 C   0  0  0  0  0  0  0  0  0  0  0  0
   51.8620  153.8410   29.5100 O   0  0  0  0  0  0  0  0  0  0  0  0
   52.5430  154.0990   27.2430 C   0  0  0  0  0  0  0  0  0  0  0  0
   52.4580  154.9000   26.1080 C   0  0  0  0  0  0  0  0  0  0  0  0
   52.9840  154.4120   24.9120 C   0  0  0  0  0  0  0  0  0  0  0  0
   53.5710  153.1510   24.8930 C   0  0  0  0  0  0  0  0  0  0  0  0
   54.2300  152.5170   23.4410 Cl  0  0  0  0  0  0  0  0  0  0  0  0
   53.6110  152.4190   26.0720 C   0  0  0  0  0  0  0  0  0  0  0  0
   53.1090  152.8580   27.2530 N   0  0  0  0  0  0  0  0  0  0  0  0
   53.1090  159.3490   29.3180 H   0  0  0  0  0  0  0  0  0  0  0  0
   53.0430  157.9980   28.3450 H   0  0  0  0  0  0  0  0  0  0  0  0
   53.5550  157.8630   29.9240 H   0  0  0  0  0  0  0  0  0  0  0  0
   51.3955  158.5200   30.7328 H   0  0  0  0  0  0  0  0  0  0  0  0
   50.8616  158.5984   29.0008 H   0  0  0  0  0  0  0  0  0  0  0  0
   51.6745  156.1530   30.6231 H   0  0  0  0  0  0  0  0  0  0  0  0
   50.0981  156.5148   29.7916 H   0  0  0  0  0  0  0  0  0  0  0  0
   51.7170  156.4310   27.7140 H   0  0  0  0  0  0  0  0  0  0  0  0
   51.9876  155.8933   26.1531 H   0  0  0  0  0  0  0  0  0  0  0  0
   52.9353  155.0171   23.9947 H   0  0  0  0  0  0  0  0  0  0  0  0
   54.0778  151.4233   26.0468 H   0  0  0  0  0  0  0  0  0  0  0  0
  1  2  1  0
  2  3  1  0
  3  4  1  0
  4  5  1  0
  5  6  2  0
  5  7  1  0
  7  8  2  0
  8  9  1  0
  9 10  2  0
 10 11  1  0
 10 12  1  0
 12 13  2  0
 13  7  1  0
  1 14  1  0
  1 15  1  0
  1 16  1  0
  2 17  1  0
  2 18  1  0
  3 19  1  0
  3 20  1  0
  4 21  1  0
  8 22  1  0
  9 23  1  0
 12 24  1  0
M  CHG  1   1   1
M  END
>  <meeko>  (6) 
{"is_sidechain": [false], "free_energy": -6.515, "intermolecular_energy": -7.863, "internal_energy": -0.171}

$$$$
lazabemide_out
     RDKit          3D

 24 24  0  0  0  0  0  0  0  0999 V2000
   50.4130  161.9400   32.9040 N   0  0  0  0  0  0  0  0  0  0  0  0
   49.2200  161.2870   32.3490 C   0  0  0  0  0  0  0  0  0  0  0  0
   49.3020  161.1500   30.8220 C   0  0  0  0  0  0  0  0  0  0  0  0
   49.8340  159.8660   30.4100 N   0  0  0  0  0  0  0  0  0  0  0  0
   51.1790  159.6380   30.2300 C   0  0  0  0  0  0  0  0  0  0  0  0
   52.0540  160.4630   30.4700 O   0  0  0  0  0  0  0  0  0  0  0  0
   51.5100  158.2810   29.6870 C   0  0  0  0  0  0  0  0  0  0  0  0
   50.6720  157.2040   29.9580 C   0  0  0  0  0  0  0  0  0  0  0  0
   51.0130  155.9540   29.4400 C   0  0  0  0  0  0  0  0  0  0  0  0
   52.1690  155.8270   28.6780 C   0  0  0  0  0  0  0  0  0  0  0  0
   52.6210  154.3060   28.0240 Cl  0  0  0  0  0  0  0  0  0  0  0  0
   52.9480  156.9550   28.4590 C   0  0  0  0  0  0  0  0  0  0  0  0
   52.6510  158.1850   28.9460 N   0  0  0  0  0  0  0  0  0  0  0  0
   50.4080  161.8500   33.9190 H   0  0  0  0  0  0  0  0  0  0  0  0
   50.4090  162.9270   32.6490 H   0  0  0  0  0  0  0  0  0  0  0  0
   51.2500  161.4950   32.5270 H   0  0  0  0  0  0  0  0  0  0  0  0
   49.1247  160.2845   32.7916 H   0  0  0  0  0  0  0  0  0  0  0  0
   48.3464  161.9107   32.5894 H   0  0  0  0  0  0  0  0  0  0  0  0
   48.2917  161.2649   30.4023 H   0  0  0  0  0  0  0  0  0  0  0  0
   49.9836  161.9299   30.4515 H   0  0  0  0  0  0  0  0  0  0  0  0
   49.2050  159.1240   30.2530 H   0  0  0  0  0  0  0  0  0  0  0  0
   49.7640  157.3345   30.5650 H   0  0  0  0  0  0  0  0  0  0  0  0
   50.3746  155.0791   29.6323 H   0  0  0  0  0  0  0  0  0  0  0  0
   53.8603  156.8443   27.8545 H   0  0  0  0  0  0  0  0  0  0  0  0
  1  2  1  0
  2  3  1  0
  3  4  1  0
  4  5  1  0
  5  6  2  0
  5  7  1  0
  7  8  2  0
  8  9  1  0
  9 10  2  0
 10 11  1  0
 10 12  1  0
 12 13  2  0
 13  7  1  0
  1 14  1  0
  1 15  1  0
  1 16  1  0
  2 17  1  0
  2 18  1  0
  3 19  1  0
  3 20  1  0
  4 21  1  0
  8 22  1  0
  9 23  1  0
 12 24  1  0
M  CHG  1   1   1
M  END
>  <meeko>  (7) 
{"is_sidechain": [false], "free_energy": -6.027, "intermolecular_energy": -7.092, "internal_energy": -0.354}

$$$$
lazabemide_out
     RDKit          3D

 24 24  0  0  0  0  0  0  0  0999 V2000
   50.6090  158.3790   30.1350 N   0  0  0  0  0  0  0  0  0  0  0  0
   49.8790  157.1540   29.7830 C   0  0  0  0  0  0  0  0  0  0  0  0
   50.7060  155.8930   30.0760 C   0  0  0  0  0  0  0  0  0  0  0  0
   51.3490  155.3660   28.8880 N   0  0  0  0  0  0  0  0  0  0  0  0
   52.4460  155.9600   28.3060 C   0  0  0  0  0  0  0  0  0  0  0  0
   53.0260  156.9340   28.7710 O   0  0  0  0  0  0  0  0  0  0  0  0
   52.8820  155.3270   27.0200 C   0  0  0  0  0  0  0  0  0  0  0  0
   53.3910  156.1190   25.9960 C   0  0  0  0  0  0  0  0  0  0  0  0
   53.7830  155.4960   24.8110 C   0  0  0  0  0  0  0  0  0  0  0  0
   53.6530  154.1160   24.6930 C   0  0  0  0  0  0  0  0  0  0  0  0
   54.1260  153.3140   23.2510 Cl  0  0  0  0  0  0  0  0  0  0  0  0
   53.1330  153.4040   25.7660 C   0  0  0  0  0  0  0  0  0  0  0  0
   52.7400  153.9730   26.9320 N   0  0  0  0  0  0  0  0  0  0  0  0
   50.4770  158.5800   31.1260 H   0  0  0  0  0  0  0  0  0  0  0  0
   50.2540  159.1560   29.5790 H   0  0  0  0  0  0  0  0  0  0  0  0
   51.6020  158.2490   29.9440 H   0  0  0  0  0  0  0  0  0  0  0  0
   48.9484  157.1135   30.3682 H   0  0  0  0  0  0  0  0  0  0  0  0
   49.6667  157.1806   28.7040 H   0  0  0  0  0  0  0  0  0  0  0  0
   51.4807  156.1425   30.8159 H   0  0  0  0  0  0  0  0  0  0  0  0
   50.0195  155.1222   30.4561 H   0  0  0  0  0  0  0  0  0  0  0  0
   50.9850  154.5460   28.4800 H   0  0  0  0  0  0  0  0  0  0  0  0
   53.4821  157.2085   26.1175 H   0  0  0  0  0  0  0  0  0  0  0  0
   54.1904  156.0894   23.9791 H   0  0  0  0  0  0  0  0  0  0  0  0
   53.0341  152.3133   25.6637 H   0  0  0  0  0  0  0  0  0  0  0  0
  1  2  1  0
  2  3  1  0
  3  4  1  0
  4  5  1  0
  5  6  2  0
  5  7  1  0
  7  8  2  0
  8  9  1  0
  9 10  2  0
 10 11  1  0
 10 12  1  0
 12 13  2  0
 13  7  1  0
  1 14  1  0
  1 15  1  0
  1 16  1  0
  2 17  1  0
  2 18  1  0
  3 19  1  0
  3 20  1  0
  4 21  1  0
  8 22  1  0
  9 23  1  0
 12 24  1  0
M  CHG  1   1   1
M  END
>  <meeko>  (8) 
{"is_sidechain": [false], "free_energy": -6.013, "intermolecular_energy": -7.113, "internal_energy": -0.316}

$$$$
lazabemide_out
     RDKit          3D

 24 24  0  0  0  0  0  0  0  0999 V2000
   48.6900  159.8510   30.4420 N   0  0  0  0  0  0  0  0  0  0  0  0
   49.2580  158.4970   30.4420 C   0  0  0  0  0  0  0  0  0  0  0  0
   50.7690  158.5100   30.1680 C   0  0  0  0  0  0  0  0  0  0  0  0
   51.1990  157.3670   29.3870 N   0  0  0  0  0  0  0  0  0  0  0  0
   52.4450  157.2850   28.8070 C   0  0  0  0  0  0  0  0  0  0  0  0
   53.3270  158.1230   28.9540 O   0  0  0  0  0  0  0  0  0  0  0  0
   52.6460  156.0770   27.9430 C   0  0  0  0  0  0  0  0  0  0  0  0
   53.0290  156.2310   26.6140 C   0  0  0  0  0  0  0  0  0  0  0  0
   53.2020  155.0840   25.8390 C   0  0  0  0  0  0  0  0  0  0  0  0
   52.9890  153.8360   26.4140 C   0  0  0  0  0  0  0  0  0  0  0  0
   53.1940  152.4030   25.4930 Cl  0  0  0  0  0  0  0  0  0  0  0  0
   52.6070  153.7760   27.7480 C   0  0  0  0  0  0  0  0  0  0  0  0
   52.4270  154.8670   28.5340 N   0  0  0  0  0  0  0  0  0  0  0  0
   49.2520  160.4550   31.0410 H   0  0  0  0  0  0  0  0  0  0  0  0
   47.7330  159.8180   30.7920 H   0  0  0  0  0  0  0  0  0  0  0  0
   48.6920  160.2200   29.4900 H   0  0  0  0  0  0  0  0  0  0  0  0
   49.0787  158.0361   31.4246 H   0  0  0  0  0  0  0  0  0  0  0  0
   48.7710  157.9229   29.6400 H   0  0  0  0  0  0  0  0  0  0  0  0
   51.0203  159.4286   29.6176 H   0  0  0  0  0  0  0  0  0  0  0  0
   51.2861  158.4670   31.1380 H   0  0  0  0  0  0  0  0  0  0  0  0
   50.5730  156.6160   29.2680 H   0  0  0  0  0  0  0  0  0  0  0  0
   53.1911  157.2312   26.1857 H   0  0  0  0  0  0  0  0  0  0  0  0
   53.5037  155.1660   24.7844 H   0  0  0  0  0  0  0  0  0  0  0  0
   52.4404  152.7844   28.1940 H   0  0  0  0  0  0  0  0  0  0  0  0
  1  2  1  0
  2  3  1  0
  3  4  1  0
  4  5  1  0
  5  6  2  0
  5  7  1  0
  7  8  2  0
  8  9  1  0
  9 10  2  0
 10 11  1  0
 10 12  1  0
 12 13  2  0
 13  7  1  0
  1 14  1  0
  1 15  1  0
  1 16  1  0
  2 17  1  0
  2 18  1  0
  3 19  1  0
  3 20  1  0
  4 21  1  0
  8 22  1  0
  9 23  1  0
 12 24  1  0
M  CHG  1   1   1
M  END
>  <meeko>  (9) 
{"is_sidechain": [false], "free_energy": -5.952, "intermolecular_energy": -7.237, "internal_energy": -0.119}

$$$$
