cand_028_out
     RDKit          3D

 38 40  0  0  0  0  0  0  0  0999 V2000
   22.2180  -27.6760   41.8130 C   0  0  0  0  0  0  0  0  0  0  0  0
   20.8410  -27.0500   41.9790 C   0  0  0  0  0  0  0  0  0  0  0  0
   19.9510  -27.3190   40.7860 C   0  0  0  0  0  0  0  0  0  0  0  0
   20.0220  -28.5870   40.1740 C   0  0  0  0  0  0  0  0  0  0  0  0
   19.2460  -28.9080   39.0520 C   0  0  0  0  0  0  0  0  0  0  0  0
   19.3000  -30.2460   38.4240 C   0  0  0  0  0  0  0  0  0  0  0  0
   18.8500  -31.2560   39.2670 O   0  0  0  0  0  0  0  0  0  0  0  0
   18.8480  -32.5490   38.8100 C   0  0  0  0  0  0  0  0  0  0  0  0
   18.4040  -33.5320   39.6950 C   0  0  0  0  0  0  0  0  0  0  0  0
   18.3730  -34.8700   39.2930 C   0  0  0  0  0  0  0  0  0  0  0  0
   18.7880  -35.2230   38.0060 C   0  0  0  0  0  0  0  0  0  0  0  0
   19.2300  -34.2400   37.1260 C   0  0  0  0  0  0  0  0  0  0  0  0
   19.6200  -34.6540   35.8810 O   0  0  0  0  0  0  0  0  0  0  0  0
   19.2610  -32.9020   37.5300 C   0  0  0  0  0  0  0  0  0  0  0  0
   19.7190  -31.8370   36.6350 C   0  0  0  0  0  0  0  0  0  0  0  0
   20.0910  -32.0680   35.4870 O   0  0  0  0  0  0  0  0  0  0  0  0
   19.7200  -30.4540   37.1630 C   0  0  0  0  0  0  0  0  0  0  0  0
   20.1430  -29.4550   36.3050 O   0  0  0  0  0  0  0  0  0  0  0  0
   18.3720  -27.9380   38.5490 C   0  0  0  0  0  0  0  0  0  0  0  0
   18.2940  -26.6740   39.1410 C   0  0  0  0  0  0  0  0  0  0  0  0
   19.0830  -26.3470   40.2530 C   0  0  0  0  0  0  0  0  0  0  0  0
   18.9560  -24.9750   40.8560 C   0  0  0  0  0  0  0  0  0  0  0  0
   22.6528  -27.8737   42.8039 H   0  0  0  0  0  0  0  0  0  0  0  0
   22.1266  -28.6211   41.2575 H   0  0  0  0  0  0  0  0  0  0  0  0
   22.8700  -26.9858   41.2575 H   0  0  0  0  0  0  0  0  0  0  0  0
   20.3661  -27.4689   42.8785 H   0  0  0  0  0  0  0  0  0  0  0  0
   20.9703  -25.9613   42.0690 H   0  0  0  0  0  0  0  0  0  0  0  0
   20.7042  -29.3441   40.5879 H   0  0  0  0  0  0  0  0  0  0  0  0
   18.0786  -33.2540   40.7083 H   0  0  0  0  0  0  0  0  0  0  0  0
   18.0219  -35.6455   39.9896 H   0  0  0  0  0  0  0  0  0  0  0  0
   18.7653  -36.2762   37.6893 H   0  0  0  0  0  0  0  0  0  0  0  0
   19.4060  -34.1390   35.1280 H   0  0  0  0  0  0  0  0  0  0  0  0
   20.2430  -28.5780   36.6190 H   0  0  0  0  0  0  0  0  0  0  0  0
   17.7403  -28.1723   37.6795 H   0  0  0  0  0  0  0  0  0  0  0  0
   17.6030  -25.9244   38.7281 H   0  0  0  0  0  0  0  0  0  0  0  0
   18.9634  -25.0545   41.9531 H   0  0  0  0  0  0  0  0  0  0  0  0
   19.8002  -24.3507   40.5280 H   0  0  0  0  0  0  0  0  0  0  0  0
   18.0116  -24.5163   40.5280 H   0  0  0  0  0  0  0  0  0  0  0  0
  1  2  1  0
  2  3  1  0
  3  4  2  0
  4  5  1  0
  5  6  1  0
  6  7  1  0
  7  8  1  0
  8  9  2  0
  9 10  1  0
 10 11  2  0
 11 12  1  0
 12 13  1  0
 12 14  2  0
 14 15  1  0
 15 16  2  0
 15 17  1  0
 17 18  1  0
  5 19  2  0
 19 20  1  0
 20 21  2  0
 21 22  1  0
 21  3  1  0
 17  6  2  0
 14  8  1  0
  1 23  1  0
  1 24  1  0
  1 25  1  0
  2 26  1  0
  2 27  1  0
  4 28  1  0
  9 29  1  0
 10 30  1  0
 11 31  1  0
 13 32  1  0
 18 33  1  0
 19 34  1  0
 20 35  1  0
 22 36  1  0
 22 37  1  0
 22 38  1  0
M  END
>  <meeko>  (1) 
{"is_sidechain": [false], "free_energy": -7.998, "intermolecular_energy": -9.4, "internal_energy": -0.362}

$$$$
cand_028_out
     RDKit          3D

 38 40  0  0  0  0  0  0  0  0999 V2000
   18.5830  -33.6270   39.7280 C   0  0  0  0  0  0  0  0  0  0  0  0
   19.0610  -33.6920   38.2840 C   0  0  0  0  0  0  0  0  0  0  0  0
   19.3270  -32.3160   37.7160 C   0  0  0  0  0  0  0  0  0  0  0  0
   19.1880  -31.2030   38.5700 C   0  0  0  0  0  0  0  0  0  0  0  0
   19.3960  -29.8940   38.1160 C   0  0  0  0  0  0  0  0  0  0  0  0
   19.2770  -28.7280   39.0170 C   0  0  0  0  0  0  0  0  0  0  0  0
   20.2260  -28.7310   40.0320 O   0  0  0  0  0  0  0  0  0  0  0  0
   20.2280  -27.7050   40.9420 C   0  0  0  0  0  0  0  0  0  0  0  0
   21.1880  -27.7570   41.9530 C   0  0  0  0  0  0  0  0  0  0  0  0
   21.2470  -26.7420   42.9110 C   0  0  0  0  0  0  0  0  0  0  0  0
   20.3450  -25.6760   42.8580 C   0  0  0  0  0  0  0  0  0  0  0  0
   19.3890  -25.6270   41.8480 C   0  0  0  0  0  0  0  0  0  0  0  0
   18.5380  -24.5550   41.8530 O   0  0  0  0  0  0  0  0  0  0  0  0
   19.3300  -26.6440   40.8900 C   0  0  0  0  0  0  0  0  0  0  0  0
   18.3400  -26.6300   39.8110 C   0  0  0  0  0  0  0  0  0  0  0  0
   17.5190  -25.7240   39.6930 O   0  0  0  0  0  0  0  0  0  0  0  0
   18.3580  -27.7590   38.8530 C   0  0  0  0  0  0  0  0  0  0  0  0
   17.4270  -27.7290   37.8310 O   0  0  0  0  0  0  0  0  0  0  0  0
   19.7660  -29.7070   36.7790 C   0  0  0  0  0  0  0  0  0  0  0  0
   19.9030  -30.7980   35.9180 C   0  0  0  0  0  0  0  0  0  0  0  0
   19.6770  -32.1070   36.3690 C   0  0  0  0  0  0  0  0  0  0  0  0
   19.8430  -33.2470   35.4010 C   0  0  0  0  0  0  0  0  0  0  0  0
   19.4426  -33.7439   40.4044 H   0  0  0  0  0  0  0  0  0  0  0  0
   18.1016  -32.6551   39.9115 H   0  0  0  0  0  0  0  0  0  0  0  0
   17.8595  -34.4350   39.9115 H   0  0  0  0  0  0  0  0  0  0  0  0
   19.9901  -34.2794   38.2430 H   0  0  0  0  0  0  0  0  0  0  0  0
   18.2683  -34.1616   37.6831 H   0  0  0  0  0  0  0  0  0  0  0  0
   18.9087  -31.3667   39.6213 H   0  0  0  0  0  0  0  0  0  0  0  0
   21.8977  -28.5963   41.9957 H   0  0  0  0  0  0  0  0  0  0  0  0
   22.0042  -26.7819   43.7079 H   0  0  0  0  0  0  0  0  0  0  0  0
   20.3906  -24.8773   43.6130 H   0  0  0  0  0  0  0  0  0  0  0  0
   18.8810  -23.6850   41.9170 H   0  0  0  0  0  0  0  0  0  0  0  0
   16.9640  -26.9370   37.6410 H   0  0  0  0  0  0  0  0  0  0  0  0
   19.9508  -28.6901   36.4026 H   0  0  0  0  0  0  0  0  0  0  0  0
   20.1925  -30.6284   34.8704 H   0  0  0  0  0  0  0  0  0  0  0  0
   19.9796  -34.1850   35.9591 H   0  0  0  0  0  0  0  0  0  0  0  0
   18.9466  -33.3241   34.7681 H   0  0  0  0  0  0  0  0  0  0  0  0
   20.7242  -33.0653   34.7681 H   0  0  0  0  0  0  0  0  0  0  0  0
  1  2  1  0
  2  3  1  0
  3  4  2  0
  4  5  1  0
  5  6  1  0
  6  7  1  0
  7  8  1  0
  8  9  2  0
  9 10  1  0
 10 11  2  0
 11 12  1  0
 12 13  1  0
 12 14  2  0
 14 15  1  0
 15 16  2  0
 15 17  1  0
 17 18  1  0
  5 19  2  0
 19 20  1  0
 20 21  2  0
 21 22  1  0
 21  3  1  0
 17  6  2  0
 14  8  1  0
  1 23  1  0
  1 24  1  0
  1 25  1  0
  2 26  1  0
  2 27  1  0
  4 28  1  0
  9 29  1  0
 10 30  1  0
 11 31  1  0
 13 32  1  0
 18 33  1  0
 19 34  1  0
 20 35  1  0
 22 36  1  0
 22 37  1  0
 22 38  1  0
M  END
>  <meeko>  (2) 
{"is_sidechain": [false], "free_energy": -7.686, "intermolecular_energy": -9.045, "internal_energy": -0.352}

$$$$
cand_028_out
     RDKit          3D

 38 40  0  0  0  0  0  0  0  0999 V2000
   20.0250  -29.8920   34.2180 C   0  0  0  0  0  0  0  0  0  0  0  0
   20.5340  -31.1160   34.9650 C   0  0  0  0  0  0  0  0  0  0  0  0
   19.9470  -31.2120   36.3560 C   0  0  0  0  0  0  0  0  0  0  0  0
   19.8590  -30.0350   37.1260 C   0  0  0  0  0  0  0  0  0  0  0  0
   19.3470  -30.0430   38.4300 C   0  0  0  0  0  0  0  0  0  0  0  0
   19.2290  -28.8050   39.2290 C   0  0  0  0  0  0  0  0  0  0  0  0
   20.1480  -28.7440   40.2700 O   0  0  0  0  0  0  0  0  0  0  0  0
   20.1480  -27.6470   41.0930 C   0  0  0  0  0  0  0  0  0  0  0  0
   21.0770  -27.6360   42.1340 C   0  0  0  0  0  0  0  0  0  0  0  0
   21.1320  -26.5470   43.0070 C   0  0  0  0  0  0  0  0  0  0  0  0
   20.2580  -25.4700   42.8400 C   0  0  0  0  0  0  0  0  0  0  0  0
   19.3320  -25.4850   41.8000 C   0  0  0  0  0  0  0  0  0  0  0  0
   18.5070  -24.3980   41.6920 O   0  0  0  0  0  0  0  0  0  0  0  0
   19.2770  -26.5750   40.9270 C   0  0  0  0  0  0  0  0  0  0  0  0
   18.3190  -26.6290   39.8210 C   0  0  0  0  0  0  0  0  0  0  0  0
   17.5240  -25.7180   39.6040 O   0  0  0  0  0  0  0  0  0  0  0  0
   18.3380  -27.8330   38.9580 C   0  0  0  0  0  0  0  0  0  0  0  0
   17.4370  -27.8680   37.9090 O   0  0  0  0  0  0  0  0  0  0  0  0
   18.9030  -31.2590   38.9610 C   0  0  0  0  0  0  0  0  0  0  0  0
   18.9890  -32.4370   38.2140 C   0  0  0  0  0  0  0  0  0  0  0  0
   19.5170  -32.4310   36.9140 C   0  0  0  0  0  0  0  0  0  0  0  0
   19.5820  -33.7260   36.1510 C   0  0  0  0  0  0  0  0  0  0  0  0
   19.7068  -29.1269   34.9415 H   0  0  0  0  0  0  0  0  0  0  0  0
   20.8294  -29.4872   33.5862 H   0  0  0  0  0  0  0  0  0  0  0  0
   19.1708  -30.1770   33.5862 H   0  0  0  0  0  0  0  0  0  0  0  0
   20.2579  -32.0182   34.3994 H   0  0  0  0  0  0  0  0  0  0  0  0
   21.6262  -31.0272   35.0611 H   0  0  0  0  0  0  0  0  0  0  0  0
   20.2016  -29.0843   36.6914 H   0  0  0  0  0  0  0  0  0  0  0  0
   21.7652  -28.4838   42.2670 H   0  0  0  0  0  0  0  0  0  0  0  0
   21.8647  -26.5374   43.8274 H   0  0  0  0  0  0  0  0  0  0  0  0
   20.3011  -24.6127   43.5279 H   0  0  0  0  0  0  0  0  0  0  0  0
   18.8640  -23.5590   41.4770 H   0  0  0  0  0  0  0  0  0  0  0  0
   17.5810  -28.4460   37.1870 H   0  0  0  0  0  0  0  0  0  0  0  0
   18.4819  -31.2881   39.9768 H   0  0  0  0  0  0  0  0  0  0  0  0
   18.6375  -33.3830   38.6517 H   0  0  0  0  0  0  0  0  0  0  0  0
   19.6242  -34.5669   36.8589 H   0  0  0  0  0  0  0  0  0  0  0  0
   18.6876  -33.8240   35.5181 H   0  0  0  0  0  0  0  0  0  0  0  0
   20.4817  -33.7339   35.5181 H   0  0  0  0  0  0  0  0  0  0  0  0
  1  2  1  0
  2  3  1  0
  3  4  2  0
  4  5  1  0
  5  6  1  0
  6  7  1  0
  7  8  1  0
  8  9  2  0
  9 10  1  0
 10 11  2  0
 11 12  1  0
 12 13  1  0
 12 14  2  0
 14 15  1  0
 15 16  2  0
 15 17  1  0
 17 18  1  0
  5 19  2  0
 19 20  1  0
 20 21  2  0
 21 22  1  0
 21  3  1  0
 17  6  2  0
 14  8  1  0
  1 23  1  0
  1 24  1  0
  1 25  1  0
  2 26  1  0
  2 27  1  0
  4 28  1  0
  9 29  1  0
 10 30  1  0
 11 31  1  0
 13 32  1  0
 18 33  1  0
 19 34  1  0
 20 35  1  0
 22 36  1  0
 22 37  1  0
 22 38  1  0
M  END
>  <meeko>  (3) 
{"is_sidechain": [false], "free_energy": -7.449, "intermolecular_energy": -8.699, "internal_energy": -0.419}

$$$$
cand_028_out
     RDKit          3D

 38 40  0  0  0  0  0  0  0  0999 V2000
   18.6920  -24.6300   37.1390 C   0  0  0  0  0  0  0  0  0  0  0  0
   17.9640  -25.2350   38.3300 C   0  0  0  0  0  0  0  0  0  0  0  0
   18.7710  -26.3310   38.9880 C   0  0  0  0  0  0  0  0  0  0  0  0
   18.7260  -27.6220   38.4260 C   0  0  0  0  0  0  0  0  0  0  0  0
   19.4290  -28.6970   38.9870 C   0  0  0  0  0  0  0  0  0  0  0  0
   19.4040  -30.0450   38.3830 C   0  0  0  0  0  0  0  0  0  0  0  0
   19.0030  -31.0310   39.2790 O   0  0  0  0  0  0  0  0  0  0  0  0
   18.9370  -32.3310   38.8490 C   0  0  0  0  0  0  0  0  0  0  0  0
   18.5450  -33.2890   39.7850 C   0  0  0  0  0  0  0  0  0  0  0  0
   18.4540  -34.6320   39.4120 C   0  0  0  0  0  0  0  0  0  0  0  0
   18.7560  -35.0170   38.1030 C   0  0  0  0  0  0  0  0  0  0  0  0
   19.1460  -34.0590   37.1720 C   0  0  0  0  0  0  0  0  0  0  0  0
   19.4250  -34.5040   35.9080 O   0  0  0  0  0  0  0  0  0  0  0  0
   19.2370  -32.7150   37.5460 C   0  0  0  0  0  0  0  0  0  0  0  0
   19.6440  -31.6770   36.5970 C   0  0  0  0  0  0  0  0  0  0  0  0
   19.9170  -31.9360   35.4270 O   0  0  0  0  0  0  0  0  0  0  0  0
   19.7160  -30.2850   37.0960 C   0  0  0  0  0  0  0  0  0  0  0  0
   20.0890  -29.3110   36.1880 O   0  0  0  0  0  0  0  0  0  0  0  0
   20.2030  -28.4590   40.1290 C   0  0  0  0  0  0  0  0  0  0  0  0
   20.2540  -27.1860   40.7030 C   0  0  0  0  0  0  0  0  0  0  0  0
   19.5360  -26.1150   40.1500 C   0  0  0  0  0  0  0  0  0  0  0  0
   19.6300  -24.7630   40.8040 C   0  0  0  0  0  0  0  0  0  0  0  0
   19.4919  -23.9653   37.4972 H   0  0  0  0  0  0  0  0  0  0  0  0
   19.1293  -25.4344   36.5293 H   0  0  0  0  0  0  0  0  0  0  0  0
   17.9812  -24.0529   36.5293 H   0  0  0  0  0  0  0  0  0  0  0  0
   17.7715  -24.4430   39.0687 H   0  0  0  0  0  0  0  0  0  0  0  0
   17.0241  -25.6758   37.9664 H   0  0  0  0  0  0  0  0  0  0  0  0
   18.1225  -27.7911   37.5220 H   0  0  0  0  0  0  0  0  0  0  0  0
   18.3079  -32.9867   40.8157 H   0  0  0  0  0  0  0  0  0  0  0  0
   18.1443  -35.3873   40.1493 H   0  0  0  0  0  0  0  0  0  0  0  0
   18.6856  -36.0747   37.8093 H   0  0  0  0  0  0  0  0  0  0  0  0
   19.3130  -35.4100   35.6950 H   0  0  0  0  0  0  0  0  0  0  0  0
   19.5100  -29.0730   35.4910 H   0  0  0  0  0  0  0  0  0  0  0  0
   20.7769  -29.2825   40.5790 H   0  0  0  0  0  0  0  0  0  0  0  0
   20.8662  -27.0211   41.6019 H   0  0  0  0  0  0  0  0  0  0  0  0
   19.6216  -24.8832   41.8974 H   0  0  0  0  0  0  0  0  0  0  0  0
   20.5645  -24.2710   40.4963 H   0  0  0  0  0  0  0  0  0  0  0  0
   18.7726  -24.1465   40.4963 H   0  0  0  0  0  0  0  0  0  0  0  0
  1  2  1  0
  2  3  1  0
  3  4  2  0
  4  5  1  0
  5  6  1  0
  6  7  1  0
  7  8  1  0
  8  9  2  0
  9 10  1  0
 10 11  2  0
 11 12  1  0
 12 13  1  0
 12 14  2  0
 14 15  1  0
 15 16  2  0
 15 17  1  0
 17 18  1  0
  5 19  2  0
 19 20  1  0
 20 21  2  0
 21 22  1  0
 21  3  1  0
 17  6  2  0
 14  8  1  0
  1 23  1  0
  1 24  1  0
  1 25  1  0
  2 26  1  0
  2 27  1  0
  4 28  1  0
  9 29  1  0
 10 30  1  0
 11 31  1  0
 13 32  1  0
 18 33  1  0
 19 34  1  0
 20 35  1  0
 22 36  1  0
 22 37  1  0
 22 38  1  0
M  END
>  <meeko>  (4) 
{"is_sidechain": [false], "free_energy": -7.273, "intermolecular_energy": -8.637, "internal_energy": -0.273}

$$$$
cand_028_out
     RDKit          3D

 38 40  0  0  0  0  0  0  0  0999 V2000
   23.1010  -27.8250   42.7440 C   0  0  0  0  0  0  0  0  0  0  0  0
   21.8330  -27.1880   43.2920 C   0  0  0  0  0  0  0  0  0  0  0  0
   20.7620  -27.0590   42.2330 C   0  0  0  0  0  0  0  0  0  0  0  0
   20.7400  -28.0050   41.1880 C   0  0  0  0  0  0  0  0  0  0  0  0
   19.7930  -27.9440   40.1570 C   0  0  0  0  0  0  0  0  0  0  0  0
   19.7520  -28.9500   39.0760 C   0  0  0  0  0  0  0  0  0  0  0  0
   19.5390  -30.2410   39.5470 O   0  0  0  0  0  0  0  0  0  0  0  0
   19.4790  -31.2750   38.6480 C   0  0  0  0  0  0  0  0  0  0  0  0
   19.2800  -32.5550   39.1660 C   0  0  0  0  0  0  0  0  0  0  0  0
   19.2070  -33.6520   38.3050 C   0  0  0  0  0  0  0  0  0  0  0  0
   19.3350  -33.4690   36.9260 C   0  0  0  0  0  0  0  0  0  0  0  0
   19.5330  -32.1910   36.4120 C   0  0  0  0  0  0  0  0  0  0  0  0
   19.6490  -32.0820   35.0520 O   0  0  0  0  0  0  0  0  0  0  0  0
   19.6070  -31.0930   37.2740 C   0  0  0  0  0  0  0  0  0  0  0  0
   19.8150  -29.7320   36.7750 C   0  0  0  0  0  0  0  0  0  0  0  0
   19.9280  -29.4900   35.5760 O   0  0  0  0  0  0  0  0  0  0  0  0
   19.8850  -28.6410   37.7730 C   0  0  0  0  0  0  0  0  0  0  0  0
   20.0690  -27.3580   37.2890 O   0  0  0  0  0  0  0  0  0  0  0  0
   18.8420  -26.9170   40.1900 C   0  0  0  0  0  0  0  0  0  0  0  0
   18.8540  -25.9680   41.2160 C   0  0  0  0  0  0  0  0  0  0  0  0
   19.8130  -26.0200   42.2380 C   0  0  0  0  0  0  0  0  0  0  0  0
   19.7770  -24.9760   43.3210 C   0  0  0  0  0  0  0  0  0  0  0  0
   23.7405  -28.1463   43.5794 H   0  0  0  0  0  0  0  0  0  0  0  0
   22.8365  -28.6973   42.1282 H   0  0  0  0  0  0  0  0  0  0  0  0
   23.6429  -27.0921   42.1282 H   0  0  0  0  0  0  0  0  0  0  0  0
   21.4481  -27.8114   44.1125 H   0  0  0  0  0  0  0  0  0  0  0  0
   22.0854  -26.1774   43.6455 H   0  0  0  0  0  0  0  0  0  0  0  0
   21.4865  -28.8129   41.1818 H   0  0  0  0  0  0  0  0  0  0  0  0
   19.1807  -32.7000   40.2519 H   0  0  0  0  0  0  0  0  0  0  0  0
   19.0486  -34.6612   38.7130 H   0  0  0  0  0  0  0  0  0  0  0  0
   19.2794  -34.3333   36.2478 H   0  0  0  0  0  0  0  0  0  0  0  0
   18.9170  -31.7940   34.5420 H   0  0  0  0  0  0  0  0  0  0  0  0
   20.7670  -26.8280   37.6190 H   0  0  0  0  0  0  0  0  0  0  0  0
   18.0781  -26.8564   39.4009 H   0  0  0  0  0  0  0  0  0  0  0  0
   18.0994  -25.1677   41.2220 H   0  0  0  0  0  0  0  0  0  0  0  0
   19.7940  -25.4676   44.3049 H   0  0  0  0  0  0  0  0  0  0  0  0
   20.6530  -24.3176   43.2249 H   0  0  0  0  0  0  0  0  0  0  0  0
   18.8578  -24.3795   43.2249 H   0  0  0  0  0  0  0  0  0  0  0  0
  1  2  1  0
  2  3  1  0
  3  4  2  0
  4  5  1  0
  5  6  1  0
  6  7  1  0
  7  8  1  0
  8  9  2  0
  9 10  1  0
 10 11  2  0
 11 12  1  0
 12 13  1  0
 12 14  2  0
 14 15  1  0
 15 16  2  0
 15 17  1  0
 17 18  1  0
  5 19  2  0
 19 20  1  0
 20 21  2  0
 21 22  1  0
 21  3  1  0
 17  6  2  0
 14  8  1  0
  1 23  1  0
  1 24  1  0
  1 25  1  0
  2 26  1  0
  2 27  1  0
  4 28  1  0
  9 29  1  0
 10 30  1  0
 11 31  1  0
 13 32  1  0
 18 33  1  0
 19 34  1  0
 20 35  1  0
 22 36  1  0
 22 37  1  0
 22 38  1  0
M  END
>  <meeko>  (5) 
{"is_sidechain": [false], "free_energy": -7.244, "intermolecular_energy": -8.562, "internal_energy": -0.314}

$$$$
cand_028_out
     RDKit          3D

 38 40  0  0  0  0  0  0  0  0999 V2000
   19.2890  -23.5090   38.3920 C   0  0  0  0  0  0  0  0  0  0  0  0
   19.2970  -24.7110   37.4580 C   0  0  0  0  0  0  0  0  0  0  0  0
   19.3880  -26.0150   38.2170 C   0  0  0  0  0  0  0  0  0  0  0  0
   20.1930  -26.0600   39.3730 C   0  0  0  0  0  0  0  0  0  0  0  0
   20.3460  -27.2350   40.1210 C   0  0  0  0  0  0  0  0  0  0  0  0
   21.1690  -27.2760   41.3480 C   0  0  0  0  0  0  0  0  0  0  0  0
   22.1630  -28.2480   41.2990 O   0  0  0  0  0  0  0  0  0  0  0  0
   23.0000  -28.3950   42.3760 C   0  0  0  0  0  0  0  0  0  0  0  0
   23.9720  -29.3930   42.2900 C   0  0  0  0  0  0  0  0  0  0  0  0
   24.8590  -29.5950   43.3500 C   0  0  0  0  0  0  0  0  0  0  0  0
   24.7730  -28.8000   44.4960 C   0  0  0  0  0  0  0  0  0  0  0  0
   23.8020  -27.8050   44.5780 C   0  0  0  0  0  0  0  0  0  0  0  0
   23.7740  -27.0620   45.7270 O   0  0  0  0  0  0  0  0  0  0  0  0
   22.9140  -27.6040   43.5170 C   0  0  0  0  0  0  0  0  0  0  0  0
   21.8790  -26.5700   43.5630 C   0  0  0  0  0  0  0  0  0  0  0  0
   21.7460  -25.8260   44.5320 O   0  0  0  0  0  0  0  0  0  0  0  0
   20.9850  -26.4440   42.3900 C   0  0  0  0  0  0  0  0  0  0  0  0
   20.0190  -25.4550   42.4390 O   0  0  0  0  0  0  0  0  0  0  0  0
   19.6620  -28.3820   39.7020 C   0  0  0  0  0  0  0  0  0  0  0  0
   18.8640  -28.3560   38.5550 C   0  0  0  0  0  0  0  0  0  0  0  0
   18.7250  -27.1840   37.7970 C   0  0  0  0  0  0  0  0  0  0  0  0
   17.8500  -27.2100   36.5740 C   0  0  0  0  0  0  0  0  0  0  0  0
   19.2913  -23.8558   39.4359 H   0  0  0  0  0  0  0  0  0  0  0  0
   20.1831  -22.8953   38.2075 H   0  0  0  0  0  0  0  0  0  0  0  0
   18.3868  -22.9073   38.2075 H   0  0  0  0  0  0  0  0  0  0  0  0
   18.3695  -24.7079   36.8667 H   0  0  0  0  0  0  0  0  0  0  0  0
   20.1817  -24.6322   36.8091 H   0  0  0  0  0  0  0  0  0  0  0  0
   20.7155  -25.1478   39.6969 H   0  0  0  0  0  0  0  0  0  0  0  0
   24.0394  -30.0197   41.3885 H   0  0  0  0  0  0  0  0  0  0  0  0
   25.6260  -30.3806   43.2826 H   0  0  0  0  0  0  0  0  0  0  0  0
   25.4706  -28.9597   45.3314 H   0  0  0  0  0  0  0  0  0  0  0  0
   23.3120  -27.3790   46.4780 H   0  0  0  0  0  0  0  0  0  0  0  0
   19.1130  -25.6800   42.3560 H   0  0  0  0  0  0  0  0  0  0  0  0
   19.7534  -29.3128   40.2810 H   0  0  0  0  0  0  0  0  0  0  0  0
   18.3366  -29.2691   38.2417 H   0  0  0  0  0  0  0  0  0  0  0  0
   16.7937  -27.2414   36.8795 H   0  0  0  0  0  0  0  0  0  0  0  0
   18.0315  -26.3061   35.9740 H   0  0  0  0  0  0  0  0  0  0  0  0
   18.0848  -28.1016   35.9740 H   0  0  0  0  0  0  0  0  0  0  0  0
  1  2  1  0
  2  3  1  0
  3  4  2  0
  4  5  1  0
  5  6  1  0
  6  7  1  0
  7  8  1  0
  8  9  2  0
  9 10  1  0
 10 11  2  0
 11 12  1  0
 12 13  1  0
 12 14  2  0
 14 15  1  0
 15 16  2  0
 15 17  1  0
 17 18  1  0
  5 19  2  0
 19 20  1  0
 20 21  2  0
 21 22  1  0
 21  3  1  0
 17  6  2  0
 14  8  1  0
  1 23  1  0
  1 24  1  0
  1 25  1  0
  2 26  1  0
  2 27  1  0
  4 28  1  0
  9 29  1  0
 10 30  1  0
 11 31  1  0
 13 32  1  0
 18 33  1  0
 19 34  1  0
 20 35  1  0
 22 36  1  0
 22 37  1  0
 22 38  1  0
M  END
>  <meeko>  (6) 
{"is_sidechain": [false], "free_energy": -7.204, "intermolecular_energy": -8.555, "internal_energy": -0.275}

$$$$
cand_028_out
     RDKit          3D

 38 40  0  0  0  0  0  0  0  0999 V2000
   22.4000  -27.6870   41.9150 C   0  0  0  0  0  0  0  0  0  0  0  0
   20.9660  -27.2930   42.2370 C   0  0  0  0  0  0  0  0  0  0  0  0
   20.0840  -27.3180   41.0100 C   0  0  0  0  0  0  0  0  0  0  0  0
   20.2100  -28.4050   40.1200 C   0  0  0  0  0  0  0  0  0  0  0  0
   19.4430  -28.4930   38.9500 C   0  0  0  0  0  0  0  0  0  0  0  0
   19.5550  -29.6440   38.0300 C   0  0  0  0  0  0  0  0  0  0  0  0
   19.9050  -29.2700   36.7370 O   0  0  0  0  0  0  0  0  0  0  0  0
   20.0420  -30.2430   35.7800 C   0  0  0  0  0  0  0  0  0  0  0  0
   20.3780  -29.8210   34.4930 C   0  0  0  0  0  0  0  0  0  0  0  0
   20.5360  -30.7600   33.4710 C   0  0  0  0  0  0  0  0  0  0  0  0
   20.3560  -32.1200   33.7360 C   0  0  0  0  0  0  0  0  0  0  0  0
   20.0210  -32.5370   35.0200 C   0  0  0  0  0  0  0  0  0  0  0  0
   19.8610  -33.8830   35.2110 O   0  0  0  0  0  0  0  0  0  0  0  0
   19.8620  -31.5970   36.0430 C   0  0  0  0  0  0  0  0  0  0  0  0
   19.5100  -31.9940   37.4080 C   0  0  0  0  0  0  0  0  0  0  0  0
   19.3430  -33.1700   37.7200 O   0  0  0  0  0  0  0  0  0  0  0  0
   19.3590  -30.9190   38.4150 C   0  0  0  0  0  0  0  0  0  0  0  0
   19.0380  -31.3070   39.7030 O   0  0  0  0  0  0  0  0  0  0  0  0
   18.5240  -27.4730   38.6810 C   0  0  0  0  0  0  0  0  0  0  0  0
   18.3910  -26.3860   39.5490 C   0  0  0  0  0  0  0  0  0  0  0  0
   19.1700  -26.2900   40.7110 C   0  0  0  0  0  0  0  0  0  0  0  0
   18.9840  -25.1010   41.6150 C   0  0  0  0  0  0  0  0  0  0  0  0
   22.9572  -27.8401   42.8510 H   0  0  0  0  0  0  0  0  0  0  0  0
   22.4018  -28.6189   41.3306 H   0  0  0  0  0  0  0  0  0  0  0  0
   22.8777  -26.8868   41.3306 H   0  0  0  0  0  0  0  0  0  0  0  0
   20.5622  -27.9972   42.9793 H   0  0  0  0  0  0  0  0  0  0  0  0
   20.9753  -26.2650   42.6284 H   0  0  0  0  0  0  0  0  0  0  0  0
   20.9292  -29.2049   40.3502 H   0  0  0  0  0  0  0  0  0  0  0  0
   20.5183  -28.7503   34.2836 H   0  0  0  0  0  0  0  0  0  0  0  0
   20.8024  -30.4284   32.4566 H   0  0  0  0  0  0  0  0  0  0  0  0
   20.4790  -32.8594   32.9309 H   0  0  0  0  0  0  0  0  0  0  0  0
   19.0920  -34.3130   34.8910 H   0  0  0  0  0  0  0  0  0  0  0  0
   18.2010  -31.0920   40.0630 H   0  0  0  0  0  0  0  0  0  0  0  0
   17.8997  -27.5273   37.7769 H   0  0  0  0  0  0  0  0  0  0  0  0
   17.6641  -25.5936   39.3172 H   0  0  0  0  0  0  0  0  0  0  0  0
   19.0350  -25.4267   42.6644 H   0  0  0  0  0  0  0  0  0  0  0  0
   19.7779  -24.3648   41.4206 H   0  0  0  0  0  0  0  0  0  0  0  0
   18.0032  -24.6425   41.4206 H   0  0  0  0  0  0  0  0  0  0  0  0
  1  2  1  0
  2  3  1  0
  3  4  2  0
  4  5  1  0
  5  6  1  0
  6  7  1  0
  7  8  1  0
  8  9  2  0
  9 10  1  0
 10 11  2  0
 11 12  1  0
 12 13  1  0
 12 14  2  0
 14 15  1  0
 15 16  2  0
 15 17  1  0
 17 18  1  0
  5 19  2  0
 19 20  1  0
 20 21  2  0
 21 22  1  0
 21  3  1  0
 17  6  2  0
 14  8  1  0
  1 23  1  0
  1 24  1  0
  1 25  1  0
  2 26  1  0
  2 27  1  0
  4 28  1  0
  9 29  1  0
 10 30  1  0
 11 31  1  0
 13 32  1  0
 18 33  1  0
 19 34  1  0
 20 35  1  0
 22 36  1  0
 22 37  1  0
 22 38  1  0
M  END
>  <meeko>  (7) 
{"is_sidechain": [false], "free_energy": -7.088, "intermolecular_energy": -8.388, "internal_energy": -0.305}

$$$$
cand_028_out
     RDKit          3D

 38 40  0  0  0  0  0  0  0  0999 V2000
   24.3070  -30.9280   42.7090 C   0  0  0  0  0  0  0  0  0  0  0  0
   24.6100  -29.4890   42.3170 C   0  0  0  0  0  0  0  0  0  0  0  0
   23.4880  -28.5510   42.7010 C   0  0  0  0  0  0  0  0  0  0  0  0
   22.6170  -28.1030   41.6880 C   0  0  0  0  0  0  0  0  0  0  0  0
   21.5650  -27.2160   41.9580 C   0  0  0  0  0  0  0  0  0  0  0  0
   20.6350  -26.7660   40.9010 C   0  0  0  0  0  0  0  0  0  0  0  0
   20.5220  -25.3820   40.8350 O   0  0  0  0  0  0  0  0  0  0  0  0
   19.6880  -24.8280   39.8980 C   0  0  0  0  0  0  0  0  0  0  0  0
   19.5930  -23.4360   39.8780 C   0  0  0  0  0  0  0  0  0  0  0  0
   18.7640  -22.8070   38.9460 C   0  0  0  0  0  0  0  0  0  0  0  0
   18.0290  -23.5700   38.0350 C   0  0  0  0  0  0  0  0  0  0  0  0
   18.1260  -24.9590   38.0580 C   0  0  0  0  0  0  0  0  0  0  0  0
   17.3810  -25.6450   37.1380 O   0  0  0  0  0  0  0  0  0  0  0  0
   18.9560  -25.5880   38.9910 C   0  0  0  0  0  0  0  0  0  0  0  0
   19.0860  -27.0450   39.0480 C   0  0  0  0  0  0  0  0  0  0  0  0
   18.4790  -27.7830   38.2760 O   0  0  0  0  0  0  0  0  0  0  0  0
   19.9850  -27.6110   40.0790 C   0  0  0  0  0  0  0  0  0  0  0  0
   20.1100  -28.9880   40.1160 O   0  0  0  0  0  0  0  0  0  0  0  0
   21.3820  -26.7870   43.2770 C   0  0  0  0  0  0  0  0  0  0  0  0
   22.2400  -27.2170   44.2930 C   0  0  0  0  0  0  0  0  0  0  0  0
   23.3030  -28.0900   44.0190 C   0  0  0  0  0  0  0  0  0  0  0  0
   24.1940  -28.5270   45.1490 C   0  0  0  0  0  0  0  0  0  0  0  0
   24.2890  -31.0133   43.8055 H   0  0  0  0  0  0  0  0  0  0  0  0
   23.3276  -31.2203   42.3024 H   0  0  0  0  0  0  0  0  0  0  0  0
   25.0854  -31.5904   42.3024 H   0  0  0  0  0  0  0  0  0  0  0  0
   25.5311  -29.1684   42.8257 H   0  0  0  0  0  0  0  0  0  0  0  0
   24.7265  -29.4511   41.2238 H   0  0  0  0  0  0  0  0  0  0  0  0
   22.7663  -28.4586   40.6578 H   0  0  0  0  0  0  0  0  0  0  0  0
   20.1704  -22.8345   40.5955 H   0  0  0  0  0  0  0  0  0  0  0  0
   18.6898  -21.7096   38.9293 H   0  0  0  0  0  0  0  0  0  0  0  0
   17.3755  -23.0749   37.3016 H   0  0  0  0  0  0  0  0  0  0  0  0
   16.6150  -25.2520   36.7680 H   0  0  0  0  0  0  0  0  0  0  0  0
   19.6280  -29.5190   39.5130 H   0  0  0  0  0  0  0  0  0  0  0  0
   20.5539  -26.1039   43.5170 H   0  0  0  0  0  0  0  0  0  0  0  0
   22.0792  -26.8655   45.3229 H   0  0  0  0  0  0  0  0  0  0  0  0
   23.7116  -28.2904   46.1089 H   0  0  0  0  0  0  0  0  0  0  0  0
   24.3656  -29.6115   45.0823 H   0  0  0  0  0  0  0  0  0  0  0  0
   25.1565  -27.9987   45.0823 H   0  0  0  0  0  0  0  0  0  0  0  0
  1  2  1  0
  2  3  1  0
  3  4  2  0
  4  5  1  0
  5  6  1  0
  6  7  1  0
  7  8  1  0
  8  9  2  0
  9 10  1  0
 10 11  2  0
 11 12  1  0
 12 13  1  0
 12 14  2  0
 14 15  1  0
 15 16  2  0
 15 17  1  0
 17 18  1  0
  5 19  2  0
 19 20  1  0
 20 21  2  0
 21 22  1  0
 21  3  1  0
 17  6  2  0
 14  8  1  0
  1 23  1  0
  1 24  1  0
  1 25  1  0
  2 26  1  0
  2 27  1  0
  4 28  1  0
  9 29  1  0
 10 30  1  0
 11 31  1  0
 13 32  1  0
 18 33  1  0
 19 34  1  0
 20 35  1  0
 22 36  1  0
 22 37  1  0
 22 38  1  0
M  END
>  <meeko>  (8) 
{"is_sidechain": [false], "free_energy": -6.943, "intermolecular_energy": -8.408, "internal_energy": -0.114}

$$$$
cand_028_out
     RDKit          3D

 38 40  0  0  0  0  0  0  0  0999 V2000
   22.0570  -25.2440   45.4580 C   0  0  0  0  0  0  0  0  0  0  0  0
   22.7360  -26.6060   45.4260 C   0  0  0  0  0  0  0  0  0  0  0  0
   22.7470  -27.1990   44.0350 C   0  0  0  0  0  0  0  0  0  0  0  0
   21.7740  -26.7590   43.1150 C   0  0  0  0  0  0  0  0  0  0  0  0
   21.7050  -27.2740   41.8130 C   0  0  0  0  0  0  0  0  0  0  0  0
   20.7020  -26.7950   40.8380 C   0  0  0  0  0  0  0  0  0  0  0  0
   20.6060  -25.4080   40.8000 O   0  0  0  0  0  0  0  0  0  0  0  0
   19.7110  -24.8290   39.9370 C   0  0  0  0  0  0  0  0  0  0  0  0
   19.6370  -23.4350   39.9440 C   0  0  0  0  0  0  0  0  0  0  0  0
   18.7480  -22.7810   39.0880 C   0  0  0  0  0  0  0  0  0  0  0  0
   17.9320  -23.5200   38.2270 C   0  0  0  0  0  0  0  0  0  0  0  0
   18.0090  -24.9100   38.2230 C   0  0  0  0  0  0  0  0  0  0  0  0
   17.1840  -25.5720   37.3550 O   0  0  0  0  0  0  0  0  0  0  0  0
   18.8980  -25.5640   39.0810 C   0  0  0  0  0  0  0  0  0  0  0  0
   19.0100  -27.0240   39.1080 C   0  0  0  0  0  0  0  0  0  0  0  0
   18.3330  -27.7410   38.3760 O   0  0  0  0  0  0  0  0  0  0  0  0
   19.9780  -27.6180   40.0580 C   0  0  0  0  0  0  0  0  0  0  0  0
   20.0830  -28.9970   40.0660 O   0  0  0  0  0  0  0  0  0  0  0  0
   22.6430  -28.2390   41.4300 C   0  0  0  0  0  0  0  0  0  0  0  0
   23.6100  -28.6900   42.3320 C   0  0  0  0  0  0  0  0  0  0  0  0
   23.6690  -28.1870   43.6400 C   0  0  0  0  0  0  0  0  0  0  0  0
   24.7340  -28.7030   44.5690 C   0  0  0  0  0  0  0  0  0  0  0  0
   21.9032  -24.9354   46.5026 H   0  0  0  0  0  0  0  0  0  0  0  0
   22.6924  -24.5054   44.9473 H   0  0  0  0  0  0  0  0  0  0  0  0
   21.0848  -25.3069   44.9473 H   0  0  0  0  0  0  0  0  0  0  0  0
   23.7738  -26.4940   45.7729 H   0  0  0  0  0  0  0  0  0  0  0  0
   22.1695  -27.2844   46.0809 H   0  0  0  0  0  0  0  0  0  0  0  0
   21.0501  -25.9917   43.4267 H   0  0  0  0  0  0  0  0  0  0  0  0
   20.2777  -22.8526   40.6225 H   0  0  0  0  0  0  0  0  0  0  0  0
   18.6900  -21.6825   39.0915 H   0  0  0  0  0  0  0  0  0  0  0  0
   17.2307  -23.0047   37.5542 H   0  0  0  0  0  0  0  0  0  0  0  0
   16.3980  -25.1620   37.0520 H   0  0  0  0  0  0  0  0  0  0  0  0
   20.8890  -29.4040   40.3160 H   0  0  0  0  0  0  0  0  0  0  0  0
   22.6189  -28.6466   40.4086 H   0  0  0  0  0  0  0  0  0  0  0  0
   24.3363  -29.4514   42.0114 H   0  0  0  0  0  0  0  0  0  0  0  0
   24.4172  -28.5495   45.6112 H   0  0  0  0  0  0  0  0  0  0  0  0
   24.8901  -29.7766   44.3875 H   0  0  0  0  0  0  0  0  0  0  0  0
   25.6733  -28.1601   44.3875 H   0  0  0  0  0  0  0  0  0  0  0  0
  1  2  1  0
  2  3  1  0
  3  4  2  0
  4  5  1  0
  5  6  1  0
  6  7  1  0
  7  8  1  0
  8  9  2  0
  9 10  1  0
 10 11  2  0
 11 12  1  0
 12 13  1  0
 12 14  2  0
 14 15  1  0
 15 16  2  0
 15 17  1  0
 17 18  1  0
  5 19  2  0
 19 20  1  0
 20 21  2  0
 21 22  1  0
 21  3  1  0
 17  6  2  0
 14  8  1  0
  1 23  1  0
  1 24  1  0
  1 25  1  0
  2 26  1  0
  2 27  1  0
  4 28  1  0
  9 29  1  0
 10 30  1  0
 11 31  1  0
 13 32  1  0
 18 33  1  0
 19 34  1  0
 20 35  1  0
 22 36  1  0
 22 37  1  0
 22 38  1  0
M  END
>  <meeko>  (9) 
{"is_sidechain": [false], "free_energy": -6.913, "intermolecular_energy": -8.33, "internal_energy": -0.158}

$$$$
