cand_050_out
     RDKit          3D

 38 40  0  0  0  0  0  0  0  0999 V2000
   19.8260  -33.2620   34.4620 C   0  0  0  0  0  0  0  0  0  0  0  0
   19.7750  -33.6340   35.9370 C   0  0  0  0  0  0  0  0  0  0  0  0
   19.6010  -32.4200   36.8230 C   0  0  0  0  0  0  0  0  0  0  0  0
   19.8730  -31.1550   36.2740 C   0  0  0  0  0  0  0  0  0  0  0  0
   19.7410  -29.9940   37.0410 C   0  0  0  0  0  0  0  0  0  0  0  0
   19.3310  -30.0620   38.3760 C   0  0  0  0  0  0  0  0  0  0  0  0
   19.2160  -28.8240   39.1750 C   0  0  0  0  0  0  0  0  0  0  0  0
   20.1310  -28.7660   40.2200 O   0  0  0  0  0  0  0  0  0  0  0  0
   20.1300  -27.6680   41.0410 C   0  0  0  0  0  0  0  0  0  0  0  0
   21.0550  -27.6580   42.0860 C   0  0  0  0  0  0  0  0  0  0  0  0
   21.1090  -26.5680   42.9580 C   0  0  0  0  0  0  0  0  0  0  0  0
   20.2410  -25.4890   42.7840 C   0  0  0  0  0  0  0  0  0  0  0  0
   19.3190  -25.5010   41.7400 C   0  0  0  0  0  0  0  0  0  0  0  0
   18.4980  -24.4120   41.6270 O   0  0  0  0  0  0  0  0  0  0  0  0
   19.2640  -26.5930   40.8680 C   0  0  0  0  0  0  0  0  0  0  0  0
   18.3110  -26.6450   39.7590 C   0  0  0  0  0  0  0  0  0  0  0  0
   17.5190  -25.7320   39.5350 O   0  0  0  0  0  0  0  0  0  0  0  0
   18.3300  -27.8500   38.8980 C   0  0  0  0  0  0  0  0  0  0  0  0
   17.4350  -27.8870   37.8440 O   0  0  0  0  0  0  0  0  0  0  0  0
   19.0760  -31.3250   38.9300 C   0  0  0  0  0  0  0  0  0  0  0  0
   19.2050  -32.5110   38.1740 C   0  0  0  0  0  0  0  0  0  0  0  0
   18.8930  -33.8360   38.8370 C   0  0  0  0  0  0  0  0  0  0  0  0
   19.9310  -34.7220   38.8040 F   0  0  0  0  0  0  0  0  0  0  0  0
   17.8450  -34.4860   38.2580 F   0  0  0  0  0  0  0  0  0  0  0  0
   18.5700  -33.7000   40.1530 F   0  0  0  0  0  0  0  0  0  0  0  0
   19.9748  -32.1767   34.3625 H   0  0  0  0  0  0  0  0  0  0  0  0
   20.6599  -33.7922   33.9787 H   0  0  0  0  0  0  0  0  0  0  0  0
   18.8802  -33.5483   33.9787 H   0  0  0  0  0  0  0  0  0  0  0  0
   18.9292  -34.3177   36.1016 H   0  0  0  0  0  0  0  0  0  0  0  0
   20.7304  -34.1117   36.1997 H   0  0  0  0  0  0  0  0  0  0  0  0
   20.1946  -31.0775   35.2249 H   0  0  0  0  0  0  0  0  0  0  0  0
   19.9622  -29.0157   36.5892 H   0  0  0  0  0  0  0  0  0  0  0  0
   21.7406  -28.5073   42.2228 H   0  0  0  0  0  0  0  0  0  0  0  0
   21.8366  -26.5601   43.7829 H   0  0  0  0  0  0  0  0  0  0  0  0
   20.2849  -24.6305   43.4703 H   0  0  0  0  0  0  0  0  0  0  0  0
   17.7900  -24.4200   41.0150 H   0  0  0  0  0  0  0  0  0  0  0  0
   16.5140  -27.8750   38.0120 H   0  0  0  0  0  0  0  0  0  0  0  0
   18.7667  -31.3938   39.9834 H   0  0  0  0  0  0  0  0  0  0  0  0
  1  2  1  0
  2  3  1  0
  3  4  2  0
  4  5  1  0
  5  6  2  0
  6  7  1  0
  7  8  1  0
  8  9  1  0
  9 10  2  0
 10 11  1  0
 11 12  2  0
 12 13  1  0
 13 14  1  0
 13 15  2  0
 15 16  1  0
 16 17  2  0
 16 18  1  0
 18 19  1  0
  6 20  1  0
 20 21  2  0
 21 22  1  0
 22 23  1  0
 22 24  1  0
 22 25  1  0
 21  3  1  0
 18  7  2  0
 15  9  1  0
  1 26  1  0
  1 27  1  0
  1 28  1  0
  2 29  1  0
  2 30  1  0
  4 31  1  0
  5 32  1  0
 10 33  1  0
 11 34  1  0
 12 35  1  0
 14 36  1  0
 19 37  1  0
 20 38  1  0
M  END
>  <meeko>  (1) 
{"is_sidechain": [false], "free_energy": -8.397, "intermolecular_energy": -10.36, "internal_energy": -0.52}

$$$$
cand_050_out
     RDKit          3D

 38 40  0  0  0  0  0  0  0  0999 V2000
   19.1900  -34.5750   36.0810 C   0  0  0  0  0  0  0  0  0  0  0  0
   19.7930  -33.3530   35.4030 C   0  0  0  0  0  0  0  0  0  0  0  0
   19.6950  -32.1170   36.2720 C   0  0  0  0  0  0  0  0  0  0  0  0
   19.2590  -32.2720   37.5990 C   0  0  0  0  0  0  0  0  0  0  0  0
   19.1380  -31.1710   38.4500 C   0  0  0  0  0  0  0  0  0  0  0  0
   19.4530  -29.8840   38.0030 C   0  0  0  0  0  0  0  0  0  0  0  0
   19.3010  -28.7300   38.9140 C   0  0  0  0  0  0  0  0  0  0  0  0
   20.2170  -28.7410   39.9600 O   0  0  0  0  0  0  0  0  0  0  0  0
   20.1840  -27.7250   40.8800 C   0  0  0  0  0  0  0  0  0  0  0  0
   21.1100  -27.7830   41.9220 C   0  0  0  0  0  0  0  0  0  0  0  0
   21.1320  -26.7780   42.8920 C   0  0  0  0  0  0  0  0  0  0  0  0
   20.2290  -25.7160   42.8190 C   0  0  0  0  0  0  0  0  0  0  0  0
   19.3060  -25.6600   41.7790 C   0  0  0  0  0  0  0  0  0  0  0  0
   18.4500  -24.5920   41.7690 O   0  0  0  0  0  0  0  0  0  0  0  0
   19.2830  -26.6660   40.8090 C   0  0  0  0  0  0  0  0  0  0  0  0
   18.3290  -26.6450   39.7000 C   0  0  0  0  0  0  0  0  0  0  0  0
   17.5070  -25.7410   39.5630 O   0  0  0  0  0  0  0  0  0  0  0  0
   18.3830  -27.7630   38.7300 C   0  0  0  0  0  0  0  0  0  0  0  0
   17.4870  -27.7300   37.6770 O   0  0  0  0  0  0  0  0  0  0  0  0
   19.8730  -29.7260   36.6740 C   0  0  0  0  0  0  0  0  0  0  0  0
   20.0000  -30.8240   35.7960 C   0  0  0  0  0  0  0  0  0  0  0  0
   20.4770  -30.5750   34.3810 C   0  0  0  0  0  0  0  0  0  0  0  0
   19.5800  -30.9560   33.4260 F   0  0  0  0  0  0  0  0  0  0  0  0
   21.6260  -31.2450   34.0820 F   0  0  0  0  0  0  0  0  0  0  0  0
   20.7340  -29.2600   34.1380 F   0  0  0  0  0  0  0  0  0  0  0  0
   19.2492  -34.4551   37.1728 H   0  0  0  0  0  0  0  0  0  0  0  0
   18.1371  -34.6791   35.7801 H   0  0  0  0  0  0  0  0  0  0  0  0
   19.7479  -35.4740   35.7801 H   0  0  0  0  0  0  0  0  0  0  0  0
   20.8531  -33.5529   35.1879 H   0  0  0  0  0  0  0  0  0  0  0  0
   19.2285  -33.1640   34.4780 H   0  0  0  0  0  0  0  0  0  0  0  0
   19.0092  -33.2758   37.9732 H   0  0  0  0  0  0  0  0  0  0  0  0
   18.7910  -31.3180   39.4834 H   0  0  0  0  0  0  0  0  0  0  0  0
   21.8221  -28.6194   41.9797 H   0  0  0  0  0  0  0  0  0  0  0  0
   21.8615  -26.8235   43.7140 H   0  0  0  0  0  0  0  0  0  0  0  0
   20.2470  -24.9244   43.5826 H   0  0  0  0  0  0  0  0  0  0  0  0
   18.0340  -24.3330   40.9710 H   0  0  0  0  0  0  0  0  0  0  0  0
   17.7030  -27.2640   36.8930 H   0  0  0  0  0  0  0  0  0  0  0  0
   20.1103  -28.7172   36.3053 H   0  0  0  0  0  0  0  0  0  0  0  0
  1  2  1  0
  2  3  1  0
  3  4  2  0
  4  5  1  0
  5  6  2  0
  6  7  1  0
  7  8  1  0
  8  9  1  0
  9 10  2  0
 10 11  1  0
 11 12  2  0
 12 13  1  0
 13 14  1  0
 13 15  2  0
 15 16  1  0
 16 17  2  0
 16 18  1  0
 18 19  1  0
  6 20  1  0
 20 21  2  0
 21 22  1  0
 22 23  1  0
 22 24  1  0
 22 25  1  0
 21  3  1  0
 18  7  2  0
 15  9  1  0
  1 26  1  0
  1 27  1  0
  1 28  1  0
  2 29  1  0
  2 30  1  0
  4 31  1  0
  5 32  1  0
 10 33  1  0
 11 34  1  0
 12 35  1  0
 14 36  1  0
 19 37  1  0
 20 38  1  0
M  END
>  <meeko>  (2) 
{"is_sidechain": [false], "free_energy": -8.145, "intermolecular_energy": -10.023, "internal_energy": -0.546}

$$$$
cand_050_out
     RDKit          3D

 38 40  0  0  0  0  0  0  0  0999 V2000
   19.6810  -24.1910   40.0380 C   0  0  0  0  0  0  0  0  0  0  0  0
   19.0250  -25.2810   40.8740 C   0  0  0  0  0  0  0  0  0  0  0  0
   19.1570  -26.6450   40.2310 C   0  0  0  0  0  0  0  0  0  0  0  0
   18.1920  -27.0270   39.2830 C   0  0  0  0  0  0  0  0  0  0  0  0
   18.2510  -28.2760   38.6610 C   0  0  0  0  0  0  0  0  0  0  0  0
   19.2750  -29.1780   38.9630 C   0  0  0  0  0  0  0  0  0  0  0  0
   19.3080  -30.5020   38.3060 C   0  0  0  0  0  0  0  0  0  0  0  0
   18.9030  -31.5330   39.1450 O   0  0  0  0  0  0  0  0  0  0  0  0
   18.8880  -32.8150   38.6580 C   0  0  0  0  0  0  0  0  0  0  0  0
   18.4890  -33.8220   39.5390 C   0  0  0  0  0  0  0  0  0  0  0  0
   18.4490  -35.1500   39.1070 C   0  0  0  0  0  0  0  0  0  0  0  0
   18.8060  -35.4700   37.7950 C   0  0  0  0  0  0  0  0  0  0  0  0
   19.2030  -34.4640   36.9190 C   0  0  0  0  0  0  0  0  0  0  0  0
   19.5400  -34.8480   35.6490 O   0  0  0  0  0  0  0  0  0  0  0  0
   19.2450  -33.1350   37.3520 C   0  0  0  0  0  0  0  0  0  0  0  0
   19.6570  -32.0480   36.4630 C   0  0  0  0  0  0  0  0  0  0  0  0
   19.9790  -32.2480   35.2940 O   0  0  0  0  0  0  0  0  0  0  0  0
   19.6730  -30.6770   37.0220 C   0  0  0  0  0  0  0  0  0  0  0  0
   20.0510  -29.6530   36.1730 O   0  0  0  0  0  0  0  0  0  0  0  0
   20.2290  -28.8040   39.9200 C   0  0  0  0  0  0  0  0  0  0  0  0
   20.1890  -27.5490   40.5640 C   0  0  0  0  0  0  0  0  0  0  0  0
   21.2650  -27.2100   41.5730 C   0  0  0  0  0  0  0  0  0  0  0  0
   20.7770  -26.7160   42.7480 F   0  0  0  0  0  0  0  0  0  0  0  0
   22.1390  -26.2680   41.1210 F   0  0  0  0  0  0  0  0  0  0  0  0
   22.0200  -28.2910   41.9150 F   0  0  0  0  0  0  0  0  0  0  0  0
   20.1327  -23.4405   40.7033 H   0  0  0  0  0  0  0  0  0  0  0  0
   20.4617  -24.6356   39.4033 H   0  0  0  0  0  0  0  0  0  0  0  0
   18.9226  -23.7093   39.4033 H   0  0  0  0  0  0  0  0  0  0  0  0
   19.5047  -25.3069   41.8635 H   0  0  0  0  0  0  0  0  0  0  0  0
   17.9535  -25.0468   40.9575 H   0  0  0  0  0  0  0  0  0  0  0  0
   17.3785  -26.3321   39.0273 H   0  0  0  0  0  0  0  0  0  0  0  0
   17.4823  -28.5532   37.9246 H   0  0  0  0  0  0  0  0  0  0  0  0
   18.2065  -33.5701   40.5718 H   0  0  0  0  0  0  0  0  0  0  0  0
   18.1361  -35.9443   39.8006 H   0  0  0  0  0  0  0  0  0  0  0  0
   18.7734  -36.5155   37.4547 H   0  0  0  0  0  0  0  0  0  0  0  0
   19.5150  -35.7530   35.4120 H   0  0  0  0  0  0  0  0  0  0  0  0
   20.9570  -29.4340   36.0780 H   0  0  0  0  0  0  0  0  0  0  0  0
   21.0327  -29.5100   40.1765 H   0  0  0  0  0  0  0  0  0  0  0  0
  1  2  1  0
  2  3  1  0
  3  4  2  0
  4  5  1  0
  5  6  2  0
  6  7  1  0
  7  8  1  0
  8  9  1  0
  9 10  2  0
 10 11  1  0
 11 12  2  0
 12 13  1  0
 13 14  1  0
 13 15  2  0
 15 16  1  0
 16 17  2  0
 16 18  1  0
 18 19  1  0
  6 20  1  0
 20 21  2  0
 21 22  1  0
 22 23  1  0
 22 24  1  0
 22 25  1  0
 21  3  1  0
 18  7  2  0
 15  9  1  0
  1 26  1  0
  1 27  1  0
  1 28  1  0
  2 29  1  0
  2 30  1  0
  4 31  1  0
  5 32  1  0
 10 33  1  0
 11 34  1  0
 12 35  1  0
 14 36  1  0
 19 37  1  0
 20 38  1  0
M  END
>  <meeko>  (3) 
{"is_sidechain": [false], "free_energy": -8.053, "intermolecular_energy": -9.797, "internal_energy": -0.659}

$$$$
cand_050_out
     RDKit          3D

 38 40  0  0  0  0  0  0  0  0999 V2000
   19.4780  -24.6680   41.9370 C   0  0  0  0  0  0  0  0  0  0  0  0
   19.8680  -24.6580   40.4660 C   0  0  0  0  0  0  0  0  0  0  0  0
   19.7370  -26.0270   39.8350 C   0  0  0  0  0  0  0  0  0  0  0  0
   20.1550  -27.1430   40.5800 C   0  0  0  0  0  0  0  0  0  0  0  0
   20.0690  -28.4340   40.0520 C   0  0  0  0  0  0  0  0  0  0  0  0
   19.5610  -28.6480   38.7680 C   0  0  0  0  0  0  0  0  0  0  0  0
   19.4960  -30.0200   38.2210 C   0  0  0  0  0  0  0  0  0  0  0  0
   19.0960  -30.9610   39.1640 O   0  0  0  0  0  0  0  0  0  0  0  0
   18.9950  -32.2750   38.7860 C   0  0  0  0  0  0  0  0  0  0  0  0
   18.6050  -33.1870   39.7670 C   0  0  0  0  0  0  0  0  0  0  0  0
   18.4800  -34.5420   39.4480 C   0  0  0  0  0  0  0  0  0  0  0  0
   18.7440  -34.9820   38.1500 C   0  0  0  0  0  0  0  0  0  0  0  0
   19.1330  -34.0700   37.1730 C   0  0  0  0  0  0  0  0  0  0  0  0
   19.3770  -34.5700   35.9230 O   0  0  0  0  0  0  0  0  0  0  0  0
   19.2590  -32.7150   37.4920 C   0  0  0  0  0  0  0  0  0  0  0  0
   19.6650  -31.7240   36.4950 C   0  0  0  0  0  0  0  0  0  0  0  0
   19.9080  -32.0310   35.3300 O   0  0  0  0  0  0  0  0  0  0  0  0
   19.7760  -30.3150   36.9380 C   0  0  0  0  0  0  0  0  0  0  0  0
   20.1480  -29.3820   35.9870 O   0  0  0  0  0  0  0  0  0  0  0  0
   19.1590  -27.5340   38.0160 C   0  0  0  0  0  0  0  0  0  0  0  0
   19.2390  -26.2210   38.5290 C   0  0  0  0  0  0  0  0  0  0  0  0
   18.7680  -25.0710   37.6650 C   0  0  0  0  0  0  0  0  0  0  0  0
   18.4530  -25.4380   36.3890 F   0  0  0  0  0  0  0  0  0  0  0  0
   19.7020  -24.0870   37.5350 F   0  0  0  0  0  0  0  0  0  0  0  0
   17.6520  -24.4670   38.1590 F   0  0  0  0  0  0  0  0  0  0  0  0
   20.3861  -24.6447   42.5573 H   0  0  0  0  0  0  0  0  0  0  0  0
   18.8600  -23.7854   42.1585 H   0  0  0  0  0  0  0  0  0  0  0  0
   18.9060  -25.5811   42.1585 H   0  0  0  0  0  0  0  0  0  0  0  0
   19.2128  -23.9557   39.9298 H   0  0  0  0  0  0  0  0  0  0  0  0
   20.9221  -24.3515   40.3963 H   0  0  0  0  0  0  0  0  0  0  0  0
   20.5559  -26.9981   41.5940 H   0  0  0  0  0  0  0  0  0  0  0  0
   20.4049  -29.2913   40.6539 H   0  0  0  0  0  0  0  0  0  0  0  0
   18.3962  -32.8403   40.7898 H   0  0  0  0  0  0  0  0  0  0  0  0
   18.1733  -35.2624   40.2207 H   0  0  0  0  0  0  0  0  0  0  0  0
   18.6448  -36.0485   37.8993 H   0  0  0  0  0  0  0  0  0  0  0  0
   20.1440  -35.0820   35.7640 H   0  0  0  0  0  0  0  0  0  0  0  0
   19.7130  -29.3600   35.1580 H   0  0  0  0  0  0  0  0  0  0  0  0
   18.7707  -27.6877   36.9984 H   0  0  0  0  0  0  0  0  0  0  0  0
  1  2  1  0
  2  3  1  0
  3  4  2  0
  4  5  1  0
  5  6  2  0
  6  7  1  0
  7  8  1  0
  8  9  1  0
  9 10  2  0
 10 11  1  0
 11 12  2  0
 12 13  1  0
 13 14  1  0
 13 15  2  0
 15 16  1  0
 16 17  2  0
 16 18  1  0
 18 19  1  0
  6 20  1  0
 20 21  2  0
 21 22  1  0
 22 23  1  0
 22 24  1  0
 22 25  1  0
 21  3  1  0
 18  7  2  0
 15  9  1  0
  1 26  1  0
  1 27  1  0
  1 28  1  0
  2 29  1  0
  2 30  1  0
  4 31  1  0
  5 32  1  0
 10 33  1  0
 11 34  1  0
 12 35  1  0
 14 36  1  0
 19 37  1  0
 20 38  1  0
M  END
>  <meeko>  (4) 
{"is_sidechain": [false], "free_energy": -7.552, "intermolecular_energy": -9.601, "internal_energy": -0.236}

$$$$
cand_050_out
     RDKit          3D

 38 40  0  0  0  0  0  0  0  0999 V2000
   18.2350  -35.4700   39.7200 C   0  0  0  0  0  0  0  0  0  0  0  0
   18.8230  -35.0430   38.3830 C   0  0  0  0  0  0  0  0  0  0  0  0
   19.0130  -33.5440   38.2990 C   0  0  0  0  0  0  0  0  0  0  0  0
   18.7980  -32.7820   39.4610 C   0  0  0  0  0  0  0  0  0  0  0  0
   18.9470  -31.3940   39.4490 C   0  0  0  0  0  0  0  0  0  0  0  0
   19.3190  -30.7250   38.2790 C   0  0  0  0  0  0  0  0  0  0  0  0
   19.4540  -29.2530   38.2830 C   0  0  0  0  0  0  0  0  0  0  0  0
   19.3690  -28.7050   39.5580 O   0  0  0  0  0  0  0  0  0  0  0  0
   19.4770  -27.3450   39.7030 C   0  0  0  0  0  0  0  0  0  0  0  0
   19.3710  -26.8360   40.9980 C   0  0  0  0  0  0  0  0  0  0  0  0
   19.4750  -25.4600   41.2170 C   0  0  0  0  0  0  0  0  0  0  0  0
   19.6870  -24.5960   40.1410 C   0  0  0  0  0  0  0  0  0  0  0  0
   19.7920  -25.1060   38.8500 C   0  0  0  0  0  0  0  0  0  0  0  0
   19.9980  -24.2020   37.8440 O   0  0  0  0  0  0  0  0  0  0  0  0
   19.6870  -26.4830   38.6320 C   0  0  0  0  0  0  0  0  0  0  0  0
   19.7920  -27.0600   37.2910 C   0  0  0  0  0  0  0  0  0  0  0  0
   19.9840  -26.3660   36.2950 O   0  0  0  0  0  0  0  0  0  0  0  0
   19.6590  -28.5290   37.1670 C   0  0  0  0  0  0  0  0  0  0  0  0
   19.7720  -29.0690   35.8990 O   0  0  0  0  0  0  0  0  0  0  0  0
   19.5180  -31.4810   37.1150 C   0  0  0  0  0  0  0  0  0  0  0  0
   19.3710  -32.8850   37.1030 C   0  0  0  0  0  0  0  0  0  0  0  0
   19.6200  -33.6340   35.8120 C   0  0  0  0  0  0  0  0  0  0  0  0
   18.4840  -34.1170   35.2300 F   0  0  0  0  0  0  0  0  0  0  0  0
   20.4290  -34.7190   35.9750 F   0  0  0  0  0  0  0  0  0  0  0  0
   20.2170  -32.8600   34.8640 F   0  0  0  0  0  0  0  0  0  0  0  0
   18.8306  -35.0375   40.5374 H   0  0  0  0  0  0  0  0  0  0  0  0
   17.1969  -35.1139   39.7945 H   0  0  0  0  0  0  0  0  0  0  0  0
   18.2524  -36.5673   39.7945 H   0  0  0  0  0  0  0  0  0  0  0  0
   19.7994  -35.5324   38.2521 H   0  0  0  0  0  0  0  0  0  0  0  0
   18.1189  -35.3407   37.5920 H   0  0  0  0  0  0  0  0  0  0  0  0
   18.5079  -33.2874   40.3940 H   0  0  0  0  0  0  0  0  0  0  0  0
   18.7697  -30.8201   40.3705 H   0  0  0  0  0  0  0  0  0  0  0  0
   19.2057  -27.5174   41.8456 H   0  0  0  0  0  0  0  0  0  0  0  0
   19.3899  -25.0574   42.2371 H   0  0  0  0  0  0  0  0  0  0  0  0
   19.7710  -23.5128   40.3133 H   0  0  0  0  0  0  0  0  0  0  0  0
   20.8600  -24.0700   37.5020 H   0  0  0  0  0  0  0  0  0  0  0  0
   20.3170  -28.6530   35.2600 H   0  0  0  0  0  0  0  0  0  0  0  0
   19.7967  -30.9652   36.1843 H   0  0  0  0  0  0  0  0  0  0  0  0
  1  2  1  0
  2  3  1  0
  3  4  2  0
  4  5  1  0
  5  6  2  0
  6  7  1  0
  7  8  1  0
  8  9  1  0
  9 10  2  0
 10 11  1  0
 11 12  2  0
 12 13  1  0
 13 14  1  0
 13 15  2  0
 15 16  1  0
 16 17  2  0
 16 18  1  0
 18 19  1  0
  6 20  1  0
 20 21  2  0
 21 22  1  0
 22 23  1  0
 22 24  1  0
 22 25  1  0
 21  3  1  0
 18  7  2  0
 15  9  1  0
  1 26  1  0
  1 27  1  0
  1 28  1  0
  2 29  1  0
  2 30  1  0
  4 31  1  0
  5 32  1  0
 10 33  1  0
 11 34  1  0
 12 35  1  0
 14 36  1  0
 19 37  1  0
 20 38  1  0
M  END
>  <meeko>  (5) 
{"is_sidechain": [false], "free_energy": -7.188, "intermolecular_energy": -9.458, "internal_energy": 0.07}

$$$$
cand_050_out
     RDKit          3D

 38 40  0  0  0  0  0  0  0  0999 V2000
   19.5820  -26.8530   41.8790 C   0  0  0  0  0  0  0  0  0  0  0  0
   18.8370  -26.4030   40.6310 C   0  0  0  0  0  0  0  0  0  0  0  0
   19.0800  -27.3300   39.4590 C   0  0  0  0  0  0  0  0  0  0  0  0
   19.3280  -28.6870   39.7280 C   0  0  0  0  0  0  0  0  0  0  0  0
   19.5690  -29.5930   38.6920 C   0  0  0  0  0  0  0  0  0  0  0  0
   19.5660  -29.1720   37.3590 C   0  0  0  0  0  0  0  0  0  0  0  0
   19.8420  -30.1440   36.2800 C   0  0  0  0  0  0  0  0  0  0  0  0
   19.5030  -31.4470   36.6250 O   0  0  0  0  0  0  0  0  0  0  0  0
   19.7090  -32.4490   35.7110 C   0  0  0  0  0  0  0  0  0  0  0  0
   19.3690  -33.7440   36.1030 C   0  0  0  0  0  0  0  0  0  0  0  0
   19.5510  -34.8110   35.2200 C   0  0  0  0  0  0  0  0  0  0  0  0
   20.0720  -34.5810   33.9450 C   0  0  0  0  0  0  0  0  0  0  0  0
   20.4110  -33.2880   33.5560 C   0  0  0  0  0  0  0  0  0  0  0  0
   20.9170  -33.1350   32.2930 O   0  0  0  0  0  0  0  0  0  0  0  0
   20.2290  -32.2210   34.4400 C   0  0  0  0  0  0  0  0  0  0  0  0
   20.5720  -30.8480   34.0710 C   0  0  0  0  0  0  0  0  0  0  0  0
   21.0290  -30.5640   32.9660 O   0  0  0  0  0  0  0  0  0  0  0  0
   20.3490  -29.7910   35.0840 C   0  0  0  0  0  0  0  0  0  0  0  0
   20.6630  -28.4930   34.7230 O   0  0  0  0  0  0  0  0  0  0  0  0
   19.3360  -27.8150   37.0900 C   0  0  0  0  0  0  0  0  0  0  0  0
   19.0920  -26.8820   38.1210 C   0  0  0  0  0  0  0  0  0  0  0  0
   18.8330  -25.4370   37.7500 C   0  0  0  0  0  0  0  0  0  0  0  0
   19.7720  -24.5710   38.2320 F   0  0  0  0  0  0  0  0  0  0  0  0
   17.6410  -24.9730   38.2210 F   0  0  0  0  0  0  0  0  0  0  0  0
   18.8090  -25.2380   36.4030 F   0  0  0  0  0  0  0  0  0  0  0  0
   19.0334  -26.5216   42.7730 H   0  0  0  0  0  0  0  0  0  0  0  0
   19.6612  -27.9501   41.8831 H   0  0  0  0  0  0  0  0  0  0  0  0
   20.5900  -26.4126   41.8831 H   0  0  0  0  0  0  0  0  0  0  0  0
   17.7591  -26.3819   40.8493 H   0  0  0  0  0  0  0  0  0  0  0  0
   19.2075  -25.4044   40.3562 H   0  0  0  0  0  0  0  0  0  0  0  0
   19.3324  -29.0410   40.7695 H   0  0  0  0  0  0  0  0  0  0  0  0
   19.7633  -30.6497   38.9280 H   0  0  0  0  0  0  0  0  0  0  0  0
   18.9577  -33.9248   37.1071 H   0  0  0  0  0  0  0  0  0  0  0  0
   19.2839  -35.8324   35.5290 H   0  0  0  0  0  0  0  0  0  0  0  0
   20.2144  -35.4206   33.2487 H   0  0  0  0  0  0  0  0  0  0  0  0
   21.7280  -33.5410   32.0610 H   0  0  0  0  0  0  0  0  0  0  0  0
   19.9940  -27.8380   34.7020 H   0  0  0  0  0  0  0  0  0  0  0  0
   19.3460  -27.4678   36.0463 H   0  0  0  0  0  0  0  0  0  0  0  0
  1  2  1  0
  2  3  1  0
  3  4  2  0
  4  5  1  0
  5  6  2  0
  6  7  1  0
  7  8  1  0
  8  9  1  0
  9 10  2  0
 10 11  1  0
 11 12  2  0
 12 13  1  0
 13 14  1  0
 13 15  2  0
 15 16  1  0
 16 17  2  0
 16 18  1  0
 18 19  1  0
  6 20  1  0
 20 21  2  0
 21 22  1  0
 22 23  1  0
 22 24  1  0
 22 25  1  0
 21  3  1  0
 18  7  2  0
 15  9  1  0
  1 26  1  0
  1 27  1  0
  1 28  1  0
  2 29  1  0
  2 30  1  0
  4 31  1  0
  5 32  1  0
 10 33  1  0
 11 34  1  0
 12 35  1  0
 14 36  1  0
 19 37  1  0
 20 38  1  0
M  END
>  <meeko>  (6) 
{"is_sidechain": [false], "free_energy": -7.156, "intermolecular_energy": -9.244, "internal_energy": -0.105}

$$$$
cand_050_out
     RDKit          3D

 38 40  0  0  0  0  0  0  0  0999 V2000
   19.5740  -24.3310   40.2480 C   0  0  0  0  0  0  0  0  0  0  0  0
   19.0030  -25.5190   41.0090 C   0  0  0  0  0  0  0  0  0  0  0  0
   19.1530  -26.8120   40.2360 C   0  0  0  0  0  0  0  0  0  0  0  0
   18.1720  -27.1300   39.2810 C   0  0  0  0  0  0  0  0  0  0  0  0
   18.2460  -28.3120   38.5400 C   0  0  0  0  0  0  0  0  0  0  0  0
   19.3030  -29.2080   38.7280 C   0  0  0  0  0  0  0  0  0  0  0  0
   19.3530  -30.4620   37.9470 C   0  0  0  0  0  0  0  0  0  0  0  0
   19.8680  -30.2840   36.6670 O   0  0  0  0  0  0  0  0  0  0  0  0
   19.9680  -31.3700   35.8370 C   0  0  0  0  0  0  0  0  0  0  0  0
   20.4770  -31.1430   34.5570 C   0  0  0  0  0  0  0  0  0  0  0  0
   20.6080  -32.2070   33.6610 C   0  0  0  0  0  0  0  0  0  0  0  0
   20.2320  -33.4950   34.0450 C   0  0  0  0  0  0  0  0  0  0  0  0
   19.7250  -33.7190   35.3220 C   0  0  0  0  0  0  0  0  0  0  0  0
   19.3760  -35.0050   35.6320 O   0  0  0  0  0  0  0  0  0  0  0  0
   19.5930  -32.6540   36.2180 C   0  0  0  0  0  0  0  0  0  0  0  0
   19.0650  -32.8460   37.5690 C   0  0  0  0  0  0  0  0  0  0  0  0
   18.7190  -33.9500   37.9840 O   0  0  0  0  0  0  0  0  0  0  0  0
   18.9580  -31.6520   38.4380 C   0  0  0  0  0  0  0  0  0  0  0  0
   18.4710  -31.8430   39.7180 O   0  0  0  0  0  0  0  0  0  0  0  0
   20.2740  -28.9000   39.6920 C   0  0  0  0  0  0  0  0  0  0  0  0
   20.2170  -27.7130   40.4530 C   0  0  0  0  0  0  0  0  0  0  0  0
   21.3120  -27.4400   41.4620 C   0  0  0  0  0  0  0  0  0  0  0  0
   22.1580  -28.4950   41.6500 F   0  0  0  0  0  0  0  0  0  0  0  0
   20.8300  -27.1400   42.7020 F   0  0  0  0  0  0  0  0  0  0  0  0
   22.1060  -26.3930   41.1040 F   0  0  0  0  0  0  0  0  0  0  0  0
   19.9362  -23.5774   40.9628 H   0  0  0  0  0  0  0  0  0  0  0  0
   20.4087  -24.6676   39.6156 H   0  0  0  0  0  0  0  0  0  0  0  0
   18.7897  -23.8894   39.6156 H   0  0  0  0  0  0  0  0  0  0  0  0
   19.5334  -25.6148   41.9679 H   0  0  0  0  0  0  0  0  0  0  0  0
   17.9291  -25.3386   41.1649 H   0  0  0  0  0  0  0  0  0  0  0  0
   17.3334  -26.4378   39.1146 H   0  0  0  0  0  0  0  0  0  0  0  0
   17.4643  -28.5404   37.8006 H   0  0  0  0  0  0  0  0  0  0  0  0
   20.7744  -30.1281   34.2544 H   0  0  0  0  0  0  0  0  0  0  0  0
   21.0079  -32.0293   32.6518 H   0  0  0  0  0  0  0  0  0  0  0  0
   20.3362  -34.3323   33.3393 H   0  0  0  0  0  0  0  0  0  0  0  0
   19.1910  -35.2400   36.5190 H   0  0  0  0  0  0  0  0  0  0  0  0
   18.6410  -31.2060   40.3830 H   0  0  0  0  0  0  0  0  0  0  0  0
   21.1031  -29.6033   39.8595 H   0  0  0  0  0  0  0  0  0  0  0  0
  1  2  1  0
  2  3  1  0
  3  4  2  0
  4  5  1  0
  5  6  2  0
  6  7  1  0
  7  8  1  0
  8  9  1  0
  9 10  2  0
 10 11  1  0
 11 12  2  0
 12 13  1  0
 13 14  1  0
 13 15  2  0
 15 16  1  0
 16 17  2  0
 16 18  1  0
 18 19  1  0
  6 20  1  0
 20 21  2  0
 21 22  1  0
 22 23  1  0
 22 24  1  0
 22 25  1  0
 21  3  1  0
 18  7  2  0
 15  9  1  0
  1 26  1  0
  1 27  1  0
  1 28  1  0
  2 29  1  0
  2 30  1  0
  4 31  1  0
  5 32  1  0
 10 33  1  0
 11 34  1  0
 12 35  1  0
 14 36  1  0
 19 37  1  0
 20 38  1  0
M  END
>  <meeko>  (7) 
{"is_sidechain": [false], "free_energy": -7.139, "intermolecular_energy": -8.628, "internal_energy": -0.7}

$$$$
cand_050_out
     RDKit          3D

 38 40  0  0  0  0  0  0  0  0999 V2000
   18.4440  -27.5250   35.4060 C   0  0  0  0  0  0  0  0  0  0  0  0
   17.6900  -27.1110   36.6620 C   0  0  0  0  0  0  0  0  0  0  0  0
   18.5900  -27.0800   37.8780 C   0  0  0  0  0  0  0  0  0  0  0  0
   18.8760  -28.2950   38.5240 C   0  0  0  0  0  0  0  0  0  0  0  0
   19.6920  -28.3340   39.6570 C   0  0  0  0  0  0  0  0  0  0  0  0
   20.2500  -27.1630   40.1760 C   0  0  0  0  0  0  0  0  0  0  0  0
   21.0960  -27.2240   41.3870 C   0  0  0  0  0  0  0  0  0  0  0  0
   22.0790  -28.2050   41.3120 O   0  0  0  0  0  0  0  0  0  0  0  0
   22.9330  -28.3680   42.3720 C   0  0  0  0  0  0  0  0  0  0  0  0
   23.8940  -29.3740   42.2620 C   0  0  0  0  0  0  0  0  0  0  0  0
   24.7980  -29.5910   43.3050 C   0  0  0  0  0  0  0  0  0  0  0  0
   24.7410  -28.8030   44.4550 C   0  0  0  0  0  0  0  0  0  0  0  0
   23.7810  -27.8000   44.5630 C   0  0  0  0  0  0  0  0  0  0  0  0
   23.7820  -27.0660   45.7180 O   0  0  0  0  0  0  0  0  0  0  0  0
   22.8760  -27.5830   43.5200 C   0  0  0  0  0  0  0  0  0  0  0  0
   21.8530  -26.5400   43.5930 C   0  0  0  0  0  0  0  0  0  0  0  0
   21.7430  -25.8010   44.5690 O   0  0  0  0  0  0  0  0  0  0  0  0
   20.9380  -26.3970   42.4370 C   0  0  0  0  0  0  0  0  0  0  0  0
   19.9820  -25.4010   42.5080 O   0  0  0  0  0  0  0  0  0  0  0  0
   19.9530  -25.9470   39.5430 C   0  0  0  0  0  0  0  0  0  0  0  0
   19.1290  -25.8840   38.3990 C   0  0  0  0  0  0  0  0  0  0  0  0
   18.8700  -24.5360   37.7600 C   0  0  0  0  0  0  0  0  0  0  0  0
   19.0110  -24.5370   36.4030 F   0  0  0  0  0  0  0  0  0  0  0  0
   19.7120  -23.5640   38.2090 F   0  0  0  0  0  0  0  0  0  0  0  0
   17.6080  -24.0790   37.9960 F   0  0  0  0  0  0  0  0  0  0  0  0
   19.3756  -28.0365   35.6895 H   0  0  0  0  0  0  0  0  0  0  0  0
   17.8183  -28.2061   34.8105 H   0  0  0  0  0  0  0  0  0  0  0  0
   18.6829  -26.6315   34.8105 H   0  0  0  0  0  0  0  0  0  0  0  0
   17.2666  -26.1076   36.5077 H   0  0  0  0  0  0  0  0  0  0  0  0
   16.8983  -27.8528   36.8436 H   0  0  0  0  0  0  0  0  0  0  0  0
   18.4504  -29.2301   38.1311 H   0  0  0  0  0  0  0  0  0  0  0  0
   19.8976  -29.2976   40.1462 H   0  0  0  0  0  0  0  0  0  0  0  0
   23.9397  -29.9952   41.3554 H   0  0  0  0  0  0  0  0  0  0  0  0
   25.5555  -30.3840   43.2194 H   0  0  0  0  0  0  0  0  0  0  0  0
   25.4536  -28.9738   45.2754 H   0  0  0  0  0  0  0  0  0  0  0  0
   24.2220  -26.2400   45.7480 H   0  0  0  0  0  0  0  0  0  0  0  0
   19.9140  -24.7680   41.8200 H   0  0  0  0  0  0  0  0  0  0  0  0
   20.3744  -25.0159   39.9499 H   0  0  0  0  0  0  0  0  0  0  0  0
  1  2  1  0
  2  3  1  0
  3  4  2  0
  4  5  1  0
  5  6  2  0
  6  7  1  0
  7  8  1  0
  8  9  1  0
  9 10  2  0
 10 11  1  0
 11 12  2  0
 12 13  1  0
 13 14  1  0
 13 15  2  0
 15 16  1  0
 16 17  2  0
 16 18  1  0
 18 19  1  0
  6 20  1  0
 20 21  2  0
 21 22  1  0
 22 23  1  0
 22 24  1  0
 22 25  1  0
 21  3  1  0
 18  7  2  0
 15  9  1  0
  1 26  1  0
  1 27  1  0
  1 28  1  0
  2 29  1  0
  2 30  1  0
  4 31  1  0
  5 32  1  0
 10 33  1  0
 11 34  1  0
 12 35  1  0
 14 36  1  0
 19 37  1  0
 20 38  1  0
M  END
>  <meeko>  (8) 
{"is_sidechain": [false], "free_energy": -7.133, "intermolecular_energy": -9.008, "internal_energy": -0.313}

$$$$
cand_050_out
     RDKit          3D

 38 40  0  0  0  0  0  0  0  0999 V2000
   22.1560  -25.2240   45.8530 C   0  0  0  0  0  0  0  0  0  0  0  0
   22.4190  -26.5880   45.2310 C   0  0  0  0  0  0  0  0  0  0  0  0
   21.8580  -26.6900   43.8290 C   0  0  0  0  0  0  0  0  0  0  0  0
   20.6940  -25.9630   43.5260 C   0  0  0  0  0  0  0  0  0  0  0  0
   20.1200  -26.0210   42.2540 C   0  0  0  0  0  0  0  0  0  0  0  0
   20.6940  -26.8020   41.2460 C   0  0  0  0  0  0  0  0  0  0  0  0
   20.0600  -26.8630   39.9120 C   0  0  0  0  0  0  0  0  0  0  0  0
   19.8420  -25.6070   39.3570 O   0  0  0  0  0  0  0  0  0  0  0  0
   19.2580  -25.5220   38.1190 C   0  0  0  0  0  0  0  0  0  0  0  0
   19.0440  -24.2420   37.6070 C   0  0  0  0  0  0  0  0  0  0  0  0
   18.4560  -24.0840   36.3490 C   0  0  0  0  0  0  0  0  0  0  0  0
   18.0840  -25.2060   35.6060 C   0  0  0  0  0  0  0  0  0  0  0  0
   18.2980  -26.4820   36.1200 C   0  0  0  0  0  0  0  0  0  0  0  0
   17.9090  -27.5360   35.3380 O   0  0  0  0  0  0  0  0  0  0  0  0
   18.8860  -26.6400   37.3780 C   0  0  0  0  0  0  0  0  0  0  0  0
   19.1290  -27.9620   37.9540 C   0  0  0  0  0  0  0  0  0  0  0  0
   18.8360  -28.9970   37.3590 O   0  0  0  0  0  0  0  0  0  0  0  0
   19.7500  -28.0200   39.2970 C   0  0  0  0  0  0  0  0  0  0  0  0
   19.9880  -29.2730   39.8300 O   0  0  0  0  0  0  0  0  0  0  0  0
   21.8460  -27.5410   41.5520 C   0  0  0  0  0  0  0  0  0  0  0  0
   22.4420  -27.4990   42.8310 C   0  0  0  0  0  0  0  0  0  0  0  0
   23.6950  -28.3100   43.0780 C   0  0  0  0  0  0  0  0  0  0  0  0
   24.7720  -27.5560   43.4440 F   0  0  0  0  0  0  0  0  0  0  0  0
   24.1020  -29.0090   41.9810 F   0  0  0  0  0  0  0  0  0  0  0  0
   23.5380  -29.2290   44.0720 F   0  0  0  0  0  0  0  0  0  0  0  0
   22.1729  -25.3116   46.9494 H   0  0  0  0  0  0  0  0  0  0  0  0
   22.9344  -24.5173   45.5296 H   0  0  0  0  0  0  0  0  0  0  0  0
   21.1706  -24.8574   45.5296 H   0  0  0  0  0  0  0  0  0  0  0  0
   23.5053  -26.7569   45.1919 H   0  0  0  0  0  0  0  0  0  0  0  0
   21.9202  -27.3464   45.8523 H   0  0  0  0  0  0  0  0  0  0  0  0
   20.2279  -25.3387   44.3025 H   0  0  0  0  0  0  0  0  0  0  0  0
   19.2063  -25.4460   42.0428 H   0  0  0  0  0  0  0  0  0  0  0  0
   19.3377  -23.3584   38.1926 H   0  0  0  0  0  0  0  0  0  0  0  0
   18.2862  -23.0754   35.9441 H   0  0  0  0  0  0  0  0  0  0  0  0
   17.6222  -25.0819   34.6154 H   0  0  0  0  0  0  0  0  0  0  0  0
   18.5150  -27.9250   34.7410 H   0  0  0  0  0  0  0  0  0  0  0  0
   20.8620  -29.6110   39.8590 H   0  0  0  0  0  0  0  0  0  0  0  0
   22.2984  -28.1718   40.7726 H   0  0  0  0  0  0  0  0  0  0  0  0
  1  2  1  0
  2  3  1  0
  3  4  2  0
  4  5  1  0
  5  6  2  0
  6  7  1  0
  7  8  1  0
  8  9  1  0
  9 10  2  0
 10 11  1  0
 11 12  2  0
 12 13  1  0
 13 14  1  0
 13 15  2  0
 15 16  1  0
 16 17  2  0
 16 18  1  0
 18 19  1  0
  6 20  1  0
 20 21  2  0
 21 22  1  0
 22 23  1  0
 22 24  1  0
 22 25  1  0
 21  3  1  0
 18  7  2  0
 15  9  1  0
  1 26  1  0
  1 27  1  0
  1 28  1  0
  2 29  1  0
  2 30  1  0
  4 31  1  0
  5 32  1  0
 10 33  1  0
 11 34  1  0
 12 35  1  0
 14 36  1  0
 19 37  1  0
 20 38  1  0
M  END
>  <meeko>  (9) 
{"is_sidechain": [false], "free_energy": -6.785, "intermolecular_energy": -8.488, "internal_energy": -0.403}

$$$$
