cand_052_out
     RDKit          3D

 44 46  0  0  0  0  0  0  0  0999 V2000
   20.8580  -34.6310   32.9760 C   0  0  0  0  0  0  0  0  0  0  0  0
   20.1020  -34.9340   34.2600 C   0  0  0  0  0  0  0  0  0  0  0  0
   19.7030  -33.6520   34.9910 C   0  0  0  0  0  0  0  0  0  0  0  0
   19.5420  -33.8980   36.4940 C   0  0  0  0  0  0  0  0  0  0  0  0
   19.4210  -32.6020   37.2650 C   0  0  0  0  0  0  0  0  0  0  0  0
   19.8160  -31.4110   36.6360 C   0  0  0  0  0  0  0  0  0  0  0  0
   19.7360  -30.1840   37.2990 C   0  0  0  0  0  0  0  0  0  0  0  0
   19.2540  -30.1120   38.6090 C   0  0  0  0  0  0  0  0  0  0  0  0
   19.1800  -28.8310   39.3420 C   0  0  0  0  0  0  0  0  0  0  0  0
   20.0650  -28.7710   40.4140 O   0  0  0  0  0  0  0  0  0  0  0  0
   20.1020  -27.6360   41.1820 C   0  0  0  0  0  0  0  0  0  0  0  0
   21.0130  -27.6150   42.2370 C   0  0  0  0  0  0  0  0  0  0  0  0
   21.1010  -26.4880   43.0600 C   0  0  0  0  0  0  0  0  0  0  0  0
   20.2750  -25.3860   42.8270 C   0  0  0  0  0  0  0  0  0  0  0  0
   19.3660  -25.4110   41.7730 C   0  0  0  0  0  0  0  0  0  0  0  0
   18.5880  -24.2980   41.6020 O   0  0  0  0  0  0  0  0  0  0  0  0
   19.2800  -26.5370   40.9500 C   0  0  0  0  0  0  0  0  0  0  0  0
   18.3380  -26.6040   39.8320 C   0  0  0  0  0  0  0  0  0  0  0  0
   17.5750  -25.6770   39.5670 O   0  0  0  0  0  0  0  0  0  0  0  0
   18.3310  -27.8400   39.0150 C   0  0  0  0  0  0  0  0  0  0  0  0
   17.4280  -27.8980   37.9690 O   0  0  0  0  0  0  0  0  0  0  0  0
   18.8720  -31.3040   39.2430 C   0  0  0  0  0  0  0  0  0  0  0  0
   18.9530  -32.5500   38.5930 C   0  0  0  0  0  0  0  0  0  0  0  0
   18.5100  -33.7840   39.3290 C   0  0  0  0  0  0  0  0  0  0  0  0
   21.8532  -34.2321   33.2219 H   0  0  0  0  0  0  0  0  0  0  0  0
   20.9680  -35.5545   32.3886 H   0  0  0  0  0  0  0  0  0  0  0  0
   20.2997  -33.8872   32.3886 H   0  0  0  0  0  0  0  0  0  0  0  0
   19.1932  -35.5028   34.0140 H   0  0  0  0  0  0  0  0  0  0  0  0
   20.7619  -35.5164   34.9198 H   0  0  0  0  0  0  0  0  0  0  0  0
   20.4823  -32.8919   34.8334 H   0  0  0  0  0  0  0  0  0  0  0  0
   18.7384  -33.3081   34.5893 H   0  0  0  0  0  0  0  0  0  0  0  0
   18.6355  -34.4981   36.6616 H   0  0  0  0  0  0  0  0  0  0  0  0
   20.4376  -34.4268   36.8520 H   0  0  0  0  0  0  0  0  0  0  0  0
   20.1949  -31.4443   35.6038 H   0  0  0  0  0  0  0  0  0  0  0  0
   20.0555  -29.2654   36.7850 H   0  0  0  0  0  0  0  0  0  0  0  0
   21.6618  -28.4839   42.4218 H   0  0  0  0  0  0  0  0  0  0  0  0
   21.8211  -26.4693   43.8913 H   0  0  0  0  0  0  0  0  0  0  0  0
   20.3427  -24.4999   43.4753 H   0  0  0  0  0  0  0  0  0  0  0  0
   18.6040  -23.6130   42.2400 H   0  0  0  0  0  0  0  0  0  0  0  0
   16.7980  -28.5900   37.9330 H   0  0  0  0  0  0  0  0  0  0  0  0
   18.4988  -31.2637   40.2770 H   0  0  0  0  0  0  0  0  0  0  0  0
   18.5735  -33.6071   40.4128 H   0  0  0  0  0  0  0  0  0  0  0  0
   17.4709  -34.0204   39.0563 H   0  0  0  0  0  0  0  0  0  0  0  0
   19.1615  -34.6273   39.0563 H   0  0  0  0  0  0  0  0  0  0  0  0
  1  2  1  0
  2  3  1  0
  3  4  1  0
  4  5  1  0
  5  6  2  0
  6  7  1  0
  7  8  2  0
  8  9  1  0
  9 10  1  0
 10 11  1  0
 11 12  2  0
 12 13  1  0
 13 14  2  0
 14 15  1  0
 15 16  1  0
 15 17  2  0
 17 18  1  0
 18 19  2  0
 18 20  1  0
 20 21  1  0
  8 22  1  0
 22 23  2  0
 23 24  1  0
 23  5  1  0
 20  9  2  0
 17 11  1  0
  1 25  1  0
  1 26  1  0
  1 27  1  0
  2 28  1  0
  2 29  1  0
  3 30  1  0
  3 31  1  0
  4 32  1  0
  4 33  1  0
  6 34  1  0
  7 35  1  0
 12 36  1  0
 13 37  1  0
 14 38  1  0
 16 39  1  0
 21 40  1  0
 22 41  1  0
 24 42  1  0
 24 43  1  0
 24 44  1  0
M  END
>  <meeko>  (1) 
{"is_sidechain": [false], "free_energy": -7.966, "intermolecular_energy": -10.295, "internal_energy": -0.518}

$$$$
cand_052_out
     RDKit          3D

 44 46  0  0  0  0  0  0  0  0999 V2000
   19.2990  -23.4070   38.1250 C   0  0  0  0  0  0  0  0  0  0  0  0
   19.2030  -23.0750   39.6050 C   0  0  0  0  0  0  0  0  0  0  0  0
   19.9720  -24.0860   40.4570 C   0  0  0  0  0  0  0  0  0  0  0  0
   19.0250  -25.1090   41.0910 C   0  0  0  0  0  0  0  0  0  0  0  0
   19.1400  -26.4650   40.4280 C   0  0  0  0  0  0  0  0  0  0  0  0
   18.2700  -26.7670   39.3690 C   0  0  0  0  0  0  0  0  0  0  0  0
   18.3230  -28.0040   38.7230 C   0  0  0  0  0  0  0  0  0  0  0  0
   19.2490  -28.9740   39.1160 C   0  0  0  0  0  0  0  0  0  0  0  0
   19.3110  -30.3000   38.4660 C   0  0  0  0  0  0  0  0  0  0  0  0
   18.8880  -31.3300   39.3000 O   0  0  0  0  0  0  0  0  0  0  0  0
   18.8930  -32.6150   38.8220 C   0  0  0  0  0  0  0  0  0  0  0  0
   18.4480  -33.6140   39.6880 C   0  0  0  0  0  0  0  0  0  0  0  0
   18.4290  -34.9460   39.2650 C   0  0  0  0  0  0  0  0  0  0  0  0
   18.8560  -35.2770   37.9780 C   0  0  0  0  0  0  0  0  0  0  0  0
   19.3010  -34.2770   37.1160 C   0  0  0  0  0  0  0  0  0  0  0  0
   19.7060  -34.6720   35.8700 O   0  0  0  0  0  0  0  0  0  0  0  0
   19.3190  -32.9460   37.5400 C   0  0  0  0  0  0  0  0  0  0  0  0
   19.7780  -31.8660   36.6650 C   0  0  0  0  0  0  0  0  0  0  0  0
   20.1760  -32.0780   35.5210 O   0  0  0  0  0  0  0  0  0  0  0  0
   19.7500  -30.4870   37.2080 C   0  0  0  0  0  0  0  0  0  0  0  0
   20.1990  -29.4760   36.3780 O   0  0  0  0  0  0  0  0  0  0  0  0
   20.1100  -28.6780   40.1840 C   0  0  0  0  0  0  0  0  0  0  0  0
   20.0660  -27.4390   40.8500 C   0  0  0  0  0  0  0  0  0  0  0  0
   21.0310  -27.1860   41.9770 C   0  0  0  0  0  0  0  0  0  0  0  0
   19.6027  -24.4573   38.0038 H   0  0  0  0  0  0  0  0  0  0  0  0
   18.3191  -23.2515   37.6500 H   0  0  0  0  0  0  0  0  0  0  0  0
   20.0447  -22.7525   37.6500 H   0  0  0  0  0  0  0  0  0  0  0  0
   19.6225  -22.0723   39.7744 H   0  0  0  0  0  0  0  0  0  0  0  0
   18.1436  -23.1109   39.8989 H   0  0  0  0  0  0  0  0  0  0  0  0
   20.6968  -24.6143   39.8202 H   0  0  0  0  0  0  0  0  0  0  0  0
   20.4876  -23.5424   41.2624 H   0  0  0  0  0  0  0  0  0  0  0  0
   19.2735  -25.2116   42.1576 H   0  0  0  0  0  0  0  0  0  0  0  0
   17.9939  -24.7493   40.9591 H   0  0  0  0  0  0  0  0  0  0  0  0
   17.5344  -26.0172   39.0425 H   0  0  0  0  0  0  0  0  0  0  0  0
   17.6289  -28.2169   37.8966 H   0  0  0  0  0  0  0  0  0  0  0  0
   18.1124  -33.3537   40.7027 H   0  0  0  0  0  0  0  0  0  0  0  0
   18.0772  -35.7342   39.9470 H   0  0  0  0  0  0  0  0  0  0  0  0
   18.8412  -36.3253   37.6450 H   0  0  0  0  0  0  0  0  0  0  0  0
   19.6850  -35.5780   35.6350 H   0  0  0  0  0  0  0  0  0  0  0  0
   20.4930  -29.6780   35.5110 H   0  0  0  0  0  0  0  0  0  0  0  0
   20.8389  -29.4348   40.5093 H   0  0  0  0  0  0  0  0  0  0  0  0
   20.5149  -27.3213   42.9390 H   0  0  0  0  0  0  0  0  0  0  0  0
   21.8694  -27.8947   41.9079 H   0  0  0  0  0  0  0  0  0  0  0  0
   21.4139  -26.1571   41.9079 H   0  0  0  0  0  0  0  0  0  0  0  0
  1  2  1  0
  2  3  1  0
  3  4  1  0
  4  5  1  0
  5  6  2  0
  6  7  1  0
  7  8  2  0
  8  9  1  0
  9 10  1  0
 10 11  1  0
 11 12  2  0
 12 13  1  0
 13 14  2  0
 14 15  1  0
 15 16  1  0
 15 17  2  0
 17 18  1  0
 18 19  2  0
 18 20  1  0
 20 21  1  0
  8 22  1  0
 22 23  2  0
 23 24  1  0
 23  5  1  0
 20  9  2  0
 17 11  1  0
  1 25  1  0
  1 26  1  0
  1 27  1  0
  2 28  1  0
  2 29  1  0
  3 30  1  0
  3 31  1  0
  4 32  1  0
  4 33  1  0
  6 34  1  0
  7 35  1  0
 12 36  1  0
 13 37  1  0
 14 38  1  0
 16 39  1  0
 21 40  1  0
 22 41  1  0
 24 42  1  0
 24 43  1  0
 24 44  1  0
M  END
>  <meeko>  (2) 
{"is_sidechain": [false], "free_energy": -7.831, "intermolecular_energy": -9.912, "internal_energy": -0.726}

$$$$
cand_052_out
     RDKit          3D

 44 46  0  0  0  0  0  0  0  0999 V2000
   19.6020  -35.4700   38.5130 C   0  0  0  0  0  0  0  0  0  0  0  0
   19.8750  -35.4650   37.0180 C   0  0  0  0  0  0  0  0  0  0  0  0
   18.9200  -34.5280   36.2770 C   0  0  0  0  0  0  0  0  0  0  0  0
   19.6740  -33.3530   35.6490 C   0  0  0  0  0  0  0  0  0  0  0  0
   19.5990  -32.1130   36.5140 C   0  0  0  0  0  0  0  0  0  0  0  0
   19.0450  -32.2270   37.7980 C   0  0  0  0  0  0  0  0  0  0  0  0
   18.9410  -31.1170   38.6400 C   0  0  0  0  0  0  0  0  0  0  0  0
   19.3930  -29.8610   38.2230 C   0  0  0  0  0  0  0  0  0  0  0  0
   19.2740  -28.6650   39.0830 C   0  0  0  0  0  0  0  0  0  0  0  0
   20.1950  -28.6570   40.1250 O   0  0  0  0  0  0  0  0  0  0  0  0
   20.1960  -27.6020   41.0010 C   0  0  0  0  0  0  0  0  0  0  0  0
   21.1460  -27.6280   42.0220 C   0  0  0  0  0  0  0  0  0  0  0  0
   21.2000  -26.5850   42.9510 C   0  0  0  0  0  0  0  0  0  0  0  0
   20.3040  -25.5180   42.8580 C   0  0  0  0  0  0  0  0  0  0  0  0
   19.3570  -25.4950   41.8370 C   0  0  0  0  0  0  0  0  0  0  0  0
   18.5100  -24.4210   41.8050 O   0  0  0  0  0  0  0  0  0  0  0  0
   19.3040  -26.5390   40.9090 C   0  0  0  0  0  0  0  0  0  0  0  0
   18.3240  -26.5530   39.8210 C   0  0  0  0  0  0  0  0  0  0  0  0
   17.4980  -25.6530   39.6770 O   0  0  0  0  0  0  0  0  0  0  0  0
   18.3570  -27.7010   38.8850 C   0  0  0  0  0  0  0  0  0  0  0  0
   17.4170  -27.7110   37.8700 O   0  0  0  0  0  0  0  0  0  0  0  0
   19.9340  -29.7440   36.9330 C   0  0  0  0  0  0  0  0  0  0  0  0
   20.0390  -30.8510   36.0700 C   0  0  0  0  0  0  0  0  0  0  0  0
   20.6460  -30.6530   34.7070 C   0  0  0  0  0  0  0  0  0  0  0  0
   20.5562  -35.4525   39.0600 H   0  0  0  0  0  0  0  0  0  0  0  0
   19.0097  -34.5826   38.7805 H   0  0  0  0  0  0  0  0  0  0  0  0
   19.0426  -36.3785   38.7805 H   0  0  0  0  0  0  0  0  0  0  0  0
   20.9089  -35.1318   36.8446 H   0  0  0  0  0  0  0  0  0  0  0  0
   19.7231  -36.4853   36.6360 H   0  0  0  0  0  0  0  0  0  0  0  0
   18.4084  -35.0917   35.4829 H   0  0  0  0  0  0  0  0  0  0  0  0
   18.1927  -34.1291   36.9995 H   0  0  0  0  0  0  0  0  0  0  0  0
   20.7295  -33.6346   35.5204 H   0  0  0  0  0  0  0  0  0  0  0  0
   19.2062  -33.1240   34.6801 H   0  0  0  0  0  0  0  0  0  0  0  0
   18.6866  -33.2065   38.1475 H   0  0  0  0  0  0  0  0  0  0  0  0
   18.4992  -31.2321   39.6408 H   0  0  0  0  0  0  0  0  0  0  0  0
   21.8519  -28.4684   42.0960 H   0  0  0  0  0  0  0  0  0  0  0  0
   21.9491  -26.6047   43.7562 H   0  0  0  0  0  0  0  0  0  0  0  0
   20.3460  -24.6975   43.5895 H   0  0  0  0  0  0  0  0  0  0  0  0
   18.3050  -24.0100   40.9890 H   0  0  0  0  0  0  0  0  0  0  0  0
   16.5340  -27.4530   38.0470 H   0  0  0  0  0  0  0  0  0  0  0  0
   20.2854  -28.7607   36.5872 H   0  0  0  0  0  0  0  0  0  0  0  0
   21.6867  -30.3135   34.8149 H   0  0  0  0  0  0  0  0  0  0  0  0
   20.6260  -31.6043   34.1550 H   0  0  0  0  0  0  0  0  0  0  0  0
   20.0689  -29.8965   34.1550 H   0  0  0  0  0  0  0  0  0  0  0  0
  1  2  1  0
  2  3  1  0
  3  4  1  0
  4  5  1  0
  5  6  2  0
  6  7  1  0
  7  8  2  0
  8  9  1  0
  9 10  1  0
 10 11  1  0
 11 12  2  0
 12 13  1  0
 13 14  2  0
 14 15  1  0
 15 16  1  0
 15 17  2  0
 17 18  1  0
 18 19  2  0
 18 20  1  0
 20 21  1  0
  8 22  1  0
 22 23  2  0
 23 24  1  0
 23  5  1  0
 20  9  2  0
 17 11  1  0
  1 25  1  0
  1 26  1  0
  1 27  1  0
  2 28  1  0
  2 29  1  0
  3 30  1  0
  3 31  1  0
  4 32  1  0
  4 33  1  0
  6 34  1  0
  7 35  1  0
 12 36  1  0
 13 37  1  0
 14 38  1  0
 16 39  1  0
 21 40  1  0
 22 41  1  0
 24 42  1  0
 24 43  1  0
 24 44  1  0
M  END
>  <meeko>  (3) 
{"is_sidechain": [false], "free_energy": -7.531, "intermolecular_energy": -9.799, "internal_energy": -0.451}

$$$$
cand_052_out
     RDKit          3D

 44 46  0  0  0  0  0  0  0  0999 V2000
   18.4800  -23.4860   44.9330 C   0  0  0  0  0  0  0  0  0  0  0  0
   18.4780  -22.8580   43.5490 C   0  0  0  0  0  0  0  0  0  0  0  0
   19.3890  -23.6210   42.5860 C   0  0  0  0  0  0  0  0  0  0  0  0
   19.8060  -24.9730   43.1720 C   0  0  0  0  0  0  0  0  0  0  0  0
   19.8090  -26.0620   42.1210 C   0  0  0  0  0  0  0  0  0  0  0  0
   18.8260  -26.0270   41.1200 C   0  0  0  0  0  0  0  0  0  0  0  0
   18.7710  -27.0080   40.1280 C   0  0  0  0  0  0  0  0  0  0  0  0
   19.7010  -28.0510   40.1060 C   0  0  0  0  0  0  0  0  0  0  0  0
   19.6530  -29.1160   39.0820 C   0  0  0  0  0  0  0  0  0  0  0  0
   19.4970  -30.3850   39.6300 O   0  0  0  0  0  0  0  0  0  0  0  0
   19.4360  -31.4680   38.7910 C   0  0  0  0  0  0  0  0  0  0  0  0
   19.2650  -32.7190   39.3830 C   0  0  0  0  0  0  0  0  0  0  0  0
   19.1970  -33.8640   38.5850 C   0  0  0  0  0  0  0  0  0  0  0  0
   19.3000  -33.7570   37.1970 C   0  0  0  0  0  0  0  0  0  0  0  0
   19.4700  -32.5060   36.6090 C   0  0  0  0  0  0  0  0  0  0  0  0
   19.5650  -32.4730   35.2440 O   0  0  0  0  0  0  0  0  0  0  0  0
   19.5380  -31.3610   37.4070 C   0  0  0  0  0  0  0  0  0  0  0  0
   19.7170  -30.0280   36.8290 C   0  0  0  0  0  0  0  0  0  0  0  0
   19.8220  -29.8530   35.6170 O   0  0  0  0  0  0  0  0  0  0  0  0
   19.7680  -28.8790   37.7630 C   0  0  0  0  0  0  0  0  0  0  0  0
   19.9510  -27.6260   37.2070 O   0  0  0  0  0  0  0  0  0  0  0  0
   20.6760  -28.0950   41.1150 C   0  0  0  0  0  0  0  0  0  0  0  0
   20.7410  -27.1180   42.1260 C   0  0  0  0  0  0  0  0  0  0  0  0
   21.8240  -27.2200   43.1650 C   0  0  0  0  0  0  0  0  0  0  0  0
   18.4775  -22.6931   45.6954 H   0  0  0  0  0  0  0  0  0  0  0  0
   17.5838  -24.1126   45.0526 H   0  0  0  0  0  0  0  0  0  0  0  0
   19.3801  -24.1069   45.0526 H   0  0  0  0  0  0  0  0  0  0  0  0
   17.4516  -22.8678   43.1535 H   0  0  0  0  0  0  0  0  0  0  0  0
   18.8540  -21.8280   43.6368 H   0  0  0  0  0  0  0  0  0  0  0  0
   18.8513  -23.7899   41.6413 H   0  0  0  0  0  0  0  0  0  0  0  0
   20.2951  -23.0212   42.4148 H   0  0  0  0  0  0  0  0  0  0  0  0
   20.8179  -24.8819   43.5937 H   0  0  0  0  0  0  0  0  0  0  0  0
   19.0782  -25.2488   43.9493 H   0  0  0  0  0  0  0  0  0  0  0  0
   18.0863  -25.2129   41.1169 H   0  0  0  0  0  0  0  0  0  0  0  0
   17.9884  -26.9595   39.3566 H   0  0  0  0  0  0  0  0  0  0  0  0
   19.1838  -32.8043   40.4767 H   0  0  0  0  0  0  0  0  0  0  0  0
   19.0621  -34.8511   39.0512 H   0  0  0  0  0  0  0  0  0  0  0  0
   19.2470  -34.6586   36.5691 H   0  0  0  0  0  0  0  0  0  0  0  0
   19.6230  -33.2720   34.7590 H   0  0  0  0  0  0  0  0  0  0  0  0
   20.6560  -27.0820   37.4980 H   0  0  0  0  0  0  0  0  0  0  0  0
   21.4090  -28.9152   41.1155 H   0  0  0  0  0  0  0  0  0  0  0  0
   21.3748  -27.1777   44.1682 H   0  0  0  0  0  0  0  0  0  0  0  0
   22.3603  -28.1726   43.0433 H   0  0  0  0  0  0  0  0  0  0  0  0
   22.5288  -26.3843   43.0433 H   0  0  0  0  0  0  0  0  0  0  0  0
  1  2  1  0
  2  3  1  0
  3  4  1  0
  4  5  1  0
  5  6  2  0
  6  7  1  0
  7  8  2  0
  8  9  1  0
  9 10  1  0
 10 11  1  0
 11 12  2  0
 12 13  1  0
 13 14  2  0
 14 15  1  0
 15 16  1  0
 15 17  2  0
 17 18  1  0
 18 19  2  0
 18 20  1  0
 20 21  1  0
  8 22  1  0
 22 23  2  0
 23 24  1  0
 23  5  1  0
 20  9  2  0
 17 11  1  0
  1 25  1  0
  1 26  1  0
  1 27  1  0
  2 28  1  0
  2 29  1  0
  3 30  1  0
  3 31  1  0
  4 32  1  0
  4 33  1  0
  6 34  1  0
  7 35  1  0
 12 36  1  0
 13 37  1  0
 14 38  1  0
 16 39  1  0
 21 40  1  0
 22 41  1  0
 24 42  1  0
 24 43  1  0
 24 44  1  0
M  END
>  <meeko>  (4) 
{"is_sidechain": [false], "free_energy": -7.024, "intermolecular_energy": -9.053, "internal_energy": -0.541}

$$$$
cand_052_out
     RDKit          3D

 44 46  0  0  0  0  0  0  0  0999 V2000
   18.4430  -35.4040   39.4030 C   0  0  0  0  0  0  0  0  0  0  0  0
   18.4790  -35.4200   37.8830 C   0  0  0  0  0  0  0  0  0  0  0  0
   18.2860  -34.0180   37.3040 C   0  0  0  0  0  0  0  0  0  0  0  0
   19.6320  -33.3590   36.9890 C   0  0  0  0  0  0  0  0  0  0  0  0
   19.6200  -31.8790   37.3070 C   0  0  0  0  0  0  0  0  0  0  0  0
   19.2330  -31.4760   38.5940 C   0  0  0  0  0  0  0  0  0  0  0  0
   19.1930  -30.1240   38.9440 C   0  0  0  0  0  0  0  0  0  0  0  0
   19.5430  -29.1370   38.0190 C   0  0  0  0  0  0  0  0  0  0  0  0
   19.4880  -27.6990   38.3550 C   0  0  0  0  0  0  0  0  0  0  0  0
   18.5670  -27.0000   37.5820 O   0  0  0  0  0  0  0  0  0  0  0  0
   18.4120  -25.6530   37.7910 C   0  0  0  0  0  0  0  0  0  0  0  0
   17.4680  -24.9950   37.0030 C   0  0  0  0  0  0  0  0  0  0  0  0
   17.2610  -23.6220   37.1630 C   0  0  0  0  0  0  0  0  0  0  0  0
   18.0000  -22.9100   38.1100 C   0  0  0  0  0  0  0  0  0  0  0  0
   18.9430  -23.5700   38.8940 C   0  0  0  0  0  0  0  0  0  0  0  0
   19.6320  -22.8110   39.8010 O   0  0  0  0  0  0  0  0  0  0  0  0
   19.1480  -24.9430   38.7340 C   0  0  0  0  0  0  0  0  0  0  0  0
   20.1280  -25.6740   39.5380 C   0  0  0  0  0  0  0  0  0  0  0  0
   20.8210  -25.1160   40.3860 O   0  0  0  0  0  0  0  0  0  0  0  0
   20.2630  -27.1300   39.2960 C   0  0  0  0  0  0  0  0  0  0  0  0
   21.2020  -27.8080   40.0510 O   0  0  0  0  0  0  0  0  0  0  0  0
   19.9160  -29.5400   36.7270 C   0  0  0  0  0  0  0  0  0  0  0  0
   19.9550  -30.8970   36.3550 C   0  0  0  0  0  0  0  0  0  0  0  0
   20.3820  -31.2550   34.9570 C   0  0  0  0  0  0  0  0  0  0  0  0
   19.3817  -35.8212   39.7964 H   0  0  0  0  0  0  0  0  0  0  0  0
   18.3254  -34.3689   39.7561 H   0  0  0  0  0  0  0  0  0  0  0  0
   17.5959  -36.0104   39.7561 H   0  0  0  0  0  0  0  0  0  0  0  0
   19.4519  -35.8126   37.5525 H   0  0  0  0  0  0  0  0  0  0  0  0
   17.6576  -36.0579   37.5246 H   0  0  0  0  0  0  0  0  0  0  0  0
   17.6964  -34.0902   36.3782 H   0  0  0  0  0  0  0  0  0  0  0  0
   17.7626  -33.4020   38.0500 H   0  0  0  0  0  0  0  0  0  0  0  0
   20.4158  -33.8458   37.5879 H   0  0  0  0  0  0  0  0  0  0  0  0
   19.8273  -33.4765   35.9129 H   0  0  0  0  0  0  0  0  0  0  0  0
   18.9567  -32.2365   39.3392 H   0  0  0  0  0  0  0  0  0  0  0  0
   18.8827  -29.8335   39.9585 H   0  0  0  0  0  0  0  0  0  0  0  0
   16.8869  -25.5560   36.2563 H   0  0  0  0  0  0  0  0  0  0  0  0
   16.5158  -23.1023   36.5428 H   0  0  0  0  0  0  0  0  0  0  0  0
   17.8376  -21.8294   38.2366 H   0  0  0  0  0  0  0  0  0  0  0  0
   20.2850  -23.2070   40.3420 H   0  0  0  0  0  0  0  0  0  0  0  0
   21.7780  -28.4220   39.6400 H   0  0  0  0  0  0  0  0  0  0  0  0
   20.1853  -28.7741   35.9848 H   0  0  0  0  0  0  0  0  0  0  0  0
   21.2243  -31.9612   35.0004 H   0  0  0  0  0  0  0  0  0  0  0  0
   19.5399  -31.7210   34.4244 H   0  0  0  0  0  0  0  0  0  0  0  0
   20.6939  -30.3445   34.4244 H   0  0  0  0  0  0  0  0  0  0  0  0
  1  2  1  0
  2  3  1  0
  3  4  1  0
  4  5  1  0
  5  6  2  0
  6  7  1  0
  7  8  2  0
  8  9  1  0
  9 10  1  0
 10 11  1  0
 11 12  2  0
 12 13  1  0
 13 14  2  0
 14 15  1  0
 15 16  1  0
 15 17  2  0
 17 18  1  0
 18 19  2  0
 18 20  1  0
 20 21  1  0
  8 22  1  0
 22 23  2  0
 23 24  1  0
 23  5  1  0
 20  9  2  0
 17 11  1  0
  1 25  1  0
  1 26  1  0
  1 27  1  0
  2 28  1  0
  2 29  1  0
  3 30  1  0
  3 31  1  0
  4 32  1  0
  4 33  1  0
  6 34  1  0
  7 35  1  0
 12 36  1  0
 13 37  1  0
 14 38  1  0
 16 39  1  0
 21 40  1  0
 22 41  1  0
 24 42  1  0
 24 43  1  0
 24 44  1  0
M  END
>  <meeko>  (5) 
{"is_sidechain": [false], "free_energy": -6.968, "intermolecular_energy": -8.925, "internal_energy": -0.597}

$$$$
cand_052_out
     RDKit          3D

 44 46  0  0  0  0  0  0  0  0999 V2000
   19.7840  -24.7570   43.4300 C   0  0  0  0  0  0  0  0  0  0  0  0
   19.0650  -24.3990   42.1400 C   0  0  0  0  0  0  0  0  0  0  0  0
   20.0250  -23.8010   41.1110 C   0  0  0  0  0  0  0  0  0  0  0  0
   19.4710  -23.9390   39.6900 C   0  0  0  0  0  0  0  0  0  0  0  0
   19.4380  -25.3830   39.2390 C   0  0  0  0  0  0  0  0  0  0  0  0
   20.3500  -26.2830   39.8120 C   0  0  0  0  0  0  0  0  0  0  0  0
   20.3740  -27.6260   39.4310 C   0  0  0  0  0  0  0  0  0  0  0  0
   19.4830  -28.1100   38.4680 C   0  0  0  0  0  0  0  0  0  0  0  0
   19.5020  -29.5210   38.0280 C   0  0  0  0  0  0  0  0  0  0  0  0
   19.0790  -30.4000   39.0190 O   0  0  0  0  0  0  0  0  0  0  0  0
   19.0460  -31.7440   38.7450 C   0  0  0  0  0  0  0  0  0  0  0  0
   18.6010  -32.5870   39.7630 C   0  0  0  0  0  0  0  0  0  0  0  0
   18.5450  -33.9670   39.5500 C   0  0  0  0  0  0  0  0  0  0  0  0
   18.9350  -34.5010   38.3200 C   0  0  0  0  0  0  0  0  0  0  0  0
   19.3780  -33.6570   37.3060 C   0  0  0  0  0  0  0  0  0  0  0  0
   19.7450  -34.2470   36.1270 O   0  0  0  0  0  0  0  0  0  0  0  0
   19.4340  -32.2770   37.5200 C   0  0  0  0  0  0  0  0  0  0  0  0
   19.8930  -31.3540   36.4810 C   0  0  0  0  0  0  0  0  0  0  0  0
   20.2590  -31.7490   35.3750 O   0  0  0  0  0  0  0  0  0  0  0  0
   19.9060  -29.9080   36.8050 C   0  0  0  0  0  0  0  0  0  0  0  0
   20.3560  -29.0470   35.8210 O   0  0  0  0  0  0  0  0  0  0  0  0
   18.5810  -27.2070   37.8840 C   0  0  0  0  0  0  0  0  0  0  0  0
   18.5480  -25.8490   38.2510 C   0  0  0  0  0  0  0  0  0  0  0  0
   17.5420  -24.9430   37.5950 C   0  0  0  0  0  0  0  0  0  0  0  0
   19.1694  -24.4510   44.2894 H   0  0  0  0  0  0  0  0  0  0  0  0
   19.9512  -25.8436   43.4672 H   0  0  0  0  0  0  0  0  0  0  0  0
   20.7519  -24.2356   43.4672 H   0  0  0  0  0  0  0  0  0  0  0  0
   18.6113  -25.3085   41.7194 H   0  0  0  0  0  0  0  0  0  0  0  0
   18.2950  -23.6482   42.3709 H   0  0  0  0  0  0  0  0  0  0  0  0
   20.1733  -22.7346   41.3362 H   0  0  0  0  0  0  0  0  0  0  0  0
   20.9789  -24.3459   41.1671 H   0  0  0  0  0  0  0  0  0  0  0  0
   18.4483  -23.5346   39.6654 H   0  0  0  0  0  0  0  0  0  0  0  0
   20.1319  -23.3825   39.0092 H   0  0  0  0  0  0  0  0  0  0  0  0
   21.0576  -25.9243   40.5739 H   0  0  0  0  0  0  0  0  0  0  0  0
   21.1010  -28.3102   39.8929 H   0  0  0  0  0  0  0  0  0  0  0  0
   18.2946  -32.1663   40.7321 H   0  0  0  0  0  0  0  0  0  0  0  0
   18.1935  -34.6331   40.3517 H   0  0  0  0  0  0  0  0  0  0  0  0
   18.8921  -35.5874   38.1528 H   0  0  0  0  0  0  0  0  0  0  0  0
   19.9680  -35.1560   36.1080 H   0  0  0  0  0  0  0  0  0  0  0  0
   19.9690  -28.1990   35.7290 H   0  0  0  0  0  0  0  0  0  0  0  0
   17.8804  -27.5711   37.1181 H   0  0  0  0  0  0  0  0  0  0  0  0
   16.9608  -24.4195   38.3684 H   0  0  0  0  0  0  0  0  0  0  0  0
   18.0659  -24.2061   36.9685 H   0  0  0  0  0  0  0  0  0  0  0  0
   16.8638  -25.5409   36.9685 H   0  0  0  0  0  0  0  0  0  0  0  0
  1  2  1  0
  2  3  1  0
  3  4  1  0
  4  5  1  0
  5  6  2  0
  6  7  1  0
  7  8  2  0
  8  9  1  0
  9 10  1  0
 10 11  1  0
 11 12  2  0
 12 13  1  0
 13 14  2  0
 14 15  1  0
 15 16  1  0
 15 17  2  0
 17 18  1  0
 18 19  2  0
 18 20  1  0
 20 21  1  0
  8 22  1  0
 22 23  2  0
 23 24  1  0
 23  5  1  0
 20  9  2  0
 17 11  1  0
  1 25  1  0
  1 26  1  0
  1 27  1  0
  2 28  1  0
  2 29  1  0
  3 30  1  0
  3 31  1  0
  4 32  1  0
  4 33  1  0
  6 34  1  0
  7 35  1  0
 12 36  1  0
 13 37  1  0
 14 38  1  0
 16 39  1  0
 21 40  1  0
 22 41  1  0
 24 42  1  0
 24 43  1  0
 24 44  1  0
M  END
>  <meeko>  (6) 
{"is_sidechain": [false], "free_energy": -6.956, "intermolecular_energy": -9.039, "internal_energy": -0.468}

$$$$
cand_052_out
     RDKit          3D

 44 46  0  0  0  0  0  0  0  0999 V2000
   24.4050  -29.9500   42.6430 C   0  0  0  0  0  0  0  0  0  0  0  0
   24.1610  -29.0390   43.8350 C   0  0  0  0  0  0  0  0  0  0  0  0
   23.6560  -27.6640   43.3950 C   0  0  0  0  0  0  0  0  0  0  0  0
   22.1670  -27.4940   43.7100 C   0  0  0  0  0  0  0  0  0  0  0  0
   21.3940  -26.9890   42.5100 C   0  0  0  0  0  0  0  0  0  0  0  0
   21.6590  -27.5600   41.2560 C   0  0  0  0  0  0  0  0  0  0  0  0
   20.9850  -27.1300   40.1110 C   0  0  0  0  0  0  0  0  0  0  0  0
   20.0230  -26.1190   40.1880 C   0  0  0  0  0  0  0  0  0  0  0  0
   19.3110  -25.6280   38.9890 C   0  0  0  0  0  0  0  0  0  0  0  0
   19.6260  -24.3090   38.6770 O   0  0  0  0  0  0  0  0  0  0  0  0
   19.0360  -23.7270   37.5850 C   0  0  0  0  0  0  0  0  0  0  0  0
   19.3920  -22.4080   37.3010 C   0  0  0  0  0  0  0  0  0  0  0  0
   18.8260  -21.7540   36.2030 C   0  0  0  0  0  0  0  0  0  0  0  0
   17.9050  -22.4190   35.3920 C   0  0  0  0  0  0  0  0  0  0  0  0
   17.5510  -23.7360   35.6780 C   0  0  0  0  0  0  0  0  0  0  0  0
   16.6430  -24.3270   34.8430 O   0  0  0  0  0  0  0  0  0  0  0  0
   18.1180  -24.3890   36.7760 C   0  0  0  0  0  0  0  0  0  0  0  0
   17.7750  -25.7710   37.1110 C   0  0  0  0  0  0  0  0  0  0  0  0
   16.9670  -26.4210   36.4490 O   0  0  0  0  0  0  0  0  0  0  0  0
   18.4380  -26.3750   38.2900 C   0  0  0  0  0  0  0  0  0  0  0  0
   18.0950  -27.6770   38.6060 O   0  0  0  0  0  0  0  0  0  0  0  0
   19.7690  -25.5370   41.4400 C   0  0  0  0  0  0  0  0  0  0  0  0
   20.4440  -25.9540   42.6020 C   0  0  0  0  0  0  0  0  0  0  0  0
   20.1060  -25.2960   43.9130 C   0  0  0  0  0  0  0  0  0  0  0  0
   24.6743  -30.9554   42.9990 H   0  0  0  0  0  0  0  0  0  0  0  0
   23.4911  -30.0093   42.0337 H   0  0  0  0  0  0  0  0  0  0  0  0
   25.2262  -29.5446   42.0337 H   0  0  0  0  0  0  0  0  0  0  0  0
   23.4098  -29.5025   44.4914 H   0  0  0  0  0  0  0  0  0  0  0  0
   25.1144  -28.9029   44.3664 H   0  0  0  0  0  0  0  0  0  0  0  0
   24.2258  -26.8862   43.9245 H   0  0  0  0  0  0  0  0  0  0  0  0
   23.7945  -27.5737   42.3075 H   0  0  0  0  0  0  0  0  0  0  0  0
   21.7543  -28.4666   44.0162 H   0  0  0  0  0  0  0  0  0  0  0  0
   22.0700  -26.7525   44.5167 H   0  0  0  0  0  0  0  0  0  0  0  0
   22.4100  -28.3595   41.1735 H   0  0  0  0  0  0  0  0  0  0  0  0
   21.2135  -27.5915   39.1390 H   0  0  0  0  0  0  0  0  0  0  0  0
   20.1172  -21.8835   37.9405 H   0  0  0  0  0  0  0  0  0  0  0  0
   19.1066  -20.7145   35.9779 H   0  0  0  0  0  0  0  0  0  0  0  0
   17.4592  -21.9041   34.5282 H   0  0  0  0  0  0  0  0  0  0  0  0
   15.7370  -24.0960   34.8970 H   0  0  0  0  0  0  0  0  0  0  0  0
   17.2050  -27.8920   38.8040 H   0  0  0  0  0  0  0  0  0  0  0  0
   19.0219  -24.7331   41.5146 H   0  0  0  0  0  0  0  0  0  0  0  0
   20.4364  -25.9391   44.7420 H   0  0  0  0  0  0  0  0  0  0  0  0
   20.6162  -24.3236   43.9775 H   0  0  0  0  0  0  0  0  0  0  0  0
   19.0184  -25.1444   43.9775 H   0  0  0  0  0  0  0  0  0  0  0  0
  1  2  1  0
  2  3  1  0
  3  4  1  0
  4  5  1  0
  5  6  2  0
  6  7  1  0
  7  8  2  0
  8  9  1  0
  9 10  1  0
 10 11  1  0
 11 12  2  0
 12 13  1  0
 13 14  2  0
 14 15  1  0
 15 16  1  0
 15 17  2  0
 17 18  1  0
 18 19  2  0
 18 20  1  0
 20 21  1  0
  8 22  1  0
 22 23  2  0
 23 24  1  0
 23  5  1  0
 20  9  2  0
 17 11  1  0
  1 25  1  0
  1 26  1  0
  1 27  1  0
  2 28  1  0
  2 29  1  0
  3 30  1  0
  3 31  1  0
  4 32  1  0
  4 33  1  0
  6 34  1  0
  7 35  1  0
 12 36  1  0
 13 37  1  0
 14 38  1  0
 16 39  1  0
 21 40  1  0
 22 41  1  0
 24 42  1  0
 24 43  1  0
 24 44  1  0
M  END
>  <meeko>  (7) 
{"is_sidechain": [false], "free_energy": -6.917, "intermolecular_energy": -8.805, "internal_energy": -0.652}

$$$$
cand_052_out
     RDKit          3D

 44 46  0  0  0  0  0  0  0  0999 V2000
   19.6540  -29.4370   34.6750 C   0  0  0  0  0  0  0  0  0  0  0  0
   19.9900  -28.0430   35.1820 C   0  0  0  0  0  0  0  0  0  0  0  0
   18.7760  -27.1160   35.1190 C   0  0  0  0  0  0  0  0  0  0  0  0
   17.9310  -27.2220   36.3920 C   0  0  0  0  0  0  0  0  0  0  0  0
   18.7890  -27.1840   37.6390 C   0  0  0  0  0  0  0  0  0  0  0  0
   18.9280  -28.3610   38.3900 C   0  0  0  0  0  0  0  0  0  0  0  0
   19.6990  -28.3860   39.5540 C   0  0  0  0  0  0  0  0  0  0  0  0
   20.3570  -27.2360   39.9990 C   0  0  0  0  0  0  0  0  0  0  0  0
   21.1600  -27.2280   41.2400 C   0  0  0  0  0  0  0  0  0  0  0  0
   22.1500  -28.2050   41.2480 O   0  0  0  0  0  0  0  0  0  0  0  0
   22.9710  -28.3090   42.3410 C   0  0  0  0  0  0  0  0  0  0  0  0
   23.9580  -29.2930   42.3000 C   0  0  0  0  0  0  0  0  0  0  0  0
   24.8280  -29.4540   43.3830 C   0  0  0  0  0  0  0  0  0  0  0  0
   24.7080  -28.6320   44.5040 C   0  0  0  0  0  0  0  0  0  0  0  0
   23.7210  -27.6500   44.5420 C   0  0  0  0  0  0  0  0  0  0  0  0
   23.6590  -26.8800   45.6720 O   0  0  0  0  0  0  0  0  0  0  0  0
   22.8520  -27.4890   43.4590 C   0  0  0  0  0  0  0  0  0  0  0  0
   21.8020  -26.4700   43.4580 C   0  0  0  0  0  0  0  0  0  0  0  0
   21.6290  -25.7120   44.4120 O   0  0  0  0  0  0  0  0  0  0  0  0
   20.9390  -26.3760   42.2580 C   0  0  0  0  0  0  0  0  0  0  0  0
   19.9410  -25.4190   42.2740 O   0  0  0  0  0  0  0  0  0  0  0  0
   20.2060  -26.0550   39.2560 C   0  0  0  0  0  0  0  0  0  0  0  0
   19.4270  -26.0100   38.0850 C   0  0  0  0  0  0  0  0  0  0  0  0
   19.3250  -24.7120   37.3300 C   0  0  0  0  0  0  0  0  0  0  0  0
   19.4920  -30.1092   35.5305 H   0  0  0  0  0  0  0  0  0  0  0  0
   18.7404  -29.3946   34.0639 H   0  0  0  0  0  0  0  0  0  0  0  0
   20.4866  -29.8155   34.0639 H   0  0  0  0  0  0  0  0  0  0  0  0
   20.3311  -28.1147   36.2253 H   0  0  0  0  0  0  0  0  0  0  0  0
   20.7784  -27.6231   34.5401 H   0  0  0  0  0  0  0  0  0  0  0  0
   19.1226  -26.0784   35.0038 H   0  0  0  0  0  0  0  0  0  0  0  0
   18.1540  -27.4147   34.2624 H   0  0  0  0  0  0  0  0  0  0  0  0
   17.2229  -26.3807   36.4208 H   0  0  0  0  0  0  0  0  0  0  0  0
   17.3992  -28.1847   36.3711 H   0  0  0  0  0  0  0  0  0  0  0  0
   18.4215  -29.2788   38.0565 H   0  0  0  0  0  0  0  0  0  0  0  0
   19.7894  -29.3207   40.1268 H   0  0  0  0  0  0  0  0  0  0  0  0
   24.0522  -29.9419   41.4168 H   0  0  0  0  0  0  0  0  0  0  0  0
   25.6076  -30.2294   43.3510 H   0  0  0  0  0  0  0  0  0  0  0  0
   25.3917  -28.7593   45.3563 H   0  0  0  0  0  0  0  0  0  0  0  0
   23.3360  -27.2450   46.4710 H   0  0  0  0  0  0  0  0  0  0  0  0
   19.1370  -25.5890   42.7250 H   0  0  0  0  0  0  0  0  0  0  0  0
   20.7104  -25.1394   39.5984 H   0  0  0  0  0  0  0  0  0  0  0  0
   19.2594  -23.8771   38.0432 H   0  0  0  0  0  0  0  0  0  0  0  0
   20.2159  -24.5847   36.6975 H   0  0  0  0  0  0  0  0  0  0  0  0
   18.4251  -24.7255   36.6975 H   0  0  0  0  0  0  0  0  0  0  0  0
  1  2  1  0
  2  3  1  0
  3  4  1  0
  4  5  1  0
  5  6  2  0
  6  7  1  0
  7  8  2  0
  8  9  1  0
  9 10  1  0
 10 11  1  0
 11 12  2  0
 12 13  1  0
 13 14  2  0
 14 15  1  0
 15 16  1  0
 15 17  2  0
 17 18  1  0
 18 19  2  0
 18 20  1  0
 20 21  1  0
  8 22  1  0
 22 23  2  0
 23 24  1  0
 23  5  1  0
 20  9  2  0
 17 11  1  0
  1 25  1  0
  1 26  1  0
  1 27  1  0
  2 28  1  0
  2 29  1  0
  3 30  1  0
  3 31  1  0
  4 32  1  0
  4 33  1  0
  6 34  1  0
  7 35  1  0
 12 36  1  0
 13 37  1  0
 14 38  1  0
 16 39  1  0
 21 40  1  0
 22 41  1  0
 24 42  1  0
 24 43  1  0
 24 44  1  0
M  END
>  <meeko>  (8) 
{"is_sidechain": [false], "free_energy": -6.902, "intermolecular_energy": -9.106, "internal_energy": -0.332}

$$$$
