cand_035_out
     RDKit          3D

 36 38  0  0  0  0  0  0  0  0999 V2000
   22.2200  -27.5650   41.8830 C   0  0  0  0  0  0  0  0  0  0  0  0
   20.9580  -27.1190   41.8910 C   0  0  0  0  0  0  0  0  0  0  0  0
   20.0450  -27.3630   40.7700 C   0  0  0  0  0  0  0  0  0  0  0  0
   20.0760  -28.6290   40.1620 C   0  0  0  0  0  0  0  0  0  0  0  0
   19.2340  -28.9420   39.0840 C   0  0  0  0  0  0  0  0  0  0  0  0
   19.3140  -30.2750   38.4510 C   0  0  0  0  0  0  0  0  0  0  0  0
   18.8810  -31.2970   39.2880 O   0  0  0  0  0  0  0  0  0  0  0  0
   18.9020  -32.5870   38.8250 C   0  0  0  0  0  0  0  0  0  0  0  0
   18.4710  -33.5830   39.7020 C   0  0  0  0  0  0  0  0  0  0  0  0
   18.4660  -34.9180   39.2930 C   0  0  0  0  0  0  0  0  0  0  0  0
   18.8910  -35.2570   38.0060 C   0  0  0  0  0  0  0  0  0  0  0  0
   19.3200  -34.2610   37.1320 C   0  0  0  0  0  0  0  0  0  0  0  0
   19.7210  -34.6630   35.8870 O   0  0  0  0  0  0  0  0  0  0  0  0
   19.3250  -32.9250   37.5430 C   0  0  0  0  0  0  0  0  0  0  0  0
   19.7680  -31.8490   36.6550 C   0  0  0  0  0  0  0  0  0  0  0  0
   20.1480  -32.0660   35.5070 O   0  0  0  0  0  0  0  0  0  0  0  0
   19.7420  -30.4680   37.1900 C   0  0  0  0  0  0  0  0  0  0  0  0
   20.1470  -29.4560   36.3400 O   0  0  0  0  0  0  0  0  0  0  0  0
   18.3650  -27.9530   38.6110 C   0  0  0  0  0  0  0  0  0  0  0  0
   18.3250  -26.6900   39.2090 C   0  0  0  0  0  0  0  0  0  0  0  0
   19.1590  -26.3800   40.2940 C   0  0  0  0  0  0  0  0  0  0  0  0
   19.0930  -25.0080   40.9160 C   0  0  0  0  0  0  0  0  0  0  0  0
   20.0560  -24.1560   40.4550 F   0  0  0  0  0  0  0  0  0  0  0  0
   22.8795  -27.3648   42.7403 H   0  0  0  0  0  0  0  0  0  0  0  0
   22.5976  -28.1317   41.0191 H   0  0  0  0  0  0  0  0  0  0  0  0
   20.5959  -26.5539   42.7625 H   0  0  0  0  0  0  0  0  0  0  0  0
   20.7746  -29.3906   40.5387 H   0  0  0  0  0  0  0  0  0  0  0  0
   18.1353  -33.3166   40.7151 H   0  0  0  0  0  0  0  0  0  0  0  0
   18.1272  -35.7034   39.9846 H   0  0  0  0  0  0  0  0  0  0  0  0
   18.8868  -36.3087   37.6835 H   0  0  0  0  0  0  0  0  0  0  0  0
   20.6160  -34.8920   35.7340 H   0  0  0  0  0  0  0  0  0  0  0  0
   20.9470  -28.9960   36.5070 H   0  0  0  0  0  0  0  0  0  0  0  0
   17.7053  -28.1717   37.7584 H   0  0  0  0  0  0  0  0  0  0  0  0
   17.6304  -25.9290   38.8238 H   0  0  0  0  0  0  0  0  0  0  0  0
   18.1074  -24.5723   40.6953 H   0  0  0  0  0  0  0  0  0  0  0  0
   19.2603  -25.1329   41.9960 H   0  0  0  0  0  0  0  0  0  0  0  0
  1  2  2  0
  2  3  1  0
  3  4  2  0
  4  5  1  0
  5  6  1  0
  6  7  1  0
  7  8  1  0
  8  9  2  0
  9 10  1  0
 10 11  2  0
 11 12  1  0
 12 13  1  0
 12 14  2  0
 14 15  1  0
 15 16  2  0
 15 17  1  0
 17 18  1  0
  5 19  2  0
 19 20  1  0
 20 21  2  0
 21 22  1  0
 22 23  1  0
 21  3  1  0
 17  6  2  0
 14  8  1  0
  1 24  1  0
  1 25  1  0
  2 26  1  0
  4 27  1  0
  9 28  1  0
 10 29  1  0
 11 30  1  0
 13 31  1  0
 18 32  1  0
 19 33  1  0
 20 34  1  0
 22 35  1  0
 22 36  1  0
M  END
>  <meeko>  (1) 
{"is_sidechain": [false], "free_energy": -7.971, "intermolecular_energy": -9.835, "internal_energy": -0.497}

$$$$
cand_035_out
     RDKit          3D

 36 38  0  0  0  0  0  0  0  0999 V2000
   18.4950  -33.7530   39.6970 C   0  0  0  0  0  0  0  0  0  0  0  0
   19.0650  -33.6390   38.4910 C   0  0  0  0  0  0  0  0  0  0  0  0
   19.3250  -32.3320   37.8790 C   0  0  0  0  0  0  0  0  0  0  0  0
   19.2160  -31.1930   38.6940 C   0  0  0  0  0  0  0  0  0  0  0  0
   19.4480  -29.9060   38.1840 C   0  0  0  0  0  0  0  0  0  0  0  0
   19.2980  -28.7280   39.0630 C   0  0  0  0  0  0  0  0  0  0  0  0
   20.2200  -28.7110   40.1040 O   0  0  0  0  0  0  0  0  0  0  0  0
   20.1930  -27.6710   40.9970 C   0  0  0  0  0  0  0  0  0  0  0  0
   21.1270  -27.7000   42.0330 C   0  0  0  0  0  0  0  0  0  0  0  0
   21.1540  -26.6700   42.9760 C   0  0  0  0  0  0  0  0  0  0  0  0
   20.2480  -25.6110   42.8820 C   0  0  0  0  0  0  0  0  0  0  0  0
   19.3170  -25.5850   41.8470 C   0  0  0  0  0  0  0  0  0  0  0  0
   18.4610  -24.5180   41.8140 O   0  0  0  0  0  0  0  0  0  0  0  0
   19.2900  -26.6160   40.9040 C   0  0  0  0  0  0  0  0  0  0  0  0
   18.3280  -26.6250   39.8010 C   0  0  0  0  0  0  0  0  0  0  0  0
   17.5050  -25.7260   39.6460 O   0  0  0  0  0  0  0  0  0  0  0  0
   18.3780  -27.7680   38.8590 C   0  0  0  0  0  0  0  0  0  0  0  0
   17.4760  -27.7610   37.8120 O   0  0  0  0  0  0  0  0  0  0  0  0
   19.7770  -29.7780   36.8300 C   0  0  0  0  0  0  0  0  0  0  0  0
   19.8870  -30.9050   36.0100 C   0  0  0  0  0  0  0  0  0  0  0  0
   19.6660  -32.1920   36.5220 C   0  0  0  0  0  0  0  0  0  0  0  0
   19.7920  -33.3870   35.6120 C   0  0  0  0  0  0  0  0  0  0  0  0
   20.2170  -33.0690   34.3540 F   0  0  0  0  0  0  0  0  0  0  0  0
   18.3138  -34.7488   40.1278 H   0  0  0  0  0  0  0  0  0  0  0  0
   18.2079  -32.8509   40.2571 H   0  0  0  0  0  0  0  0  0  0  0  0
   19.3461  -34.5510   37.9440 H   0  0  0  0  0  0  0  0  0  0  0  0
   18.9434  -31.3121   39.7530 H   0  0  0  0  0  0  0  0  0  0  0  0
   21.8414  -28.5332   42.1071 H   0  0  0  0  0  0  0  0  0  0  0  0
   21.8895  -26.6928   43.7936 H   0  0  0  0  0  0  0  0  0  0  0  0
   20.2700  -24.7993   43.6241 H   0  0  0  0  0  0  0  0  0  0  0  0
   18.7100  -23.7300   41.3730 H   0  0  0  0  0  0  0  0  0  0  0  0
   17.5910  -28.3490   37.0910 H   0  0  0  0  0  0  0  0  0  0  0  0
   19.9512  -28.7783   36.4055 H   0  0  0  0  0  0  0  0  0  0  0  0
   20.1504  -30.7807   34.9492 H   0  0  0  0  0  0  0  0  0  0  0  0
   20.5129  -34.0890   36.0564 H   0  0  0  0  0  0  0  0  0  0  0  0
   18.7887  -33.8273   35.5139 H   0  0  0  0  0  0  0  0  0  0  0  0
  1  2  2  0
  2  3  1  0
  3  4  2  0
  4  5  1  0
  5  6  1  0
  6  7  1  0
  7  8  1  0
  8  9  2  0
  9 10  1  0
 10 11  2  0
 11 12  1  0
 12 13  1  0
 12 14  2  0
 14 15  1  0
 15 16  2  0
 15 17  1  0
 17 18  1  0
  5 19  2  0
 19 20  1  0
 20 21  2  0
 21 22  1  0
 22 23  1  0
 21  3  1  0
 17  6  2  0
 14  8  1  0
  1 24  1  0
  1 25  1  0
  2 26  1  0
  4 27  1  0
  9 28  1  0
 10 29  1  0
 11 30  1  0
 13 31  1  0
 18 32  1  0
 19 33  1  0
 20 34  1  0
 22 35  1  0
 22 36  1  0
M  END
>  <meeko>  (2) 
{"is_sidechain": [false], "free_energy": -7.556, "intermolecular_energy": -9.421, "internal_energy": -0.399}

$$$$
cand_035_out
     RDKit          3D

 36 38  0  0  0  0  0  0  0  0999 V2000
   20.0610  -30.2300   34.1540 C   0  0  0  0  0  0  0  0  0  0  0  0
   20.5520  -31.0760   35.0670 C   0  0  0  0  0  0  0  0  0  0  0  0
   19.9670  -31.1960   36.4060 C   0  0  0  0  0  0  0  0  0  0  0  0
   19.8390  -30.0260   37.1730 C   0  0  0  0  0  0  0  0  0  0  0  0
   19.2900  -30.0560   38.4640 C   0  0  0  0  0  0  0  0  0  0  0  0
   19.1970  -28.8100   39.2530 C   0  0  0  0  0  0  0  0  0  0  0  0
   20.1380  -28.7460   40.2740 O   0  0  0  0  0  0  0  0  0  0  0  0
   20.1630  -27.6410   41.0850 C   0  0  0  0  0  0  0  0  0  0  0  0
   21.1150  -27.6240   42.1050 C   0  0  0  0  0  0  0  0  0  0  0  0
   21.1940  -26.5260   42.9660 C   0  0  0  0  0  0  0  0  0  0  0  0
   20.3220  -25.4470   42.8060 C   0  0  0  0  0  0  0  0  0  0  0  0
   19.3730  -25.4670   41.7870 C   0  0  0  0  0  0  0  0  0  0  0  0
   18.5530  -24.3770   41.6870 O   0  0  0  0  0  0  0  0  0  0  0  0
   19.2940  -26.5650   40.9260 C   0  0  0  0  0  0  0  0  0  0  0  0
   18.3110  -26.6250   39.8430 C   0  0  0  0  0  0  0  0  0  0  0  0
   17.5160  -25.7120   39.6330 O   0  0  0  0  0  0  0  0  0  0  0  0
   18.3060  -27.8370   38.9910 C   0  0  0  0  0  0  0  0  0  0  0  0
   17.3850  -27.8780   37.9610 O   0  0  0  0  0  0  0  0  0  0  0  0
   18.8820  -31.2900   38.9840 C   0  0  0  0  0  0  0  0  0  0  0  0
   19.0050  -32.4600   38.2290 C   0  0  0  0  0  0  0  0  0  0  0  0
   19.5440  -32.4290   36.9340 C   0  0  0  0  0  0  0  0  0  0  0  0
   19.6630  -33.7090   36.1460 C   0  0  0  0  0  0  0  0  0  0  0  0
   18.4880  -34.3960   36.0460 F   0  0  0  0  0  0  0  0  0  0  0  0
   20.5246  -30.1654   33.1585 H   0  0  0  0  0  0  0  0  0  0  0  0
   19.1938  -29.5991   34.3989 H   0  0  0  0  0  0  0  0  0  0  0  0
   21.4197  -31.6995   34.8054 H   0  0  0  0  0  0  0  0  0  0  0  0
   20.1760  -29.0668   36.7530 H   0  0  0  0  0  0  0  0  0  0  0  0
   21.8023  -28.4735   42.2312 H   0  0  0  0  0  0  0  0  0  0  0  0
   21.9439  -26.5117   43.7706 H   0  0  0  0  0  0  0  0  0  0  0  0
   20.3846  -24.5828   43.4837 H   0  0  0  0  0  0  0  0  0  0  0  0
   17.6280  -24.4730   41.8010 H   0  0  0  0  0  0  0  0  0  0  0  0
   17.6520  -27.6800   37.0850 H   0  0  0  0  0  0  0  0  0  0  0  0
   18.4597  -31.3396   39.9985 H   0  0  0  0  0  0  0  0  0  0  0  0
   18.6746  -33.4183   38.6561 H   0  0  0  0  0  0  0  0  0  0  0  0
   20.0102  -33.4628   35.1317 H   0  0  0  0  0  0  0  0  0  0  0  0
   20.3722  -34.3559   36.6832 H   0  0  0  0  0  0  0  0  0  0  0  0
  1  2  2  0
  2  3  1  0
  3  4  2  0
  4  5  1  0
  5  6  1  0
  6  7  1  0
  7  8  1  0
  8  9  2  0
  9 10  1  0
 10 11  2  0
 11 12  1  0
 12 13  1  0
 12 14  2  0
 14 15  1  0
 15 16  2  0
 15 17  1  0
 17 18  1  0
  5 19  2  0
 19 20  1  0
 20 21  2  0
 21 22  1  0
 22 23  1  0
 21  3  1  0
 17  6  2  0
 14  8  1  0
  1 24  1  0
  1 25  1  0
  2 26  1  0
  4 27  1  0
  9 28  1  0
 10 29  1  0
 11 30  1  0
 13 31  1  0
 18 32  1  0
 19 33  1  0
 20 34  1  0
 22 35  1  0
 22 36  1  0
M  END
>  <meeko>  (3) 
{"is_sidechain": [false], "free_energy": -7.334, "intermolecular_energy": -9.046, "internal_energy": -0.5}

$$$$
cand_035_out
     RDKit          3D

 36 38  0  0  0  0  0  0  0  0999 V2000
   18.3620  -24.7070   37.2220 C   0  0  0  0  0  0  0  0  0  0  0  0
   17.8690  -25.3470   38.2890 C   0  0  0  0  0  0  0  0  0  0  0  0
   18.6280  -26.3900   38.9850 C   0  0  0  0  0  0  0  0  0  0  0  0
   18.6640  -27.6710   38.4090 C   0  0  0  0  0  0  0  0  0  0  0  0
   19.3670  -28.7230   39.0130 C   0  0  0  0  0  0  0  0  0  0  0  0
   19.3610  -30.0650   38.3930 C   0  0  0  0  0  0  0  0  0  0  0  0
   18.9470  -31.0620   39.2690 O   0  0  0  0  0  0  0  0  0  0  0  0
   18.8940  -32.3570   38.8210 C   0  0  0  0  0  0  0  0  0  0  0  0
   18.4870  -33.3290   39.7370 C   0  0  0  0  0  0  0  0  0  0  0  0
   18.4100  -34.6670   39.3450 C   0  0  0  0  0  0  0  0  0  0  0  0
   18.7400  -35.0330   38.0380 C   0  0  0  0  0  0  0  0  0  0  0  0
   19.1460  -34.0620   37.1260 C   0  0  0  0  0  0  0  0  0  0  0  0
   19.4520  -34.4910   35.8630 O   0  0  0  0  0  0  0  0  0  0  0  0
   19.2230  -32.7230   37.5190 C   0  0  0  0  0  0  0  0  0  0  0  0
   19.6440  -31.6720   36.5920 C   0  0  0  0  0  0  0  0  0  0  0  0
   19.9420  -31.9140   35.4250 O   0  0  0  0  0  0  0  0  0  0  0  0
   19.7000  -30.2850   37.1100 C   0  0  0  0  0  0  0  0  0  0  0  0
   20.0850  -29.2970   36.2230 O   0  0  0  0  0  0  0  0  0  0  0  0
   20.0260  -28.4740   40.2220 C   0  0  0  0  0  0  0  0  0  0  0  0
   19.9970  -27.2040   40.8040 C   0  0  0  0  0  0  0  0  0  0  0  0
   19.3020  -26.1480   40.1950 C   0  0  0  0  0  0  0  0  0  0  0  0
   19.2890  -24.7900   40.8490 C   0  0  0  0  0  0  0  0  0  0  0  0
   20.1100  -23.8850   40.2390 F   0  0  0  0  0  0  0  0  0  0  0  0
   17.7654  -23.9290   36.7231 H   0  0  0  0  0  0  0  0  0  0  0  0
   19.3638  -24.9590   36.8439 H   0  0  0  0  0  0  0  0  0  0  0  0
   16.8656  -25.0827   38.6541 H   0  0  0  0  0  0  0  0  0  0  0  0
   18.1296  -27.8523   37.4648 H   0  0  0  0  0  0  0  0  0  0  0  0
   18.2273  -33.0410   40.7664 H   0  0  0  0  0  0  0  0  0  0  0  0
   18.0892  -35.4333   40.0660 H   0  0  0  0  0  0  0  0  0  0  0  0
   18.6793  -36.0871   37.7294 H   0  0  0  0  0  0  0  0  0  0  0  0
   20.3400  -34.4730   35.5640 H   0  0  0  0  0  0  0  0  0  0  0  0
   19.5140  -29.0480   35.5230 H   0  0  0  0  0  0  0  0  0  0  0  0
   20.5734  -29.2877   40.7202 H   0  0  0  0  0  0  0  0  0  0  0  0
   20.5262  -27.0297   41.7525 H   0  0  0  0  0  0  0  0  0  0  0  0
   18.2606  -24.4005   40.8228 H   0  0  0  0  0  0  0  0  0  0  0  0
   19.6585  -24.9216   41.8767 H   0  0  0  0  0  0  0  0  0  0  0  0
  1  2  2  0
  2  3  1  0
  3  4  2  0
  4  5  1  0
  5  6  1  0
  6  7  1  0
  7  8  1  0
  8  9  2  0
  9 10  1  0
 10 11  2  0
 11 12  1  0
 12 13  1  0
 12 14  2  0
 14 15  1  0
 15 16  2  0
 15 17  1  0
 17 18  1  0
  5 19  2  0
 19 20  1  0
 20 21  2  0
 21 22  1  0
 22 23  1  0
 21  3  1  0
 17  6  2  0
 14  8  1  0
  1 24  1  0
  1 25  1  0
  2 26  1  0
  4 27  1  0
  9 28  1  0
 10 29  1  0
 11 30  1  0
 13 31  1  0
 18 32  1  0
 19 33  1  0
 20 34  1  0
 22 35  1  0
 22 36  1  0
M  END
>  <meeko>  (4) 
{"is_sidechain": [false], "free_energy": -7.14, "intermolecular_energy": -8.924, "internal_energy": -0.382}

$$$$
cand_035_out
     RDKit          3D

 36 38  0  0  0  0  0  0  0  0999 V2000
   22.3000  -27.6380   42.0250 C   0  0  0  0  0  0  0  0  0  0  0  0
   21.0240  -27.2430   42.1070 C   0  0  0  0  0  0  0  0  0  0  0  0
   20.1270  -27.2760   40.9480 C   0  0  0  0  0  0  0  0  0  0  0  0
   20.2220  -28.3740   40.0770 C   0  0  0  0  0  0  0  0  0  0  0  0
   19.4000  -28.4810   38.9450 C   0  0  0  0  0  0  0  0  0  0  0  0
   19.5460  -29.6360   38.0350 C   0  0  0  0  0  0  0  0  0  0  0  0
   19.8840  -29.2630   36.7390 O   0  0  0  0  0  0  0  0  0  0  0  0
   20.0510  -30.2390   35.7910 C   0  0  0  0  0  0  0  0  0  0  0  0
   20.3780  -29.8210   34.5000 C   0  0  0  0  0  0  0  0  0  0  0  0
   20.5630  -30.7640   33.4870 C   0  0  0  0  0  0  0  0  0  0  0  0
   20.4240  -32.1260   33.7650 C   0  0  0  0  0  0  0  0  0  0  0  0
   20.0980  -32.5410   35.0540 C   0  0  0  0  0  0  0  0  0  0  0  0
   19.9780  -33.8890   35.2560 O   0  0  0  0  0  0  0  0  0  0  0  0
   19.9120  -31.5960   36.0670 C   0  0  0  0  0  0  0  0  0  0  0  0
   19.5700  -31.9910   37.4340 C   0  0  0  0  0  0  0  0  0  0  0  0
   19.4370  -33.1690   37.7590 O   0  0  0  0  0  0  0  0  0  0  0  0
   19.3870  -30.9120   38.4320 C   0  0  0  0  0  0  0  0  0  0  0  0
   19.0780  -31.2940   39.7240 O   0  0  0  0  0  0  0  0  0  0  0  0
   18.4850  -27.4530   38.6890 C   0  0  0  0  0  0  0  0  0  0  0  0
   18.3830  -26.3560   39.5490 C   0  0  0  0  0  0  0  0  0  0  0  0
   19.1970  -26.2540   40.6870 C   0  0  0  0  0  0  0  0  0  0  0  0
   19.0630  -25.0580   41.5940 C   0  0  0  0  0  0  0  0  0  0  0  0
   19.9950  -24.0880   41.3560 F   0  0  0  0  0  0  0  0  0  0  0  0
   22.9457  -27.6001   42.9147 H   0  0  0  0  0  0  0  0  0  0  0  0
   22.7031  -28.0006   41.0679 H   0  0  0  0  0  0  0  0  0  0  0  0
   20.6371  -26.8832   43.0718 H   0  0  0  0  0  0  0  0  0  0  0  0
   20.9559  -29.1661   40.2867 H   0  0  0  0  0  0  0  0  0  0  0  0
   20.4899  -28.7489   34.2807 H   0  0  0  0  0  0  0  0  0  0  0  0
   20.8184  -30.4342   32.4692 H   0  0  0  0  0  0  0  0  0  0  0  0
   20.5717  -32.8691   32.9676 H   0  0  0  0  0  0  0  0  0  0  0  0
   19.1800  -34.2430   35.5960 H   0  0  0  0  0  0  0  0  0  0  0  0
   19.0510  -30.6540   40.4090 H   0  0  0  0  0  0  0  0  0  0  0  0
   17.8387  -27.5092   37.8006 H   0  0  0  0  0  0  0  0  0  0  0  0
   17.6543  -25.5615   39.3305 H   0  0  0  0  0  0  0  0  0  0  0  0
   18.0629  -24.6228   41.4513 H   0  0  0  0  0  0  0  0  0  0  0  0
   19.2199  -25.4126   42.6234 H   0  0  0  0  0  0  0  0  0  0  0  0
  1  2  2  0
  2  3  1  0
  3  4  2  0
  4  5  1  0
  5  6  1  0
  6  7  1  0
  7  8  1  0
  8  9  2  0
  9 10  1  0
 10 11  2  0
 11 12  1  0
 12 13  1  0
 12 14  2  0
 14 15  1  0
 15 16  2  0
 15 17  1  0
 17 18  1  0
  5 19  2  0
 19 20  1  0
 20 21  2  0
 21 22  1  0
 22 23  1  0
 21  3  1  0
 17  6  2  0
 14  8  1  0
  1 24  1  0
  1 25  1  0
  2 26  1  0
  4 27  1  0
  9 28  1  0
 10 29  1  0
 11 30  1  0
 13 31  1  0
 18 32  1  0
 19 33  1  0
 20 34  1  0
 22 35  1  0
 22 36  1  0
M  END
>  <meeko>  (5) 
{"is_sidechain": [false], "free_energy": -7.09, "intermolecular_energy": -8.828, "internal_energy": -0.417}

$$$$
cand_035_out
     RDKit          3D

 36 38  0  0  0  0  0  0  0  0999 V2000
   19.3510  -23.6700   37.9120 C   0  0  0  0  0  0  0  0  0  0  0  0
   19.6450  -24.8520   37.3560 C   0  0  0  0  0  0  0  0  0  0  0  0
   19.6230  -26.0970   38.1280 C   0  0  0  0  0  0  0  0  0  0  0  0
   20.3590  -26.1400   39.3250 C   0  0  0  0  0  0  0  0  0  0  0  0
   20.3900  -27.2950   40.1220 C   0  0  0  0  0  0  0  0  0  0  0  0
   21.1970  -27.3130   41.3600 C   0  0  0  0  0  0  0  0  0  0  0  0
   22.1950  -28.2800   41.3390 O   0  0  0  0  0  0  0  0  0  0  0  0
   23.0200  -28.4050   42.4280 C   0  0  0  0  0  0  0  0  0  0  0  0
   23.9990  -29.3980   42.3710 C   0  0  0  0  0  0  0  0  0  0  0  0
   24.8730  -29.5770   43.4460 C   0  0  0  0  0  0  0  0  0  0  0  0
   24.7660  -28.7650   44.5770 C   0  0  0  0  0  0  0  0  0  0  0  0
   23.7880  -27.7750   44.6310 C   0  0  0  0  0  0  0  0  0  0  0  0
   23.7410  -27.0150   45.7680 O   0  0  0  0  0  0  0  0  0  0  0  0
   22.9140  -27.5960   43.5550 C   0  0  0  0  0  0  0  0  0  0  0  0
   21.8720  -26.5680   43.5730 C   0  0  0  0  0  0  0  0  0  0  0  0
   21.7210  -25.8100   44.5270 O   0  0  0  0  0  0  0  0  0  0  0  0
   20.9930  -26.4650   42.3850 C   0  0  0  0  0  0  0  0  0  0  0  0
   20.0220  -25.4820   42.4030 O   0  0  0  0  0  0  0  0  0  0  0  0
   19.6800  -28.4200   39.6890 C   0  0  0  0  0  0  0  0  0  0  0  0
   18.9450  -28.3880   38.5000 C   0  0  0  0  0  0  0  0  0  0  0  0
   18.9050  -27.2310   37.7090 C   0  0  0  0  0  0  0  0  0  0  0  0
   18.1040  -27.2290   36.4320 C   0  0  0  0  0  0  0  0  0  0  0  0
   18.8620  -27.4350   35.3140 F   0  0  0  0  0  0  0  0  0  0  0  0
   19.3772  -22.7541   37.3033 H   0  0  0  0  0  0  0  0  0  0  0  0
   19.0833  -23.6148   38.9775 H   0  0  0  0  0  0  0  0  0  0  0  0
   19.9106  -24.8894   36.2892 H   0  0  0  0  0  0  0  0  0  0  0  0
   20.9221  -25.2503   39.6435 H   0  0  0  0  0  0  0  0  0  0  0  0
   24.0823  -30.0388   41.4808 H   0  0  0  0  0  0  0  0  0  0  0  0
   25.6461  -30.3582   43.4015 H   0  0  0  0  0  0  0  0  0  0  0  0
   25.4532  -28.9071   45.4241 H   0  0  0  0  0  0  0  0  0  0  0  0
   23.7230  -27.4290   46.6090 H   0  0  0  0  0  0  0  0  0  0  0  0
   20.0500  -24.8070   43.0530 H   0  0  0  0  0  0  0  0  0  0  0  0
   19.7002  -29.3404   40.2910 H   0  0  0  0  0  0  0  0  0  0  0  0
   18.3905  -29.2828   38.1808 H   0  0  0  0  0  0  0  0  0  0  0  0
   17.3492  -28.0268   36.4930 H   0  0  0  0  0  0  0  0  0  0  0  0
   17.6495  -26.2319   36.3361 H   0  0  0  0  0  0  0  0  0  0  0  0
  1  2  2  0
  2  3  1  0
  3  4  2  0
  4  5  1  0
  5  6  1  0
  6  7  1  0
  7  8  1  0
  8  9  2  0
  9 10  1  0
 10 11  2  0
 11 12  1  0
 12 13  1  0
 12 14  2  0
 14 15  1  0
 15 16  2  0
 15 17  1  0
 17 18  1  0
  5 19  2  0
 19 20  1  0
 20 21  2  0
 21 22  1  0
 22 23  1  0
 21  3  1  0
 17  6  2  0
 14  8  1  0
  1 24  1  0
  1 25  1  0
  2 26  1  0
  4 27  1  0
  9 28  1  0
 10 29  1  0
 11 30  1  0
 13 31  1  0
 18 32  1  0
 19 33  1  0
 20 34  1  0
 22 35  1  0
 22 36  1  0
M  END
>  <meeko>  (6) 
{"is_sidechain": [false], "free_energy": -7.048, "intermolecular_energy": -8.779, "internal_energy": -0.414}

$$$$
cand_035_out
     RDKit          3D

 36 38  0  0  0  0  0  0  0  0999 V2000
   23.9840  -29.8510   42.3570 C   0  0  0  0  0  0  0  0  0  0  0  0
   23.9540  -28.5130   42.3330 C   0  0  0  0  0  0  0  0  0  0  0  0
   22.6930  -27.7660   42.3550 C   0  0  0  0  0  0  0  0  0  0  0  0
   22.0500  -27.5280   41.1280 C   0  0  0  0  0  0  0  0  0  0  0  0
   20.8400  -26.8210   41.0630 C   0  0  0  0  0  0  0  0  0  0  0  0
   20.2060  -26.5660   39.7530 C   0  0  0  0  0  0  0  0  0  0  0  0
   20.0290  -25.2110   39.4940 O   0  0  0  0  0  0  0  0  0  0  0  0
   19.4500  -24.8320   38.3100 C   0  0  0  0  0  0  0  0  0  0  0  0
   19.2790  -23.4640   38.0970 C   0  0  0  0  0  0  0  0  0  0  0  0
   18.6970  -23.0110   36.9110 C   0  0  0  0  0  0  0  0  0  0  0  0
   18.2880  -23.9250   35.9390 C   0  0  0  0  0  0  0  0  0  0  0  0
   18.4600  -25.2910   36.1540 C   0  0  0  0  0  0  0  0  0  0  0  0
   18.0380  -26.1300   35.1590 O   0  0  0  0  0  0  0  0  0  0  0  0
   19.0420  -25.7440   37.3410 C   0  0  0  0  0  0  0  0  0  0  0  0
   19.2410  -27.1690   37.6050 C   0  0  0  0  0  0  0  0  0  0  0  0
   18.9150  -28.0340   36.7960 O   0  0  0  0  0  0  0  0  0  0  0  0
   19.8600  -27.5450   38.8980 C   0  0  0  0  0  0  0  0  0  0  0  0
   20.0580  -28.8920   39.1330 O   0  0  0  0  0  0  0  0  0  0  0  0
   20.2880  -26.3390   42.2550 C   0  0  0  0  0  0  0  0  0  0  0  0
   20.9190  -26.5700   43.4810 C   0  0  0  0  0  0  0  0  0  0  0  0
   22.1240  -27.2860   43.5470 C   0  0  0  0  0  0  0  0  0  0  0  0
   22.7800  -27.5170   44.8850 C   0  0  0  0  0  0  0  0  0  0  0  0
   22.6720  -28.8050   45.3270 F   0  0  0  0  0  0  0  0  0  0  0  0
   24.9483  -30.3799   42.3394 H   0  0  0  0  0  0  0  0  0  0  0  0
   23.0443  -30.4216   42.3943 H   0  0  0  0  0  0  0  0  0  0  0  0
   24.9030  -27.9580   42.2957 H   0  0  0  0  0  0  0  0  0  0  0  0
   22.5049  -27.9038   40.1996 H   0  0  0  0  0  0  0  0  0  0  0  0
   19.6022  -22.7429   38.8623 H   0  0  0  0  0  0  0  0  0  0  0  0
   18.5608  -21.9325   36.7429 H   0  0  0  0  0  0  0  0  0  0  0  0
   17.8306  -23.5677   35.0046 H   0  0  0  0  0  0  0  0  0  0  0  0
   17.1230  -26.2920   35.0390 H   0  0  0  0  0  0  0  0  0  0  0  0
   19.4000  -29.3930   39.5750 H   0  0  0  0  0  0  0  0  0  0  0  0
   19.3461  -25.7714   42.2271 H   0  0  0  0  0  0  0  0  0  0  0  0
   20.4649  -26.1854   44.4061 H   0  0  0  0  0  0  0  0  0  0  0  0
   23.8476  -27.2667   44.7978 H   0  0  0  0  0  0  0  0  0  0  0  0
   22.2615  -26.8785   45.6154 H   0  0  0  0  0  0  0  0  0  0  0  0
  1  2  2  0
  2  3  1  0
  3  4  2  0
  4  5  1  0
  5  6  1  0
  6  7  1  0
  7  8  1  0
  8  9  2  0
  9 10  1  0
 10 11  2  0
 11 12  1  0
 12 13  1  0
 12 14  2  0
 14 15  1  0
 15 16  2  0
 15 17  1  0
 17 18  1  0
  5 19  2  0
 19 20  1  0
 20 21  2  0
 21 22  1  0
 22 23  1  0
 21  3  1  0
 17  6  2  0
 14  8  1  0
  1 24  1  0
  1 25  1  0
  2 26  1  0
  4 27  1  0
  9 28  1  0
 10 29  1  0
 11 30  1  0
 13 31  1  0
 18 32  1  0
 19 33  1  0
 20 34  1  0
 22 35  1  0
 22 36  1  0
M  END
>  <meeko>  (7) 
{"is_sidechain": [false], "free_energy": -6.867, "intermolecular_energy": -8.566, "internal_energy": -0.404}

$$$$
cand_035_out
     RDKit          3D

 36 38  0  0  0  0  0  0  0  0999 V2000
   22.1750  -25.3410   45.5450 C   0  0  0  0  0  0  0  0  0  0  0  0
   22.6520  -26.5750   45.3420 C   0  0  0  0  0  0  0  0  0  0  0  0
   22.6940  -27.1790   44.0070 C   0  0  0  0  0  0  0  0  0  0  0  0
   21.7600  -26.7340   43.0560 C   0  0  0  0  0  0  0  0  0  0  0  0
   21.7340  -27.2610   41.7570 C   0  0  0  0  0  0  0  0  0  0  0  0
   20.7200  -26.7890   40.7910 C   0  0  0  0  0  0  0  0  0  0  0  0
   20.6160  -25.4030   40.7520 O   0  0  0  0  0  0  0  0  0  0  0  0
   19.7110  -24.8290   39.8960 C   0  0  0  0  0  0  0  0  0  0  0  0
   19.6310  -23.4360   39.8980 C   0  0  0  0  0  0  0  0  0  0  0  0
   18.7300  -22.7890   39.0500 C   0  0  0  0  0  0  0  0  0  0  0  0
   17.9110  -23.5340   38.1990 C   0  0  0  0  0  0  0  0  0  0  0  0
   17.9930  -24.9240   38.1990 C   0  0  0  0  0  0  0  0  0  0  0  0
   17.1620  -25.5920   37.3400 O   0  0  0  0  0  0  0  0  0  0  0  0
   18.8940  -25.5720   39.0490 C   0  0  0  0  0  0  0  0  0  0  0  0
   19.0110  -27.0300   39.0790 C   0  0  0  0  0  0  0  0  0  0  0  0
   18.3310  -27.7540   38.3560 O   0  0  0  0  0  0  0  0  0  0  0  0
   19.9920  -27.6180   40.0210 C   0  0  0  0  0  0  0  0  0  0  0  0
   20.1070  -28.9950   40.0320 O   0  0  0  0  0  0  0  0  0  0  0  0
   22.6550  -28.2610   41.4270 C   0  0  0  0  0  0  0  0  0  0  0  0
   23.5890  -28.7110   42.3650 C   0  0  0  0  0  0  0  0  0  0  0  0
   23.6220  -28.1760   43.6610 C   0  0  0  0  0  0  0  0  0  0  0  0
   24.6410  -28.6840   44.6500 C   0  0  0  0  0  0  0  0  0  0  0  0
   25.6640  -29.3770   44.0680 F   0  0  0  0  0  0  0  0  0  0  0  0
   22.1580  -24.9180   46.5603 H   0  0  0  0  0  0  0  0  0  0  0  0
   21.7999  -24.7498   44.6965 H   0  0  0  0  0  0  0  0  0  0  0  0
   23.0231  -27.1524   46.2016 H   0  0  0  0  0  0  0  0  0  0  0  0
   21.0344  -25.9563   43.3365 H   0  0  0  0  0  0  0  0  0  0  0  0
   20.2770  -22.8483   40.5668 H   0  0  0  0  0  0  0  0  0  0  0  0
   18.6652  -21.6909   39.0523 H   0  0  0  0  0  0  0  0  0  0  0  0
   17.2025  -23.0238   37.5300 H   0  0  0  0  0  0  0  0  0  0  0  0
   16.5490  -26.2180   37.6720 H   0  0  0  0  0  0  0  0  0  0  0  0
   19.3420  -29.5290   40.1240 H   0  0  0  0  0  0  0  0  0  0  0  0
   22.6442  -28.6983   40.4177 H   0  0  0  0  0  0  0  0  0  0  0  0
   24.3073  -29.4949   42.0828 H   0  0  0  0  0  0  0  0  0  0  0  0
   25.0647  -27.8228   45.1873 H   0  0  0  0  0  0  0  0  0  0  0  0
   24.1200  -29.3798   45.3242 H   0  0  0  0  0  0  0  0  0  0  0  0
  1  2  2  0
  2  3  1  0
  3  4  2  0
  4  5  1  0
  5  6  1  0
  6  7  1  0
  7  8  1  0
  8  9  2  0
  9 10  1  0
 10 11  2  0
 11 12  1  0
 12 13  1  0
 12 14  2  0
 14 15  1  0
 15 16  2  0
 15 17  1  0
 17 18  1  0
  5 19  2  0
 19 20  1  0
 20 21  2  0
 21 22  1  0
 22 23  1  0
 21  3  1  0
 17  6  2  0
 14  8  1  0
  1 24  1  0
  1 25  1  0
  2 26  1  0
  4 27  1  0
  9 28  1  0
 10 29  1  0
 11 30  1  0
 13 31  1  0
 18 32  1  0
 19 33  1  0
 20 34  1  0
 22 35  1  0
 22 36  1  0
M  END
>  <meeko>  (8) 
{"is_sidechain": [false], "free_energy": -6.823, "intermolecular_energy": -8.691, "internal_energy": -0.224}

$$$$
cand_035_out
     RDKit          3D

 36 38  0  0  0  0  0  0  0  0999 V2000
   20.5800  -31.1130   34.5920 C   0  0  0  0  0  0  0  0  0  0  0  0
   20.1470  -31.9450   35.5460 C   0  0  0  0  0  0  0  0  0  0  0  0
   19.7320  -31.4610   36.8660 C   0  0  0  0  0  0  0  0  0  0  0  0
   19.7460  -30.0730   37.0890 C   0  0  0  0  0  0  0  0  0  0  0  0
   19.3640  -29.5290   38.3250 C   0  0  0  0  0  0  0  0  0  0  0  0
   19.4160  -28.0670   38.5330 C   0  0  0  0  0  0  0  0  0  0  0  0
   18.6070  -27.3670   37.6460 O   0  0  0  0  0  0  0  0  0  0  0  0
   18.5610  -25.9990   37.7280 C   0  0  0  0  0  0  0  0  0  0  0  0
   17.7470  -25.3340   36.8100 C   0  0  0  0  0  0  0  0  0  0  0  0
   17.6550  -23.9410   36.8410 C   0  0  0  0  0  0  0  0  0  0  0  0
   18.3750  -23.2130   37.7900 C   0  0  0  0  0  0  0  0  0  0  0  0
   19.1870  -23.8780   38.7050 C   0  0  0  0  0  0  0  0  0  0  0  0
   19.8630  -23.1030   39.6070 O   0  0  0  0  0  0  0  0  0  0  0  0
   19.2800  -25.2720   38.6740 C   0  0  0  0  0  0  0  0  0  0  0  0
   20.1210  -26.0090   39.6180 C   0  0  0  0  0  0  0  0  0  0  0  0
   20.7780  -25.4410   40.4860 O   0  0  0  0  0  0  0  0  0  0  0  0
   20.1550  -27.4850   39.4950 C   0  0  0  0  0  0  0  0  0  0  0  0
   20.9400  -28.1740   40.4000 O   0  0  0  0  0  0  0  0  0  0  0  0
   18.9810  -30.4050   39.3470 C   0  0  0  0  0  0  0  0  0  0  0  0
   18.9640  -31.7870   39.1350 C   0  0  0  0  0  0  0  0  0  0  0  0
   19.3360  -32.3310   37.8970 C   0  0  0  0  0  0  0  0  0  0  0  0
   19.3080  -33.8260   37.7010 C   0  0  0  0  0  0  0  0  0  0  0  0
   19.6590  -34.5260   38.8200 F   0  0  0  0  0  0  0  0  0  0  0  0
   20.8838  -31.5102   33.6122 H   0  0  0  0  0  0  0  0  0  0  0  0
   20.6322  -30.0318   34.7874 H   0  0  0  0  0  0  0  0  0  0  0  0
   20.1011  -33.0234   35.3338 H   0  0  0  0  0  0  0  0  0  0  0  0
   20.0627  -29.4000   36.2786 H   0  0  0  0  0  0  0  0  0  0  0  0
   17.1783  -25.9067   36.0626 H   0  0  0  0  0  0  0  0  0  0  0  0
   17.0144  -23.4166   36.1167 H   0  0  0  0  0  0  0  0  0  0  0  0
   18.3009  -22.1158   37.8149 H   0  0  0  0  0  0  0  0  0  0  0  0
   20.0860  -23.4490   40.4490 H   0  0  0  0  0  0  0  0  0  0  0  0
   21.1440  -29.0770   40.2520 H   0  0  0  0  0  0  0  0  0  0  0  0
   18.6900  -30.0018   40.3282 H   0  0  0  0  0  0  0  0  0  0  0  0
   18.6545  -32.4570   39.9507 H   0  0  0  0  0  0  0  0  0  0  0  0
   18.2887  -34.1207   37.4107 H   0  0  0  0  0  0  0  0  0  0  0  0
   20.0474  -34.0656   36.9226 H   0  0  0  0  0  0  0  0  0  0  0  0
  1  2  2  0
  2  3  1  0
  3  4  2  0
  4  5  1  0
  5  6  1  0
  6  7  1  0
  7  8  1  0
  8  9  2  0
  9 10  1  0
 10 11  2  0
 11 12  1  0
 12 13  1  0
 12 14  2  0
 14 15  1  0
 15 16  2  0
 15 17  1  0
 17 18  1  0
  5 19  2  0
 19 20  1  0
 20 21  2  0
 21 22  1  0
 22 23  1  0
 21  3  1  0
 17  6  2  0
 14  8  1  0
  1 24  1  0
  1 25  1  0
  2 26  1  0
  4 27  1  0
  9 28  1  0
 10 29  1  0
 11 30  1  0
 13 31  1  0
 18 32  1  0
 19 33  1  0
 20 34  1  0
 22 35  1  0
 22 36  1  0
M  END
>  <meeko>  (9) 
{"is_sidechain": [false], "free_energy": -6.671, "intermolecular_energy": -8.371, "internal_energy": -0.357}

$$$$
