cand_011_out
     RDKit          3D

 35 37  0  0  0  0  0  0  0  0999 V2000
   19.7240  -33.5080   35.8660 C   0  0  0  0  0  0  0  0  0  0  0  0
   19.5990  -32.3020   36.7590 C   0  0  0  0  0  0  0  0  0  0  0  0
   19.8610  -31.0300   36.2300 C   0  0  0  0  0  0  0  0  0  0  0  0
   19.7520  -29.8880   37.0260 C   0  0  0  0  0  0  0  0  0  0  0  0
   19.3820  -29.9840   38.3720 C   0  0  0  0  0  0  0  0  0  0  0  0
   19.2550  -28.7600   39.1910 C   0  0  0  0  0  0  0  0  0  0  0  0
   20.1630  -28.7150   40.2410 O   0  0  0  0  0  0  0  0  0  0  0  0
   20.1510  -27.6300   41.0810 C   0  0  0  0  0  0  0  0  0  0  0  0
   21.0890  -27.6190   42.1140 C   0  0  0  0  0  0  0  0  0  0  0  0
   21.1310  -26.5440   43.0060 C   0  0  0  0  0  0  0  0  0  0  0  0
   20.2340  -25.4830   42.8640 C   0  0  0  0  0  0  0  0  0  0  0  0
   19.2990  -25.4970   41.8330 C   0  0  0  0  0  0  0  0  0  0  0  0
   18.4510  -24.4270   41.7530 O   0  0  0  0  0  0  0  0  0  0  0  0
   19.2580  -26.5720   40.9400 C   0  0  0  0  0  0  0  0  0  0  0  0
   18.2910  -26.6260   39.8430 C   0  0  0  0  0  0  0  0  0  0  0  0
   17.4650  -25.7350   39.6570 O   0  0  0  0  0  0  0  0  0  0  0  0
   18.3370  -27.8050   38.9480 C   0  0  0  0  0  0  0  0  0  0  0  0
   17.4130  -27.8550   37.9220 O   0  0  0  0  0  0  0  0  0  0  0  0
   19.1040  -31.2550   38.8970 C   0  0  0  0  0  0  0  0  0  0  0  0
   19.2070  -32.4210   38.1090 C   0  0  0  0  0  0  0  0  0  0  0  0
   18.9020  -33.7650   38.7330 C   0  0  0  0  0  0  0  0  0  0  0  0
   17.8660  -34.4040   38.1210 F   0  0  0  0  0  0  0  0  0  0  0  0
   19.9480  -34.6390   38.6930 F   0  0  0  0  0  0  0  0  0  0  0  0
   18.5590  -33.6700   40.0490 F   0  0  0  0  0  0  0  0  0  0  0  0
   19.8178  -34.4134   36.4836 H   0  0  0  0  0  0  0  0  0  0  0  0
   18.8294  -33.5884   35.2310 H   0  0  0  0  0  0  0  0  0  0  0  0
   20.6161  -33.4032   35.2310 H   0  0  0  0  0  0  0  0  0  0  0  0
   20.1560  -30.9307   35.1750 H   0  0  0  0  0  0  0  0  0  0  0  0
   19.9597  -28.9000   36.5892 H   0  0  0  0  0  0  0  0  0  0  0  0
   21.7945  -28.4555   42.2261 H   0  0  0  0  0  0  0  0  0  0  0  0
   21.8707  -26.5335   43.8201 H   0  0  0  0  0  0  0  0  0  0  0  0
   20.2664  -24.6370   43.5663 H   0  0  0  0  0  0  0  0  0  0  0  0
   18.0100  -24.2370   40.9480 H   0  0  0  0  0  0  0  0  0  0  0  0
   16.9180  -27.0920   37.7000 H   0  0  0  0  0  0  0  0  0  0  0  0
   18.7979  -31.3449   39.9497 H   0  0  0  0  0  0  0  0  0  0  0  0
  1  2  1  0
  2  3  2  0
  3  4  1  0
  4  5  2  0
  5  6  1  0
  6  7  1  0
  7  8  1  0
  8  9  2  0
  9 10  1  0
 10 11  2  0
 11 12  1  0
 12 13  1  0
 12 14  2  0
 14 15  1  0
 15 16  2  0
 15 17  1  0
 17 18  1  0
  5 19  1  0
 19 20  2  0
 20 21  1  0
 21 22  1  0
 21 23  1  0
 21 24  1  0
 20  2  1  0
 17  6  2  0
 14  8  1  0
  1 25  1  0
  1 26  1  0
  1 27  1  0
  3 28  1  0
  4 29  1  0
  9 30  1  0
 10 31  1  0
 11 32  1  0
 13 33  1  0
 18 34  1  0
 19 35  1  0
M  END
>  <meeko>  (1) 
{"is_sidechain": [false], "free_energy": -8.416, "intermolecular_energy": -9.892, "internal_energy": -0.326}

$$$$
cand_011_out
     RDKit          3D

 35 37  0  0  0  0  0  0  0  0999 V2000
   19.0600  -25.2150   40.7910 C   0  0  0  0  0  0  0  0  0  0  0  0
   19.1380  -26.5930   40.1900 C   0  0  0  0  0  0  0  0  0  0  0  0
   18.1860  -26.9780   39.2360 C   0  0  0  0  0  0  0  0  0  0  0  0
   18.2290  -28.2470   38.6540 C   0  0  0  0  0  0  0  0  0  0  0  0
   19.2220  -29.1660   39.0090 C   0  0  0  0  0  0  0  0  0  0  0  0
   19.2590  -30.4960   38.3660 C   0  0  0  0  0  0  0  0  0  0  0  0
   18.8470  -31.5180   39.2130 O   0  0  0  0  0  0  0  0  0  0  0  0
   18.8350  -32.8060   38.7390 C   0  0  0  0  0  0  0  0  0  0  0  0
   18.4010  -33.8000   39.6180 C   0  0  0  0  0  0  0  0  0  0  0  0
   18.3650  -35.1320   39.2000 C   0  0  0  0  0  0  0  0  0  0  0  0
   18.7640  -35.4700   37.9040 C   0  0  0  0  0  0  0  0  0  0  0  0
   19.1960  -34.4760   37.0300 C   0  0  0  0  0  0  0  0  0  0  0  0
   19.5730  -34.8770   35.7780 O   0  0  0  0  0  0  0  0  0  0  0  0
   19.2310  -33.1430   37.4480 C   0  0  0  0  0  0  0  0  0  0  0  0
   19.6800  -32.0690   36.5610 C   0  0  0  0  0  0  0  0  0  0  0  0
   20.0530  -32.2870   35.4100 O   0  0  0  0  0  0  0  0  0  0  0  0
   19.6710  -30.6890   37.0990 C   0  0  0  0  0  0  0  0  0  0  0  0
   20.1080  -29.6820   36.2600 O   0  0  0  0  0  0  0  0  0  0  0  0
   20.1850  -28.7740   39.9510 C   0  0  0  0  0  0  0  0  0  0  0  0
   20.1590  -27.4980   40.5500 C   0  0  0  0  0  0  0  0  0  0  0  0
   21.2210  -27.1360   41.5660 C   0  0  0  0  0  0  0  0  0  0  0  0
   22.1050  -26.2130   41.0940 F   0  0  0  0  0  0  0  0  0  0  0  0
   20.7200  -26.6080   42.7190 F   0  0  0  0  0  0  0  0  0  0  0  0
   21.9690  -28.2080   41.9530 F   0  0  0  0  0  0  0  0  0  0  0  0
   19.0644  -25.2927   41.8882 H   0  0  0  0  0  0  0  0  0  0  0  0
   19.9260  -24.6219   40.4620 H   0  0  0  0  0  0  0  0  0  0  0  0
   18.1326  -24.7234   40.4620 H   0  0  0  0  0  0  0  0  0  0  0  0
   17.3953  -26.2721   38.9420 H   0  0  0  0  0  0  0  0  0  0  0  0
   17.4721  -28.5274   37.9067 H   0  0  0  0  0  0  0  0  0  0  0  0
   18.0878  -33.5344   40.6385 H   0  0  0  0  0  0  0  0  0  0  0  0
   18.0223  -35.9158   39.8915 H   0  0  0  0  0  0  0  0  0  0  0  0
   18.7368  -36.5193   37.5751 H   0  0  0  0  0  0  0  0  0  0  0  0
   18.9640  -35.3310   35.2280 H   0  0  0  0  0  0  0  0  0  0  0  0
   19.6840  -28.8460   36.2710 H   0  0  0  0  0  0  0  0  0  0  0  0
   20.9809  -29.4805   40.2294 H   0  0  0  0  0  0  0  0  0  0  0  0
  1  2  1  0
  2  3  2  0
  3  4  1  0
  4  5  2  0
  5  6  1  0
  6  7  1  0
  7  8  1  0
  8  9  2  0
  9 10  1  0
 10 11  2  0
 11 12  1  0
 12 13  1  0
 12 14  2  0
 14 15  1  0
 15 16  2  0
 15 17  1  0
 17 18  1  0
  5 19  1  0
 19 20  2  0
 20 21  1  0
 21 22  1  0
 21 23  1  0
 21 24  1  0
 20  2  1  0
 17  6  2  0
 14  8  1  0
  1 25  1  0
  1 26  1  0
  1 27  1  0
  3 28  1  0
  4 29  1  0
  9 30  1  0
 10 31  1  0
 11 32  1  0
 13 33  1  0
 18 34  1  0
 19 35  1  0
M  END
>  <meeko>  (2) 
{"is_sidechain": [false], "free_energy": -8.067, "intermolecular_energy": -9.439, "internal_energy": -0.368}

$$$$
cand_011_out
     RDKit          3D

 35 37  0  0  0  0  0  0  0  0999 V2000
   19.8260  -33.3330   35.4930 C   0  0  0  0  0  0  0  0  0  0  0  0
   19.6940  -32.1100   36.3620 C   0  0  0  0  0  0  0  0  0  0  0  0
   19.2800  -32.2590   37.6930 C   0  0  0  0  0  0  0  0  0  0  0  0
   19.1500  -31.1490   38.5300 C   0  0  0  0  0  0  0  0  0  0  0  0
   19.4270  -29.8610   38.0620 C   0  0  0  0  0  0  0  0  0  0  0  0
   19.3010  -28.7020   38.9720 C   0  0  0  0  0  0  0  0  0  0  0  0
   20.2140  -28.7350   40.0190 O   0  0  0  0  0  0  0  0  0  0  0  0
   20.2040  -27.7170   40.9390 C   0  0  0  0  0  0  0  0  0  0  0  0
   21.1460  -27.7820   41.9660 C   0  0  0  0  0  0  0  0  0  0  0  0
   21.1900  -26.7780   42.9360 C   0  0  0  0  0  0  0  0  0  0  0  0
   20.2900  -25.7100   42.8790 C   0  0  0  0  0  0  0  0  0  0  0  0
   19.3510  -25.6490   41.8530 C   0  0  0  0  0  0  0  0  0  0  0  0
   18.5000  -24.5770   41.8590 O   0  0  0  0  0  0  0  0  0  0  0  0
   19.3080  -26.6530   40.8820 C   0  0  0  0  0  0  0  0  0  0  0  0
   18.3370  -26.6260   39.7880 C   0  0  0  0  0  0  0  0  0  0  0  0
   17.5080  -25.7250   39.6740 O   0  0  0  0  0  0  0  0  0  0  0  0
   18.3810  -27.7340   38.8060 C   0  0  0  0  0  0  0  0  0  0  0  0
   17.4520  -27.7080   37.7830 O   0  0  0  0  0  0  0  0  0  0  0  0
   19.8580  -29.7130   36.7350 C   0  0  0  0  0  0  0  0  0  0  0  0
   19.9960  -30.8210   35.8730 C   0  0  0  0  0  0  0  0  0  0  0  0
   20.4570  -30.5990   34.4490 C   0  0  0  0  0  0  0  0  0  0  0  0
   21.5940  -31.2890   34.1520 F   0  0  0  0  0  0  0  0  0  0  0  0
   19.5430  -30.9770   33.5110 F   0  0  0  0  0  0  0  0  0  0  0  0
   20.7320  -29.2910   34.1820 F   0  0  0  0  0  0  0  0  0  0  0  0
   19.9223  -34.2257   36.1285 H   0  0  0  0  0  0  0  0  0  0  0  0
   18.9331  -33.4297   34.8579 H   0  0  0  0  0  0  0  0  0  0  0  0
   20.7190  -33.2369   34.8579 H   0  0  0  0  0  0  0  0  0  0  0  0
   19.0548  -33.2627   38.0828 H   0  0  0  0  0  0  0  0  0  0  0  0
   18.8253  -31.2898   39.5715 H   0  0  0  0  0  0  0  0  0  0  0  0
   21.8534  -28.6231   42.0118 H   0  0  0  0  0  0  0  0  0  0  0  0
   21.9334  -26.8278   43.7453 H   0  0  0  0  0  0  0  0  0  0  0  0
   20.3236  -24.9195   43.6432 H   0  0  0  0  0  0  0  0  0  0  0  0
   17.6260  -24.6720   41.5350 H   0  0  0  0  0  0  0  0  0  0  0  0
   17.6980  -27.3940   36.9350 H   0  0  0  0  0  0  0  0  0  0  0  0
   20.0943  -28.7073   36.3572 H   0  0  0  0  0  0  0  0  0  0  0  0
  1  2  1  0
  2  3  2  0
  3  4  1  0
  4  5  2  0
  5  6  1  0
  6  7  1  0
  7  8  1  0
  8  9  2  0
  9 10  1  0
 10 11  2  0
 11 12  1  0
 12 13  1  0
 12 14  2  0
 14 15  1  0
 15 16  2  0
 15 17  1  0
 17 18  1  0
  5 19  1  0
 19 20  2  0
 20 21  1  0
 21 22  1  0
 21 23  1  0
 21 24  1  0
 20  2  1  0
 17  6  2  0
 14  8  1  0
  1 25  1  0
  1 26  1  0
  1 27  1  0
  3 28  1  0
  4 29  1  0
  9 30  1  0
 10 31  1  0
 11 32  1  0
 13 33  1  0
 18 34  1  0
 19 35  1  0
M  END
>  <meeko>  (3) 
{"is_sidechain": [false], "free_energy": -7.985, "intermolecular_energy": -9.35, "internal_energy": -0.362}

$$$$
cand_011_out
     RDKit          3D

 35 37  0  0  0  0  0  0  0  0999 V2000
   19.8290  -24.7220   40.5330 C   0  0  0  0  0  0  0  0  0  0  0  0
   19.7360  -26.0840   39.8980 C   0  0  0  0  0  0  0  0  0  0  0  0
   20.1100  -27.2120   40.6410 C   0  0  0  0  0  0  0  0  0  0  0  0
   20.0330  -28.4910   40.0870 C   0  0  0  0  0  0  0  0  0  0  0  0
   19.5830  -28.6800   38.7760 C   0  0  0  0  0  0  0  0  0  0  0  0
   19.4920  -30.0450   38.2170 C   0  0  0  0  0  0  0  0  0  0  0  0
   19.1100  -30.9920   39.1600 O   0  0  0  0  0  0  0  0  0  0  0  0
   18.9880  -32.3020   38.7720 C   0  0  0  0  0  0  0  0  0  0  0  0
   18.5880  -33.2170   39.7470 C   0  0  0  0  0  0  0  0  0  0  0  0
   18.4450  -34.5670   39.4190 C   0  0  0  0  0  0  0  0  0  0  0  0
   18.7030  -35.0010   38.1160 C   0  0  0  0  0  0  0  0  0  0  0  0
   19.1020  -34.0860   37.1460 C   0  0  0  0  0  0  0  0  0  0  0  0
   19.3380  -34.5800   35.8920 O   0  0  0  0  0  0  0  0  0  0  0  0
   19.2440  -32.7350   37.4750 C   0  0  0  0  0  0  0  0  0  0  0  0
   19.6610  -31.7420   36.4850 C   0  0  0  0  0  0  0  0  0  0  0  0
   19.9130  -32.0460   35.3200 O   0  0  0  0  0  0  0  0  0  0  0  0
   19.7730  -30.3350   36.9330 C   0  0  0  0  0  0  0  0  0  0  0  0
   20.1800  -29.4040   35.9950 O   0  0  0  0  0  0  0  0  0  0  0  0
   19.1930  -27.5530   38.0380 C   0  0  0  0  0  0  0  0  0  0  0  0
   19.2630  -26.2520   38.5790 C   0  0  0  0  0  0  0  0  0  0  0  0
   18.8360  -25.0740   37.7310 C   0  0  0  0  0  0  0  0  0  0  0  0
   17.7330  -24.4450   38.2250 F   0  0  0  0  0  0  0  0  0  0  0  0
   19.7890  -24.1060   37.6150 F   0  0  0  0  0  0  0  0  0  0  0  0
   18.5230  -25.4290   36.4530 F   0  0  0  0  0  0  0  0  0  0  0  0
   19.8219  -24.8267   41.6280 H   0  0  0  0  0  0  0  0  0  0  0  0
   20.7626  -24.2333   40.2175 H   0  0  0  0  0  0  0  0  0  0  0  0
   18.9705  -24.1109   40.2175 H   0  0  0  0  0  0  0  0  0  0  0  0
   20.4686  -27.0879   41.6735 H   0  0  0  0  0  0  0  0  0  0  0  0
   20.3302  -29.3620   40.6895 H   0  0  0  0  0  0  0  0  0  0  0  0
   18.3856  -32.8752   40.7728 H   0  0  0  0  0  0  0  0  0  0  0  0
   18.1292  -35.2889   40.1866 H   0  0  0  0  0  0  0  0  0  0  0  0
   18.5909  -36.0642   37.8573 H   0  0  0  0  0  0  0  0  0  0  0  0
   18.7080  -34.4510   35.2110 H   0  0  0  0  0  0  0  0  0  0  0  0
   20.5070  -28.5710   36.2740 H   0  0  0  0  0  0  0  0  0  0  0  0
   18.8230  -27.6869   37.0108 H   0  0  0  0  0  0  0  0  0  0  0  0
  1  2  1  0
  2  3  2  0
  3  4  1  0
  4  5  2  0
  5  6  1  0
  6  7  1  0
  7  8  1  0
  8  9  2  0
  9 10  1  0
 10 11  2  0
 11 12  1  0
 12 13  1  0
 12 14  2  0
 14 15  1  0
 15 16  2  0
 15 17  1  0
 17 18  1  0
  5 19  1  0
 19 20  2  0
 20 21  1  0
 21 22  1  0
 21 23  1  0
 21 24  1  0
 20  2  1  0
 17  6  2  0
 14  8  1  0
  1 25  1  0
  1 26  1  0
  1 27  1  0
  3 28  1  0
  4 29  1  0
  9 30  1  0
 10 31  1  0
 11 32  1  0
 13 33  1  0
 18 34  1  0
 19 35  1  0
M  END
>  <meeko>  (4) 
{"is_sidechain": [false], "free_energy": -7.66, "intermolecular_energy": -9.278, "internal_energy": -0.05}

$$$$
cand_011_out
     RDKit          3D

 35 37  0  0  0  0  0  0  0  0999 V2000
   19.6250  -34.5840   35.6460 C   0  0  0  0  0  0  0  0  0  0  0  0
   19.6430  -33.1820   36.1940 C   0  0  0  0  0  0  0  0  0  0  0  0
   19.9640  -32.1180   35.3400 C   0  0  0  0  0  0  0  0  0  0  0  0
   19.9860  -30.8040   35.8120 C   0  0  0  0  0  0  0  0  0  0  0  0
   19.6910  -30.5160   37.1490 C   0  0  0  0  0  0  0  0  0  0  0  0
   19.7030  -29.1150   37.6210 C   0  0  0  0  0  0  0  0  0  0  0  0
   20.0480  -28.9990   38.9620 O   0  0  0  0  0  0  0  0  0  0  0  0
   20.0960  -27.7510   39.5280 C   0  0  0  0  0  0  0  0  0  0  0  0
   20.4610  -27.6780   40.8730 C   0  0  0  0  0  0  0  0  0  0  0  0
   20.5290  -26.4370   41.5110 C   0  0  0  0  0  0  0  0  0  0  0  0
   20.2300  -25.2700   40.8050 C   0  0  0  0  0  0  0  0  0  0  0  0
   19.8660  -25.3450   39.4630 C   0  0  0  0  0  0  0  0  0  0  0  0
   19.5850  -24.1640   38.8320 O   0  0  0  0  0  0  0  0  0  0  0  0
   19.7990  -26.5870   38.8250 C   0  0  0  0  0  0  0  0  0  0  0  0
   19.4200  -26.7100   37.4160 C   0  0  0  0  0  0  0  0  0  0  0  0
   19.1360  -25.7300   36.7300 O   0  0  0  0  0  0  0  0  0  0  0  0
   19.3890  -28.0700   36.8320 C   0  0  0  0  0  0  0  0  0  0  0  0
   19.0180  -28.1790   35.5050 O   0  0  0  0  0  0  0  0  0  0  0  0
   19.3530  -31.5790   37.9990 C   0  0  0  0  0  0  0  0  0  0  0  0
   19.3240  -32.9130   37.5430 C   0  0  0  0  0  0  0  0  0  0  0  0
   18.9600  -34.0180   38.5100 C   0  0  0  0  0  0  0  0  0  0  0  0
   17.8640  -34.7230   38.1110 F   0  0  0  0  0  0  0  0  0  0  0  0
   19.9470  -34.9420   38.6850 F   0  0  0  0  0  0  0  0  0  0  0  0
   18.6720  -33.5540   39.7580 F   0  0  0  0  0  0  0  0  0  0  0  0
   19.6158  -35.3030   36.4785 H   0  0  0  0  0  0  0  0  0  0  0  0
   18.7250  -34.7252   35.0296 H   0  0  0  0  0  0  0  0  0  0  0  0
   20.5211  -34.7483   35.0296 H   0  0  0  0  0  0  0  0  0  0  0  0
   20.2015  -32.3205   34.2852 H   0  0  0  0  0  0  0  0  0  0  0  0
   20.2387  -29.9843   35.1234 H   0  0  0  0  0  0  0  0  0  0  0  0
   20.6950  -28.5970   41.4304 H   0  0  0  0  0  0  0  0  0  0  0  0
   20.8184  -26.3791   42.5707 H   0  0  0  0  0  0  0  0  0  0  0  0
   20.2819  -24.2931   41.3080 H   0  0  0  0  0  0  0  0  0  0  0  0
   18.6960  -23.8840   38.7370 H   0  0  0  0  0  0  0  0  0  0  0  0
   18.6770  -27.4340   35.0520 H   0  0  0  0  0  0  0  0  0  0  0  0
   19.1039  -31.3665   39.0492 H   0  0  0  0  0  0  0  0  0  0  0  0
  1  2  1  0
  2  3  2  0
  3  4  1  0
  4  5  2  0
  5  6  1  0
  6  7  1  0
  7  8  1  0
  8  9  2  0
  9 10  1  0
 10 11  2  0
 11 12  1  0
 12 13  1  0
 12 14  2  0
 14 15  1  0
 15 16  2  0
 15 17  1  0
 17 18  1  0
  5 19  1  0
 19 20  2  0
 20 21  1  0
 21 22  1  0
 21 23  1  0
 21 24  1  0
 20  2  1  0
 17  6  2  0
 14  8  1  0
  1 25  1  0
  1 26  1  0
  1 27  1  0
  3 28  1  0
  4 29  1  0
  9 30  1  0
 10 31  1  0
 11 32  1  0
 13 33  1  0
 18 34  1  0
 19 35  1  0
M  END
>  <meeko>  (5) 
{"is_sidechain": [false], "free_energy": -7.489, "intermolecular_energy": -9.199, "internal_energy": 0.07}

$$$$
cand_011_out
     RDKit          3D

 35 37  0  0  0  0  0  0  0  0999 V2000
   17.7140  -27.1870   36.6750 C   0  0  0  0  0  0  0  0  0  0  0  0
   18.5800  -27.1540   37.9060 C   0  0  0  0  0  0  0  0  0  0  0  0
   18.8710  -28.3540   38.5700 C   0  0  0  0  0  0  0  0  0  0  0  0
   19.6740  -28.3620   39.7120 C   0  0  0  0  0  0  0  0  0  0  0  0
   20.2060  -27.1750   40.2240 C   0  0  0  0  0  0  0  0  0  0  0  0
   21.0690  -27.2100   41.4240 C   0  0  0  0  0  0  0  0  0  0  0  0
   22.0420  -28.2010   41.3610 O   0  0  0  0  0  0  0  0  0  0  0  0
   22.9110  -28.3440   42.4130 C   0  0  0  0  0  0  0  0  0  0  0  0
   23.8810  -29.3410   42.3030 C   0  0  0  0  0  0  0  0  0  0  0  0
   24.7970  -29.5390   43.3380 C   0  0  0  0  0  0  0  0  0  0  0  0
   24.7420  -28.7420   44.4840 C   0  0  0  0  0  0  0  0  0  0  0  0
   23.7740  -27.7470   44.5910 C   0  0  0  0  0  0  0  0  0  0  0  0
   23.7760  -27.0050   45.7400 O   0  0  0  0  0  0  0  0  0  0  0  0
   22.8580  -27.5480   43.5540 C   0  0  0  0  0  0  0  0  0  0  0  0
   21.8240  -26.5150   43.6270 C   0  0  0  0  0  0  0  0  0  0  0  0
   21.7060  -25.7780   44.6040 O   0  0  0  0  0  0  0  0  0  0  0  0
   20.9090  -26.3800   42.4710 C   0  0  0  0  0  0  0  0  0  0  0  0
   19.9270  -25.4110   42.5530 O   0  0  0  0  0  0  0  0  0  0  0  0
   19.9290  -25.9760   39.5500 C   0  0  0  0  0  0  0  0  0  0  0  0
   19.1210  -25.9460   38.3950 C   0  0  0  0  0  0  0  0  0  0  0  0
   18.8500  -24.6210   37.7160 C   0  0  0  0  0  0  0  0  0  0  0  0
   19.7060  -23.6400   38.1200 F   0  0  0  0  0  0  0  0  0  0  0  0
   18.9600  -24.6670   36.3570 F   0  0  0  0  0  0  0  0  0  0  0  0
   17.5960  -24.1480   37.9630 F   0  0  0  0  0  0  0  0  0  0  0  0
   16.6557  -27.2273   36.9722 H   0  0  0  0  0  0  0  0  0  0  0  0
   17.8926  -26.2814   36.0767 H   0  0  0  0  0  0  0  0  0  0  0  0
   17.9610  -28.0764   36.0767 H   0  0  0  0  0  0  0  0  0  0  0  0
   18.4618  -29.3004   38.1867 H   0  0  0  0  0  0  0  0  0  0  0  0
   19.8911  -29.3154   40.2158 H   0  0  0  0  0  0  0  0  0  0  0  0
   23.9240  -29.9703   41.4018 H   0  0  0  0  0  0  0  0  0  0  0  0
   25.5630  -30.3236   43.2509 H   0  0  0  0  0  0  0  0  0  0  0  0
   25.4621  -28.9002   45.3003 H   0  0  0  0  0  0  0  0  0  0  0  0
   23.5650  -26.0920   45.7070 H   0  0  0  0  0  0  0  0  0  0  0  0
   19.0670  -25.6380   42.8470 H   0  0  0  0  0  0  0  0  0  0  0  0
   20.3529  -25.0357   39.9323 H   0  0  0  0  0  0  0  0  0  0  0  0
  1  2  1  0
  2  3  2  0
  3  4  1  0
  4  5  2  0
  5  6  1  0
  6  7  1  0
  7  8  1  0
  8  9  2  0
  9 10  1  0
 10 11  2  0
 11 12  1  0
 12 13  1  0
 12 14  2  0
 14 15  1  0
 15 16  2  0
 15 17  1  0
 17 18  1  0
  5 19  1  0
 19 20  2  0
 20 21  1  0
 21 22  1  0
 21 23  1  0
 21 24  1  0
 20  2  1  0
 17  6  2  0
 14  8  1  0
  1 25  1  0
  1 26  1  0
  1 27  1  0
  3 28  1  0
  4 29  1  0
  9 30  1  0
 10 31  1  0
 11 32  1  0
 13 33  1  0
 18 34  1  0
 19 35  1  0
M  END
>  <meeko>  (6) 
{"is_sidechain": [false], "free_energy": -7.218, "intermolecular_energy": -8.708, "internal_energy": -0.102}

$$$$
cand_011_out
     RDKit          3D

 35 37  0  0  0  0  0  0  0  0999 V2000
   19.2010  -25.6700   41.3040 C   0  0  0  0  0  0  0  0  0  0  0  0
   19.2740  -26.9310   40.4860 C   0  0  0  0  0  0  0  0  0  0  0  0
   18.2660  -27.1970   39.5470 C   0  0  0  0  0  0  0  0  0  0  0  0
   18.3030  -28.3550   38.7680 C   0  0  0  0  0  0  0  0  0  0  0  0
   19.3430  -29.2800   38.9050 C   0  0  0  0  0  0  0  0  0  0  0  0
   19.3700  -30.4890   38.0550 C   0  0  0  0  0  0  0  0  0  0  0  0
   19.9110  -30.2550   36.7970 O   0  0  0  0  0  0  0  0  0  0  0  0
   19.9950  -31.2950   35.9070 C   0  0  0  0  0  0  0  0  0  0  0  0
   20.5580  -31.0190   34.6600 C   0  0  0  0  0  0  0  0  0  0  0  0
   20.6730  -32.0340   33.7070 C   0  0  0  0  0  0  0  0  0  0  0  0
   20.2230  -33.3240   34.0010 C   0  0  0  0  0  0  0  0  0  0  0  0
   19.6620  -33.5960   35.2460 C   0  0  0  0  0  0  0  0  0  0  0  0
   19.2410  -34.8790   35.4650 O   0  0  0  0  0  0  0  0  0  0  0  0
   19.5480  -32.5810   36.1990 C   0  0  0  0  0  0  0  0  0  0  0  0
   18.9640  -32.8250   37.5180 C   0  0  0  0  0  0  0  0  0  0  0  0
   18.5390  -33.9300   37.8490 O   0  0  0  0  0  0  0  0  0  0  0  0
   18.8980  -31.6840   38.4600 C   0  0  0  0  0  0  0  0  0  0  0  0
   18.3330  -31.9190   39.6990 O   0  0  0  0  0  0  0  0  0  0  0  0
   20.3590  -29.0060   39.8320 C   0  0  0  0  0  0  0  0  0  0  0  0
   20.3420  -27.8430   40.6280 C   0  0  0  0  0  0  0  0  0  0  0  0
   21.4630  -27.6060   41.6170 C   0  0  0  0  0  0  0  0  0  0  0  0
   21.0110  -27.4480   42.8930 F   0  0  0  0  0  0  0  0  0  0  0  0
   22.3710  -28.6210   41.6720 F   0  0  0  0  0  0  0  0  0  0  0  0
   22.1870  -26.4860   41.3360 F   0  0  0  0  0  0  0  0  0  0  0  0
   19.2158  -25.9255   42.3738 H   0  0  0  0  0  0  0  0  0  0  0  0
   20.0636  -25.0294   41.0681 H   0  0  0  0  0  0  0  0  0  0  0  0
   18.2703  -25.1333   41.0681 H   0  0  0  0  0  0  0  0  0  0  0  0
   17.4369  -26.4848   39.4231 H   0  0  0  0  0  0  0  0  0  0  0  0
   17.5032  -28.5424   38.0364 H   0  0  0  0  0  0  0  0  0  0  0  0
   20.9108  -30.0033   34.4279 H   0  0  0  0  0  0  0  0  0  0  0  0
   21.1180  -31.8177   32.7246 H   0  0  0  0  0  0  0  0  0  0  0  0
   20.3118  -34.1230   33.2502 H   0  0  0  0  0  0  0  0  0  0  0  0
   18.3250  -35.0680   35.5250 H   0  0  0  0  0  0  0  0  0  0  0  0
   17.6410  -31.3690   40.0100 H   0  0  0  0  0  0  0  0  0  0  0  0
   21.1910  -29.7174   39.9407 H   0  0  0  0  0  0  0  0  0  0  0  0
  1  2  1  0
  2  3  2  0
  3  4  1  0
  4  5  2  0
  5  6  1  0
  6  7  1  0
  7  8  1  0
  8  9  2  0
  9 10  1  0
 10 11  2  0
 11 12  1  0
 12 13  1  0
 12 14  2  0
 14 15  1  0
 15 16  2  0
 15 17  1  0
 17 18  1  0
  5 19  1  0
 19 20  2  0
 20 21  1  0
 21 22  1  0
 21 23  1  0
 21 24  1  0
 20  2  1  0
 17  6  2  0
 14  8  1  0
  1 25  1  0
  1 26  1  0
  1 27  1  0
  3 28  1  0
  4 29  1  0
  9 30  1  0
 10 31  1  0
 11 32  1  0
 13 33  1  0
 18 34  1  0
 19 35  1  0
M  END
>  <meeko>  (7) 
{"is_sidechain": [false], "free_energy": -7.173, "intermolecular_energy": -8.322, "internal_energy": -0.435}

$$$$
cand_011_out
     RDKit          3D

 35 37  0  0  0  0  0  0  0  0999 V2000
   22.7120  -26.9410   45.2960 C   0  0  0  0  0  0  0  0  0  0  0  0
   22.0860  -26.9200   43.9270 C   0  0  0  0  0  0  0  0  0  0  0  0
   20.9530  -26.1240   43.7060 C   0  0  0  0  0  0  0  0  0  0  0  0
   20.3480  -26.0750   42.4490 C   0  0  0  0  0  0  0  0  0  0  0  0
   20.8540  -26.8200   41.3790 C   0  0  0  0  0  0  0  0  0  0  0  0
   20.2080  -26.7380   40.0520 C   0  0  0  0  0  0  0  0  0  0  0  0
   20.0080  -25.4300   39.6280 O   0  0  0  0  0  0  0  0  0  0  0  0
   19.4150  -25.2120   38.4100 C   0  0  0  0  0  0  0  0  0  0  0  0
   19.2470  -23.8840   38.0160 C   0  0  0  0  0  0  0  0  0  0  0  0
   18.6490  -23.5920   36.7880 C   0  0  0  0  0  0  0  0  0  0  0  0
   18.2190  -24.6280   35.9550 C   0  0  0  0  0  0  0  0  0  0  0  0
   18.3880  -25.9520   36.3500 C   0  0  0  0  0  0  0  0  0  0  0  0
   17.9430  -26.9160   35.4880 O   0  0  0  0  0  0  0  0  0  0  0  0
   18.9870  -26.2440   37.5790 C   0  0  0  0  0  0  0  0  0  0  0  0
   19.1830  -27.6210   38.0330 C   0  0  0  0  0  0  0  0  0  0  0  0
   18.8250  -28.5860   37.3610 O   0  0  0  0  0  0  0  0  0  0  0  0
   19.8360  -27.8230   39.3470 C   0  0  0  0  0  0  0  0  0  0  0  0
   20.0060  -29.1260   39.7740 O   0  0  0  0  0  0  0  0  0  0  0  0
   21.9980  -27.6030   41.5960 C   0  0  0  0  0  0  0  0  0  0  0  0
   22.6240  -27.6660   42.8580 C   0  0  0  0  0  0  0  0  0  0  0  0
   23.8510  -28.5350   43.0330 C   0  0  0  0  0  0  0  0  0  0  0  0
   24.9510  -27.8210   43.4010 F   0  0  0  0  0  0  0  0  0  0  0  0
   23.7070  -29.5040   43.9820 F   0  0  0  0  0  0  0  0  0  0  0  0
   24.1970  -29.1950   41.8910 F   0  0  0  0  0  0  0  0  0  0  0  0
   21.9219  -26.9145   46.0609 H   0  0  0  0  0  0  0  0  0  0  0  0
   23.3056  -27.8596   45.4137 H   0  0  0  0  0  0  0  0  0  0  0  0
   23.3658  -26.0643   45.4137 H   0  0  0  0  0  0  0  0  0  0  0  0
   20.5359  -25.5310   44.5332 H   0  0  0  0  0  0  0  0  0  0  0  0
   19.4613  -25.4419   42.2980 H   0  0  0  0  0  0  0  0  0  0  0  0
   19.5851  -23.0681   38.6717 H   0  0  0  0  0  0  0  0  0  0  0  0
   18.5165  -22.5454   36.4764 H   0  0  0  0  0  0  0  0  0  0  0  0
   17.7475  -24.3976   34.9882 H   0  0  0  0  0  0  0  0  0  0  0  0
   17.7320  -26.6910   34.6030 H   0  0  0  0  0  0  0  0  0  0  0  0
   19.2610  -29.6840   39.8820 H   0  0  0  0  0  0  0  0  0  0  0  0
   22.4172  -28.1825   40.7603 H   0  0  0  0  0  0  0  0  0  0  0  0
  1  2  1  0
  2  3  2  0
  3  4  1  0
  4  5  2  0
  5  6  1  0
  6  7  1  0
  7  8  1  0
  8  9  2  0
  9 10  1  0
 10 11  2  0
 11 12  1  0
 12 13  1  0
 12 14  2  0
 14 15  1  0
 15 16  2  0
 15 17  1  0
 17 18  1  0
  5 19  1  0
 19 20  2  0
 20 21  1  0
 21 22  1  0
 21 23  1  0
 21 24  1  0
 20  2  1  0
 17  6  2  0
 14  8  1  0
  1 25  1  0
  1 26  1  0
  1 27  1  0
  3 28  1  0
  4 29  1  0
  9 30  1  0
 10 31  1  0
 11 32  1  0
 13 33  1  0
 18 34  1  0
 19 35  1  0
M  END
>  <meeko>  (8) 
{"is_sidechain": [false], "free_energy": -7.092, "intermolecular_energy": -8.436, "internal_energy": -0.226}

$$$$
