cand_010_out
     RDKit          3D

 35 37  0  0  0  0  0  0  0  0999 V2000
   17.4890  -25.7170   39.5640 O   0  0  0  0  0  0  0  0  0  0  0  0
   18.3010  -26.6170   39.7730 C   0  0  0  0  0  0  0  0  0  0  0  0
   18.3440  -27.8090   38.8940 C   0  0  0  0  0  0  0  0  0  0  0  0
   17.4510  -27.8470   37.8390 O   0  0  0  0  0  0  0  0  0  0  0  0
   19.2500  -28.7680   39.1570 C   0  0  0  0  0  0  0  0  0  0  0  0
   19.3900  -29.9930   38.3400 C   0  0  0  0  0  0  0  0  0  0  0  0
   19.7610  -29.9410   36.9930 C   0  0  0  0  0  0  0  0  0  0  0  0
   19.8610  -31.1100   36.2330 C   0  0  0  0  0  0  0  0  0  0  0  0
   19.5840  -32.3640   36.7980 C   0  0  0  0  0  0  0  0  0  0  0  0
   19.7110  -33.6050   35.9450 C   0  0  0  0  0  0  0  0  0  0  0  0
   20.0920  -33.3400   34.6610 F   0  0  0  0  0  0  0  0  0  0  0  0
   19.2050  -32.4350   38.1570 C   0  0  0  0  0  0  0  0  0  0  0  0
   18.8920  -33.7590   38.8160 C   0  0  0  0  0  0  0  0  0  0  0  0
   19.9210  -34.6510   38.7800 F   0  0  0  0  0  0  0  0  0  0  0  0
   18.5690  -33.6170   40.1310 F   0  0  0  0  0  0  0  0  0  0  0  0
   17.8330  -34.3900   38.2390 F   0  0  0  0  0  0  0  0  0  0  0  0
   19.1060  -31.2450   38.9070 C   0  0  0  0  0  0  0  0  0  0  0  0
   20.1640  -28.7070   40.2020 O   0  0  0  0  0  0  0  0  0  0  0  0
   20.1430  -27.6210   41.0380 C   0  0  0  0  0  0  0  0  0  0  0  0
   21.0680  -27.6070   42.0830 C   0  0  0  0  0  0  0  0  0  0  0  0
   21.1010  -26.5290   42.9700 C   0  0  0  0  0  0  0  0  0  0  0  0
   20.2090  -25.4670   42.8130 C   0  0  0  0  0  0  0  0  0  0  0  0
   19.2860  -25.4820   41.7710 C   0  0  0  0  0  0  0  0  0  0  0  0
   18.4430  -24.4090   41.6740 O   0  0  0  0  0  0  0  0  0  0  0  0
   19.2540  -26.5610   40.8830 C   0  0  0  0  0  0  0  0  0  0  0  0
   17.3780  -28.6210   37.3150 H   0  0  0  0  0  0  0  0  0  0  0  0
   19.9767  -28.9688   36.5258 H   0  0  0  0  0  0  0  0  0  0  0  0
   20.1612  -31.0458   35.1767 H   0  0  0  0  0  0  0  0  0  0  0  0
   20.4605  -34.2678   36.4020 H   0  0  0  0  0  0  0  0  0  0  0  0
   18.7166  -34.0732   35.9002 H   0  0  0  0  0  0  0  0  0  0  0  0
   18.7988  -31.2993   39.9618 H   0  0  0  0  0  0  0  0  0  0  0  0
   21.7704  -28.4443   42.2078 H   0  0  0  0  0  0  0  0  0  0  0  0
   21.8306  -26.5168   43.7931 H   0  0  0  0  0  0  0  0  0  0  0  0
   20.2353  -24.6184   43.5124 H   0  0  0  0  0  0  0  0  0  0  0  0
   17.5290  -24.5450   41.5200 H   0  0  0  0  0  0  0  0  0  0  0  0
  1  2  2  0
  2  3  1  0
  3  4  1  0
  3  5  2  0
  5  6  1  0
  6  7  2  0
  7  8  1  0
  8  9  2  0
  9 10  1  0
 10 11  1  0
  9 12  1  0
 12 13  1  0
 13 14  1  0
 13 15  1  0
 13 16  1  0
 12 17  2  0
  5 18  1  0
 18 19  1  0
 19 20  2  0
 20 21  1  0
 21 22  2  0
 22 23  1  0
 23 24  1  0
 23 25  2  0
 25  2  1  0
 17  6  1  0
 25 19  1  0
  4 26  1  0
  7 27  1  0
  8 28  1  0
 10 29  1  0
 10 30  1  0
 17 31  1  0
 20 32  1  0
 21 33  1  0
 22 34  1  0
 24 35  1  0
M  END
>  <meeko>  (1) 
{"is_sidechain": [false], "free_energy": -8.361, "intermolecular_energy": -10.316, "internal_energy": -0.32}

$$$$
cand_010_out
     RDKit          3D

 35 37  0  0  0  0  0  0  0  0999 V2000
   20.0120  -32.2810   35.4390 O   0  0  0  0  0  0  0  0  0  0  0  0
   19.6710  -32.0610   36.6000 C   0  0  0  0  0  0  0  0  0  0  0  0
   19.6510  -30.6780   37.1280 C   0  0  0  0  0  0  0  0  0  0  0  0
   20.0150  -29.6660   36.2590 O   0  0  0  0  0  0  0  0  0  0  0  0
   19.2680  -30.4820   38.4040 C   0  0  0  0  0  0  0  0  0  0  0  0
   19.2000  -29.1460   39.0310 C   0  0  0  0  0  0  0  0  0  0  0  0
   18.2120  -28.2190   38.6840 C   0  0  0  0  0  0  0  0  0  0  0  0
   18.1820  -26.9510   39.2710 C   0  0  0  0  0  0  0  0  0  0  0  0
   19.1470  -26.5700   40.2160 C   0  0  0  0  0  0  0  0  0  0  0  0
   19.0760  -25.1930   40.8330 C   0  0  0  0  0  0  0  0  0  0  0  0
   19.9920  -24.3230   40.3180 F   0  0  0  0  0  0  0  0  0  0  0  0
   20.1540  -27.4930   40.5770 C   0  0  0  0  0  0  0  0  0  0  0  0
   21.2200  -27.1360   41.5880 C   0  0  0  0  0  0  0  0  0  0  0  0
   20.7330  -26.5690   42.7270 F   0  0  0  0  0  0  0  0  0  0  0  0
   21.9350  -28.2220   41.9900 F   0  0  0  0  0  0  0  0  0  0  0  0
   22.1310  -26.2530   41.0940 F   0  0  0  0  0  0  0  0  0  0  0  0
   20.1690  -28.7670   39.9720 C   0  0  0  0  0  0  0  0  0  0  0  0
   18.8750  -31.5030   39.2610 O   0  0  0  0  0  0  0  0  0  0  0  0
   18.8910  -32.7960   38.8030 C   0  0  0  0  0  0  0  0  0  0  0  0
   18.5030  -33.7910   39.7010 C   0  0  0  0  0  0  0  0  0  0  0  0
   18.4950  -35.1280   39.2980 C   0  0  0  0  0  0  0  0  0  0  0  0
   18.8760  -35.4700   37.9990 C   0  0  0  0  0  0  0  0  0  0  0  0
   19.2640  -34.4760   37.1050 C   0  0  0  0  0  0  0  0  0  0  0  0
   19.6230  -34.8800   35.8490 O   0  0  0  0  0  0  0  0  0  0  0  0
   19.2710  -33.1370   37.5080 C   0  0  0  0  0  0  0  0  0  0  0  0
   19.8790  -29.7680   35.3370 H   0  0  0  0  0  0  0  0  0  0  0  0
   17.4490  -28.4912   37.9398 H   0  0  0  0  0  0  0  0  0  0  0  0
   17.3905  -26.2414   38.9882 H   0  0  0  0  0  0  0  0  0  0  0  0
   18.0698  -24.7840   40.6591 H   0  0  0  0  0  0  0  0  0  0  0  0
   19.2988  -25.3042   41.9044 H   0  0  0  0  0  0  0  0  0  0  0  0
   20.9600  -29.4811   40.2447 H   0  0  0  0  0  0  0  0  0  0  0  0
   18.2038  -33.5226   40.7249 H   0  0  0  0  0  0  0  0  0  0  0  0
   18.1881  -35.9129   40.0050 H   0  0  0  0  0  0  0  0  0  0  0  0
   18.8696  -36.5235   37.6825 H   0  0  0  0  0  0  0  0  0  0  0  0
   20.3040  -34.4290   35.3890 H   0  0  0  0  0  0  0  0  0  0  0  0
  1  2  2  0
  2  3  1  0
  3  4  1  0
  3  5  2  0
  5  6  1  0
  6  7  2  0
  7  8  1  0
  8  9  2  0
  9 10  1  0
 10 11  1  0
  9 12  1  0
 12 13  1  0
 13 14  1  0
 13 15  1  0
 13 16  1  0
 12 17  2  0
  5 18  1  0
 18 19  1  0
 19 20  2  0
 20 21  1  0
 21 22  2  0
 22 23  1  0
 23 24  1  0
 23 25  2  0
 25  2  1  0
 17  6  1  0
 25 19  1  0
  4 26  1  0
  7 27  1  0
  8 28  1  0
 10 29  1  0
 10 30  1  0
 17 31  1  0
 20 32  1  0
 21 33  1  0
 22 34  1  0
 24 35  1  0
M  END
>  <meeko>  (2) 
{"is_sidechain": [false], "free_energy": -8.06, "intermolecular_energy": -9.8, "internal_energy": -0.466}

$$$$
cand_010_out
     RDKit          3D

 35 37  0  0  0  0  0  0  0  0999 V2000
   17.4980  -25.7130   39.5870 O   0  0  0  0  0  0  0  0  0  0  0  0
   18.3160  -26.6220   39.7160 C   0  0  0  0  0  0  0  0  0  0  0  0
   18.3500  -27.7440   38.7500 C   0  0  0  0  0  0  0  0  0  0  0  0
   17.4410  -27.7080   37.7080 O   0  0  0  0  0  0  0  0  0  0  0  0
   19.2640  -28.7160   38.9260 C   0  0  0  0  0  0  0  0  0  0  0  0
   19.3960  -29.8760   38.0180 C   0  0  0  0  0  0  0  0  0  0  0  0
   19.1280  -31.1790   38.4470 C   0  0  0  0  0  0  0  0  0  0  0  0
   19.2840  -32.2650   37.5800 C   0  0  0  0  0  0  0  0  0  0  0  0
   19.7240  -32.0760   36.2610 C   0  0  0  0  0  0  0  0  0  0  0  0
   19.8740  -33.2740   35.3520 C   0  0  0  0  0  0  0  0  0  0  0  0
   19.3010  -34.4070   35.8530 F   0  0  0  0  0  0  0  0  0  0  0  0
   20.0030  -30.7660   35.8110 C   0  0  0  0  0  0  0  0  0  0  0  0
   20.4820  -30.5050   34.4010 C   0  0  0  0  0  0  0  0  0  0  0  0
   19.5790  -30.8440   33.4400 F   0  0  0  0  0  0  0  0  0  0  0  0
   20.7750  -29.1920   34.1910 F   0  0  0  0  0  0  0  0  0  0  0  0
   21.6190  -31.1920   34.1030 F   0  0  0  0  0  0  0  0  0  0  0  0
   19.8410  -29.6840   36.7020 C   0  0  0  0  0  0  0  0  0  0  0  0
   20.1940  -28.7290   39.9590 O   0  0  0  0  0  0  0  0  0  0  0  0
   20.1810  -27.7080   40.8740 C   0  0  0  0  0  0  0  0  0  0  0  0
   21.1230  -27.7670   41.9020 C   0  0  0  0  0  0  0  0  0  0  0  0
   21.1650  -26.7580   42.8670 C   0  0  0  0  0  0  0  0  0  0  0  0
   20.2670  -25.6910   42.8040 C   0  0  0  0  0  0  0  0  0  0  0  0
   19.3280  -25.6340   41.7770 C   0  0  0  0  0  0  0  0  0  0  0  0
   18.4800  -24.5610   41.7740 O   0  0  0  0  0  0  0  0  0  0  0  0
   19.2860  -26.6440   40.8110 C   0  0  0  0  0  0  0  0  0  0  0  0
   16.5360  -27.5370   37.8830 H   0  0  0  0  0  0  0  0  0  0  0  0
   18.7902  -31.3523   39.4794 H   0  0  0  0  0  0  0  0  0  0  0  0
   19.0588  -33.2809   37.9367 H   0  0  0  0  0  0  0  0  0  0  0  0
   19.4010  -33.0411   34.3866 H   0  0  0  0  0  0  0  0  0  0  0  0
   20.9511  -33.4719   35.2489 H   0  0  0  0  0  0  0  0  0  0  0  0
   20.0693  -28.6651   36.3560 H   0  0  0  0  0  0  0  0  0  0  0  0
   21.8315  -28.6070   41.9523 H   0  0  0  0  0  0  0  0  0  0  0  0
   21.9068  -26.8042   43.6779 H   0  0  0  0  0  0  0  0  0  0  0  0
   20.3010  -24.8967   43.5642 H   0  0  0  0  0  0  0  0  0  0  0  0
   18.4190  -24.0150   41.0150 H   0  0  0  0  0  0  0  0  0  0  0  0
  1  2  2  0
  2  3  1  0
  3  4  1  0
  3  5  2  0
  5  6  1  0
  6  7  2  0
  7  8  1  0
  8  9  2  0
  9 10  1  0
 10 11  1  0
  9 12  1  0
 12 13  1  0
 13 14  1  0
 13 15  1  0
 13 16  1  0
 12 17  2  0
  5 18  1  0
 18 19  1  0
 19 20  2  0
 20 21  1  0
 21 22  2  0
 22 23  1  0
 23 24  1  0
 23 25  2  0
 25  2  1  0
 17  6  1  0
 25 19  1  0
  4 26  1  0
  7 27  1  0
  8 28  1  0
 10 29  1  0
 10 30  1  0
 17 31  1  0
 20 32  1  0
 21 33  1  0
 22 34  1  0
 24 35  1  0
M  END
>  <meeko>  (3) 
{"is_sidechain": [false], "free_energy": -7.902, "intermolecular_energy": -9.743, "internal_energy": -0.328}

$$$$
cand_010_out
     RDKit          3D

 35 37  0  0  0  0  0  0  0  0999 V2000
   19.8980  -32.0410   35.3060 O   0  0  0  0  0  0  0  0  0  0  0  0
   19.6600  -31.7360   36.4740 C   0  0  0  0  0  0  0  0  0  0  0  0
   19.7850  -30.3300   36.9230 C   0  0  0  0  0  0  0  0  0  0  0  0
   20.1630  -29.3960   35.9760 O   0  0  0  0  0  0  0  0  0  0  0  0
   19.5110  -30.0400   38.2080 C   0  0  0  0  0  0  0  0  0  0  0  0
   19.5930  -28.6720   38.7630 C   0  0  0  0  0  0  0  0  0  0  0  0
   20.0380  -28.4310   40.0660 C   0  0  0  0  0  0  0  0  0  0  0  0
   20.0820  -27.1320   40.5800 C   0  0  0  0  0  0  0  0  0  0  0  0
   19.6710  -26.0360   39.8060 C   0  0  0  0  0  0  0  0  0  0  0  0
   19.7400  -24.6460   40.3950 C   0  0  0  0  0  0  0  0  0  0  0  0
   18.9430  -24.4840   41.4900 F   0  0  0  0  0  0  0  0  0  0  0  0
   19.2150  -26.2600   38.4880 C   0  0  0  0  0  0  0  0  0  0  0  0
   18.7580  -25.1180   37.6100 C   0  0  0  0  0  0  0  0  0  0  0  0
   17.6580  -24.4660   38.0800 F   0  0  0  0  0  0  0  0  0  0  0  0
   19.7190  -24.1650   37.4600 F   0  0  0  0  0  0  0  0  0  0  0  0
   18.4380  -25.5250   36.3510 F   0  0  0  0  0  0  0  0  0  0  0  0
   19.1750  -27.5790   37.9880 C   0  0  0  0  0  0  0  0  0  0  0  0
   19.1030  -30.9800   39.1470 O   0  0  0  0  0  0  0  0  0  0  0  0
   18.9870  -32.2920   38.7620 C   0  0  0  0  0  0  0  0  0  0  0  0
   18.5880  -33.2050   39.7390 C   0  0  0  0  0  0  0  0  0  0  0  0
   18.4480  -34.5560   39.4140 C   0  0  0  0  0  0  0  0  0  0  0  0
   18.7060  -34.9930   38.1140 C   0  0  0  0  0  0  0  0  0  0  0  0
   19.1040  -34.0800   37.1400 C   0  0  0  0  0  0  0  0  0  0  0  0
   19.3400  -34.5760   35.8870 O   0  0  0  0  0  0  0  0  0  0  0  0
   19.2440  -32.7280   37.4660 C   0  0  0  0  0  0  0  0  0  0  0  0
   20.4970  -28.5630   36.2470 H   0  0  0  0  0  0  0  0  0  0  0  0
   20.3578  -29.2748   40.6951 H   0  0  0  0  0  0  0  0  0  0  0  0
   20.4438  -26.9665   41.6055 H   0  0  0  0  0  0  0  0  0  0  0  0
   20.7806  -24.4419   40.6873 H   0  0  0  0  0  0  0  0  0  0  0  0
   19.3813  -23.9475   39.6247 H   0  0  0  0  0  0  0  0  0  0  0  0
   18.8074  -27.7548   36.9663 H   0  0  0  0  0  0  0  0  0  0  0  0
   18.3840  -32.8611   40.7637 H   0  0  0  0  0  0  0  0  0  0  0  0
   18.1340  -35.2765   40.1836 H   0  0  0  0  0  0  0  0  0  0  0  0
   18.5952  -36.0572   37.8587 H   0  0  0  0  0  0  0  0  0  0  0  0
   19.9880  -34.1770   35.3400 H   0  0  0  0  0  0  0  0  0  0  0  0
  1  2  2  0
  2  3  1  0
  3  4  1  0
  3  5  2  0
  5  6  1  0
  6  7  2  0
  7  8  1  0
  8  9  2  0
  9 10  1  0
 10 11  1  0
  9 12  1  0
 12 13  1  0
 13 14  1  0
 13 15  1  0
 13 16  1  0
 12 17  2  0
  5 18  1  0
 18 19  1  0
 19 20  2  0
 20 21  1  0
 21 22  2  0
 22 23  1  0
 23 24  1  0
 23 25  2  0
 25  2  1  0
 17  6  1  0
 25 19  1  0
  4 26  1  0
  7 27  1  0
  8 28  1  0
 10 29  1  0
 10 30  1  0
 17 31  1  0
 20 32  1  0
 21 33  1  0
 22 34  1  0
 24 35  1  0
M  END
>  <meeko>  (4) 
{"is_sidechain": [false], "free_energy": -7.417, "intermolecular_energy": -9.448, "internal_energy": -0.025}

$$$$
cand_010_out
     RDKit          3D

 35 37  0  0  0  0  0  0  0  0999 V2000
   21.7050  -25.7600   44.5560 O   0  0  0  0  0  0  0  0  0  0  0  0
   21.8130  -26.5030   43.5820 C   0  0  0  0  0  0  0  0  0  0  0  0
   20.8740  -26.3880   42.4420 C   0  0  0  0  0  0  0  0  0  0  0  0
   19.8990  -25.4100   42.5230 O   0  0  0  0  0  0  0  0  0  0  0  0
   21.0300  -27.2190   41.3940 C   0  0  0  0  0  0  0  0  0  0  0  0
   20.1600  -27.1860   40.1990 C   0  0  0  0  0  0  0  0  0  0  0  0
   19.6360  -28.3540   39.6390 C   0  0  0  0  0  0  0  0  0  0  0  0
   18.8370  -28.3020   38.4930 C   0  0  0  0  0  0  0  0  0  0  0  0
   18.5480  -27.0790   37.8700 C   0  0  0  0  0  0  0  0  0  0  0  0
   17.6740  -27.0640   36.6370 C   0  0  0  0  0  0  0  0  0  0  0  0
   18.3590  -27.3300   35.4870 F   0  0  0  0  0  0  0  0  0  0  0  0
   19.0720  -25.8880   38.4210 C   0  0  0  0  0  0  0  0  0  0  0  0
   18.7960  -24.5430   37.7890 C   0  0  0  0  0  0  0  0  0  0  0  0
   18.9050  -24.5370   36.4310 F   0  0  0  0  0  0  0  0  0  0  0  0
   17.5400  -24.0920   38.0630 F   0  0  0  0  0  0  0  0  0  0  0  0
   19.6430  -23.5750   38.2350 F   0  0  0  0  0  0  0  0  0  0  0  0
   19.8780  -25.9610   39.5750 C   0  0  0  0  0  0  0  0  0  0  0  0
   22.0320  -28.1780   41.3080 O   0  0  0  0  0  0  0  0  0  0  0  0
   22.9110  -28.3150   42.3520 C   0  0  0  0  0  0  0  0  0  0  0  0
   23.8910  -29.3000   42.2290 C   0  0  0  0  0  0  0  0  0  0  0  0
   24.8190  -29.4900   43.2560 C   0  0  0  0  0  0  0  0  0  0  0  0
   24.7660  -28.6970   44.4030 C   0  0  0  0  0  0  0  0  0  0  0  0
   23.7860  -27.7150   44.5240 C   0  0  0  0  0  0  0  0  0  0  0  0
   23.7920  -26.9730   45.6730 O   0  0  0  0  0  0  0  0  0  0  0  0
   22.8580  -27.5240   43.4960 C   0  0  0  0  0  0  0  0  0  0  0  0
   20.1070  -24.5720   42.8880 H   0  0  0  0  0  0  0  0  0  0  0  0
   19.8548  -29.3259   40.1054 H   0  0  0  0  0  0  0  0  0  0  0  0
   18.4291  -29.2336   38.0738 H   0  0  0  0  0  0  0  0  0  0  0  0
   16.8866  -27.8225   36.7579 H   0  0  0  0  0  0  0  0  0  0  0  0
   17.2605  -26.0490   36.5428 H   0  0  0  0  0  0  0  0  0  0  0  0
   20.2962  -25.0352   39.9968 H   0  0  0  0  0  0  0  0  0  0  0  0
   23.9331  -29.9258   41.3254 H   0  0  0  0  0  0  0  0  0  0  0  0
   25.5927  -30.2660   43.1603 H   0  0  0  0  0  0  0  0  0  0  0  0
   25.4975  -28.8474   45.2107 H   0  0  0  0  0  0  0  0  0  0  0  0
   23.8960  -26.0420   45.6280 H   0  0  0  0  0  0  0  0  0  0  0  0
  1  2  2  0
  2  3  1  0
  3  4  1  0
  3  5  2  0
  5  6  1  0
  6  7  2  0
  7  8  1  0
  8  9  2  0
  9 10  1  0
 10 11  1  0
  9 12  1  0
 12 13  1  0
 13 14  1  0
 13 15  1  0
 13 16  1  0
 12 17  2  0
  5 18  1  0
 18 19  1  0
 19 20  2  0
 20 21  1  0
 21 22  2  0
 22 23  1  0
 23 24  1  0
 23 25  2  0
 25  2  1  0
 17  6  1  0
 25 19  1  0
  4 26  1  0
  7 27  1  0
  8 28  1  0
 10 29  1  0
 10 30  1  0
 17 31  1  0
 20 32  1  0
 21 33  1  0
 22 34  1  0
 24 35  1  0
M  END
>  <meeko>  (5) 
{"is_sidechain": [false], "free_energy": -7.099, "intermolecular_energy": -8.967, "internal_energy": -0.113}

$$$$
cand_010_out
     RDKit          3D

 35 37  0  0  0  0  0  0  0  0999 V2000
   18.6570  -33.9150   38.0340 O   0  0  0  0  0  0  0  0  0  0  0  0
   19.0150  -32.8120   37.6260 C   0  0  0  0  0  0  0  0  0  0  0  0
   18.9200  -31.6200   38.5000 C   0  0  0  0  0  0  0  0  0  0  0  0
   18.4300  -31.8130   39.7790 O   0  0  0  0  0  0  0  0  0  0  0  0
   19.3270  -30.4330   38.0140 C   0  0  0  0  0  0  0  0  0  0  0  0
   19.2880  -29.1810   38.8000 C   0  0  0  0  0  0  0  0  0  0  0  0
   18.2790  -28.2300   38.6190 C   0  0  0  0  0  0  0  0  0  0  0  0
   18.2760  -27.0410   39.3540 C   0  0  0  0  0  0  0  0  0  0  0  0
   19.2890  -26.7660   40.2850 C   0  0  0  0  0  0  0  0  0  0  0  0
   19.2460  -25.4730   41.0650 C   0  0  0  0  0  0  0  0  0  0  0  0
   20.0720  -24.5110   40.5610 F   0  0  0  0  0  0  0  0  0  0  0  0
   20.3180  -27.7140   40.4780 C   0  0  0  0  0  0  0  0  0  0  0  0
   21.4360  -27.4690   41.4660 C   0  0  0  0  0  0  0  0  0  0  0  0
   21.0070  -27.1210   42.7110 F   0  0  0  0  0  0  0  0  0  0  0  0
   22.2240  -28.5660   41.6370 F   0  0  0  0  0  0  0  0  0  0  0  0
   22.2710  -26.4700   41.0680 F   0  0  0  0  0  0  0  0  0  0  0  0
   20.3060  -28.9070   39.7250 C   0  0  0  0  0  0  0  0  0  0  0  0
   19.8460  -30.2540   36.7370 O   0  0  0  0  0  0  0  0  0  0  0  0
   19.9380  -31.3370   35.9010 C   0  0  0  0  0  0  0  0  0  0  0  0
   20.4510  -31.1100   34.6240 C   0  0  0  0  0  0  0  0  0  0  0  0
   20.5740  -32.1710   33.7240 C   0  0  0  0  0  0  0  0  0  0  0  0
   20.1820  -33.4570   34.1000 C   0  0  0  0  0  0  0  0  0  0  0  0
   19.6700  -33.6810   35.3750 C   0  0  0  0  0  0  0  0  0  0  0  0
   19.3080  -34.9650   35.6790 O   0  0  0  0  0  0  0  0  0  0  0  0
   19.5480  -32.6200   36.2760 C   0  0  0  0  0  0  0  0  0  0  0  0
   18.5890  -31.1700   40.4430 H   0  0  0  0  0  0  0  0  0  0  0  0
   17.4779  -28.4198   37.8894 H   0  0  0  0  0  0  0  0  0  0  0  0
   17.4680  -26.3106   39.2003 H   0  0  0  0  0  0  0  0  0  0  0  0
   18.2148  -25.0905   41.0503 H   0  0  0  0  0  0  0  0  0  0  0  0
   19.5906  -25.6964   42.0854 H   0  0  0  0  0  0  0  0  0  0  0  0
   21.1142  -29.6396   39.8667 H   0  0  0  0  0  0  0  0  0  0  0  0
   20.7583  -30.0967   34.3261 H   0  0  0  0  0  0  0  0  0  0  0  0
   20.9804  -31.9930   32.7174 H   0  0  0  0  0  0  0  0  0  0  0  0
   20.2775  -34.2918   33.3901 H   0  0  0  0  0  0  0  0  0  0  0  0
   19.7550  -35.4290   36.3600 H   0  0  0  0  0  0  0  0  0  0  0  0
  1  2  2  0
  2  3  1  0
  3  4  1  0
  3  5  2  0
  5  6  1  0
  6  7  2  0
  7  8  1  0
  8  9  2  0
  9 10  1  0
 10 11  1  0
  9 12  1  0
 12 13  1  0
 13 14  1  0
 13 15  1  0
 13 16  1  0
 12 17  2  0
  5 18  1  0
 18 19  1  0
 19 20  2  0
 20 21  1  0
 21 22  2  0
 22 23  1  0
 23 24  1  0
 23 25  2  0
 25  2  1  0
 17  6  1  0
 25 19  1  0
  4 26  1  0
  7 27  1  0
  8 28  1  0
 10 29  1  0
 10 30  1  0
 17 31  1  0
 20 32  1  0
 21 33  1  0
 22 34  1  0
 24 35  1  0
M  END
>  <meeko>  (6) 
{"is_sidechain": [false], "free_energy": -7.035, "intermolecular_energy": -8.475, "internal_energy": -0.526}

$$$$
cand_010_out
     RDKit          3D

 35 37  0  0  0  0  0  0  0  0999 V2000
   20.7960  -25.2790   40.6140 O   0  0  0  0  0  0  0  0  0  0  0  0
   20.1410  -25.7240   39.6740 C   0  0  0  0  0  0  0  0  0  0  0  0
   20.2730  -27.1440   39.2720 C   0  0  0  0  0  0  0  0  0  0  0  0
   21.1430  -27.9290   40.0060 O   0  0  0  0  0  0  0  0  0  0  0  0
   19.5350  -27.5910   38.2390 C   0  0  0  0  0  0  0  0  0  0  0  0
   19.5770  -28.9890   37.7600 C   0  0  0  0  0  0  0  0  0  0  0  0
   19.7820  -29.2990   36.4120 C   0  0  0  0  0  0  0  0  0  0  0  0
   19.7930  -30.6270   35.9770 C   0  0  0  0  0  0  0  0  0  0  0  0
   19.5880  -31.6830   36.8780 C   0  0  0  0  0  0  0  0  0  0  0  0
   19.6140  -33.1060   36.3690 C   0  0  0  0  0  0  0  0  0  0  0  0
   18.3710  -33.6530   36.2330 F   0  0  0  0  0  0  0  0  0  0  0  0
   19.3760  -31.3890   38.2430 C   0  0  0  0  0  0  0  0  0  0  0  0
   19.1480  -32.4870   39.2570 C   0  0  0  0  0  0  0  0  0  0  0  0
   19.6520  -32.2110   40.4920 F   0  0  0  0  0  0  0  0  0  0  0  0
   17.8250  -32.7480   39.4450 F   0  0  0  0  0  0  0  0  0  0  0  0
   19.7100  -33.6680   38.8800 F   0  0  0  0  0  0  0  0  0  0  0  0
   19.3660  -30.0420   38.6630 C   0  0  0  0  0  0  0  0  0  0  0  0
   18.6390  -26.8020   37.5260 O   0  0  0  0  0  0  0  0  0  0  0  0
   18.5020  -25.4810   37.8690 C   0  0  0  0  0  0  0  0  0  0  0  0
   17.6040  -24.7220   37.1180 C   0  0  0  0  0  0  0  0  0  0  0  0
   17.4150  -23.3710   37.4160 C   0  0  0  0  0  0  0  0  0  0  0  0
   18.1250  -22.7790   38.4630 C   0  0  0  0  0  0  0  0  0  0  0  0
   19.0210  -23.5380   39.2100 C   0  0  0  0  0  0  0  0  0  0  0  0
   19.6810  -22.8960   40.2220 O   0  0  0  0  0  0  0  0  0  0  0  0
   19.2100  -24.8910   38.9130 C   0  0  0  0  0  0  0  0  0  0  0  0
   20.9000  -28.2240   40.8620 H   0  0  0  0  0  0  0  0  0  0  0  0
   19.9365  -28.4878   35.6853 H   0  0  0  0  0  0  0  0  0  0  0  0
   19.9648  -30.8476   34.9131 H   0  0  0  0  0  0  0  0  0  0  0  0
   20.1096  -33.1167   35.3870 H   0  0  0  0  0  0  0  0  0  0  0  0
   20.1557  -33.7085   37.1130 H   0  0  0  0  0  0  0  0  0  0  0  0
   19.1885  -29.8119   39.7239 H   0  0  0  0  0  0  0  0  0  0  0  0
   17.0457  -25.1872   36.2923 H   0  0  0  0  0  0  0  0  0  0  0  0
   16.7060  -22.7722   36.8254 H   0  0  0  0  0  0  0  0  0  0  0  0
   17.9762  -21.7145   38.6968 H   0  0  0  0  0  0  0  0  0  0  0  0
   19.2210  -22.6560   41.0020 H   0  0  0  0  0  0  0  0  0  0  0  0
  1  2  2  0
  2  3  1  0
  3  4  1  0
  3  5  2  0
  5  6  1  0
  6  7  2  0
  7  8  1  0
  8  9  2  0
  9 10  1  0
 10 11  1  0
  9 12  1  0
 12 13  1  0
 13 14  1  0
 13 15  1  0
 13 16  1  0
 12 17  2  0
  5 18  1  0
 18 19  1  0
 19 20  2  0
 20 21  1  0
 21 22  2  0
 22 23  1  0
 23 24  1  0
 23 25  2  0
 25  2  1  0
 17  6  1  0
 25 19  1  0
  4 26  1  0
  7 27  1  0
  8 28  1  0
 10 29  1  0
 10 30  1  0
 17 31  1  0
 20 32  1  0
 21 33  1  0
 22 34  1  0
 24 35  1  0
M  END
>  <meeko>  (7) 
{"is_sidechain": [false], "free_energy": -6.885, "intermolecular_energy": -8.874, "internal_energy": 0.058}

$$$$
cand_010_out
     RDKit          3D

 35 37  0  0  0  0  0  0  0  0999 V2000
   19.7200  -26.4670   41.9430 O   0  0  0  0  0  0  0  0  0  0  0  0
   20.4720  -26.2230   42.8840 C   0  0  0  0  0  0  0  0  0  0  0  0
   20.1180  -25.1860   43.8800 C   0  0  0  0  0  0  0  0  0  0  0  0
   18.9120  -24.5300   43.7070 O   0  0  0  0  0  0  0  0  0  0  0  0
   20.9680  -24.9540   44.8970 C   0  0  0  0  0  0  0  0  0  0  0  0
   20.7110  -23.9520   45.9540 C   0  0  0  0  0  0  0  0  0  0  0  0
   19.9550  -24.2570   47.0890 C   0  0  0  0  0  0  0  0  0  0  0  0
   19.7020  -23.2870   48.0630 C   0  0  0  0  0  0  0  0  0  0  0  0
   20.1920  -21.9800   47.9230 C   0  0  0  0  0  0  0  0  0  0  0  0
   19.9030  -20.9610   49.0010 C   0  0  0  0  0  0  0  0  0  0  0  0
   20.9630  -20.7390   49.8310 F   0  0  0  0  0  0  0  0  0  0  0  0
   20.9550  -21.6520   46.7810 C   0  0  0  0  0  0  0  0  0  0  0  0
   21.5050  -20.2590   46.5760 C   0  0  0  0  0  0  0  0  0  0  0  0
   20.5940  -19.2690   46.7900 F   0  0  0  0  0  0  0  0  0  0  0  0
   22.5500  -19.9890   47.4070 F   0  0  0  0  0  0  0  0  0  0  0  0
   21.9750  -20.0650   45.3130 F   0  0  0  0  0  0  0  0  0  0  0  0
   21.1970  -22.6440   45.8070 C   0  0  0  0  0  0  0  0  0  0  0  0
   22.1640  -25.6390   45.0810 O   0  0  0  0  0  0  0  0  0  0  0  0
   22.5240  -26.5990   44.1700 C   0  0  0  0  0  0  0  0  0  0  0  0
   23.7380  -27.2520   44.3840 C   0  0  0  0  0  0  0  0  0  0  0  0
   24.1630  -28.2410   43.4950 C   0  0  0  0  0  0  0  0  0  0  0  0
   23.3750  -28.5770   42.3920 C   0  0  0  0  0  0  0  0  0  0  0  0
   22.1640  -27.9230   42.1800 C   0  0  0  0  0  0  0  0  0  0  0  0
   21.4410  -28.3020   41.0810 O   0  0  0  0  0  0  0  0  0  0  0  0
   21.7380  -26.9340   43.0700 C   0  0  0  0  0  0  0  0  0  0  0  0
   18.5790  -24.3840   42.8420 H   0  0  0  0  0  0  0  0  0  0  0  0
   19.5540  -25.2732   47.2175 H   0  0  0  0  0  0  0  0  0  0  0  0
   19.1104  -23.5521   48.9517 H   0  0  0  0  0  0  0  0  0  0  0  0
   19.6316  -20.0102   48.5191 H   0  0  0  0  0  0  0  0  0  0  0  0
   19.0845  -21.3614   49.6172 H   0  0  0  0  0  0  0  0  0  0  0  0
   21.7806  -22.3857   44.9111 H   0  0  0  0  0  0  0  0  0  0  0  0
   24.3597  -26.9880   45.2522 H   0  0  0  0  0  0  0  0  0  0  0  0
   25.1200  -28.7564   43.6636 H   0  0  0  0  0  0  0  0  0  0  0  0
   23.7102  -29.3566   41.6922 H   0  0  0  0  0  0  0  0  0  0  0  0
   20.5080  -28.2180   41.0840 H   0  0  0  0  0  0  0  0  0  0  0  0
  1  2  2  0
  2  3  1  0
  3  4  1  0
  3  5  2  0
  5  6  1  0
  6  7  2  0
  7  8  1  0
  8  9  2  0
  9 10  1  0
 10 11  1  0
  9 12  1  0
 12 13  1  0
 13 14  1  0
 13 15  1  0
 13 16  1  0
 12 17  2  0
  5 18  1  0
 18 19  1  0
 19 20  2  0
 20 21  1  0
 21 22  2  0
 22 23  1  0
 23 24  1  0
 23 25  2  0
 25  2  1  0
 17  6  1  0
 25 19  1  0
  4 26  1  0
  7 27  1  0
  8 28  1  0
 10 29  1  0
 10 30  1  0
 17 31  1  0
 20 32  1  0
 21 33  1  0
 22 34  1  0
 24 35  1  0
M  END
>  <meeko>  (8) 
{"is_sidechain": [false], "free_energy": -6.856, "intermolecular_energy": -8.256, "internal_energy": -0.524}

$$$$
cand_010_out
     RDKit          3D

 35 37  0  0  0  0  0  0  0  0999 V2000
   18.8900  -28.8220   37.4510 O   0  0  0  0  0  0  0  0  0  0  0  0
   19.1920  -27.8130   38.0860 C   0  0  0  0  0  0  0  0  0  0  0  0
   19.8040  -27.9270   39.4300 C   0  0  0  0  0  0  0  0  0  0  0  0
   20.0270  -29.2020   39.9150 O   0  0  0  0  0  0  0  0  0  0  0  0
   20.1210  -26.7970   40.0890 C   0  0  0  0  0  0  0  0  0  0  0  0
   20.7460  -26.7920   41.4290 C   0  0  0  0  0  0  0  0  0  0  0  0
   20.2450  -26.0050   42.4710 C   0  0  0  0  0  0  0  0  0  0  0  0
   20.8670  -25.9950   43.7230 C   0  0  0  0  0  0  0  0  0  0  0  0
   22.0150  -26.7650   43.9640 C   0  0  0  0  0  0  0  0  0  0  0  0
   22.6540  -26.7320   45.3340 C   0  0  0  0  0  0  0  0  0  0  0  0
   22.2810  -25.6500   46.0770 F   0  0  0  0  0  0  0  0  0  0  0  0
   22.5360  -27.5640   42.9230 C   0  0  0  0  0  0  0  0  0  0  0  0
   23.7720  -28.4110   43.1260 C   0  0  0  0  0  0  0  0  0  0  0  0
   23.6410  -29.3530   44.1010 F   0  0  0  0  0  0  0  0  0  0  0  0
   24.1240  -29.0890   41.9990 F   0  0  0  0  0  0  0  0  0  0  0  0
   24.8610  -27.6690   43.4690 F   0  0  0  0  0  0  0  0  0  0  0  0
   21.8970  -27.5580   41.6660 C   0  0  0  0  0  0  0  0  0  0  0  0
   19.9200  -25.5190   39.5810 O   0  0  0  0  0  0  0  0  0  0  0  0
   19.3470  -25.3820   38.3430 C   0  0  0  0  0  0  0  0  0  0  0  0
   19.1510  -24.0810   37.8770 C   0  0  0  0  0  0  0  0  0  0  0  0
   18.5730  -23.8700   36.6230 C   0  0  0  0  0  0  0  0  0  0  0  0
   18.1920  -24.9590   35.8360 C   0  0  0  0  0  0  0  0  0  0  0  0
   18.3880  -26.2560   36.3030 C   0  0  0  0  0  0  0  0  0  0  0  0
   17.9930  -27.2760   35.4810 O   0  0  0  0  0  0  0  0  0  0  0  0
   18.9660  -26.4670   37.5580 C   0  0  0  0  0  0  0  0  0  0  0  0
   20.7920  -29.6770   39.6510 H   0  0  0  0  0  0  0  0  0  0  0  0
   19.3509  -25.3865   42.3034 H   0  0  0  0  0  0  0  0  0  0  0  0
   20.4506  -25.3748   44.5305 H   0  0  0  0  0  0  0  0  0  0  0  0
   22.3650  -27.6444   45.8762 H   0  0  0  0  0  0  0  0  0  0  0  0
   23.7418  -26.6658   45.1849 H   0  0  0  0  0  0  0  0  0  0  0  0
   22.3115  -28.1693   40.8508 H   0  0  0  0  0  0  0  0  0  0  0  0
   19.4513  -23.2230   38.4964 H   0  0  0  0  0  0  0  0  0  0  0  0
   18.4178  -22.8451   36.2550 H   0  0  0  0  0  0  0  0  0  0  0  0
   17.7375  -24.7923   34.8482 H   0  0  0  0  0  0  0  0  0  0  0  0
   17.6970  -27.0880   34.6120 H   0  0  0  0  0  0  0  0  0  0  0  0
  1  2  2  0
  2  3  1  0
  3  4  1  0
  3  5  2  0
  5  6  1  0
  6  7  2  0
  7  8  1  0
  8  9  2  0
  9 10  1  0
 10 11  1  0
  9 12  1  0
 12 13  1  0
 13 14  1  0
 13 15  1  0
 13 16  1  0
 12 17  2  0
  5 18  1  0
 18 19  1  0
 19 20  2  0
 20 21  1  0
 21 22  2  0
 22 23  1  0
 23 24  1  0
 23 25  2  0
 25  2  1  0
 17  6  1  0
 25 19  1  0
  4 26  1  0
  7 27  1  0
  8 28  1  0
 10 29  1  0
 10 30  1  0
 17 31  1  0
 20 32  1  0
 21 33  1  0
 22 34  1  0
 24 35  1  0
M  END
>  <meeko>  (9) 
{"is_sidechain": [false], "free_energy": -6.856, "intermolecular_energy": -8.621, "internal_energy": -0.159}

$$$$
