cand_002_out
     RDKit          3D

 45 48  0  0  0  0  0  0  0  0999 V2000
   18.2550  -33.7950   39.2510 C   0  0  0  0  0  0  0  0  0  0  0  0
   18.8160  -32.5890   38.5490 C   0  0  0  0  0  0  0  0  0  0  0  0
   18.7740  -31.3460   39.2100 C   0  0  0  0  0  0  0  0  0  0  0  0
   19.2630  -30.1740   38.6140 C   0  0  0  0  0  0  0  0  0  0  0  0
   19.1780  -28.8880   39.3380 C   0  0  0  0  0  0  0  0  0  0  0  0
   20.0790  -28.8020   40.3930 O   0  0  0  0  0  0  0  0  0  0  0  0
   20.1060  -27.6590   41.1510 C   0  0  0  0  0  0  0  0  0  0  0  0
   21.0160  -27.6210   42.2080 C   0  0  0  0  0  0  0  0  0  0  0  0
   21.0960  -26.4870   43.0190 C   0  0  0  0  0  0  0  0  0  0  0  0
   20.2670  -25.3910   42.7720 C   0  0  0  0  0  0  0  0  0  0  0  0
   19.3600  -25.4310   41.7170 C   0  0  0  0  0  0  0  0  0  0  0  0
   18.5790  -24.3230   41.5310 O   0  0  0  0  0  0  0  0  0  0  0  0
   19.2790  -26.5670   40.9070 C   0  0  0  0  0  0  0  0  0  0  0  0
   18.3400  -26.6500   39.7880 C   0  0  0  0  0  0  0  0  0  0  0  0
   17.5830  -25.7250   39.5030 O   0  0  0  0  0  0  0  0  0  0  0  0
   18.3280  -27.9010   38.9950 C   0  0  0  0  0  0  0  0  0  0  0  0
   17.4470  -27.9640   37.9310 O   0  0  0  0  0  0  0  0  0  0  0  0
   19.7830  -30.2560   37.3200 C   0  0  0  0  0  0  0  0  0  0  0  0
   19.8220  -31.4780   36.6440 C   0  0  0  0  0  0  0  0  0  0  0  0
   19.3390  -32.6550   37.2420 C   0  0  0  0  0  0  0  0  0  0  0  0
   19.4000  -33.9480   36.4480 C   0  0  0  0  0  0  0  0  0  0  0  0
   19.8220  -33.7990   35.0020 C   0  0  0  0  0  0  0  0  0  0  0  0
   20.2900  -34.9120   34.2870 C   0  0  0  0  0  0  0  0  0  0  0  0
   20.7060  -34.7830   32.9610 C   0  0  0  0  0  0  0  0  0  0  0  0
   20.6660  -33.5390   32.3340 C   0  0  0  0  0  0  0  0  0  0  0  0
   20.2160  -32.4230   33.0360 C   0  0  0  0  0  0  0  0  0  0  0  0
   19.8000  -32.5500   34.3630 C   0  0  0  0  0  0  0  0  0  0  0  0
   18.3224  -33.6501   40.3393 H   0  0  0  0  0  0  0  0  0  0  0  0
   17.2018  -33.9297   38.9636 H   0  0  0  0  0  0  0  0  0  0  0  0
   18.8305  -34.6873   38.9636 H   0  0  0  0  0  0  0  0  0  0  0  0
   18.3458  -31.2927   40.2218 H   0  0  0  0  0  0  0  0  0  0  0  0
   21.6700  -28.4838   42.4024 H   0  0  0  0  0  0  0  0  0  0  0  0
   21.8126  -26.4572   43.8530 H   0  0  0  0  0  0  0  0  0  0  0  0
   20.3306  -24.4973   43.4102 H   0  0  0  0  0  0  0  0  0  0  0  0
   18.0910  -24.2210   40.7380 H   0  0  0  0  0  0  0  0  0  0  0  0
   17.6630  -27.5510   37.1180 H   0  0  0  0  0  0  0  0  0  0  0  0
   20.1656  -29.3494   36.8284 H   0  0  0  0  0  0  0  0  0  0  0  0
   20.2377  -31.5199   35.6265 H   0  0  0  0  0  0  0  0  0  0  0  0
   20.1174  -34.6181   36.9442 H   0  0  0  0  0  0  0  0  0  0  0  0
   18.3728  -34.3409   36.4265 H   0  0  0  0  0  0  0  0  0  0  0  0
   20.3294  -35.8962   34.7766 H   0  0  0  0  0  0  0  0  0  0  0  0
   21.0659  -35.6644   32.4101 H   0  0  0  0  0  0  0  0  0  0  0  0
   20.9890  -33.4386   31.2873 H   0  0  0  0  0  0  0  0  0  0  0  0
   20.1883  -31.4396   32.5439 H   0  0  0  0  0  0  0  0  0  0  0  0
   19.4519  -31.6628   34.9123 H   0  0  0  0  0  0  0  0  0  0  0  0
  1  2  1  0
  2  3  2  0
  3  4  1  0
  4  5  1  0
  5  6  1  0
  6  7  1  0
  7  8  2  0
  8  9  1  0
  9 10  2  0
 10 11  1  0
 11 12  1  0
 11 13  2  0
 13 14  1  0
 14 15  2  0
 14 16  1  0
 16 17  1  0
  4 18  2  0
 18 19  1  0
 19 20  2  0
 20 21  1  0
 21 22  1  0
 22 23  2  0
 23 24  1  0
 24 25  2  0
 25 26  1  0
 26 27  2  0
 20  2  1  0
 27 22  1  0
 16  5  2  0
 13  7  1  0
  1 28  1  0
  1 29  1  0
  1 30  1  0
  3 31  1  0
  8 32  1  0
  9 33  1  0
 10 34  1  0
 12 35  1  0
 17 36  1  0
 18 37  1  0
 19 38  1  0
 21 39  1  0
 21 40  1  0
 23 41  1  0
 24 42  1  0
 25 43  1  0
 26 44  1  0
 27 45  1  0
M  END
>  <meeko>  (1) 
{"is_sidechain": [false], "free_energy": -9.43, "intermolecular_energy": -11.636, "internal_energy": 0.437}

$$$$
cand_002_out
     RDKit          3D

 45 48  0  0  0  0  0  0  0  0999 V2000
   19.7880  -26.7600   41.3820 C   0  0  0  0  0  0  0  0  0  0  0  0
   19.5990  -27.0760   39.9240 C   0  0  0  0  0  0  0  0  0  0  0  0
   19.5820  -28.4270   39.5260 C   0  0  0  0  0  0  0  0  0  0  0  0
   19.4250  -28.8000   38.1820 C   0  0  0  0  0  0  0  0  0  0  0  0
   19.4360  -30.2310   37.8090 C   0  0  0  0  0  0  0  0  0  0  0  0
   18.9770  -31.0580   38.8280 O   0  0  0  0  0  0  0  0  0  0  0  0
   18.9330  -32.4120   38.6150 C   0  0  0  0  0  0  0  0  0  0  0  0
   18.4790  -33.2050   39.6700 C   0  0  0  0  0  0  0  0  0  0  0  0
   18.4090  -34.5910   39.5190 C   0  0  0  0  0  0  0  0  0  0  0  0
   18.7920  -35.1840   38.3140 C   0  0  0  0  0  0  0  0  0  0  0  0
   19.2450  -34.3910   37.2640 C   0  0  0  0  0  0  0  0  0  0  0  0
   19.6040  -35.0370   36.1120 O   0  0  0  0  0  0  0  0  0  0  0  0
   19.3160  -33.0030   37.4160 C   0  0  0  0  0  0  0  0  0  0  0  0
   19.7860  -32.1330   36.3370 C   0  0  0  0  0  0  0  0  0  0  0  0
   20.1350  -32.5800   35.2450 O   0  0  0  0  0  0  0  0  0  0  0  0
   19.8310  -30.6770   36.6010 C   0  0  0  0  0  0  0  0  0  0  0  0
   20.2630  -29.8630   35.5710 O   0  0  0  0  0  0  0  0  0  0  0  0
   19.3060  -27.7910   37.2240 C   0  0  0  0  0  0  0  0  0  0  0  0
   19.3320  -26.4460   37.5990 C   0  0  0  0  0  0  0  0  0  0  0  0
   19.4820  -26.0690   38.9450 C   0  0  0  0  0  0  0  0  0  0  0  0
   19.5140  -24.5890   39.2830 C   0  0  0  0  0  0  0  0  0  0  0  0
   18.8050  -23.6850   38.2980 C   0  0  0  0  0  0  0  0  0  0  0  0
   19.5250  -22.7040   37.6000 C   0  0  0  0  0  0  0  0  0  0  0  0
   18.8800  -21.8470   36.7070 C   0  0  0  0  0  0  0  0  0  0  0  0
   17.5060  -21.9550   36.5050 C   0  0  0  0  0  0  0  0  0  0  0  0
   16.7750  -22.9160   37.2020 C   0  0  0  0  0  0  0  0  0  0  0  0
   17.4200  -23.7740   38.0950 C   0  0  0  0  0  0  0  0  0  0  0  0
   19.3180  -27.5459   41.9914 H   0  0  0  0  0  0  0  0  0  0  0  0
   20.8629  -26.7125   41.6105 H   0  0  0  0  0  0  0  0  0  0  0  0
   19.3214  -25.7905   41.6105 H   0  0  0  0  0  0  0  0  0  0  0  0
   19.6948  -29.2111   40.2892 H   0  0  0  0  0  0  0  0  0  0  0  0
   18.1767  -32.7385   40.6192 H   0  0  0  0  0  0  0  0  0  0  0  0
   18.0518  -35.2168   40.3501 H   0  0  0  0  0  0  0  0  0  0  0  0
   18.7357  -36.2761   38.1951 H   0  0  0  0  0  0  0  0  0  0  0  0
   19.2030  -35.8530   35.8880 H   0  0  0  0  0  0  0  0  0  0  0  0
   19.8050  -29.0680   35.3770 H   0  0  0  0  0  0  0  0  0  0  0  0
   19.1906  -28.0583   36.1632 H   0  0  0  0  0  0  0  0  0  0  0  0
   19.2334  -25.6680   36.8277 H   0  0  0  0  0  0  0  0  0  0  0  0
   19.0422  -24.4550   40.2676 H   0  0  0  0  0  0  0  0  0  0  0  0
   20.5735  -24.2942   39.2581 H   0  0  0  0  0  0  0  0  0  0  0  0
   20.6094  -22.6092   37.7582 H   0  0  0  0  0  0  0  0  0  0  0  0
   19.4573  -21.0855   36.1621 H   0  0  0  0  0  0  0  0  0  0  0  0
   16.9987  -21.2833   35.7969 H   0  0  0  0  0  0  0  0  0  0  0  0
   15.6889  -22.9984   37.0483 H   0  0  0  0  0  0  0  0  0  0  0  0
   16.8363  -24.5271   38.6447 H   0  0  0  0  0  0  0  0  0  0  0  0
  1  2  1  0
  2  3  2  0
  3  4  1  0
  4  5  1  0
  5  6  1  0
  6  7  1  0
  7  8  2  0
  8  9  1  0
  9 10  2  0
 10 11  1  0
 11 12  1  0
 11 13  2  0
 13 14  1  0
 14 15  2  0
 14 16  1  0
 16 17  1  0
  4 18  2  0
 18 19  1  0
 19 20  2  0
 20 21  1  0
 21 22  1  0
 22 23  2  0
 23 24  1  0
 24 25  2  0
 25 26  1  0
 26 27  2  0
 20  2  1  0
 27 22  1  0
 16  5  2  0
 13  7  1  0
  1 28  1  0
  1 29  1  0
  1 30  1  0
  3 31  1  0
  8 32  1  0
  9 33  1  0
 10 34  1  0
 12 35  1  0
 17 36  1  0
 18 37  1  0
 19 38  1  0
 21 39  1  0
 21 40  1  0
 23 41  1  0
 24 42  1  0
 25 43  1  0
 26 44  1  0
 27 45  1  0
M  END
>  <meeko>  (2) 
{"is_sidechain": [false], "free_energy": -8.706, "intermolecular_energy": -10.063, "internal_energy": -0.242}

$$$$
cand_002_out
     RDKit          3D

 45 48  0  0  0  0  0  0  0  0999 V2000
   17.6040  -25.0150   37.7690 C   0  0  0  0  0  0  0  0  0  0  0  0
   18.6170  -25.9320   38.3960 C   0  0  0  0  0  0  0  0  0  0  0  0
   18.6590  -27.2750   37.9760 C   0  0  0  0  0  0  0  0  0  0  0  0
   19.5650  -28.1950   38.5260 C   0  0  0  0  0  0  0  0  0  0  0  0
   19.5570  -29.6010   38.0680 C   0  0  0  0  0  0  0  0  0  0  0  0
   19.1020  -30.4830   39.0410 O   0  0  0  0  0  0  0  0  0  0  0  0
   19.0420  -31.8220   38.7490 C   0  0  0  0  0  0  0  0  0  0  0  0
   18.5930  -32.6720   39.7600 C   0  0  0  0  0  0  0  0  0  0  0  0
   18.5070  -34.0460   39.5270 C   0  0  0  0  0  0  0  0  0  0  0  0
   18.8700  -34.5690   38.2850 C   0  0  0  0  0  0  0  0  0  0  0  0
   19.3180  -33.7190   37.2780 C   0  0  0  0  0  0  0  0  0  0  0  0
   19.6560  -34.2980   36.0850 O   0  0  0  0  0  0  0  0  0  0  0  0
   19.4050  -32.3440   37.5110 C   0  0  0  0  0  0  0  0  0  0  0  0
   19.8700  -31.4150   36.4810 C   0  0  0  0  0  0  0  0  0  0  0  0
   20.2010  -31.7990   35.3600 O   0  0  0  0  0  0  0  0  0  0  0  0
   19.9330  -29.9780   36.8310 C   0  0  0  0  0  0  0  0  0  0  0  0
   20.3610  -29.1070   35.8450 O   0  0  0  0  0  0  0  0  0  0  0  0
   20.4290  -27.7540   39.5320 C   0  0  0  0  0  0  0  0  0  0  0  0
   20.3940  -26.4280   39.9700 C   0  0  0  0  0  0  0  0  0  0  0  0
   19.4910  -25.5030   39.4150 C   0  0  0  0  0  0  0  0  0  0  0  0
   19.4970  -24.0800   39.9450 C   0  0  0  0  0  0  0  0  0  0  0  0
   19.5450  -23.9520   41.4520 C   0  0  0  0  0  0  0  0  0  0  0  0
   19.5960  -22.6830   42.0490 C   0  0  0  0  0  0  0  0  0  0  0  0
   19.6660  -22.5500   43.4360 C   0  0  0  0  0  0  0  0  0  0  0  0
   19.6930  -23.6840   44.2460 C   0  0  0  0  0  0  0  0  0  0  0  0
   19.6560  -24.9510   43.6660 C   0  0  0  0  0  0  0  0  0  0  0  0
   19.5860  -25.0850   42.2780 C   0  0  0  0  0  0  0  0  0  0  0  0
   17.0363  -24.5011   38.5587 H   0  0  0  0  0  0  0  0  0  0  0  0
   18.1200  -24.2706   37.1448 H   0  0  0  0  0  0  0  0  0  0  0  0
   16.9145  -25.6023   37.1448 H   0  0  0  0  0  0  0  0  0  0  0  0
   17.9621  -27.6128   37.1948 H   0  0  0  0  0  0  0  0  0  0  0  0
   18.3072  -32.2604   40.7392 H   0  0  0  0  0  0  0  0  0  0  0  0
   18.1527  -34.7171   40.3233 H   0  0  0  0  0  0  0  0  0  0  0  0
   18.8021  -35.6516   38.1022 H   0  0  0  0  0  0  0  0  0  0  0  0
   20.5580  -34.4410   35.8720 H   0  0  0  0  0  0  0  0  0  0  0  0
   21.0970  -29.3320   35.3090 H   0  0  0  0  0  0  0  0  0  0  0  0
   21.1436  -28.4580   39.9834 H   0  0  0  0  0  0  0  0  0  0  0  0
   21.0840  -26.1017   40.7621 H   0  0  0  0  0  0  0  0  0  0  0  0
   20.3782  -23.5672   39.5320 H   0  0  0  0  0  0  0  0  0  0  0  0
   18.5412  -23.6345   39.6319 H   0  0  0  0  0  0  0  0  0  0  0  0
   19.5806  -21.7832   41.4164 H   0  0  0  0  0  0  0  0  0  0  0  0
   19.6999  -21.5490   43.8909 H   0  0  0  0  0  0  0  0  0  0  0  0
   19.7434  -23.5794   45.3399 H   0  0  0  0  0  0  0  0  0  0  0  0
   19.6820  -25.8472   44.3032 H   0  0  0  0  0  0  0  0  0  0  0  0
   19.5628  -26.0885   41.8280 H   0  0  0  0  0  0  0  0  0  0  0  0
  1  2  1  0
  2  3  2  0
  3  4  1  0
  4  5  1  0
  5  6  1  0
  6  7  1  0
  7  8  2  0
  8  9  1  0
  9 10  2  0
 10 11  1  0
 11 12  1  0
 11 13  2  0
 13 14  1  0
 14 15  2  0
 14 16  1  0
 16 17  1  0
  4 18  2  0
 18 19  1  0
 19 20  2  0
 20 21  1  0
 21 22  1  0
 22 23  2  0
 23 24  1  0
 24 25  2  0
 25 26  1  0
 26 27  2  0
 20  2  1  0
 27 22  1  0
 16  5  2  0
 13  7  1  0
  1 28  1  0
  1 29  1  0
  1 30  1  0
  3 31  1  0
  8 32  1  0
  9 33  1  0
 10 34  1  0
 12 35  1  0
 17 36  1  0
 18 37  1  0
 19 38  1  0
 21 39  1  0
 21 40  1  0
 23 41  1  0
 24 42  1  0
 25 43  1  0
 26 44  1  0
 27 45  1  0
M  END
>  <meeko>  (3) 
{"is_sidechain": [false], "free_energy": -8.633, "intermolecular_energy": -10.153, "internal_energy": -0.062}

$$$$
cand_002_out
     RDKit          3D

 45 48  0  0  0  0  0  0  0  0999 V2000
   18.8700  -20.6990   43.7080 C   0  0  0  0  0  0  0  0  0  0  0  0
   19.1640  -22.1730   43.6790 C   0  0  0  0  0  0  0  0  0  0  0  0
   19.2650  -22.8140   42.4290 C   0  0  0  0  0  0  0  0  0  0  0  0
   19.5210  -24.1890   42.3210 C   0  0  0  0  0  0  0  0  0  0  0  0
   19.5960  -24.8220   40.9860 C   0  0  0  0  0  0  0  0  0  0  0  0
   18.7350  -24.2400   40.0640 O   0  0  0  0  0  0  0  0  0  0  0  0
   18.7020  -24.7300   38.7830 C   0  0  0  0  0  0  0  0  0  0  0  0
   17.8130  -24.1250   37.8950 C   0  0  0  0  0  0  0  0  0  0  0  0
   17.7320  -24.5750   36.5760 C   0  0  0  0  0  0  0  0  0  0  0  0
   18.5390  -25.6300   36.1460 C   0  0  0  0  0  0  0  0  0  0  0  0
   19.4250  -26.2320   37.0340 C   0  0  0  0  0  0  0  0  0  0  0  0
   20.1860  -27.2600   36.5460 O   0  0  0  0  0  0  0  0  0  0  0  0
   19.5060  -25.7820   38.3540 C   0  0  0  0  0  0  0  0  0  0  0  0
   20.4230  -26.3870   39.3200 C   0  0  0  0  0  0  0  0  0  0  0  0
   21.1700  -27.3150   39.0160 O   0  0  0  0  0  0  0  0  0  0  0  0
   20.4270  -25.8410   40.6970 C   0  0  0  0  0  0  0  0  0  0  0  0
   21.3080  -26.4110   41.5980 O   0  0  0  0  0  0  0  0  0  0  0  0
   19.6570  -24.9320   43.4960 C   0  0  0  0  0  0  0  0  0  0  0  0
   19.5490  -24.3160   44.7450 C   0  0  0  0  0  0  0  0  0  0  0  0
   19.2990  -22.9370   44.8560 C   0  0  0  0  0  0  0  0  0  0  0  0
   19.1820  -22.3320   46.2440 C   0  0  0  0  0  0  0  0  0  0  0  0
   20.0610  -22.9650   47.3010 C   0  0  0  0  0  0  0  0  0  0  0  0
   21.3680  -22.4950   47.5020 C   0  0  0  0  0  0  0  0  0  0  0  0
   22.1980  -23.0860   48.4550 C   0  0  0  0  0  0  0  0  0  0  0  0
   21.7370  -24.1600   49.2140 C   0  0  0  0  0  0  0  0  0  0  0  0
   20.4460  -24.6460   49.0160 C   0  0  0  0  0  0  0  0  0  0  0  0
   19.6140  -24.0550   48.0620 C   0  0  0  0  0  0  0  0  0  0  0  0
   18.8022  -20.3591   44.7520 H   0  0  0  0  0  0  0  0  0  0  0  0
   19.6771  -20.1540   43.1966 H   0  0  0  0  0  0  0  0  0  0  0  0
   17.9155  -20.5054   43.1966 H   0  0  0  0  0  0  0  0  0  0  0  0
   19.1396  -22.2198   41.5118 H   0  0  0  0  0  0  0  0  0  0  0  0
   17.1764  -23.2942   38.2335 H   0  0  0  0  0  0  0  0  0  0  0  0
   17.0316  -24.0979   35.8747 H   0  0  0  0  0  0  0  0  0  0  0  0
   18.4745  -25.9847   35.1068 H   0  0  0  0  0  0  0  0  0  0  0  0
   21.1140  -27.2580   36.6750 H   0  0  0  0  0  0  0  0  0  0  0  0
   21.7370  -25.8760   42.2370 H   0  0  0  0  0  0  0  0  0  0  0  0
   19.8511  -26.0131   43.4371 H   0  0  0  0  0  0  0  0  0  0  0  0
   19.6615  -24.9202   45.6573 H   0  0  0  0  0  0  0  0  0  0  0  0
   19.4478  -21.2669   46.1741 H   0  0  0  0  0  0  0  0  0  0  0  0
   18.1448  -22.5069   46.5659 H   0  0  0  0  0  0  0  0  0  0  0  0
   21.7418  -21.6521   46.9021 H   0  0  0  0  0  0  0  0  0  0  0  0
   23.2180  -22.7036   48.6076 H   0  0  0  0  0  0  0  0  0  0  0  0
   22.3907  -24.6231   49.9678 H   0  0  0  0  0  0  0  0  0  0  0  0
   20.0816  -25.4960   49.6116 H   0  0  0  0  0  0  0  0  0  0  0  0
   18.5986  -24.4483   47.9062 H   0  0  0  0  0  0  0  0  0  0  0  0
  1  2  1  0
  2  3  2  0
  3  4  1  0
  4  5  1  0
  5  6  1  0
  6  7  1  0
  7  8  2  0
  8  9  1  0
  9 10  2  0
 10 11  1  0
 11 12  1  0
 11 13  2  0
 13 14  1  0
 14 15  2  0
 14 16  1  0
 16 17  1  0
  4 18  2  0
 18 19  1  0
 19 20  2  0
 20 21  1  0
 21 22  1  0
 22 23  2  0
 23 24  1  0
 24 25  2  0
 25 26  1  0
 26 27  2  0
 20  2  1  0
 27 22  1  0
 16  5  2  0
 13  7  1  0
  1 28  1  0
  1 29  1  0
  1 30  1  0
  3 31  1  0
  8 32  1  0
  9 33  1  0
 10 34  1  0
 12 35  1  0
 17 36  1  0
 18 37  1  0
 19 38  1  0
 21 39  1  0
 21 40  1  0
 23 41  1  0
 24 42  1  0
 25 43  1  0
 26 44  1  0
 27 45  1  0
M  END
>  <meeko>  (4) 
{"is_sidechain": [false], "free_energy": -8.306, "intermolecular_energy": -9.436, "internal_energy": -0.375}

$$$$
cand_002_out
     RDKit          3D

 45 48  0  0  0  0  0  0  0  0999 V2000
   18.2350  -22.8670   46.4630 C   0  0  0  0  0  0  0  0  0  0  0  0
   19.4060  -23.6520   45.9410 C   0  0  0  0  0  0  0  0  0  0  0  0
   19.3610  -24.1250   44.6150 C   0  0  0  0  0  0  0  0  0  0  0  0
   20.4080  -24.8770   44.0610 C   0  0  0  0  0  0  0  0  0  0  0  0
   20.3050  -25.3710   42.6710 C   0  0  0  0  0  0  0  0  0  0  0  0
   19.9200  -24.3820   41.7740 O   0  0  0  0  0  0  0  0  0  0  0  0
   19.7850  -24.7040   40.4480 C   0  0  0  0  0  0  0  0  0  0  0  0
   19.3830  -23.6830   39.5850 C   0  0  0  0  0  0  0  0  0  0  0  0
   19.2280  -23.9440   38.2220 C   0  0  0  0  0  0  0  0  0  0  0  0
   19.4770  -25.2230   37.7220 C   0  0  0  0  0  0  0  0  0  0  0  0
   19.8790  -26.2390   38.5840 C   0  0  0  0  0  0  0  0  0  0  0  0
   20.1060  -27.4690   38.0270 O   0  0  0  0  0  0  0  0  0  0  0  0
   20.0320  -25.9790   39.9490 C   0  0  0  0  0  0  0  0  0  0  0  0
   20.4520  -27.0180   40.8890 C   0  0  0  0  0  0  0  0  0  0  0  0
   20.6960  -28.1670   40.5240 O   0  0  0  0  0  0  0  0  0  0  0  0
   20.5780  -26.6410   42.3160 C   0  0  0  0  0  0  0  0  0  0  0  0
   20.9890  -27.6270   43.1940 O   0  0  0  0  0  0  0  0  0  0  0  0
   21.5090  -25.1750   44.8680 C   0  0  0  0  0  0  0  0  0  0  0  0
   21.5660  -24.7250   46.1890 C   0  0  0  0  0  0  0  0  0  0  0  0
   20.5210  -23.9650   46.7440 C   0  0  0  0  0  0  0  0  0  0  0  0
   20.6420  -23.5160   48.1900 C   0  0  0  0  0  0  0  0  0  0  0  0
   21.7460  -22.5190   48.4680 C   0  0  0  0  0  0  0  0  0  0  0  0
   21.8860  -21.3820   47.6590 C   0  0  0  0  0  0  0  0  0  0  0  0
   22.9150  -20.4670   47.8880 C   0  0  0  0  0  0  0  0  0  0  0  0
   23.8230  -20.6820   48.9220 C   0  0  0  0  0  0  0  0  0  0  0  0
   23.7050  -21.8150   49.7250 C   0  0  0  0  0  0  0  0  0  0  0  0
   22.6750  -22.7300   49.4970 C   0  0  0  0  0  0  0  0  0  0  0  0
   18.2485  -22.8761   47.5629 H   0  0  0  0  0  0  0  0  0  0  0  0
   18.2999  -21.8292   46.1040 H   0  0  0  0  0  0  0  0  0  0  0  0
   17.2997  -23.3213   46.1040 H   0  0  0  0  0  0  0  0  0  0  0  0
   18.4801  -23.8984   43.9963 H   0  0  0  0  0  0  0  0  0  0  0  0
   19.1886  -22.6742   39.9782 H   0  0  0  0  0  0  0  0  0  0  0  0
   18.9093  -23.1406   37.5416 H   0  0  0  0  0  0  0  0  0  0  0  0
   19.3557  -25.4278   36.6481 H   0  0  0  0  0  0  0  0  0  0  0  0
   20.8370  -27.5960   37.4550 H   0  0  0  0  0  0  0  0  0  0  0  0
   21.3600  -27.3920   44.0220 H   0  0  0  0  0  0  0  0  0  0  0  0
   22.3390  -25.7698   44.4590 H   0  0  0  0  0  0  0  0  0  0  0  0
   22.4434  -24.9693   46.8059 H   0  0  0  0  0  0  0  0  0  0  0  0
   19.6870  -23.0561   48.4840 H   0  0  0  0  0  0  0  0  0  0  0  0
   20.8939  -24.4174   48.7680 H   0  0  0  0  0  0  0  0  0  0  0  0
   21.1775  -21.2094   46.8354 H   0  0  0  0  0  0  0  0  0  0  0  0
   23.0089  -19.5751   47.2511 H   0  0  0  0  0  0  0  0  0  0  0  0
   24.6317  -19.9590   49.1045 H   0  0  0  0  0  0  0  0  0  0  0  0
   24.4240  -21.9887   50.5392 H   0  0  0  0  0  0  0  0  0  0  0  0
   22.5916  -23.6251   50.1309 H   0  0  0  0  0  0  0  0  0  0  0  0
  1  2  1  0
  2  3  2  0
  3  4  1  0
  4  5  1  0
  5  6  1  0
  6  7  1  0
  7  8  2  0
  8  9  1  0
  9 10  2  0
 10 11  1  0
 11 12  1  0
 11 13  2  0
 13 14  1  0
 14 15  2  0
 14 16  1  0
 16 17  1  0
  4 18  2  0
 18 19  1  0
 19 20  2  0
 20 21  1  0
 21 22  1  0
 22 23  2  0
 23 24  1  0
 24 25  2  0
 25 26  1  0
 26 27  2  0
 20  2  1  0
 27 22  1  0
 16  5  2  0
 13  7  1  0
  1 28  1  0
  1 29  1  0
  1 30  1  0
  3 31  1  0
  8 32  1  0
  9 33  1  0
 10 34  1  0
 12 35  1  0
 17 36  1  0
 18 37  1  0
 19 38  1  0
 21 39  1  0
 21 40  1  0
 23 41  1  0
 24 42  1  0
 25 43  1  0
 26 44  1  0
 27 45  1  0
M  END
>  <meeko>  (5) 
{"is_sidechain": [false], "free_energy": -8.3, "intermolecular_energy": -9.106, "internal_energy": -0.699}

$$$$
cand_002_out
     RDKit          3D

 45 48  0  0  0  0  0  0  0  0999 V2000
   20.0120  -23.6600   41.1550 C   0  0  0  0  0  0  0  0  0  0  0  0
   19.6460  -24.9790   40.5320 C   0  0  0  0  0  0  0  0  0  0  0  0
   19.2440  -24.9960   39.1820 C   0  0  0  0  0  0  0  0  0  0  0  0
   18.8720  -26.1850   38.5360 C   0  0  0  0  0  0  0  0  0  0  0  0
   18.4360  -26.1500   37.1230 C   0  0  0  0  0  0  0  0  0  0  0  0
   17.1890  -25.5600   36.9580 O   0  0  0  0  0  0  0  0  0  0  0  0
   16.6630  -25.4610   35.6950 C   0  0  0  0  0  0  0  0  0  0  0  0
   15.4020  -24.8750   35.5770 C   0  0  0  0  0  0  0  0  0  0  0  0
   14.8100  -24.7430   34.3190 C   0  0  0  0  0  0  0  0  0  0  0  0
   15.4780  -25.1970   33.1800 C   0  0  0  0  0  0  0  0  0  0  0  0
   16.7360  -25.7810   33.3010 C   0  0  0  0  0  0  0  0  0  0  0  0
   17.3350  -26.2040   32.1440 O   0  0  0  0  0  0  0  0  0  0  0  0
   17.3280  -25.9140   34.5600 C   0  0  0  0  0  0  0  0  0  0  0  0
   18.6470  -26.5230   34.7310 C   0  0  0  0  0  0  0  0  0  0  0  0
   19.3000  -26.9400   33.7760 O   0  0  0  0  0  0  0  0  0  0  0  0
   19.1830  -26.6230   36.1080 C   0  0  0  0  0  0  0  0  0  0  0  0
   20.4370  -27.1870   36.2560 O   0  0  0  0  0  0  0  0  0  0  0  0
   18.8850  -27.3720   39.2730 C   0  0  0  0  0  0  0  0  0  0  0  0
   19.2690  -27.3720   40.6150 C   0  0  0  0  0  0  0  0  0  0  0  0
   19.6500  -26.1830   41.2630 C   0  0  0  0  0  0  0  0  0  0  0  0
   20.0450  -26.2520   42.7280 C   0  0  0  0  0  0  0  0  0  0  0  0
   21.3850  -26.8990   43.0060 C   0  0  0  0  0  0  0  0  0  0  0  0
   21.9930  -26.7460   44.2610 C   0  0  0  0  0  0  0  0  0  0  0  0
   23.2400  -27.3150   44.5220 C   0  0  0  0  0  0  0  0  0  0  0  0
   23.9000  -28.0370   43.5300 C   0  0  0  0  0  0  0  0  0  0  0  0
   23.3140  -28.1860   42.2740 C   0  0  0  0  0  0  0  0  0  0  0  0
   22.0670  -27.6160   42.0120 C   0  0  0  0  0  0  0  0  0  0  0  0
   19.9864  -23.7524   42.2508 H   0  0  0  0  0  0  0  0  0  0  0  0
   21.0241  -23.3716   40.8349 H   0  0  0  0  0  0  0  0  0  0  0  0
   19.2932  -22.8913   40.8349 H   0  0  0  0  0  0  0  0  0  0  0  0
   19.2210  -24.0514   38.6188 H   0  0  0  0  0  0  0  0  0  0  0  0
   14.8749  -24.5175   36.4738 H   0  0  0  0  0  0  0  0  0  0  0  0
   13.8162  -24.2808   34.2253 H   0  0  0  0  0  0  0  0  0  0  0  0
   15.0113  -25.0935   32.1893 H   0  0  0  0  0  0  0  0  0  0  0  0
   16.9000  -26.0870   31.3230 H   0  0  0  0  0  0  0  0  0  0  0  0
   21.0020  -26.8980   36.9460 H   0  0  0  0  0  0  0  0  0  0  0  0
   18.5898  -28.3157   38.7910 H   0  0  0  0  0  0  0  0  0  0  0  0
   19.2738  -28.3184   41.1757 H   0  0  0  0  0  0  0  0  0  0  0  0
   20.0753  -25.2249   43.1207 H   0  0  0  0  0  0  0  0  0  0  0  0
   19.2924  -26.8882   43.2167 H   0  0  0  0  0  0  0  0  0  0  0  0
   21.4814  -26.1716   45.0473 H   0  0  0  0  0  0  0  0  0  0  0  0
   23.7027  -27.1933   45.5125 H   0  0  0  0  0  0  0  0  0  0  0  0
   24.8814  -28.4885   43.7374 H   0  0  0  0  0  0  0  0  0  0  0  0
   23.8348  -28.7533   41.4885 H   0  0  0  0  0  0  0  0  0  0  0  0
   21.6146  -27.7303   41.0159 H   0  0  0  0  0  0  0  0  0  0  0  0
  1  2  1  0
  2  3  2  0
  3  4  1  0
  4  5  1  0
  5  6  1  0
  6  7  1  0
  7  8  2  0
  8  9  1  0
  9 10  2  0
 10 11  1  0
 11 12  1  0
 11 13  2  0
 13 14  1  0
 14 15  2  0
 14 16  1  0
 16 17  1  0
  4 18  2  0
 18 19  1  0
 19 20  2  0
 20 21  1  0
 21 22  1  0
 22 23  2  0
 23 24  1  0
 24 25  2  0
 25 26  1  0
 26 27  2  0
 20  2  1  0
 27 22  1  0
 16  5  2  0
 13  7  1  0
  1 28  1  0
  1 29  1  0
  1 30  1  0
  3 31  1  0
  8 32  1  0
  9 33  1  0
 10 34  1  0
 12 35  1  0
 17 36  1  0
 18 37  1  0
 19 38  1  0
 21 39  1  0
 21 40  1  0
 23 41  1  0
 24 42  1  0
 25 43  1  0
 26 44  1  0
 27 45  1  0
M  END
>  <meeko>  (6) 
{"is_sidechain": [false], "free_energy": -8.283, "intermolecular_energy": -9.182, "internal_energy": -0.601}

$$$$
cand_002_out
     RDKit          3D

 45 48  0  0  0  0  0  0  0  0999 V2000
   21.9430  -27.4120   43.0250 C   0  0  0  0  0  0  0  0  0  0  0  0
   20.8790  -26.8820   42.1030 C   0  0  0  0  0  0  0  0  0  0  0  0
   20.7890  -27.4150   40.8030 C   0  0  0  0  0  0  0  0  0  0  0  0
   19.8340  -26.9610   39.8810 C   0  0  0  0  0  0  0  0  0  0  0  0
   19.7920  -27.5360   38.5200 C   0  0  0  0  0  0  0  0  0  0  0  0
   19.9220  -28.9200   38.5140 O   0  0  0  0  0  0  0  0  0  0  0  0
   19.9000  -29.5840   37.3140 C   0  0  0  0  0  0  0  0  0  0  0  0
   20.0480  -30.9710   37.3550 C   0  0  0  0  0  0  0  0  0  0  0  0
   20.0330  -31.7080   36.1690 C   0  0  0  0  0  0  0  0  0  0  0  0
   19.8700  -31.0590   34.9440 C   0  0  0  0  0  0  0  0  0  0  0  0
   19.7230  -29.6750   34.9060 C   0  0  0  0  0  0  0  0  0  0  0  0
   19.5670  -29.1030   33.6720 O   0  0  0  0  0  0  0  0  0  0  0  0
   19.7390  -28.9370   36.0930 C   0  0  0  0  0  0  0  0  0  0  0  0
   19.5870  -27.4820   36.0980 C   0  0  0  0  0  0  0  0  0  0  0  0
   19.4330  -26.8400   35.0610 O   0  0  0  0  0  0  0  0  0  0  0  0
   19.6250  -26.7930   37.4090 C   0  0  0  0  0  0  0  0  0  0  0  0
   19.4680  -25.4200   37.4030 O   0  0  0  0  0  0  0  0  0  0  0  0
   18.9690  -25.9360   40.2740 C   0  0  0  0  0  0  0  0  0  0  0  0
   19.0510  -25.3860   41.5550 C   0  0  0  0  0  0  0  0  0  0  0  0
   20.0030  -25.8440   42.4830 C   0  0  0  0  0  0  0  0  0  0  0  0
   20.0460  -25.1960   43.8560 C   0  0  0  0  0  0  0  0  0  0  0  0
   19.5680  -23.7610   43.9080 C   0  0  0  0  0  0  0  0  0  0  0  0
   20.3820  -22.7300   43.4160 C   0  0  0  0  0  0  0  0  0  0  0  0
   19.9640  -21.4000   43.4810 C   0  0  0  0  0  0  0  0  0  0  0  0
   18.7300  -21.0830   44.0450 C   0  0  0  0  0  0  0  0  0  0  0  0
   17.9170  -22.0950   44.5490 C   0  0  0  0  0  0  0  0  0  0  0  0
   18.3340  -23.4260   44.4850 C   0  0  0  0  0  0  0  0  0  0  0  0
   21.6334  -27.2578   44.0692 H   0  0  0  0  0  0  0  0  0  0  0  0
   22.0864  -28.4868   42.8400 H   0  0  0  0  0  0  0  0  0  0  0  0
   22.8873  -26.8790   42.8400 H   0  0  0  0  0  0  0  0  0  0  0  0
   21.4872  -28.2098   40.5017 H   0  0  0  0  0  0  0  0  0  0  0  0
   20.1763  -31.4830   38.3201 H   0  0  0  0  0  0  0  0  0  0  0  0
   20.1498  -32.8013   36.2002 H   0  0  0  0  0  0  0  0  0  0  0  0
   19.8577  -31.6401   34.0101 H   0  0  0  0  0  0  0  0  0  0  0  0
   20.3200  -28.8620   33.1690 H   0  0  0  0  0  0  0  0  0  0  0  0
   19.7940  -24.9140   36.6840 H   0  0  0  0  0  0  0  0  0  0  0  0
   18.2157  -25.5585   39.5669 H   0  0  0  0  0  0  0  0  0  0  0  0
   18.3591  -24.5808   41.8430 H   0  0  0  0  0  0  0  0  0  0  0  0
   19.4135  -25.7898   44.5322 H   0  0  0  0  0  0  0  0  0  0  0  0
   21.1058  -25.1749   44.1499 H   0  0  0  0  0  0  0  0  0  0  0  0
   21.3599  -22.9723   42.9744 H   0  0  0  0  0  0  0  0  0  0  0  0
   20.6094  -20.6013   43.0866 H   0  0  0  0  0  0  0  0  0  0  0  0
   18.3986  -20.0352   44.0921 H   0  0  0  0  0  0  0  0  0  0  0  0
   16.9445  -21.8454   44.9984 H   0  0  0  0  0  0  0  0  0  0  0  0
   17.6889  -24.2192   44.8908 H   0  0  0  0  0  0  0  0  0  0  0  0
  1  2  1  0
  2  3  2  0
  3  4  1  0
  4  5  1  0
  5  6  1  0
  6  7  1  0
  7  8  2  0
  8  9  1  0
  9 10  2  0
 10 11  1  0
 11 12  1  0
 11 13  2  0
 13 14  1  0
 14 15  2  0
 14 16  1  0
 16 17  1  0
  4 18  2  0
 18 19  1  0
 19 20  2  0
 20 21  1  0
 21 22  1  0
 22 23  2  0
 23 24  1  0
 24 25  2  0
 25 26  1  0
 26 27  2  0
 20  2  1  0
 27 22  1  0
 16  5  2  0
 13  7  1  0
  1 28  1  0
  1 29  1  0
  1 30  1  0
  3 31  1  0
  8 32  1  0
  9 33  1  0
 10 34  1  0
 12 35  1  0
 17 36  1  0
 18 37  1  0
 19 38  1  0
 21 39  1  0
 21 40  1  0
 23 41  1  0
 24 42  1  0
 25 43  1  0
 26 44  1  0
 27 45  1  0
M  END
>  <meeko>  (7) 
{"is_sidechain": [false], "free_energy": -8.159, "intermolecular_energy": -9.133, "internal_energy": -0.497}

$$$$
cand_002_out
     RDKit          3D

 45 48  0  0  0  0  0  0  0  0999 V2000
   17.4620  -22.5050   46.1850 C   0  0  0  0  0  0  0  0  0  0  0  0
   18.6270  -23.2810   45.6350 C   0  0  0  0  0  0  0  0  0  0  0  0
   18.6450  -23.5800   44.2590 C   0  0  0  0  0  0  0  0  0  0  0  0
   19.6900  -24.3130   43.6750 C   0  0  0  0  0  0  0  0  0  0  0  0
   19.6540  -24.6220   42.2290 C   0  0  0  0  0  0  0  0  0  0  0  0
   19.5980  -25.9860   41.9700 O   0  0  0  0  0  0  0  0  0  0  0  0
   19.5600  -26.4140   40.6670 C   0  0  0  0  0  0  0  0  0  0  0  0
   19.5180  -27.7920   40.4530 C   0  0  0  0  0  0  0  0  0  0  0  0
   19.4770  -28.2930   39.1500 C   0  0  0  0  0  0  0  0  0  0  0  0
   19.4760  -27.4180   38.0630 C   0  0  0  0  0  0  0  0  0  0  0  0
   19.5180  -26.0430   38.2790 C   0  0  0  0  0  0  0  0  0  0  0  0
   19.5150  -25.2420   37.1690 O   0  0  0  0  0  0  0  0  0  0  0  0
   19.5610  -25.5410   39.5830 C   0  0  0  0  0  0  0  0  0  0  0  0
   19.6050  -24.1040   39.8540 C   0  0  0  0  0  0  0  0  0  0  0  0
   19.6010  -23.2700   38.9500 O   0  0  0  0  0  0  0  0  0  0  0  0
   19.6560  -23.6750   41.2710 C   0  0  0  0  0  0  0  0  0  0  0  0
   19.6840  -22.3150   41.5170 O   0  0  0  0  0  0  0  0  0  0  0  0
   20.7210  -24.7690   44.4990 C   0  0  0  0  0  0  0  0  0  0  0  0
   20.7140  -24.4920   45.8680 C   0  0  0  0  0  0  0  0  0  0  0  0
   19.6720  -23.7520   46.4550 C   0  0  0  0  0  0  0  0  0  0  0  0
   19.7200  -23.4960   47.9510 C   0  0  0  0  0  0  0  0  0  0  0  0
   21.0370  -22.9640   48.4740 C   0  0  0  0  0  0  0  0  0  0  0  0
   21.5340  -21.7370   48.0090 C   0  0  0  0  0  0  0  0  0  0  0  0
   22.7590  -21.2470   48.4640 C   0  0  0  0  0  0  0  0  0  0  0  0
   23.5070  -21.9810   49.3820 C   0  0  0  0  0  0  0  0  0  0  0  0
   23.0320  -23.2070   49.8420 C   0  0  0  0  0  0  0  0  0  0  0  0
   21.8060  -23.6980   49.3880 C   0  0  0  0  0  0  0  0  0  0  0  0
   17.4936  -22.5261   47.2843 H   0  0  0  0  0  0  0  0  0  0  0  0
   17.5181  -21.4632   45.8365 H   0  0  0  0  0  0  0  0  0  0  0  0
   16.5222  -22.9582   45.8365 H   0  0  0  0  0  0  0  0  0  0  0  0
   17.8176  -23.2296   43.6245 H   0  0  0  0  0  0  0  0  0  0  0  0
   19.5172  -28.4827   41.3091 H   0  0  0  0  0  0  0  0  0  0  0  0
   19.4454  -29.3794   38.9803 H   0  0  0  0  0  0  0  0  0  0  0  0
   19.4421  -27.8138   37.0372 H   0  0  0  0  0  0  0  0  0  0  0  0
   19.1980  -24.3630   37.2270 H   0  0  0  0  0  0  0  0  0  0  0  0
   19.7570  -21.9990   42.3960 H   0  0  0  0  0  0  0  0  0  0  0  0
   21.5469  -25.3522   44.0657 H   0  0  0  0  0  0  0  0  0  0  0  0
   21.5377  -24.8590   46.4979 H   0  0  0  0  0  0  0  0  0  0  0  0
   18.9364  -22.7639   48.1959 H   0  0  0  0  0  0  0  0  0  0  0  0
   19.5745  -24.4745   48.4320 H   0  0  0  0  0  0  0  0  0  0  0  0
   20.9523  -21.1555   47.2786 H   0  0  0  0  0  0  0  0  0  0  0  0
   23.1344  -20.2802   48.0974 H   0  0  0  0  0  0  0  0  0  0  0  0
   24.4710  -21.5931   49.7429 H   0  0  0  0  0  0  0  0  0  0  0  0
   23.6234  -23.7893   50.5639 H   0  0  0  0  0  0  0  0  0  0  0  0
   21.4402  -24.6698   49.7510 H   0  0  0  0  0  0  0  0  0  0  0  0
  1  2  1  0
  2  3  2  0
  3  4  1  0
  4  5  1  0
  5  6  1  0
  6  7  1  0
  7  8  2  0
  8  9  1  0
  9 10  2  0
 10 11  1  0
 11 12  1  0
 11 13  2  0
 13 14  1  0
 14 15  2  0
 14 16  1  0
 16 17  1  0
  4 18  2  0
 18 19  1  0
 19 20  2  0
 20 21  1  0
 21 22  1  0
 22 23  2  0
 23 24  1  0
 24 25  2  0
 25 26  1  0
 26 27  2  0
 20  2  1  0
 27 22  1  0
 16  5  2  0
 13  7  1  0
  1 28  1  0
  1 29  1  0
  1 30  1  0
  3 31  1  0
  8 32  1  0
  9 33  1  0
 10 34  1  0
 12 35  1  0
 17 36  1  0
 18 37  1  0
 19 38  1  0
 21 39  1  0
 21 40  1  0
 23 41  1  0
 24 42  1  0
 25 43  1  0
 26 44  1  0
 27 45  1  0
M  END
>  <meeko>  (8) 
{"is_sidechain": [false], "free_energy": -8.134, "intermolecular_energy": -8.808, "internal_energy": -0.791}

$$$$
cand_002_out
     RDKit          3D

 45 48  0  0  0  0  0  0  0  0999 V2000
   19.5130  -24.1750   42.7830 C   0  0  0  0  0  0  0  0  0  0  0  0
   19.5740  -24.9350   41.4870 C   0  0  0  0  0  0  0  0  0  0  0  0
   19.2910  -24.2480   40.2910 C   0  0  0  0  0  0  0  0  0  0  0  0
   19.3120  -24.8930   39.0440 C   0  0  0  0  0  0  0  0  0  0  0  0
   18.9860  -24.1340   37.8170 C   0  0  0  0  0  0  0  0  0  0  0  0
   18.5210  -24.9450   36.7890 O   0  0  0  0  0  0  0  0  0  0  0  0
   18.1810  -24.3700   35.5910 C   0  0  0  0  0  0  0  0  0  0  0  0
   17.7330  -25.2230   34.5820 C   0  0  0  0  0  0  0  0  0  0  0  0
   17.3690  -24.7010   33.3390 C   0  0  0  0  0  0  0  0  0  0  0  0
   17.4540  -23.3270   33.1050 C   0  0  0  0  0  0  0  0  0  0  0  0
   17.9010  -22.4780   34.1140 C   0  0  0  0  0  0  0  0  0  0  0  0
   17.9590  -21.1430   33.8170 O   0  0  0  0  0  0  0  0  0  0  0  0
   18.2660  -23.0010   35.3570 C   0  0  0  0  0  0  0  0  0  0  0  0
   18.7420  -22.1440   36.4440 C   0  0  0  0  0  0  0  0  0  0  0  0
   18.8370  -20.9240   36.3170 O   0  0  0  0  0  0  0  0  0  0  0  0
   19.1100  -22.7970   37.7210 C   0  0  0  0  0  0  0  0  0  0  0  0
   19.5450  -21.9760   38.7450 O   0  0  0  0  0  0  0  0  0  0  0  0
   19.6030  -26.2590   39.0100 C   0  0  0  0  0  0  0  0  0  0  0  0
   19.8740  -26.9590   40.1870 C   0  0  0  0  0  0  0  0  0  0  0  0
   19.8600  -26.3140   41.4360 C   0  0  0  0  0  0  0  0  0  0  0  0
   20.1530  -27.1370   42.6790 C   0  0  0  0  0  0  0  0  0  0  0  0
   21.6110  -27.2070   43.0780 C   0  0  0  0  0  0  0  0  0  0  0  0
   22.5230  -27.9240   42.2880 C   0  0  0  0  0  0  0  0  0  0  0  0
   23.8650  -28.0180   42.6580 C   0  0  0  0  0  0  0  0  0  0  0  0
   24.3130  -27.4040   43.8270 C   0  0  0  0  0  0  0  0  0  0  0  0
   23.4150  -26.7010   44.6280 C   0  0  0  0  0  0  0  0  0  0  0  0
   22.0720  -26.6060   44.2590 C   0  0  0  0  0  0  0  0  0  0  0  0
   19.5696  -24.8807   43.6249 H   0  0  0  0  0  0  0  0  0  0  0  0
   20.3576  -23.4723   42.8361 H   0  0  0  0  0  0  0  0  0  0  0  0
   18.5671  -23.6160   42.8361 H   0  0  0  0  0  0  0  0  0  0  0  0
   19.0467  -23.1764   40.3348 H   0  0  0  0  0  0  0  0  0  0  0  0
   17.6666  -26.3056   34.7654 H   0  0  0  0  0  0  0  0  0  0  0  0
   17.0149  -25.3729   32.5433 H   0  0  0  0  0  0  0  0  0  0  0  0
   17.1684  -22.9161   32.1254 H   0  0  0  0  0  0  0  0  0  0  0  0
   18.7700  -20.7570   33.5520 H   0  0  0  0  0  0  0  0  0  0  0  0
   20.4580  -21.7840   38.8360 H   0  0  0  0  0  0  0  0  0  0  0  0
   19.6187  -26.7884   38.0459 H   0  0  0  0  0  0  0  0  0  0  0  0
   20.1024  -28.0338   40.1363 H   0  0  0  0  0  0  0  0  0  0  0  0
   19.5917  -26.6985   43.5173 H   0  0  0  0  0  0  0  0  0  0  0  0
   19.8528  -28.1678   42.4397 H   0  0  0  0  0  0  0  0  0  0  0  0
   22.1762  -28.4168   41.3678 H   0  0  0  0  0  0  0  0  0  0  0  0
   24.5708  -28.5774   42.0264 H   0  0  0  0  0  0  0  0  0  0  0  0
   25.3720  -27.4743   44.1161 H   0  0  0  0  0  0  0  0  0  0  0  0
   23.7652  -26.2199   45.5531 H   0  0  0  0  0  0  0  0  0  0  0  0
   21.3685  -26.0547   44.9003 H   0  0  0  0  0  0  0  0  0  0  0  0
  1  2  1  0
  2  3  2  0
  3  4  1  0
  4  5  1  0
  5  6  1  0
  6  7  1  0
  7  8  2  0
  8  9  1  0
  9 10  2  0
 10 11  1  0
 11 12  1  0
 11 13  2  0
 13 14  1  0
 14 15  2  0
 14 16  1  0
 16 17  1  0
  4 18  2  0
 18 19  1  0
 19 20  2  0
 20 21  1  0
 21 22  1  0
 22 23  2  0
 23 24  1  0
 24 25  2  0
 25 26  1  0
 26 27  2  0
 20  2  1  0
 27 22  1  0
 16  5  2  0
 13  7  1  0
  1 28  1  0
  1 29  1  0
  1 30  1  0
  3 31  1  0
  8 32  1  0
  9 33  1  0
 10 34  1  0
 12 35  1  0
 17 36  1  0
 18 37  1  0
 19 38  1  0
 21 39  1  0
 21 40  1  0
 23 41  1  0
 24 42  1  0
 25 43  1  0
 26 44  1  0
 27 45  1  0
M  END
>  <meeko>  (9) 
{"is_sidechain": [false], "free_energy": -7.963, "intermolecular_energy": -9.068, "internal_energy": -0.32}

$$$$
