cand_045_out
     RDKit          3D

 35 37  0  0  0  0  0  0  0  0999 V2000
   18.9760  -24.9840   40.7630 C   0  0  0  0  0  0  0  0  0  0  0  0
   19.0720  -26.3670   40.1770 C   0  0  0  0  0  0  0  0  0  0  0  0
   18.1940  -26.7380   39.1500 C   0  0  0  0  0  0  0  0  0  0  0  0
   18.2520  -28.0140   38.5820 C   0  0  0  0  0  0  0  0  0  0  0  0
   19.1860  -28.9540   39.0300 C   0  0  0  0  0  0  0  0  0  0  0  0
   19.2860  -30.3020   38.4290 C   0  0  0  0  0  0  0  0  0  0  0  0
   18.8730  -31.3100   39.2920 O   0  0  0  0  0  0  0  0  0  0  0  0
   18.9080  -32.6100   38.8590 C   0  0  0  0  0  0  0  0  0  0  0  0
   18.4920  -33.5900   39.7610 C   0  0  0  0  0  0  0  0  0  0  0  0
   18.5030  -34.9350   39.3840 C   0  0  0  0  0  0  0  0  0  0  0  0
   18.9300  -35.2990   38.1060 C   0  0  0  0  0  0  0  0  0  0  0  0
   19.3450  -34.3190   37.2070 C   0  0  0  0  0  0  0  0  0  0  0  0
   19.7490  -34.7450   35.9710 O   0  0  0  0  0  0  0  0  0  0  0  0
   19.3330  -32.9740   37.5850 C   0  0  0  0  0  0  0  0  0  0  0  0
   19.7590  -31.9130   36.6720 C   0  0  0  0  0  0  0  0  0  0  0  0
   20.1420  -32.1530   35.5280 O   0  0  0  0  0  0  0  0  0  0  0  0
   19.7130  -30.5190   37.1720 C   0  0  0  0  0  0  0  0  0  0  0  0
   20.1030  -29.5240   36.2940 O   0  0  0  0  0  0  0  0  0  0  0  0
   20.0720  -28.5770   40.0510 C   0  0  0  0  0  0  0  0  0  0  0  0
   20.0280  -27.2960   40.6330 C   0  0  0  0  0  0  0  0  0  0  0  0
   21.0010  -26.9520   41.7330 C   0  0  0  0  0  0  0  0  0  0  0  0
   20.6910  -27.5170   42.9350 F   0  0  0  0  0  0  0  0  0  0  0  0
   18.9806  -25.0499   41.8610 H   0  0  0  0  0  0  0  0  0  0  0  0
   19.8346  -24.3835   40.4281 H   0  0  0  0  0  0  0  0  0  0  0  0
   18.0426  -24.5079   40.4281 H   0  0  0  0  0  0  0  0  0  0  0  0
   17.4489  -26.0154   38.7857 H   0  0  0  0  0  0  0  0  0  0  0  0
   17.5555  -28.2818   37.7738 H   0  0  0  0  0  0  0  0  0  0  0  0
   18.1556  -33.3036   40.7684 H   0  0  0  0  0  0  0  0  0  0  0  0
   18.1749  -35.7078   40.0948 H   0  0  0  0  0  0  0  0  0  0  0  0
   18.9388  -36.3581   37.8091 H   0  0  0  0  0  0  0  0  0  0  0  0
   20.1840  -35.5700   35.8800 H   0  0  0  0  0  0  0  0  0  0  0  0
   19.7780  -29.5200   35.4160 H   0  0  0  0  0  0  0  0  0  0  0  0
   20.8202  -29.3012   40.4056 H   0  0  0  0  0  0  0  0  0  0  0  0
   22.0009  -27.2992   41.4335 H   0  0  0  0  0  0  0  0  0  0  0  0
   20.9593  -25.8613   41.8699 H   0  0  0  0  0  0  0  0  0  0  0  0
  1  2  1  0
  2  3  2  0
  3  4  1  0
  4  5  2  0
  5  6  1  0
  6  7  1  0
  7  8  1  0
  8  9  2  0
  9 10  1  0
 10 11  2  0
 11 12  1  0
 12 13  1  0
 12 14  2  0
 14 15  1  0
 15 16  2  0
 15 17  1  0
 17 18  1  0
  5 19  1  0
 19 20  2  0
 20 21  1  0
 21 22  1  0
 20  2  1  0
 17  6  2  0
 14  8  1  0
  1 23  1  0
  1 24  1  0
  1 25  1  0
  3 26  1  0
  4 27  1  0
  9 28  1  0
 10 29  1  0
 11 30  1  0
 13 31  1  0
 18 32  1  0
 19 33  1  0
 21 34  1  0
 21 35  1  0
M  END
>  <meeko>  (1) 
{"is_sidechain": [false], "free_energy": -7.87, "intermolecular_energy": -9.25, "internal_energy": -0.365}

$$$$
cand_045_out
     RDKit          3D

 35 37  0  0  0  0  0  0  0  0999 V2000
   19.6060  -33.7010   36.1300 C   0  0  0  0  0  0  0  0  0  0  0  0
   19.5040  -32.4450   36.9520 C   0  0  0  0  0  0  0  0  0  0  0  0
   19.9200  -31.2270   36.3960 C   0  0  0  0  0  0  0  0  0  0  0  0
   19.8410  -30.0390   37.1300 C   0  0  0  0  0  0  0  0  0  0  0  0
   19.3510  -30.0390   38.4400 C   0  0  0  0  0  0  0  0  0  0  0  0
   19.2330  -28.7940   39.2280 C   0  0  0  0  0  0  0  0  0  0  0  0
   20.1420  -28.7310   40.2780 O   0  0  0  0  0  0  0  0  0  0  0  0
   20.1460  -27.6250   41.0880 C   0  0  0  0  0  0  0  0  0  0  0  0
   21.0700  -27.6080   42.1340 C   0  0  0  0  0  0  0  0  0  0  0  0
   21.1270  -26.5110   42.9960 C   0  0  0  0  0  0  0  0  0  0  0  0
   20.2610  -25.4320   42.8130 C   0  0  0  0  0  0  0  0  0  0  0  0
   19.3400  -25.4510   41.7670 C   0  0  0  0  0  0  0  0  0  0  0  0
   18.5220  -24.3610   41.6450 O   0  0  0  0  0  0  0  0  0  0  0  0
   19.2840  -26.5490   40.9050 C   0  0  0  0  0  0  0  0  0  0  0  0
   18.3330  -26.6090   39.7950 C   0  0  0  0  0  0  0  0  0  0  0  0
   17.5420  -25.6950   39.5640 O   0  0  0  0  0  0  0  0  0  0  0  0
   18.3510  -27.8190   38.9410 C   0  0  0  0  0  0  0  0  0  0  0  0
   17.4580  -27.8570   37.8850 O   0  0  0  0  0  0  0  0  0  0  0  0
   18.9250  -31.2580   38.9910 C   0  0  0  0  0  0  0  0  0  0  0  0
   18.9960  -32.4620   38.2660 C   0  0  0  0  0  0  0  0  0  0  0  0
   18.5310  -33.7420   38.9140 C   0  0  0  0  0  0  0  0  0  0  0  0
   18.5680  -33.7110   40.2780 F   0  0  0  0  0  0  0  0  0  0  0  0
   19.6767  -34.5718   36.7983 H   0  0  0  0  0  0  0  0  0  0  0  0
   18.7127  -33.7974   35.4954 H   0  0  0  0  0  0  0  0  0  0  0  0
   20.5031  -33.6520   35.4954 H   0  0  0  0  0  0  0  0  0  0  0  0
   20.3137  -31.2054   35.3691 H   0  0  0  0  0  0  0  0  0  0  0  0
   20.1680  -29.0940   36.6718 H   0  0  0  0  0  0  0  0  0  0  0  0
   21.7528  -28.4581   42.2792 H   0  0  0  0  0  0  0  0  0  0  0  0
   21.8553  -26.4972   43.8202 H   0  0  0  0  0  0  0  0  0  0  0  0
   20.3052  -24.5684   43.4928 H   0  0  0  0  0  0  0  0  0  0  0  0
   17.9670  -24.1090   42.3560 H   0  0  0  0  0  0  0  0  0  0  0  0
   16.5390  -27.7800   38.0460 H   0  0  0  0  0  0  0  0  0  0  0  0
   18.5255  -31.2723   40.0158 H   0  0  0  0  0  0  0  0  0  0  0  0
   17.4948  -33.9343   38.5989 H   0  0  0  0  0  0  0  0  0  0  0  0
   19.2216  -34.5351   38.5915 H   0  0  0  0  0  0  0  0  0  0  0  0
  1  2  1  0
  2  3  2  0
  3  4  1  0
  4  5  2  0
  5  6  1  0
  6  7  1  0
  7  8  1  0
  8  9  2  0
  9 10  1  0
 10 11  2  0
 11 12  1  0
 12 13  1  0
 12 14  2  0
 14 15  1  0
 15 16  2  0
 15 17  1  0
 17 18  1  0
  5 19  1  0
 19 20  2  0
 20 21  1  0
 21 22  1  0
 20  2  1  0
 17  6  2  0
 14  8  1  0
  1 23  1  0
  1 24  1  0
  1 25  1  0
  3 26  1  0
  4 27  1  0
  9 28  1  0
 10 29  1  0
 11 30  1  0
 13 31  1  0
 18 32  1  0
 19 33  1  0
 21 34  1  0
 21 35  1  0
M  END
>  <meeko>  (2) 
{"is_sidechain": [false], "free_energy": -7.613, "intermolecular_energy": -8.967, "internal_energy": -0.346}

$$$$
cand_045_out
     RDKit          3D

 35 37  0  0  0  0  0  0  0  0999 V2000
   19.4410  -24.6980   40.4690 C   0  0  0  0  0  0  0  0  0  0  0  0
   19.4280  -26.0820   39.8810 C   0  0  0  0  0  0  0  0  0  0  0  0
   20.0950  -27.1170   40.5500 C   0  0  0  0  0  0  0  0  0  0  0  0
   20.1050  -28.4170   40.0340 C   0  0  0  0  0  0  0  0  0  0  0  0
   19.4560  -28.7130   38.8310 C   0  0  0  0  0  0  0  0  0  0  0  0
   19.4310  -30.0840   38.2760 C   0  0  0  0  0  0  0  0  0  0  0  0
   19.0190  -31.0340   39.2030 O   0  0  0  0  0  0  0  0  0  0  0  0
   18.9430  -32.3480   38.8180 C   0  0  0  0  0  0  0  0  0  0  0  0
   18.5340  -33.2690   39.7840 C   0  0  0  0  0  0  0  0  0  0  0  0
   18.4350  -34.6230   39.4580 C   0  0  0  0  0  0  0  0  0  0  0  0
   18.7470  -35.0570   38.1680 C   0  0  0  0  0  0  0  0  0  0  0  0
   19.1550  -34.1350   37.2060 C   0  0  0  0  0  0  0  0  0  0  0  0
   19.4430  -34.6270   35.9620 O   0  0  0  0  0  0  0  0  0  0  0  0
   19.2530  -32.7800   37.5330 C   0  0  0  0  0  0  0  0  0  0  0  0
   19.6770  -31.7800   36.5530 C   0  0  0  0  0  0  0  0  0  0  0  0
   19.9620  -32.0820   35.3950 O   0  0  0  0  0  0  0  0  0  0  0  0
   19.7530  -30.3700   37.0010 C   0  0  0  0  0  0  0  0  0  0  0  0
   20.1390  -29.4310   36.0620 O   0  0  0  0  0  0  0  0  0  0  0  0
   18.7800  -27.6780   38.1670 C   0  0  0  0  0  0  0  0  0  0  0  0
   18.7570  -26.3650   38.6740 C   0  0  0  0  0  0  0  0  0  0  0  0
   18.0200  -25.2920   37.9110 C   0  0  0  0  0  0  0  0  0  0  0  0
   18.7930  -24.6460   36.9910 F   0  0  0  0  0  0  0  0  0  0  0  0
   19.4404  -24.7660   41.5669 H   0  0  0  0  0  0  0  0  0  0  0  0
   20.3442  -24.1662   40.1351 H   0  0  0  0  0  0  0  0  0  0  0  0
   18.5480  -24.1494   40.1351 H   0  0  0  0  0  0  0  0  0  0  0  0
   20.6180  -26.9041   41.4940 H   0  0  0  0  0  0  0  0  0  0  0  0
   20.6290  -29.2152   40.5803 H   0  0  0  0  0  0  0  0  0  0  0  0
   18.2899  -32.9283   40.8010 H   0  0  0  0  0  0  0  0  0  0  0  0
   18.1108  -35.3488   40.2184 H   0  0  0  0  0  0  0  0  0  0  0  0
   18.6709  -36.1240   37.9118 H   0  0  0  0  0  0  0  0  0  0  0  0
   20.2820  -34.4640   35.5770 H   0  0  0  0  0  0  0  0  0  0  0  0
   20.6550  -29.6920   35.3240 H   0  0  0  0  0  0  0  0  0  0  0  0
   18.2545  -27.8984   37.2261 H   0  0  0  0  0  0  0  0  0  0  0  0
   17.1724  -25.7580   37.3871 H   0  0  0  0  0  0  0  0  0  0  0  0
   17.6962  -24.5395   38.6450 H   0  0  0  0  0  0  0  0  0  0  0  0
  1  2  1  0
  2  3  2  0
  3  4  1  0
  4  5  2  0
  5  6  1  0
  6  7  1  0
  7  8  1  0
  8  9  2  0
  9 10  1  0
 10 11  2  0
 11 12  1  0
 12 13  1  0
 12 14  2  0
 14 15  1  0
 15 16  2  0
 15 17  1  0
 17 18  1  0
  5 19  1  0
 19 20  2  0
 20 21  1  0
 21 22  1  0
 20  2  1  0
 17  6  2  0
 14  8  1  0
  1 23  1  0
  1 24  1  0
  1 25  1  0
  3 26  1  0
  4 27  1  0
  9 28  1  0
 10 29  1  0
 11 30  1  0
 13 31  1  0
 18 32  1  0
 19 33  1  0
 21 34  1  0
 21 35  1  0
M  END
>  <meeko>  (3) 
{"is_sidechain": [false], "free_energy": -7.251, "intermolecular_energy": -8.702, "internal_energy": -0.186}

$$$$
cand_045_out
     RDKit          3D

 35 37  0  0  0  0  0  0  0  0999 V2000
   19.6770  -33.6560   36.0480 C   0  0  0  0  0  0  0  0  0  0  0  0
   19.5600  -32.3880   36.8490 C   0  0  0  0  0  0  0  0  0  0  0  0
   19.0380  -32.4440   38.1490 C   0  0  0  0  0  0  0  0  0  0  0  0
   18.9140  -31.2870   38.9240 C   0  0  0  0  0  0  0  0  0  0  0  0
   19.3010  -30.0420   38.4170 C   0  0  0  0  0  0  0  0  0  0  0  0
   19.2050  -28.8070   39.2240 C   0  0  0  0  0  0  0  0  0  0  0  0
   20.1280  -28.7660   40.2620 O   0  0  0  0  0  0  0  0  0  0  0  0
   20.1520  -27.6710   41.0870 C   0  0  0  0  0  0  0  0  0  0  0  0
   21.0900  -27.6770   42.1200 C   0  0  0  0  0  0  0  0  0  0  0  0
   21.1680  -26.5930   42.9970 C   0  0  0  0  0  0  0  0  0  0  0  0
   20.3080  -25.5030   42.8400 C   0  0  0  0  0  0  0  0  0  0  0  0
   19.3730  -25.5000   41.8070 C   0  0  0  0  0  0  0  0  0  0  0  0
   18.5640  -24.4020   41.7100 O   0  0  0  0  0  0  0  0  0  0  0  0
   19.2960  -26.5860   40.9300 C   0  0  0  0  0  0  0  0  0  0  0  0
   18.3300  -26.6220   39.8320 C   0  0  0  0  0  0  0  0  0  0  0  0
   17.5440  -25.6990   39.6250 O   0  0  0  0  0  0  0  0  0  0  0  0
   18.3270  -27.8210   38.9620 C   0  0  0  0  0  0  0  0  0  0  0  0
   17.4200  -27.8370   37.9180 O   0  0  0  0  0  0  0  0  0  0  0  0
   19.8340  -29.9890   37.1190 C   0  0  0  0  0  0  0  0  0  0  0  0
   19.9680  -31.1440   36.3270 C   0  0  0  0  0  0  0  0  0  0  0  0
   20.5390  -31.0230   34.9360 C   0  0  0  0  0  0  0  0  0  0  0  0
   19.6970  -30.4200   34.0480 F   0  0  0  0  0  0  0  0  0  0  0  0
   19.7563  -34.5149   36.7306 H   0  0  0  0  0  0  0  0  0  0  0  0
   18.7858  -33.7726   35.4138 H   0  0  0  0  0  0  0  0  0  0  0  0
   20.5745  -33.6076   35.4138 H   0  0  0  0  0  0  0  0  0  0  0  0
   18.7216  -33.4119   38.5651 H   0  0  0  0  0  0  0  0  0  0  0  0
   18.5076  -31.3565   39.9438 H   0  0  0  0  0  0  0  0  0  0  0  0
   21.7674  -28.5348   42.2435 H   0  0  0  0  0  0  0  0  0  0  0  0
   21.9069  -26.5973   43.8119 H   0  0  0  0  0  0  0  0  0  0  0  0
   20.3690  -24.6490   43.5306 H   0  0  0  0  0  0  0  0  0  0  0  0
   17.8170  -24.4190   41.1440 H   0  0  0  0  0  0  0  0  0  0  0  0
   17.1610  -27.0340   37.5100 H   0  0  0  0  0  0  0  0  0  0  0  0
   20.1551  -29.0193   36.7109 H   0  0  0  0  0  0  0  0  0  0  0  0
   21.4658  -30.4332   34.9912 H   0  0  0  0  0  0  0  0  0  0  0  0
   20.7134  -32.0456   34.5701 H   0  0  0  0  0  0  0  0  0  0  0  0
  1  2  1  0
  2  3  2  0
  3  4  1  0
  4  5  2  0
  5  6  1  0
  6  7  1  0
  7  8  1  0
  8  9  2  0
  9 10  1  0
 10 11  2  0
 11 12  1  0
 12 13  1  0
 12 14  2  0
 14 15  1  0
 15 16  2  0
 15 17  1  0
 17 18  1  0
  5 19  1  0
 19 20  2  0
 20 21  1  0
 21 22  1  0
 20  2  1  0
 17  6  2  0
 14  8  1  0
  1 23  1  0
  1 24  1  0
  1 25  1  0
  3 26  1  0
  4 27  1  0
  9 28  1  0
 10 29  1  0
 11 30  1  0
 13 31  1  0
 18 32  1  0
 19 33  1  0
 21 34  1  0
 21 35  1  0
M  END
>  <meeko>  (4) 
{"is_sidechain": [false], "free_energy": -7.233, "intermolecular_energy": -8.495, "internal_energy": -0.371}

$$$$
cand_045_out
     RDKit          3D

 35 37  0  0  0  0  0  0  0  0999 V2000
   18.0380  -27.1860   36.4640 C   0  0  0  0  0  0  0  0  0  0  0  0
   18.8500  -27.1930   37.7310 C   0  0  0  0  0  0  0  0  0  0  0  0
   18.9370  -28.3740   38.4820 C   0  0  0  0  0  0  0  0  0  0  0  0
   19.6820  -28.4190   39.6640 C   0  0  0  0  0  0  0  0  0  0  0  0
   20.3520  -27.2840   40.1310 C   0  0  0  0  0  0  0  0  0  0  0  0
   21.1660  -27.3110   41.3650 C   0  0  0  0  0  0  0  0  0  0  0  0
   22.1670  -28.2760   41.3300 O   0  0  0  0  0  0  0  0  0  0  0  0
   23.0020  -28.4050   42.4100 C   0  0  0  0  0  0  0  0  0  0  0  0
   23.9860  -29.3920   42.3350 C   0  0  0  0  0  0  0  0  0  0  0  0
   24.8700  -29.5770   43.4000 C   0  0  0  0  0  0  0  0  0  0  0  0
   24.7690  -28.7770   44.5400 C   0  0  0  0  0  0  0  0  0  0  0  0
   23.7860  -27.7920   44.6120 C   0  0  0  0  0  0  0  0  0  0  0  0
   23.7450  -27.0430   45.7560 O   0  0  0  0  0  0  0  0  0  0  0  0
   22.9020  -27.6070   43.5450 C   0  0  0  0  0  0  0  0  0  0  0  0
   21.8560  -26.5850   43.5800 C   0  0  0  0  0  0  0  0  0  0  0  0
   21.7080  -25.8370   44.5440 O   0  0  0  0  0  0  0  0  0  0  0  0
   20.9680  -26.4730   42.4000 C   0  0  0  0  0  0  0  0  0  0  0  0
   19.9930  -25.4930   42.4370 O   0  0  0  0  0  0  0  0  0  0  0  0
   20.2730  -26.1050   39.3730 C   0  0  0  0  0  0  0  0  0  0  0  0
   19.5300  -26.0430   38.1790 C   0  0  0  0  0  0  0  0  0  0  0  0
   19.4750  -24.7460   37.4110 C   0  0  0  0  0  0  0  0  0  0  0  0
   19.7220  -23.6450   38.1770 F   0  0  0  0  0  0  0  0  0  0  0  0
   16.9670  -27.1768   36.7149 H   0  0  0  0  0  0  0  0  0  0  0  0
   18.2845  -26.2899   35.8755 H   0  0  0  0  0  0  0  0  0  0  0  0
   18.2690  -28.0862   35.8755 H   0  0  0  0  0  0  0  0  0  0  0  0
   18.4121  -29.2769   38.1365 H   0  0  0  0  0  0  0  0  0  0  0  0
   19.7419  -29.3583   40.2334 H   0  0  0  0  0  0  0  0  0  0  0  0
   24.0651  -30.0235   41.4378 H   0  0  0  0  0  0  0  0  0  0  0  0
   25.6467  -30.3537   43.3408 H   0  0  0  0  0  0  0  0  0  0  0  0
   25.4642  -28.9241   45.3797 H   0  0  0  0  0  0  0  0  0  0  0  0
   24.3710  -26.3600   45.8910 H   0  0  0  0  0  0  0  0  0  0  0  0
   19.6460  -25.1480   41.6380 H   0  0  0  0  0  0  0  0  0  0  0  0
   20.8050  -25.2072   39.7208 H   0  0  0  0  0  0  0  0  0  0  0  0
   20.2255  -24.7858   36.6077 H   0  0  0  0  0  0  0  0  0  0  0  0
   18.4506  -24.6449   37.0232 H   0  0  0  0  0  0  0  0  0  0  0  0
  1  2  1  0
  2  3  2  0
  3  4  1  0
  4  5  2  0
  5  6  1  0
  6  7  1  0
  7  8  1  0
  8  9  2  0
  9 10  1  0
 10 11  2  0
 11 12  1  0
 12 13  1  0
 12 14  2  0
 14 15  1  0
 15 16  2  0
 15 17  1  0
 17 18  1  0
  5 19  1  0
 19 20  2  0
 20 21  1  0
 21 22  1  0
 20  2  1  0
 17  6  2  0
 14  8  1  0
  1 23  1  0
  1 24  1  0
  1 25  1  0
  3 26  1  0
  4 27  1  0
  9 28  1  0
 10 29  1  0
 11 30  1  0
 13 31  1  0
 18 32  1  0
 19 33  1  0
 21 34  1  0
 21 35  1  0
M  END
>  <meeko>  (5) 
{"is_sidechain": [false], "free_energy": -7.128, "intermolecular_energy": -8.527, "internal_energy": -0.216}

$$$$
cand_045_out
     RDKit          3D

 35 37  0  0  0  0  0  0  0  0999 V2000
   24.3140  -28.6840   45.0170 C   0  0  0  0  0  0  0  0  0  0  0  0
   23.3660  -28.2080   43.9500 C   0  0  0  0  0  0  0  0  0  0  0  0
   22.4040  -27.2390   44.2710 C   0  0  0  0  0  0  0  0  0  0  0  0
   21.5060  -26.7720   43.3060 C   0  0  0  0  0  0  0  0  0  0  0  0
   21.5410  -27.2670   41.9990 C   0  0  0  0  0  0  0  0  0  0  0  0
   20.6200  -26.7720   40.9530 C   0  0  0  0  0  0  0  0  0  0  0  0
   20.5110  -25.3860   40.9410 O   0  0  0  0  0  0  0  0  0  0  0  0
   19.6930  -24.7930   40.0150 C   0  0  0  0  0  0  0  0  0  0  0  0
   19.6080  -23.4000   40.0450 C   0  0  0  0  0  0  0  0  0  0  0  0
   18.7920  -22.7320   39.1290 C   0  0  0  0  0  0  0  0  0  0  0  0
   18.0610  -23.4550   38.1850 C   0  0  0  0  0  0  0  0  0  0  0  0
   18.1480  -24.8460   38.1570 C   0  0  0  0  0  0  0  0  0  0  0  0
   17.4070  -25.4920   37.2060 O   0  0  0  0  0  0  0  0  0  0  0  0
   18.9650  -25.5140   39.0730 C   0  0  0  0  0  0  0  0  0  0  0  0
   19.0850  -26.9710   39.0790 C   0  0  0  0  0  0  0  0  0  0  0  0
   18.4790  -27.6780   38.2750 O   0  0  0  0  0  0  0  0  0  0  0  0
   19.9740  -27.5830   40.0940 C   0  0  0  0  0  0  0  0  0  0  0  0
   20.0930  -28.9600   40.0790 O   0  0  0  0  0  0  0  0  0  0  0  0
   22.5110  -28.2290   41.6760 C   0  0  0  0  0  0  0  0  0  0  0  0
   23.4240  -28.7080   42.6340 C   0  0  0  0  0  0  0  0  0  0  0  0
   24.4390  -29.7480   42.2300 C   0  0  0  0  0  0  0  0  0  0  0  0
   24.1460  -31.0030   42.6800 F   0  0  0  0  0  0  0  0  0  0  0  0
   23.8878  -28.4700   46.0082 H   0  0  0  0  0  0  0  0  0  0  0  0
   24.4706  -29.7677   44.9114 H   0  0  0  0  0  0  0  0  0  0  0  0
   25.2767  -28.1624   44.9114 H   0  0  0  0  0  0  0  0  0  0  0  0
   22.3553  -26.8411   45.2954 H   0  0  0  0  0  0  0  0  0  0  0  0
   20.7641  -26.0069   43.5783 H   0  0  0  0  0  0  0  0  0  0  0  0
   20.1829  -22.8291   40.7890 H   0  0  0  0  0  0  0  0  0  0  0  0
   18.7254  -21.6343   39.1516 H   0  0  0  0  0  0  0  0  0  0  0  0
   17.4177  -22.9283   37.4647 H   0  0  0  0  0  0  0  0  0  0  0  0
   16.5390  -25.1990   37.0100 H   0  0  0  0  0  0  0  0  0  0  0  0
   20.5100  -29.4020   40.7920 H   0  0  0  0  0  0  0  0  0  0  0  0
   22.5587  -28.6182   40.6483 H   0  0  0  0  0  0  0  0  0  0  0  0
   24.4898  -29.7757   41.1315 H   0  0  0  0  0  0  0  0  0  0  0  0
   25.3967  -29.4576   42.6866 H   0  0  0  0  0  0  0  0  0  0  0  0
  1  2  1  0
  2  3  2  0
  3  4  1  0
  4  5  2  0
  5  6  1  0
  6  7  1  0
  7  8  1  0
  8  9  2  0
  9 10  1  0
 10 11  2  0
 11 12  1  0
 12 13  1  0
 12 14  2  0
 14 15  1  0
 15 16  2  0
 15 17  1  0
 17 18  1  0
  5 19  1  0
 19 20  2  0
 20 21  1  0
 21 22  1  0
 20  2  1  0
 17  6  2  0
 14  8  1  0
  1 23  1  0
  1 24  1  0
  1 25  1  0
  3 26  1  0
  4 27  1  0
  9 28  1  0
 10 29  1  0
 11 30  1  0
 13 31  1  0
 18 32  1  0
 19 33  1  0
 21 34  1  0
 21 35  1  0
M  END
>  <meeko>  (6) 
{"is_sidechain": [false], "free_energy": -7.046, "intermolecular_energy": -8.542, "internal_energy": -0.105}

$$$$
cand_045_out
     RDKit          3D

 35 37  0  0  0  0  0  0  0  0999 V2000
   24.9580  -29.0680   45.0440 C   0  0  0  0  0  0  0  0  0  0  0  0
   23.9020  -28.5590   44.1010 C   0  0  0  0  0  0  0  0  0  0  0  0
   23.0070  -27.5750   44.5410 C   0  0  0  0  0  0  0  0  0  0  0  0
   22.0120  -27.0780   43.6930 C   0  0  0  0  0  0  0  0  0  0  0  0
   21.8820  -27.5580   42.3860 C   0  0  0  0  0  0  0  0  0  0  0  0
   20.8560  -27.0320   41.4600 C   0  0  0  0  0  0  0  0  0  0  0  0
   20.6600  -27.8460   40.3510 O   0  0  0  0  0  0  0  0  0  0  0  0
   19.7300  -27.4790   39.4130 C   0  0  0  0  0  0  0  0  0  0  0  0
   19.5730  -28.3220   38.3130 C   0  0  0  0  0  0  0  0  0  0  0  0
   18.6420  -28.0080   37.3210 C   0  0  0  0  0  0  0  0  0  0  0  0
   17.8690  -26.8500   37.4290 C   0  0  0  0  0  0  0  0  0  0  0  0
   18.0280  -26.0100   38.5290 C   0  0  0  0  0  0  0  0  0  0  0  0
   17.2380  -24.8930   38.5730 O   0  0  0  0  0  0  0  0  0  0  0  0
   18.9590  -26.3260   39.5210 C   0  0  0  0  0  0  0  0  0  0  0  0
   19.1570  -25.4720   40.6930 C   0  0  0  0  0  0  0  0  0  0  0  0
   18.5100  -24.4400   40.8630 O   0  0  0  0  0  0  0  0  0  0  0  0
   20.1720  -25.8940   41.6850 C   0  0  0  0  0  0  0  0  0  0  0  0
   20.3390  -25.0880   42.7970 O   0  0  0  0  0  0  0  0  0  0  0  0
   22.7860  -28.5360   41.9430 C   0  0  0  0  0  0  0  0  0  0  0  0
   23.7950  -29.0450   42.7820 C   0  0  0  0  0  0  0  0  0  0  0  0
   24.7320  -30.1020   42.2530 C   0  0  0  0  0  0  0  0  0  0  0  0
   24.4770  -31.3520   42.7350 F   0  0  0  0  0  0  0  0  0  0  0  0
   24.6298  -28.9098   46.0819 H   0  0  0  0  0  0  0  0  0  0  0  0
   25.1182  -30.1422   44.8698 H   0  0  0  0  0  0  0  0  0  0  0  0
   25.8981  -28.5241   44.8698 H   0  0  0  0  0  0  0  0  0  0  0  0
   23.0880  -27.1880   45.5675 H   0  0  0  0  0  0  0  0  0  0  0  0
   21.3242  -26.3011   44.0581 H   0  0  0  0  0  0  0  0  0  0  0  0
   20.1823  -29.2338   38.2270 H   0  0  0  0  0  0  0  0  0  0  0  0
   18.5173  -28.6732   36.4538 H   0  0  0  0  0  0  0  0  0  0  0  0
   17.1361  -26.6016   36.6472 H   0  0  0  0  0  0  0  0  0  0  0  0
   16.4280  -24.8740   38.1030 H   0  0  0  0  0  0  0  0  0  0  0  0
   19.9790  -25.3480   43.6220 H   0  0  0  0  0  0  0  0  0  0  0  0
   22.7038  -28.9145   40.9134 H   0  0  0  0  0  0  0  0  0  0  0  0
   24.6431  -30.1277   41.1569 H   0  0  0  0  0  0  0  0  0  0  0  0
   25.7444  -29.8296   42.5859 H   0  0  0  0  0  0  0  0  0  0  0  0
  1  2  1  0
  2  3  2  0
  3  4  1  0
  4  5  2  0
  5  6  1  0
  6  7  1  0
  7  8  1  0
  8  9  2  0
  9 10  1  0
 10 11  2  0
 11 12  1  0
 12 13  1  0
 12 14  2  0
 14 15  1  0
 15 16  2  0
 15 17  1  0
 17 18  1  0
  5 19  1  0
 19 20  2  0
 20 21  1  0
 21 22  1  0
 20  2  1  0
 17  6  2  0
 14  8  1  0
  1 23  1  0
  1 24  1  0
  1 25  1  0
  3 26  1  0
  4 27  1  0
  9 28  1  0
 10 29  1  0
 11 30  1  0
 13 31  1  0
 18 32  1  0
 19 33  1  0
 21 34  1  0
 21 35  1  0
M  END
>  <meeko>  (7) 
{"is_sidechain": [false], "free_energy": -6.852, "intermolecular_energy": -8.58, "internal_energy": 0.161}

$$$$
cand_045_out
     RDKit          3D

 35 37  0  0  0  0  0  0  0  0999 V2000
   22.1570  -23.0950   49.8430 C   0  0  0  0  0  0  0  0  0  0  0  0
   21.6460  -23.3560   48.4530 C   0  0  0  0  0  0  0  0  0  0  0  0
   22.2040  -22.6550   47.3750 C   0  0  0  0  0  0  0  0  0  0  0  0
   21.7550  -22.8710   46.0680 C   0  0  0  0  0  0  0  0  0  0  0  0
   20.7310  -23.7860   45.8070 C   0  0  0  0  0  0  0  0  0  0  0  0
   20.2540  -24.0520   44.4320 C   0  0  0  0  0  0  0  0  0  0  0  0
   20.5340  -25.3440   44.0040 O   0  0  0  0  0  0  0  0  0  0  0  0
   20.1410  -25.7270   42.7470 C   0  0  0  0  0  0  0  0  0  0  0  0
   20.4500  -27.0300   42.3560 C   0  0  0  0  0  0  0  0  0  0  0  0
   20.0790  -27.4850   41.0890 C   0  0  0  0  0  0  0  0  0  0  0  0
   19.3990  -26.6360   40.2130 C   0  0  0  0  0  0  0  0  0  0  0  0
   19.0910  -25.3350   40.6070 C   0  0  0  0  0  0  0  0  0  0  0  0
   18.4220  -24.5580   39.7010 O   0  0  0  0  0  0  0  0  0  0  0  0
   19.4630  -24.8820   41.8750 C   0  0  0  0  0  0  0  0  0  0  0  0
   19.1590  -23.5240   42.3270 C   0  0  0  0  0  0  0  0  0  0  0  0
   18.5570  -22.7200   41.6170 O   0  0  0  0  0  0  0  0  0  0  0  0
   19.6010  -23.1400   43.6880 C   0  0  0  0  0  0  0  0  0  0  0  0
   19.2930  -21.8600   44.1110 O   0  0  0  0  0  0  0  0  0  0  0  0
   20.1800  -24.4950   46.8850 C   0  0  0  0  0  0  0  0  0  0  0  0
   20.6220  -24.2930   48.2060 C   0  0  0  0  0  0  0  0  0  0  0  0
   19.9860  -25.0780   49.3260 C   0  0  0  0  0  0  0  0  0  0  0  0
   19.9620  -26.4240   49.1060 F   0  0  0  0  0  0  0  0  0  0  0  0
   21.4279  -23.4674   50.5776 H   0  0  0  0  0  0  0  0  0  0  0  0
   23.1170  -23.6132   49.9841 H   0  0  0  0  0  0  0  0  0  0  0  0
   22.2999  -22.0135   49.9841 H   0  0  0  0  0  0  0  0  0  0  0  0
   23.0060  -21.9250   47.5594 H   0  0  0  0  0  0  0  0  0  0  0  0
   22.2126  -22.3148   45.2366 H   0  0  0  0  0  0  0  0  0  0  0  0
   20.9858  -27.6989   43.0456 H   0  0  0  0  0  0  0  0  0  0  0  0
   20.3224  -28.5125   40.7808 H   0  0  0  0  0  0  0  0  0  0  0  0
   19.1072  -26.9933   39.2144 H   0  0  0  0  0  0  0  0  0  0  0  0
   18.8990  -24.0920   39.0410 H   0  0  0  0  0  0  0  0  0  0  0  0
   18.5210  -21.4350   43.7950 H   0  0  0  0  0  0  0  0  0  0  0  0
   19.3822  -25.2275   46.6929 H   0  0  0  0  0  0  0  0  0  0  0  0
   20.5522  -24.8869   50.2495 H   0  0  0  0  0  0  0  0  0  0  0  0
   18.9402  -24.7450   49.3992 H   0  0  0  0  0  0  0  0  0  0  0  0
  1  2  1  0
  2  3  2  0
  3  4  1  0
  4  5  2  0
  5  6  1  0
  6  7  1  0
  7  8  1  0
  8  9  2  0
  9 10  1  0
 10 11  2  0
 11 12  1  0
 12 13  1  0
 12 14  2  0
 14 15  1  0
 15 16  2  0
 15 17  1  0
 17 18  1  0
  5 19  1  0
 19 20  2  0
 20 21  1  0
 21 22  1  0
 20  2  1  0
 17  6  2  0
 14  8  1  0
  1 23  1  0
  1 24  1  0
  1 25  1  0
  3 26  1  0
  4 27  1  0
  9 28  1  0
 10 29  1  0
 11 30  1  0
 13 31  1  0
 18 32  1  0
 19 33  1  0
 21 34  1  0
 21 35  1  0
M  END
>  <meeko>  (8) 
{"is_sidechain": [false], "free_energy": -6.814, "intermolecular_energy": -8.024, "internal_energy": -0.349}

$$$$
cand_045_out
     RDKit          3D

 35 37  0  0  0  0  0  0  0  0999 V2000
   20.8180  -21.5480   49.8500 C   0  0  0  0  0  0  0  0  0  0  0  0
   20.9890  -22.4570   48.6630 C   0  0  0  0  0  0  0  0  0  0  0  0
   20.4550  -23.7520   48.7090 C   0  0  0  0  0  0  0  0  0  0  0  0
   20.5930  -24.6260   47.6260 C   0  0  0  0  0  0  0  0  0  0  0  0
   21.2760  -24.2290   46.4720 C   0  0  0  0  0  0  0  0  0  0  0  0
   21.4160  -25.1240   45.3030 C   0  0  0  0  0  0  0  0  0  0  0  0
   22.5450  -25.9310   45.3720 O   0  0  0  0  0  0  0  0  0  0  0  0
   22.7930  -26.8150   44.3540 C   0  0  0  0  0  0  0  0  0  0  0  0
   23.9430  -27.5990   44.4610 C   0  0  0  0  0  0  0  0  0  0  0  0
   24.2540  -28.5200   43.4580 C   0  0  0  0  0  0  0  0  0  0  0  0
   23.4180  -28.6560   42.3490 C   0  0  0  0  0  0  0  0  0  0  0  0
   22.2710  -27.8720   42.2450 C   0  0  0  0  0  0  0  0  0  0  0  0
   21.4950  -28.0570   41.1330 O   0  0  0  0  0  0  0  0  0  0  0  0
   21.9590  -26.9510   43.2480 C   0  0  0  0  0  0  0  0  0  0  0  0
   20.7650  -26.1090   43.1780 C   0  0  0  0  0  0  0  0  0  0  0  0
   19.9760  -26.1750   42.2370 O   0  0  0  0  0  0  0  0  0  0  0  0
   20.5280  -25.1620   44.2920 C   0  0  0  0  0  0  0  0  0  0  0  0
   19.3870  -24.3830   44.2230 O   0  0  0  0  0  0  0  0  0  0  0  0
   21.8010  -22.9290   46.4220 C   0  0  0  0  0  0  0  0  0  0  0  0
   21.6680  -22.0360   47.5030 C   0  0  0  0  0  0  0  0  0  0  0  0
   22.2610  -20.6530   47.3950 C   0  0  0  0  0  0  0  0  0  0  0  0
   22.2930  -20.1690   46.1190 F   0  0  0  0  0  0  0  0  0  0  0  0
   20.9276  -22.1305   50.7767 H   0  0  0  0  0  0  0  0  0  0  0  0
   21.5834  -20.7585   49.8205 H   0  0  0  0  0  0  0  0  0  0  0  0
   19.8181  -21.0906   49.8205 H   0  0  0  0  0  0  0  0  0  0  0  0
   19.9196  -24.0858   49.6100 H   0  0  0  0  0  0  0  0  0  0  0  0
   20.1601  -25.6356   47.6824 H   0  0  0  0  0  0  0  0  0  0  0  0
   24.6034  -27.4916   45.3341 H   0  0  0  0  0  0  0  0  0  0  0  0
   25.1593  -29.1391   43.5424 H   0  0  0  0  0  0  0  0  0  0  0  0
   23.6640  -29.3805   41.5587 H   0  0  0  0  0  0  0  0  0  0  0  0
   21.8650  -28.4380   40.3610 H   0  0  0  0  0  0  0  0  0  0  0  0
   19.1720  -23.9380   43.4270 H   0  0  0  0  0  0  0  0  0  0  0  0
   22.3298  -22.5988   45.5157 H   0  0  0  0  0  0  0  0  0  0  0  0
   21.6602  -19.9682   48.0115 H   0  0  0  0  0  0  0  0  0  0  0  0
   23.3034  -20.7218   47.7396 H   0  0  0  0  0  0  0  0  0  0  0  0
  1  2  1  0
  2  3  2  0
  3  4  1  0
  4  5  2  0
  5  6  1  0
  6  7  1  0
  7  8  1  0
  8  9  2  0
  9 10  1  0
 10 11  2  0
 11 12  1  0
 12 13  1  0
 12 14  2  0
 14 15  1  0
 15 16  2  0
 15 17  1  0
 17 18  1  0
  5 19  1  0
 19 20  2  0
 20 21  1  0
 21 22  1  0
 20  2  1  0
 17  6  2  0
 14  8  1  0
  1 23  1  0
  1 24  1  0
  1 25  1  0
  3 26  1  0
  4 27  1  0
  9 28  1  0
 10 29  1  0
 11 30  1  0
 13 31  1  0
 18 32  1  0
 19 33  1  0
 21 34  1  0
 21 35  1  0
M  END
>  <meeko>  (9) 
{"is_sidechain": [false], "free_energy": -6.678, "intermolecular_energy": -7.791, "internal_energy": -0.424}

$$$$
