cand_025_out
     RDKit          3D

 53 56  0  0  0  0  0  0  0  0999 V2000
   21.8910  -27.6580   43.0300 C   0  0  0  0  0  0  0  0  0  0  0  0
   22.0280  -27.2100   41.5830 C   0  0  0  0  0  0  0  0  0  0  0  0
   20.7720  -27.4820   40.7850 C   0  0  0  0  0  0  0  0  0  0  0  0
   20.6570  -28.7110   40.1040 C   0  0  0  0  0  0  0  0  0  0  0  0
   19.5260  -29.0230   39.3400 C   0  0  0  0  0  0  0  0  0  0  0  0
   19.4100  -30.3000   38.6040 C   0  0  0  0  0  0  0  0  0  0  0  0
   19.0510  -31.3650   39.4220 O   0  0  0  0  0  0  0  0  0  0  0  0
   18.9070  -32.6100   38.8650 C   0  0  0  0  0  0  0  0  0  0  0  0
   18.5300  -33.6460   39.7190 C   0  0  0  0  0  0  0  0  0  0  0  0
   18.3670  -34.9400   39.2170 C   0  0  0  0  0  0  0  0  0  0  0  0
   18.5830  -35.1950   37.8610 C   0  0  0  0  0  0  0  0  0  0  0  0
   18.9590  -34.1590   37.0110 C   0  0  0  0  0  0  0  0  0  0  0  0
   19.1530  -34.4790   35.6950 O   0  0  0  0  0  0  0  0  0  0  0  0
   19.1200  -32.8660   37.5130 C   0  0  0  0  0  0  0  0  0  0  0  0
   19.5140  -31.7480   36.6540 C   0  0  0  0  0  0  0  0  0  0  0  0
   19.7280  -31.8960   35.4530 O   0  0  0  0  0  0  0  0  0  0  0  0
   19.6510  -30.4140   37.2840 C   0  0  0  0  0  0  0  0  0  0  0  0
   20.0360  -29.3690   36.4660 O   0  0  0  0  0  0  0  0  0  0  0  0
   18.5060  -28.0710   39.2490 C   0  0  0  0  0  0  0  0  0  0  0  0
   18.6100  -26.8450   39.9130 C   0  0  0  0  0  0  0  0  0  0  0  0
   19.7400  -26.5270   40.6820 C   0  0  0  0  0  0  0  0  0  0  0  0
   19.8630  -25.3000   41.3620 N   0  0  0  0  0  0  0  0  0  0  0  0
   19.3730  -24.1310   40.5990 C   0  0  0  0  0  0  0  0  0  0  0  0
   19.6820  -22.8320   41.3810 C   0  0  0  0  0  0  0  0  0  0  0  0
   19.0920  -22.8370   42.7410 N   0  0  0  0  0  0  0  0  0  0  0  0
   19.4530  -21.6180   43.4620 C   0  0  0  0  0  0  0  0  0  0  0  0
   19.5670  -24.0360   43.4730 C   0  0  0  0  0  0  0  0  0  0  0  0
   19.2710  -25.3530   42.7170 C   0  0  0  0  0  0  0  0  0  0  0  0
   22.1465  -26.8225   43.6983 H   0  0  0  0  0  0  0  0  0  0  0  0
   20.8548  -27.9751   43.2191 H   0  0  0  0  0  0  0  0  0  0  0  0
   22.5726  -28.5004   43.2191 H   0  0  0  0  0  0  0  0  0  0  0  0
   22.2343  -26.1297   41.5636 H   0  0  0  0  0  0  0  0  0  0  0  0
   22.8508  -27.7801   41.1269 H   0  0  0  0  0  0  0  0  0  0  0  0
   21.4756  -29.4424   40.1746 H   0  0  0  0  0  0  0  0  0  0  0  0
   18.3610  -33.4448   40.7872 H   0  0  0  0  0  0  0  0  0  0  0  0
   18.0686  -35.7575   39.8898 H   0  0  0  0  0  0  0  0  0  0  0  0
   18.4561  -36.2134   37.4652 H   0  0  0  0  0  0  0  0  0  0  0  0
   18.5640  -34.1560   35.0420 H   0  0  0  0  0  0  0  0  0  0  0  0
   19.8860  -28.4840   36.7330 H   0  0  0  0  0  0  0  0  0  0  0  0
   17.6110  -28.2892   38.6478 H   0  0  0  0  0  0  0  0  0  0  0  0
   17.7905  -26.1158   39.8311 H   0  0  0  0  0  0  0  0  0  0  0  0
   19.8741  -24.0968   39.6204 H   0  0  0  0  0  0  0  0  0  0  0  0
   18.2862  -24.2196   40.4542 H   0  0  0  0  0  0  0  0  0  0  0  0
   20.7731  -22.7242   41.4697 H   0  0  0  0  0  0  0  0  0  0  0  0
   19.2378  -21.9927   40.8258 H   0  0  0  0  0  0  0  0  0  0  0  0
   18.0750  -22.8670   42.6670 H   0  0  0  0  0  0  0  0  0  0  0  0
   19.3983  -21.8027   44.5450 H   0  0  0  0  0  0  0  0  0  0  0  0
   20.4774  -21.3219   43.1918 H   0  0  0  0  0  0  0  0  0  0  0  0
   18.7550  -20.8119   43.1918 H   0  0  0  0  0  0  0  0  0  0  0  0
   20.6538  -23.9511   43.6198 H   0  0  0  0  0  0  0  0  0  0  0  0
   19.0289  -24.0749   44.4316 H   0  0  0  0  0  0  0  0  0  0  0  0
   19.7053  -26.1976   43.2720 H   0  0  0  0  0  0  0  0  0  0  0  0
   18.1822  -25.4846   42.6316 H   0  0  0  0  0  0  0  0  0  0  0  0
  1  2  1  0
  2  3  1  0
  3  4  2  0
  4  5  1  0
  5  6  1  0
  6  7  1  0
  7  8  1  0
  8  9  2  0
  9 10  1  0
 10 11  2  0
 11 12  1  0
 12 13  1  0
 12 14  2  0
 14 15  1  0
 15 16  2  0
 15 17  1  0
 17 18  1  0
  5 19  2  0
 19 20  1  0
 20 21  2  0
 21 22  1  0
 22 23  1  0
 23 24  1  0
 24 25  1  0
 25 26  1  0
 25 27  1  0
 27 28  1  0
 21  3  1  0
 28 22  1  0
 17  6  2  0
 14  8  1  0
  1 29  1  0
  1 30  1  0
  1 31  1  0
  2 32  1  0
  2 33  1  0
  4 34  1  0
  9 35  1  0
 10 36  1  0
 11 37  1  0
 13 38  1  0
 18 39  1  0
 19 40  1  0
 20 41  1  0
 23 42  1  0
 23 43  1  0
 24 44  1  0
 24 45  1  0
 25 46  1  0
 26 47  1  0
 26 48  1  0
 26 49  1  0
 27 50  1  0
 27 51  1  0
 28 52  1  0
 28 53  1  0
M  CHG  1  25   1
M  END
>  <meeko>  (1) 
{"is_sidechain": [false], "free_energy": -7.99, "intermolecular_energy": -9.858, "internal_energy": -0.549}

$$$$
cand_025_out
     RDKit          3D

 53 56  0  0  0  0  0  0  0  0999 V2000
   17.9720  -25.1080   37.6460 C   0  0  0  0  0  0  0  0  0  0  0  0
   17.5560  -25.6560   39.0030 C   0  0  0  0  0  0  0  0  0  0  0  0
   18.4910  -26.7440   39.4850 C   0  0  0  0  0  0  0  0  0  0  0  0
   18.5080  -27.9730   38.7960 C   0  0  0  0  0  0  0  0  0  0  0  0
   19.3430  -29.0250   39.1930 C   0  0  0  0  0  0  0  0  0  0  0  0
   19.3480  -30.3250   38.4900 C   0  0  0  0  0  0  0  0  0  0  0  0
   18.9980  -31.3870   39.3160 O   0  0  0  0  0  0  0  0  0  0  0  0
   18.9620  -32.6530   38.7900 C   0  0  0  0  0  0  0  0  0  0  0  0
   18.5910  -33.6870   39.6500 C   0  0  0  0  0  0  0  0  0  0  0  0
   18.5360  -35.0010   39.1780 C   0  0  0  0  0  0  0  0  0  0  0  0
   18.8520  -35.2790   37.8470 C   0  0  0  0  0  0  0  0  0  0  0  0
   19.2220  -34.2460   36.9900 C   0  0  0  0  0  0  0  0  0  0  0  0
   19.5190  -34.5890   35.7000 O   0  0  0  0  0  0  0  0  0  0  0  0
   19.2770  -32.9320   37.4630 C   0  0  0  0  0  0  0  0  0  0  0  0
   19.6600  -31.8160   36.5960 C   0  0  0  0  0  0  0  0  0  0  0  0
   19.9590  -31.9830   35.4160 O   0  0  0  0  0  0  0  0  0  0  0  0
   19.6790  -30.4610   37.1920 C   0  0  0  0  0  0  0  0  0  0  0  0
   20.0550  -29.4170   36.3680 O   0  0  0  0  0  0  0  0  0  0  0  0
   20.1560  -28.8360   40.3160 C   0  0  0  0  0  0  0  0  0  0  0  0
   20.1430  -27.6240   41.0130 C   0  0  0  0  0  0  0  0  0  0  0  0
   19.3110  -26.5660   40.6170 C   0  0  0  0  0  0  0  0  0  0  0  0
   19.2860  -25.3360   41.3030 N   0  0  0  0  0  0  0  0  0  0  0  0
   19.6990  -25.4220   42.7210 C   0  0  0  0  0  0  0  0  0  0  0  0
   19.5030  -24.0490   43.4050 C   0  0  0  0  0  0  0  0  0  0  0  0
   20.2480  -22.9640   42.7230 N   0  0  0  0  0  0  0  0  0  0  0  0
   19.9910  -21.6790   43.3680 C   0  0  0  0  0  0  0  0  0  0  0  0
   19.8450  -22.9220   41.2970 C   0  0  0  0  0  0  0  0  0  0  0  0
   20.0320  -24.2810   40.5820 C   0  0  0  0  0  0  0  0  0  0  0  0
   18.6315  -24.2392   37.7880 H   0  0  0  0  0  0  0  0  0  0  0  0
   18.5080  -25.8874   37.0845 H   0  0  0  0  0  0  0  0  0  0  0  0
   17.0772  -24.8013   37.0845 H   0  0  0  0  0  0  0  0  0  0  0  0
   17.5600  -24.8344   39.7344 H   0  0  0  0  0  0  0  0  0  0  0  0
   16.5513  -26.0919   38.9003 H   0  0  0  0  0  0  0  0  0  0  0  0
   17.8496  -28.1095   37.9254 H   0  0  0  0  0  0  0  0  0  0  0  0
   18.3420  -33.4680   40.6988 H   0  0  0  0  0  0  0  0  0  0  0  0
   18.2436  -35.8167   39.8555 H   0  0  0  0  0  0  0  0  0  0  0  0
   18.8087  -36.3135   37.4755 H   0  0  0  0  0  0  0  0  0  0  0  0
   19.3560  -35.4620   35.3980 H   0  0  0  0  0  0  0  0  0  0  0  0
   20.6480  -29.5690   35.6590 H   0  0  0  0  0  0  0  0  0  0  0  0
   20.8132  -29.6506   40.6545 H   0  0  0  0  0  0  0  0  0  0  0  0
   20.7973  -27.4976   41.8882 H   0  0  0  0  0  0  0  0  0  0  0  0
   19.0865  -26.1774   43.2351 H   0  0  0  0  0  0  0  0  0  0  0  0
   20.7599  -25.7077   42.7748 H   0  0  0  0  0  0  0  0  0  0  0  0
   18.4315  -23.8005   43.3968 H   0  0  0  0  0  0  0  0  0  0  0  0
   19.8918  -24.1280   44.4310 H   0  0  0  0  0  0  0  0  0  0  0  0
   21.2490  -23.1520   42.7860 H   0  0  0  0  0  0  0  0  0  0  0  0
   20.0163  -21.8055   44.4604 H   0  0  0  0  0  0  0  0  0  0  0  0
   20.7623  -20.9557   43.0647 H   0  0  0  0  0  0  0  0  0  0  0  0
   19.0009  -21.3080   43.0647 H   0  0  0  0  0  0  0  0  0  0  0  0
   18.7840  -22.6376   41.2397 H   0  0  0  0  0  0  0  0  0  0  0  0
   20.4912  -22.1895   40.7912 H   0  0  0  0  0  0  0  0  0  0  0  0
   19.6540  -24.2062   39.5517 H   0  0  0  0  0  0  0  0  0  0  0  0
   21.1013  -24.5387   40.5678 H   0  0  0  0  0  0  0  0  0  0  0  0
  1  2  1  0
  2  3  1  0
  3  4  2  0
  4  5  1  0
  5  6  1  0
  6  7  1  0
  7  8  1  0
  8  9  2  0
  9 10  1  0
 10 11  2  0
 11 12  1  0
 12 13  1  0
 12 14  2  0
 14 15  1  0
 15 16  2  0
 15 17  1  0
 17 18  1  0
  5 19  2  0
 19 20  1  0
 20 21  2  0
 21 22  1  0
 22 23  1  0
 23 24  1  0
 24 25  1  0
 25 26  1  0
 25 27  1  0
 27 28  1  0
 21  3  1  0
 28 22  1  0
 17  6  2  0
 14  8  1  0
  1 29  1  0
  1 30  1  0
  1 31  1  0
  2 32  1  0
  2 33  1  0
  4 34  1  0
  9 35  1  0
 10 36  1  0
 11 37  1  0
 13 38  1  0
 18 39  1  0
 19 40  1  0
 20 41  1  0
 23 42  1  0
 23 43  1  0
 24 44  1  0
 24 45  1  0
 25 46  1  0
 26 47  1  0
 26 48  1  0
 26 49  1  0
 27 50  1  0
 27 51  1  0
 28 52  1  0
 28 53  1  0
M  CHG  1  25   1
M  END
>  <meeko>  (2) 
{"is_sidechain": [false], "free_energy": -7.804, "intermolecular_energy": -9.842, "internal_energy": -0.335}

$$$$
cand_025_out
     RDKit          3D

 53 56  0  0  0  0  0  0  0  0999 V2000
   19.3160  -23.4140   38.1820 C   0  0  0  0  0  0  0  0  0  0  0  0
   19.6610  -24.5750   37.2620 C   0  0  0  0  0  0  0  0  0  0  0  0
   19.7300  -25.8880   38.0090 C   0  0  0  0  0  0  0  0  0  0  0  0
   20.4240  -25.9330   39.2350 C   0  0  0  0  0  0  0  0  0  0  0  0
   20.5330  -27.1170   39.9740 C   0  0  0  0  0  0  0  0  0  0  0  0
   21.2800  -27.1760   41.2480 C   0  0  0  0  0  0  0  0  0  0  0  0
   22.2450  -28.1780   41.2630 O   0  0  0  0  0  0  0  0  0  0  0  0
   23.0130  -28.3430   42.3860 C   0  0  0  0  0  0  0  0  0  0  0  0
   23.9790  -29.3480   42.3520 C   0  0  0  0  0  0  0  0  0  0  0  0
   24.7950  -29.5700   43.4640 C   0  0  0  0  0  0  0  0  0  0  0  0
   24.6430  -28.7860   44.6100 C   0  0  0  0  0  0  0  0  0  0  0  0
   23.6790  -27.7830   44.6410 C   0  0  0  0  0  0  0  0  0  0  0  0
   23.5840  -27.0530   45.7950 O   0  0  0  0  0  0  0  0  0  0  0  0
   22.8640  -27.5610   43.5290 C   0  0  0  0  0  0  0  0  0  0  0  0
   21.8380  -26.5160   43.5200 C   0  0  0  0  0  0  0  0  0  0  0  0
   21.6410  -25.7910   44.4920 O   0  0  0  0  0  0  0  0  0  0  0  0
   21.0320  -26.3580   42.2870 C   0  0  0  0  0  0  0  0  0  0  0  0
   20.0580  -25.3770   42.2950 O   0  0  0  0  0  0  0  0  0  0  0  0
   19.9480  -28.2770   39.4550 C   0  0  0  0  0  0  0  0  0  0  0  0
   19.2630  -28.2490   38.2360 C   0  0  0  0  0  0  0  0  0  0  0  0
   19.1480  -27.0640   37.4930 C   0  0  0  0  0  0  0  0  0  0  0  0
   18.4590  -27.0130   36.2660 N   0  0  0  0  0  0  0  0  0  0  0  0
   18.8180  -28.0940   35.3220 C   0  0  0  0  0  0  0  0  0  0  0  0
   18.1080  -27.8610   33.9670 C   0  0  0  0  0  0  0  0  0  0  0  0
   16.6350  -27.7760   34.1080 N   0  0  0  0  0  0  0  0  0  0  0  0
   16.0100  -27.5020   32.8160 C   0  0  0  0  0  0  0  0  0  0  0  0
   16.3010  -26.7130   35.0860 C   0  0  0  0  0  0  0  0  0  0  0  0
   16.9940  -26.9190   36.4530 C   0  0  0  0  0  0  0  0  0  0  0  0
   19.4115  -23.7354   39.2296 H   0  0  0  0  0  0  0  0  0  0  0  0
   20.0044  -22.5776   37.9909 H   0  0  0  0  0  0  0  0  0  0  0  0
   18.2825  -23.0893   37.9909 H   0  0  0  0  0  0  0  0  0  0  0  0
   18.8900  -24.6507   36.4811 H   0  0  0  0  0  0  0  0  0  0  0  0
   20.6515  -24.3799   36.8252 H   0  0  0  0  0  0  0  0  0  0  0  0
   20.8915  -25.0150   39.6207 H   0  0  0  0  0  0  0  0  0  0  0  0
   24.0985  -29.9659   41.4498 H   0  0  0  0  0  0  0  0  0  0  0  0
   25.5574  -30.3624   43.4371 H   0  0  0  0  0  0  0  0  0  0  0  0
   25.2842  -28.9612   45.4864 H   0  0  0  0  0  0  0  0  0  0  0  0
   22.7910  -26.5950   45.9960 H   0  0  0  0  0  0  0  0  0  0  0  0
   20.2850  -24.4920   42.5030 H   0  0  0  0  0  0  0  0  0  0  0  0
   20.0277  -29.2221   40.0122 H   0  0  0  0  0  0  0  0  0  0  0  0
   18.8058  -29.1731   37.8524 H   0  0  0  0  0  0  0  0  0  0  0  0
   19.9072  -28.0981   35.1680 H   0  0  0  0  0  0  0  0  0  0  0  0
   18.4998  -29.0613   35.7381 H   0  0  0  0  0  0  0  0  0  0  0  0
   18.4761  -26.9199   33.5326 H   0  0  0  0  0  0  0  0  0  0  0  0
   18.3337  -28.7201   33.3181 H   0  0  0  0  0  0  0  0  0  0  0  0
   16.2760  -28.6700   34.4450 H   0  0  0  0  0  0  0  0  0  0  0  0
   15.0133  -27.0650   32.9762 H   0  0  0  0  0  0  0  0  0  0  0  0
   16.6337  -26.7948   32.2496 H   0  0  0  0  0  0  0  0  0  0  0  0
   15.9125  -28.4399   32.2496 H   0  0  0  0  0  0  0  0  0  0  0  0
   16.6177  -25.7436   34.6737 H   0  0  0  0  0  0  0  0  0  0  0  0
   15.2148  -26.7481   35.2561 H   0  0  0  0  0  0  0  0  0  0  0  0
   16.7641  -26.0676   37.1104 H   0  0  0  0  0  0  0  0  0  0  0  0
   16.6266  -27.8504   36.9086 H   0  0  0  0  0  0  0  0  0  0  0  0
  1  2  1  0
  2  3  1  0
  3  4  2  0
  4  5  1  0
  5  6  1  0
  6  7  1  0
  7  8  1  0
  8  9  2  0
  9 10  1  0
 10 11  2  0
 11 12  1  0
 12 13  1  0
 12 14  2  0
 14 15  1  0
 15 16  2  0
 15 17  1  0
 17 18  1  0
  5 19  2  0
 19 20  1  0
 20 21  2  0
 21 22  1  0
 22 23  1  0
 23 24  1  0
 24 25  1  0
 25 26  1  0
 25 27  1  0
 27 28  1  0
 21  3  1  0
 28 22  1  0
 17  6  2  0
 14  8  1  0
  1 29  1  0
  1 30  1  0
  1 31  1  0
  2 32  1  0
  2 33  1  0
  4 34  1  0
  9 35  1  0
 10 36  1  0
 11 37  1  0
 13 38  1  0
 18 39  1  0
 19 40  1  0
 20 41  1  0
 23 42  1  0
 23 43  1  0
 24 44  1  0
 24 45  1  0
 25 46  1  0
 26 47  1  0
 26 48  1  0
 26 49  1  0
 27 50  1  0
 27 51  1  0
 28 52  1  0
 28 53  1  0
M  CHG  1  25   1
M  END
>  <meeko>  (3) 
{"is_sidechain": [false], "free_energy": -7.382, "intermolecular_energy": -9.162, "internal_energy": -0.495}

$$$$
cand_025_out
     RDKit          3D

 53 56  0  0  0  0  0  0  0  0999 V2000
   21.2580  -21.1410   43.2980 C   0  0  0  0  0  0  0  0  0  0  0  0
   19.8370  -21.6500   43.1070 C   0  0  0  0  0  0  0  0  0  0  0  0
   19.8080  -23.0960   42.6650 C   0  0  0  0  0  0  0  0  0  0  0  0
   19.5930  -23.3810   41.3010 C   0  0  0  0  0  0  0  0  0  0  0  0
   19.5470  -24.6970   40.8250 C   0  0  0  0  0  0  0  0  0  0  0  0
   19.2970  -25.0030   39.4010 C   0  0  0  0  0  0  0  0  0  0  0  0
   18.1660  -24.3670   38.9010 O   0  0  0  0  0  0  0  0  0  0  0  0
   17.8190  -24.5630   37.5890 C   0  0  0  0  0  0  0  0  0  0  0  0
   16.6870  -23.8940   37.1260 C   0  0  0  0  0  0  0  0  0  0  0  0
   16.2770  -24.0510   35.7990 C   0  0  0  0  0  0  0  0  0  0  0  0
   17.0000  -24.8800   34.9390 C   0  0  0  0  0  0  0  0  0  0  0  0
   18.1300  -25.5470   35.4030 C   0  0  0  0  0  0  0  0  0  0  0  0
   18.7900  -26.3430   34.5070 O   0  0  0  0  0  0  0  0  0  0  0  0
   18.5390  -25.3890   36.7290 C   0  0  0  0  0  0  0  0  0  0  0  0
   19.7210  -26.0710   37.2590 C   0  0  0  0  0  0  0  0  0  0  0  0
   20.4030  -26.8220   36.5640 O   0  0  0  0  0  0  0  0  0  0  0  0
   20.0750  -25.8300   38.6760 C   0  0  0  0  0  0  0  0  0  0  0  0
   21.1850  -26.4900   39.1680 O   0  0  0  0  0  0  0  0  0  0  0  0
   19.7000  -25.7390   41.7450 C   0  0  0  0  0  0  0  0  0  0  0  0
   19.9050  -25.4710   43.1020 C   0  0  0  0  0  0  0  0  0  0  0  0
   19.9560  -24.1540   43.5840 C   0  0  0  0  0  0  0  0  0  0  0  0
   20.1670  -23.8620   44.9450 N   0  0  0  0  0  0  0  0  0  0  0  0
   18.9400  -23.8960   45.7710 C   0  0  0  0  0  0  0  0  0  0  0  0
   19.2670  -23.4300   47.2100 C   0  0  0  0  0  0  0  0  0  0  0  0
   20.3290  -24.2470   47.8430 N   0  0  0  0  0  0  0  0  0  0  0  0
   20.6440  -23.7390   49.1760 C   0  0  0  0  0  0  0  0  0  0  0  0
   21.5350  -24.2280   46.9800 C   0  0  0  0  0  0  0  0  0  0  0  0
   21.2410  -24.6930   45.5330 C   0  0  0  0  0  0  0  0  0  0  0  0
   21.4779  -21.0622   44.3729 H   0  0  0  0  0  0  0  0  0  0  0  0
   21.9646  -21.8419   42.8296 H   0  0  0  0  0  0  0  0  0  0  0  0
   21.3589  -20.1508   42.8296 H   0  0  0  0  0  0  0  0  0  0  0  0
   19.2960  -21.5591   44.0605 H   0  0  0  0  0  0  0  0  0  0  0  0
   19.3620  -21.0447   42.3209 H   0  0  0  0  0  0  0  0  0  0  0  0
   19.4581  -22.5494   40.5937 H   0  0  0  0  0  0  0  0  0  0  0  0
   16.1167  -23.2428   37.8047 H   0  0  0  0  0  0  0  0  0  0  0  0
   15.3851  -23.5217   35.4324 H   0  0  0  0  0  0  0  0  0  0  0  0
   16.6766  -25.0059   33.8952 H   0  0  0  0  0  0  0  0  0  0  0  0
   18.7460  -27.2760   34.5870 H   0  0  0  0  0  0  0  0  0  0  0  0
   21.6100  -27.1430   38.6490 H   0  0  0  0  0  0  0  0  0  0  0  0
   19.6586  -26.7817   41.3971 H   0  0  0  0  0  0  0  0  0  0  0  0
   20.0286  -26.3081   43.8048 H   0  0  0  0  0  0  0  0  0  0  0  0
   18.1853  -23.2266   45.3325 H   0  0  0  0  0  0  0  0  0  0  0  0
   18.5493  -24.9238   45.8008 H   0  0  0  0  0  0  0  0  0  0  0  0
   19.6016  -22.3827   47.1743 H   0  0  0  0  0  0  0  0  0  0  0  0
   18.3542  -23.5423   47.8135 H   0  0  0  0  0  0  0  0  0  0  0  0
   20.0000  -25.2080   47.9430 H   0  0  0  0  0  0  0  0  0  0  0  0
   20.2244  -24.4157   49.9349 H   0  0  0  0  0  0  0  0  0  0  0  0
   21.7357  -23.6827   49.2984 H   0  0  0  0  0  0  0  0  0  0  0  0
   20.2091  -22.7361   49.2984 H   0  0  0  0  0  0  0  0  0  0  0  0
   21.9279  -23.2011   46.9467 H   0  0  0  0  0  0  0  0  0  0  0  0
   22.2644  -24.9286   47.4126 H   0  0  0  0  0  0  0  0  0  0  0  0
   22.1528  -24.5937   44.9257 H   0  0  0  0  0  0  0  0  0  0  0  0
   20.9175  -25.7442   45.5493 H   0  0  0  0  0  0  0  0  0  0  0  0
  1  2  1  0
  2  3  1  0
  3  4  2  0
  4  5  1  0
  5  6  1  0
  6  7  1  0
  7  8  1  0
  8  9  2  0
  9 10  1  0
 10 11  2  0
 11 12  1  0
 12 13  1  0
 12 14  2  0
 14 15  1  0
 15 16  2  0
 15 17  1  0
 17 18  1  0
  5 19  2  0
 19 20  1  0
 20 21  2  0
 21 22  1  0
 22 23  1  0
 23 24  1  0
 24 25  1  0
 25 26  1  0
 25 27  1  0
 27 28  1  0
 21  3  1  0
 28 22  1  0
 17  6  2  0
 14  8  1  0
  1 29  1  0
  1 30  1  0
  1 31  1  0
  2 32  1  0
  2 33  1  0
  4 34  1  0
  9 35  1  0
 10 36  1  0
 11 37  1  0
 13 38  1  0
 18 39  1  0
 19 40  1  0
 20 41  1  0
 23 42  1  0
 23 43  1  0
 24 44  1  0
 24 45  1  0
 25 46  1  0
 26 47  1  0
 26 48  1  0
 26 49  1  0
 27 50  1  0
 27 51  1  0
 28 52  1  0
 28 53  1  0
M  CHG  1  25   1
M  END
>  <meeko>  (4) 
{"is_sidechain": [false], "free_energy": -7.081, "intermolecular_energy": -8.944, "internal_energy": -0.341}

$$$$
cand_025_out
     RDKit          3D

 53 56  0  0  0  0  0  0  0  0999 V2000
   20.6830  -27.0110   42.7480 C   0  0  0  0  0  0  0  0  0  0  0  0
   19.9720  -25.7330   43.1680 C   0  0  0  0  0  0  0  0  0  0  0  0
   19.7060  -24.8200   41.9910 C   0  0  0  0  0  0  0  0  0  0  0  0
   19.5050  -25.3960   40.7210 C   0  0  0  0  0  0  0  0  0  0  0  0
   19.2630  -24.6090   39.5890 C   0  0  0  0  0  0  0  0  0  0  0  0
   19.0760  -25.2050   38.2490 C   0  0  0  0  0  0  0  0  0  0  0  0
   17.8770  -24.8320   37.6530 O   0  0  0  0  0  0  0  0  0  0  0  0
   17.5770  -25.3140   36.4050 C   0  0  0  0  0  0  0  0  0  0  0  0
   16.3720  -24.9020   35.8390 C   0  0  0  0  0  0  0  0  0  0  0  0
   16.0040  -25.3570   34.5700 C   0  0  0  0  0  0  0  0  0  0  0  0
   16.8440  -26.2260   33.8700 C   0  0  0  0  0  0  0  0  0  0  0  0
   18.0470  -26.6360   34.4370 C   0  0  0  0  0  0  0  0  0  0  0  0
   18.8210  -27.4880   33.6970 O   0  0  0  0  0  0  0  0  0  0  0  0
   18.4140  -26.1800   35.7060 C   0  0  0  0  0  0  0  0  0  0  0  0
   19.6700  -26.5860   36.3390 C   0  0  0  0  0  0  0  0  0  0  0  0
   20.4560  -27.3530   35.7880 O   0  0  0  0  0  0  0  0  0  0  0  0
   19.9680  -26.0400   37.6820 C   0  0  0  0  0  0  0  0  0  0  0  0
   21.1500  -26.4400   38.2750 O   0  0  0  0  0  0  0  0  0  0  0  0
   19.2420  -23.2190   39.7410 C   0  0  0  0  0  0  0  0  0  0  0  0
   19.4480  -22.6340   40.9950 C   0  0  0  0  0  0  0  0  0  0  0  0
   19.6880  -23.4180   42.1330 C   0  0  0  0  0  0  0  0  0  0  0  0
   19.8930  -22.8490   43.4050 N   0  0  0  0  0  0  0  0  0  0  0  0
   20.9140  -21.7790   43.4350 C   0  0  0  0  0  0  0  0  0  0  0  0
   21.1520  -21.3260   44.8950 C   0  0  0  0  0  0  0  0  0  0  0  0
   19.9080  -20.8610   45.5530 N   0  0  0  0  0  0  0  0  0  0  0  0
   20.1670  -20.4950   46.9440 C   0  0  0  0  0  0  0  0  0  0  0  0
   18.8880  -21.9340   45.4780 C   0  0  0  0  0  0  0  0  0  0  0  0
   18.6250  -22.4080   44.0280 C   0  0  0  0  0  0  0  0  0  0  0  0
   20.9935  -27.5691   43.6436 H   0  0  0  0  0  0  0  0  0  0  0  0
   19.9999  -27.6305   42.1484 H   0  0  0  0  0  0  0  0  0  0  0  0
   21.5696  -26.7572   42.1484 H   0  0  0  0  0  0  0  0  0  0  0  0
   19.0125  -25.9977   43.6362 H   0  0  0  0  0  0  0  0  0  0  0  0
   20.6242  -25.1972   43.8734 H   0  0  0  0  0  0  0  0  0  0  0  0
   19.5391  -26.4905   40.6165 H   0  0  0  0  0  0  0  0  0  0  0  0
   15.7104  -24.2185   36.3913 H   0  0  0  0  0  0  0  0  0  0  0  0
   15.0534  -25.0310   34.1227 H   0  0  0  0  0  0  0  0  0  0  0  0
   16.5550  -26.5860   32.8716 H   0  0  0  0  0  0  0  0  0  0  0  0
   18.9620  -28.3670   33.9890 H   0  0  0  0  0  0  0  0  0  0  0  0
   21.2900  -27.3440   38.4810 H   0  0  0  0  0  0  0  0  0  0  0  0
   19.0615  -22.5786   38.8650 H   0  0  0  0  0  0  0  0  0  0  0  0
   19.4212  -21.5385   41.0903 H   0  0  0  0  0  0  0  0  0  0  0  0
   21.8554  -22.1599   43.0123 H   0  0  0  0  0  0  0  0  0  0  0  0
   20.5619  -20.9229   42.8408 H   0  0  0  0  0  0  0  0  0  0  0  0
   21.5578  -22.1740   45.4661 H   0  0  0  0  0  0  0  0  0  0  0  0
   21.8556  -20.4807   44.8731 H   0  0  0  0  0  0  0  0  0  0  0  0
   19.5610  -20.0310   45.0710 H   0  0  0  0  0  0  0  0  0  0  0  0
   19.6618  -21.2089   47.6112 H   0  0  0  0  0  0  0  0  0  0  0  0
   21.2502  -20.5191   47.1339 H   0  0  0  0  0  0  0  0  0  0  0  0
   19.7839  -19.4815   47.1339 H   0  0  0  0  0  0  0  0  0  0  0  0
   19.2361  -22.7925   46.0712 H   0  0  0  0  0  0  0  0  0  0  0  0
   17.9453  -21.5242   45.8697 H   0  0  0  0  0  0  0  0  0  0  0  0
   17.9141  -23.2473   44.0418 H   0  0  0  0  0  0  0  0  0  0  0  0
   18.2052  -21.5750   43.4449 H   0  0  0  0  0  0  0  0  0  0  0  0
  1  2  1  0
  2  3  1  0
  3  4  2  0
  4  5  1  0
  5  6  1  0
  6  7  1  0
  7  8  1  0
  8  9  2  0
  9 10  1  0
 10 11  2  0
 11 12  1  0
 12 13  1  0
 12 14  2  0
 14 15  1  0
 15 16  2  0
 15 17  1  0
 17 18  1  0
  5 19  2  0
 19 20  1  0
 20 21  2  0
 21 22  1  0
 22 23  1  0
 23 24  1  0
 24 25  1  0
 25 26  1  0
 25 27  1  0
 27 28  1  0
 21  3  1  0
 28 22  1  0
 17  6  2  0
 14  8  1  0
  1 29  1  0
  1 30  1  0
  1 31  1  0
  2 32  1  0
  2 33  1  0
  4 34  1  0
  9 35  1  0
 10 36  1  0
 11 37  1  0
 13 38  1  0
 18 39  1  0
 19 40  1  0
 20 41  1  0
 23 42  1  0
 23 43  1  0
 24 44  1  0
 24 45  1  0
 25 46  1  0
 26 47  1  0
 26 48  1  0
 26 49  1  0
 27 50  1  0
 27 51  1  0
 28 52  1  0
 28 53  1  0
M  CHG  1  25   1
M  END
>  <meeko>  (5) 
{"is_sidechain": [false], "free_energy": -6.967, "intermolecular_energy": -8.644, "internal_energy": -0.501}

$$$$
cand_025_out
     RDKit          3D

 53 56  0  0  0  0  0  0  0  0999 V2000
   22.1840  -27.5930   42.0040 C   0  0  0  0  0  0  0  0  0  0  0  0
   20.6750  -27.5470   42.1920 C   0  0  0  0  0  0  0  0  0  0  0  0
   20.1550  -26.1280   42.2500 C   0  0  0  0  0  0  0  0  0  0  0  0
   20.1400  -25.4640   43.4930 C   0  0  0  0  0  0  0  0  0  0  0  0
   19.6640  -24.1530   43.6190 C   0  0  0  0  0  0  0  0  0  0  0  0
   19.6230  -23.4600   44.9240 C   0  0  0  0  0  0  0  0  0  0  0  0
   20.8860  -23.2470   45.4630 O   0  0  0  0  0  0  0  0  0  0  0  0
   20.9930  -22.6120   46.6730 C   0  0  0  0  0  0  0  0  0  0  0  0
   22.2790  -22.4050   47.1700 C   0  0  0  0  0  0  0  0  0  0  0  0
   22.4590  -21.7650   48.3990 C   0  0  0  0  0  0  0  0  0  0  0  0
   21.3510  -21.3330   49.1300 C   0  0  0  0  0  0  0  0  0  0  0  0
   20.0670  -21.5400   48.6320 C   0  0  0  0  0  0  0  0  0  0  0  0
   19.0270  -21.0910   49.3990 O   0  0  0  0  0  0  0  0  0  0  0  0
   19.8880  -22.1790   47.4030 C   0  0  0  0  0  0  0  0  0  0  0  0
   18.5570  -22.4170   46.8430 C   0  0  0  0  0  0  0  0  0  0  0  0
   17.5340  -22.0720   47.4310 O   0  0  0  0  0  0  0  0  0  0  0  0
   18.4770  -23.0960   45.5300 C   0  0  0  0  0  0  0  0  0  0  0  0
   17.2140  -23.3270   45.0170 O   0  0  0  0  0  0  0  0  0  0  0  0
   19.1790  -23.5130   42.4740 C   0  0  0  0  0  0  0  0  0  0  0  0
   19.1800  -24.1630   41.2360 C   0  0  0  0  0  0  0  0  0  0  0  0
   19.6590  -25.4750   41.1030 C   0  0  0  0  0  0  0  0  0  0  0  0
   19.6740  -26.1450   39.8650 N   0  0  0  0  0  0  0  0  0  0  0  0
   18.5160  -27.0390   39.6440 C   0  0  0  0  0  0  0  0  0  0  0  0
   18.7060  -27.8210   38.3230 C   0  0  0  0  0  0  0  0  0  0  0  0
   18.8870  -26.9260   37.1560 N   0  0  0  0  0  0  0  0  0  0  0  0
   19.1170  -27.7030   35.9410 C   0  0  0  0  0  0  0  0  0  0  0  0
   20.0280  -26.0150   37.4160 C   0  0  0  0  0  0  0  0  0  0  0  0
   19.8670  -25.2150   38.7300 C   0  0  0  0  0  0  0  0  0  0  0  0
   22.6758  -27.6080   42.9878 H   0  0  0  0  0  0  0  0  0  0  0  0
   22.4563  -28.4999   41.4441 H   0  0  0  0  0  0  0  0  0  0  0  0
   22.5110  -26.7044   41.4441 H   0  0  0  0  0  0  0  0  0  0  0  0
   20.1960  -28.0667   41.3492 H   0  0  0  0  0  0  0  0  0  0  0  0
   20.4363  -28.0360   43.1480 H   0  0  0  0  0  0  0  0  0  0  0  0
   20.5112  -25.9883   44.3859 H   0  0  0  0  0  0  0  0  0  0  0  0
   23.1523  -22.7456   46.5944 H   0  0  0  0  0  0  0  0  0  0  0  0
   23.4739  -21.6016   48.7905 H   0  0  0  0  0  0  0  0  0  0  0  0
   21.4919  -20.8298   50.0980 H   0  0  0  0  0  0  0  0  0  0  0  0
   18.9390  -21.3830   50.2860 H   0  0  0  0  0  0  0  0  0  0  0  0
   16.4570  -23.1610   45.5430 H   0  0  0  0  0  0  0  0  0  0  0  0
   18.7921  -22.4860   42.5482 H   0  0  0  0  0  0  0  0  0  0  0  0
   18.7980  -23.6357   40.3495 H   0  0  0  0  0  0  0  0  0  0  0  0
   18.4368  -27.7485   40.4808 H   0  0  0  0  0  0  0  0  0  0  0  0
   17.5975  -26.4370   39.5822 H   0  0  0  0  0  0  0  0  0  0  0  0
   19.5947  -28.4623   38.4172 H   0  0  0  0  0  0  0  0  0  0  0  0
   17.7959  -28.4146   38.1516 H   0  0  0  0  0  0  0  0  0  0  0  0
   18.0390  -26.3750   37.0190 H   0  0  0  0  0  0  0  0  0  0  0  0
   19.4196  -28.7254   36.2114 H   0  0  0  0  0  0  0  0  0  0  0  0
   18.1911  -27.7393   35.3482 H   0  0  0  0  0  0  0  0  0  0  0  0
   19.9135  -27.2295   35.3482 H   0  0  0  0  0  0  0  0  0  0  0  0
   20.9487  -26.6136   37.4792 H   0  0  0  0  0  0  0  0  0  0  0  0
   20.0692  -25.2905   36.5893 H   0  0  0  0  0  0  0  0  0  0  0  0
   20.7702  -24.6113   38.9026 H   0  0  0  0  0  0  0  0  0  0  0  0
   18.9898  -24.5564   38.6480 H   0  0  0  0  0  0  0  0  0  0  0  0
  1  2  1  0
  2  3  1  0
  3  4  2  0
  4  5  1  0
  5  6  1  0
  6  7  1  0
  7  8  1  0
  8  9  2  0
  9 10  1  0
 10 11  2  0
 11 12  1  0
 12 13  1  0
 12 14  2  0
 14 15  1  0
 15 16  2  0
 15 17  1  0
 17 18  1  0
  5 19  2  0
 19 20  1  0
 20 21  2  0
 21 22  1  0
 22 23  1  0
 23 24  1  0
 24 25  1  0
 25 26  1  0
 25 27  1  0
 27 28  1  0
 21  3  1  0
 28 22  1  0
 17  6  2  0
 14  8  1  0
  1 29  1  0
  1 30  1  0
  1 31  1  0
  2 32  1  0
  2 33  1  0
  4 34  1  0
  9 35  1  0
 10 36  1  0
 11 37  1  0
 13 38  1  0
 18 39  1  0
 19 40  1  0
 20 41  1  0
 23 42  1  0
 23 43  1  0
 24 44  1  0
 24 45  1  0
 25 46  1  0
 26 47  1  0
 26 48  1  0
 26 49  1  0
 27 50  1  0
 27 51  1  0
 28 52  1  0
 28 53  1  0
M  CHG  1  25   1
M  END
>  <meeko>  (6) 
{"is_sidechain": [false], "free_energy": -6.913, "intermolecular_energy": -8.646, "internal_energy": -0.433}

$$$$
cand_025_out
     RDKit          3D

 53 56  0  0  0  0  0  0  0  0999 V2000
   19.1770  -31.3090   39.0130 C   0  0  0  0  0  0  0  0  0  0  0  0
   18.9930  -30.3400   37.8550 C   0  0  0  0  0  0  0  0  0  0  0  0
   19.2830  -28.9120   38.2600 C   0  0  0  0  0  0  0  0  0  0  0  0
   19.9110  -28.6750   39.5000 C   0  0  0  0  0  0  0  0  0  0  0  0
   20.2000  -27.3780   39.9400 C   0  0  0  0  0  0  0  0  0  0  0  0
   20.8350  -27.1220   41.2500 C   0  0  0  0  0  0  0  0  0  0  0  0
   21.9520  -27.9180   41.4740 O   0  0  0  0  0  0  0  0  0  0  0  0
   22.6390  -27.7820   42.6530 C   0  0  0  0  0  0  0  0  0  0  0  0
   23.7630  -28.5890   42.8300 C   0  0  0  0  0  0  0  0  0  0  0  0
   24.5060  -28.5020   44.0090 C   0  0  0  0  0  0  0  0  0  0  0  0
   24.1250  -27.6080   45.0110 C   0  0  0  0  0  0  0  0  0  0  0  0
   23.0030  -26.8030   44.8330 C   0  0  0  0  0  0  0  0  0  0  0  0
   22.6860  -25.9500   45.8550 O   0  0  0  0  0  0  0  0  0  0  0  0
   22.2600  -26.8900   43.6530 C   0  0  0  0  0  0  0  0  0  0  0  0
   21.0740  -26.0630   43.4250 C   0  0  0  0  0  0  0  0  0  0  0  0
   20.6730  -25.2580   44.2630 O   0  0  0  0  0  0  0  0  0  0  0  0
   20.3610  -26.2260   42.1370 C   0  0  0  0  0  0  0  0  0  0  0  0
   19.2360  -25.4490   41.9390 O   0  0  0  0  0  0  0  0  0  0  0  0
   19.8320  -26.3040   39.1230 C   0  0  0  0  0  0  0  0  0  0  0  0
   19.2020  -26.5240   37.8940 C   0  0  0  0  0  0  0  0  0  0  0  0
   18.9120  -27.8220   37.4460 C   0  0  0  0  0  0  0  0  0  0  0  0
   18.2830  -28.0650   36.2100 N   0  0  0  0  0  0  0  0  0  0  0  0
   17.2430  -27.0760   35.8530 C   0  0  0  0  0  0  0  0  0  0  0  0
   16.5300  -27.5160   34.5520 C   0  0  0  0  0  0  0  0  0  0  0  0
   17.4720  -27.6950   33.4220 N   0  0  0  0  0  0  0  0  0  0  0  0
   16.7660  -28.1630   32.2320 C   0  0  0  0  0  0  0  0  0  0  0  0
   18.5250  -28.6620   33.8170 C   0  0  0  0  0  0  0  0  0  0  0  0
   19.2600  -28.2480   35.1140 C   0  0  0  0  0  0  0  0  0  0  0  0
   19.0741  -30.7669   39.9646 H   0  0  0  0  0  0  0  0  0  0  0  0
   18.4126  -32.0980   38.9559 H   0  0  0  0  0  0  0  0  0  0  0  0
   20.1774  -31.7629   38.9559 H   0  0  0  0  0  0  0  0  0  0  0  0
   19.6769  -30.6244   37.0418 H   0  0  0  0  0  0  0  0  0  0  0  0
   17.9436  -30.3946   37.5296 H   0  0  0  0  0  0  0  0  0  0  0  0
   20.1804  -29.5303   40.1372 H   0  0  0  0  0  0  0  0  0  0  0  0
   24.0639  -29.2938   42.0409 H   0  0  0  0  0  0  0  0  0  0  0  0
   25.3923  -29.1385   44.1483 H   0  0  0  0  0  0  0  0  0  0  0  0
   24.7103  -27.5396   45.9398 H   0  0  0  0  0  0  0  0  0  0  0  0
   22.2450  -25.1430   45.6710 H   0  0  0  0  0  0  0  0  0  0  0  0
   19.3100  -24.6160   41.5180 H   0  0  0  0  0  0  0  0  0  0  0  0
   20.0404  -25.2749   39.4508 H   0  0  0  0  0  0  0  0  0  0  0  0
   18.9285  -25.6631   37.2663 H   0  0  0  0  0  0  0  0  0  0  0  0
   16.5075  -27.0083   36.6682 H   0  0  0  0  0  0  0  0  0  0  0  0
   17.7126  -26.0936   35.6969 H   0  0  0  0  0  0  0  0  0  0  0  0
   16.0155  -28.4705   34.7371 H   0  0  0  0  0  0  0  0  0  0  0  0
   15.8212  -26.7221   34.2741 H   0  0  0  0  0  0  0  0  0  0  0  0
   17.9040  -26.7980   33.1980 H   0  0  0  0  0  0  0  0  0  0  0  0
   15.8845  -28.7473   32.5347 H   0  0  0  0  0  0  0  0  0  0  0  0
   16.4447  -27.2985   31.6326 H   0  0  0  0  0  0  0  0  0  0  0  0
   17.4371  -28.7957   31.6326 H   0  0  0  0  0  0  0  0  0  0  0  0
   18.0581  -29.6453   33.9757 H   0  0  0  0  0  0  0  0  0  0  0  0
   19.2697  -28.6910   33.0080 H   0  0  0  0  0  0  0  0  0  0  0  0
   19.9781  -29.0333   35.3928 H   0  0  0  0  0  0  0  0  0  0  0  0
   19.7927  -27.3011   34.9419 H   0  0  0  0  0  0  0  0  0  0  0  0
  1  2  1  0
  2  3  1  0
  3  4  2  0
  4  5  1  0
  5  6  1  0
  6  7  1  0
  7  8  1  0
  8  9  2  0
  9 10  1  0
 10 11  2  0
 11 12  1  0
 12 13  1  0
 12 14  2  0
 14 15  1  0
 15 16  2  0
 15 17  1  0
 17 18  1  0
  5 19  2  0
 19 20  1  0
 20 21  2  0
 21 22  1  0
 22 23  1  0
 23 24  1  0
 24 25  1  0
 25 26  1  0
 25 27  1  0
 27 28  1  0
 21  3  1  0
 28 22  1  0
 17  6  2  0
 14  8  1  0
  1 29  1  0
  1 30  1  0
  1 31  1  0
  2 32  1  0
  2 33  1  0
  4 34  1  0
  9 35  1  0
 10 36  1  0
 11 37  1  0
 13 38  1  0
 18 39  1  0
 19 40  1  0
 20 41  1  0
 23 42  1  0
 23 43  1  0
 24 44  1  0
 24 45  1  0
 25 46  1  0
 26 47  1  0
 26 48  1  0
 26 49  1  0
 27 50  1  0
 27 51  1  0
 28 52  1  0
 28 53  1  0
M  CHG  1  25   1
M  END
>  <meeko>  (7) 
{"is_sidechain": [false], "free_energy": -6.788, "intermolecular_energy": -8.626, "internal_energy": -0.299}

$$$$
cand_025_out
     RDKit          3D

 53 56  0  0  0  0  0  0  0  0999 V2000
   20.6560  -24.3720   47.1880 C   0  0  0  0  0  0  0  0  0  0  0  0
   19.3670  -23.8170   46.6020 C   0  0  0  0  0  0  0  0  0  0  0  0
   19.5320  -23.4130   45.1530 C   0  0  0  0  0  0  0  0  0  0  0  0
   19.5210  -24.4190   44.1660 C   0  0  0  0  0  0  0  0  0  0  0  0
   19.6760  -24.1160   42.8080 C   0  0  0  0  0  0  0  0  0  0  0  0
   19.6910  -25.1680   41.7700 C   0  0  0  0  0  0  0  0  0  0  0  0
   18.8910  -24.8590   40.6760 O   0  0  0  0  0  0  0  0  0  0  0  0
   18.8140  -25.7510   39.6370 C   0  0  0  0  0  0  0  0  0  0  0  0
   18.0120  -25.3940   38.5530 C   0  0  0  0  0  0  0  0  0  0  0  0
   17.8880  -26.2580   37.4620 C   0  0  0  0  0  0  0  0  0  0  0  0
   18.5660  -27.4780   37.4570 C   0  0  0  0  0  0  0  0  0  0  0  0
   19.3670  -27.8330   38.5400 C   0  0  0  0  0  0  0  0  0  0  0  0
   20.0020  -29.0420   38.4700 O   0  0  0  0  0  0  0  0  0  0  0  0
   19.4900  -26.9680   39.6300 C   0  0  0  0  0  0  0  0  0  0  0  0
   20.3210  -27.3010   40.7890 C   0  0  0  0  0  0  0  0  0  0  0  0
   20.9420  -28.3590   40.8600 O   0  0  0  0  0  0  0  0  0  0  0  0
   20.3900  -26.3120   41.8890 C   0  0  0  0  0  0  0  0  0  0  0  0
   21.1670  -26.6430   42.9830 O   0  0  0  0  0  0  0  0  0  0  0  0
   19.8650  -22.7780   42.4460 C   0  0  0  0  0  0  0  0  0  0  0  0
   19.8850  -21.7710   43.4160 C   0  0  0  0  0  0  0  0  0  0  0  0
   19.7270  -22.0680   44.7780 C   0  0  0  0  0  0  0  0  0  0  0  0
   19.7400  -21.0690   45.7700 N   0  0  0  0  0  0  0  0  0  0  0  0
   21.0780  -20.5000   46.0420 C   0  0  0  0  0  0  0  0  0  0  0  0
   20.9950  -19.5190   47.2350 C   0  0  0  0  0  0  0  0  0  0  0  0
   20.0160  -18.4300   47.0050 N   0  0  0  0  0  0  0  0  0  0  0  0
   19.9290  -17.5590   48.1750 C   0  0  0  0  0  0  0  0  0  0  0  0
   18.6920  -19.0240   46.6970 C   0  0  0  0  0  0  0  0  0  0  0  0
   18.7410  -20.0090   45.5060 C   0  0  0  0  0  0  0  0  0  0  0  0
   20.5997  -24.3478   48.2863 H   0  0  0  0  0  0  0  0  0  0  0  0
   20.7951  -25.4098   46.8508 H   0  0  0  0  0  0  0  0  0  0  0  0
   21.5055  -23.7599   46.8508 H   0  0  0  0  0  0  0  0  0  0  0  0
   18.5853  -24.5880   46.6691 H   0  0  0  0  0  0  0  0  0  0  0  0
   19.0909  -22.9201   47.1759 H   0  0  0  0  0  0  0  0  0  0  0  0
   19.3874  -25.4677   44.4700 H   0  0  0  0  0  0  0  0  0  0  0  0
   17.4774  -24.4327   38.5571 H   0  0  0  0  0  0  0  0  0  0  0  0
   17.2559  -25.9767   36.6068 H   0  0  0  0  0  0  0  0  0  0  0  0
   18.4679  -28.1587   36.5985 H   0  0  0  0  0  0  0  0  0  0  0  0
   20.9320  -29.0770   38.3540 H   0  0  0  0  0  0  0  0  0  0  0  0
   22.0700  -26.8660   42.8680 H   0  0  0  0  0  0  0  0  0  0  0  0
   19.9994  -22.5151   41.3864 H   0  0  0  0  0  0  0  0  0  0  0  0
   20.0274  -20.7255   43.1051 H   0  0  0  0  0  0  0  0  0  0  0  0
   21.7784  -21.3127   46.2850 H   0  0  0  0  0  0  0  0  0  0  0  0
   21.4324  -19.9608   45.1511 H   0  0  0  0  0  0  0  0  0  0  0  0
   20.6953  -20.0794   48.1328 H   0  0  0  0  0  0  0  0  0  0  0  0
   21.9860  -19.0580   47.3592 H   0  0  0  0  0  0  0  0  0  0  0  0
   20.3230  -17.8620   46.2140 H   0  0  0  0  0  0  0  0  0  0  0  0
   19.9897  -18.1667   49.0899 H   0  0  0  0  0  0  0  0  0  0  0  0
   20.7596  -16.8380   48.1580 H   0  0  0  0  0  0  0  0  0  0  0  0
   18.9722  -17.0166   48.1580 H   0  0  0  0  0  0  0  0  0  0  0  0
   18.3336  -19.5642   47.5856 H   0  0  0  0  0  0  0  0  0  0  0  0
   18.0159  -18.2018   46.4199 H   0  0  0  0  0  0  0  0  0  0  0  0
   17.7502  -20.4671   45.3705 H   0  0  0  0  0  0  0  0  0  0  0  0
   19.0253  -19.4620   44.5950 H   0  0  0  0  0  0  0  0  0  0  0  0
  1  2  1  0
  2  3  1  0
  3  4  2  0
  4  5  1  0
  5  6  1  0
  6  7  1  0
  7  8  1  0
  8  9  2  0
  9 10  1  0
 10 11  2  0
 11 12  1  0
 12 13  1  0
 12 14  2  0
 14 15  1  0
 15 16  2  0
 15 17  1  0
 17 18  1  0
  5 19  2  0
 19 20  1  0
 20 21  2  0
 21 22  1  0
 22 23  1  0
 23 24  1  0
 24 25  1  0
 25 26  1  0
 25 27  1  0
 27 28  1  0
 21  3  1  0
 28 22  1  0
 17  6  2  0
 14  8  1  0
  1 29  1  0
  1 30  1  0
  1 31  1  0
  2 32  1  0
  2 33  1  0
  4 34  1  0
  9 35  1  0
 10 36  1  0
 11 37  1  0
 13 38  1  0
 18 39  1  0
 19 40  1  0
 20 41  1  0
 23 42  1  0
 23 43  1  0
 24 44  1  0
 24 45  1  0
 25 46  1  0
 26 47  1  0
 26 48  1  0
 26 49  1  0
 27 50  1  0
 27 51  1  0
 28 52  1  0
 28 53  1  0
M  CHG  1  25   1
M  END
>  <meeko>  (8) 
{"is_sidechain": [false], "free_energy": -6.699, "intermolecular_energy": -8.374, "internal_energy": -0.441}

$$$$
cand_025_out
     RDKit          3D

 53 56  0  0  0  0  0  0  0  0999 V2000
   22.4870  -27.8270   41.9050 C   0  0  0  0  0  0  0  0  0  0  0  0
   20.9970  -27.6880   41.6320 C   0  0  0  0  0  0  0  0  0  0  0  0
   20.4960  -26.2920   41.9260 C   0  0  0  0  0  0  0  0  0  0  0  0
   20.7890  -25.7190   43.1790 C   0  0  0  0  0  0  0  0  0  0  0  0
   20.3480  -24.4340   43.5190 C   0  0  0  0  0  0  0  0  0  0  0  0
   20.6300  -23.8370   44.8420 C   0  0  0  0  0  0  0  0  0  0  0  0
   20.2350  -24.6500   45.8970 O   0  0  0  0  0  0  0  0  0  0  0  0
   20.4400  -24.2170   47.1820 C   0  0  0  0  0  0  0  0  0  0  0  0
   20.0430  -25.0720   48.2100 C   0  0  0  0  0  0  0  0  0  0  0  0
   20.2220  -24.6900   49.5430 C   0  0  0  0  0  0  0  0  0  0  0  0
   20.7960  -23.4540   49.8450 C   0  0  0  0  0  0  0  0  0  0  0  0
   21.1920  -22.6030   48.8170 C   0  0  0  0  0  0  0  0  0  0  0  0
   21.7480  -21.4080   49.1830 O   0  0  0  0  0  0  0  0  0  0  0  0
   21.0140  -22.9850   47.4850 C   0  0  0  0  0  0  0  0  0  0  0  0
   21.4150  -22.1210   46.3740 C   0  0  0  0  0  0  0  0  0  0  0  0
   21.9210  -21.0160   46.5600 O   0  0  0  0  0  0  0  0  0  0  0  0
   21.1900  -22.6220   44.9990 C   0  0  0  0  0  0  0  0  0  0  0  0
   21.5610  -21.7920   43.9580 O   0  0  0  0  0  0  0  0  0  0  0  0
   19.5840  -23.7270   42.5840 C   0  0  0  0  0  0  0  0  0  0  0  0
   19.2800  -24.2870   41.3400 C   0  0  0  0  0  0  0  0  0  0  0  0
   19.7220  -25.5730   40.9920 C   0  0  0  0  0  0  0  0  0  0  0  0
   19.4300  -26.1530   39.7430 N   0  0  0  0  0  0  0  0  0  0  0  0
   18.0680  -26.7210   39.6390 C   0  0  0  0  0  0  0  0  0  0  0  0
   17.9080  -27.4470   38.2820 C   0  0  0  0  0  0  0  0  0  0  0  0
   18.1780  -26.5570   37.1280 N   0  0  0  0  0  0  0  0  0  0  0  0
   18.0690  -27.2950   35.8720 C   0  0  0  0  0  0  0  0  0  0  0  0
   19.5320  -25.9710   37.2730 C   0  0  0  0  0  0  0  0  0  0  0  0
   19.7240  -25.2340   38.6200 C   0  0  0  0  0  0  0  0  0  0  0  0
   22.6608  -27.8432   42.9911 H   0  0  0  0  0  0  0  0  0  0  0  0
   22.8554  -28.7634   41.4607 H   0  0  0  0  0  0  0  0  0  0  0  0
   23.0222  -26.9749   41.4607 H   0  0  0  0  0  0  0  0  0  0  0  0
   20.8068  -27.9181   40.5733 H   0  0  0  0  0  0  0  0  0  0  0  0
   20.4634  -28.3871   42.2928 H   0  0  0  0  0  0  0  0  0  0  0  0
   21.3783  -26.2947   43.9079 H   0  0  0  0  0  0  0  0  0  0  0  0
   19.5896  -26.0456   47.9723 H   0  0  0  0  0  0  0  0  0  0  0  0
   19.9102  -25.3641   50.3544 H   0  0  0  0  0  0  0  0  0  0  0  0
   20.9352  -23.1529   50.8938 H   0  0  0  0  0  0  0  0  0  0  0  0
   21.1960  -20.6770   49.3870 H   0  0  0  0  0  0  0  0  0  0  0  0
   22.4200  -21.8570   43.5890 H   0  0  0  0  0  0  0  0  0  0  0  0
   19.2186  -22.7192   42.8307 H   0  0  0  0  0  0  0  0  0  0  0  0
   18.6828  -23.7087   40.6197 H   0  0  0  0  0  0  0  0  0  0  0  0
   17.9070  -27.4373   40.4581 H   0  0  0  0  0  0  0  0  0  0  0  0
   17.3286  -25.9094   39.7074 H   0  0  0  0  0  0  0  0  0  0  0  0
   18.6118  -28.2917   38.2485 H   0  0  0  0  0  0  0  0  0  0  0  0
   16.8647  -27.7872   38.2054 H   0  0  0  0  0  0  0  0  0  0  0  0
   17.4850  -25.8070   37.1120 H   0  0  0  0  0  0  0  0  0  0  0  0
   17.9114  -28.3623   36.0864 H   0  0  0  0  0  0  0  0  0  0  0  0
   17.2183  -26.9080   35.2919 H   0  0  0  0  0  0  0  0  0  0  0  0
   18.9953  -27.1704   35.2919 H   0  0  0  0  0  0  0  0  0  0  0  0
   20.2743  -26.7800   37.2058 H   0  0  0  0  0  0  0  0  0  0  0  0
   19.6613  -25.2316   36.4689 H   0  0  0  0  0  0  0  0  0  0  0  0
   20.7634  -24.8826   38.6987 H   0  0  0  0  0  0  0  0  0  0  0  0
   19.0372  -24.3759   38.6647 H   0  0  0  0  0  0  0  0  0  0  0  0
  1  2  1  0
  2  3  1  0
  3  4  2  0
  4  5  1  0
  5  6  1  0
  6  7  1  0
  7  8  1  0
  8  9  2  0
  9 10  1  0
 10 11  2  0
 11 12  1  0
 12 13  1  0
 12 14  2  0
 14 15  1  0
 15 16  2  0
 15 17  1  0
 17 18  1  0
  5 19  2  0
 19 20  1  0
 20 21  2  0
 21 22  1  0
 22 23  1  0
 23 24  1  0
 24 25  1  0
 25 26  1  0
 25 27  1  0
 27 28  1  0
 21  3  1  0
 28 22  1  0
 17  6  2  0
 14  8  1  0
  1 29  1  0
  1 30  1  0
  1 31  1  0
  2 32  1  0
  2 33  1  0
  4 34  1  0
  9 35  1  0
 10 36  1  0
 11 37  1  0
 13 38  1  0
 18 39  1  0
 19 40  1  0
 20 41  1  0
 23 42  1  0
 23 43  1  0
 24 44  1  0
 24 45  1  0
 25 46  1  0
 26 47  1  0
 26 48  1  0
 26 49  1  0
 27 50  1  0
 27 51  1  0
 28 52  1  0
 28 53  1  0
M  CHG  1  25   1
M  END
>  <meeko>  (9) 
{"is_sidechain": [false], "free_energy": -6.604, "intermolecular_energy": -8.226, "internal_energy": -0.472}

$$$$
