cand_039_out
     RDKit          3D

 41 43  0  0  0  0  0  0  0  0999 V2000
   19.3370  -23.7960   39.8460 C   0  0  0  0  0  0  0  0  0  0  0  0
   19.0460  -24.8630   40.8920 C   0  0  0  0  0  0  0  0  0  0  0  0
   19.1540  -26.2570   40.3210 C   0  0  0  0  0  0  0  0  0  0  0  0
   18.3840  -26.5690   39.1870 C   0  0  0  0  0  0  0  0  0  0  0  0
   18.4400  -27.8350   38.6010 C   0  0  0  0  0  0  0  0  0  0  0  0
   19.2640  -28.8310   39.1330 C   0  0  0  0  0  0  0  0  0  0  0  0
   19.3270  -30.1600   38.4860 C   0  0  0  0  0  0  0  0  0  0  0  0
   18.9270  -31.1900   39.3300 O   0  0  0  0  0  0  0  0  0  0  0  0
   18.9360  -32.4770   38.8560 C   0  0  0  0  0  0  0  0  0  0  0  0
   18.5120  -33.4770   39.7310 C   0  0  0  0  0  0  0  0  0  0  0  0
   18.5000  -34.8100   39.3120 C   0  0  0  0  0  0  0  0  0  0  0  0
   18.9120  -35.1410   38.0200 C   0  0  0  0  0  0  0  0  0  0  0  0
   19.3350  -34.1410   37.1490 C   0  0  0  0  0  0  0  0  0  0  0  0
   19.7240  -34.5350   35.8980 O   0  0  0  0  0  0  0  0  0  0  0  0
   19.3460  -32.8070   37.5680 C   0  0  0  0  0  0  0  0  0  0  0  0
   19.7830  -31.7260   36.6840 C   0  0  0  0  0  0  0  0  0  0  0  0
   20.1660  -31.9390   35.5360 O   0  0  0  0  0  0  0  0  0  0  0  0
   19.7500  -30.3460   37.2220 C   0  0  0  0  0  0  0  0  0  0  0  0
   20.1770  -29.3340   36.3830 O   0  0  0  0  0  0  0  0  0  0  0  0
   20.0470  -28.5170   40.2530 C   0  0  0  0  0  0  0  0  0  0  0  0
   20.0090  -27.2430   40.8550 C   0  0  0  0  0  0  0  0  0  0  0  0
   20.8720  -27.0110   42.0740 C   0  0  0  0  0  0  0  0  0  0  0  0
   22.2530  -27.6330   41.9190 C   0  0  0  0  0  0  0  0  0  0  0  0
   19.5946  -22.8515   40.3475 H   0  0  0  0  0  0  0  0  0  0  0  0
   20.1798  -24.1191   39.2173 H   0  0  0  0  0  0  0  0  0  0  0  0
   18.4468  -23.6464   39.2173 H   0  0  0  0  0  0  0  0  0  0  0  0
   19.7676  -24.7594   41.7157 H   0  0  0  0  0  0  0  0  0  0  0  0
   18.0148  -24.7194   41.2471 H   0  0  0  0  0  0  0  0  0  0  0  0
   17.7255  -25.8019   38.7535 H   0  0  0  0  0  0  0  0  0  0  0  0
   17.8296  -28.0508   37.7117 H   0  0  0  0  0  0  0  0  0  0  0  0
   18.1876  -33.2167   40.7493 H   0  0  0  0  0  0  0  0  0  0  0  0
   18.1655  -35.5995   40.0011 H   0  0  0  0  0  0  0  0  0  0  0  0
   18.9024  -36.1905   37.6907 H   0  0  0  0  0  0  0  0  0  0  0  0
   19.1760  -34.3570   35.1590 H   0  0  0  0  0  0  0  0  0  0  0  0
   20.2770  -28.4630   36.7130 H   0  0  0  0  0  0  0  0  0  0  0  0
   20.7101  -29.2871   40.6740 H   0  0  0  0  0  0  0  0  0  0  0  0
   20.9852  -25.9278   42.2286 H   0  0  0  0  0  0  0  0  0  0  0  0
   20.3794  -27.4853   42.9356 H   0  0  0  0  0  0  0  0  0  0  0  0
   22.6818  -27.8262   42.9134 H   0  0  0  0  0  0  0  0  0  0  0  0
   22.1686  -28.5800   41.3658 H   0  0  0  0  0  0  0  0  0  0  0  0
   22.9063  -26.9422   41.3658 H   0  0  0  0  0  0  0  0  0  0  0  0
  1  2  1  0
  2  3  1  0
  3  4  2  0
  4  5  1  0
  5  6  2  0
  6  7  1  0
  7  8  1  0
  8  9  1  0
  9 10  2  0
 10 11  1  0
 11 12  2  0
 12 13  1  0
 13 14  1  0
 13 15  2  0
 15 16  1  0
 16 17  2  0
 16 18  1  0
 18 19  1  0
  6 20  1  0
 20 21  2  0
 21 22  1  0
 22 23  1  0
 21  3  1  0
 18  7  2  0
 15  9  1  0
  1 24  1  0
  1 25  1  0
  1 26  1  0
  2 27  1  0
  2 28  1  0
  4 29  1  0
  5 30  1  0
 10 31  1  0
 11 32  1  0
 12 33  1  0
 14 34  1  0
 19 35  1  0
 20 36  1  0
 22 37  1  0
 22 38  1  0
 23 39  1  0
 23 40  1  0
 23 41  1  0
M  END
>  <meeko>  (1) 
{"is_sidechain": [false], "free_energy": -7.948, "intermolecular_energy": -9.807, "internal_energy": -0.484}

$$$$
cand_039_out
     RDKit          3D

 41 43  0  0  0  0  0  0  0  0999 V2000
   18.8480  -34.8860   36.9650 C   0  0  0  0  0  0  0  0  0  0  0  0
   19.6100  -33.7950   36.2260 C   0  0  0  0  0  0  0  0  0  0  0  0
   19.5200  -32.4640   36.9360 C   0  0  0  0  0  0  0  0  0  0  0  0
   18.9920  -32.4440   38.2380 C   0  0  0  0  0  0  0  0  0  0  0  0
   18.8860  -31.2510   38.9570 C   0  0  0  0  0  0  0  0  0  0  0  0
   19.3000  -30.0410   38.3940 C   0  0  0  0  0  0  0  0  0  0  0  0
   19.2010  -28.7900   39.1780 C   0  0  0  0  0  0  0  0  0  0  0  0
   20.0920  -28.7490   40.2440 O   0  0  0  0  0  0  0  0  0  0  0  0
   20.1050  -27.6440   41.0560 C   0  0  0  0  0  0  0  0  0  0  0  0
   21.0260  -27.6380   42.1030 C   0  0  0  0  0  0  0  0  0  0  0  0
   21.0900  -26.5430   42.9680 C   0  0  0  0  0  0  0  0  0  0  0  0
   20.2340  -25.4550   42.7850 C   0  0  0  0  0  0  0  0  0  0  0  0
   19.3160  -25.4640   41.7390 C   0  0  0  0  0  0  0  0  0  0  0  0
   18.5080  -24.3670   41.6170 O   0  0  0  0  0  0  0  0  0  0  0  0
   19.2520  -26.5590   40.8730 C   0  0  0  0  0  0  0  0  0  0  0  0
   18.3020  -26.6090   39.7610 C   0  0  0  0  0  0  0  0  0  0  0  0
   17.5120  -25.6940   39.5400 O   0  0  0  0  0  0  0  0  0  0  0  0
   18.3210  -27.8110   38.8970 C   0  0  0  0  0  0  0  0  0  0  0  0
   17.4100  -27.8530   37.8580 O   0  0  0  0  0  0  0  0  0  0  0  0
   19.8440  -30.0610   37.1020 C   0  0  0  0  0  0  0  0  0  0  0  0
   19.9650  -31.2560   36.3630 C   0  0  0  0  0  0  0  0  0  0  0  0
   20.5410  -31.1690   34.9680 C   0  0  0  0  0  0  0  0  0  0  0  0
   20.1240  -29.8880   34.2600 C   0  0  0  0  0  0  0  0  0  0  0  0
   18.9528  -34.7360   38.0497 H   0  0  0  0  0  0  0  0  0  0  0  0
   17.7840  -34.8409   36.6897 H   0  0  0  0  0  0  0  0  0  0  0  0
   19.2566  -35.8695   36.6897 H   0  0  0  0  0  0  0  0  0  0  0  0
   20.6678  -34.0878   36.1522 H   0  0  0  0  0  0  0  0  0  0  0  0
   19.1594  -33.6804   35.2291 H   0  0  0  0  0  0  0  0  0  0  0  0
   18.6562  -33.3844   38.6993 H   0  0  0  0  0  0  0  0  0  0  0  0
   18.4726  -31.2643   39.9763 H   0  0  0  0  0  0  0  0  0  0  0  0
   21.7012  -28.4943   42.2476 H   0  0  0  0  0  0  0  0  0  0  0  0
   21.8158  -26.5378   43.7946 H   0  0  0  0  0  0  0  0  0  0  0  0
   20.2852  -24.5927   43.4661 H   0  0  0  0  0  0  0  0  0  0  0  0
   18.4000  -23.9550   40.7820 H   0  0  0  0  0  0  0  0  0  0  0  0
   16.8980  -27.0960   37.6530 H   0  0  0  0  0  0  0  0  0  0  0  0
   20.1863  -29.1175   36.6518 H   0  0  0  0  0  0  0  0  0  0  0  0
   21.6386  -31.1975   35.0342 H   0  0  0  0  0  0  0  0  0  0  0  0
   20.1562  -32.0201   34.3869 H   0  0  0  0  0  0  0  0  0  0  0  0
   19.8742  -29.1206   35.0075 H   0  0  0  0  0  0  0  0  0  0  0  0
   20.9522  -29.5307   33.6304 H   0  0  0  0  0  0  0  0  0  0  0  0
   19.2442  -30.0868   33.6304 H   0  0  0  0  0  0  0  0  0  0  0  0
  1  2  1  0
  2  3  1  0
  3  4  2  0
  4  5  1  0
  5  6  2  0
  6  7  1  0
  7  8  1  0
  8  9  1  0
  9 10  2  0
 10 11  1  0
 11 12  2  0
 12 13  1  0
 13 14  1  0
 13 15  2  0
 15 16  1  0
 16 17  2  0
 16 18  1  0
 18 19  1  0
  6 20  1  0
 20 21  2  0
 21 22  1  0
 22 23  1  0
 21  3  1  0
 18  7  2  0
 15  9  1  0
  1 24  1  0
  1 25  1  0
  1 26  1  0
  2 27  1  0
  2 28  1  0
  4 29  1  0
  5 30  1  0
 10 31  1  0
 11 32  1  0
 12 33  1  0
 14 34  1  0
 19 35  1  0
 20 36  1  0
 22 37  1  0
 22 38  1  0
 23 39  1  0
 23 40  1  0
 23 41  1  0
M  END
>  <meeko>  (2) 
{"is_sidechain": [false], "free_energy": -7.593, "intermolecular_energy": -9.284, "internal_energy": -0.568}

$$$$
cand_039_out
     RDKit          3D

 41 43  0  0  0  0  0  0  0  0999 V2000
   19.6750  -23.8080   40.9270 C   0  0  0  0  0  0  0  0  0  0  0  0
   18.9240  -25.0130   41.4760 C   0  0  0  0  0  0  0  0  0  0  0  0
   19.1310  -26.2440   40.6240 C   0  0  0  0  0  0  0  0  0  0  0  0
   18.3860  -26.3580   39.4380 C   0  0  0  0  0  0  0  0  0  0  0  0
   18.5310  -27.4650   38.5980 C   0  0  0  0  0  0  0  0  0  0  0  0
   19.4220  -28.4920   38.9190 C   0  0  0  0  0  0  0  0  0  0  0  0
   19.5780  -29.6460   38.0060 C   0  0  0  0  0  0  0  0  0  0  0  0
   19.8490  -29.2650   36.6970 O   0  0  0  0  0  0  0  0  0  0  0  0
   20.0180  -30.2370   35.7450 C   0  0  0  0  0  0  0  0  0  0  0  0
   20.3030  -29.8110   34.4480 C   0  0  0  0  0  0  0  0  0  0  0  0
   20.4840  -30.7510   33.4290 C   0  0  0  0  0  0  0  0  0  0  0  0
   20.3790  -32.1150   33.7090 C   0  0  0  0  0  0  0  0  0  0  0  0
   20.0930  -32.5370   35.0040 C   0  0  0  0  0  0  0  0  0  0  0  0
   20.0050  -33.8860   35.2090 O   0  0  0  0  0  0  0  0  0  0  0  0
   19.9140  -31.5970   36.0230 C   0  0  0  0  0  0  0  0  0  0  0  0
   19.6120  -31.9980   37.3980 C   0  0  0  0  0  0  0  0  0  0  0  0
   19.4970  -33.1790   37.7200 O   0  0  0  0  0  0  0  0  0  0  0  0
   19.4470  -30.9250   38.4050 C   0  0  0  0  0  0  0  0  0  0  0  0
   19.1500  -31.3150   39.6970 O   0  0  0  0  0  0  0  0  0  0  0  0
   20.1790  -28.3710   40.0920 C   0  0  0  0  0  0  0  0  0  0  0  0
   20.0510  -27.2590   40.9500 C   0  0  0  0  0  0  0  0  0  0  0  0
   20.8950  -27.2340   42.2050 C   0  0  0  0  0  0  0  0  0  0  0  0
   22.3310  -27.6590   41.9320 C   0  0  0  0  0  0  0  0  0  0  0  0
   20.0537  -23.2003   41.7621 H   0  0  0  0  0  0  0  0  0  0  0  0
   20.5192  -24.1515   40.3111 H   0  0  0  0  0  0  0  0  0  0  0  0
   18.9947  -23.2014   40.3111 H   0  0  0  0  0  0  0  0  0  0  0  0
   19.2829  -25.2215   42.4947 H   0  0  0  0  0  0  0  0  0  0  0  0
   17.8502  -24.7745   41.4741 H   0  0  0  0  0  0  0  0  0  0  0  0
   17.6767  -25.5623   39.1664 H   0  0  0  0  0  0  0  0  0  0  0  0
   17.9373  -27.5286   37.6741 H   0  0  0  0  0  0  0  0  0  0  0  0
   20.3853  -28.7366   34.2269 H   0  0  0  0  0  0  0  0  0  0  0  0
   20.7093  -30.4158   32.4058 H   0  0  0  0  0  0  0  0  0  0  0  0
   20.5221  -32.8546   32.9074 H   0  0  0  0  0  0  0  0  0  0  0  0
   19.3210  -34.2350   35.7470 H   0  0  0  0  0  0  0  0  0  0  0  0
   18.9540  -30.6700   40.3480 H   0  0  0  0  0  0  0  0  0  0  0  0
   20.8936  -29.1661   40.3510 H   0  0  0  0  0  0  0  0  0  0  0  0
   20.8978  -26.2118   42.6113 H   0  0  0  0  0  0  0  0  0  0  0  0
   20.4597  -27.9449   42.9227 H   0  0  0  0  0  0  0  0  0  0  0  0
   22.8552  -27.8142   42.8865 H   0  0  0  0  0  0  0  0  0  0  0  0
   22.3328  -28.5962   41.3561 H   0  0  0  0  0  0  0  0  0  0  0  0
   22.8426  -26.8738   41.3561 H   0  0  0  0  0  0  0  0  0  0  0  0
  1  2  1  0
  2  3  1  0
  3  4  2  0
  4  5  1  0
  5  6  2  0
  6  7  1  0
  7  8  1  0
  8  9  1  0
  9 10  2  0
 10 11  1  0
 11 12  2  0
 12 13  1  0
 13 14  1  0
 13 15  2  0
 15 16  1  0
 16 17  2  0
 16 18  1  0
 18 19  1  0
  6 20  1  0
 20 21  2  0
 21 22  1  0
 22 23  1  0
 21  3  1  0
 18  7  2  0
 15  9  1  0
  1 24  1  0
  1 25  1  0
  1 26  1  0
  2 27  1  0
  2 28  1  0
  4 29  1  0
  5 30  1  0
 10 31  1  0
 11 32  1  0
 12 33  1  0
 14 34  1  0
 19 35  1  0
 20 36  1  0
 22 37  1  0
 22 38  1  0
 23 39  1  0
 23 40  1  0
 23 41  1  0
M  END
>  <meeko>  (3) 
{"is_sidechain": [false], "free_energy": -7.215, "intermolecular_energy": -8.915, "internal_energy": -0.472}

$$$$
cand_039_out
     RDKit          3D

 41 43  0  0  0  0  0  0  0  0999 V2000
   19.6480  -25.0570   42.4300 C   0  0  0  0  0  0  0  0  0  0  0  0
   19.4590  -24.8770   40.9310 C   0  0  0  0  0  0  0  0  0  0  0  0
   19.4090  -26.2010   40.2050 C   0  0  0  0  0  0  0  0  0  0  0  0
   20.0890  -27.2920   40.7740 C   0  0  0  0  0  0  0  0  0  0  0  0
   20.0790  -28.5480   40.1620 C   0  0  0  0  0  0  0  0  0  0  0  0
   19.3940  -28.7520   38.9620 C   0  0  0  0  0  0  0  0  0  0  0  0
   19.3770  -30.0930   38.3400 C   0  0  0  0  0  0  0  0  0  0  0  0
   19.0060  -31.0950   39.2290 O   0  0  0  0  0  0  0  0  0  0  0  0
   18.9490  -32.3910   38.7830 C   0  0  0  0  0  0  0  0  0  0  0  0
   18.5560  -33.3620   39.7040 C   0  0  0  0  0  0  0  0  0  0  0  0
   18.4800  -34.7010   39.3150 C   0  0  0  0  0  0  0  0  0  0  0  0
   18.7950  -35.0690   38.0050 C   0  0  0  0  0  0  0  0  0  0  0  0
   19.1870  -34.0980   37.0880 C   0  0  0  0  0  0  0  0  0  0  0  0
   19.4810  -34.5260   35.8230 O   0  0  0  0  0  0  0  0  0  0  0  0
   19.2620  -32.7570   37.4770 C   0  0  0  0  0  0  0  0  0  0  0  0
   19.6690  -31.7050   36.5450 C   0  0  0  0  0  0  0  0  0  0  0  0
   19.9690  -31.9510   35.3780 O   0  0  0  0  0  0  0  0  0  0  0  0
   19.7100  -30.3150   37.0550 C   0  0  0  0  0  0  0  0  0  0  0  0
   20.1080  -29.3320   36.1690 O   0  0  0  0  0  0  0  0  0  0  0  0
   18.7000  -27.6690   38.4030 C   0  0  0  0  0  0  0  0  0  0  0  0
   18.6920  -26.3960   39.0080 C   0  0  0  0  0  0  0  0  0  0  0  0
   17.9340  -25.2870   38.3120 C   0  0  0  0  0  0  0  0  0  0  0  0
   18.7030  -24.7340   37.1210 C   0  0  0  0  0  0  0  0  0  0  0  0
   18.9537  -24.3957   42.9691 H   0  0  0  0  0  0  0  0  0  0  0  0
   19.4441  -26.1031   42.7023 H   0  0  0  0  0  0  0  0  0  0  0  0
   20.6829  -24.8023   42.7023 H   0  0  0  0  0  0  0  0  0  0  0  0
   18.5162  -24.3387   40.7538 H   0  0  0  0  0  0  0  0  0  0  0  0
   20.3189  -24.3097   40.5453 H   0  0  0  0  0  0  0  0  0  0  0  0
   20.6383  -27.1545   41.7171 H   0  0  0  0  0  0  0  0  0  0  0  0
   20.6166  -29.3855   40.6305 H   0  0  0  0  0  0  0  0  0  0  0  0
   18.3062  -33.0733   40.7356 H   0  0  0  0  0  0  0  0  0  0  0  0
   18.1715  -35.4672   40.0415 H   0  0  0  0  0  0  0  0  0  0  0  0
   18.7334  -36.1237   37.6987 H   0  0  0  0  0  0  0  0  0  0  0  0
   20.3740  -34.5830   35.5430 H   0  0  0  0  0  0  0  0  0  0  0  0
   19.7720  -28.4610   36.2530 H   0  0  0  0  0  0  0  0  0  0  0  0
   18.1455  -27.8175   37.4646 H   0  0  0  0  0  0  0  0  0  0  0  0
   16.9696  -25.6820   37.9601 H   0  0  0  0  0  0  0  0  0  0  0  0
   17.7885  -24.4691   39.0331 H   0  0  0  0  0  0  0  0  0  0  0  0
   19.5473  -24.1269   37.4796 H   0  0  0  0  0  0  0  0  0  0  0  0
   19.0832  -25.5669   36.5113 H   0  0  0  0  0  0  0  0  0  0  0  0
   18.0344  -24.1085   36.5113 H   0  0  0  0  0  0  0  0  0  0  0  0
  1  2  1  0
  2  3  1  0
  3  4  2  0
  4  5  1  0
  5  6  2  0
  6  7  1  0
  7  8  1  0
  8  9  1  0
  9 10  2  0
 10 11  1  0
 11 12  2  0
 12 13  1  0
 13 14  1  0
 13 15  2  0
 15 16  1  0
 16 17  2  0
 16 18  1  0
 18 19  1  0
  6 20  1  0
 20 21  2  0
 21 22  1  0
 22 23  1  0
 21  3  1  0
 18  7  2  0
 15  9  1  0
  1 24  1  0
  1 25  1  0
  1 26  1  0
  2 27  1  0
  2 28  1  0
  4 29  1  0
  5 30  1  0
 10 31  1  0
 11 32  1  0
 12 33  1  0
 14 34  1  0
 19 35  1  0
 20 36  1  0
 22 37  1  0
 22 38  1  0
 23 39  1  0
 23 40  1  0
 23 41  1  0
M  END
>  <meeko>  (4) 
{"is_sidechain": [false], "free_energy": -7.213, "intermolecular_energy": -8.96, "internal_energy": -0.423}

$$$$
cand_039_out
     RDKit          3D

 41 43  0  0  0  0  0  0  0  0999 V2000
   19.9950  -34.5510   34.0350 C   0  0  0  0  0  0  0  0  0  0  0  0
   19.6110  -34.5640   35.5070 C   0  0  0  0  0  0  0  0  0  0  0  0
   19.6230  -33.1760   36.1060 C   0  0  0  0  0  0  0  0  0  0  0  0
   20.0160  -32.1060   35.2840 C   0  0  0  0  0  0  0  0  0  0  0  0
   20.0430  -30.7960   35.7680 C   0  0  0  0  0  0  0  0  0  0  0  0
   19.6840  -30.5150   37.0890 C   0  0  0  0  0  0  0  0  0  0  0  0
   19.6990  -29.1200   37.5780 C   0  0  0  0  0  0  0  0  0  0  0  0
   20.0270  -29.0230   38.9250 O   0  0  0  0  0  0  0  0  0  0  0  0
   20.0780  -27.7830   39.5080 C   0  0  0  0  0  0  0  0  0  0  0  0
   20.4270  -27.7310   40.8580 C   0  0  0  0  0  0  0  0  0  0  0  0
   20.4940  -26.4990   41.5130 C   0  0  0  0  0  0  0  0  0  0  0  0
   20.2130  -25.3210   40.8190 C   0  0  0  0  0  0  0  0  0  0  0  0
   19.8650  -25.3750   39.4720 C   0  0  0  0  0  0  0  0  0  0  0  0
   19.6020  -24.1840   38.8530 O   0  0  0  0  0  0  0  0  0  0  0  0
   19.7980  -26.6080   38.8160 C   0  0  0  0  0  0  0  0  0  0  0  0
   19.4360  -26.7100   37.4020 C   0  0  0  0  0  0  0  0  0  0  0  0
   19.1680  -25.7190   36.7260 O   0  0  0  0  0  0  0  0  0  0  0  0
   19.4020  -28.0620   36.7990 C   0  0  0  0  0  0  0  0  0  0  0  0
   19.0460  -28.1480   35.4660 O   0  0  0  0  0  0  0  0  0  0  0  0
   19.2750  -31.5790   37.9050 C   0  0  0  0  0  0  0  0  0  0  0  0
   19.2350  -32.9080   37.4330 C   0  0  0  0  0  0  0  0  0  0  0  0
   18.8030  -33.9880   38.4000 C   0  0  0  0  0  0  0  0  0  0  0  0
   18.5900  -33.4410   39.8040 C   0  0  0  0  0  0  0  0  0  0  0  0
   21.0904  -34.5139   33.9421 H   0  0  0  0  0  0  0  0  0  0  0  0
   19.6165  -35.4625   33.5493 H   0  0  0  0  0  0  0  0  0  0  0  0
   19.5557  -33.6672   33.5493 H   0  0  0  0  0  0  0  0  0  0  0  0
   18.5999  -34.9855   35.6069 H   0  0  0  0  0  0  0  0  0  0  0  0
   20.3505  -35.1740   36.0464 H   0  0  0  0  0  0  0  0  0  0  0  0
   20.3073  -32.3035   34.2418 H   0  0  0  0  0  0  0  0  0  0  0  0
   20.3503  -29.9764   35.1019 H   0  0  0  0  0  0  0  0  0  0  0  0
   20.6490  -28.6588   41.4057 H   0  0  0  0  0  0  0  0  0  0  0  0
   20.7686  -26.4571   42.5773 H   0  0  0  0  0  0  0  0  0  0  0  0
   20.2664  -24.3513   41.3356 H   0  0  0  0  0  0  0  0  0  0  0  0
   18.9540  -23.6060   39.2060 H   0  0  0  0  0  0  0  0  0  0  0  0
   19.6660  -27.9240   34.8000 H   0  0  0  0  0  0  0  0  0  0  0  0
   18.9766  -31.3717   38.9433 H   0  0  0  0  0  0  0  0  0  0  0  0
   17.8603  -34.4284   38.0432 H   0  0  0  0  0  0  0  0  0  0  0  0
   19.6013  -34.7433   38.4461 H   0  0  0  0  0  0  0  0  0  0  0  0
   18.8859  -34.2008   40.5423 H   0  0  0  0  0  0  0  0  0  0  0  0
   19.2020  -32.5375   39.9423 H   0  0  0  0  0  0  0  0  0  0  0  0
   17.5282  -33.1893   39.9423 H   0  0  0  0  0  0  0  0  0  0  0  0
  1  2  1  0
  2  3  1  0
  3  4  2  0
  4  5  1  0
  5  6  2  0
  6  7  1  0
  7  8  1  0
  8  9  1  0
  9 10  2  0
 10 11  1  0
 11 12  2  0
 12 13  1  0
 13 14  1  0
 13 15  2  0
 15 16  1  0
 16 17  2  0
 16 18  1  0
 18 19  1  0
  6 20  1  0
 20 21  2  0
 21 22  1  0
 22 23  1  0
 21  3  1  0
 18  7  2  0
 15  9  1  0
  1 24  1  0
  1 25  1  0
  1 26  1  0
  2 27  1  0
  2 28  1  0
  4 29  1  0
  5 30  1  0
 10 31  1  0
 11 32  1  0
 12 33  1  0
 14 34  1  0
 19 35  1  0
 20 36  1  0
 22 37  1  0
 22 38  1  0
 23 39  1  0
 23 40  1  0
 23 41  1  0
M  END
>  <meeko>  (5) 
{"is_sidechain": [false], "free_energy": -7.092, "intermolecular_energy": -9.104, "internal_energy": -0.131}

$$$$
cand_039_out
     RDKit          3D

 41 43  0  0  0  0  0  0  0  0999 V2000
   18.7430  -27.5770   35.2850 C   0  0  0  0  0  0  0  0  0  0  0  0
   17.9170  -27.2210   36.5120 C   0  0  0  0  0  0  0  0  0  0  0  0
   18.7620  -27.1580   37.7630 C   0  0  0  0  0  0  0  0  0  0  0  0
   18.9200  -28.3360   38.5140 C   0  0  0  0  0  0  0  0  0  0  0  0
   19.6940  -28.3530   39.6770 C   0  0  0  0  0  0  0  0  0  0  0  0
   20.3300  -27.1940   40.1280 C   0  0  0  0  0  0  0  0  0  0  0  0
   21.1630  -27.2360   41.3490 C   0  0  0  0  0  0  0  0  0  0  0  0
   22.1320  -28.2310   41.3060 O   0  0  0  0  0  0  0  0  0  0  0  0
   22.9760  -28.3820   42.3770 C   0  0  0  0  0  0  0  0  0  0  0  0
   23.9440  -29.3820   42.2850 C   0  0  0  0  0  0  0  0  0  0  0  0
   24.8340  -29.5890   43.3420 C   0  0  0  0  0  0  0  0  0  0  0  0
   24.7550  -28.7980   44.4900 C   0  0  0  0  0  0  0  0  0  0  0  0
   23.7870  -27.8010   44.5790 C   0  0  0  0  0  0  0  0  0  0  0  0
   23.7650  -27.0620   45.7300 O   0  0  0  0  0  0  0  0  0  0  0  0
   22.8980  -27.5920   43.5210 C   0  0  0  0  0  0  0  0  0  0  0  0
   21.8660  -26.5560   43.5740 C   0  0  0  0  0  0  0  0  0  0  0  0
   21.7290  -25.8240   44.5520 O   0  0  0  0  0  0  0  0  0  0  0  0
   20.9790  -26.4110   42.3960 C   0  0  0  0  0  0  0  0  0  0  0  0
   20.0000  -25.4380   42.4630 O   0  0  0  0  0  0  0  0  0  0  0  0
   20.1890  -26.0220   39.3700 C   0  0  0  0  0  0  0  0  0  0  0  0
   19.4170  -25.9860   38.1910 C   0  0  0  0  0  0  0  0  0  0  0  0
   19.3060  -24.6670   37.4590 C   0  0  0  0  0  0  0  0  0  0  0  0
   19.2960  -23.4850   38.4170 C   0  0  0  0  0  0  0  0  0  0  0  0
   19.7102  -27.9939   35.6024 H   0  0  0  0  0  0  0  0  0  0  0  0
   18.2025  -28.3221   34.6827 H   0  0  0  0  0  0  0  0  0  0  0  0
   18.9135  -26.6725   34.6827 H   0  0  0  0  0  0  0  0  0  0  0  0
   17.4465  -26.2398   36.3512 H   0  0  0  0  0  0  0  0  0  0  0  0
   17.1598  -28.0065   36.6521 H   0  0  0  0  0  0  0  0  0  0  0  0
   18.4257  -29.2602   38.1801 H   0  0  0  0  0  0  0  0  0  0  0  0
   19.8038  -29.2894   40.2437 H   0  0  0  0  0  0  0  0  0  0  0  0
   24.0066  -30.0067   41.3817 H   0  0  0  0  0  0  0  0  0  0  0  0
   25.5984  -30.3767   43.2697 H   0  0  0  0  0  0  0  0  0  0  0  0
   25.4557  -28.9621   45.3219 H   0  0  0  0  0  0  0  0  0  0  0  0
   24.2820  -27.3260   46.4660 H   0  0  0  0  0  0  0  0  0  0  0  0
   19.3720  -25.3560   41.7720 H   0  0  0  0  0  0  0  0  0  0  0  0
   20.6953  -25.1048   39.7052 H   0  0  0  0  0  0  0  0  0  0  0  0
   20.1636  -24.5652   36.7777 H   0  0  0  0  0  0  0  0  0  0  0  0
   18.3561  -24.6641   36.9044 H   0  0  0  0  0  0  0  0  0  0  0  0
   19.2991  -23.8531   39.4536 H   0  0  0  0  0  0  0  0  0  0  0  0
   20.1889  -22.8661   38.2450 H   0  0  0  0  0  0  0  0  0  0  0  0
   18.3927  -22.8813   38.2450 H   0  0  0  0  0  0  0  0  0  0  0  0
  1  2  1  0
  2  3  1  0
  3  4  2  0
  4  5  1  0
  5  6  2  0
  6  7  1  0
  7  8  1  0
  8  9  1  0
  9 10  2  0
 10 11  1  0
 11 12  2  0
 12 13  1  0
 13 14  1  0
 13 15  2  0
 15 16  1  0
 16 17  2  0
 16 18  1  0
 18 19  1  0
  6 20  1  0
 20 21  2  0
 21 22  1  0
 22 23  1  0
 21  3  1  0
 18  7  2  0
 15  9  1  0
  1 24  1  0
  1 25  1  0
  1 26  1  0
  2 27  1  0
  2 28  1  0
  4 29  1  0
  5 30  1  0
 10 31  1  0
 11 32  1  0
 12 33  1  0
 14 34  1  0
 19 35  1  0
 20 36  1  0
 22 37  1  0
 22 38  1  0
 23 39  1  0
 23 40  1  0
 23 41  1  0
M  END
>  <meeko>  (6) 
{"is_sidechain": [false], "free_energy": -7.051, "intermolecular_energy": -8.738, "internal_energy": -0.446}

$$$$
cand_039_out
     RDKit          3D

 41 43  0  0  0  0  0  0  0  0999 V2000
   25.3120  -30.0000   43.9880 C   0  0  0  0  0  0  0  0  0  0  0  0
   24.6340  -28.7700   44.5750 C   0  0  0  0  0  0  0  0  0  0  0  0
   23.6010  -28.1920   43.6360 C   0  0  0  0  0  0  0  0  0  0  0  0
   23.5300  -28.7120   42.3320 C   0  0  0  0  0  0  0  0  0  0  0  0
   22.5940  -28.2310   41.4130 C   0  0  0  0  0  0  0  0  0  0  0  0
   21.7040  -27.2140   41.7670 C   0  0  0  0  0  0  0  0  0  0  0  0
   20.7070  -26.7320   40.7870 C   0  0  0  0  0  0  0  0  0  0  0  0
   20.5950  -25.3470   40.7670 O   0  0  0  0  0  0  0  0  0  0  0  0
   19.7040  -24.7650   39.9020 C   0  0  0  0  0  0  0  0  0  0  0  0
   19.6360  -23.3720   39.9040 C   0  0  0  0  0  0  0  0  0  0  0  0
   18.7470  -22.7160   39.0490 C   0  0  0  0  0  0  0  0  0  0  0  0
   17.9270  -23.4540   38.1930 C   0  0  0  0  0  0  0  0  0  0  0  0
   17.9960  -24.8440   38.1930 C   0  0  0  0  0  0  0  0  0  0  0  0
   17.1660  -25.5050   37.3310 O   0  0  0  0  0  0  0  0  0  0  0  0
   18.8870  -25.5000   39.0490 C   0  0  0  0  0  0  0  0  0  0  0  0
   18.9910  -26.9590   39.0810 C   0  0  0  0  0  0  0  0  0  0  0  0
   18.2980  -27.6770   38.3630 O   0  0  0  0  0  0  0  0  0  0  0  0
   19.9720  -27.5560   40.0170 C   0  0  0  0  0  0  0  0  0  0  0  0
   20.0520  -28.9350   40.0490 O   0  0  0  0  0  0  0  0  0  0  0  0
   21.7620  -26.7070   43.0730 C   0  0  0  0  0  0  0  0  0  0  0  0
   22.6950  -27.1830   44.0170 C   0  0  0  0  0  0  0  0  0  0  0  0
   22.6940  -26.5540   45.3920 C   0  0  0  0  0  0  0  0  0  0  0  0
   21.9850  -25.2070   45.3990 C   0  0  0  0  0  0  0  0  0  0  0  0
   25.6684  -30.6465   44.8035 H   0  0  0  0  0  0  0  0  0  0  0  0
   24.5922  -30.5547   43.3682 H   0  0  0  0  0  0  0  0  0  0  0  0
   26.1653  -29.6876   43.3682 H   0  0  0  0  0  0  0  0  0  0  0  0
   24.1401  -29.0519   45.5166 H   0  0  0  0  0  0  0  0  0  0  0  0
   25.4056  -28.0046   44.7446 H   0  0  0  0  0  0  0  0  0  0  0  0
   24.2230  -29.5111   42.0300 H   0  0  0  0  0  0  0  0  0  0  0  0
   22.5574  -28.6577   40.3998 H   0  0  0  0  0  0  0  0  0  0  0  0
   20.2818  -22.7903   40.5782 H   0  0  0  0  0  0  0  0  0  0  0  0
   18.6929  -21.6173   39.0501 H   0  0  0  0  0  0  0  0  0  0  0  0
   17.2274  -22.9374   37.5195 H   0  0  0  0  0  0  0  0  0  0  0  0
   16.5250  -26.1030   37.6620 H   0  0  0  0  0  0  0  0  0  0  0  0
   19.4100  -29.4520   39.6040 H   0  0  0  0  0  0  0  0  0  0  0  0
   21.0590  -25.9147   43.3698 H   0  0  0  0  0  0  0  0  0  0  0  0
   22.1807  -27.2298   46.0919 H   0  0  0  0  0  0  0  0  0  0  0  0
   23.7393  -26.3908   45.6932 H   0  0  0  0  0  0  0  0  0  0  0  0
   21.8164  -24.8868   46.4378 H   0  0  0  0  0  0  0  0  0  0  0  0
   22.6079  -24.4621   44.8821 H   0  0  0  0  0  0  0  0  0  0  0  0
   21.0183  -25.2988   44.8821 H   0  0  0  0  0  0  0  0  0  0  0  0
  1  2  1  0
  2  3  1  0
  3  4  2  0
  4  5  1  0
  5  6  2  0
  6  7  1  0
  7  8  1  0
  8  9  1  0
  9 10  2  0
 10 11  1  0
 11 12  2  0
 12 13  1  0
 13 14  1  0
 13 15  2  0
 15 16  1  0
 16 17  2  0
 16 18  1  0
 18 19  1  0
  6 20  1  0
 20 21  2  0
 21 22  1  0
 22 23  1  0
 21  3  1  0
 18  7  2  0
 15  9  1  0
  1 24  1  0
  1 25  1  0
  1 26  1  0
  2 27  1  0
  2 28  1  0
  4 29  1  0
  5 30  1  0
 10 31  1  0
 11 32  1  0
 12 33  1  0
 14 34  1  0
 19 35  1  0
 20 36  1  0
 22 37  1  0
 22 38  1  0
 23 39  1  0
 23 40  1  0
 23 41  1  0
M  END
>  <meeko>  (7) 
{"is_sidechain": [false], "free_energy": -6.955, "intermolecular_energy": -8.795, "internal_energy": -0.27}

$$$$
cand_039_out
     RDKit          3D

 41 43  0  0  0  0  0  0  0  0999 V2000
   19.3720  -23.7010   43.7290 C   0  0  0  0  0  0  0  0  0  0  0  0
   19.9270  -25.1160   43.8060 C   0  0  0  0  0  0  0  0  0  0  0  0
   19.9240  -25.7970   42.4570 C   0  0  0  0  0  0  0  0  0  0  0  0
   19.0340  -25.3220   41.4780 C   0  0  0  0  0  0  0  0  0  0  0  0
   18.9830  -25.8980   40.2070 C   0  0  0  0  0  0  0  0  0  0  0  0
   19.8160  -26.9690   39.8750 C   0  0  0  0  0  0  0  0  0  0  0  0
   19.7630  -27.5520   38.5170 C   0  0  0  0  0  0  0  0  0  0  0  0
   19.9210  -28.9330   38.5170 O   0  0  0  0  0  0  0  0  0  0  0  0
   19.8920  -29.6040   37.3200 C   0  0  0  0  0  0  0  0  0  0  0  0
   20.0380  -30.9900   37.3680 C   0  0  0  0  0  0  0  0  0  0  0  0
   20.0200  -31.7340   36.1850 C   0  0  0  0  0  0  0  0  0  0  0  0
   19.8560  -31.0900   34.9560 C   0  0  0  0  0  0  0  0  0  0  0  0
   19.7110  -29.7070   34.9120 C   0  0  0  0  0  0  0  0  0  0  0  0
   19.5540  -29.1410   33.6770 O   0  0  0  0  0  0  0  0  0  0  0  0
   19.7270  -28.9630   36.0960 C   0  0  0  0  0  0  0  0  0  0  0  0
   19.5780  -27.5080   36.0940 C   0  0  0  0  0  0  0  0  0  0  0  0
   19.4370  -26.8690   35.0530 O   0  0  0  0  0  0  0  0  0  0  0  0
   19.6020  -26.8140   37.4030 C   0  0  0  0  0  0  0  0  0  0  0  0
   19.4730  -25.4380   37.3880 O   0  0  0  0  0  0  0  0  0  0  0  0
   20.7170  -27.4330   40.8440 C   0  0  0  0  0  0  0  0  0  0  0  0
   20.7880  -26.8610   42.1300 C   0  0  0  0  0  0  0  0  0  0  0  0
   21.7770  -27.4490   43.1120 C   0  0  0  0  0  0  0  0  0  0  0  0
   23.0920  -27.8200   42.4400 C   0  0  0  0  0  0  0  0  0  0  0  0
   19.2191  -23.3112   44.7462 H   0  0  0  0  0  0  0  0  0  0  0  0
   20.0840  -23.0566   43.1926 H   0  0  0  0  0  0  0  0  0  0  0  0
   18.4117  -23.7125   43.1926 H   0  0  0  0  0  0  0  0  0  0  0  0
   20.9605  -25.0727   44.1801 H   0  0  0  0  0  0  0  0  0  0  0  0
   19.2841  -25.6978   44.4829 H   0  0  0  0  0  0  0  0  0  0  0  0
   18.3659  -24.4816   41.7174 H   0  0  0  0  0  0  0  0  0  0  0  0
   18.2792  -25.5041   39.4591 H   0  0  0  0  0  0  0  0  0  0  0  0
   20.1672  -31.4970   38.3356 H   0  0  0  0  0  0  0  0  0  0  0  0
   20.1350  -32.8274   36.2215 H   0  0  0  0  0  0  0  0  0  0  0  0
   19.8416  -31.6754   34.0248 H   0  0  0  0  0  0  0  0  0  0  0  0
   19.1030  -28.3240   33.5900 H   0  0  0  0  0  0  0  0  0  0  0  0
   19.6610  -24.9580   36.6060 H   0  0  0  0  0  0  0  0  0  0  0  0
   21.3879  -28.2678   40.5931 H   0  0  0  0  0  0  0  0  0  0  0  0
   21.9772  -26.7093   43.9011 H   0  0  0  0  0  0  0  0  0  0  0  0
   21.3374  -28.3663   43.5307 H   0  0  0  0  0  0  0  0  0  0  0  0
   23.8492  -28.0336   43.2088 H   0  0  0  0  0  0  0  0  0  0  0  0
   22.9445  -28.7116   41.8129 H   0  0  0  0  0  0  0  0  0  0  0  0
   23.4323  -26.9828   41.8129 H   0  0  0  0  0  0  0  0  0  0  0  0
  1  2  1  0
  2  3  1  0
  3  4  2  0
  4  5  1  0
  5  6  2  0
  6  7  1  0
  7  8  1  0
  8  9  1  0
  9 10  2  0
 10 11  1  0
 11 12  2  0
 12 13  1  0
 13 14  1  0
 13 15  2  0
 15 16  1  0
 16 17  2  0
 16 18  1  0
 18 19  1  0
  6 20  1  0
 20 21  2  0
 21 22  1  0
 22 23  1  0
 21  3  1  0
 18  7  2  0
 15  9  1  0
  1 24  1  0
  1 25  1  0
  1 26  1  0
  2 27  1  0
  2 28  1  0
  4 29  1  0
  5 30  1  0
 10 31  1  0
 11 32  1  0
 12 33  1  0
 14 34  1  0
 19 35  1  0
 20 36  1  0
 22 37  1  0
 22 38  1  0
 23 39  1  0
 23 40  1  0
 23 41  1  0
M  END
>  <meeko>  (8) 
{"is_sidechain": [false], "free_energy": -6.908, "intermolecular_energy": -8.811, "internal_energy": -0.197}

$$$$
cand_039_out
     RDKit          3D

 41 43  0  0  0  0  0  0  0  0999 V2000
   18.4950  -34.6030   39.1830 C   0  0  0  0  0  0  0  0  0  0  0  0
   19.1890  -34.0240   37.9580 C   0  0  0  0  0  0  0  0  0  0  0  0
   19.2450  -32.5140   38.0030 C   0  0  0  0  0  0  0  0  0  0  0  0
   18.9080  -31.8760   39.2090 C   0  0  0  0  0  0  0  0  0  0  0  0
   18.9460  -30.4850   39.3250 C   0  0  0  0  0  0  0  0  0  0  0  0
   19.3180  -29.6880   38.2380 C   0  0  0  0  0  0  0  0  0  0  0  0
   19.3720  -28.2170   38.3860 C   0  0  0  0  0  0  0  0  0  0  0  0
   18.6710  -27.5480   37.3900 O   0  0  0  0  0  0  0  0  0  0  0  0
   18.6390  -26.1770   37.4070 C   0  0  0  0  0  0  0  0  0  0  0  0
   17.9100  -25.5480   36.3980 C   0  0  0  0  0  0  0  0  0  0  0  0
   17.8400  -24.1530   36.3560 C   0  0  0  0  0  0  0  0  0  0  0  0
   18.4980  -23.3900   37.3230 C   0  0  0  0  0  0  0  0  0  0  0  0
   19.2250  -24.0200   38.3280 C   0  0  0  0  0  0  0  0  0  0  0  0
   19.8440  -23.2130   39.2420 O   0  0  0  0  0  0  0  0  0  0  0  0
   19.2940  -25.4160   38.3710 C   0  0  0  0  0  0  0  0  0  0  0  0
   20.0470  -26.1190   39.4100 C   0  0  0  0  0  0  0  0  0  0  0  0
   20.6590  -25.5160   40.2900 O   0  0  0  0  0  0  0  0  0  0  0  0
   20.0520  -27.6000   39.3700 C   0  0  0  0  0  0  0  0  0  0  0  0
   20.7770  -28.2520   40.3490 O   0  0  0  0  0  0  0  0  0  0  0  0
   19.6710  -30.3240   37.0400 C   0  0  0  0  0  0  0  0  0  0  0  0
   19.6450  -31.7270   36.9050 C   0  0  0  0  0  0  0  0  0  0  0  0
   20.0210  -32.3150   35.5630 C   0  0  0  0  0  0  0  0  0  0  0  0
   20.4830  -31.2450   34.5840 C   0  0  0  0  0  0  0  0  0  0  0  0
   18.9686  -34.2078   40.0938 H   0  0  0  0  0  0  0  0  0  0  0  0
   17.4321  -34.3201   39.1702 H   0  0  0  0  0  0  0  0  0  0  0  0
   18.5828  -35.6994   39.1702 H   0  0  0  0  0  0  0  0  0  0  0  0
   20.2155  -34.4167   37.9119 H   0  0  0  0  0  0  0  0  0  0  0  0
   18.6119  -34.3174   37.0687 H   0  0  0  0  0  0  0  0  0  0  0  0
   18.6092  -32.4828   40.0764 H   0  0  0  0  0  0  0  0  0  0  0  0
   18.6805  -30.0112   40.2816 H   0  0  0  0  0  0  0  0  0  0  0  0
   17.3911  -26.1489   35.6367 H   0  0  0  0  0  0  0  0  0  0  0  0
   17.2660  -23.6554   35.5604 H   0  0  0  0  0  0  0  0  0  0  0  0
   18.4415  -22.2919   37.2901 H   0  0  0  0  0  0  0  0  0  0  0  0
   19.3360  -22.6390   39.7800 H   0  0  0  0  0  0  0  0  0  0  0  0
   21.3920  -27.7770   40.8730 H   0  0  0  0  0  0  0  0  0  0  0  0
   19.9773  -29.7105   36.1799 H   0  0  0  0  0  0  0  0  0  0  0  0
   20.8355  -33.0399   35.7080 H   0  0  0  0  0  0  0  0  0  0  0  0
   19.1285  -32.8005   35.1413 H   0  0  0  0  0  0  0  0  0  0  0  0
   20.8587  -30.3748   35.1423 H   0  0  0  0  0  0  0  0  0  0  0  0
   21.2866  -31.6495   33.9511 H   0  0  0  0  0  0  0  0  0  0  0  0
   19.6375  -30.9374   33.9511 H   0  0  0  0  0  0  0  0  0  0  0  0
  1  2  1  0
  2  3  1  0
  3  4  2  0
  4  5  1  0
  5  6  2  0
  6  7  1  0
  7  8  1  0
  8  9  1  0
  9 10  2  0
 10 11  1  0
 11 12  2  0
 12 13  1  0
 13 14  1  0
 13 15  2  0
 15 16  1  0
 16 17  2  0
 16 18  1  0
 18 19  1  0
  6 20  1  0
 20 21  2  0
 21 22  1  0
 22 23  1  0
 21  3  1  0
 18  7  2  0
 15  9  1  0
  1 24  1  0
  1 25  1  0
  1 26  1  0
  2 27  1  0
  2 28  1  0
  4 29  1  0
  5 30  1  0
 10 31  1  0
 11 32  1  0
 12 33  1  0
 14 34  1  0
 19 35  1  0
 20 36  1  0
 22 37  1  0
 22 38  1  0
 23 39  1  0
 23 40  1  0
 23 41  1  0
M  END
>  <meeko>  (9) 
{"is_sidechain": [false], "free_energy": -6.841, "intermolecular_energy": -8.567, "internal_energy": -0.358}

$$$$
