cand_007_out
     RDKit          3D

 35 37  0  0  0  0  0  0  0  0999 V2000
   17.4960  -25.7300   39.4910 O   0  0  0  0  0  0  0  0  0  0  0  0
   18.2820  -26.6410   39.7430 C   0  0  0  0  0  0  0  0  0  0  0  0
   18.2720  -27.8840   38.9360 C   0  0  0  0  0  0  0  0  0  0  0  0
   17.3390  -27.9660   37.9180 O   0  0  0  0  0  0  0  0  0  0  0  0
   19.1470  -28.8580   39.2460 C   0  0  0  0  0  0  0  0  0  0  0  0
   19.2190  -30.1440   38.5210 C   0  0  0  0  0  0  0  0  0  0  0  0
   19.7920  -30.2410   37.2490 C   0  0  0  0  0  0  0  0  0  0  0  0
   19.8660  -31.4720   36.5910 C   0  0  0  0  0  0  0  0  0  0  0  0
   19.3750  -32.6430   37.1910 C   0  0  0  0  0  0  0  0  0  0  0  0
   19.4710  -33.9600   36.4520 C   0  0  0  0  0  0  0  0  0  0  0  0
   20.1340  -34.9070   37.1720 F   0  0  0  0  0  0  0  0  0  0  0  0
   18.2480  -34.4920   36.1760 F   0  0  0  0  0  0  0  0  0  0  0  0
   20.1190  -33.8770   35.2580 F   0  0  0  0  0  0  0  0  0  0  0  0
   18.8070  -32.5640   38.4820 C   0  0  0  0  0  0  0  0  0  0  0  0
   18.2600  -33.7870   39.1810 C   0  0  0  0  0  0  0  0  0  0  0  0
   18.6520  -33.8850   40.4830 F   0  0  0  0  0  0  0  0  0  0  0  0
   18.7380  -31.3140   39.1270 C   0  0  0  0  0  0  0  0  0  0  0  0
   20.0630  -28.7740   40.2900 O   0  0  0  0  0  0  0  0  0  0  0  0
   20.0990  -27.6330   41.0500 C   0  0  0  0  0  0  0  0  0  0  0  0
   21.0380  -27.5890   42.0810 C   0  0  0  0  0  0  0  0  0  0  0  0
   21.1280  -26.4560   42.8930 C   0  0  0  0  0  0  0  0  0  0  0  0
   20.2790  -25.3700   42.6760 C   0  0  0  0  0  0  0  0  0  0  0  0
   19.3420  -25.4170   41.6460 C   0  0  0  0  0  0  0  0  0  0  0  0
   18.5420  -24.3180   41.4890 O   0  0  0  0  0  0  0  0  0  0  0  0
   19.2530  -26.5500   40.8330 C   0  0  0  0  0  0  0  0  0  0  0  0
   17.3990  -28.6520   37.2820 H   0  0  0  0  0  0  0  0  0  0  0  0
   20.1888  -29.3386   36.7609 H   0  0  0  0  0  0  0  0  0  0  0  0
   20.3155  -31.5243   35.5884 H   0  0  0  0  0  0  0  0  0  0  0  0
   17.1613  -33.7449   39.1495 H   0  0  0  0  0  0  0  0  0  0  0  0
   18.6566  -34.6676   38.6544 H   0  0  0  0  0  0  0  0  0  0  0  0
   18.2954  -31.2536   40.1322 H   0  0  0  0  0  0  0  0  0  0  0  0
   21.7064  -28.4453   42.2541 H   0  0  0  0  0  0  0  0  0  0  0  0
   21.8693  -26.4198   43.7048 H   0  0  0  0  0  0  0  0  0  0  0  0
   20.3494  -24.4787   43.3168 H   0  0  0  0  0  0  0  0  0  0  0  0
   17.7610  -24.3770   40.9770 H   0  0  0  0  0  0  0  0  0  0  0  0
  1  2  2  0
  2  3  1  0
  3  4  1  0
  3  5  2  0
  5  6  1  0
  6  7  2  0
  7  8  1  0
  8  9  2  0
  9 10  1  0
 10 11  1  0
 10 12  1  0
 10 13  1  0
  9 14  1  0
 14 15  1  0
 15 16  1  0
 14 17  2  0
  5 18  1  0
 18 19  1  0
 19 20  2  0
 20 21  1  0
 21 22  2  0
 22 23  1  0
 23 24  1  0
 23 25  2  0
 25  2  1  0
 17  6  1  0
 25 19  1  0
  4 26  1  0
  7 27  1  0
  8 28  1  0
 15 29  1  0
 15 30  1  0
 17 31  1  0
 20 32  1  0
 21 33  1  0
 22 34  1  0
 24 35  1  0
M  END
>  <meeko>  (1) 
{"is_sidechain": [false], "free_energy": -8.001, "intermolecular_energy": -9.872, "internal_energy": -0.377}

$$$$
cand_007_out
     RDKit          3D

 35 37  0  0  0  0  0  0  0  0999 V2000
   20.0180  -32.3990   35.3030 O   0  0  0  0  0  0  0  0  0  0  0  0
   19.6850  -32.1010   36.4480 C   0  0  0  0  0  0  0  0  0  0  0  0
   19.7080  -30.6880   36.8910 C   0  0  0  0  0  0  0  0  0  0  0  0
   20.1290  -29.7460   35.9710 O   0  0  0  0  0  0  0  0  0  0  0  0
   19.3380  -30.4050   38.1540 C   0  0  0  0  0  0  0  0  0  0  0  0
   19.3340  -29.0350   38.7090 C   0  0  0  0  0  0  0  0  0  0  0  0
   18.5520  -28.0170   38.1540 C   0  0  0  0  0  0  0  0  0  0  0  0
   18.5490  -26.7340   38.7080 C   0  0  0  0  0  0  0  0  0  0  0  0
   19.3250  -26.4350   39.8410 C   0  0  0  0  0  0  0  0  0  0  0  0
   19.3000  -25.0370   40.4170 C   0  0  0  0  0  0  0  0  0  0  0  0
   18.6030  -24.1680   39.6320 F   0  0  0  0  0  0  0  0  0  0  0  0
   18.7040  -24.9890   41.6410 F   0  0  0  0  0  0  0  0  0  0  0  0
   20.5330  -24.4840   40.5820 F   0  0  0  0  0  0  0  0  0  0  0  0
   20.1080  -27.4560   40.4230 C   0  0  0  0  0  0  0  0  0  0  0  0
   20.9660  -27.1980   41.6400 C   0  0  0  0  0  0  0  0  0  0  0  0
   20.2860  -27.3240   42.8160 F   0  0  0  0  0  0  0  0  0  0  0  0
   20.1010  -28.7420   39.8470 C   0  0  0  0  0  0  0  0  0  0  0  0
   18.9410  -31.3640   39.0790 O   0  0  0  0  0  0  0  0  0  0  0  0
   18.9050  -32.6800   38.6950 C   0  0  0  0  0  0  0  0  0  0  0  0
   18.4930  -33.6080   39.6530 C   0  0  0  0  0  0  0  0  0  0  0  0
   18.4330  -34.9650   39.3280 C   0  0  0  0  0  0  0  0  0  0  0  0
   18.7870  -35.3940   38.0470 C   0  0  0  0  0  0  0  0  0  0  0  0
   19.1980  -34.4660   37.0930 C   0  0  0  0  0  0  0  0  0  0  0  0
   19.5300  -34.9550   35.8600 O   0  0  0  0  0  0  0  0  0  0  0  0
   19.2570  -33.1080   37.4190 C   0  0  0  0  0  0  0  0  0  0  0  0
   20.8190  -29.9520   35.3710 H   0  0  0  0  0  0  0  0  0  0  0  0
   17.9317  -28.2288   37.2706 H   0  0  0  0  0  0  0  0  0  0  0  0
   17.9308  -25.9473   38.2510 H   0  0  0  0  0  0  0  0  0  0  0  0
   21.7984  -27.9171   41.6392 H   0  0  0  0  0  0  0  0  0  0  0  0
   21.3172  -26.1575   41.5765 H   0  0  0  0  0  0  0  0  0  0  0  0
   20.7121  -29.5361   40.3008 H   0  0  0  0  0  0  0  0  0  0  0  0
   18.2159  -33.2709   40.6627 H   0  0  0  0  0  0  0  0  0  0  0  0
   18.1066  -35.6966   40.0818 H   0  0  0  0  0  0  0  0  0  0  0  0
   18.7413  -36.4630   37.7918 H   0  0  0  0  0  0  0  0  0  0  0  0
   18.8710  -35.3310   35.3120 H   0  0  0  0  0  0  0  0  0  0  0  0
  1  2  2  0
  2  3  1  0
  3  4  1  0
  3  5  2  0
  5  6  1  0
  6  7  2  0
  7  8  1  0
  8  9  2  0
  9 10  1  0
 10 11  1  0
 10 12  1  0
 10 13  1  0
  9 14  1  0
 14 15  1  0
 15 16  1  0
 14 17  2  0
  5 18  1  0
 18 19  1  0
 19 20  2  0
 20 21  1  0
 21 22  2  0
 22 23  1  0
 23 24  1  0
 23 25  2  0
 25  2  1  0
 17  6  1  0
 25 19  1  0
  4 26  1  0
  7 27  1  0
  8 28  1  0
 15 29  1  0
 15 30  1  0
 17 31  1  0
 20 32  1  0
 21 33  1  0
 22 34  1  0
 24 35  1  0
M  END
>  <meeko>  (2) 
{"is_sidechain": [false], "free_energy": -7.962, "intermolecular_energy": -9.819, "internal_energy": -0.382}

$$$$
cand_007_out
     RDKit          3D

 35 37  0  0  0  0  0  0  0  0999 V2000
   19.1550  -25.8550   36.7120 O   0  0  0  0  0  0  0  0  0  0  0  0
   19.4130  -26.8640   37.3640 C   0  0  0  0  0  0  0  0  0  0  0  0
   19.3830  -28.1990   36.7220 C   0  0  0  0  0  0  0  0  0  0  0  0
   19.0420  -28.2470   35.3830 O   0  0  0  0  0  0  0  0  0  0  0  0
   19.6700  -29.2790   37.4720 C   0  0  0  0  0  0  0  0  0  0  0  0
   19.6580  -30.6600   36.9430 C   0  0  0  0  0  0  0  0  0  0  0  0
   20.0460  -30.9490   35.6310 C   0  0  0  0  0  0  0  0  0  0  0  0
   20.0460  -32.2640   35.1590 C   0  0  0  0  0  0  0  0  0  0  0  0
   19.6640  -33.3300   35.9910 C   0  0  0  0  0  0  0  0  0  0  0  0
   19.6760  -34.7430   35.4500 C   0  0  0  0  0  0  0  0  0  0  0  0
   20.7250  -35.4680   35.9260 F   0  0  0  0  0  0  0  0  0  0  0  0
   18.5570  -35.4400   35.7920 F   0  0  0  0  0  0  0  0  0  0  0  0
   19.7580  -34.8140   34.0920 F   0  0  0  0  0  0  0  0  0  0  0  0
   19.2850  -33.0560   37.3230 C   0  0  0  0  0  0  0  0  0  0  0  0
   18.8610  -34.1580   38.2670 C   0  0  0  0  0  0  0  0  0  0  0  0
   19.9120  -34.8450   38.8010 F   0  0  0  0  0  0  0  0  0  0  0  0
   19.2870  -31.7230   37.7790 C   0  0  0  0  0  0  0  0  0  0  0  0
   19.9850  -29.2210   38.8250 O   0  0  0  0  0  0  0  0  0  0  0  0
   20.0260  -27.9980   39.4450 C   0  0  0  0  0  0  0  0  0  0  0  0
   20.3550  -27.9870   40.8010 C   0  0  0  0  0  0  0  0  0  0  0  0
   20.4140  -26.7750   41.4930 C   0  0  0  0  0  0  0  0  0  0  0  0
   20.1430  -25.5770   40.8300 C   0  0  0  0  0  0  0  0  0  0  0  0
   19.8140  -25.5910   39.4770 C   0  0  0  0  0  0  0  0  0  0  0  0
   19.5600  -24.3820   38.8900 O   0  0  0  0  0  0  0  0  0  0  0  0
   19.7560  -26.8040   38.7850 C   0  0  0  0  0  0  0  0  0  0  0  0
   18.8980  -27.4520   34.9070 H   0  0  0  0  0  0  0  0  0  0  0  0
   20.3548  -30.1316   34.9628 H   0  0  0  0  0  0  0  0  0  0  0  0
   20.3493  -32.4677   34.1215 H   0  0  0  0  0  0  0  0  0  0  0  0
   18.2826  -33.7106   39.0888 H   0  0  0  0  0  0  0  0  0  0  0  0
   18.2652  -34.8755   37.6837 H   0  0  0  0  0  0  0  0  0  0  0  0
   18.9901  -31.5107   38.8167 H   0  0  0  0  0  0  0  0  0  0  0  0
   20.5675  -28.9310   41.3241 H   0  0  0  0  0  0  0  0  0  0  0  0
   20.6743  -26.7647   42.5617 H   0  0  0  0  0  0  0  0  0  0  0  0
   20.1893  -24.6230   41.3756 H   0  0  0  0  0  0  0  0  0  0  0  0
   19.0740  -24.3420   38.0910 H   0  0  0  0  0  0  0  0  0  0  0  0
  1  2  2  0
  2  3  1  0
  3  4  1  0
  3  5  2  0
  5  6  1  0
  6  7  2  0
  7  8  1  0
  8  9  2  0
  9 10  1  0
 10 11  1  0
 10 12  1  0
 10 13  1  0
  9 14  1  0
 14 15  1  0
 15 16  1  0
 14 17  2  0
  5 18  1  0
 18 19  1  0
 19 20  2  0
 20 21  1  0
 21 22  2  0
 22 23  1  0
 23 24  1  0
 23 25  2  0
 25  2  1  0
 17  6  1  0
 25 19  1  0
  4 26  1  0
  7 27  1  0
  8 28  1  0
 15 29  1  0
 15 30  1  0
 17 31  1  0
 20 32  1  0
 21 33  1  0
 22 34  1  0
 24 35  1  0
M  END
>  <meeko>  (3) 
{"is_sidechain": [false], "free_energy": -7.48, "intermolecular_energy": -9.59, "internal_energy": -0.016}

$$$$
cand_007_out
     RDKit          3D

 35 37  0  0  0  0  0  0  0  0999 V2000
   17.5540  -25.7580   39.4670 O   0  0  0  0  0  0  0  0  0  0  0  0
   18.3260  -26.6750   39.7420 C   0  0  0  0  0  0  0  0  0  0  0  0
   18.3340  -27.9160   38.9330 C   0  0  0  0  0  0  0  0  0  0  0  0
   17.4340  -27.9910   37.8850 O   0  0  0  0  0  0  0  0  0  0  0  0
   19.1930  -28.8960   39.2700 C   0  0  0  0  0  0  0  0  0  0  0  0
   19.2800  -30.1820   38.5440 C   0  0  0  0  0  0  0  0  0  0  0  0
   18.9230  -31.3930   39.1460 C   0  0  0  0  0  0  0  0  0  0  0  0
   18.9940  -32.5930   38.4340 C   0  0  0  0  0  0  0  0  0  0  0  0
   19.4190  -32.6150   37.0950 C   0  0  0  0  0  0  0  0  0  0  0  0
   19.4840  -33.9310   36.3520 C   0  0  0  0  0  0  0  0  0  0  0  0
   19.9710  -34.9380   37.1290 F   0  0  0  0  0  0  0  0  0  0  0  0
   18.2600  -34.3490   35.9270 F   0  0  0  0  0  0  0  0  0  0  0  0
   20.2730  -33.9000   35.2430 F   0  0  0  0  0  0  0  0  0  0  0  0
   19.7680  -31.3980   36.4680 C   0  0  0  0  0  0  0  0  0  0  0  0
   20.2340  -31.3550   35.0320 C   0  0  0  0  0  0  0  0  0  0  0  0
   21.5630  -31.0730   34.9030 F   0  0  0  0  0  0  0  0  0  0  0  0
   19.6930  -30.1990   37.2040 C   0  0  0  0  0  0  0  0  0  0  0  0
   20.0740  -28.8200   40.3420 O   0  0  0  0  0  0  0  0  0  0  0  0
   20.0930  -27.6800   41.1050 C   0  0  0  0  0  0  0  0  0  0  0  0
   20.9990  -27.6440   42.1660 C   0  0  0  0  0  0  0  0  0  0  0  0
   21.0700  -26.5140   42.9830 C   0  0  0  0  0  0  0  0  0  0  0  0
   20.2350  -25.4220   42.7400 C   0  0  0  0  0  0  0  0  0  0  0  0
   19.3320  -25.4600   41.6810 C   0  0  0  0  0  0  0  0  0  0  0  0
   18.5440  -24.3560   41.5000 O   0  0  0  0  0  0  0  0  0  0  0  0
   19.2620  -26.5920   40.8630 C   0  0  0  0  0  0  0  0  0  0  0  0
   16.6030  -27.5630   37.9500 H   0  0  0  0  0  0  0  0  0  0  0  0
   18.5825  -31.4007   40.1919 H   0  0  0  0  0  0  0  0  0  0  0  0
   18.7131  -33.5343   38.9290 H   0  0  0  0  0  0  0  0  0  0  0  0
   20.0391  -32.3352   34.5724 H   0  0  0  0  0  0  0  0  0  0  0  0
   19.6799  -30.5456   34.5342 H   0  0  0  0  0  0  0  0  0  0  0  0
   19.9654  -29.2520   36.7150 H   0  0  0  0  0  0  0  0  0  0  0  0
   21.6563  -28.5048   42.3583 H   0  0  0  0  0  0  0  0  0  0  0  0
   21.7845  -26.4842   43.8188 H   0  0  0  0  0  0  0  0  0  0  0  0
   20.2904  -24.5324   43.3846 H   0  0  0  0  0  0  0  0  0  0  0  0
   18.2950  -23.8330   42.2350 H   0  0  0  0  0  0  0  0  0  0  0  0
  1  2  2  0
  2  3  1  0
  3  4  1  0
  3  5  2  0
  5  6  1  0
  6  7  2  0
  7  8  1  0
  8  9  2  0
  9 10  1  0
 10 11  1  0
 10 12  1  0
 10 13  1  0
  9 14  1  0
 14 15  1  0
 15 16  1  0
 14 17  2  0
  5 18  1  0
 18 19  1  0
 19 20  2  0
 20 21  1  0
 21 22  2  0
 22 23  1  0
 23 24  1  0
 23 25  2  0
 25  2  1  0
 17  6  1  0
 25 19  1  0
  4 26  1  0
  7 27  1  0
  8 28  1  0
 15 29  1  0
 15 30  1  0
 17 31  1  0
 20 32  1  0
 21 33  1  0
 22 34  1  0
 24 35  1  0
M  END
>  <meeko>  (4) 
{"is_sidechain": [false], "free_energy": -7.377, "intermolecular_energy": -9.53, "internal_energy": 0.052}

$$$$
cand_007_out
     RDKit          3D

 35 37  0  0  0  0  0  0  0  0999 V2000
   20.7870  -25.9890   41.3960 O   0  0  0  0  0  0  0  0  0  0  0  0
   20.2540  -26.3260   40.3410 C   0  0  0  0  0  0  0  0  0  0  0  0
   20.1940  -27.7540   39.9530 C   0  0  0  0  0  0  0  0  0  0  0  0
   20.7720  -28.6660   40.8180 O   0  0  0  0  0  0  0  0  0  0  0  0
   19.6030  -28.0800   38.7880 C   0  0  0  0  0  0  0  0  0  0  0  0
   19.4970  -29.4690   38.2940 C   0  0  0  0  0  0  0  0  0  0  0  0
   20.0260  -29.8540   37.0580 C   0  0  0  0  0  0  0  0  0  0  0  0
   19.9320  -31.1780   36.6210 C   0  0  0  0  0  0  0  0  0  0  0  0
   19.3100  -32.1580   37.4130 C   0  0  0  0  0  0  0  0  0  0  0  0
   19.2240  -33.5820   36.9110 C   0  0  0  0  0  0  0  0  0  0  0  0
   17.9410  -33.9630   36.6560 F   0  0  0  0  0  0  0  0  0  0  0  0
   19.9040  -33.7650   35.7450 F   0  0  0  0  0  0  0  0  0  0  0  0
   19.7220  -34.5050   37.7800 F   0  0  0  0  0  0  0  0  0  0  0  0
   18.7840  -31.7880   38.6700 C   0  0  0  0  0  0  0  0  0  0  0  0
   18.1020  -32.7940   39.5680 C   0  0  0  0  0  0  0  0  0  0  0  0
   18.9090  -33.2660   40.5620 F   0  0  0  0  0  0  0  0  0  0  0  0
   18.8860  -30.4480   39.0920 C   0  0  0  0  0  0  0  0  0  0  0  0
   19.0490  -27.1510   37.9140 O   0  0  0  0  0  0  0  0  0  0  0  0
   19.0850  -25.8220   38.2490 C   0  0  0  0  0  0  0  0  0  0  0  0
   18.5100  -24.9260   37.3460 C   0  0  0  0  0  0  0  0  0  0  0  0
   18.5130  -23.5580   37.6260 C   0  0  0  0  0  0  0  0  0  0  0  0
   19.0910  -23.0860   38.8060 C   0  0  0  0  0  0  0  0  0  0  0  0
   19.6640  -23.9820   39.7050 C   0  0  0  0  0  0  0  0  0  0  0  0
   20.2130  -23.4510   40.8400 O   0  0  0  0  0  0  0  0  0  0  0  0
   19.6610  -25.3510   39.4250 C   0  0  0  0  0  0  0  0  0  0  0  0
   20.9640  -28.4180   41.7010 H   0  0  0  0  0  0  0  0  0  0  0  0
   20.5220  -29.1058   36.4223 H   0  0  0  0  0  0  0  0  0  0  0  0
   20.3509  -31.4571   35.6429 H   0  0  0  0  0  0  0  0  0  0  0  0
   17.2261  -32.3135   40.0283 H   0  0  0  0  0  0  0  0  0  0  0  0
   17.8222  -33.6531   38.9406 H   0  0  0  0  0  0  0  0  0  0  0  0
   18.4763  -30.1619   40.0719 H   0  0  0  0  0  0  0  0  0  0  0  0
   18.0554  -25.2970   36.4156 H   0  0  0  0  0  0  0  0  0  0  0  0
   18.0593  -22.8511   36.9158 H   0  0  0  0  0  0  0  0  0  0  0  0
   19.0938  -22.0081   39.0252 H   0  0  0  0  0  0  0  0  0  0  0  0
   20.2570  -23.9640   41.6220 H   0  0  0  0  0  0  0  0  0  0  0  0
  1  2  2  0
  2  3  1  0
  3  4  1  0
  3  5  2  0
  5  6  1  0
  6  7  2  0
  7  8  1  0
  8  9  2  0
  9 10  1  0
 10 11  1  0
 10 12  1  0
 10 13  1  0
  9 14  1  0
 14 15  1  0
 15 16  1  0
 14 17  2  0
  5 18  1  0
 18 19  1  0
 19 20  2  0
 20 21  1  0
 21 22  2  0
 22 23  1  0
 23 24  1  0
 23 25  2  0
 25  2  1  0
 17  6  1  0
 25 19  1  0
  4 26  1  0
  7 27  1  0
  8 28  1  0
 15 29  1  0
 15 30  1  0
 17 31  1  0
 20 32  1  0
 21 33  1  0
 22 34  1  0
 24 35  1  0
M  END
>  <meeko>  (5) 
{"is_sidechain": [false], "free_energy": -7.324, "intermolecular_energy": -9.141, "internal_energy": -0.272}

$$$$
cand_007_out
     RDKit          3D

 35 37  0  0  0  0  0  0  0  0999 V2000
   18.8330  -28.1570   36.8620 O   0  0  0  0  0  0  0  0  0  0  0  0
   19.2000  -27.2680   37.6260 C   0  0  0  0  0  0  0  0  0  0  0  0
   19.8820  -27.6060   38.8970 C   0  0  0  0  0  0  0  0  0  0  0  0
   20.0640  -28.9480   39.1760 O   0  0  0  0  0  0  0  0  0  0  0  0
   20.2670  -26.6020   39.7070 C   0  0  0  0  0  0  0  0  0  0  0  0
   20.9420  -26.8200   41.0040 C   0  0  0  0  0  0  0  0  0  0  0  0
   20.4530  -26.2680   42.1920 C   0  0  0  0  0  0  0  0  0  0  0  0
   21.0970  -26.5050   43.4090 C   0  0  0  0  0  0  0  0  0  0  0  0
   22.2480  -27.3090   43.4730 C   0  0  0  0  0  0  0  0  0  0  0  0
   22.9220  -27.5460   44.8060 C   0  0  0  0  0  0  0  0  0  0  0  0
   22.5060  -26.6650   45.7580 F   0  0  0  0  0  0  0  0  0  0  0  0
   22.6590  -28.7850   45.3080 F   0  0  0  0  0  0  0  0  0  0  0  0
   24.2790  -27.4410   44.7660 F   0  0  0  0  0  0  0  0  0  0  0  0
   22.7460  -27.8860   42.2840 C   0  0  0  0  0  0  0  0  0  0  0  0
   23.9800  -28.7580   42.2850 C   0  0  0  0  0  0  0  0  0  0  0  0
   23.6990  -30.0920   42.3080 F   0  0  0  0  0  0  0  0  0  0  0  0
   22.0850  -27.6320   41.0660 C   0  0  0  0  0  0  0  0  0  0  0  0
   20.0540  -25.2560   39.4280 O   0  0  0  0  0  0  0  0  0  0  0  0
   19.4300  -24.9130   38.2560 C   0  0  0  0  0  0  0  0  0  0  0  0
   19.2450  -23.5510   38.0130 C   0  0  0  0  0  0  0  0  0  0  0  0
   18.6160  -23.1330   36.8390 C   0  0  0  0  0  0  0  0  0  0  0  0
   18.1720  -24.0740   35.9090 C   0  0  0  0  0  0  0  0  0  0  0  0
   18.3570  -25.4320   36.1540 C   0  0  0  0  0  0  0  0  0  0  0  0
   17.8970  -26.3000   35.2010 O   0  0  0  0  0  0  0  0  0  0  0  0
   18.9870  -25.8510   37.3290 C   0  0  0  0  0  0  0  0  0  0  0  0
   19.5430  -29.3650   39.8340 H   0  0  0  0  0  0  0  0  0  0  0  0
   19.5505  -25.6396   42.1681 H   0  0  0  0  0  0  0  0  0  0  0  0
   20.6975  -26.0559   44.3303 H   0  0  0  0  0  0  0  0  0  0  0  0
   24.5623  -28.5397   41.3776 H   0  0  0  0  0  0  0  0  0  0  0  0
   24.5403  -28.5277   43.2032 H   0  0  0  0  0  0  0  0  0  0  0  0
   22.4745  -28.0813   40.1406 H   0  0  0  0  0  0  0  0  0  0  0  0
   19.5943  -22.8083   38.7454 H   0  0  0  0  0  0  0  0  0  0  0  0
   18.4700  -22.0598   36.6466 H   0  0  0  0  0  0  0  0  0  0  0  0
   17.6768  -23.7434   34.9841 H   0  0  0  0  0  0  0  0  0  0  0  0
   18.3800  -27.0770   35.0040 H   0  0  0  0  0  0  0  0  0  0  0  0
  1  2  2  0
  2  3  1  0
  3  4  1  0
  3  5  2  0
  5  6  1  0
  6  7  2  0
  7  8  1  0
  8  9  2  0
  9 10  1  0
 10 11  1  0
 10 12  1  0
 10 13  1  0
  9 14  1  0
 14 15  1  0
 15 16  1  0
 14 17  2  0
  5 18  1  0
 18 19  1  0
 19 20  2  0
 20 21  1  0
 21 22  2  0
 22 23  1  0
 23 24  1  0
 23 25  2  0
 25  2  1  0
 17  6  1  0
 25 19  1  0
  4 26  1  0
  7 27  1  0
  8 28  1  0
 15 29  1  0
 15 30  1  0
 17 31  1  0
 20 32  1  0
 21 33  1  0
 22 34  1  0
 24 35  1  0
M  END
>  <meeko>  (6) 
{"is_sidechain": [false], "free_energy": -7.205, "intermolecular_energy": -9.094, "internal_energy": -0.172}

$$$$
cand_007_out
     RDKit          3D

 35 37  0  0  0  0  0  0  0  0999 V2000
   19.5840  -26.1060   36.5670 O   0  0  0  0  0  0  0  0  0  0  0  0
   19.5800  -26.8430   37.5510 C   0  0  0  0  0  0  0  0  0  0  0  0
   19.5300  -28.3140   37.3870 C   0  0  0  0  0  0  0  0  0  0  0  0
   19.4740  -28.8020   36.0940 O   0  0  0  0  0  0  0  0  0  0  0  0
   19.5250  -29.0840   38.4910 C   0  0  0  0  0  0  0  0  0  0  0  0
   19.4630  -30.5600   38.4490 C   0  0  0  0  0  0  0  0  0  0  0  0
   19.3680  -31.3280   39.6140 C   0  0  0  0  0  0  0  0  0  0  0  0
   19.2910  -32.7210   39.5480 C   0  0  0  0  0  0  0  0  0  0  0  0
   19.3010  -33.3880   38.3120 C   0  0  0  0  0  0  0  0  0  0  0  0
   19.2150  -34.8980   38.2740 C   0  0  0  0  0  0  0  0  0  0  0  0
   20.3810  -35.4700   37.8630 F   0  0  0  0  0  0  0  0  0  0  0  0
   18.9500  -35.4340   39.4970 F   0  0  0  0  0  0  0  0  0  0  0  0
   18.2500  -35.3760   37.4410 F   0  0  0  0  0  0  0  0  0  0  0  0
   19.3800  -32.6260   37.1250 C   0  0  0  0  0  0  0  0  0  0  0  0
   19.3960  -33.2830   35.7640 C   0  0  0  0  0  0  0  0  0  0  0  0
   20.3960  -32.8260   34.9550 F   0  0  0  0  0  0  0  0  0  0  0  0
   19.4610  -31.2230   37.2120 C   0  0  0  0  0  0  0  0  0  0  0  0
   19.5540  -28.5810   39.7870 O   0  0  0  0  0  0  0  0  0  0  0  0
   19.6060  -27.2230   39.9700 C   0  0  0  0  0  0  0  0  0  0  0  0
   19.6430  -26.7630   41.2870 C   0  0  0  0  0  0  0  0  0  0  0  0
   19.6970  -25.3910   41.5440 C   0  0  0  0  0  0  0  0  0  0  0  0
   19.7120  -24.4810   40.4860 C   0  0  0  0  0  0  0  0  0  0  0  0
   19.6750  -24.9430   39.1720 C   0  0  0  0  0  0  0  0  0  0  0  0
   19.6920  -23.9960   38.1840 O   0  0  0  0  0  0  0  0  0  0  0  0
   19.6220  -26.3150   38.9160 C   0  0  0  0  0  0  0  0  0  0  0  0
   20.0740  -29.4670   35.8180 H   0  0  0  0  0  0  0  0  0  0  0  0
   19.3538  -30.8289   40.5941 H   0  0  0  0  0  0  0  0  0  0  0  0
   19.2215  -33.3044   40.4779 H   0  0  0  0  0  0  0  0  0  0  0  0
   19.5257  -34.3667   35.9011 H   0  0  0  0  0  0  0  0  0  0  0  0
   18.4426  -33.0382   35.2731 H   0  0  0  0  0  0  0  0  0  0  0  0
   19.5243  -30.6314   36.2868 H   0  0  0  0  0  0  0  0  0  0  0  0
   19.6297  -27.4797   42.1214 H   0  0  0  0  0  0  0  0  0  0  0  0
   19.7277  -25.0274   42.5817 H   0  0  0  0  0  0  0  0  0  0  0  0
   19.7530  -23.4007   40.6891 H   0  0  0  0  0  0  0  0  0  0  0  0
   19.0000  -23.3690   38.1250 H   0  0  0  0  0  0  0  0  0  0  0  0
  1  2  2  0
  2  3  1  0
  3  4  1  0
  3  5  2  0
  5  6  1  0
  6  7  2  0
  7  8  1  0
  8  9  2  0
  9 10  1  0
 10 11  1  0
 10 12  1  0
 10 13  1  0
  9 14  1  0
 14 15  1  0
 15 16  1  0
 14 17  2  0
  5 18  1  0
 18 19  1  0
 19 20  2  0
 20 21  1  0
 21 22  2  0
 22 23  1  0
 23 24  1  0
 23 25  2  0
 25  2  1  0
 17  6  1  0
 25 19  1  0
  4 26  1  0
  7 27  1  0
  8 28  1  0
 15 29  1  0
 15 30  1  0
 17 31  1  0
 20 32  1  0
 21 33  1  0
 22 34  1  0
 24 35  1  0
M  END
>  <meeko>  (7) 
{"is_sidechain": [false], "free_energy": -7.154, "intermolecular_energy": -9.512, "internal_energy": 0.309}

$$$$
cand_007_out
     RDKit          3D

 35 37  0  0  0  0  0  0  0  0999 V2000
   19.8680  -31.6710   35.4620 O   0  0  0  0  0  0  0  0  0  0  0  0
   19.6050  -31.4840   36.6480 C   0  0  0  0  0  0  0  0  0  0  0  0
   19.6820  -30.1220   37.2270 C   0  0  0  0  0  0  0  0  0  0  0  0
   20.0720  -29.0990   36.3820 O   0  0  0  0  0  0  0  0  0  0  0  0
   19.3890  -29.9610   38.5310 C   0  0  0  0  0  0  0  0  0  0  0  0
   19.4440  -28.6540   39.2190 C   0  0  0  0  0  0  0  0  0  0  0  0
   20.2020  -28.4630   40.3790 C   0  0  0  0  0  0  0  0  0  0  0  0
   20.2550  -27.2120   41.0000 C   0  0  0  0  0  0  0  0  0  0  0  0
   19.5560  -26.1140   40.4730 C   0  0  0  0  0  0  0  0  0  0  0  0
   19.6350  -24.7720   41.1690 C   0  0  0  0  0  0  0  0  0  0  0  0
   20.2360  -24.8590   42.3880 F   0  0  0  0  0  0  0  0  0  0  0  0
   20.3600  -23.8620   40.4620 F   0  0  0  0  0  0  0  0  0  0  0  0
   18.4230  -24.1930   41.3900 F   0  0  0  0  0  0  0  0  0  0  0  0
   18.8000  -26.2860   39.2930 C   0  0  0  0  0  0  0  0  0  0  0  0
   18.0240  -25.1440   38.6770 C   0  0  0  0  0  0  0  0  0  0  0  0
   18.7400  -24.4430   37.7510 F   0  0  0  0  0  0  0  0  0  0  0  0
   18.7550  -27.5550   38.6830 C   0  0  0  0  0  0  0  0  0  0  0  0
   19.0240  -31.0020   39.3780 O   0  0  0  0  0  0  0  0  0  0  0  0
   18.9390  -32.2730   38.8680 C   0  0  0  0  0  0  0  0  0  0  0  0
   18.5610  -33.2850   39.7510 C   0  0  0  0  0  0  0  0  0  0  0  0
   18.4560  -34.6010   39.2980 C   0  0  0  0  0  0  0  0  0  0  0  0
   18.7280  -34.9050   37.9630 C   0  0  0  0  0  0  0  0  0  0  0  0
   19.1050  -33.8940   37.0830 C   0  0  0  0  0  0  0  0  0  0  0  0
   19.3580  -34.2620   35.7900 O   0  0  0  0  0  0  0  0  0  0  0  0
   19.2110  -32.5760   37.5380 C   0  0  0  0  0  0  0  0  0  0  0  0
   19.4620  -28.7410   35.7670 H   0  0  0  0  0  0  0  0  0  0  0  0
   20.7627  -29.3069   40.8073 H   0  0  0  0  0  0  0  0  0  0  0  0
   20.8528  -27.0857   41.9147 H   0  0  0  0  0  0  0  0  0  0  0  0
   17.1280  -25.5542   38.1882 H   0  0  0  0  0  0  0  0  0  0  0  0
   17.7704  -24.4467   39.4891 H   0  0  0  0  0  0  0  0  0  0  0  0
   18.1653  -27.6878   37.7640 H   0  0  0  0  0  0  0  0  0  0  0  0
   18.3460  -33.0460   40.8030 H   0  0  0  0  0  0  0  0  0  0  0  0
   18.1586  -35.3995   39.9937 H   0  0  0  0  0  0  0  0  0  0  0  0
   18.6446  -35.9423   37.6066 H   0  0  0  0  0  0  0  0  0  0  0  0
   19.3340  -33.6220   35.1080 H   0  0  0  0  0  0  0  0  0  0  0  0
  1  2  2  0
  2  3  1  0
  3  4  1  0
  3  5  2  0
  5  6  1  0
  6  7  2  0
  7  8  1  0
  8  9  2  0
  9 10  1  0
 10 11  1  0
 10 12  1  0
 10 13  1  0
  9 14  1  0
 14 15  1  0
 15 16  1  0
 14 17  2  0
  5 18  1  0
 18 19  1  0
 19 20  2  0
 20 21  1  0
 21 22  2  0
 22 23  1  0
 23 24  1  0
 23 25  2  0
 25  2  1  0
 17  6  1  0
 25 19  1  0
  4 26  1  0
  7 27  1  0
  8 28  1  0
 15 29  1  0
 15 30  1  0
 17 31  1  0
 20 32  1  0
 21 33  1  0
 22 34  1  0
 24 35  1  0
M  END
>  <meeko>  (8) 
{"is_sidechain": [false], "free_energy": -7.135, "intermolecular_energy": -8.939, "internal_energy": -0.241}

$$$$
cand_007_out
     RDKit          3D

 35 37  0  0  0  0  0  0  0  0999 V2000
   20.6350  -25.7070   40.1320 O   0  0  0  0  0  0  0  0  0  0  0  0
   20.0470  -26.3880   39.2940 C   0  0  0  0  0  0  0  0  0  0  0  0
   20.0360  -27.8650   39.4010 C   0  0  0  0  0  0  0  0  0  0  0  0
   20.7210  -28.4250   40.4640 O   0  0  0  0  0  0  0  0  0  0  0  0
   19.3830  -28.5730   38.4610 C   0  0  0  0  0  0  0  0  0  0  0  0
   19.3160  -30.0500   38.4590 C   0  0  0  0  0  0  0  0  0  0  0  0
   18.9770  -30.7740   39.6070 C   0  0  0  0  0  0  0  0  0  0  0  0
   18.9010  -32.1680   39.5760 C   0  0  0  0  0  0  0  0  0  0  0  0
   19.1560  -32.8800   38.3910 C   0  0  0  0  0  0  0  0  0  0  0  0
   19.0640  -34.3900   38.3910 C   0  0  0  0  0  0  0  0  0  0  0  0
   18.5790  -34.8770   39.5660 F   0  0  0  0  0  0  0  0  0  0  0  0
   18.2310  -34.8600   37.4220 F   0  0  0  0  0  0  0  0  0  0  0  0
   20.2570  -35.0150   38.1910 F   0  0  0  0  0  0  0  0  0  0  0  0
   19.4840  -32.1630   37.2200 C   0  0  0  0  0  0  0  0  0  0  0  0
   19.7720  -32.8690   35.9150 C   0  0  0  0  0  0  0  0  0  0  0  0
   20.3330  -32.0560   34.9740 F   0  0  0  0  0  0  0  0  0  0  0  0
   19.5600  -30.7570   37.2720 C   0  0  0  0  0  0  0  0  0  0  0  0
   18.7200  -28.0000   37.3810 O   0  0  0  0  0  0  0  0  0  0  0  0
   18.7080  -26.6340   37.2590 C   0  0  0  0  0  0  0  0  0  0  0  0
   18.0240  -26.1030   36.1650 C   0  0  0  0  0  0  0  0  0  0  0  0
   17.9730  -24.7200   35.9810 C   0  0  0  0  0  0  0  0  0  0  0  0
   18.6070  -23.8690   36.8880 C   0  0  0  0  0  0  0  0  0  0  0  0
   19.2900  -24.4020   37.9790 C   0  0  0  0  0  0  0  0  0  0  0  0
   19.8880  -23.5120   38.8280 O   0  0  0  0  0  0  0  0  0  0  0  0
   19.3390  -25.7860   38.1630 C   0  0  0  0  0  0  0  0  0  0  0  0
   21.4760  -28.9570   40.3070 H   0  0  0  0  0  0  0  0  0  0  0  0
   18.7679  -30.2389   40.5451 H   0  0  0  0  0  0  0  0  0  0  0  0
   18.6378  -32.7170   40.4922 H   0  0  0  0  0  0  0  0  0  0  0  0
   20.4628  -33.7017   36.1136 H   0  0  0  0  0  0  0  0  0  0  0  0
   18.8088  -33.2163   35.5130 H   0  0  0  0  0  0  0  0  0  0  0  0
   19.8171  -30.1997   36.3591 H   0  0  0  0  0  0  0  0  0  0  0  0
   17.5258  -26.7729   35.4487 H   0  0  0  0  0  0  0  0  0  0  0  0
   17.4324  -24.3002   35.1199 H   0  0  0  0  0  0  0  0  0  0  0  0
   18.5674  -22.7795   36.7415 H   0  0  0  0  0  0  0  0  0  0  0  0
   19.4070  -23.1550   39.5470 H   0  0  0  0  0  0  0  0  0  0  0  0
  1  2  2  0
  2  3  1  0
  3  4  1  0
  3  5  2  0
  5  6  1  0
  6  7  2  0
  7  8  1  0
  8  9  2  0
  9 10  1  0
 10 11  1  0
 10 12  1  0
 10 13  1  0
  9 14  1  0
 14 15  1  0
 15 16  1  0
 14 17  2  0
  5 18  1  0
 18 19  1  0
 19 20  2  0
 20 21  1  0
 21 22  2  0
 22 23  1  0
 23 24  1  0
 23 25  2  0
 25  2  1  0
 17  6  1  0
 25 19  1  0
  4 26  1  0
  7 27  1  0
  8 28  1  0
 15 29  1  0
 15 30  1  0
 17 31  1  0
 20 32  1  0
 21 33  1  0
 22 34  1  0
 24 35  1  0
M  END
>  <meeko>  (9) 
{"is_sidechain": [false], "free_energy": -7.128, "intermolecular_energy": -9.029, "internal_energy": -0.143}

$$$$
