cand_054_out
     RDKit          3D

 46 48  0  0  0  0  0  0  0  0999 V2000
   22.3950  -27.6610   42.8210 C   0  0  0  0  0  0  0  0  0  0  0  0
   22.1240  -27.2630   41.3770 C   0  0  0  0  0  0  0  0  0  0  0  0
   20.7960  -26.6330   41.2290 N   0  0  0  0  0  0  0  0  0  0  0  0
   19.9130  -26.7710   42.4050 C   0  0  0  0  0  0  0  0  0  0  0  0
   19.7780  -25.4340   43.1200 C   0  0  0  0  0  0  0  0  0  0  0  0
   20.1080  -27.0360   40.0530 C   0  0  0  0  0  0  0  0  0  0  0  0
   20.0880  -28.3770   39.6240 C   0  0  0  0  0  0  0  0  0  0  0  0
   19.3900  -28.7710   38.4730 C   0  0  0  0  0  0  0  0  0  0  0  0
   19.3900  -30.1740   38.0070 C   0  0  0  0  0  0  0  0  0  0  0  0
   18.9560  -31.0660   38.9830 O   0  0  0  0  0  0  0  0  0  0  0  0
   18.9060  -32.4030   38.6850 C   0  0  0  0  0  0  0  0  0  0  0  0
   18.4510  -33.2590   39.6870 C   0  0  0  0  0  0  0  0  0  0  0  0
   18.3770  -34.6340   39.4490 C   0  0  0  0  0  0  0  0  0  0  0  0
   18.7610  -35.1510   38.2090 C   0  0  0  0  0  0  0  0  0  0  0  0
   19.2150  -34.2930   37.2110 C   0  0  0  0  0  0  0  0  0  0  0  0
   19.5740  -34.8660   36.0210 O   0  0  0  0  0  0  0  0  0  0  0  0
   19.2870  -32.9180   37.4490 C   0  0  0  0  0  0  0  0  0  0  0  0
   19.7590  -31.9830   36.4270 C   0  0  0  0  0  0  0  0  0  0  0  0
   20.1190  -32.3620   35.3140 O   0  0  0  0  0  0  0  0  0  0  0  0
   19.7900  -30.5450   36.7770 C   0  0  0  0  0  0  0  0  0  0  0  0
   20.2490  -29.6710   35.8070 O   0  0  0  0  0  0  0  0  0  0  0  0
   18.7110  -27.7940   37.7350 C   0  0  0  0  0  0  0  0  0  0  0  0
   18.7100  -26.4600   38.1510 C   0  0  0  0  0  0  0  0  0  0  0  0
   19.3970  -26.0720   39.3090 C   0  0  0  0  0  0  0  0  0  0  0  0
   19.3740  -24.6300   39.7380 C   0  0  0  0  0  0  0  0  0  0  0  0
   21.9066  -26.9437   43.4969 H   0  0  0  0  0  0  0  0  0  0  0  0
   21.9948  -28.6690   43.0048 H   0  0  0  0  0  0  0  0  0  0  0  0
   23.4795  -27.6580   43.0048 H   0  0  0  0  0  0  0  0  0  0  0  0
   22.8960  -26.5501   41.0519 H   0  0  0  0  0  0  0  0  0  0  0  0
   22.1453  -28.1725   40.7586 H   0  0  0  0  0  0  0  0  0  0  0  0
   18.9194  -27.1091   42.0758 H   0  0  0  0  0  0  0  0  0  0  0  0
   20.3491  -27.5062   43.0973 H   0  0  0  0  0  0  0  0  0  0  0  0
   19.7944  -25.5966   44.2078 H   0  0  0  0  0  0  0  0  0  0  0  0
   20.6146  -24.7794   42.8345 H   0  0  0  0  0  0  0  0  0  0  0  0
   18.8274  -24.9598   42.8345 H   0  0  0  0  0  0  0  0  0  0  0  0
   20.6334  -29.1345   40.2061 H   0  0  0  0  0  0  0  0  0  0  0  0
   18.1506  -32.8524   40.6639 H   0  0  0  0  0  0  0  0  0  0  0  0
   18.0162  -35.3098   40.2384 H   0  0  0  0  0  0  0  0  0  0  0  0
   18.7047  -36.2335   38.0218 H   0  0  0  0  0  0  0  0  0  0  0  0
   19.7600  -34.3260   35.2780 H   0  0  0  0  0  0  0  0  0  0  0  0
   19.6570  -29.3240   35.1710 H   0  0  0  0  0  0  0  0  0  0  0  0
   18.1731  -28.0793   36.8189 H   0  0  0  0  0  0  0  0  0  0  0  0
   18.1644  -25.7069   37.5635 H   0  0  0  0  0  0  0  0  0  0  0  0
   19.3731  -24.5743   40.8366 H   0  0  0  0  0  0  0  0  0  0  0  0
   20.2641  -24.1164   39.3455 H   0  0  0  0  0  0  0  0  0  0  0  0
   18.4680  -24.1451   39.3455 H   0  0  0  0  0  0  0  0  0  0  0  0
  1  2  1  0
  2  3  1  0
  3  4  1  0
  4  5  1  0
  3  6  1  0
  6  7  2  0
  7  8  1  0
  8  9  1  0
  9 10  1  0
 10 11  1  0
 11 12  2  0
 12 13  1  0
 13 14  2  0
 14 15  1  0
 15 16  1  0
 15 17  2  0
 17 18  1  0
 18 19  2  0
 18 20  1  0
 20 21  1  0
  8 22  2  0
 22 23  1  0
 23 24  2  0
 24 25  1  0
 24  6  1  0
 20  9  2  0
 17 11  1  0
  1 26  1  0
  1 27  1  0
  1 28  1  0
  2 29  1  0
  2 30  1  0
  4 31  1  0
  4 32  1  0
  5 33  1  0
  5 34  1  0
  5 35  1  0
  7 36  1  0
 12 37  1  0
 13 38  1  0
 14 39  1  0
 16 40  1  0
 21 41  1  0
 22 42  1  0
 23 43  1  0
 25 44  1  0
 25 45  1  0
 25 46  1  0
M  END
>  <meeko>  (1) 
{"is_sidechain": [false], "free_energy": -7.911, "intermolecular_energy": -10.223, "internal_energy": -0.344}

$$$$
cand_054_out
     RDKit          3D

 46 48  0  0  0  0  0  0  0  0999 V2000
   18.8200  -35.4400   36.3380 C   0  0  0  0  0  0  0  0  0  0  0  0
   18.4450  -34.0160   36.7260 C   0  0  0  0  0  0  0  0  0  0  0  0
   19.5820  -33.3080   37.3480 N   0  0  0  0  0  0  0  0  0  0  0  0
   19.6720  -33.4520   38.8150 C   0  0  0  0  0  0  0  0  0  0  0  0
   18.3350  -33.9100   39.3800 C   0  0  0  0  0  0  0  0  0  0  0  0
   19.6580  -31.9360   36.9870 C   0  0  0  0  0  0  0  0  0  0  0  0
   19.4930  -30.9060   37.9330 C   0  0  0  0  0  0  0  0  0  0  0  0
   19.5890  -29.5540   37.5740 C   0  0  0  0  0  0  0  0  0  0  0  0
   19.3900  -28.4720   38.5630 C   0  0  0  0  0  0  0  0  0  0  0  0
   20.2660  -28.5580   39.6390 O   0  0  0  0  0  0  0  0  0  0  0  0
   20.1910  -27.6160   40.6320 C   0  0  0  0  0  0  0  0  0  0  0  0
   21.0970  -27.7330   41.6860 C   0  0  0  0  0  0  0  0  0  0  0  0
   21.0740  -26.8060   42.7310 C   0  0  0  0  0  0  0  0  0  0  0  0
   20.1420  -25.7650   42.7220 C   0  0  0  0  0  0  0  0  0  0  0  0
   19.2380  -25.6520   41.6700 C   0  0  0  0  0  0  0  0  0  0  0  0
   18.3540  -24.6100   41.7240 O   0  0  0  0  0  0  0  0  0  0  0  0
   19.2630  -26.5790   40.6240 C   0  0  0  0  0  0  0  0  0  0  0  0
   18.3310  -26.4960   39.4990 C   0  0  0  0  0  0  0  0  0  0  0  0
   17.4790  -25.6130   39.4230 O   0  0  0  0  0  0  0  0  0  0  0  0
   18.4460  -27.5220   38.4380 C   0  0  0  0  0  0  0  0  0  0  0  0
   17.5510  -27.4410   37.3860 O   0  0  0  0  0  0  0  0  0  0  0  0
   19.8440  -29.2340   36.2350 C   0  0  0  0  0  0  0  0  0  0  0  0
   20.0210  -30.2420   35.2840 C   0  0  0  0  0  0  0  0  0  0  0  0
   19.9380  -31.5920   35.6480 C   0  0  0  0  0  0  0  0  0  0  0  0
   20.1400  -32.6570   34.6050 C   0  0  0  0  0  0  0  0  0  0  0  0
   18.9776  -36.0384   37.2474 H   0  0  0  0  0  0  0  0  0  0  0  0
   18.0081  -35.8838   35.7431 H   0  0  0  0  0  0  0  0  0  0  0  0
   19.7452  -35.4264   35.7431 H   0  0  0  0  0  0  0  0  0  0  0  0
   18.1341  -33.4696   35.8234 H   0  0  0  0  0  0  0  0  0  0  0  0
   17.6248  -34.0619   37.4575 H   0  0  0  0  0  0  0  0  0  0  0  0
   20.4444  -34.1957   39.0606 H   0  0  0  0  0  0  0  0  0  0  0  0
   19.9344  -32.4791   39.2562 H   0  0  0  0  0  0  0  0  0  0  0  0
   18.3771  -33.8956   40.4791 H   0  0  0  0  0  0  0  0  0  0  0  0
   17.5397  -33.2330   39.0346 H   0  0  0  0  0  0  0  0  0  0  0  0
   18.1219  -34.9324   39.0346 H   0  0  0  0  0  0  0  0  0  0  0  0
   19.2834  -31.1688   38.9804 H   0  0  0  0  0  0  0  0  0  0  0  0
   21.8288  -28.5542   41.6945 H   0  0  0  0  0  0  0  0  0  0  0  0
   21.7900  -26.8957   43.5613 H   0  0  0  0  0  0  0  0  0  0  0  0
   20.1229  -25.0358   43.5453 H   0  0  0  0  0  0  0  0  0  0  0  0
   18.0730  -24.2760   42.5540 H   0  0  0  0  0  0  0  0  0  0  0  0
   17.0500  -26.6610   37.2560 H   0  0  0  0  0  0  0  0  0  0  0  0
   19.9055  -28.1792   35.9290 H   0  0  0  0  0  0  0  0  0  0  0  0
   20.2278  -29.9725   34.2378 H   0  0  0  0  0  0  0  0  0  0  0  0
   20.3232  -33.6231   35.0981 H   0  0  0  0  0  0  0  0  0  0  0  0
   19.2398  -32.7307   33.9771 H   0  0  0  0  0  0  0  0  0  0  0  0
   21.0047  -32.3960   33.9771 H   0  0  0  0  0  0  0  0  0  0  0  0
  1  2  1  0
  2  3  1  0
  3  4  1  0
  4  5  1  0
  3  6  1  0
  6  7  2  0
  7  8  1  0
  8  9  1  0
  9 10  1  0
 10 11  1  0
 11 12  2  0
 12 13  1  0
 13 14  2  0
 14 15  1  0
 15 16  1  0
 15 17  2  0
 17 18  1  0
 18 19  2  0
 18 20  1  0
 20 21  1  0
  8 22  2  0
 22 23  1  0
 23 24  2  0
 24 25  1  0
 24  6  1  0
 20  9  2  0
 17 11  1  0
  1 26  1  0
  1 27  1  0
  1 28  1  0
  2 29  1  0
  2 30  1  0
  4 31  1  0
  4 32  1  0
  5 33  1  0
  5 34  1  0
  5 35  1  0
  7 36  1  0
 12 37  1  0
 13 38  1  0
 14 39  1  0
 16 40  1  0
 21 41  1  0
 22 42  1  0
 23 43  1  0
 25 44  1  0
 25 45  1  0
 25 46  1  0
M  END
>  <meeko>  (2) 
{"is_sidechain": [false], "free_energy": -7.531, "intermolecular_energy": -10.171, "internal_energy": 0.095}

$$$$
cand_054_out
     RDKit          3D

 46 48  0  0  0  0  0  0  0  0999 V2000
   18.0760  -25.2940   35.6090 C   0  0  0  0  0  0  0  0  0  0  0  0
   17.4970  -25.3540   37.0160 C   0  0  0  0  0  0  0  0  0  0  0  0
   18.5170  -25.0290   38.0350 N   0  0  0  0  0  0  0  0  0  0  0  0
   19.6620  -24.2420   37.5330 C   0  0  0  0  0  0  0  0  0  0  0  0
   19.3740  -22.7540   37.6690 C   0  0  0  0  0  0  0  0  0  0  0  0
   18.9820  -26.1650   38.7500 C   0  0  0  0  0  0  0  0  0  0  0  0
   18.9700  -27.4560   38.1870 C   0  0  0  0  0  0  0  0  0  0  0  0
   19.4500  -28.5700   38.8910 C   0  0  0  0  0  0  0  0  0  0  0  0
   19.4140  -29.9300   38.3100 C   0  0  0  0  0  0  0  0  0  0  0  0
   19.0380  -30.9000   39.2320 O   0  0  0  0  0  0  0  0  0  0  0  0
   18.9620  -32.2080   38.8260 C   0  0  0  0  0  0  0  0  0  0  0  0
   18.5670  -33.1460   39.7800 C   0  0  0  0  0  0  0  0  0  0  0  0
   18.4710  -34.4950   39.4320 C   0  0  0  0  0  0  0  0  0  0  0  0
   18.7730  -34.9050   38.1310 C   0  0  0  0  0  0  0  0  0  0  0  0
   19.1690  -33.9670   37.1820 C   0  0  0  0  0  0  0  0  0  0  0  0
   19.4490  -34.4370   35.9280 O   0  0  0  0  0  0  0  0  0  0  0  0
   19.2620  -32.6170   37.5310 C   0  0  0  0  0  0  0  0  0  0  0  0
   19.6730  -31.5980   36.5630 C   0  0  0  0  0  0  0  0  0  0  0  0
   19.9620  -31.8820   35.4020 O   0  0  0  0  0  0  0  0  0  0  0  0
   19.7340  -30.1950   37.0310 C   0  0  0  0  0  0  0  0  0  0  0  0
   20.1360  -29.2430   36.1110 O   0  0  0  0  0  0  0  0  0  0  0  0
   19.9380  -28.3810   40.1900 C   0  0  0  0  0  0  0  0  0  0  0  0
   19.9670  -27.1070   40.7610 C   0  0  0  0  0  0  0  0  0  0  0  0
   19.5000  -25.9940   40.0500 C   0  0  0  0  0  0  0  0  0  0  0  0
   19.5500  -24.6310   40.6870 C   0  0  0  0  0  0  0  0  0  0  0  0
   19.1686  -25.1808   35.6667 H   0  0  0  0  0  0  0  0  0  0  0  0
   17.8314  -26.2223   35.0719 H   0  0  0  0  0  0  0  0  0  0  0  0
   17.6462  -24.4356   35.0719 H   0  0  0  0  0  0  0  0  0  0  0  0
   16.6710  -24.6318   37.0938 H   0  0  0  0  0  0  0  0  0  0  0  0
   17.1398  -26.3781   37.1992 H   0  0  0  0  0  0  0  0  0  0  0  0
   20.5600  -24.4935   38.1164 H   0  0  0  0  0  0  0  0  0  0  0  0
   19.8256  -24.4814   36.4719 H   0  0  0  0  0  0  0  0  0  0  0  0
   19.3222  -22.4865   38.7347 H   0  0  0  0  0  0  0  0  0  0  0  0
   20.1776  -22.1793   37.1853 H   0  0  0  0  0  0  0  0  0  0  0  0
   18.4140  -22.5206   37.1853 H   0  0  0  0  0  0  0  0  0  0  0  0
   18.5743  -27.5940   37.1699 H   0  0  0  0  0  0  0  0  0  0  0  0
   18.3315  -32.8235   40.8049 H   0  0  0  0  0  0  0  0  0  0  0  0
   18.1574  -35.2353   40.1827 H   0  0  0  0  0  0  0  0  0  0  0  0
   18.6979  -35.9677   37.8570 H   0  0  0  0  0  0  0  0  0  0  0  0
   19.6380  -35.3470   35.8000 H   0  0  0  0  0  0  0  0  0  0  0  0
   20.9040  -29.3850   35.5940 H   0  0  0  0  0  0  0  0  0  0  0  0
   20.3020  -29.2445   40.7661 H   0  0  0  0  0  0  0  0  0  0  0  0
   20.3607  -26.9760   41.7798 H   0  0  0  0  0  0  0  0  0  0  0  0
   19.5461  -24.7376   41.7818 H   0  0  0  0  0  0  0  0  0  0  0  0
   20.4678  -24.1126   40.3723 H   0  0  0  0  0  0  0  0  0  0  0  0
   18.6727  -24.0468   40.3723 H   0  0  0  0  0  0  0  0  0  0  0  0
  1  2  1  0
  2  3  1  0
  3  4  1  0
  4  5  1  0
  3  6  1  0
  6  7  2  0
  7  8  1  0
  8  9  1  0
  9 10  1  0
 10 11  1  0
 11 12  2  0
 12 13  1  0
 13 14  2  0
 14 15  1  0
 15 16  1  0
 15 17  2  0
 17 18  1  0
 18 19  2  0
 18 20  1  0
 20 21  1  0
  8 22  2  0
 22 23  1  0
 23 24  2  0
 24 25  1  0
 24  6  1  0
 20  9  2  0
 17 11  1  0
  1 26  1  0
  1 27  1  0
  1 28  1  0
  2 29  1  0
  2 30  1  0
  4 31  1  0
  4 32  1  0
  5 33  1  0
  5 34  1  0
  5 35  1  0
  7 36  1  0
 12 37  1  0
 13 38  1  0
 14 39  1  0
 16 40  1  0
 21 41  1  0
 22 42  1  0
 23 43  1  0
 25 44  1  0
 25 45  1  0
 25 46  1  0
M  END
>  <meeko>  (3) 
{"is_sidechain": [false], "free_energy": -6.908, "intermolecular_energy": -9.303, "internal_energy": 0.033}

$$$$
cand_054_out
     RDKit          3D

 46 48  0  0  0  0  0  0  0  0999 V2000
   20.7830  -19.0940   45.1470 C   0  0  0  0  0  0  0  0  0  0  0  0
   20.1290  -19.7760   46.3420 C   0  0  0  0  0  0  0  0  0  0  0  0
   21.1330  -20.4190   47.2140 N   0  0  0  0  0  0  0  0  0  0  0  0
   22.5360  -20.1250   46.8620 C   0  0  0  0  0  0  0  0  0  0  0  0
   23.3880  -20.0480   48.1210 C   0  0  0  0  0  0  0  0  0  0  0  0
   20.9470  -21.8210   47.3480 C   0  0  0  0  0  0  0  0  0  0  0  0
   21.1610  -22.7070   46.2750 C   0  0  0  0  0  0  0  0  0  0  0  0
   20.9960  -24.0930   46.4210 C   0  0  0  0  0  0  0  0  0  0  0  0
   21.1950  -25.0210   45.2870 C   0  0  0  0  0  0  0  0  0  0  0  0
   22.3760  -25.7480   45.3860 O   0  0  0  0  0  0  0  0  0  0  0  0
   22.6860  -26.6480   44.4000 C   0  0  0  0  0  0  0  0  0  0  0  0
   23.8730  -27.3660   44.5480 C   0  0  0  0  0  0  0  0  0  0  0  0
   24.2480  -28.2990   43.5780 C   0  0  0  0  0  0  0  0  0  0  0  0
   23.4370  -28.5110   42.4600 C   0  0  0  0  0  0  0  0  0  0  0  0
   22.2540  -27.7920   42.3160 C   0  0  0  0  0  0  0  0  0  0  0  0
   21.5080  -28.0500   41.1980 O   0  0  0  0  0  0  0  0  0  0  0  0
   21.8780  -26.8610   43.2870 C   0  0  0  0  0  0  0  0  0  0  0  0
   20.6420  -26.0850   43.1740 C   0  0  0  0  0  0  0  0  0  0  0  0
   19.8800  -26.2110   42.2170 O   0  0  0  0  0  0  0  0  0  0  0  0
   20.3310  -25.1290   44.2610 C   0  0  0  0  0  0  0  0  0  0  0  0
   19.1670  -24.3930   44.1360 O   0  0  0  0  0  0  0  0  0  0  0  0
   20.5970  -24.5910   47.6660 C   0  0  0  0  0  0  0  0  0  0  0  0
   20.3900  -23.7290   48.7450 C   0  0  0  0  0  0  0  0  0  0  0  0
   20.5690  -22.3470   48.6010 C   0  0  0  0  0  0  0  0  0  0  0  0
   20.3470  -21.4410   49.7820 C   0  0  0  0  0  0  0  0  0  0  0  0
   21.5035  -18.3427   45.5026 H   0  0  0  0  0  0  0  0  0  0  0  0
   21.3071  -19.8451   44.5378 H   0  0  0  0  0  0  0  0  0  0  0  0
   20.0106  -18.6018   44.5378 H   0  0  0  0  0  0  0  0  0  0  0  0
   19.5780  -19.0238   46.9255 H   0  0  0  0  0  0  0  0  0  0  0  0
   19.4490  -20.5545   45.9658 H   0  0  0  0  0  0  0  0  0  0  0  0
   22.9220  -20.9225   46.2101 H   0  0  0  0  0  0  0  0  0  0  0  0
   22.5801  -19.1584   46.3387 H   0  0  0  0  0  0  0  0  0  0  0  0
   22.7389  -20.1067   49.0071 H   0  0  0  0  0  0  0  0  0  0  0  0
   24.1012  -20.8853   48.1328 H   0  0  0  0  0  0  0  0  0  0  0  0
   23.9396  -19.0963   48.1328 H   0  0  0  0  0  0  0  0  0  0  0  0
   21.4650  -22.3029   45.2981 H   0  0  0  0  0  0  0  0  0  0  0  0
   24.5126  -27.1978   45.4270 H   0  0  0  0  0  0  0  0  0  0  0  0
   25.1826  -28.8673   43.6945 H   0  0  0  0  0  0  0  0  0  0  0  0
   23.7329  -29.2445   41.6955 H   0  0  0  0  0  0  0  0  0  0  0  0
   20.7610  -27.5180   41.0000 H   0  0  0  0  0  0  0  0  0  0  0  0
   19.1340  -23.6640   43.5490 H   0  0  0  0  0  0  0  0  0  0  0  0
   20.4448  -25.6726   47.7963 H   0  0  0  0  0  0  0  0  0  0  0  0
   20.0831  -24.1395   49.7183 H   0  0  0  0  0  0  0  0  0  0  0  0
   20.4866  -22.0107   50.7125 H   0  0  0  0  0  0  0  0  0  0  0  0
   21.0684  -20.6113   49.7483 H   0  0  0  0  0  0  0  0  0  0  0  0
   19.3237  -21.0388   49.7483 H   0  0  0  0  0  0  0  0  0  0  0  0
  1  2  1  0
  2  3  1  0
  3  4  1  0
  4  5  1  0
  3  6  1  0
  6  7  2  0
  7  8  1  0
  8  9  1  0
  9 10  1  0
 10 11  1  0
 11 12  2  0
 12 13  1  0
 13 14  2  0
 14 15  1  0
 15 16  1  0
 15 17  2  0
 17 18  1  0
 18 19  2  0
 18 20  1  0
 20 21  1  0
  8 22  2  0
 22 23  1  0
 23 24  2  0
 24 25  1  0
 24  6  1  0
 20  9  2  0
 17 11  1  0
  1 26  1  0
  1 27  1  0
  1 28  1  0
  2 29  1  0
  2 30  1  0
  4 31  1  0
  4 32  1  0
  5 33  1  0
  5 34  1  0
  5 35  1  0
  7 36  1  0
 12 37  1  0
 13 38  1  0
 14 39  1  0
 16 40  1  0
 21 41  1  0
 22 42  1  0
 23 43  1  0
 25 44  1  0
 25 45  1  0
 25 46  1  0
M  END
>  <meeko>  (4) 
{"is_sidechain": [false], "free_energy": -6.8, "intermolecular_energy": -8.222, "internal_energy": -0.91}

$$$$
cand_054_out
     RDKit          3D

 46 48  0  0  0  0  0  0  0  0999 V2000
   19.2740  -22.4580   38.2420 C   0  0  0  0  0  0  0  0  0  0  0  0
   19.6610  -23.6730   37.4090 C   0  0  0  0  0  0  0  0  0  0  0  0
   18.5980  -24.6980   37.4200 N   0  0  0  0  0  0  0  0  0  0  0  0
   17.2880  -24.2240   37.9100 C   0  0  0  0  0  0  0  0  0  0  0  0
   16.3970  -23.8400   36.7370 C   0  0  0  0  0  0  0  0  0  0  0  0
   18.9710  -25.8900   38.0960 C   0  0  0  0  0  0  0  0  0  0  0  0
   19.6940  -25.8660   39.3040 C   0  0  0  0  0  0  0  0  0  0  0  0
   20.0410  -27.0460   39.9780 C   0  0  0  0  0  0  0  0  0  0  0  0
   20.8230  -27.0220   41.2330 C   0  0  0  0  0  0  0  0  0  0  0  0
   21.8670  -27.9410   41.2360 O   0  0  0  0  0  0  0  0  0  0  0  0
   22.6750  -28.0240   42.3400 C   0  0  0  0  0  0  0  0  0  0  0  0
   23.7180  -28.9490   42.2930 C   0  0  0  0  0  0  0  0  0  0  0  0
   24.5780  -29.0850   43.3860 C   0  0  0  0  0  0  0  0  0  0  0  0
   24.3920  -28.2970   44.5250 C   0  0  0  0  0  0  0  0  0  0  0  0
   23.3490  -27.3760   44.5680 C   0  0  0  0  0  0  0  0  0  0  0  0
   23.2250  -26.6380   45.7140 O   0  0  0  0  0  0  0  0  0  0  0  0
   22.4910  -27.2390   43.4740 C   0  0  0  0  0  0  0  0  0  0  0  0
   21.3830  -26.2830   43.4790 C   0  0  0  0  0  0  0  0  0  0  0  0
   21.1510  -25.5590   44.4460 O   0  0  0  0  0  0  0  0  0  0  0  0
   20.5360  -26.2090   42.2670 C   0  0  0  0  0  0  0  0  0  0  0  0
   19.4850  -25.3110   42.2880 O   0  0  0  0  0  0  0  0  0  0  0  0
   19.6620  -28.2720   39.4180 C   0  0  0  0  0  0  0  0  0  0  0  0
   18.9350  -28.3150   38.2270 C   0  0  0  0  0  0  0  0  0  0  0  0
   18.5780  -27.1350   37.5630 C   0  0  0  0  0  0  0  0  0  0  0  0
   17.7880  -27.2110   36.2840 C   0  0  0  0  0  0  0  0  0  0  0  0
   19.3530  -22.7059   39.3108 H   0  0  0  0  0  0  0  0  0  0  0  0
   19.9505  -21.6227   38.0084 H   0  0  0  0  0  0  0  0  0  0  0  0
   18.2390  -22.1679   38.0084 H   0  0  0  0  0  0  0  0  0  0  0  0
   19.8384  -23.3532   36.3716 H   0  0  0  0  0  0  0  0  0  0  0  0
   20.5700  -24.1141   37.8439 H   0  0  0  0  0  0  0  0  0  0  0  0
   16.8039  -25.0256   38.4871 H   0  0  0  0  0  0  0  0  0  0  0  0
   17.4410  -23.3419   38.5491 H   0  0  0  0  0  0  0  0  0  0  0  0
   15.4485  -23.4312   37.1155 H   0  0  0  0  0  0  0  0  0  0  0  0
   16.9048  -23.0808   36.1240 H   0  0  0  0  0  0  0  0  0  0  0  0
   16.1939  -24.7305   36.1240 H   0  0  0  0  0  0  0  0  0  0  0  0
   19.9943  -24.8973   39.7299 H   0  0  0  0  0  0  0  0  0  0  0  0
   23.8633  -29.5704   41.3970 H   0  0  0  0  0  0  0  0  0  0  0  0
   25.4020  -29.8128   43.3498 H   0  0  0  0  0  0  0  0  0  0  0  0
   25.0684  -28.4043   45.3858 H   0  0  0  0  0  0  0  0  0  0  0  0
   23.4810  -25.7360   45.7210 H   0  0  0  0  0  0  0  0  0  0  0  0
   19.6520  -24.3960   42.4010 H   0  0  0  0  0  0  0  0  0  0  0  0
   19.9396  -29.2100   39.9211 H   0  0  0  0  0  0  0  0  0  0  0  0
   18.6392  -29.2870   37.8053 H   0  0  0  0  0  0  0  0  0  0  0  0
   16.7184  -27.3139   36.5193 H   0  0  0  0  0  0  0  0  0  0  0  0
   17.9481  -26.2933   35.6990 H   0  0  0  0  0  0  0  0  0  0  0  0
   18.1202  -28.0813   35.6990 H   0  0  0  0  0  0  0  0  0  0  0  0
  1  2  1  0
  2  3  1  0
  3  4  1  0
  4  5  1  0
  3  6  1  0
  6  7  2  0
  7  8  1  0
  8  9  1  0
  9 10  1  0
 10 11  1  0
 11 12  2  0
 12 13  1  0
 13 14  2  0
 14 15  1  0
 15 16  1  0
 15 17  2  0
 17 18  1  0
 18 19  2  0
 18 20  1  0
 20 21  1  0
  8 22  2  0
 22 23  1  0
 23 24  2  0
 24 25  1  0
 24  6  1  0
 20  9  2  0
 17 11  1  0
  1 26  1  0
  1 27  1  0
  1 28  1  0
  2 29  1  0
  2 30  1  0
  4 31  1  0
  4 32  1  0
  5 33  1  0
  5 34  1  0
  5 35  1  0
  7 36  1  0
 12 37  1  0
 13 38  1  0
 14 39  1  0
 16 40  1  0
 21 41  1  0
 22 42  1  0
 23 43  1  0
 25 44  1  0
 25 45  1  0
 25 46  1  0
M  END
>  <meeko>  (5) 
{"is_sidechain": [false], "free_energy": -6.721, "intermolecular_energy": -8.668, "internal_energy": -0.363}

$$$$
cand_054_out
     RDKit          3D

 46 48  0  0  0  0  0  0  0  0999 V2000
   23.0380  -22.3350   49.0980 C   0  0  0  0  0  0  0  0  0  0  0  0
   22.2970  -22.4000   47.7700 C   0  0  0  0  0  0  0  0  0  0  0  0
   21.0180  -23.1290   47.8990 N   0  0  0  0  0  0  0  0  0  0  0  0
   21.1550  -24.5820   48.1250 C   0  0  0  0  0  0  0  0  0  0  0  0
   20.0380  -25.0790   49.0310 C   0  0  0  0  0  0  0  0  0  0  0  0
   20.1190  -22.8850   46.8270 C   0  0  0  0  0  0  0  0  0  0  0  0
   20.2940  -23.4750   45.5600 C   0  0  0  0  0  0  0  0  0  0  0  0
   19.3910  -23.2460   44.5110 C   0  0  0  0  0  0  0  0  0  0  0  0
   19.5880  -23.8450   43.1730 C   0  0  0  0  0  0  0  0  0  0  0  0
   19.8560  -25.2080   43.2260 O   0  0  0  0  0  0  0  0  0  0  0  0
   20.0590  -25.8910   42.0550 C   0  0  0  0  0  0  0  0  0  0  0  0
   20.3100  -27.2590   42.1540 C   0  0  0  0  0  0  0  0  0  0  0  0
   20.5270  -28.0130   40.9980 C   0  0  0  0  0  0  0  0  0  0  0  0
   20.4960  -27.3970   39.7450 C   0  0  0  0  0  0  0  0  0  0  0  0
   20.2470  -26.0320   39.6490 C   0  0  0  0  0  0  0  0  0  0  0  0
   20.2300  -25.4930   38.3910 O   0  0  0  0  0  0  0  0  0  0  0  0
   20.0270  -25.2780   40.8060 C   0  0  0  0  0  0  0  0  0  0  0  0
   19.7610  -23.8400   40.7490 C   0  0  0  0  0  0  0  0  0  0  0  0
   19.7240  -23.2260   39.6850 O   0  0  0  0  0  0  0  0  0  0  0  0
   19.5350  -23.1350   42.0310 C   0  0  0  0  0  0  0  0  0  0  0  0
   19.2970  -21.7730   41.9660 O   0  0  0  0  0  0  0  0  0  0  0  0
   18.3000  -22.3990   44.7400 C   0  0  0  0  0  0  0  0  0  0  0  0
   18.1050  -21.8140   45.9930 C   0  0  0  0  0  0  0  0  0  0  0  0
   19.0010  -22.0540   47.0420 C   0  0  0  0  0  0  0  0  0  0  0  0
   18.7620  -21.4160   48.3840 C   0  0  0  0  0  0  0  0  0  0  0  0
   22.3151  -22.3984   49.9247 H   0  0  0  0  0  0  0  0  0  0  0  0
   23.7457  -23.1745   49.1645 H   0  0  0  0  0  0  0  0  0  0  0  0
   23.5887  -21.3851   49.1645 H   0  0  0  0  0  0  0  0  0  0  0  0
   22.0916  -21.3760   47.4247 H   0  0  0  0  0  0  0  0  0  0  0  0
   22.9293  -22.9372   47.0477 H   0  0  0  0  0  0  0  0  0  0  0  0
   21.1010  -25.1068   47.1598 H   0  0  0  0  0  0  0  0  0  0  0  0
   22.1239  -24.7813   48.6063 H   0  0  0  0  0  0  0  0  0  0  0  0
   20.3330  -24.9477   50.0825 H   0  0  0  0  0  0  0  0  0  0  0  0
   19.1217  -24.5037   48.8327 H   0  0  0  0  0  0  0  0  0  0  0  0
   19.8519  -26.1448   48.8327 H   0  0  0  0  0  0  0  0  0  0  0  0
   21.1599  -24.1314   45.3888 H   0  0  0  0  0  0  0  0  0  0  0  0
   20.3371  -27.7439   43.1410 H   0  0  0  0  0  0  0  0  0  0  0  0
   20.7224  -29.0928   41.0748 H   0  0  0  0  0  0  0  0  0  0  0  0
   20.6683  -27.9907   38.8351 H   0  0  0  0  0  0  0  0  0  0  0  0
   19.9490  -26.0120   37.6630 H   0  0  0  0  0  0  0  0  0  0  0  0
   18.5610  -21.4480   41.4860 H   0  0  0  0  0  0  0  0  0  0  0  0
   17.5900  -22.1924   43.9256 H   0  0  0  0  0  0  0  0  0  0  0  0
   17.2380  -21.1574   46.1577 H   0  0  0  0  0  0  0  0  0  0  0  0
   19.0282  -22.1265   49.1804 H   0  0  0  0  0  0  0  0  0  0  0  0
   19.3826  -20.5125   48.4762 H   0  0  0  0  0  0  0  0  0  0  0  0
   17.7005  -21.1426   48.4762 H   0  0  0  0  0  0  0  0  0  0  0  0
  1  2  1  0
  2  3  1  0
  3  4  1  0
  4  5  1  0
  3  6  1  0
  6  7  2  0
  7  8  1  0
  8  9  1  0
  9 10  1  0
 10 11  1  0
 11 12  2  0
 12 13  1  0
 13 14  2  0
 14 15  1  0
 15 16  1  0
 15 17  2  0
 17 18  1  0
 18 19  2  0
 18 20  1  0
 20 21  1  0
  8 22  2  0
 22 23  1  0
 23 24  2  0
 24 25  1  0
 24  6  1  0
 20  9  2  0
 17 11  1  0
  1 26  1  0
  1 27  1  0
  1 28  1  0
  2 29  1  0
  2 30  1  0
  4 31  1  0
  4 32  1  0
  5 33  1  0
  5 34  1  0
  5 35  1  0
  7 36  1  0
 12 37  1  0
 13 38  1  0
 14 39  1  0
 16 40  1  0
 21 41  1  0
 22 42  1  0
 23 43  1  0
 25 44  1  0
 25 45  1  0
 25 46  1  0
M  END
>  <meeko>  (6) 
{"is_sidechain": [false], "free_energy": -6.66, "intermolecular_energy": -8.299, "internal_energy": -0.652}

$$$$
cand_054_out
     RDKit          3D

 46 48  0  0  0  0  0  0  0  0999 V2000
   22.4130  -27.8380   42.0820 C   0  0  0  0  0  0  0  0  0  0  0  0
   22.1780  -27.0680   40.7890 C   0  0  0  0  0  0  0  0  0  0  0  0
   20.7800  -26.6020   40.6830 N   0  0  0  0  0  0  0  0  0  0  0  0
   19.9270  -26.9390   41.8410 C   0  0  0  0  0  0  0  0  0  0  0  0
   19.7800  -25.7290   42.7530 C   0  0  0  0  0  0  0  0  0  0  0  0
   20.1440  -26.9990   39.4770 C   0  0  0  0  0  0  0  0  0  0  0  0
   20.1530  -28.3350   39.0330 C   0  0  0  0  0  0  0  0  0  0  0  0
   19.5050  -28.7230   37.8510 C   0  0  0  0  0  0  0  0  0  0  0  0
   19.5370  -30.1220   37.3720 C   0  0  0  0  0  0  0  0  0  0  0  0
   19.8360  -30.2210   36.0180 O   0  0  0  0  0  0  0  0  0  0  0  0
   19.8990  -31.4630   35.4410 C   0  0  0  0  0  0  0  0  0  0  0  0
   20.2160  -31.5170   34.0840 C   0  0  0  0  0  0  0  0  0  0  0  0
   20.2950  -32.7520   33.4350 C   0  0  0  0  0  0  0  0  0  0  0  0
   20.0540  -33.9310   34.1440 C   0  0  0  0  0  0  0  0  0  0  0  0
   19.7370  -33.8740   35.4980 C   0  0  0  0  0  0  0  0  0  0  0  0
   19.5140  -35.0670   36.1310 O   0  0  0  0  0  0  0  0  0  0  0  0
   19.6600  -32.6390   36.1470 C   0  0  0  0  0  0  0  0  0  0  0  0
   19.3300  -32.5350   37.5690 C   0  0  0  0  0  0  0  0  0  0  0  0
   19.0990  -33.5260   38.2590 O   0  0  0  0  0  0  0  0  0  0  0  0
   19.2810  -31.1800   38.1640 C   0  0  0  0  0  0  0  0  0  0  0  0
   18.9560  -31.0930   39.5050 O   0  0  0  0  0  0  0  0  0  0  0  0
   18.8470  -27.7440   37.0970 C   0  0  0  0  0  0  0  0  0  0  0  0
   18.8180  -26.4160   37.5270 C   0  0  0  0  0  0  0  0  0  0  0  0
   19.4540  -26.0330   38.7140 C   0  0  0  0  0  0  0  0  0  0  0  0
   19.4010  -24.5960   39.1570 C   0  0  0  0  0  0  0  0  0  0  0  0
   22.2126  -27.1813   42.9414 H   0  0  0  0  0  0  0  0  0  0  0  0
   21.7390  -28.7066   42.1192 H   0  0  0  0  0  0  0  0  0  0  0  0
   23.4571  -28.1822   42.1192 H   0  0  0  0  0  0  0  0  0  0  0  0
   22.8482  -26.1961   40.7653 H   0  0  0  0  0  0  0  0  0  0  0  0
   22.3823  -27.7419   39.9439 H   0  0  0  0  0  0  0  0  0  0  0  0
   18.9336  -27.2477   41.4834 H   0  0  0  0  0  0  0  0  0  0  0  0
   20.3939  -27.7599   42.4049 H   0  0  0  0  0  0  0  0  0  0  0  0
   19.8195  -26.0543   43.8030 H   0  0  0  0  0  0  0  0  0  0  0  0
   20.5987  -25.0209   42.5575 H   0  0  0  0  0  0  0  0  0  0  0  0
   18.8155  -25.2375   42.5575 H   0  0  0  0  0  0  0  0  0  0  0  0
   20.6817  -29.0940   39.6283 H   0  0  0  0  0  0  0  0  0  0  0  0
   20.4037  -30.5883   33.5251 H   0  0  0  0  0  0  0  0  0  0  0  0
   20.5471  -32.7957   32.3652 H   0  0  0  0  0  0  0  0  0  0  0  0
   20.1147  -34.9032   33.6330 H   0  0  0  0  0  0  0  0  0  0  0  0
   18.8170  -35.6260   35.8460 H   0  0  0  0  0  0  0  0  0  0  0  0
   18.2590  -30.5330   39.7830 H   0  0  0  0  0  0  0  0  0  0  0  0
   18.3483  -28.0236   36.1572 H   0  0  0  0  0  0  0  0  0  0  0  0
   18.2891  -25.6616   36.9260 H   0  0  0  0  0  0  0  0  0  0  0  0
   19.3993  -24.5510   40.2561 H   0  0  0  0  0  0  0  0  0  0  0  0
   20.2800  -24.0602   38.7694 H   0  0  0  0  0  0  0  0  0  0  0  0
   18.4849  -24.1264   38.7694 H   0  0  0  0  0  0  0  0  0  0  0  0
  1  2  1  0
  2  3  1  0
  3  4  1  0
  4  5  1  0
  3  6  1  0
  6  7  2  0
  7  8  1  0
  8  9  1  0
  9 10  1  0
 10 11  1  0
 11 12  2  0
 12 13  1  0
 13 14  2  0
 14 15  1  0
 15 16  1  0
 15 17  2  0
 17 18  1  0
 18 19  2  0
 18 20  1  0
 20 21  1  0
  8 22  2  0
 22 23  1  0
 23 24  2  0
 24 25  1  0
 24  6  1  0
 20  9  2  0
 17 11  1  0
  1 26  1  0
  1 27  1  0
  1 28  1  0
  2 29  1  0
  2 30  1  0
  4 31  1  0
  4 32  1  0
  5 33  1  0
  5 34  1  0
  5 35  1  0
  7 36  1  0
 12 37  1  0
 13 38  1  0
 14 39  1  0
 16 40  1  0
 21 41  1  0
 22 42  1  0
 23 43  1  0
 25 44  1  0
 25 45  1  0
 25 46  1  0
M  END
>  <meeko>  (7) 
{"is_sidechain": [false], "free_energy": -6.644, "intermolecular_energy": -8.481, "internal_energy": -0.449}

$$$$
cand_054_out
     RDKit          3D

 46 48  0  0  0  0  0  0  0  0999 V2000
   17.2200  -21.9500   43.9320 C   0  0  0  0  0  0  0  0  0  0  0  0
   18.3890  -21.4240   43.1100 C   0  0  0  0  0  0  0  0  0  0  0  0
   19.6280  -22.1780   43.3870 N   0  0  0  0  0  0  0  0  0  0  0  0
   20.8760  -21.4530   43.0720 C   0  0  0  0  0  0  0  0  0  0  0  0
   21.3240  -20.6340   44.2750 C   0  0  0  0  0  0  0  0  0  0  0  0
   19.6500  -23.4670   42.7910 C   0  0  0  0  0  0  0  0  0  0  0  0
   19.4290  -23.6550   41.4130 C   0  0  0  0  0  0  0  0  0  0  0  0
   19.4720  -24.9290   40.8280 C   0  0  0  0  0  0  0  0  0  0  0  0
   19.2140  -25.1290   39.3850 C   0  0  0  0  0  0  0  0  0  0  0  0
   18.0550  -24.4940   38.9520 O   0  0  0  0  0  0  0  0  0  0  0  0
   17.6950  -24.5970   37.6330 C   0  0  0  0  0  0  0  0  0  0  0  0
   16.5340  -23.9330   37.2390 C   0  0  0  0  0  0  0  0  0  0  0  0
   16.1110  -23.9980   35.9090 C   0  0  0  0  0  0  0  0  0  0  0  0
   16.8480  -24.7300   34.9760 C   0  0  0  0  0  0  0  0  0  0  0  0
   18.0060  -25.3930   35.3720 C   0  0  0  0  0  0  0  0  0  0  0  0
   18.6800  -26.0900   34.4070 O   0  0  0  0  0  0  0  0  0  0  0  0
   18.4300  -25.3250   36.7020 C   0  0  0  0  0  0  0  0  0  0  0  0
   19.6410  -26.0070   37.1600 C   0  0  0  0  0  0  0  0  0  0  0  0
   20.3400  -26.6750   36.4000 O   0  0  0  0  0  0  0  0  0  0  0  0
   20.0080  -25.8660   38.5880 C   0  0  0  0  0  0  0  0  0  0  0  0
   21.1480  -26.5250   39.0120 O   0  0  0  0  0  0  0  0  0  0  0  0
   19.7310  -26.0330   41.6480 C   0  0  0  0  0  0  0  0  0  0  0  0
   19.9640  -25.8660   43.0150 C   0  0  0  0  0  0  0  0  0  0  0  0
   19.9330  -24.5910   43.5950 C   0  0  0  0  0  0  0  0  0  0  0  0
   20.1950  -24.4390   45.0690 C   0  0  0  0  0  0  0  0  0  0  0  0
   17.4490  -21.8469   45.0029 H   0  0  0  0  0  0  0  0  0  0  0  0
   16.3147  -21.3725   43.6934 H   0  0  0  0  0  0  0  0  0  0  0  0
   17.0518  -23.0106   43.6934 H   0  0  0  0  0  0  0  0  0  0  0  0
   18.1452  -21.5172   42.0414 H   0  0  0  0  0  0  0  0  0  0  0  0
   18.5570  -20.3717   43.3830 H   0  0  0  0  0  0  0  0  0  0  0  0
   21.6619  -22.1775   42.8122 H   0  0  0  0  0  0  0  0  0  0  0  0
   20.6948  -20.7766   42.2236 H   0  0  0  0  0  0  0  0  0  0  0  0
   21.0387  -21.1556   45.2005 H   0  0  0  0  0  0  0  0  0  0  0  0
   22.4164  -20.5084   44.2468 H   0  0  0  0  0  0  0  0  0  0  0  0
   20.8405  -19.6464   44.2468 H   0  0  0  0  0  0  0  0  0  0  0  0
   19.2174  -22.7809   40.7796 H   0  0  0  0  0  0  0  0  0  0  0  0
   15.9517  -23.3586   37.9745 H   0  0  0  0  0  0  0  0  0  0  0  0
   15.1967  -23.4721   35.5967 H   0  0  0  0  0  0  0  0  0  0  0  0
   16.5139  -24.7827   33.9293 H   0  0  0  0  0  0  0  0  0  0  0  0
   18.3400  -26.1300   33.5340 H   0  0  0  0  0  0  0  0  0  0  0  0
   21.1870  -26.8850   39.8760 H   0  0  0  0  0  0  0  0  0  0  0  0
   19.7513  -27.0425   41.2116 H   0  0  0  0  0  0  0  0  0  0  0  0
   20.1740  -26.7446   43.6427 H   0  0  0  0  0  0  0  0  0  0  0  0
   19.3801  -24.9117   45.6369 H   0  0  0  0  0  0  0  0  0  0  0  0
   21.1489  -24.9239   45.3238 H   0  0  0  0  0  0  0  0  0  0  0  0
   20.2475  -23.3702   45.3238 H   0  0  0  0  0  0  0  0  0  0  0  0
  1  2  1  0
  2  3  1  0
  3  4  1  0
  4  5  1  0
  3  6  1  0
  6  7  2  0
  7  8  1  0
  8  9  1  0
  9 10  1  0
 10 11  1  0
 11 12  2  0
 12 13  1  0
 13 14  2  0
 14 15  1  0
 15 16  1  0
 15 17  2  0
 17 18  1  0
 18 19  2  0
 18 20  1  0
 20 21  1  0
  8 22  2  0
 22 23  1  0
 23 24  2  0
 24 25  1  0
 24  6  1  0
 20  9  2  0
 17 11  1  0
  1 26  1  0
  1 27  1  0
  1 28  1  0
  2 29  1  0
  2 30  1  0
  4 31  1  0
  4 32  1  0
  5 33  1  0
  5 34  1  0
  5 35  1  0
  7 36  1  0
 12 37  1  0
 13 38  1  0
 14 39  1  0
 16 40  1  0
 21 41  1  0
 22 42  1  0
 23 43  1  0
 25 44  1  0
 25 45  1  0
 25 46  1  0
M  END
>  <meeko>  (8) 
{"is_sidechain": [false], "free_energy": -6.62, "intermolecular_energy": -8.214, "internal_energy": -0.686}

$$$$
cand_054_out
     RDKit          3D

 46 48  0  0  0  0  0  0  0  0999 V2000
   17.8340  -24.4490   35.4000 C   0  0  0  0  0  0  0  0  0  0  0  0
   17.2680  -25.1160   36.6460 C   0  0  0  0  0  0  0  0  0  0  0  0
   18.2710  -25.1800   37.7290 N   0  0  0  0  0  0  0  0  0  0  0  0
   19.4480  -24.3110   37.5320 C   0  0  0  0  0  0  0  0  0  0  0  0
   19.2930  -23.0280   38.3360 C   0  0  0  0  0  0  0  0  0  0  0  0
   18.6870  -26.5030   38.0340 C   0  0  0  0  0  0  0  0  0  0  0  0
   18.9770  -27.4450   37.0270 C   0  0  0  0  0  0  0  0  0  0  0  0
   19.4070  -28.7440   37.3350 C   0  0  0  0  0  0  0  0  0  0  0  0
   19.6860  -29.7400   36.2790 C   0  0  0  0  0  0  0  0  0  0  0  0
   19.4500  -31.0460   36.6930 O   0  0  0  0  0  0  0  0  0  0  0  0
   19.6680  -32.0720   35.8100 C   0  0  0  0  0  0  0  0  0  0  0  0
   19.4050  -33.3640   36.2640 C   0  0  0  0  0  0  0  0  0  0  0  0
   19.6070  -34.4550   35.4150 C   0  0  0  0  0  0  0  0  0  0  0  0
   20.0750  -34.2520   34.1140 C   0  0  0  0  0  0  0  0  0  0  0  0
   20.3380  -32.9610   33.6660 C   0  0  0  0  0  0  0  0  0  0  0  0
   20.7930  -32.8340   32.3810 O   0  0  0  0  0  0  0  0  0  0  0  0
   20.1330  -31.8700   34.5150 C   0  0  0  0  0  0  0  0  0  0  0  0
   20.3970  -30.4970   34.0820 C   0  0  0  0  0  0  0  0  0  0  0  0
   20.8160  -30.2380   32.9550 O   0  0  0  0  0  0  0  0  0  0  0  0
   20.1410  -29.4110   35.0550 C   0  0  0  0  0  0  0  0  0  0  0  0
   20.4050  -28.1190   34.6400 O   0  0  0  0  0  0  0  0  0  0  0  0
   19.5360  -29.1030   38.6820 C   0  0  0  0  0  0  0  0  0  0  0  0
   19.2640  -28.1800   39.6940 C   0  0  0  0  0  0  0  0  0  0  0  0
   18.8470  -26.8800   39.3840 C   0  0  0  0  0  0  0  0  0  0  0  0
   18.5680  -25.9030   40.4940 C   0  0  0  0  0  0  0  0  0  0  0  0
   18.5195  -23.6412   35.6958 H   0  0  0  0  0  0  0  0  0  0  0  0
   18.3805  -25.1931   34.8020 H   0  0  0  0  0  0  0  0  0  0  0  0
   17.0109  -24.0308   34.8020 H   0  0  0  0  0  0  0  0  0  0  0  0
   16.3994  -24.5394   36.9969 H   0  0  0  0  0  0  0  0  0  0  0  0
   16.9760  -26.1439   36.3848 H   0  0  0  0  0  0  0  0  0  0  0  0
   20.3518  -24.8420   37.8653 H   0  0  0  0  0  0  0  0  0  0  0  0
   19.5337  -24.0583   36.4648 H   0  0  0  0  0  0  0  0  0  0  0  0
   19.3214  -23.2628   39.4103 H   0  0  0  0  0  0  0  0  0  0  0  0
   20.1145  -22.3392   38.0894 H   0  0  0  0  0  0  0  0  0  0  0  0
   18.3311  -22.5547   38.0894 H   0  0  0  0  0  0  0  0  0  0  0  0
   18.8632  -27.1541   35.9723 H   0  0  0  0  0  0  0  0  0  0  0  0
   19.0391  -33.5239   37.2890 H   0  0  0  0  0  0  0  0  0  0  0  0
   19.3975  -35.4745   35.7709 H   0  0  0  0  0  0  0  0  0  0  0  0
   20.2351  -35.1108   33.4455 H   0  0  0  0  0  0  0  0  0  0  0  0
   21.3970  -33.4620   32.0340 H   0  0  0  0  0  0  0  0  0  0  0  0
   19.8020  -27.4300   34.8370 H   0  0  0  0  0  0  0  0  0  0  0  0
   19.8548  -30.1222   38.9458 H   0  0  0  0  0  0  0  0  0  0  0  0
   19.3787  -28.4778   40.7467 H   0  0  0  0  0  0  0  0  0  0  0  0
   18.7101  -26.4005   41.4647 H   0  0  0  0  0  0  0  0  0  0  0  0
   19.2586  -25.0505   40.4143 H   0  0  0  0  0  0  0  0  0  0  0  0
   17.5314  -25.5438   40.4143 H   0  0  0  0  0  0  0  0  0  0  0  0
  1  2  1  0
  2  3  1  0
  3  4  1  0
  4  5  1  0
  3  6  1  0
  6  7  2  0
  7  8  1  0
  8  9  1  0
  9 10  1  0
 10 11  1  0
 11 12  2  0
 12 13  1  0
 13 14  2  0
 14 15  1  0
 15 16  1  0
 15 17  2  0
 17 18  1  0
 18 19  2  0
 18 20  1  0
 20 21  1  0
  8 22  2  0
 22 23  1  0
 23 24  2  0
 24 25  1  0
 24  6  1  0
 20  9  2  0
 17 11  1  0
  1 26  1  0
  1 27  1  0
  1 28  1  0
  2 29  1  0
  2 30  1  0
  4 31  1  0
  4 32  1  0
  5 33  1  0
  5 34  1  0
  5 35  1  0
  7 36  1  0
 12 37  1  0
 13 38  1  0
 14 39  1  0
 16 40  1  0
 21 41  1  0
 22 42  1  0
 23 43  1  0
 25 44  1  0
 25 45  1  0
 25 46  1  0
M  END
>  <meeko>  (9) 
{"is_sidechain": [false], "free_energy": -6.56, "intermolecular_energy": -8.601, "internal_energy": -0.221}

$$$$
