cand_015_out
     RDKit          3D

 36 38  0  0  0  0  0  0  0  0999 V2000
   19.6860  -23.9670   40.4660 C   0  0  0  0  0  0  0  0  0  0  0  0
   19.3740  -25.1290   41.0500 C   0  0  0  0  0  0  0  0  0  0  0  0
   19.0430  -25.1080   42.3600 F   0  0  0  0  0  0  0  0  0  0  0  0
   19.3990  -26.4380   40.3750 C   0  0  0  0  0  0  0  0  0  0  0  0
   18.4620  -26.7160   39.3640 C   0  0  0  0  0  0  0  0  0  0  0  0
   18.4380  -27.9570   38.7190 C   0  0  0  0  0  0  0  0  0  0  0  0
   19.3490  -28.9580   39.0640 C   0  0  0  0  0  0  0  0  0  0  0  0
   19.3260  -30.2890   38.4200 C   0  0  0  0  0  0  0  0  0  0  0  0
   18.9580  -31.3060   39.2940 O   0  0  0  0  0  0  0  0  0  0  0  0
   18.8960  -32.5930   38.8240 C   0  0  0  0  0  0  0  0  0  0  0  0
   18.5090  -33.5800   39.7330 C   0  0  0  0  0  0  0  0  0  0  0  0
   18.4270  -34.9120   39.3200 C   0  0  0  0  0  0  0  0  0  0  0  0
   18.7330  -35.2570   38.0020 C   0  0  0  0  0  0  0  0  0  0  0  0
   19.1190  -34.2700   37.0980 C   0  0  0  0  0  0  0  0  0  0  0  0
   19.4040  -34.6760   35.8240 O   0  0  0  0  0  0  0  0  0  0  0  0
   19.1990  -32.9370   37.5120 C   0  0  0  0  0  0  0  0  0  0  0  0
   19.6010  -31.8690   36.5940 C   0  0  0  0  0  0  0  0  0  0  0  0
   19.8930  -32.0930   35.4210 O   0  0  0  0  0  0  0  0  0  0  0  0
   19.6480  -30.4890   37.1300 C   0  0  0  0  0  0  0  0  0  0  0  0
   20.0410  -29.4890   36.2580 O   0  0  0  0  0  0  0  0  0  0  0  0
   20.2750  -28.6910   40.0840 C   0  0  0  0  0  0  0  0  0  0  0  0
   20.3200  -27.4430   40.7380 C   0  0  0  0  0  0  0  0  0  0  0  0
   21.3430  -27.2350   41.8230 C   0  0  0  0  0  0  0  0  0  0  0  0
   19.9608  -23.9429   39.4012 H   0  0  0  0  0  0  0  0  0  0  0  0
   19.6678  -23.0353   41.0505 H   0  0  0  0  0  0  0  0  0  0  0  0
   17.7344  -25.9433   39.0750 H   0  0  0  0  0  0  0  0  0  0  0  0
   17.6937  -28.1466   37.9316 H   0  0  0  0  0  0  0  0  0  0  0  0
   18.2693  -33.3092   40.7719 H   0  0  0  0  0  0  0  0  0  0  0  0
   18.1208  -35.6904   40.0343 H   0  0  0  0  0  0  0  0  0  0  0  0
   18.6694  -36.3063   37.6782 H   0  0  0  0  0  0  0  0  0  0  0  0
   20.1100  -35.2720   35.6690 H   0  0  0  0  0  0  0  0  0  0  0  0
   19.7150  -28.6180   36.3670 H   0  0  0  0  0  0  0  0  0  0  0  0
   20.9850  -29.4768   40.3813 H   0  0  0  0  0  0  0  0  0  0  0  0
   20.8598  -27.3333   42.8063 H   0  0  0  0  0  0  0  0  0  0  0  0
   22.1373  -27.9900   41.7277 H   0  0  0  0  0  0  0  0  0  0  0  0
   21.7794  -26.2298   41.7277 H   0  0  0  0  0  0  0  0  0  0  0  0
  1  2  2  0
  2  3  1  0
  2  4  1  0
  4  5  2  0
  5  6  1  0
  6  7  2  0
  7  8  1  0
  8  9  1  0
  9 10  1  0
 10 11  2  0
 11 12  1  0
 12 13  2  0
 13 14  1  0
 14 15  1  0
 14 16  2  0
 16 17  1  0
 17 18  2  0
 17 19  1  0
 19 20  1  0
  7 21  1  0
 21 22  2  0
 22 23  1  0
 22  4  1  0
 19  8  2  0
 16 10  1  0
  1 24  1  0
  1 25  1  0
  5 26  1  0
  6 27  1  0
 11 28  1  0
 12 29  1  0
 13 30  1  0
 15 31  1  0
 20 32  1  0
 21 33  1  0
 23 34  1  0
 23 35  1  0
 23 36  1  0
M  END
>  <meeko>  (1) 
{"is_sidechain": [false], "free_energy": -7.936, "intermolecular_energy": -9.328, "internal_energy": -0.468}

$$$$
cand_015_out
     RDKit          3D

 36 38  0  0  0  0  0  0  0  0999 V2000
   19.4150  -33.9500   34.9270 C   0  0  0  0  0  0  0  0  0  0  0  0
   19.6210  -33.8250   36.2420 C   0  0  0  0  0  0  0  0  0  0  0  0
   19.9510  -34.9360   36.9380 F   0  0  0  0  0  0  0  0  0  0  0  0
   19.4790  -32.5670   36.9950 C   0  0  0  0  0  0  0  0  0  0  0  0
   19.9750  -31.3700   36.4480 C   0  0  0  0  0  0  0  0  0  0  0  0
   19.8820  -30.1610   37.1450 C   0  0  0  0  0  0  0  0  0  0  0  0
   19.2910  -30.1100   38.4110 C   0  0  0  0  0  0  0  0  0  0  0  0
   19.2090  -28.8520   39.1820 C   0  0  0  0  0  0  0  0  0  0  0  0
   20.1040  -28.8090   40.2450 O   0  0  0  0  0  0  0  0  0  0  0  0
   20.1310  -27.6950   41.0440 C   0  0  0  0  0  0  0  0  0  0  0  0
   21.0560  -27.6890   42.0900 C   0  0  0  0  0  0  0  0  0  0  0  0
   21.1340  -26.5860   42.9440 C   0  0  0  0  0  0  0  0  0  0  0  0
   20.2900  -25.4910   42.7510 C   0  0  0  0  0  0  0  0  0  0  0  0
   19.3690  -25.5000   41.7070 C   0  0  0  0  0  0  0  0  0  0  0  0
   18.5730  -24.3950   41.5750 O   0  0  0  0  0  0  0  0  0  0  0  0
   19.2910  -26.6040   40.8520 C   0  0  0  0  0  0  0  0  0  0  0  0
   18.3380  -26.6530   39.7430 C   0  0  0  0  0  0  0  0  0  0  0  0
   17.5570  -25.7320   39.5130 O   0  0  0  0  0  0  0  0  0  0  0  0
   18.3400  -27.8660   38.8930 C   0  0  0  0  0  0  0  0  0  0  0  0
   17.4270  -27.9080   37.8550 O   0  0  0  0  0  0  0  0  0  0  0  0
   18.8110  -31.3050   38.9670 C   0  0  0  0  0  0  0  0  0  0  0  0
   18.8870  -32.5300   38.2750 C   0  0  0  0  0  0  0  0  0  0  0  0
   18.3490  -33.7690   38.9420 C   0  0  0  0  0  0  0  0  0  0  0  0
   19.1448  -33.0689   34.3264 H   0  0  0  0  0  0  0  0  0  0  0  0
   19.5157  -34.9339   34.4456 H   0  0  0  0  0  0  0  0  0  0  0  0
   20.4448  -31.3849   35.4535 H   0  0  0  0  0  0  0  0  0  0  0  0
   20.2782  -29.2402   36.6921 H   0  0  0  0  0  0  0  0  0  0  0  0
   21.7221  -28.5512   42.2414 H   0  0  0  0  0  0  0  0  0  0  0  0
   21.8612  -26.5804   43.7693 H   0  0  0  0  0  0  0  0  0  0  0  0
   20.3525  -24.6222   43.4228 H   0  0  0  0  0  0  0  0  0  0  0  0
   18.6470  -23.6890   42.1870 H   0  0  0  0  0  0  0  0  0  0  0  0
   17.4960  -28.5710   37.1970 H   0  0  0  0  0  0  0  0  0  0  0  0
   18.3627  -31.2852   39.9713 H   0  0  0  0  0  0  0  0  0  0  0  0
   18.4009  -33.6494   40.0342 H   0  0  0  0  0  0  0  0  0  0  0  0
   17.3028  -33.9234   38.6394 H   0  0  0  0  0  0  0  0  0  0  0  0
   18.9504  -34.6389   38.6394 H   0  0  0  0  0  0  0  0  0  0  0  0
  1  2  2  0
  2  3  1  0
  2  4  1  0
  4  5  2  0
  5  6  1  0
  6  7  2  0
  7  8  1  0
  8  9  1  0
  9 10  1  0
 10 11  2  0
 11 12  1  0
 12 13  2  0
 13 14  1  0
 14 15  1  0
 14 16  2  0
 16 17  1  0
 17 18  2  0
 17 19  1  0
 19 20  1  0
  7 21  1  0
 21 22  2  0
 22 23  1  0
 22  4  1  0
 19  8  2  0
 16 10  1  0
  1 24  1  0
  1 25  1  0
  5 26  1  0
  6 27  1  0
 11 28  1  0
 12 29  1  0
 13 30  1  0
 15 31  1  0
 20 32  1  0
 21 33  1  0
 23 34  1  0
 23 35  1  0
 23 36  1  0
M  END
>  <meeko>  (2) 
{"is_sidechain": [false], "free_energy": -7.693, "intermolecular_energy": -9.271, "internal_energy": -0.239}

$$$$
cand_015_out
     RDKit          3D

 36 38  0  0  0  0  0  0  0  0999 V2000
   18.6060  -27.7570   35.0520 C   0  0  0  0  0  0  0  0  0  0  0  0
   18.1250  -27.4130   36.2510 C   0  0  0  0  0  0  0  0  0  0  0  0
   16.8230  -27.0580   36.3310 F   0  0  0  0  0  0  0  0  0  0  0  0
   18.9220  -27.3590   37.4890 C   0  0  0  0  0  0  0  0  0  0  0  0
   19.0840  -28.5220   38.2620 C   0  0  0  0  0  0  0  0  0  0  0  0
   19.8120  -28.5030   39.4570 C   0  0  0  0  0  0  0  0  0  0  0  0
   20.4000  -27.3220   39.9150 C   0  0  0  0  0  0  0  0  0  0  0  0
   21.1470  -27.2680   41.1900 C   0  0  0  0  0  0  0  0  0  0  0  0
   22.1790  -28.1970   41.2510 O   0  0  0  0  0  0  0  0  0  0  0  0
   22.9530  -28.2540   42.3810 C   0  0  0  0  0  0  0  0  0  0  0  0
   23.9870  -29.1930   42.3940 C   0  0  0  0  0  0  0  0  0  0  0  0
   24.8120  -29.3040   43.5160 C   0  0  0  0  0  0  0  0  0  0  0  0
   24.6050  -28.4790   44.6230 C   0  0  0  0  0  0  0  0  0  0  0  0
   23.5730  -27.5440   44.6070 C   0  0  0  0  0  0  0  0  0  0  0  0
   23.4250  -26.7670   45.7240 O   0  0  0  0  0  0  0  0  0  0  0  0
   22.7480  -27.4320   43.4840 C   0  0  0  0  0  0  0  0  0  0  0  0
   21.6530  -26.4620   43.4270 C   0  0  0  0  0  0  0  0  0  0  0  0
   21.4020  -25.7060   44.3630 O   0  0  0  0  0  0  0  0  0  0  0  0
   20.8410  -26.4200   42.1880 C   0  0  0  0  0  0  0  0  0  0  0  0
   19.8010  -25.5090   42.1490 O   0  0  0  0  0  0  0  0  0  0  0  0
   20.2260  -26.1550   39.1560 C   0  0  0  0  0  0  0  0  0  0  0  0
   19.5040  -26.1580   37.9450 C   0  0  0  0  0  0  0  0  0  0  0  0
   19.3630  -24.8630   37.1890 C   0  0  0  0  0  0  0  0  0  0  0  0
   19.6604  -28.0519   34.9464 H   0  0  0  0  0  0  0  0  0  0  0  0
   17.9473  -27.7451   34.1711 H   0  0  0  0  0  0  0  0  0  0  0  0
   18.6302  -29.4643   37.9212 H   0  0  0  0  0  0  0  0  0  0  0  0
   19.9223  -29.4281   40.0418 H   0  0  0  0  0  0  0  0  0  0  0  0
   24.1514  -29.8438   41.5225 H   0  0  0  0  0  0  0  0  0  0  0  0
   25.6266  -30.0432   43.5272 H   0  0  0  0  0  0  0  0  0  0  0  0
   25.2554  -28.5672   45.5057 H   0  0  0  0  0  0  0  0  0  0  0  0
   22.6800  -26.2070   45.8090 H   0  0  0  0  0  0  0  0  0  0  0  0
   19.5970  -25.0650   41.3500 H   0  0  0  0  0  0  0  0  0  0  0  0
   20.6646  -25.2124   39.5153 H   0  0  0  0  0  0  0  0  0  0  0  0
   19.2723  -24.0302   37.9019 H   0  0  0  0  0  0  0  0  0  0  0  0
   20.2497  -24.7093   36.5565 H   0  0  0  0  0  0  0  0  0  0  0  0
   18.4640  -24.9037   36.5565 H   0  0  0  0  0  0  0  0  0  0  0  0
  1  2  2  0
  2  3  1  0
  2  4  1  0
  4  5  2  0
  5  6  1  0
  6  7  2  0
  7  8  1  0
  8  9  1  0
  9 10  1  0
 10 11  2  0
 11 12  1  0
 12 13  2  0
 13 14  1  0
 14 15  1  0
 14 16  2  0
 16 17  1  0
 17 18  2  0
 17 19  1  0
 19 20  1  0
  7 21  1  0
 21 22  2  0
 22 23  1  0
 22  4  1  0
 19  8  2  0
 16 10  1  0
  1 24  1  0
  1 25  1  0
  5 26  1  0
  6 27  1  0
 11 28  1  0
 12 29  1  0
 13 30  1  0
 15 31  1  0
 20 32  1  0
 21 33  1  0
 23 34  1  0
 23 35  1  0
 23 36  1  0
M  END
>  <meeko>  (3) 
{"is_sidechain": [false], "free_energy": -7.094, "intermolecular_energy": -8.468, "internal_energy": -0.338}

$$$$
cand_015_out
     RDKit          3D

 36 38  0  0  0  0  0  0  0  0999 V2000
   19.4260  -24.4030   41.0000 C   0  0  0  0  0  0  0  0  0  0  0  0
   19.3640  -25.6650   41.4360 C   0  0  0  0  0  0  0  0  0  0  0  0
   19.2860  -25.8700   42.7700 F   0  0  0  0  0  0  0  0  0  0  0  0
   19.4100  -26.8530   40.5660 C   0  0  0  0  0  0  0  0  0  0  0  0
   18.3790  -27.0730   39.6350 C   0  0  0  0  0  0  0  0  0  0  0  0
   18.3750  -28.2040   38.8110 C   0  0  0  0  0  0  0  0  0  0  0  0
   19.4000  -29.1490   38.8930 C   0  0  0  0  0  0  0  0  0  0  0  0
   19.4040  -30.3680   38.0560 C   0  0  0  0  0  0  0  0  0  0  0  0
   19.9550  -30.1580   36.7970 O   0  0  0  0  0  0  0  0  0  0  0  0
   20.0200  -31.2080   35.9180 C   0  0  0  0  0  0  0  0  0  0  0  0
   20.5940  -30.9560   34.6700 C   0  0  0  0  0  0  0  0  0  0  0  0
   20.6890  -31.9820   33.7270 C   0  0  0  0  0  0  0  0  0  0  0  0
   20.2100  -33.2580   34.0300 C   0  0  0  0  0  0  0  0  0  0  0  0
   19.6380  -33.5070   35.2750 C   0  0  0  0  0  0  0  0  0  0  0  0
   19.1900  -34.7780   35.5060 O   0  0  0  0  0  0  0  0  0  0  0  0
   19.5440  -32.4800   36.2190 C   0  0  0  0  0  0  0  0  0  0  0  0
   18.9510  -32.7000   37.5390 C   0  0  0  0  0  0  0  0  0  0  0  0
   18.5010  -33.7920   37.8780 O   0  0  0  0  0  0  0  0  0  0  0  0
   18.9050  -31.5470   38.4680 C   0  0  0  0  0  0  0  0  0  0  0  0
   18.3300  -31.7620   39.7080 O   0  0  0  0  0  0  0  0  0  0  0  0
   20.4210  -28.9430   39.8320 C   0  0  0  0  0  0  0  0  0  0  0  0
   20.4470  -27.8050   40.6630 C   0  0  0  0  0  0  0  0  0  0  0  0
   21.5780  -27.6570   41.6460 C   0  0  0  0  0  0  0  0  0  0  0  0
   19.4903  -24.1962   39.9215 H   0  0  0  0  0  0  0  0  0  0  0  0
   19.4127  -23.5712   41.7197 H   0  0  0  0  0  0  0  0  0  0  0  0
   17.5607  -26.3425   39.5531 H   0  0  0  0  0  0  0  0  0  0  0  0
   17.5561  -28.3502   38.0913 H   0  0  0  0  0  0  0  0  0  0  0  0
   20.9708  -29.9508   34.4300 H   0  0  0  0  0  0  0  0  0  0  0  0
   21.1419  -31.7844   32.7442 H   0  0  0  0  0  0  0  0  0  0  0  0
   20.2843  -34.0653   33.2865 H   0  0  0  0  0  0  0  0  0  0  0  0
   18.3060  -34.9210   35.7790 H   0  0  0  0  0  0  0  0  0  0  0  0
   17.4090  -31.9220   39.7760 H   0  0  0  0  0  0  0  0  0  0  0  0
   21.2234  -29.6900   39.9224 H   0  0  0  0  0  0  0  0  0  0  0  0
   21.1821  -27.7088   42.6710 H   0  0  0  0  0  0  0  0  0  0  0  0
   22.3056  -28.4676   41.4926 H   0  0  0  0  0  0  0  0  0  0  0  0
   22.0725  -26.6865   41.4926 H   0  0  0  0  0  0  0  0  0  0  0  0
  1  2  2  0
  2  3  1  0
  2  4  1  0
  4  5  2  0
  5  6  1  0
  6  7  2  0
  7  8  1  0
  8  9  1  0
  9 10  1  0
 10 11  2  0
 11 12  1  0
 12 13  2  0
 13 14  1  0
 14 15  1  0
 14 16  2  0
 16 17  1  0
 17 18  2  0
 17 19  1  0
 19 20  1  0
  7 21  1  0
 21 22  2  0
 22 23  1  0
 22  4  1  0
 19  8  2  0
 16 10  1  0
  1 24  1  0
  1 25  1  0
  5 26  1  0
  6 27  1  0
 11 28  1  0
 12 29  1  0
 13 30  1  0
 15 31  1  0
 20 32  1  0
 21 33  1  0
 23 34  1  0
 23 35  1  0
 23 36  1  0
M  END
>  <meeko>  (4) 
{"is_sidechain": [false], "free_energy": -7.008, "intermolecular_energy": -8.199, "internal_energy": -0.505}

$$$$
cand_015_out
     RDKit          3D

 36 38  0  0  0  0  0  0  0  0999 V2000
   19.7120  -34.8980   38.4320 C   0  0  0  0  0  0  0  0  0  0  0  0
   19.0530  -33.9800   37.7180 C   0  0  0  0  0  0  0  0  0  0  0  0
   18.2390  -34.4140   36.7300 F   0  0  0  0  0  0  0  0  0  0  0  0
   19.1780  -32.5240   37.9070 C   0  0  0  0  0  0  0  0  0  0  0  0
   18.7910  -31.9480   39.1290 C   0  0  0  0  0  0  0  0  0  0  0  0
   18.8700  -30.5660   39.3370 C   0  0  0  0  0  0  0  0  0  0  0  0
   19.3380  -29.7190   38.3280 C   0  0  0  0  0  0  0  0  0  0  0  0
   19.4020  -28.2530   38.5100 C   0  0  0  0  0  0  0  0  0  0  0  0
   18.7010  -27.5560   37.5330 O   0  0  0  0  0  0  0  0  0  0  0  0
   18.6790  -26.1860   37.5830 C   0  0  0  0  0  0  0  0  0  0  0  0
   17.9510  -25.5280   36.5900 C   0  0  0  0  0  0  0  0  0  0  0  0
   17.8890  -24.1320   36.5820 C   0  0  0  0  0  0  0  0  0  0  0  0
   18.5550  -23.3960   37.5650 C   0  0  0  0  0  0  0  0  0  0  0  0
   19.2800  -24.0560   38.5540 C   0  0  0  0  0  0  0  0  0  0  0  0
   19.9070  -23.2740   39.4850 O   0  0  0  0  0  0  0  0  0  0  0  0
   19.3400  -25.4520   38.5620 C   0  0  0  0  0  0  0  0  0  0  0  0
   20.0910  -26.1840   39.5830 C   0  0  0  0  0  0  0  0  0  0  0  0
   20.7090  -25.6080   40.4760 O   0  0  0  0  0  0  0  0  0  0  0  0
   20.0870  -27.6630   39.5060 C   0  0  0  0  0  0  0  0  0  0  0  0
   20.8100  -28.3450   40.4690 O   0  0  0  0  0  0  0  0  0  0  0  0
   19.7080  -30.2890   37.1010 C   0  0  0  0  0  0  0  0  0  0  0  0
   19.6440  -31.6790   36.8780 C   0  0  0  0  0  0  0  0  0  0  0  0
   20.0590  -32.2120   35.5330 C   0  0  0  0  0  0  0  0  0  0  0  0
   20.3839  -34.5845   39.2445 H   0  0  0  0  0  0  0  0  0  0  0  0
   19.5824  -35.9669   38.2070 H   0  0  0  0  0  0  0  0  0  0  0  0
   18.4191  -32.5951   39.9370 H   0  0  0  0  0  0  0  0  0  0  0  0
   18.5608  -30.1422   40.3039 H   0  0  0  0  0  0  0  0  0  0  0  0
   17.4272  -26.1073   35.8154 H   0  0  0  0  0  0  0  0  0  0  0  0
   17.3151  -23.6120   35.8008 H   0  0  0  0  0  0  0  0  0  0  0  0
   18.5068  -22.2971   37.5578 H   0  0  0  0  0  0  0  0  0  0  0  0
   19.9600  -22.3470   39.3600 H   0  0  0  0  0  0  0  0  0  0  0  0
   21.1890  -27.8790   41.1880 H   0  0  0  0  0  0  0  0  0  0  0  0
   20.0578  -29.6329   36.2904 H   0  0  0  0  0  0  0  0  0  0  0  0
   20.7295  -33.0731   35.6708 H   0  0  0  0  0  0  0  0  0  0  0  0
   19.1668  -32.5280   34.9726 H   0  0  0  0  0  0  0  0  0  0  0  0
   20.5841  -31.4244   34.9726 H   0  0  0  0  0  0  0  0  0  0  0  0
  1  2  2  0
  2  3  1  0
  2  4  1  0
  4  5  2  0
  5  6  1  0
  6  7  2  0
  7  8  1  0
  8  9  1  0
  9 10  1  0
 10 11  2  0
 11 12  1  0
 12 13  2  0
 13 14  1  0
 14 15  1  0
 14 16  2  0
 16 17  1  0
 17 18  2  0
 17 19  1  0
 19 20  1  0
  7 21  1  0
 21 22  2  0
 22 23  1  0
 22  4  1  0
 19  8  2  0
 16 10  1  0
  1 24  1  0
  1 25  1  0
  5 26  1  0
  6 27  1  0
 11 28  1  0
 12 29  1  0
 13 30  1  0
 15 31  1  0
 20 32  1  0
 21 33  1  0
 23 34  1  0
 23 35  1  0
 23 36  1  0
M  END
>  <meeko>  (5) 
{"is_sidechain": [false], "free_energy": -6.991, "intermolecular_energy": -8.36, "internal_energy": -0.325}

$$$$
cand_015_out
     RDKit          3D

 36 38  0  0  0  0  0  0  0  0999 V2000
   23.4040  -26.8150   45.3520 C   0  0  0  0  0  0  0  0  0  0  0  0
   22.6150  -27.6450   44.6620 C   0  0  0  0  0  0  0  0  0  0  0  0
   22.3630  -28.8630   45.1910 F   0  0  0  0  0  0  0  0  0  0  0  0
   22.0290  -27.3400   43.3450 C   0  0  0  0  0  0  0  0  0  0  0  0
   20.8860  -26.5250   43.2660 C   0  0  0  0  0  0  0  0  0  0  0  0
   20.2850  -26.2360   42.0360 C   0  0  0  0  0  0  0  0  0  0  0  0
   20.8080  -26.7530   40.8480 C   0  0  0  0  0  0  0  0  0  0  0  0
   20.1750  -26.4880   39.5380 C   0  0  0  0  0  0  0  0  0  0  0  0
   19.9600  -25.1340   39.3060 O   0  0  0  0  0  0  0  0  0  0  0  0
   19.3770  -24.7490   38.1260 C   0  0  0  0  0  0  0  0  0  0  0  0
   19.1940  -23.3790   37.9270 C   0  0  0  0  0  0  0  0  0  0  0  0
   18.6040  -22.9190   36.7480 C   0  0  0  0  0  0  0  0  0  0  0  0
   18.1980  -23.8270   35.7680 C   0  0  0  0  0  0  0  0  0  0  0  0
   18.3830  -25.1930   35.9680 C   0  0  0  0  0  0  0  0  0  0  0  0
   17.9630  -26.0270   34.9680 O   0  0  0  0  0  0  0  0  0  0  0  0
   18.9740  -25.6530   37.1480 C   0  0  0  0  0  0  0  0  0  0  0  0
   19.1860  -27.0790   37.3980 C   0  0  0  0  0  0  0  0  0  0  0  0
   18.8500  -27.9400   36.5880 O   0  0  0  0  0  0  0  0  0  0  0  0
   19.8260  -27.4610   38.6780 C   0  0  0  0  0  0  0  0  0  0  0  0
   20.0110  -28.8130   38.9100 O   0  0  0  0  0  0  0  0  0  0  0  0
   21.9380  -27.5810   40.9240 C   0  0  0  0  0  0  0  0  0  0  0  0
   22.5610  -27.8750   42.1540 C   0  0  0  0  0  0  0  0  0  0  0  0
   23.7700  -28.7730   42.1510 C   0  0  0  0  0  0  0  0  0  0  0  0
   23.6322  -25.8152   44.9541 H   0  0  0  0  0  0  0  0  0  0  0  0
   23.8249  -27.1319   46.3176 H   0  0  0  0  0  0  0  0  0  0  0  0
   20.4563  -26.1069   44.1883 H   0  0  0  0  0  0  0  0  0  0  0  0
   19.3915  -25.5952   42.0040 H   0  0  0  0  0  0  0  0  0  0  0  0
   19.5143  -22.6630   38.6982 H   0  0  0  0  0  0  0  0  0  0  0  0
   18.4589  -21.8400   36.5910 H   0  0  0  0  0  0  0  0  0  0  0  0
   17.7328  -23.4642   34.8396 H   0  0  0  0  0  0  0  0  0  0  0  0
   17.4980  -26.8130   35.1770 H   0  0  0  0  0  0  0  0  0  0  0  0
   20.8700  -29.1840   38.8590 H   0  0  0  0  0  0  0  0  0  0  0  0
   22.3488  -28.0123   39.9992 H   0  0  0  0  0  0  0  0  0  0  0  0
   24.0660  -28.9929   43.1874 H   0  0  0  0  0  0  0  0  0  0  0  0
   23.5280  -29.7120   41.6317 H   0  0  0  0  0  0  0  0  0  0  0  0
   24.5991  -28.2700   41.6317 H   0  0  0  0  0  0  0  0  0  0  0  0
  1  2  2  0
  2  3  1  0
  2  4  1  0
  4  5  2  0
  5  6  1  0
  6  7  2  0
  7  8  1  0
  8  9  1  0
  9 10  1  0
 10 11  2  0
 11 12  1  0
 12 13  2  0
 13 14  1  0
 14 15  1  0
 14 16  2  0
 16 17  1  0
 17 18  2  0
 17 19  1  0
 19 20  1  0
  7 21  1  0
 21 22  2  0
 22 23  1  0
 22  4  1  0
 19  8  2  0
 16 10  1  0
  1 24  1  0
  1 25  1  0
  5 26  1  0
  6 27  1  0
 11 28  1  0
 12 29  1  0
 13 30  1  0
 15 31  1  0
 20 32  1  0
 21 33  1  0
 23 34  1  0
 23 35  1  0
 23 36  1  0
M  END
>  <meeko>  (6) 
{"is_sidechain": [false], "free_energy": -6.918, "intermolecular_energy": -8.285, "internal_energy": -0.314}

$$$$
cand_015_out
     RDKit          3D

 36 38  0  0  0  0  0  0  0  0999 V2000
   21.2000  -24.5500   45.2320 C   0  0  0  0  0  0  0  0  0  0  0  0
   20.0180  -24.4050   44.6240 C   0  0  0  0  0  0  0  0  0  0  0  0
   18.9580  -24.0440   45.3820 F   0  0  0  0  0  0  0  0  0  0  0  0
   19.7800  -24.6450   43.1900 C   0  0  0  0  0  0  0  0  0  0  0  0
   19.6990  -25.9640   42.7110 C   0  0  0  0  0  0  0  0  0  0  0  0
   19.5010  -26.2320   41.3520 C   0  0  0  0  0  0  0  0  0  0  0  0
   19.3770  -25.1890   40.4310 C   0  0  0  0  0  0  0  0  0  0  0  0
   19.1980  -25.4430   38.9850 C   0  0  0  0  0  0  0  0  0  0  0  0
   18.0760  -24.8130   38.4600 O   0  0  0  0  0  0  0  0  0  0  0  0
   17.7920  -24.9670   37.1280 C   0  0  0  0  0  0  0  0  0  0  0  0
   16.6640  -24.3040   36.6400 C   0  0  0  0  0  0  0  0  0  0  0  0
   16.3170  -24.4200   35.2920 C   0  0  0  0  0  0  0  0  0  0  0  0
   17.0960  -25.1980   34.4330 C   0  0  0  0  0  0  0  0  0  0  0  0
   18.2200  -25.8580   34.9220 C   0  0  0  0  0  0  0  0  0  0  0  0
   18.9390  -26.6020   34.0270 O   0  0  0  0  0  0  0  0  0  0  0  0
   18.5680  -25.7400   36.2710 C   0  0  0  0  0  0  0  0  0  0  0  0
   19.7420  -26.4170   36.8260 C   0  0  0  0  0  0  0  0  0  0  0  0
   20.4720  -27.1250   36.1360 O   0  0  0  0  0  0  0  0  0  0  0  0
   20.0260  -26.2220   38.2660 C   0  0  0  0  0  0  0  0  0  0  0  0
   21.1300  -26.8770   38.7830 O   0  0  0  0  0  0  0  0  0  0  0  0
   19.4740  -23.8710   40.9020 C   0  0  0  0  0  0  0  0  0  0  0  0
   19.6640  -23.5830   42.2690 C   0  0  0  0  0  0  0  0  0  0  0  0
   19.7580  -22.1420   42.6950 C   0  0  0  0  0  0  0  0  0  0  0  0
   22.0859  -24.8427   44.6494 H   0  0  0  0  0  0  0  0  0  0  0  0
   21.2865  -24.3766   46.3148 H   0  0  0  0  0  0  0  0  0  0  0  0
   19.7931  -26.8015   43.4180 H   0  0  0  0  0  0  0  0  0  0  0  0
   19.4424  -27.2743   41.0054 H   0  0  0  0  0  0  0  0  0  0  0  0
   16.0497  -23.6913   37.3162 H   0  0  0  0  0  0  0  0  0  0  0  0
   15.4289  -23.8978   34.9065 H   0  0  0  0  0  0  0  0  0  0  0  0
   16.8219  -25.2892   33.3716 H   0  0  0  0  0  0  0  0  0  0  0  0
   18.8140  -26.4770   33.1070 H   0  0  0  0  0  0  0  0  0  0  0  0
   21.9430  -26.4210   38.8760 H   0  0  0  0  0  0  0  0  0  0  0  0
   19.3998  -23.0398   40.1853 H   0  0  0  0  0  0  0  0  0  0  0  0
   19.7618  -22.0839   43.7935 H   0  0  0  0  0  0  0  0  0  0  0  0
   20.6867  -21.7031   42.3014 H   0  0  0  0  0  0  0  0  0  0  0  0
   18.8942  -21.5862   42.3014 H   0  0  0  0  0  0  0  0  0  0  0  0
  1  2  2  0
  2  3  1  0
  2  4  1  0
  4  5  2  0
  5  6  1  0
  6  7  2  0
  7  8  1  0
  8  9  1  0
  9 10  1  0
 10 11  2  0
 11 12  1  0
 12 13  2  0
 13 14  1  0
 14 15  1  0
 14 16  2  0
 16 17  1  0
 17 18  2  0
 17 19  1  0
 19 20  1  0
  7 21  1  0
 21 22  2  0
 22 23  1  0
 22  4  1  0
 19  8  2  0
 16 10  1  0
  1 24  1  0
  1 25  1  0
  5 26  1  0
  6 27  1  0
 11 28  1  0
 12 29  1  0
 13 30  1  0
 15 31  1  0
 20 32  1  0
 21 33  1  0
 23 34  1  0
 23 35  1  0
 23 36  1  0
M  END
>  <meeko>  (7) 
{"is_sidechain": [false], "free_energy": -6.838, "intermolecular_energy": -8.129, "internal_energy": -0.376}

$$$$
cand_015_out
     RDKit          3D

 36 38  0  0  0  0  0  0  0  0999 V2000
   20.3940  -24.4910   49.3480 C   0  0  0  0  0  0  0  0  0  0  0  0
   20.5470  -23.6780   48.2980 C   0  0  0  0  0  0  0  0  0  0  0  0
   20.7700  -22.3670   48.5420 F   0  0  0  0  0  0  0  0  0  0  0  0
   20.4560  -24.1030   46.8900 C   0  0  0  0  0  0  0  0  0  0  0  0
   21.5250  -24.8060   46.3070 C   0  0  0  0  0  0  0  0  0  0  0  0
   21.4850  -25.2020   44.9650 C   0  0  0  0  0  0  0  0  0  0  0  0
   20.3770  -24.9080   44.1670 C   0  0  0  0  0  0  0  0  0  0  0  0
   20.3240  -25.2880   42.7390 C   0  0  0  0  0  0  0  0  0  0  0  0
   19.9160  -24.2440   41.9170 O   0  0  0  0  0  0  0  0  0  0  0  0
   19.8230  -24.4610   40.5660 C   0  0  0  0  0  0  0  0  0  0  0  0
   19.4230  -23.3810   39.7770 C   0  0  0  0  0  0  0  0  0  0  0  0
   19.3060  -23.5350   38.3930 C   0  0  0  0  0  0  0  0  0  0  0  0
   19.5860  -24.7680   37.8000 C   0  0  0  0  0  0  0  0  0  0  0  0
   19.9850  -25.8430   38.5900 C   0  0  0  0  0  0  0  0  0  0  0  0
   20.2440  -27.0210   37.9450 O   0  0  0  0  0  0  0  0  0  0  0  0
   20.1030  -25.6880   39.9740 C   0  0  0  0  0  0  0  0  0  0  0  0
   20.5190  -26.7930   40.8400 C   0  0  0  0  0  0  0  0  0  0  0  0
   20.7760  -27.9090   40.3950 O   0  0  0  0  0  0  0  0  0  0  0  0
   20.6190  -26.5220   42.2930 C   0  0  0  0  0  0  0  0  0  0  0  0
   21.0000  -27.5760   43.1040 O   0  0  0  0  0  0  0  0  0  0  0  0
   19.3170  -24.1910   44.7410 C   0  0  0  0  0  0  0  0  0  0  0  0
   19.3350  -23.7930   46.0920 C   0  0  0  0  0  0  0  0  0  0  0  0
   18.1570  -23.0270   46.6330 C   0  0  0  0  0  0  0  0  0  0  0  0
   20.2109  -25.5642   49.1906 H   0  0  0  0  0  0  0  0  0  0  0  0
   20.4512  -24.0868   50.3695 H   0  0  0  0  0  0  0  0  0  0  0  0
   22.4081  -25.0490   46.9161 H   0  0  0  0  0  0  0  0  0  0  0  0
   22.3355  -25.7507   44.5342 H   0  0  0  0  0  0  0  0  0  0  0  0
   19.2003  -22.4103   40.2440 H   0  0  0  0  0  0  0  0  0  0  0  0
   18.9930  -22.6842   37.7700 H   0  0  0  0  0  0  0  0  0  0  0  0
   19.4915  -24.8897   36.7108 H   0  0  0  0  0  0  0  0  0  0  0  0
   20.5500  -27.0130   37.0590 H   0  0  0  0  0  0  0  0  0  0  0  0
   21.4670  -27.4100   43.8990 H   0  0  0  0  0  0  0  0  0  0  0  0
   18.4475  -23.9323   44.1189 H   0  0  0  0  0  0  0  0  0  0  0  0
   18.1825  -23.0436   47.7326 H   0  0  0  0  0  0  0  0  0  0  0  0
   18.2035  -21.9859   46.2808 H   0  0  0  0  0  0  0  0  0  0  0  0
   17.2243  -23.4919   46.2808 H   0  0  0  0  0  0  0  0  0  0  0  0
  1  2  2  0
  2  3  1  0
  2  4  1  0
  4  5  2  0
  5  6  1  0
  6  7  2  0
  7  8  1  0
  8  9  1  0
  9 10  1  0
 10 11  2  0
 11 12  1  0
 12 13  2  0
 13 14  1  0
 14 15  1  0
 14 16  2  0
 16 17  1  0
 17 18  2  0
 17 19  1  0
 19 20  1  0
  7 21  1  0
 21 22  2  0
 22 23  1  0
 22  4  1  0
 19  8  2  0
 16 10  1  0
  1 24  1  0
  1 25  1  0
  5 26  1  0
  6 27  1  0
 11 28  1  0
 12 29  1  0
 13 30  1  0
 15 31  1  0
 20 32  1  0
 21 33  1  0
 23 34  1  0
 23 35  1  0
 23 36  1  0
M  END
>  <meeko>  (8) 
{"is_sidechain": [false], "free_energy": -6.705, "intermolecular_energy": -8.03, "internal_energy": -0.319}

$$$$
cand_015_out
     RDKit          3D

 36 38  0  0  0  0  0  0  0  0999 V2000
   20.0940  -24.8060   49.1760 C   0  0  0  0  0  0  0  0  0  0  0  0
   20.2180  -23.8350   48.2650 C   0  0  0  0  0  0  0  0  0  0  0  0
   20.4600  -22.5810   48.7090 F   0  0  0  0  0  0  0  0  0  0  0  0
   20.0730  -24.0270   46.8120 C   0  0  0  0  0  0  0  0  0  0  0  0
   21.0850  -24.6890   46.0950 C   0  0  0  0  0  0  0  0  0  0  0  0
   20.9950  -24.8670   44.7100 C   0  0  0  0  0  0  0  0  0  0  0  0
   19.8920  -24.3880   44.0000 C   0  0  0  0  0  0  0  0  0  0  0  0
   19.7870  -24.5340   42.5320 C   0  0  0  0  0  0  0  0  0  0  0  0
   19.8890  -25.8560   42.1120 O   0  0  0  0  0  0  0  0  0  0  0  0
   19.8080  -26.1330   40.7720 C   0  0  0  0  0  0  0  0  0  0  0  0
   19.9000  -27.4750   40.3960 C   0  0  0  0  0  0  0  0  0  0  0  0
   19.8280  -27.8270   39.0460 C   0  0  0  0  0  0  0  0  0  0  0  0
   19.6630  -26.8390   38.0730 C   0  0  0  0  0  0  0  0  0  0  0  0
   19.5710  -25.5020   38.4510 C   0  0  0  0  0  0  0  0  0  0  0  0
   19.4110  -24.5860   37.4480 O   0  0  0  0  0  0  0  0  0  0  0  0
   19.6430  -25.1500   39.8020 C   0  0  0  0  0  0  0  0  0  0  0  0
   19.5500  -23.7570   40.2410 C   0  0  0  0  0  0  0  0  0  0  0  0
   19.4130  -22.8300   39.4460 O   0  0  0  0  0  0  0  0  0  0  0  0
   19.6320  -23.4920   41.6960 C   0  0  0  0  0  0  0  0  0  0  0  0
   19.5560  -22.1710   42.1000 O   0  0  0  0  0  0  0  0  0  0  0  0
   18.8880  -23.7110   44.7090 C   0  0  0  0  0  0  0  0  0  0  0  0
   18.9580  -23.5320   46.1050 C   0  0  0  0  0  0  0  0  0  0  0  0
   17.8390  -22.7940   46.7920 C   0  0  0  0  0  0  0  0  0  0  0  0
   19.8968  -25.8395   48.8549 H   0  0  0  0  0  0  0  0  0  0  0  0
   20.1892  -24.5713   50.2464 H   0  0  0  0  0  0  0  0  0  0  0  0
   21.9639  -25.0742   46.6328 H   0  0  0  0  0  0  0  0  0  0  0  0
   21.8015  -25.3897   44.1749 H   0  0  0  0  0  0  0  0  0  0  0  0
   20.0290  -28.2539   41.1620 H   0  0  0  0  0  0  0  0  0  0  0  0
   19.9014  -28.8836   38.7491 H   0  0  0  0  0  0  0  0  0  0  0  0
   19.6058  -27.1164   37.0101 H   0  0  0  0  0  0  0  0  0  0  0  0
   19.3530  -24.8710   36.5570 H   0  0  0  0  0  0  0  0  0  0  0  0
   18.8610  -21.6250   41.7900 H   0  0  0  0  0  0  0  0  0  0  0  0
   18.0233  -23.3093   44.1605 H   0  0  0  0  0  0  0  0  0  0  0  0
   17.9615  -22.8748   47.8822 H   0  0  0  0  0  0  0  0  0  0  0  0
   17.8636  -21.7344   46.4978 H   0  0  0  0  0  0  0  0  0  0  0  0
   16.8747  -23.2339   46.4978 H   0  0  0  0  0  0  0  0  0  0  0  0
  1  2  2  0
  2  3  1  0
  2  4  1  0
  4  5  2  0
  5  6  1  0
  6  7  2  0
  7  8  1  0
  8  9  1  0
  9 10  1  0
 10 11  2  0
 11 12  1  0
 12 13  2  0
 13 14  1  0
 14 15  1  0
 14 16  2  0
 16 17  1  0
 17 18  2  0
 17 19  1  0
 19 20  1  0
  7 21  1  0
 21 22  2  0
 22 23  1  0
 22  4  1  0
 19  8  2  0
 16 10  1  0
  1 24  1  0
  1 25  1  0
  5 26  1  0
  6 27  1  0
 11 28  1  0
 12 29  1  0
 13 30  1  0
 15 31  1  0
 20 32  1  0
 21 33  1  0
 23 34  1  0
 23 35  1  0
 23 36  1  0
M  END
>  <meeko>  (9) 
{"is_sidechain": [false], "free_energy": -6.573, "intermolecular_energy": -7.852, "internal_energy": -0.341}

$$$$
