cand_017_out
     RDKit          3D

 38 40  0  0  0  0  0  0  0  0999 V2000
   22.2820  -27.6640   41.7950 C   0  0  0  0  0  0  0  0  0  0  0  0
   20.8830  -27.0860   41.9590 C   0  0  0  0  0  0  0  0  0  0  0  0
   20.0220  -27.3320   40.7400 C   0  0  0  0  0  0  0  0  0  0  0  0
   20.0730  -28.6070   40.1380 C   0  0  0  0  0  0  0  0  0  0  0  0
   19.3030  -28.9210   39.0090 C   0  0  0  0  0  0  0  0  0  0  0  0
   19.3390  -30.2650   38.3940 C   0  0  0  0  0  0  0  0  0  0  0  0
   18.8880  -31.2630   39.2490 O   0  0  0  0  0  0  0  0  0  0  0  0
   18.8690  -32.5600   38.8030 C   0  0  0  0  0  0  0  0  0  0  0  0
   18.4240  -33.5320   39.7000 C   0  0  0  0  0  0  0  0  0  0  0  0
   18.3770  -34.8720   39.3080 C   0  0  0  0  0  0  0  0  0  0  0  0
   18.7760  -35.2390   38.0220 C   0  0  0  0  0  0  0  0  0  0  0  0
   19.2190  -34.2670   37.1290 C   0  0  0  0  0  0  0  0  0  0  0  0
   19.5940  -34.6970   35.8840 O   0  0  0  0  0  0  0  0  0  0  0  0
   19.2660  -32.9270   37.5200 C   0  0  0  0  0  0  0  0  0  0  0  0
   19.7260  -31.8740   36.6140 C   0  0  0  0  0  0  0  0  0  0  0  0
   20.0860  -32.1160   35.4630 O   0  0  0  0  0  0  0  0  0  0  0  0
   19.7440  -30.4860   37.1290 C   0  0  0  0  0  0  0  0  0  0  0  0
   20.1690  -29.4970   36.2600 O   0  0  0  0  0  0  0  0  0  0  0  0
   18.4540  -27.9390   38.4910 C   0  0  0  0  0  0  0  0  0  0  0  0
   18.3870  -26.6720   39.0760 C   0  0  0  0  0  0  0  0  0  0  0  0
   19.1610  -26.3510   40.2040 C   0  0  0  0  0  0  0  0  0  0  0  0
   19.0660  -24.9570   40.7830 C   0  0  0  0  0  0  0  0  0  0  0  0
   20.1550  -24.1860   40.5070 F   0  0  0  0  0  0  0  0  0  0  0  0
   18.9480  -24.9390   42.1430 F   0  0  0  0  0  0  0  0  0  0  0  0
   22.7222  -27.8458   42.7866 H   0  0  0  0  0  0  0  0  0  0  0  0
   22.2243  -28.6120   41.2400 H   0  0  0  0  0  0  0  0  0  0  0  0
   22.9102  -26.9518   41.2400 H   0  0  0  0  0  0  0  0  0  0  0  0
   20.4051  -27.5548   42.8318 H   0  0  0  0  0  0  0  0  0  0  0  0
   20.9783  -25.9985   42.0939 H   0  0  0  0  0  0  0  0  0  0  0  0
   20.7343  -29.3750   40.5656 H   0  0  0  0  0  0  0  0  0  0  0  0
   18.1107  -33.2435   40.7142 H   0  0  0  0  0  0  0  0  0  0  0  0
   18.0251  -35.6388   40.0138 H   0  0  0  0  0  0  0  0  0  0  0  0
   18.7405  -36.2945   37.7144 H   0  0  0  0  0  0  0  0  0  0  0  0
   20.1340  -34.1540   35.3450 H   0  0  0  0  0  0  0  0  0  0  0  0
   20.2460  -29.6800   35.3450 H   0  0  0  0  0  0  0  0  0  0  0  0
   17.8316  -28.1662   37.6129 H   0  0  0  0  0  0  0  0  0  0  0  0
   17.7169  -25.9128   38.6462 H   0  0  0  0  0  0  0  0  0  0  0  0
   18.1605  -24.5570   40.3034 H   0  0  0  0  0  0  0  0  0  0  0  0
  1  2  1  0
  2  3  1  0
  3  4  2  0
  4  5  1  0
  5  6  1  0
  6  7  1  0
  7  8  1  0
  8  9  2  0
  9 10  1  0
 10 11  2  0
 11 12  1  0
 12 13  1  0
 12 14  2  0
 14 15  1  0
 15 16  2  0
 15 17  1  0
 17 18  1  0
  5 19  2  0
 19 20  1  0
 20 21  2  0
 21 22  1  0
 22 23  1  0
 22 24  1  0
 21  3  1  0
 17  6  2  0
 14  8  1  0
  1 25  1  0
  1 26  1  0
  1 27  1  0
  2 28  1  0
  2 29  1  0
  4 30  1  0
  9 31  1  0
 10 32  1  0
 11 33  1  0
 13 34  1  0
 18 35  1  0
 19 36  1  0
 20 37  1  0
 22 38  1  0
M  END
>  <meeko>  (1) 
{"is_sidechain": [false], "free_energy": -8.123, "intermolecular_energy": -10.023, "internal_energy": -0.362}

$$$$
cand_017_out
     RDKit          3D

 38 40  0  0  0  0  0  0  0  0999 V2000
   18.6030  -33.6310   39.7010 C   0  0  0  0  0  0  0  0  0  0  0  0
   19.1920  -33.6870   38.2980 C   0  0  0  0  0  0  0  0  0  0  0  0
   19.3900  -32.3060   37.7120 C   0  0  0  0  0  0  0  0  0  0  0  0
   19.2310  -31.1940   38.5640 C   0  0  0  0  0  0  0  0  0  0  0  0
   19.4020  -29.8810   38.1040 C   0  0  0  0  0  0  0  0  0  0  0  0
   19.2600  -28.7170   39.0050 C   0  0  0  0  0  0  0  0  0  0  0  0
   20.1970  -28.7110   40.0310 O   0  0  0  0  0  0  0  0  0  0  0  0
   20.1760  -27.6840   40.9400 C   0  0  0  0  0  0  0  0  0  0  0  0
   21.1240  -27.7260   41.9640 C   0  0  0  0  0  0  0  0  0  0  0  0
   21.1600  -26.7100   42.9230 C   0  0  0  0  0  0  0  0  0  0  0  0
   20.2480  -25.6550   42.8570 C   0  0  0  0  0  0  0  0  0  0  0  0
   19.3040  -25.6160   41.8350 C   0  0  0  0  0  0  0  0  0  0  0  0
   18.4420  -24.5520   41.8310 O   0  0  0  0  0  0  0  0  0  0  0  0
   19.2680  -26.6320   40.8770 C   0  0  0  0  0  0  0  0  0  0  0  0
   18.2920  -26.6300   39.7870 C   0  0  0  0  0  0  0  0  0  0  0  0
   17.4620  -25.7310   39.6570 O   0  0  0  0  0  0  0  0  0  0  0  0
   18.3330  -27.7580   38.8270 C   0  0  0  0  0  0  0  0  0  0  0  0
   17.4140  -27.7390   37.7940 O   0  0  0  0  0  0  0  0  0  0  0  0
   19.7570  -29.6880   36.7660 C   0  0  0  0  0  0  0  0  0  0  0  0
   19.9230  -30.7780   35.9070 C   0  0  0  0  0  0  0  0  0  0  0  0
   19.7460  -32.0960   36.3630 C   0  0  0  0  0  0  0  0  0  0  0  0
   19.9160  -33.2360   35.3850 C   0  0  0  0  0  0  0  0  0  0  0  0
   20.3040  -32.8260   34.1450 F   0  0  0  0  0  0  0  0  0  0  0  0
   18.7730  -33.9560   35.1840 F   0  0  0  0  0  0  0  0  0  0  0  0
   19.4125  -33.7080   40.4418 H   0  0  0  0  0  0  0  0  0  0  0  0
   18.0705  -32.6782   39.8374 H   0  0  0  0  0  0  0  0  0  0  0  0
   17.9005  -34.4664   39.8374 H   0  0  0  0  0  0  0  0  0  0  0  0
   20.1654  -34.1975   38.3414 H   0  0  0  0  0  0  0  0  0  0  0  0
   18.4859  -34.2318   37.6541 H   0  0  0  0  0  0  0  0  0  0  0  0
   18.9656  -31.3613   39.6183 H   0  0  0  0  0  0  0  0  0  0  0  0
   21.8418  -28.5579   42.0160 H   0  0  0  0  0  0  0  0  0  0  0  0
   21.9070  -26.7416   43.7299 H   0  0  0  0  0  0  0  0  0  0  0  0
   20.2755  -24.8554   43.6119 H   0  0  0  0  0  0  0  0  0  0  0  0
   17.5410  -24.6810   41.6120 H   0  0  0  0  0  0  0  0  0  0  0  0
   16.9230  -28.5100   37.5900 H   0  0  0  0  0  0  0  0  0  0  0  0
   19.9074  -28.6672   36.3849 H   0  0  0  0  0  0  0  0  0  0  0  0
   20.1968  -30.6016   34.8563 H   0  0  0  0  0  0  0  0  0  0  0  0
   20.6915  -33.8520   35.8638 H   0  0  0  0  0  0  0  0  0  0  0  0
  1  2  1  0
  2  3  1  0
  3  4  2  0
  4  5  1  0
  5  6  1  0
  6  7  1  0
  7  8  1  0
  8  9  2  0
  9 10  1  0
 10 11  2  0
 11 12  1  0
 12 13  1  0
 12 14  2  0
 14 15  1  0
 15 16  2  0
 15 17  1  0
 17 18  1  0
  5 19  2  0
 19 20  1  0
 20 21  2  0
 21 22  1  0
 22 23  1  0
 22 24  1  0
 21  3  1  0
 17  6  2  0
 14  8  1  0
  1 25  1  0
  1 26  1  0
  1 27  1  0
  2 28  1  0
  2 29  1  0
  4 30  1  0
  9 31  1  0
 10 32  1  0
 11 33  1  0
 13 34  1  0
 18 35  1  0
 19 36  1  0
 20 37  1  0
 22 38  1  0
M  END
>  <meeko>  (2) 
{"is_sidechain": [false], "free_energy": -7.991, "intermolecular_energy": -9.745, "internal_energy": -0.478}

$$$$
cand_017_out
     RDKit          3D

 38 40  0  0  0  0  0  0  0  0999 V2000
   20.0250  -29.9810   34.2090 C   0  0  0  0  0  0  0  0  0  0  0  0
   20.5860  -31.1610   34.9900 C   0  0  0  0  0  0  0  0  0  0  0  0
   19.9950  -31.2530   36.3800 C   0  0  0  0  0  0  0  0  0  0  0  0
   19.8940  -30.0670   37.1370 C   0  0  0  0  0  0  0  0  0  0  0  0
   19.3540  -30.0620   38.4310 C   0  0  0  0  0  0  0  0  0  0  0  0
   19.2250  -28.8150   39.2150 C   0  0  0  0  0  0  0  0  0  0  0  0
   20.1350  -28.7400   40.2630 O   0  0  0  0  0  0  0  0  0  0  0  0
   20.1230  -27.6330   41.0720 C   0  0  0  0  0  0  0  0  0  0  0  0
   21.0420  -27.6060   42.1220 C   0  0  0  0  0  0  0  0  0  0  0  0
   21.0850  -26.5060   42.9830 C   0  0  0  0  0  0  0  0  0  0  0  0
   20.2100  -25.4350   42.7930 C   0  0  0  0  0  0  0  0  0  0  0  0
   19.2950  -25.4640   41.7440 C   0  0  0  0  0  0  0  0  0  0  0  0
   18.4680  -24.3810   41.6150 O   0  0  0  0  0  0  0  0  0  0  0  0
   19.2520  -26.5640   40.8840 C   0  0  0  0  0  0  0  0  0  0  0  0
   18.3050  -26.6360   39.7700 C   0  0  0  0  0  0  0  0  0  0  0  0
   17.5080  -25.7290   39.5330 O   0  0  0  0  0  0  0  0  0  0  0  0
   18.3350  -27.8490   38.9210 C   0  0  0  0  0  0  0  0  0  0  0  0
   17.4450  -27.9000   37.8640 O   0  0  0  0  0  0  0  0  0  0  0  0
   18.8910  -31.2700   38.9620 C   0  0  0  0  0  0  0  0  0  0  0  0
   18.9790  -32.4530   38.2240 C   0  0  0  0  0  0  0  0  0  0  0  0
   19.5260  -32.4640   36.9290 C   0  0  0  0  0  0  0  0  0  0  0  0
   19.6180  -33.7770   36.1860 C   0  0  0  0  0  0  0  0  0  0  0  0
   18.8720  -33.8010   35.0450 F   0  0  0  0  0  0  0  0  0  0  0  0
   19.1910  -34.8480   36.9170 F   0  0  0  0  0  0  0  0  0  0  0  0
   19.6614  -29.2162   34.9111 H   0  0  0  0  0  0  0  0  0  0  0  0
   20.8152  -29.5514   33.5758 H   0  0  0  0  0  0  0  0  0  0  0  0
   19.1930  -30.3227   33.5758 H   0  0  0  0  0  0  0  0  0  0  0  0
   20.3575  -32.0887   34.4448 H   0  0  0  0  0  0  0  0  0  0  0  0
   21.6717  -31.0162   35.0912 H   0  0  0  0  0  0  0  0  0  0  0  0
   20.2481  -29.1213   36.7007 H   0  0  0  0  0  0  0  0  0  0  0  0
   21.7318  -28.4497   42.2718 H   0  0  0  0  0  0  0  0  0  0  0  0
   21.8088  -26.4841   43.8110 H   0  0  0  0  0  0  0  0  0  0  0  0
   20.2434  -24.5695   43.4710 H   0  0  0  0  0  0  0  0  0  0  0  0
   18.2950  -23.8330   42.3550 H   0  0  0  0  0  0  0  0  0  0  0  0
   16.5280  -27.7940   38.0190 H   0  0  0  0  0  0  0  0  0  0  0  0
   18.4531  -31.2890   39.9709 H   0  0  0  0  0  0  0  0  0  0  0  0
   18.6137  -33.3926   38.6641 H   0  0  0  0  0  0  0  0  0  0  0  0
   20.6926  -33.8547   35.9641 H   0  0  0  0  0  0  0  0  0  0  0  0
  1  2  1  0
  2  3  1  0
  3  4  2  0
  4  5  1  0
  5  6  1  0
  6  7  1  0
  7  8  1  0
  8  9  2  0
  9 10  1  0
 10 11  2  0
 11 12  1  0
 12 13  1  0
 12 14  2  0
 14 15  1  0
 15 16  2  0
 15 17  1  0
 17 18  1  0
  5 19  2  0
 19 20  1  0
 20 21  2  0
 21 22  1  0
 22 23  1  0
 22 24  1  0
 21  3  1  0
 17  6  2  0
 14  8  1  0
  1 25  1  0
  1 26  1  0
  1 27  1  0
  2 28  1  0
  2 29  1  0
  4 30  1  0
  9 31  1  0
 10 32  1  0
 11 33  1  0
 13 34  1  0
 18 35  1  0
 19 36  1  0
 20 37  1  0
 22 38  1  0
M  END
>  <meeko>  (3) 
{"is_sidechain": [false], "free_energy": -7.853, "intermolecular_energy": -9.479, "internal_energy": -0.573}

$$$$
cand_017_out
     RDKit          3D

 38 40  0  0  0  0  0  0  0  0999 V2000
   18.6390  -24.7400   36.9530 C   0  0  0  0  0  0  0  0  0  0  0  0
   17.8420  -25.3120   38.1170 C   0  0  0  0  0  0  0  0  0  0  0  0
   18.6160  -26.3750   38.8660 C   0  0  0  0  0  0  0  0  0  0  0  0
   18.6480  -27.6770   38.3240 C   0  0  0  0  0  0  0  0  0  0  0  0
   19.3460  -28.7190   38.9490 C   0  0  0  0  0  0  0  0  0  0  0  0
   19.4000  -30.0780   38.3680 C   0  0  0  0  0  0  0  0  0  0  0  0
   18.9550  -31.0590   39.2460 O   0  0  0  0  0  0  0  0  0  0  0  0
   18.9520  -32.3660   38.8330 C   0  0  0  0  0  0  0  0  0  0  0  0
   18.5140  -33.3210   39.7520 C   0  0  0  0  0  0  0  0  0  0  0  0
   18.4840  -34.6710   39.3940 C   0  0  0  0  0  0  0  0  0  0  0  0
   18.8930  -35.0650   38.1190 C   0  0  0  0  0  0  0  0  0  0  0  0
   19.3300  -34.1120   37.2040 C   0  0  0  0  0  0  0  0  0  0  0  0
   19.7150  -34.5680   35.9730 O   0  0  0  0  0  0  0  0  0  0  0  0
   19.3600  -32.7610   37.5620 C   0  0  0  0  0  0  0  0  0  0  0  0
   19.8130  -31.7260   36.6320 C   0  0  0  0  0  0  0  0  0  0  0  0
   20.1810  -31.9940   35.4890 O   0  0  0  0  0  0  0  0  0  0  0  0
   19.8140  -30.3250   37.1120 C   0  0  0  0  0  0  0  0  0  0  0  0
   20.2310  -29.3540   36.2200 O   0  0  0  0  0  0  0  0  0  0  0  0
   20.0390  -28.4390   40.1310 C   0  0  0  0  0  0  0  0  0  0  0  0
   20.0220  -27.1540   40.6800 C   0  0  0  0  0  0  0  0  0  0  0  0
   19.3180  -26.1070   40.0600 C   0  0  0  0  0  0  0  0  0  0  0  0
   19.3160  -24.7430   40.7100 C   0  0  0  0  0  0  0  0  0  0  0  0
   20.0600  -23.8240   40.0330 F   0  0  0  0  0  0  0  0  0  0  0  0
   19.8140  -24.7430   41.9810 F   0  0  0  0  0  0  0  0  0  0  0  0
   19.4752  -24.1398   37.3410 H   0  0  0  0  0  0  0  0  0  0  0  0
   19.0325  -25.5631   36.3385 H   0  0  0  0  0  0  0  0  0  0  0  0
   17.9852  -24.1037   36.3385 H   0  0  0  0  0  0  0  0  0  0  0  0
   17.5944  -24.4966   38.8126 H   0  0  0  0  0  0  0  0  0  0  0  0
   16.9324  -25.7776   37.7097 H   0  0  0  0  0  0  0  0  0  0  0  0
   18.1107  -27.8797   37.3858 H   0  0  0  0  0  0  0  0  0  0  0  0
   18.1927  -33.0108   40.7573 H   0  0  0  0  0  0  0  0  0  0  0  0
   18.1378  -35.4239   40.1174 H   0  0  0  0  0  0  0  0  0  0  0  0
   18.8699  -36.1282   37.8376 H   0  0  0  0  0  0  0  0  0  0  0  0
   19.1880  -34.3860   35.2200 H   0  0  0  0  0  0  0  0  0  0  0  0
   20.9710  -28.8170   36.4250 H   0  0  0  0  0  0  0  0  0  0  0  0
   20.6032  -29.2384   40.6337 H   0  0  0  0  0  0  0  0  0  0  0  0
   20.5692  -26.9583   41.6139 H   0  0  0  0  0  0  0  0  0  0  0  0
   18.2489  -24.4760   40.7053 H   0  0  0  0  0  0  0  0  0  0  0  0
  1  2  1  0
  2  3  1  0
  3  4  2  0
  4  5  1  0
  5  6  1  0
  6  7  1  0
  7  8  1  0
  8  9  2  0
  9 10  1  0
 10 11  2  0
 11 12  1  0
 12 13  1  0
 12 14  2  0
 14 15  1  0
 15 16  2  0
 15 17  1  0
 17 18  1  0
  5 19  2  0
 19 20  1  0
 20 21  2  0
 21 22  1  0
 22 23  1  0
 22 24  1  0
 21  3  1  0
 17  6  2  0
 14  8  1  0
  1 25  1  0
  1 26  1  0
  1 27  1  0
  2 28  1  0
  2 29  1  0
  4 30  1  0
  9 31  1  0
 10 32  1  0
 11 33  1  0
 13 34  1  0
 18 35  1  0
 19 36  1  0
 20 37  1  0
 22 38  1  0
M  END
>  <meeko>  (4) 
{"is_sidechain": [false], "free_energy": -7.648, "intermolecular_energy": -9.292, "internal_energy": -0.507}

$$$$
cand_017_out
     RDKit          3D

 38 40  0  0  0  0  0  0  0  0999 V2000
   18.5430  -33.5970   39.7290 C   0  0  0  0  0  0  0  0  0  0  0  0
   18.8730  -34.1560   38.3520 C   0  0  0  0  0  0  0  0  0  0  0  0
   19.2750  -33.0680   37.3810 C   0  0  0  0  0  0  0  0  0  0  0  0
   19.2830  -31.7350   37.8430 C   0  0  0  0  0  0  0  0  0  0  0  0
   19.6480  -30.6680   37.0110 C   0  0  0  0  0  0  0  0  0  0  0  0
   19.6800  -29.2740   37.5040 C   0  0  0  0  0  0  0  0  0  0  0  0
   19.9850  -29.1860   38.8570 O   0  0  0  0  0  0  0  0  0  0  0  0
   20.0470  -27.9480   39.4430 C   0  0  0  0  0  0  0  0  0  0  0  0
   20.3400  -27.9060   40.8070 C   0  0  0  0  0  0  0  0  0  0  0  0
   20.4200  -26.6770   41.4650 C   0  0  0  0  0  0  0  0  0  0  0  0
   20.2060  -25.4910   40.7610 C   0  0  0  0  0  0  0  0  0  0  0  0
   19.9140  -25.5350   39.4000 C   0  0  0  0  0  0  0  0  0  0  0  0
   19.7170  -24.3350   38.7720 O   0  0  0  0  0  0  0  0  0  0  0  0
   19.8340  -26.7650   38.7420 C   0  0  0  0  0  0  0  0  0  0  0  0
   19.5280  -26.8560   37.3140 C   0  0  0  0  0  0  0  0  0  0  0  0
   19.3340  -25.8570   36.6230 O   0  0  0  0  0  0  0  0  0  0  0  0
   19.4580  -28.2080   36.7130 C   0  0  0  0  0  0  0  0  0  0  0  0
   19.1810  -28.2820   35.3600 O   0  0  0  0  0  0  0  0  0  0  0  0
   20.0310  -30.9510   35.6970 C   0  0  0  0  0  0  0  0  0  0  0  0
   20.0330  -32.2660   35.2230 C   0  0  0  0  0  0  0  0  0  0  0  0
   19.6610  -33.3390   36.0510 C   0  0  0  0  0  0  0  0  0  0  0  0
   19.6610  -34.7380   35.4790 C   0  0  0  0  0  0  0  0  0  0  0  0
   20.7500  -35.4680   35.8470 F   0  0  0  0  0  0  0  0  0  0  0  0
   19.6510  -34.7680   34.1140 F   0  0  0  0  0  0  0  0  0  0  0  0
   18.9404  -34.2702   40.5029 H   0  0  0  0  0  0  0  0  0  0  0  0
   18.9985  -32.6019   39.8396 H   0  0  0  0  0  0  0  0  0  0  0  0
   17.4516  -33.5150   39.8396 H   0  0  0  0  0  0  0  0  0  0  0  0
   19.7036  -34.8708   38.4484 H   0  0  0  0  0  0  0  0  0  0  0  0
   17.9703  -34.6463   37.9587 H   0  0  0  0  0  0  0  0  0  0  0  0
   18.9950  -31.5276   38.8842 H   0  0  0  0  0  0  0  0  0  0  0  0
   20.5077  -28.8401   41.3631 H   0  0  0  0  0  0  0  0  0  0  0  0
   20.6520  -26.6435   42.5397 H   0  0  0  0  0  0  0  0  0  0  0  0
   20.2679  -24.5232   41.2802 H   0  0  0  0  0  0  0  0  0  0  0  0
   20.1470  -24.1560   37.9590 H   0  0  0  0  0  0  0  0  0  0  0  0
   18.4350  -27.8370   35.0100 H   0  0  0  0  0  0  0  0  0  0  0  0
   20.3338  -30.1309   35.0293 H   0  0  0  0  0  0  0  0  0  0  0  0
   20.3312  -32.4646   34.1830 H   0  0  0  0  0  0  0  0  0  0  0  0
   18.7351  -35.1675   35.8892 H   0  0  0  0  0  0  0  0  0  0  0  0
  1  2  1  0
  2  3  1  0
  3  4  2  0
  4  5  1  0
  5  6  1  0
  6  7  1  0
  7  8  1  0
  8  9  2  0
  9 10  1  0
 10 11  2  0
 11 12  1  0
 12 13  1  0
 12 14  2  0
 14 15  1  0
 15 16  2  0
 15 17  1  0
 17 18  1  0
  5 19  2  0
 19 20  1  0
 20 21  2  0
 21 22  1  0
 22 23  1  0
 22 24  1  0
 21  3  1  0
 17  6  2  0
 14  8  1  0
  1 25  1  0
  1 26  1  0
  1 27  1  0
  2 28  1  0
  2 29  1  0
  4 30  1  0
  9 31  1  0
 10 32  1  0
 11 33  1  0
 13 34  1  0
 18 35  1  0
 19 36  1  0
 20 37  1  0
 22 38  1  0
M  END
>  <meeko>  (5) 
{"is_sidechain": [false], "free_energy": -7.404, "intermolecular_energy": -9.354, "internal_energy": -0.144}

$$$$
cand_017_out
     RDKit          3D

 38 40  0  0  0  0  0  0  0  0999 V2000
   21.9400  -25.1660   45.4050 C   0  0  0  0  0  0  0  0  0  0  0  0
   22.6950  -26.4870   45.3920 C   0  0  0  0  0  0  0  0  0  0  0  0
   22.7150  -27.1140   44.0140 C   0  0  0  0  0  0  0  0  0  0  0  0
   21.7390  -26.7010   43.0830 C   0  0  0  0  0  0  0  0  0  0  0  0
   21.6900  -27.2260   41.7850 C   0  0  0  0  0  0  0  0  0  0  0  0
   20.6820  -26.7750   40.8020 C   0  0  0  0  0  0  0  0  0  0  0  0
   20.5760  -25.3910   40.7330 O   0  0  0  0  0  0  0  0  0  0  0  0
   19.6760  -24.8370   39.8600 C   0  0  0  0  0  0  0  0  0  0  0  0
   19.5910  -23.4440   39.8350 C   0  0  0  0  0  0  0  0  0  0  0  0
   18.6950  -22.8160   38.9660 C   0  0  0  0  0  0  0  0  0  0  0  0
   17.8860  -23.5800   38.1240 C   0  0  0  0  0  0  0  0  0  0  0  0
   17.9730  -24.9690   38.1500 C   0  0  0  0  0  0  0  0  0  0  0  0
   17.1510  -25.6550   37.2970 O   0  0  0  0  0  0  0  0  0  0  0  0
   18.8680  -25.5970   39.0190 C   0  0  0  0  0  0  0  0  0  0  0  0
   18.9910  -27.0540   39.0790 C   0  0  0  0  0  0  0  0  0  0  0  0
   18.3180  -27.7950   38.3640 O   0  0  0  0  0  0  0  0  0  0  0  0
   19.9640  -27.6210   40.0400 C   0  0  0  0  0  0  0  0  0  0  0  0
   20.0810  -28.9990   40.0800 O   0  0  0  0  0  0  0  0  0  0  0  0
   22.6520  -28.1700   41.4130 C   0  0  0  0  0  0  0  0  0  0  0  0
   23.6290  -28.5880   42.3210 C   0  0  0  0  0  0  0  0  0  0  0  0
   23.6780  -28.0690   43.6260 C   0  0  0  0  0  0  0  0  0  0  0  0
   24.7430  -28.5740   44.5730 C   0  0  0  0  0  0  0  0  0  0  0  0
   25.6720  -29.3630   43.9650 F   0  0  0  0  0  0  0  0  0  0  0  0
   24.2470  -29.3260   45.5980 F   0  0  0  0  0  0  0  0  0  0  0  0
   21.7625  -24.8554   46.4452 H   0  0  0  0  0  0  0  0  0  0  0  0
   22.5356  -24.3982   44.8896 H   0  0  0  0  0  0  0  0  0  0  0  0
   20.9761  -25.2895   44.8896 H   0  0  0  0  0  0  0  0  0  0  0  0
   23.7308  -26.3075   45.7158 H   0  0  0  0  0  0  0  0  0  0  0  0
   22.1801  -27.1799   46.0737 H   0  0  0  0  0  0  0  0  0  0  0  0
   20.9969  -25.9469   43.3841 H   0  0  0  0  0  0  0  0  0  0  0  0
   20.2286  -22.8414   40.4986 H   0  0  0  0  0  0  0  0  0  0  0  0
   18.6273  -21.7183   38.9456 H   0  0  0  0  0  0  0  0  0  0  0  0
   17.1803  -23.0852   37.4405 H   0  0  0  0  0  0  0  0  0  0  0  0
   16.6040  -26.3410   37.6250 H   0  0  0  0  0  0  0  0  0  0  0  0
   19.3180  -29.5360   39.9980 H   0  0  0  0  0  0  0  0  0  0  0  0
   22.6398  -28.5879   40.3955 H   0  0  0  0  0  0  0  0  0  0  0  0
   24.3724  -29.3362   42.0086 H   0  0  0  0  0  0  0  0  0  0  0  0
   25.1938  -27.6436   44.9487 H   0  0  0  0  0  0  0  0  0  0  0  0
  1  2  1  0
  2  3  1  0
  3  4  2  0
  4  5  1  0
  5  6  1  0
  6  7  1  0
  7  8  1  0
  8  9  2  0
  9 10  1  0
 10 11  2  0
 11 12  1  0
 12 13  1  0
 12 14  2  0
 14 15  1  0
 15 16  2  0
 15 17  1  0
 17 18  1  0
  5 19  2  0
 19 20  1  0
 20 21  2  0
 21 22  1  0
 22 23  1  0
 22 24  1  0
 21  3  1  0
 17  6  2  0
 14  8  1  0
  1 25  1  0
  1 26  1  0
  1 27  1  0
  2 28  1  0
  2 29  1  0
  4 30  1  0
  9 31  1  0
 10 32  1  0
 11 33  1  0
 13 34  1  0
 18 35  1  0
 19 36  1  0
 20 37  1  0
 22 38  1  0
M  END
>  <meeko>  (6) 
{"is_sidechain": [false], "free_energy": -7.378, "intermolecular_energy": -9.13, "internal_energy": -0.336}

$$$$
cand_017_out
     RDKit          3D

 38 40  0  0  0  0  0  0  0  0999 V2000
   19.3140  -23.6120   38.1460 C   0  0  0  0  0  0  0  0  0  0  0  0
   19.6020  -24.8340   37.2840 C   0  0  0  0  0  0  0  0  0  0  0  0
   19.6110  -26.1100   38.0970 C   0  0  0  0  0  0  0  0  0  0  0  0
   20.3860  -26.1420   39.2750 C   0  0  0  0  0  0  0  0  0  0  0  0
   20.4460  -27.2810   40.0890 C   0  0  0  0  0  0  0  0  0  0  0  0
   21.2390  -27.3050   41.3360 C   0  0  0  0  0  0  0  0  0  0  0  0
   22.2370  -28.2710   41.3240 O   0  0  0  0  0  0  0  0  0  0  0  0
   23.0480  -28.4010   42.4220 C   0  0  0  0  0  0  0  0  0  0  0  0
   24.0260  -29.3950   42.3740 C   0  0  0  0  0  0  0  0  0  0  0  0
   24.8870  -29.5790   43.4590 C   0  0  0  0  0  0  0  0  0  0  0  0
   24.7690  -28.7700   44.5900 C   0  0  0  0  0  0  0  0  0  0  0  0
   23.7920  -27.7790   44.6360 C   0  0  0  0  0  0  0  0  0  0  0  0
   23.7330  -27.0220   45.7750 O   0  0  0  0  0  0  0  0  0  0  0  0
   22.9310  -27.5950   43.5510 C   0  0  0  0  0  0  0  0  0  0  0  0
   21.8900  -26.5670   43.5580 C   0  0  0  0  0  0  0  0  0  0  0  0
   21.7280  -25.8100   44.5140 O   0  0  0  0  0  0  0  0  0  0  0  0
   21.0250  -26.4590   42.3610 C   0  0  0  0  0  0  0  0  0  0  0  0
   20.0530  -25.4750   42.3730 O   0  0  0  0  0  0  0  0  0  0  0  0
   19.6960  -28.4020   39.7180 C   0  0  0  0  0  0  0  0  0  0  0  0
   18.9200  -28.3880   38.5560 C   0  0  0  0  0  0  0  0  0  0  0  0
   18.8620  -27.2500   37.7340 C   0  0  0  0  0  0  0  0  0  0  0  0
   18.0230  -27.2980   36.4770 C   0  0  0  0  0  0  0  0  0  0  0  0
   18.7580  -27.1740   35.3360 F   0  0  0  0  0  0  0  0  0  0  0  0
   17.0850  -26.3080   36.4100 F   0  0  0  0  0  0  0  0  0  0  0  0
   19.3793  -23.8891   39.2085 H   0  0  0  0  0  0  0  0  0  0  0  0
   20.0515  -22.8261   37.9261 H   0  0  0  0  0  0  0  0  0  0  0  0
   18.3031  -23.2381   37.9261 H   0  0  0  0  0  0  0  0  0  0  0  0
   18.8262  -24.9124   36.5081 H   0  0  0  0  0  0  0  0  0  0  0  0
   20.5993  -24.7080   36.8372 H   0  0  0  0  0  0  0  0  0  0  0  0
   20.9591  -25.2482   39.5626 H   0  0  0  0  0  0  0  0  0  0  0  0
   24.1191  -30.0332   41.4829 H   0  0  0  0  0  0  0  0  0  0  0  0
   25.6585  -30.3622   43.4216 H   0  0  0  0  0  0  0  0  0  0  0  0
   25.4469  -28.9150   45.4440 H   0  0  0  0  0  0  0  0  0  0  0  0
   24.4030  -27.1000   46.4240 H   0  0  0  0  0  0  0  0  0  0  0  0
   19.9470  -24.9310   43.1290 H   0  0  0  0  0  0  0  0  0  0  0  0
   19.7173  -29.3038   40.3475 H   0  0  0  0  0  0  0  0  0  0  0  0
   18.3444  -29.2838   38.2799 H   0  0  0  0  0  0  0  0  0  0  0  0
   17.5475  -28.2879   36.5411 H   0  0  0  0  0  0  0  0  0  0  0  0
  1  2  1  0
  2  3  1  0
  3  4  2  0
  4  5  1  0
  5  6  1  0
  6  7  1  0
  7  8  1  0
  8  9  2  0
  9 10  1  0
 10 11  2  0
 11 12  1  0
 12 13  1  0
 12 14  2  0
 14 15  1  0
 15 16  2  0
 15 17  1  0
 17 18  1  0
  5 19  2  0
 19 20  1  0
 20 21  2  0
 21 22  1  0
 22 23  1  0
 22 24  1  0
 21  3  1  0
 17  6  2  0
 14  8  1  0
  1 25  1  0
  1 26  1  0
  1 27  1  0
  2 28  1  0
  2 29  1  0
  4 30  1  0
  9 31  1  0
 10 32  1  0
 11 33  1  0
 13 34  1  0
 18 35  1  0
 19 36  1  0
 20 37  1  0
 22 38  1  0
M  END
>  <meeko>  (7) 
{"is_sidechain": [false], "free_energy": -7.256, "intermolecular_energy": -8.89, "internal_energy": -0.425}

$$$$
cand_017_out
     RDKit          3D

 38 40  0  0  0  0  0  0  0  0999 V2000
   20.6120  -31.2570   34.6570 C   0  0  0  0  0  0  0  0  0  0  0  0
   20.0060  -32.2940   35.5930 C   0  0  0  0  0  0  0  0  0  0  0  0
   19.6670  -31.7070   36.9450 C   0  0  0  0  0  0  0  0  0  0  0  0
   19.7160  -30.3050   37.0910 C   0  0  0  0  0  0  0  0  0  0  0  0
   19.4110  -29.6790   38.3080 C   0  0  0  0  0  0  0  0  0  0  0  0
   19.4390  -28.2080   38.4530 C   0  0  0  0  0  0  0  0  0  0  0  0
   18.6480  -27.5570   37.5140 O   0  0  0  0  0  0  0  0  0  0  0  0
   18.5840  -26.1870   37.5360 C   0  0  0  0  0  0  0  0  0  0  0  0
   17.7910  -25.5740   36.5650 C   0  0  0  0  0  0  0  0  0  0  0  0
   17.6800  -24.1820   36.5330 C   0  0  0  0  0  0  0  0  0  0  0  0
   18.3620  -23.4040   37.4700 C   0  0  0  0  0  0  0  0  0  0  0  0
   19.1530  -24.0180   38.4380 C   0  0  0  0  0  0  0  0  0  0  0  0
   19.7930  -23.1960   39.3250 O   0  0  0  0  0  0  0  0  0  0  0  0
   19.2640  -25.4110   38.4700 C   0  0  0  0  0  0  0  0  0  0  0  0
   20.0840  -26.0960   39.4690 C   0  0  0  0  0  0  0  0  0  0  0  0
   20.7090  -25.4820   40.3320 O   0  0  0  0  0  0  0  0  0  0  0  0
   20.1410  -27.5750   39.4120 C   0  0  0  0  0  0  0  0  0  0  0  0
   20.9090  -28.2130   40.3680 O   0  0  0  0  0  0  0  0  0  0  0  0
   19.0320  -30.4790   39.3890 C   0  0  0  0  0  0  0  0  0  0  0  0
   18.9740  -31.8690   39.2620 C   0  0  0  0  0  0  0  0  0  0  0  0
   19.2850  -32.5020   38.0460 C   0  0  0  0  0  0  0  0  0  0  0  0
   19.2270  -34.0110   37.9720 C   0  0  0  0  0  0  0  0  0  0  0  0
   18.1220  -34.4740   37.3210 F   0  0  0  0  0  0  0  0  0  0  0  0
   19.2040  -34.6160   39.1950 F   0  0  0  0  0  0  0  0  0  0  0  0
   21.0796  -30.4569   35.2496 H   0  0  0  0  0  0  0  0  0  0  0  0
   21.3725  -31.7356   34.0226 H   0  0  0  0  0  0  0  0  0  0  0  0
   19.8217  -30.8293   34.0226 H   0  0  0  0  0  0  0  0  0  0  0  0
   19.0866  -32.6899   35.1370 H   0  0  0  0  0  0  0  0  0  0  0  0
   20.7494  -33.0904   35.7449 H   0  0  0  0  0  0  0  0  0  0  0  0
   20.0010  -29.6863   36.2273 H   0  0  0  0  0  0  0  0  0  0  0  0
   17.2540  -26.1863   35.8257 H   0  0  0  0  0  0  0  0  0  0  0  0
   17.0543  -23.6983   35.7684 H   0  0  0  0  0  0  0  0  0  0  0  0
   18.2749  -22.3078   37.4439 H   0  0  0  0  0  0  0  0  0  0  0  0
   19.8870  -23.4560   40.2200 H   0  0  0  0  0  0  0  0  0  0  0  0
   21.4500  -27.7120   40.9450 H   0  0  0  0  0  0  0  0  0  0  0  0
   18.7766  -30.0093   40.3503 H   0  0  0  0  0  0  0  0  0  0  0  0
   18.6798  -32.4789   40.1288 H   0  0  0  0  0  0  0  0  0  0  0  0
   20.1482  -34.2623   37.4259 H   0  0  0  0  0  0  0  0  0  0  0  0
  1  2  1  0
  2  3  1  0
  3  4  2  0
  4  5  1  0
  5  6  1  0
  6  7  1  0
  7  8  1  0
  8  9  2  0
  9 10  1  0
 10 11  2  0
 11 12  1  0
 12 13  1  0
 12 14  2  0
 14 15  1  0
 15 16  2  0
 15 17  1  0
 17 18  1  0
  5 19  2  0
 19 20  1  0
 20 21  2  0
 21 22  1  0
 22 23  1  0
 22 24  1  0
 21  3  1  0
 17  6  2  0
 14  8  1  0
  1 25  1  0
  1 26  1  0
  1 27  1  0
  2 28  1  0
  2 29  1  0
  4 30  1  0
  9 31  1  0
 10 32  1  0
 11 33  1  0
 13 34  1  0
 18 35  1  0
 19 36  1  0
 20 37  1  0
 22 38  1  0
M  END
>  <meeko>  (8) 
{"is_sidechain": [false], "free_energy": -7.247, "intermolecular_energy": -8.872, "internal_energy": -0.432}

$$$$
cand_017_out
     RDKit          3D

 38 40  0  0  0  0  0  0  0  0999 V2000
   22.0730  -27.6070   41.9500 C   0  0  0  0  0  0  0  0  0  0  0  0
   20.5700  -27.4180   41.8030 C   0  0  0  0  0  0  0  0  0  0  0  0
   20.1330  -27.4570   40.3550 C   0  0  0  0  0  0  0  0  0  0  0  0
   20.0980  -28.7080   39.7050 C   0  0  0  0  0  0  0  0  0  0  0  0
   19.7000  -28.8350   38.3670 C   0  0  0  0  0  0  0  0  0  0  0  0
   19.6410  -30.1500   37.6950 C   0  0  0  0  0  0  0  0  0  0  0  0
   20.0250  -30.0920   36.3600 O   0  0  0  0  0  0  0  0  0  0  0  0
   20.0150  -31.2450   35.6180 C   0  0  0  0  0  0  0  0  0  0  0  0
   20.3930  -31.1380   34.2780 C   0  0  0  0  0  0  0  0  0  0  0  0
   20.4070  -32.2750   33.4660 C   0  0  0  0  0  0  0  0  0  0  0  0
   20.0440  -33.5150   33.9920 C   0  0  0  0  0  0  0  0  0  0  0  0
   19.6680  -33.6190   35.3290 C   0  0  0  0  0  0  0  0  0  0  0  0
   19.3250  -34.8650   35.7790 O   0  0  0  0  0  0  0  0  0  0  0  0
   19.6540  -32.4820   36.1410 C   0  0  0  0  0  0  0  0  0  0  0  0
   19.2640  -32.5460   37.5500 C   0  0  0  0  0  0  0  0  0  0  0  0
   18.9390  -33.6030   38.0890 O   0  0  0  0  0  0  0  0  0  0  0  0
   19.2750  -31.2830   38.3230 C   0  0  0  0  0  0  0  0  0  0  0  0
   18.9170  -31.3570   39.6570 O   0  0  0  0  0  0  0  0  0  0  0  0
   19.3120  -27.6810   37.6790 C   0  0  0  0  0  0  0  0  0  0  0  0
   19.3360  -26.4340   38.3070 C   0  0  0  0  0  0  0  0  0  0  0  0
   19.7400  -26.3010   39.6470 C   0  0  0  0  0  0  0  0  0  0  0  0
   19.7680  -24.9240   40.2690 C   0  0  0  0  0  0  0  0  0  0  0  0
   18.7520  -24.7140   41.1520 F   0  0  0  0  0  0  0  0  0  0  0  0
   19.6680  -23.9120   39.3580 F   0  0  0  0  0  0  0  0  0  0  0  0
   22.3357  -27.6400   43.0177 H   0  0  0  0  0  0  0  0  0  0  0  0
   22.3727  -28.5499   41.4693 H   0  0  0  0  0  0  0  0  0  0  0  0
   22.5969  -26.7677   41.4693 H   0  0  0  0  0  0  0  0  0  0  0  0
   20.0557  -28.2213   42.3510 H   0  0  0  0  0  0  0  0  0  0  0  0
   20.3104  -26.4295   42.2099 H   0  0  0  0  0  0  0  0  0  0  0  0
   20.3912  -29.6092   40.2635 H   0  0  0  0  0  0  0  0  0  0  0  0
   20.6792  -30.1605   33.8625 H   0  0  0  0  0  0  0  0  0  0  0  0
   20.7047  -32.1922   32.4103 H   0  0  0  0  0  0  0  0  0  0  0  0
   20.0547  -34.4094   33.3517 H   0  0  0  0  0  0  0  0  0  0  0  0
   19.9880  -35.4490   36.0900 H   0  0  0  0  0  0  0  0  0  0  0  0
   18.3780  -32.0610   39.9580 H   0  0  0  0  0  0  0  0  0  0  0  0
   18.9843  -27.7564   36.6317 H   0  0  0  0  0  0  0  0  0  0  0  0
   19.0333  -25.5394   37.7430 H   0  0  0  0  0  0  0  0  0  0  0  0
   20.7461  -24.9055   40.7720 H   0  0  0  0  0  0  0  0  0  0  0  0
  1  2  1  0
  2  3  1  0
  3  4  2  0
  4  5  1  0
  5  6  1  0
  6  7  1  0
  7  8  1  0
  8  9  2  0
  9 10  1  0
 10 11  2  0
 11 12  1  0
 12 13  1  0
 12 14  2  0
 14 15  1  0
 15 16  2  0
 15 17  1  0
 17 18  1  0
  5 19  2  0
 19 20  1  0
 20 21  2  0
 21 22  1  0
 22 23  1  0
 22 24  1  0
 21  3  1  0
 17  6  2  0
 14  8  1  0
  1 25  1  0
  1 26  1  0
  1 27  1  0
  2 28  1  0
  2 29  1  0
  4 30  1  0
  9 31  1  0
 10 32  1  0
 11 33  1  0
 13 34  1  0
 18 35  1  0
 19 36  1  0
 20 37  1  0
 22 38  1  0
M  END
>  <meeko>  (9) 
{"is_sidechain": [false], "free_energy": -7.186, "intermolecular_energy": -8.974, "internal_energy": -0.254}

$$$$
