03_receptors/7Q8Y/native_9IV.pdb
 OpenBabel08202615273D

144116  0  0  0  0  0  0  0  0999 V2000
   22.7940  -27.0010   43.4930 N   0  0  0  0  0  0  0  0  0  0  0  0
   22.7840  -26.9870   43.5070 N   0  0  0  0  0  0  0  0  0  0  0  0
   18.7540  -22.4440   36.2060 C   0  0  0  0  0  0  0  0  0  0  0  0
   18.8940  -22.2990   36.3550 C   0  0  0  0  0  0  0  0  0  0  0  0
   25.2900  -30.0450   44.4870 N   0  0  0  0  0  0  0  0  0  0  0  0
   25.2880  -30.0360   44.4720 N   0  0  0  0  0  0  0  0  0  0  0  0
   19.1930  -22.6660   38.5530 C   0  0  0  0  0  0  0  0  0  0  0  0
   18.0430  -24.4130   37.0990 C   0  0  0  0  0  0  0  0  0  0  0  0
   18.5420  -23.8940   38.5540 C   0  0  0  0  0  0  0  0  0  0  0  0
   18.4170  -24.1040   38.3990 C   0  0  0  0  0  0  0  0  0  0  0  0
   19.3430  -25.4540   40.1750 C   0  0  0  0  0  0  0  0  0  0  0  0
   19.2330  -25.6150   40.0390 C   0  0  0  0  0  0  0  0  0  0  0  0
   17.2140  -25.9360   37.3590 Cl  0  0  0  0  0  0  0  0  0  0  0  0
   19.4940  -22.4940   40.2910 Cl  0  0  0  0  0  0  0  0  0  0  0  0
   18.0180  -24.3960   37.3660 C   0  0  0  0  0  0  0  0  0  0  0  0
   19.0420  -22.8900   38.6630 C   0  0  0  0  0  0  0  0  0  0  0  0
   19.3020  -21.9540   37.3730 C   0  0  0  0  0  0  0  0  0  0  0  0
   18.2760  -23.5000   36.0840 C   0  0  0  0  0  0  0  0  0  0  0  0
   18.1190  -23.6730   36.1930 C   0  0  0  0  0  0  0  0  0  0  0  0
   19.2950  -21.9930   37.6440 C   0  0  0  0  0  0  0  0  0  0  0  0
   18.3500  -24.5910   39.7310 O   0  0  0  0  0  0  0  0  0  0  0  0
   18.1520  -24.9480   39.4660 O   0  0  0  0  0  0  0  0  0  0  0  0
   20.3410  -25.9070   39.3230 C   0  0  0  0  0  0  0  0  0  0  0  0
   20.2940  -25.9950   39.2360 C   0  0  0  0  0  0  0  0  0  0  0  0
   21.2680  -26.8270   39.7790 C   0  0  0  0  0  0  0  0  0  0  0  0
   21.2930  -26.8010   39.7500 C   0  0  0  0  0  0  0  0  0  0  0  0
   21.2250  -27.2740   41.0940 C   0  0  0  0  0  0  0  0  0  0  0  0
   21.2450  -27.2180   41.0750 C   0  0  0  0  0  0  0  0  0  0  0  0
   20.2320  -26.8000   41.9420 C   0  0  0  0  0  0  0  0  0  0  0  0
   20.2070  -26.7820   41.8890 C   0  0  0  0  0  0  0  0  0  0  0  0
   19.2810  -25.9080   41.4770 C   0  0  0  0  0  0  0  0  0  0  0  0
   19.1960  -25.9920   41.3690 C   0  0  0  0  0  0  0  0  0  0  0  0
   22.1940  -28.1730   41.5660 N   0  0  0  0  0  0  0  0  0  0  0  0
   22.2060  -28.1220   41.5570 N   0  0  0  0  0  0  0  0  0  0  0  0
   22.9310  -28.0910   42.7050 C   0  0  0  0  0  0  0  0  0  0  0  0
   22.9240  -28.0650   42.7100 C   0  0  0  0  0  0  0  0  0  0  0  0
   23.7990  -29.1590   43.0660 C   0  0  0  0  0  0  0  0  0  0  0  0
   23.7920  -29.1370   43.0630 C   0  0  0  0  0  0  0  0  0  0  0  0
   24.3000  -30.3690   42.4980 C   0  0  0  0  0  0  0  0  0  0  0  0
   24.2780  -30.3520   42.4930 C   0  0  0  0  0  0  0  0  0  0  0  0
   25.1970  -30.8710   43.3880 C   0  0  0  0  0  0  0  0  0  0  0  0
   25.1780  -30.8610   43.3750 C   0  0  0  0  0  0  0  0  0  0  0  0
   24.4570  -28.9810   44.2910 C   0  0  0  0  0  0  0  0  0  0  0  0
   24.4570  -28.9670   44.2850 C   0  0  0  0  0  0  0  0  0  0  0  0
   24.3250  -27.9130   45.1110 N   0  0  0  0  0  0  0  0  0  0  0  0
   24.3300  -27.9090   45.1080 N   0  0  0  0  0  0  0  0  0  0  0  0
   23.4930  -26.9870   44.6340 C   0  0  0  0  0  0  0  0  0  0  0  0
   23.4900  -26.9820   44.6430 C   0  0  0  0  0  0  0  0  0  0  0  0
   23.2807  -27.1658   44.3741 H   0  0  0  0  0  0  0  0  0  0  0  0
   21.8049  -26.8332   43.6771 H   0  0  0  0  0  0  0  0  0  0  0  0
   22.2019  -26.2228   43.2916 H   0  0  0  0  0  0  0  0  0  0  0  0
   19.1616  -21.5434   36.3100 H   0  0  0  0  0  0  0  0  0  0  0  0
   18.5413  -22.5973   35.4749 H   0  0  0  0  0  0  0  0  0  0  0  0
   26.3100  -30.0450   44.4870 H   0  0  0  0  0  0  0  0  0  0  0  0
   24.9500  -29.4981   45.2780 H   0  0  0  0  0  0  0  0  0  0  0  0
   24.9500  -31.0035   44.5651 H   0  0  0  0  0  0  0  0  0  0  0  0
   26.3080  -30.0360   44.4720 H   0  0  0  0  0  0  0  0  0  0  0  0
   24.9480  -29.1090   44.2162 H   0  0  0  0  0  0  0  0  0  0  0  0
   24.9480  -30.2780   45.4027 H   0  0  0  0  0  0  0  0  0  0  0  0
   19.1037  -23.2551   39.3486 H   0  0  0  0  0  0  0  0  0  0  0  0
   17.9786  -25.0405   37.8672 H   0  0  0  0  0  0  0  0  0  0  0  0
   18.2478  -24.2670   37.6379 H   0  0  0  0  0  0  0  0  0  0  0  0
   18.9592  -23.2360   38.5318 H   0  0  0  0  0  0  0  0  0  0  0  0
   19.4539  -25.0482   39.2744 H   0  0  0  0  0  0  0  0  0  0  0  0
   18.5471  -24.9356   39.6742 H   0  0  0  0  0  0  0  0  0  0  0  0
   19.0726  -26.0713   40.9506 H   0  0  0  0  0  0  0  0  0  0  0  0
   18.4420  -25.9360   37.3590 H   0  0  0  0  0  0  0  0  0  0  0  0
   20.7220  -22.4940   40.2910 H   0  0  0  0  0  0  0  0  0  0  0  0
   17.4774  -25.2673   37.2490 H   0  0  0  0  0  0  0  0  0  0  0  0
   18.1991  -23.7879   36.5521 H   0  0  0  0  0  0  0  0  0  0  0  0
   19.3217  -22.5515   39.5969 H   0  0  0  0  0  0  0  0  0  0  0  0
   19.2202  -22.3090   37.8289 H   0  0  0  0  0  0  0  0  0  0  0  0
   19.6547  -21.6557   38.2531 H   0  0  0  0  0  0  0  0  0  0  0  0
   17.8684  -24.4006   35.9800 H   0  0  0  0  0  0  0  0  0  0  0  0
   18.1834  -23.0455   35.4248 H   0  0  0  0  0  0  0  0  0  0  0  0
   19.3843  -21.4039   36.8484 H   0  0  0  0  0  0  0  0  0  0  0  0
   20.4785  -25.4374   38.4144 H   0  0  0  0  0  0  0  0  0  0  0  0
   21.3640  -25.9950   39.2360 H   0  0  0  0  0  0  0  0  0  0  0  0
   19.9373  -26.7370   38.5525 H   0  0  0  0  0  0  0  0  0  0  0  0
   19.9373  -25.0321   38.9352 H   0  0  0  0  0  0  0  0  0  0  0  0
   19.9373  -26.2159   40.2203 H   0  0  0  0  0  0  0  0  0  0  0  0
   21.2849  -26.5399   38.8275 H   0  0  0  0  0  0  0  0  0  0  0  0
   21.0074  -27.1989   40.7013 H   0  0  0  0  0  0  0  0  0  0  0  0
   22.2354  -26.3025   39.8403 H   0  0  0  0  0  0  0  0  0  0  0  0
   21.3775  -27.5978   39.0409 H   0  0  0  0  0  0  0  0  0  0  0  0
   21.8249  -27.9535   41.6626 H   0  0  0  0  0  0  0  0  0  0  0  0
   21.8329  -26.4632   40.7505 H   0  0  0  0  0  0  0  0  0  0  0  0
   20.8053  -27.7862   40.2535 H   0  0  0  0  0  0  0  0  0  0  0  0
   21.2281  -27.5051   42.0265 H   0  0  0  0  0  0  0  0  0  0  0  0
   21.3020  -26.8000   41.9420 H   0  0  0  0  0  0  0  0  0  0  0  0
   19.8753  -27.6061   42.5485 H   0  0  0  0  0  0  0  0  0  0  0  0
   19.8753  -26.9222   40.9406 H   0  0  0  0  0  0  0  0  0  0  0  0
   19.8753  -25.8717   42.3368 H   0  0  0  0  0  0  0  0  0  0  0  0
   20.1576  -27.1107   42.8660 H   0  0  0  0  0  0  0  0  0  0  0  0
   19.2983  -25.5569   40.5067 H   0  0  0  0  0  0  0  0  0  0  0  0
   18.5496  -25.5851   42.1296 H   0  0  0  0  0  0  0  0  0  0  0  0
   19.0851  -26.3978   42.2696 H   0  0  0  0  0  0  0  0  0  0  0  0
   23.2140  -28.1730   41.5660 H   0  0  0  0  0  0  0  0  0  0  0  0
   21.8540  -28.5346   42.4571 H   0  0  0  0  0  0  0  0  0  0  0  0
   21.8540  -28.7639   40.8073 H   0  0  0  0  0  0  0  0  0  0  0  0
   22.8266  -28.3014   40.7677 H   0  0  0  0  0  0  0  0  0  0  0  0
   21.7392  -27.2247   41.4254 H   0  0  0  0  0  0  0  0  0  0  0  0
   23.4207  -29.0323   42.8431 H   0  0  0  0  0  0  0  0  0  0  0  0
   22.2800  -27.9028   43.5330 H   0  0  0  0  0  0  0  0  0  0  0  0
   23.6635  -27.3135   42.6433 H   0  0  0  0  0  0  0  0  0  0  0  0
   23.9616  -28.2410   42.5168 H   0  0  0  0  0  0  0  0  0  0  0  0
   22.4134  -27.8921   41.7857 H   0  0  0  0  0  0  0  0  0  0  0  0
   22.5018  -28.9195   43.1963 H   0  0  0  0  0  0  0  0  0  0  0  0
   24.8690  -29.1590   43.0660 H   0  0  0  0  0  0  0  0  0  0  0  0
   23.4423  -28.5716   43.8861 H   0  0  0  0  0  0  0  0  0  0  0  0
   23.4423  -30.1630   43.1646 H   0  0  0  0  0  0  0  0  0  0  0  0
   23.4423  -28.7424   42.1472 H   0  0  0  0  0  0  0  0  0  0  0  0
   24.8620  -29.1370   43.0630 H   0  0  0  0  0  0  0  0  0  0  0  0
   23.4353  -30.0984   43.3687 H   0  0  0  0  0  0  0  0  0  0  0  0
   23.4353  -28.9211   42.0776 H   0  0  0  0  0  0  0  0  0  0  0  0
   23.4353  -28.3916   43.7427 H   0  0  0  0  0  0  0  0  0  0  0  0
   23.6462  -30.0027   41.8450 H   0  0  0  0  0  0  0  0  0  0  0  0
   25.3480  -30.3520   42.4930 H   0  0  0  0  0  0  0  0  0  0  0  0
   23.9213  -30.6812   41.5394 H   0  0  0  0  0  0  0  0  0  0  0  0
   23.9213  -29.3616   42.6847 H   0  0  0  0  0  0  0  0  0  0  0  0
   23.9213  -31.0132   43.2549 H   0  0  0  0  0  0  0  0  0  0  0  0
   26.2670  -30.8710   43.3880 H   0  0  0  0  0  0  0  0  0  0  0  0
   24.8403  -30.8031   44.3945 H   0  0  0  0  0  0  0  0  0  0  0  0
   24.8403  -31.7766   42.9436 H   0  0  0  0  0  0  0  0  0  0  0  0
   24.8403  -30.0333   42.8259 H   0  0  0  0  0  0  0  0  0  0  0  0
   25.8318  -31.2273   44.0280 H   0  0  0  0  0  0  0  0  0  0  0  0
   25.5270  -28.9810   44.2910 H   0  0  0  0  0  0  0  0  0  0  0  0
   24.1003  -27.9835   44.4416 H   0  0  0  0  0  0  0  0  0  0  0  0
   24.1003  -29.6102   45.0796 H   0  0  0  0  0  0  0  0  0  0  0  0
   24.1003  -29.3493   43.3518 H   0  0  0  0  0  0  0  0  0  0  0  0
   25.5270  -28.9670   44.2850 H   0  0  0  0  0  0  0  0  0  0  0  0
   24.1003  -29.5621   43.4704 H   0  0  0  0  0  0  0  0  0  0  0  0
   24.1003  -27.9640   44.1769 H   0  0  0  0  0  0  0  0  0  0  0  0
   24.1003  -29.3749   45.2077 H   0  0  0  0  0  0  0  0  0  0  0  0
   25.3450  -27.9130   45.1110 H   0  0  0  0  0  0  0  0  0  0  0  0
   23.9850  -26.9848   45.3624 H   0  0  0  0  0  0  0  0  0  0  0  0
   23.9850  -28.5949   45.7891 H   0  0  0  0  0  0  0  0  0  0  0  0
   24.7863  -27.7639   45.9682 H   0  0  0  0  0  0  0  0  0  0  0  0
   24.4921  -28.7354   44.5980 H   0  0  0  0  0  0  0  0  0  0  0  0
   23.3773  -26.1505   45.2272 H   0  0  0  0  0  0  0  0  0  0  0  0
   24.5600  -26.9820   44.6430 H   0  0  0  0  0  0  0  0  0  0  0  0
   23.1333  -27.9873   44.7274 H   0  0  0  0  0  0  0  0  0  0  0  0
   23.1333  -26.5524   43.7302 H   0  0  0  0  0  0  0  0  0  0  0  0
   23.1333  -26.4063   45.4714 H   0  0  0  0  0  0  0  0  0  0  0  0
  1 49  1  0  0  0  0
  1 50  1  0  0  0  0
  2 47  2  0  0  0  0
  2 51  1  0  0  0  0
  3 52  1  0  0  0  0
  4 17  3  0  0  0  0
  4 53  1  0  0  0  0
  5 54  1  0  0  0  0
  5 55  1  0  0  0  0
  5 56  1  0  0  0  0
  6 57  1  0  0  0  0
  6 58  1  0  0  0  0
  6 59  1  0  0  0  0
  7 60  1  0  0  0  0
  8 61  1  0  0  0  0
  9 16  2  0  0  0  0
  9 21  1  0  0  0  0
  9 62  1  0  0  0  0
 10 22  1  0  0  0  0
 10 63  1  0  0  0  0
 11 32  3  0  0  0  0
 11 64  1  0  0  0  0
 12 65  1  0  0  0  0
 12 66  1  0  0  0  0
 13 67  1  0  0  0  0
 14 68  1  0  0  0  0
 15 10  2  0  0  0  0
 15 69  1  0  0  0  0
 15 70  1  0  0  0  0
 16 71  1  0  0  0  0
 16 72  1  0  0  0  0
 17 73  1  0  0  0  0
 18  3  3  0  0  0  0
 18 74  1  0  0  0  0
 19  8  3  0  0  0  0
 19 75  1  0  0  0  0
 20  7  3  0  0  0  0
 20 76  1  0  0  0  0
 22 21  1  0  0  0  0
 23 26  1  0  0  0  0
 23 12  2  0  0  0  0
 23 77  1  0  0  0  0
 24 78  1  0  0  0  0
 24 79  1  0  0  0  0
 24 80  1  0  0  0  0
 24 81  1  0  0  0  0
 25 28  3  0  0  0  0
 25 82  1  0  0  0  0
 26 83  1  0  0  0  0
 26 84  1  0  0  0  0
 26 85  1  0  0  0  0
 27 30  1  0  0  0  0
 27 86  1  0  0  0  0
 27 87  1  0  0  0  0
 27 88  1  0  0  0  0
 28 89  1  0  0  0  0
 29 90  1  0  0  0  0
 29 91  1  0  0  0  0
 29 92  1  0  0  0  0
 29 93  1  0  0  0  0
 30 94  1  0  0  0  0
 31 30  2  0  0  0  0
 31 95  1  0  0  0  0
 31 96  1  0  0  0  0
 32 97  1  0  0  0  0
 33 98  1  0  0  0  0
 33 99  1  0  0  0  0
 33100  1  0  0  0  0
 34 35  1  0  0  0  0
 34101  1  0  0  0  0
 34102  1  0  0  0  0
 35103  1  0  0  0  0
 35104  1  0  0  0  0
 35105  1  0  0  0  0
 36  1  1  0  0  0  0
 36106  1  0  0  0  0
 36107  1  0  0  0  0
 36108  1  0  0  0  0
 37109  1  0  0  0  0
 37110  1  0  0  0  0
 37111  1  0  0  0  0
 37112  1  0  0  0  0
 38113  1  0  0  0  0
 38114  1  0  0  0  0
 38115  1  0  0  0  0
 38116  1  0  0  0  0
 39 42  3  0  0  0  0
 39117  1  0  0  0  0
 40118  1  0  0  0  0
 40119  1  0  0  0  0
 40120  1  0  0  0  0
 40121  1  0  0  0  0
 41122  1  0  0  0  0
 41123  1  0  0  0  0
 41124  1  0  0  0  0
 41125  1  0  0  0  0
 42126  1  0  0  0  0
 43127  1  0  0  0  0
 43128  1  0  0  0  0
 43129  1  0  0  0  0
 43130  1  0  0  0  0
 44131  1  0  0  0  0
 44132  1  0  0  0  0
 44133  1  0  0  0  0
 44134  1  0  0  0  0
 45135  1  0  0  0  0
 45136  1  0  0  0  0
 45137  1  0  0  0  0
 46138  1  0  0  0  0
 46139  1  0  0  0  0
 47 46  1  0  0  0  0
 47140  1  0  0  0  0
 48141  1  0  0  0  0
 48142  1  0  0  0  0
 48143  1  0  0  0  0
 48144  1  0  0  0  0
M  END
$$$$
