harmine_out
     RDKit          3D

 28 30  0  0  0  0  0  0  0  0999 V2000
   54.1280  149.3770   24.7830 C   0  0  0  0  0  0  0  0  0  0  0  0
   54.1510  150.4860   23.8930 O   0  0  0  0  0  0  0  0  0  0  0  0
   53.9670  151.7270   24.4420 C   0  0  0  0  0  0  0  0  0  0  0  0
   54.3450  152.9380   23.8650 C   0  0  0  0  0  0  0  0  0  0  0  0
   54.1050  154.1540   24.5230 C   0  0  0  0  0  0  0  0  0  0  0  0
   53.4750  154.1550   25.7830 C   0  0  0  0  0  0  0  0  0  0  0  0
   53.1070  152.9320   26.3380 C   0  0  0  0  0  0  0  0  0  0  0  0
   53.3380  151.7100   25.6950 C   0  0  0  0  0  0  0  0  0  0  0  0
   52.5180  153.1990   27.5510 N   0  0  0  0  0  0  0  0  0  0  0  0
   52.4920  154.5520   27.8010 C   0  0  0  0  0  0  0  0  0  0  0  0
   51.9950  155.2640   28.8990 C   0  0  0  0  0  0  0  0  0  0  0  0
   51.3510  154.6310   30.0920 C   0  0  0  0  0  0  0  0  0  0  0  0
   52.1060  156.6190   28.8780 N   0  0  0  0  0  0  0  0  0  0  0  0
   52.6810  157.2290   27.8190 C   0  0  0  0  0  0  0  0  0  0  0  0
   53.1890  156.5750   26.7100 C   0  0  0  0  0  0  0  0  0  0  0  0
   53.0870  155.1770   26.7060 C   0  0  0  0  0  0  0  0  0  0  0  0
   54.1355  149.7400   25.8214 H   0  0  0  0  0  0  0  0  0  0  0  0
   53.2174  148.7853   24.6080 H   0  0  0  0  0  0  0  0  0  0  0  0
   55.0133  148.7480   24.6080 H   0  0  0  0  0  0  0  0  0  0  0  0
   54.8376  152.9407   22.8815 H   0  0  0  0  0  0  0  0  0  0  0  0
   54.4077  155.1031   24.0566 H   0  0  0  0  0  0  0  0  0  0  0  0
   53.0339  150.7610   26.1608 H   0  0  0  0  0  0  0  0  0  0  0  0
   52.1630  152.5130   28.1610 H   0  0  0  0  0  0  0  0  0  0  0  0
   51.7829  155.0555   31.0103 H   0  0  0  0  0  0  0  0  0  0  0  0
   50.2687  154.8266   30.0714 H   0  0  0  0  0  0  0  0  0  0  0  0
   51.5279  153.5455   30.0714 H   0  0  0  0  0  0  0  0  0  0  0  0
   52.7507  158.3266   27.8394 H   0  0  0  0  0  0  0  0  0  0  0  0
   53.6489  157.1239   25.8750 H   0  0  0  0  0  0  0  0  0  0  0  0
  1  2  1  0
  2  3  1  0
  3  4  2  0
  4  5  1  0
  5  6  2  0
  6  7  1  0
  7  8  2  0
  7  9  1  0
  9 10  1  0
 10 11  2  0
 11 12  1  0
 11 13  1  0
 13 14  2  0
 14 15  1  0
 15 16  2  0
  8  3  1  0
 16 10  1  0
 16  6  1  0
  1 17  1  0
  1 18  1  0
  1 19  1  0
  4 20  1  0
  5 21  1  0
  8 22  1  0
  9 23  1  0
 12 24  1  0
 12 25  1  0
 12 26  1  0
 14 27  1  0
 15 28  1  0
M  END
>  <meeko>  (1) 
{"is_sidechain": [false], "free_energy": -8.632, "intermolecular_energy": -9.136, "internal_energy": -0.06}

$$$$
harmine_out
     RDKit          3D

 28 30  0  0  0  0  0  0  0  0999 V2000
   52.2670  154.3390   26.3810 C   0  0  0  0  0  0  0  0  0  0  0  0
   52.6530  154.5400   27.7340 O   0  0  0  0  0  0  0  0  0  0  0  0
   51.9520  155.4760   28.4480 C   0  0  0  0  0  0  0  0  0  0  0  0
   50.6690  155.3120   28.9670 C   0  0  0  0  0  0  0  0  0  0  0  0
   50.0460  156.3450   29.6850 C   0  0  0  0  0  0  0  0  0  0  0  0
   50.7240  157.5640   29.8850 C   0  0  0  0  0  0  0  0  0  0  0  0
   52.0050  157.7030   29.3570 C   0  0  0  0  0  0  0  0  0  0  0  0
   52.6400  156.6820   28.6390 C   0  0  0  0  0  0  0  0  0  0  0  0
   52.4430  158.9630   29.6850 N   0  0  0  0  0  0  0  0  0  0  0  0
   51.4920  159.6460   30.4070 C   0  0  0  0  0  0  0  0  0  0  0  0
   51.5110  160.9400   30.9400 C   0  0  0  0  0  0  0  0  0  0  0  0
   52.6620  161.8870   30.8110 C   0  0  0  0  0  0  0  0  0  0  0  0
   50.4110  161.3610   31.6200 N   0  0  0  0  0  0  0  0  0  0  0  0
   49.3510  160.5360   31.7600 C   0  0  0  0  0  0  0  0  0  0  0  0
   49.2790  159.2490   31.2530 C   0  0  0  0  0  0  0  0  0  0  0  0
   50.4000  158.7900   30.5480 C   0  0  0  0  0  0  0  0  0  0  0  0
   51.2917  153.8312   26.3495 H   0  0  0  0  0  0  0  0  0  0  0  0
   52.1905  155.3118   25.8732 H   0  0  0  0  0  0  0  0  0  0  0  0
   53.0201  153.7185   25.8732 H   0  0  0  0  0  0  0  0  0  0  0  0
   50.1379  154.3612   28.8121 H   0  0  0  0  0  0  0  0  0  0  0  0
   49.0330  156.2035   30.0897 H   0  0  0  0  0  0  0  0  0  0  0  0
   53.6534  156.8230   28.2351 H   0  0  0  0  0  0  0  0  0  0  0  0
   53.3220  159.3290   29.4360 H   0  0  0  0  0  0  0  0  0  0  0  0
   53.0131  162.1759   31.8126 H   0  0  0  0  0  0  0  0  0  0  0  0
   53.4802  161.3971   30.2628 H   0  0  0  0  0  0  0  0  0  0  0  0
   52.3389  162.7842   30.2628 H   0  0  0  0  0  0  0  0  0  0  0  0
   48.4812  160.9137   32.3174 H   0  0  0  0  0  0  0  0  0  0  0  0
   48.3882  158.6198   31.3963 H   0  0  0  0  0  0  0  0  0  0  0  0
  1  2  1  0
  2  3  1  0
  3  4  2  0
  4  5  1  0
  5  6  2  0
  6  7  1  0
  7  8  2  0
  7  9  1  0
  9 10  1  0
 10 11  2  0
 11 12  1  0
 11 13  1  0
 13 14  2  0
 14 15  1  0
 15 16  2  0
  8  3  1  0
 16 10  1  0
 16  6  1  0
  1 17  1  0
  1 18  1  0
  1 19  1  0
  4 20  1  0
  5 21  1  0
  8 22  1  0
  9 23  1  0
 12 24  1  0
 12 25  1  0
 12 26  1  0
 14 27  1  0
 15 28  1  0
M  END
>  <meeko>  (2) 
{"is_sidechain": [false], "free_energy": -8.184, "intermolecular_energy": -8.687, "internal_energy": -0.035}

$$$$
harmine_out
     RDKit          3D

 28 30  0  0  0  0  0  0  0  0999 V2000
   50.8260  158.7030   30.0940 C   0  0  0  0  0  0  0  0  0  0  0  0
   52.0410  158.3490   29.4470 O   0  0  0  0  0  0  0  0  0  0  0  0
   52.1170  157.0880   28.9150 C   0  0  0  0  0  0  0  0  0  0  0  0
   51.5320  155.9410   29.4490 C   0  0  0  0  0  0  0  0  0  0  0  0
   51.6770  154.6980   28.8150 C   0  0  0  0  0  0  0  0  0  0  0  0
   52.4220  154.6040   27.6230 C   0  0  0  0  0  0  0  0  0  0  0  0
   52.9950  155.7640   27.1080 C   0  0  0  0  0  0  0  0  0  0  0  0
   52.8590  157.0120   27.7280 C   0  0  0  0  0  0  0  0  0  0  0  0
   53.6570  155.4120   25.9570 N   0  0  0  0  0  0  0  0  0  0  0  0
   53.5330  154.0640   25.7080 C   0  0  0  0  0  0  0  0  0  0  0  0
   54.0390  153.2840   24.6620 C   0  0  0  0  0  0  0  0  0  0  0  0
   54.8710  153.8170   23.5380 C   0  0  0  0  0  0  0  0  0  0  0  0
   53.7550  151.9540   24.6690 N   0  0  0  0  0  0  0  0  0  0  0  0
   53.0070  151.4330   25.6660 C   0  0  0  0  0  0  0  0  0  0  0  0
   52.4830  152.1570   26.7230 C   0  0  0  0  0  0  0  0  0  0  0  0
   52.7610  153.5310   26.7390 C   0  0  0  0  0  0  0  0  0  0  0  0
   50.9658  158.6623   31.1843 H   0  0  0  0  0  0  0  0  0  0  0  0
   50.5372  159.7226   29.7992 H   0  0  0  0  0  0  0  0  0  0  0  0
   50.0347  157.9981   29.7992 H   0  0  0  0  0  0  0  0  0  0  0  0
   50.9493  156.0114   30.3793 H   0  0  0  0  0  0  0  0  0  0  0  0
   51.2108  153.8002   29.2469 H   0  0  0  0  0  0  0  0  0  0  0  0
   53.3228  157.9104   27.2946 H   0  0  0  0  0  0  0  0  0  0  0  0
   54.1550  156.0410   25.3870 H   0  0  0  0  0  0  0  0  0  0  0  0
   55.7307  154.3678   23.9473 H   0  0  0  0  0  0  0  0  0  0  0  0
   55.2314  152.9812   22.9202 H   0  0  0  0  0  0  0  0  0  0  0  0
   54.2624  154.4938   22.9202 H   0  0  0  0  0  0  0  0  0  0  0  0
   52.7989  150.3533   25.6356 H   0  0  0  0  0  0  0  0  0  0  0  0
   51.8800  151.6793   27.5093 H   0  0  0  0  0  0  0  0  0  0  0  0
  1  2  1  0
  2  3  1  0
  3  4  2  0
  4  5  1  0
  5  6  2  0
  6  7  1  0
  7  8  2  0
  7  9  1  0
  9 10  1  0
 10 11  2  0
 11 12  1  0
 11 13  1  0
 13 14  2  0
 14 15  1  0
 15 16  2  0
  8  3  1  0
 16 10  1  0
 16  6  1  0
  1 17  1  0
  1 18  1  0
  1 19  1  0
  4 20  1  0
  5 21  1  0
  8 22  1  0
  9 23  1  0
 12 24  1  0
 12 25  1  0
 12 26  1  0
 14 27  1  0
 15 28  1  0
M  END
>  <meeko>  (3) 
{"is_sidechain": [false], "free_energy": -8.167, "intermolecular_energy": -8.665, "internal_energy": -0.039}

$$$$
harmine_out
     RDKit          3D

 28 30  0  0  0  0  0  0  0  0999 V2000
   51.0320  158.1040   29.9100 C   0  0  0  0  0  0  0  0  0  0  0  0
   51.3800  156.7260   29.9260 O   0  0  0  0  0  0  0  0  0  0  0  0
   51.9670  156.2200   28.7960 C   0  0  0  0  0  0  0  0  0  0  0  0
   52.6140  156.9630   27.8110 C   0  0  0  0  0  0  0  0  0  0  0  0
   53.1810  156.3350   26.6920 C   0  0  0  0  0  0  0  0  0  0  0  0
   53.0950  154.9350   26.5580 C   0  0  0  0  0  0  0  0  0  0  0  0
   52.4440  154.2140   27.5560 C   0  0  0  0  0  0  0  0  0  0  0  0
   51.8740  154.8260   28.6800 C   0  0  0  0  0  0  0  0  0  0  0  0
   52.4970  152.8890   27.1980 N   0  0  0  0  0  0  0  0  0  0  0  0
   53.1600  152.7250   26.0040 C   0  0  0  0  0  0  0  0  0  0  0  0
   53.4430  151.5650   25.2740 C   0  0  0  0  0  0  0  0  0  0  0  0
   53.0450  150.1850   25.6950 C   0  0  0  0  0  0  0  0  0  0  0  0
   54.1250  151.7020   24.1050 N   0  0  0  0  0  0  0  0  0  0  0  0
   54.5030  152.9310   23.6890 C   0  0  0  0  0  0  0  0  0  0  0  0
   54.2490  154.1090   24.3700 C   0  0  0  0  0  0  0  0  0  0  0  0
   53.5470  153.9950   25.5790 C   0  0  0  0  0  0  0  0  0  0  0  0
   50.9394  158.4708   30.9429 H   0  0  0  0  0  0  0  0  0  0  0  0
   51.8145  158.6737   29.3874 H   0  0  0  0  0  0  0  0  0  0  0  0
   50.0729  158.2339   29.3874 H   0  0  0  0  0  0  0  0  0  0  0  0
   52.6811  158.0563   27.9120 H   0  0  0  0  0  0  0  0  0  0  0  0
   53.6907  156.9331   25.9223 H   0  0  0  0  0  0  0  0  0  0  0  0
   51.3666  154.2282   29.4515 H   0  0  0  0  0  0  0  0  0  0  0  0
   52.1110  152.1540   27.7270 H   0  0  0  0  0  0  0  0  0  0  0  0
   53.0283  150.1272   26.7934 H   0  0  0  0  0  0  0  0  0  0  0  0
   52.0441  149.9557   25.3005 H   0  0  0  0  0  0  0  0  0  0  0  0
   53.7700  149.4579   25.3005 H   0  0  0  0  0  0  0  0  0  0  0  0
   55.0532  153.0003   22.7390 H   0  0  0  0  0  0  0  0  0  0  0  0
   54.5805  155.0839   23.9832 H   0  0  0  0  0  0  0  0  0  0  0  0
  1  2  1  0
  2  3  1  0
  3  4  2  0
  4  5  1  0
  5  6  2  0
  6  7  1  0
  7  8  2  0
  7  9  1  0
  9 10  1  0
 10 11  2  0
 11 12  1  0
 11 13  1  0
 13 14  2  0
 14 15  1  0
 15 16  2  0
  8  3  1  0
 16 10  1  0
 16  6  1  0
  1 17  1  0
  1 18  1  0
  1 19  1  0
  4 20  1  0
  5 21  1  0
  8 22  1  0
  9 23  1  0
 12 24  1  0
 12 25  1  0
 12 26  1  0
 14 27  1  0
 15 28  1  0
M  END
>  <meeko>  (4) 
{"is_sidechain": [false], "free_energy": -8.136, "intermolecular_energy": -8.63, "internal_energy": -0.041}

$$$$
harmine_out
     RDKit          3D

 28 30  0  0  0  0  0  0  0  0999 V2000
   52.7310  153.6080   27.7360 C   0  0  0  0  0  0  0  0  0  0  0  0
   51.5100  154.1740   28.1930 O   0  0  0  0  0  0  0  0  0  0  0  0
   51.5590  155.4610   28.6610 C   0  0  0  0  0  0  0  0  0  0  0  0
   52.6480  156.3250   28.5580 C   0  0  0  0  0  0  0  0  0  0  0  0
   52.5850  157.6270   29.0770 C   0  0  0  0  0  0  0  0  0  0  0  0
   51.4070  158.0700   29.7110 C   0  0  0  0  0  0  0  0  0  0  0  0
   50.3330  157.1890   29.8000 C   0  0  0  0  0  0  0  0  0  0  0  0
   50.3800  155.8870   29.2870 C   0  0  0  0  0  0  0  0  0  0  0  0
   49.3200  157.8510   30.4500 N   0  0  0  0  0  0  0  0  0  0  0  0
   49.6990  159.1310   30.7850 C   0  0  0  0  0  0  0  0  0  0  0  0
   48.9960  160.1430   31.4470 C   0  0  0  0  0  0  0  0  0  0  0  0
   47.5930  160.0060   31.9480 C   0  0  0  0  0  0  0  0  0  0  0  0
   49.6310  161.3300   31.6460 N   0  0  0  0  0  0  0  0  0  0  0  0
   50.8980  161.4940   31.2090 C   0  0  0  0  0  0  0  0  0  0  0  0
   51.6390  160.5280   30.5510 C   0  0  0  0  0  0  0  0  0  0  0  0
   51.0080  159.2960   30.3320 C   0  0  0  0  0  0  0  0  0  0  0  0
   53.3485  153.3217   28.6001 H   0  0  0  0  0  0  0  0  0  0  0  0
   52.5170  152.7173   27.1271 H   0  0  0  0  0  0  0  0  0  0  0  0
   53.2725  154.3470   27.1271 H   0  0  0  0  0  0  0  0  0  0  0  0
   53.5686  155.9816   28.0635 H   0  0  0  0  0  0  0  0  0  0  0  0
   53.4514  158.2991   28.9894 H   0  0  0  0  0  0  0  0  0  0  0  0
   49.5131  155.2154   29.3733 H   0  0  0  0  0  0  0  0  0  0  0  0
   48.4380  157.4610   30.6500 H   0  0  0  0  0  0  0  0  0  0  0  0
   47.5948  160.0062   33.0480 H   0  0  0  0  0  0  0  0  0  0  0  0
   46.9890  160.8494   31.5822 H   0  0  0  0  0  0  0  0  0  0  0  0
   47.1636  159.0616   31.5822 H   0  0  0  0  0  0  0  0  0  0  0  0
   51.3768  162.4678   31.3894 H   0  0  0  0  0  0  0  0  0  0  0  0
   52.6699  160.7174   30.2172 H   0  0  0  0  0  0  0  0  0  0  0  0
  1  2  1  0
  2  3  1  0
  3  4  2  0
  4  5  1  0
  5  6  2  0
  6  7  1  0
  7  8  2  0
  7  9  1  0
  9 10  1  0
 10 11  2  0
 11 12  1  0
 11 13  1  0
 13 14  2  0
 14 15  1  0
 15 16  2  0
  8  3  1  0
 16 10  1  0
 16  6  1  0
  1 17  1  0
  1 18  1  0
  1 19  1  0
  4 20  1  0
  5 21  1  0
  8 22  1  0
  9 23  1  0
 12 24  1  0
 12 25  1  0
 12 26  1  0
 14 27  1  0
 15 28  1  0
M  END
>  <meeko>  (5) 
{"is_sidechain": [false], "free_energy": -7.805, "intermolecular_energy": -8.279, "internal_energy": -0.042}

$$$$
harmine_out
     RDKit          3D

 28 30  0  0  0  0  0  0  0  0999 V2000
   49.1180  158.3510   30.3420 C   0  0  0  0  0  0  0  0  0  0  0  0
   50.3570  157.7380   30.6740 O   0  0  0  0  0  0  0  0  0  0  0  0
   51.0900  157.2190   29.6390 C   0  0  0  0  0  0  0  0  0  0  0  0
   51.9740  157.9310   28.8300 C   0  0  0  0  0  0  0  0  0  0  0  0
   52.6740  157.2930   27.7950 C   0  0  0  0  0  0  0  0  0  0  0  0
   52.4840  155.9150   27.5680 C   0  0  0  0  0  0  0  0  0  0  0  0
   51.5970  155.2260   28.3910 C   0  0  0  0  0  0  0  0  0  0  0  0
   50.8910  155.8480   29.4280 C   0  0  0  0  0  0  0  0  0  0  0  0
   51.5890  153.9170   27.9730 N   0  0  0  0  0  0  0  0  0  0  0  0
   52.4410  153.7340   26.9080 C   0  0  0  0  0  0  0  0  0  0  0  0
   52.7430  152.5810   26.1740 C   0  0  0  0  0  0  0  0  0  0  0  0
   52.1470  151.2340   26.4370 C   0  0  0  0  0  0  0  0  0  0  0  0
   53.6370  152.6940   25.1550 N   0  0  0  0  0  0  0  0  0  0  0  0
   54.1980  153.8930   24.8850 C   0  0  0  0  0  0  0  0  0  0  0  0
   53.9350  155.0630   25.5760 C   0  0  0  0  0  0  0  0  0  0  0  0
   53.0170  154.9740   26.6320 C   0  0  0  0  0  0  0  0  0  0  0  0
   48.5814  158.6165   31.2648 H   0  0  0  0  0  0  0  0  0  0  0  0
   49.3053  159.2604   29.7522 H   0  0  0  0  0  0  0  0  0  0  0  0
   48.5087  157.6504   29.7522 H   0  0  0  0  0  0  0  0  0  0  0  0
   52.1246  159.0065   29.0052 H   0  0  0  0  0  0  0  0  0  0  0  0
   53.3685  157.8660   27.1631 H   0  0  0  0  0  0  0  0  0  0  0  0
   50.1976  155.2749   30.0611 H   0  0  0  0  0  0  0  0  0  0  0  0
   51.0460  153.2050   28.3810 H   0  0  0  0  0  0  0  0  0  0  0  0
   52.0747  151.0706   27.5224 H   0  0  0  0  0  0  0  0  0  0  0  0
   51.1427  151.1840   25.9910 H   0  0  0  0  0  0  0  0  0  0  0  0
   52.7854  150.4571   25.9910 H   0  0  0  0  0  0  0  0  0  0  0  0
   54.9173  153.9431   24.0542 H   0  0  0  0  0  0  0  0  0  0  0  0
   54.4210  156.0134   25.3105 H   0  0  0  0  0  0  0  0  0  0  0  0
  1  2  1  0
  2  3  1  0
  3  4  2  0
  4  5  1  0
  5  6  2  0
  6  7  1  0
  7  8  2  0
  7  9  1  0
  9 10  1  0
 10 11  2  0
 11 12  1  0
 11 13  1  0
 13 14  2  0
 14 15  1  0
 15 16  2  0
  8  3  1  0
 16 10  1  0
 16  6  1  0
  1 17  1  0
  1 18  1  0
  1 19  1  0
  4 20  1  0
  5 21  1  0
  8 22  1  0
  9 23  1  0
 12 24  1  0
 12 25  1  0
 12 26  1  0
 14 27  1  0
 15 28  1  0
M  END
>  <meeko>  (6) 
{"is_sidechain": [false], "free_energy": -6.921, "intermolecular_energy": -7.346, "internal_energy": -0.039}

$$$$
harmine_out
     RDKit          3D

 28 30  0  0  0  0  0  0  0  0999 V2000
   53.9890  148.6330   24.7330 C   0  0  0  0  0  0  0  0  0  0  0  0
   52.8150  148.9380   25.4740 O   0  0  0  0  0  0  0  0  0  0  0  0
   52.6880  150.2220   25.9350 C   0  0  0  0  0  0  0  0  0  0  0  0
   51.9350  150.6210   27.0380 C   0  0  0  0  0  0  0  0  0  0  0  0
   51.8770  151.9700   27.4190 C   0  0  0  0  0  0  0  0  0  0  0  0
   52.5880  152.9370   26.6790 C   0  0  0  0  0  0  0  0  0  0  0  0
   53.3330  152.5120   25.5820 C   0  0  0  0  0  0  0  0  0  0  0  0
   53.4010  151.1700   25.1890 C   0  0  0  0  0  0  0  0  0  0  0  0
   53.9230  153.6270   25.0380 N   0  0  0  0  0  0  0  0  0  0  0  0
   53.5880  154.7590   25.7450 C   0  0  0  0  0  0  0  0  0  0  0  0
   53.9560  156.0950   25.5490 C   0  0  0  0  0  0  0  0  0  0  0  0
   54.8520  156.5700   24.4490 C   0  0  0  0  0  0  0  0  0  0  0  0
   53.4660  157.0210   26.4160 N   0  0  0  0  0  0  0  0  0  0  0  0
   52.6530  156.6340   27.4230 C   0  0  0  0  0  0  0  0  0  0  0  0
   52.2570  155.3290   27.6620 C   0  0  0  0  0  0  0  0  0  0  0  0
   52.7480  154.3540   26.7830 C   0  0  0  0  0  0  0  0  0  0  0  0
   54.8151  148.4184   25.4269 H   0  0  0  0  0  0  0  0  0  0  0  0
   53.8044  147.7530   24.0993 H   0  0  0  0  0  0  0  0  0  0  0  0
   54.2560  149.4916   24.0993 H   0  0  0  0  0  0  0  0  0  0  0  0
   51.3792  149.8688   27.6170 H   0  0  0  0  0  0  0  0  0  0  0  0
   51.2792  152.2721   28.2916 H   0  0  0  0  0  0  0  0  0  0  0  0
   53.9990  150.8674   24.3167 H   0  0  0  0  0  0  0  0  0  0  0  0
   54.5090  153.6180   24.2470 H   0  0  0  0  0  0  0  0  0  0  0  0
   55.7453  157.0436   24.8824 H   0  0  0  0  0  0  0  0  0  0  0  0
   55.1554  155.7143   23.8279 H   0  0  0  0  0  0  0  0  0  0  0  0
   54.3141  157.3014   23.8279 H   0  0  0  0  0  0  0  0  0  0  0  0
   52.2780  157.4130   28.1031 H   0  0  0  0  0  0  0  0  0  0  0  0
   51.5913  155.0707   28.4987 H   0  0  0  0  0  0  0  0  0  0  0  0
  1  2  1  0
  2  3  1  0
  3  4  2  0
  4  5  1  0
  5  6  2  0
  6  7  1  0
  7  8  2  0
  7  9  1  0
  9 10  1  0
 10 11  2  0
 11 12  1  0
 11 13  1  0
 13 14  2  0
 14 15  1  0
 15 16  2  0
  8  3  1  0
 16 10  1  0
 16  6  1  0
  1 17  1  0
  1 18  1  0
  1 19  1  0
  4 20  1  0
  5 21  1  0
  8 22  1  0
  9 23  1  0
 12 24  1  0
 12 25  1  0
 12 26  1  0
 14 27  1  0
 15 28  1  0
M  END
>  <meeko>  (7) 
{"is_sidechain": [false], "free_energy": -6.491, "intermolecular_energy": -6.871, "internal_energy": -0.06}

$$$$
harmine_out
     RDKit          3D

 28 30  0  0  0  0  0  0  0  0999 V2000
   48.4160  162.2700   33.9890 C   0  0  0  0  0  0  0  0  0  0  0  0
   48.4290  162.2160   32.5690 O   0  0  0  0  0  0  0  0  0  0  0  0
   48.6850  160.9990   31.9960 C   0  0  0  0  0  0  0  0  0  0  0  0
   47.8040  159.9200   31.9440 C   0  0  0  0  0  0  0  0  0  0  0  0
   48.1760  158.7160   31.3280 C   0  0  0  0  0  0  0  0  0  0  0  0
   49.4570  158.5910   30.7530 C   0  0  0  0  0  0  0  0  0  0  0  0
   50.3190  159.6830   30.8170 C   0  0  0  0  0  0  0  0  0  0  0  0
   49.9620  160.8920   31.4280 C   0  0  0  0  0  0  0  0  0  0  0  0
   51.4860  159.3140   30.1940 N   0  0  0  0  0  0  0  0  0  0  0  0
   51.4110  158.0210   29.7280 C   0  0  0  0  0  0  0  0  0  0  0  0
   52.3540  157.2460   29.0430 C   0  0  0  0  0  0  0  0  0  0  0  0
   53.7200  157.7220   28.6630 C   0  0  0  0  0  0  0  0  0  0  0  0
   52.0020  155.9770   28.7000 N   0  0  0  0  0  0  0  0  0  0  0  0
   50.7780  155.5090   29.0250 C   0  0  0  0  0  0  0  0  0  0  0  0
   49.8090  156.2310   29.7020 C   0  0  0  0  0  0  0  0  0  0  0  0
   50.1450  157.5420   30.0660 C   0  0  0  0  0  0  0  0  0  0  0  0
   48.6552  161.2764   34.3959 H   0  0  0  0  0  0  0  0  0  0  0  0
   49.1646  162.9979   34.3351 H   0  0  0  0  0  0  0  0  0  0  0  0
   47.4182  162.5775   34.3351 H   0  0  0  0  0  0  0  0  0  0  0  0
   46.8038  160.0140   32.3920 H   0  0  0  0  0  0  0  0  0  0  0  0
   47.4708  157.8725   31.2937 H   0  0  0  0  0  0  0  0  0  0  0  0
   50.6663  161.7363   31.4612 H   0  0  0  0  0  0  0  0  0  0  0  0
   52.2730  159.8970   30.0950 H   0  0  0  0  0  0  0  0  0  0  0  0
   54.3037  157.9254   29.5729 H   0  0  0  0  0  0  0  0  0  0  0  0
   54.2260  156.9472   28.0683 H   0  0  0  0  0  0  0  0  0  0  0  0
   53.6349  158.6435   28.0683 H   0  0  0  0  0  0  0  0  0  0  0  0
   50.5321  154.4781   28.7304 H   0  0  0  0  0  0  0  0  0  0  0  0
   48.8267  155.7978   29.9415 H   0  0  0  0  0  0  0  0  0  0  0  0
  1  2  1  0
  2  3  1  0
  3  4  2  0
  4  5  1  0
  5  6  2  0
  6  7  1  0
  7  8  2  0
  7  9  1  0
  9 10  1  0
 10 11  2  0
 11 12  1  0
 11 13  1  0
 13 14  2  0
 14 15  1  0
 15 16  2  0
  8  3  1  0
 16 10  1  0
 16  6  1  0
  1 17  1  0
  1 18  1  0
  1 19  1  0
  4 20  1  0
  5 21  1  0
  8 22  1  0
  9 23  1  0
 12 24  1  0
 12 25  1  0
 12 26  1  0
 14 27  1  0
 15 28  1  0
M  END
>  <meeko>  (8) 
{"is_sidechain": [false], "free_energy": -6.379, "intermolecular_energy": -6.777, "internal_energy": -0.035}

$$$$
