VP7_out
     RDKit          3D

 45 48  0  0  0  0  0  0  0  0999 V2000
   50.3770  161.0960   29.6370 C   0  0  0  0  0  0  0  0  0  0  0  0
   51.4340  160.3410   30.4410 C   0  0  0  0  0  0  0  0  0  0  0  0
   51.1730  160.4790   31.9390 C   0  0  0  0  0  0  0  0  0  0  0  0
   52.7060  160.9290   30.1690 O   0  0  0  0  0  0  0  0  0  0  0  0
   51.4680  158.9240   30.0500 C   0  0  0  0  0  0  0  0  0  0  0  0
   51.4940  157.7680   29.7210 C   0  0  0  0  0  0  0  0  0  0  0  0
   51.5330  156.3920   29.3280 C   0  0  0  0  0  0  0  0  0  0  0  0
   50.8300  155.4410   30.0640 C   0  0  0  0  0  0  0  0  0  0  0  0
   50.8570  154.0910   29.7020 C   0  0  0  0  0  0  0  0  0  0  0  0
   51.6130  153.7360   28.5770 C   0  0  0  0  0  0  0  0  0  0  0  0
   51.8170  152.5050   28.0130 N   0  0  0  0  0  0  0  0  0  0  0  0
   52.6450  152.5860   26.9150 C   0  0  0  0  0  0  0  0  0  0  0  0
   52.9730  153.9280   26.7390 C   0  0  0  0  0  0  0  0  0  0  0  0
   52.3230  154.6540   27.8100 C   0  0  0  0  0  0  0  0  0  0  0  0
   52.2790  156.0120   28.2060 C   0  0  0  0  0  0  0  0  0  0  0  0
   53.8150  154.4890   25.6700 C   0  0  0  0  0  0  0  0  0  0  0  0
   53.6030  155.8070   25.4470 N   0  0  0  0  0  0  0  0  0  0  0  0
   54.3460  156.4170   24.5280 C   0  0  0  0  0  0  0  0  0  0  0  0
   54.1050  157.7560   24.2980 N   0  0  0  0  0  0  0  0  0  0  0  0
   55.2690  155.8200   23.7820 N   0  0  0  0  0  0  0  0  0  0  0  0
   55.4550  154.5090   24.0140 C   0  0  0  0  0  0  0  0  0  0  0  0
   54.7490  153.7690   24.9460 C   0  0  0  0  0  0  0  0  0  0  0  0
   55.0310  152.3060   25.0960 C   0  0  0  0  0  0  0  0  0  0  0  0
   53.7700  151.4720   24.9200 C   0  0  0  0  0  0  0  0  0  0  0  0
   52.9980  151.3140   26.2180 C   0  0  0  0  0  0  0  0  0  0  0  0
   49.6791  161.5945   30.3259 H   0  0  0  0  0  0  0  0  0  0  0  0
   50.8674  161.8494   29.0031 H   0  0  0  0  0  0  0  0  0  0  0  0
   49.8233  160.3877   29.0031 H   0  0  0  0  0  0  0  0  0  0  0  0
   52.0098  160.0365   32.4993 H   0  0  0  0  0  0  0  0  0  0  0  0
   51.0804  161.5439   32.1985 H   0  0  0  0  0  0  0  0  0  0  0  0
   50.2407  159.9560   32.1985 H   0  0  0  0  0  0  0  0  0  0  0  0
   52.8190  161.7230   30.7150 H   0  0  0  0  0  0  0  0  0  0  0  0
   50.2461  155.7563   30.9413 H   0  0  0  0  0  0  0  0  0  0  0  0
   50.3048  153.3349   30.2794 H   0  0  0  0  0  0  0  0  0  0  0  0
   51.4220  151.6680   28.3490 H   0  0  0  0  0  0  0  0  0  0  0  0
   52.8317  156.7699   27.6314 H   0  0  0  0  0  0  0  0  0  0  0  0
   54.8330  158.3400   23.9820 H   0  0  0  0  0  0  0  0  0  0  0  0
   53.2070  158.1270   24.4510 H   0  0  0  0  0  0  0  0  0  0  0  0
   56.2218  153.9883   23.4217 H   0  0  0  0  0  0  0  0  0  0  0  0
   55.7674  152.0046   24.3365 H   0  0  0  0  0  0  0  0  0  0  0  0
   55.4198  152.1325   26.1103 H   0  0  0  0  0  0  0  0  0  0  0  0
   53.1212  151.9635   24.1801 H   0  0  0  0  0  0  0  0  0  0  0  0
   54.0737  150.4693   24.5848 H   0  0  0  0  0  0  0  0  0  0  0  0
   52.0629  150.7800   25.9933 H   0  0  0  0  0  0  0  0  0  0  0  0
   53.6659  150.7702   26.9022 H   0  0  0  0  0  0  0  0  0  0  0  0
  1  2  1  0
  2  3  1  0
  2  4  1  0
  2  5  1  0
  5  6  3  0
  6  7  1  0
  7  8  2  0
  8  9  1  0
  9 10  2  0
 10 11  1  0
 11 12  1  0
 12 13  2  0
 13 14  1  0
 14 15  2  0
 13 16  1  0
 16 17  2  0
 17 18  1  0
 18 19  1  0
 18 20  2  0
 20 21  1  0
 21 22  2  0
 22 23  1  0
 23 24  1  0
 24 25  1  0
 15  7  1  0
 22 16  1  0
 14 10  1  0
 25 12  1  0
  1 26  1  0
  1 27  1  0
  1 28  1  0
  3 29  1  0
  3 30  1  0
  3 31  1  0
  4 32  1  0
  8 33  1  0
  9 34  1  0
 11 35  1  0
 15 36  1  0
 19 37  1  0
 19 38  1  0
 21 39  1  0
 23 40  1  0
 23 41  1  0
 24 42  1  0
 24 43  1  0
 25 44  1  0
 25 45  1  0
M  END
>  <meeko>  (1) 
{"is_sidechain": [false], "free_energy": -6.041, "intermolecular_energy": -8.16, "internal_energy": 0.7}

$$$$
VP7_out
     RDKit          3D

 45 48  0  0  0  0  0  0  0  0999 V2000
   53.0090  154.8280   24.4320 C   0  0  0  0  0  0  0  0  0  0  0  0
   53.8430  155.4590   25.5450 C   0  0  0  0  0  0  0  0  0  0  0  0
   54.7220  156.5790   24.9910 C   0  0  0  0  0  0  0  0  0  0  0  0
   54.7070  154.4560   26.0790 O   0  0  0  0  0  0  0  0  0  0  0  0
   52.9750  155.9660   26.6190 C   0  0  0  0  0  0  0  0  0  0  0  0
   52.2610  156.3720   27.4950 C   0  0  0  0  0  0  0  0  0  0  0  0
   51.4110  156.8630   28.5380 C   0  0  0  0  0  0  0  0  0  0  0  0
   50.2910  156.1300   28.9210 C   0  0  0  0  0  0  0  0  0  0  0  0
   49.4440  156.5920   29.9320 C   0  0  0  0  0  0  0  0  0  0  0  0
   49.7660  157.8120   30.5420 C   0  0  0  0  0  0  0  0  0  0  0  0
   49.1170  158.4900   31.5380 N   0  0  0  0  0  0  0  0  0  0  0  0
   49.7570  159.6710   31.8430 C   0  0  0  0  0  0  0  0  0  0  0  0
   50.8870  159.7530   31.0320 C   0  0  0  0  0  0  0  0  0  0  0  0
   50.8790  158.5710   30.1950 C   0  0  0  0  0  0  0  0  0  0  0  0
   51.7130  158.0780   29.1630 C   0  0  0  0  0  0  0  0  0  0  0  0
   51.8870  160.8320   31.0330 C   0  0  0  0  0  0  0  0  0  0  0  0
   53.0850  160.4630   30.5240 N   0  0  0  0  0  0  0  0  0  0  0  0
   54.0450  161.3810   30.4420 C   0  0  0  0  0  0  0  0  0  0  0  0
   55.2660  160.9850   29.9380 N   0  0  0  0  0  0  0  0  0  0  0  0
   53.9260  162.6380   30.8560 N   0  0  0  0  0  0  0  0  0  0  0  0
   52.7320  162.9790   31.3670 C   0  0  0  0  0  0  0  0  0  0  0  0
   51.6570  162.1150   31.4980 C   0  0  0  0  0  0  0  0  0  0  0  0
   50.3820  162.6080   32.1070 C   0  0  0  0  0  0  0  0  0  0  0  0
   49.9680  161.7480   33.3020 C   0  0  0  0  0  0  0  0  0  0  0  0
   49.1400  160.5460   32.8830 C   0  0  0  0  0  0  0  0  0  0  0  0
   52.2060  154.2205   24.8750 H   0  0  0  0  0  0  0  0  0  0  0  0
   52.5682  155.6208   23.8097 H   0  0  0  0  0  0  0  0  0  0  0  0
   53.6520  154.1883   23.8097 H   0  0  0  0  0  0  0  0  0  0  0  0
   55.1652  157.1436   25.8245 H   0  0  0  0  0  0  0  0  0  0  0  0
   55.5234  156.1454   24.3748 H   0  0  0  0  0  0  0  0  0  0  0  0
   54.1103  157.2544   24.3748 H   0  0  0  0  0  0  0  0  0  0  0  0
   54.1880  153.6690   26.3050 H   0  0  0  0  0  0  0  0  0  0  0  0
   50.0700  155.1752   28.4215 H   0  0  0  0  0  0  0  0  0  0  0  0
   48.5565  156.0187   30.2380 H   0  0  0  0  0  0  0  0  0  0  0  0
   48.2950  158.1750   31.9800 H   0  0  0  0  0  0  0  0  0  0  0  0
   52.5993  158.6505   28.8521 H   0  0  0  0  0  0  0  0  0  0  0  0
   55.4220  160.0390   29.7120 H   0  0  0  0  0  0  0  0  0  0  0  0
   55.9820  161.6470   29.8050 H   0  0  0  0  0  0  0  0  0  0  0  0
   52.5980  164.0171   31.7053 H   0  0  0  0  0  0  0  0  0  0  0  0
   50.5236  163.6455   32.4441 H   0  0  0  0  0  0  0  0  0  0  0  0
   49.5891  162.5506   31.3467 H   0  0  0  0  0  0  0  0  0  0  0  0
   50.8745  161.3928   33.8140 H   0  0  0  0  0  0  0  0  0  0  0  0
   49.3501  162.3688   33.9674 H   0  0  0  0  0  0  0  0  0  0  0  0
   48.9573  159.9321   33.7773 H   0  0  0  0  0  0  0  0  0  0  0  0
   48.2243  160.9536   32.4299 H   0  0  0  0  0  0  0  0  0  0  0  0
  1  2  1  0
  2  3  1  0
  2  4  1  0
  2  5  1  0
  5  6  3  0
  6  7  1  0
  7  8  2  0
  8  9  1  0
  9 10  2  0
 10 11  1  0
 11 12  1  0
 12 13  2  0
 13 14  1  0
 14 15  2  0
 13 16  1  0
 16 17  2  0
 17 18  1  0
 18 19  1  0
 18 20  2  0
 20 21  1  0
 21 22  2  0
 22 23  1  0
 23 24  1  0
 24 25  1  0
 15  7  1  0
 22 16  1  0
 14 10  1  0
 25 12  1  0
  1 26  1  0
  1 27  1  0
  1 28  1  0
  3 29  1  0
  3 30  1  0
  3 31  1  0
  4 32  1  0
  8 33  1  0
  9 34  1  0
 11 35  1  0
 15 36  1  0
 19 37  1  0
 19 38  1  0
 21 39  1  0
 23 40  1  0
 23 41  1  0
 24 42  1  0
 24 43  1  0
 25 44  1  0
 25 45  1  0
M  END
>  <meeko>  (2) 
{"is_sidechain": [false], "free_energy": -3.621, "intermolecular_energy": -4.894, "internal_energy": 0.703}

$$$$
