native_VP7_out
     RDKit          3D

 45 48  0  0  0  0  0  0  0  0999 V2000
  185.7560   22.7660   44.3200 C   0  0  0  0  0  0  0  0  0  0  0  0
  184.9800   23.2190   45.5540 C   0  0  0  0  0  0  0  0  0  0  0  0
  184.6450   24.7070   45.4650 C   0  0  0  0  0  0  0  0  0  0  0  0
  185.8180   23.0150   46.6910 O   0  0  0  0  0  0  0  0  0  0  0  0
  183.7540   22.4210   45.7150 C   0  0  0  0  0  0  0  0  0  0  0  0
  182.7530   21.7710   45.8520 C   0  0  0  0  0  0  0  0  0  0  0  0
  181.5670   21.0010   46.0140 C   0  0  0  0  0  0  0  0  0  0  0  0
  181.5330   19.6430   45.4820 C   0  0  0  0  0  0  0  0  0  0  0  0
  180.4640   18.8360   45.6000 C   0  0  0  0  0  0  0  0  0  0  0  0
  179.2600   19.3380   46.2940 C   0  0  0  0  0  0  0  0  0  0  0  0
  179.3230   20.7170   46.8000 C   0  0  0  0  0  0  0  0  0  0  0  0
  180.5000   21.5170   46.6510 C   0  0  0  0  0  0  0  0  0  0  0  0
  178.1220   20.8780   47.3600 C   0  0  0  0  0  0  0  0  0  0  0  0
  177.6680   22.0340   48.1290 C   0  0  0  0  0  0  0  0  0  0  0  0
  178.6130   22.9860   48.3090 N   0  0  0  0  0  0  0  0  0  0  0  0
  178.2790   24.0650   49.0130 C   0  0  0  0  0  0  0  0  0  0  0  0
  179.2490   25.0250   49.2100 N   0  0  0  0  0  0  0  0  0  0  0  0
  177.0910   24.2620   49.5790 N   0  0  0  0  0  0  0  0  0  0  0  0
  176.1710   23.3030   49.3760 C   0  0  0  0  0  0  0  0  0  0  0  0
  176.3940   22.1440   48.6560 C   0  0  0  0  0  0  0  0  0  0  0  0
  175.2770   21.1720   48.4250 C   0  0  0  0  0  0  0  0  0  0  0  0
  175.0420   20.8220   46.9590 C   0  0  0  0  0  0  0  0  0  0  0  0
  176.0080   19.7800   46.4040 C   0  0  0  0  0  0  0  0  0  0  0  0
  177.2930   19.6350   47.2190 C   0  0  1  0  0  0  0  0  0  0  0  0
  178.1680   18.6650   46.4930 N   0  0  0  0  0  0  0  0  0  0  0  0
  186.6664   22.2345   44.6341 H   0  0  0  0  0  0  0  0  0  0  0  0
  185.1276   22.0929   43.7183 H   0  0  0  0  0  0  0  0  0  0  0  0
  186.0332   23.6442   43.7183 H   0  0  0  0  0  0  0  0  0  0  0  0
  184.5513   25.1230   46.4790 H   0  0  0  0  0  0  0  0  0  0  0  0
  185.4475   25.2319   44.9260 H   0  0  0  0  0  0  0  0  0  0  0  0
  183.6950   24.8374   44.9260 H   0  0  0  0  0  0  0  0  0  0  0  0
  186.1700   23.8680   46.9900 H   0  0  0  0  0  0  0  0  0  0  0  0
  182.4231   19.2616   44.9602 H   0  0  0  0  0  0  0  0  0  0  0  0
  180.4855   17.8171   45.1860 H   0  0  0  0  0  0  0  0  0  0  0  0
  180.5321   22.5408   47.0521 H   0  0  0  0  0  0  0  0  0  0  0  0
  178.9960   25.9210   49.5290 H   0  0  0  0  0  0  0  0  0  0  0  0
  180.1940   24.8140   49.0320 H   0  0  0  0  0  0  0  0  0  0  0  0
  175.1723   23.4506   49.8127 H   0  0  0  0  0  0  0  0  0  0  0  0
  175.5103   20.2440   48.9675 H   0  0  0  0  0  0  0  0  0  0  0  0
  174.3577   21.6578   48.7840 H   0  0  0  0  0  0  0  0  0  0  0  0
  174.0182   20.4328   46.8567 H   0  0  0  0  0  0  0  0  0  0  0  0
  175.2059   21.7446   46.3828 H   0  0  0  0  0  0  0  0  0  0  0  0
  175.4961   18.8065   46.3872 H   0  0  0  0  0  0  0  0  0  0  0  0
  176.3019   20.1181   45.3994 H   0  0  0  0  0  0  0  0  0  0  0  0
  176.9692   19.3363   48.2269 H   0  0  0  0  0  0  0  0  0  0  0  0
  1  2  1  0
  2  3  1  0
  2  4  1  0
  2  5  1  0
  5  6  3  0
  6  7  1  0
  7  8  1  0
  8  9  2  0
  9 10  1  0
 10 11  1  0
 11 12  1  0
 11 13  2  0
 13 14  1  0
 14 15  2  0
 15 16  1  0
 16 17  1  0
 16 18  2  0
 18 19  1  0
 19 20  2  0
 20 21  1  0
 21 22  1  0
 22 23  1  0
 23 24  1  0
 24 25  1  0
 12  7  2  0
 24 13  1  0
 25 10  2  0
 20 14  1  0
  1 26  1  0
  1 27  1  0
  1 28  1  0
  3 29  1  0
  3 30  1  0
  3 31  1  0
  4 32  1  0
  8 33  1  0
  9 34  1  0
 12 35  1  0
 17 36  1  0
 17 37  1  0
 19 38  1  0
 21 39  1  0
 21 40  1  0
 22 41  1  0
 22 42  1  0
 23 43  1  0
 23 44  1  0
 24 45  1  1
M  END
>  <meeko>  (1) 
{"is_sidechain": [false], "free_energy": -7.991, "intermolecular_energy": -10.795, "internal_energy": 1.129}

$$$$
native_VP7_out
     RDKit          3D

 45 48  0  0  0  0  0  0  0  0999 V2000
  180.5730   14.2870   43.9370 C   0  0  0  0  0  0  0  0  0  0  0  0
  181.2820   15.4280   43.2130 C   0  0  0  0  0  0  0  0  0  0  0  0
  180.8130   15.5220   41.7620 C   0  0  0  0  0  0  0  0  0  0  0  0
  182.6800   15.1410   43.2140 O   0  0  0  0  0  0  0  0  0  0  0  0
  181.0570   16.7040   43.9130 C   0  0  0  0  0  0  0  0  0  0  0  0
  180.8780   17.7470   44.4820 C   0  0  0  0  0  0  0  0  0  0  0  0
  180.6650   18.9820   45.1550 C   0  0  0  0  0  0  0  0  0  0  0  0
  181.7600   19.9450   45.2200 C   0  0  0  0  0  0  0  0  0  0  0  0
  181.6490   21.1420   45.8220 C   0  0  0  0  0  0  0  0  0  0  0  0
  180.3650   21.5100   46.4540 C   0  0  0  0  0  0  0  0  0  0  0  0
  179.2910   20.5090   46.3860 C   0  0  0  0  0  0  0  0  0  0  0  0
  179.4740   19.2570   45.7170 C   0  0  0  0  0  0  0  0  0  0  0  0
  178.2860   21.1130   47.0260 C   0  0  0  0  0  0  0  0  0  0  0  0
  176.9180   20.6200   47.1600 C   0  0  0  0  0  0  0  0  0  0  0  0
  176.6840   19.4520   46.5180 N   0  0  0  0  0  0  0  0  0  0  0  0
  175.4550   18.9460   46.5820 C   0  0  0  0  0  0  0  0  0  0  0  0
  175.2140   17.7650   45.9120 N   0  0  0  0  0  0  0  0  0  0  0  0
  174.4310   19.5210   47.2080 N   0  0  0  0  0  0  0  0  0  0  0  0
  174.6960   20.6760   47.8430 C   0  0  0  0  0  0  0  0  0  0  0  0
  175.9330   21.2940   47.8570 C   0  0  0  0  0  0  0  0  0  0  0  0
  176.1420   22.5440   48.6580 C   0  0  0  0  0  0  0  0  0  0  0  0
  177.3120   22.4670   49.6530 C   0  0  0  0  0  0  0  0  0  0  0  0
  178.6810   22.6830   49.0170 C   0  0  0  0  0  0  0  0  0  0  0  0
  178.6970   22.4750   47.5030 C   0  0  1  0  0  0  0  0  0  0  0  0
  180.1130   22.6340   47.0520 N   0  0  0  0  0  0  0  0  0  0  0  0
  180.6623   14.4308   45.0239 H   0  0  0  0  0  0  0  0  0  0  0  0
  179.5099   14.2779   43.6545 H   0  0  0  0  0  0  0  0  0  0  0  0
  181.0357   13.3299   43.6545 H   0  0  0  0  0  0  0  0  0  0  0  0
  179.7347   15.7381   41.7385 H   0  0  0  0  0  0  0  0  0  0  0  0
  181.3598   16.3284   41.2514 H   0  0  0  0  0  0  0  0  0  0  0  0
  181.0068   14.5671   41.2514 H   0  0  0  0  0  0  0  0  0  0  0  0
  183.0990   15.5740   42.4540 H   0  0  0  0  0  0  0  0  0  0  0  0
  182.7206   19.6790   44.7548 H   0  0  0  0  0  0  0  0  0  0  0  0
  182.5013   21.8371   45.8437 H   0  0  0  0  0  0  0  0  0  0  0  0
  178.6513   18.5289   45.6630 H   0  0  0  0  0  0  0  0  0  0  0  0
  175.8080   16.9920   46.0490 H   0  0  0  0  0  0  0  0  0  0  0  0
  174.4480   17.6950   45.2970 H   0  0  0  0  0  0  0  0  0  0  0  0
  173.8735   21.1621   48.3881 H   0  0  0  0  0  0  0  0  0  0  0  0
  176.3362   23.3722   47.9606 H   0  0  0  0  0  0  0  0  0  0  0  0
  175.2296   22.6937   49.2540 H   0  0  0  0  0  0  0  0  0  0  0  0
  177.1626   23.2381   50.4232 H   0  0  0  0  0  0  0  0  0  0  0  0
  177.3107   21.4484   50.0683 H   0  0  0  0  0  0  0  0  0  0  0  0
  179.0034   23.7131   49.2291 H   0  0  0  0  0  0  0  0  0  0  0  0
  179.3581   21.9324   49.4509 H   0  0  0  0  0  0  0  0  0  0  0  0
  177.9748   23.1996   47.0989 H   0  0  0  0  0  0  0  0  0  0  0  0
  1  2  1  0
  2  3  1  0
  2  4  1  0
  2  5  1  0
  5  6  3  0
  6  7  1  0
  7  8  1  0
  8  9  2  0
  9 10  1  0
 10 11  1  0
 11 12  1  0
 11 13  2  0
 13 14  1  0
 14 15  2  0
 15 16  1  0
 16 17  1  0
 16 18  2  0
 18 19  1  0
 19 20  2  0
 20 21  1  0
 21 22  1  0
 22 23  1  0
 23 24  1  0
 24 25  1  0
 12  7  2  0
 24 13  1  0
 25 10  2  0
 20 14  1  0
  1 26  1  0
  1 27  1  0
  1 28  1  0
  3 29  1  0
  3 30  1  0
  3 31  1  0
  4 32  1  0
  8 33  1  0
  9 34  1  0
 12 35  1  0
 17 36  1  0
 17 37  1  0
 19 38  1  0
 21 39  1  0
 21 40  1  0
 22 41  1  0
 22 42  1  0
 23 43  1  0
 23 44  1  0
 24 45  1  6
M  END
>  <meeko>  (2) 
{"is_sidechain": [false], "free_energy": -7.718, "intermolecular_energy": -10.421, "internal_energy": 1.124}

$$$$
