2V5Z_seed11_out
     RDKit          3D

 35 37  0  0  0  0  0  0  0  0999 V2000
   51.9780  161.0620   30.7570 C   0  0  0  0  0  0  0  0  0  0  0  0
   51.1750  159.8070   30.5430 C   0  0  0  0  0  0  0  0  0  0  0  0
   51.7550  158.7360   29.8370 C   0  0  0  0  0  0  0  0  0  0  0  0
   51.0590  157.5370   29.6190 C   0  0  0  0  0  0  0  0  0  0  0  0
   51.6950  156.4470   28.8490 C   0  0  0  0  0  0  0  0  0  0  0  0
   52.2600  156.8840   27.6570 O   0  0  0  0  0  0  0  0  0  0  0  0
   52.8850  155.9720   26.8450 C   0  0  0  0  0  0  0  0  0  0  0  0
   53.4260  156.4510   25.6520 C   0  0  0  0  0  0  0  0  0  0  0  0
   54.0770  155.5760   24.7800 C   0  0  0  0  0  0  0  0  0  0  0  0
   54.1890  154.2220   25.1030 C   0  0  0  0  0  0  0  0  0  0  0  0
   53.6500  153.7460   26.2960 C   0  0  0  0  0  0  0  0  0  0  0  0
   53.7950  152.4100   26.5500 O   0  0  0  0  0  0  0  0  0  0  0  0
   52.9960  154.6230   27.1660 C   0  0  0  0  0  0  0  0  0  0  0  0
   52.4160  154.1640   28.4280 C   0  0  0  0  0  0  0  0  0  0  0  0
   52.4790  152.9890   28.7860 O   0  0  0  0  0  0  0  0  0  0  0  0
   51.7380  155.1710   29.2770 C   0  0  0  0  0  0  0  0  0  0  0  0
   51.2040  154.7300   30.4740 O   0  0  0  0  0  0  0  0  0  0  0  0
   49.7530  157.4270   30.1070 C   0  0  0  0  0  0  0  0  0  0  0  0
   49.1650  158.4800   30.8120 C   0  0  0  0  0  0  0  0  0  0  0  0
   49.8620  159.6780   31.0440 C   0  0  0  0  0  0  0  0  0  0  0  0
   49.1910  160.7960   31.8130 C   0  0  0  0  0  0  0  0  0  0  0  0
   48.9330  161.8880   31.0410 F   0  0  0  0  0  0  0  0  0  0  0  0
   49.9310  161.2560   32.8620 F   0  0  0  0  0  0  0  0  0  0  0  0
   47.9940  160.4220   32.3470 F   0  0  0  0  0  0  0  0  0  0  0  0
   52.0941  161.2435   31.8357 H   0  0  0  0  0  0  0  0  0  0  0  0
   52.9699  160.9457   30.2959 H   0  0  0  0  0  0  0  0  0  0  0  0
   51.4568  161.9139   30.2959 H   0  0  0  0  0  0  0  0  0  0  0  0
   52.7781  158.8414   29.4469 H   0  0  0  0  0  0  0  0  0  0  0  0
   53.3398  157.5178   25.3981 H   0  0  0  0  0  0  0  0  0  0  0  0
   54.5018  155.9534   23.8382 H   0  0  0  0  0  0  0  0  0  0  0  0
   54.7020  153.5325   24.4164 H   0  0  0  0  0  0  0  0  0  0  0  0
   54.3120  151.8770   25.9770 H   0  0  0  0  0  0  0  0  0  0  0  0
   51.5070  155.0930   31.2830 H   0  0  0  0  0  0  0  0  0  0  0  0
   49.1831  156.5022   29.9340 H   0  0  0  0  0  0  0  0  0  0  0  0
   48.1387  158.3695   31.1921 H   0  0  0  0  0  0  0  0  0  0  0  0
  1  2  1  0
  2  3  2  0
  3  4  1  0
  4  5  1  0
  5  6  1  0
  6  7  1  0
  7  8  2  0
  8  9  1  0
  9 10  2  0
 10 11  1  0
 11 12  1  0
 11 13  2  0
 13 14  1  0
 14 15  2  0
 14 16  1  0
 16 17  1  0
  4 18  2  0
 18 19  1  0
 19 20  2  0
 20 21  1  0
 21 22  1  0
 21 23  1  0
 21 24  1  0
 20  2  1  0
 16  5  2  0
 13  7  1  0
  1 25  1  0
  1 26  1  0
  1 27  1  0
  3 28  1  0
  8 29  1  0
  9 30  1  0
 10 31  1  0
 12 32  1  0
 17 33  1  0
 18 34  1  0
 19 35  1  0
M  END
