7JXX_seed11_out
     RDKit          3D

 35 37  0  0  0  0  0  0  0  0999 V2000
  180.0210   14.1770   44.7030 C   0  0  0  0  0  0  0  0  0  0  0  0
  180.3670   15.6170   44.4350 C   0  0  0  0  0  0  0  0  0  0  0  0
  179.9100   16.6070   45.3260 C   0  0  0  0  0  0  0  0  0  0  0  0
  180.2120   17.9640   45.1330 C   0  0  0  0  0  0  0  0  0  0  0  0
  179.6910   18.9750   46.0780 C   0  0  0  0  0  0  0  0  0  0  0  0
  178.3030   18.9830   46.1500 O   0  0  0  0  0  0  0  0  0  0  0  0
  177.6880   19.8740   46.9910 C   0  0  0  0  0  0  0  0  0  0  0  0
  176.2930   19.8580   47.0220 C   0  0  0  0  0  0  0  0  0  0  0  0
  175.6030   20.7390   47.8580 C   0  0  0  0  0  0  0  0  0  0  0  0
  176.3090   21.6350   48.6640 C   0  0  0  0  0  0  0  0  0  0  0  0
  177.7010   21.6490   48.6320 C   0  0  0  0  0  0  0  0  0  0  0  0
  178.3280   22.5500   49.4480 O   0  0  0  0  0  0  0  0  0  0  0  0
  178.3900   20.7680   47.7940 C   0  0  0  0  0  0  0  0  0  0  0  0
  179.8520   20.7500   47.7310 C   0  0  0  0  0  0  0  0  0  0  0  0
  180.5430   21.5020   48.4140 O   0  0  0  0  0  0  0  0  0  0  0  0
  180.4860   19.7830   46.8040 C   0  0  0  0  0  0  0  0  0  0  0  0
  181.8670   19.7640   46.7620 O   0  0  0  0  0  0  0  0  0  0  0  0
  180.9730   18.3250   44.0160 C   0  0  0  0  0  0  0  0  0  0  0  0
  181.4360   17.3540   43.1250 C   0  0  0  0  0  0  0  0  0  0  0  0
  181.1460   15.9930   43.3200 C   0  0  0  0  0  0  0  0  0  0  0  0
  181.6660   14.9700   42.3330 C   0  0  0  0  0  0  0  0  0  0  0  0
  181.5200   15.3630   41.0370 F   0  0  0  0  0  0  0  0  0  0  0  0
  181.0410   13.7600   42.4210 F   0  0  0  0  0  0  0  0  0  0  0  0
  182.9930   14.7070   42.4990 F   0  0  0  0  0  0  0  0  0  0  0  0
  179.9798   14.0057   45.7888 H   0  0  0  0  0  0  0  0  0  0  0  0
  179.0418   13.9462   44.2580 H   0  0  0  0  0  0  0  0  0  0  0  0
  180.7884   13.5266   44.2580 H   0  0  0  0  0  0  0  0  0  0  0  0
  179.3022   16.3100   46.1934 H   0  0  0  0  0  0  0  0  0  0  0  0
  175.7368   19.1517   46.3882 H   0  0  0  0  0  0  0  0  0  0  0  0
  174.5033   20.7271   47.8816 H   0  0  0  0  0  0  0  0  0  0  0  0
  175.7662   22.3285   49.3231 H   0  0  0  0  0  0  0  0  0  0  0  0
  178.7220   23.3180   49.0810 H   0  0  0  0  0  0  0  0  0  0  0  0
  182.3610   19.8320   47.5550 H   0  0  0  0  0  0  0  0  0  0  0  0
  181.2092   19.3844   43.8375 H   0  0  0  0  0  0  0  0  0  0  0  0
  182.0376   17.6598   42.2563 H   0  0  0  0  0  0  0  0  0  0  0  0
  1  2  1  0
  2  3  2  0
  3  4  1  0
  4  5  1  0
  5  6  1  0
  6  7  1  0
  7  8  2  0
  8  9  1  0
  9 10  2  0
 10 11  1  0
 11 12  1  0
 11 13  2  0
 13 14  1  0
 14 15  2  0
 14 16  1  0
 16 17  1  0
  4 18  2  0
 18 19  1  0
 19 20  2  0
 20 21  1  0
 21 22  1  0
 21 23  1  0
 21 24  1  0
 20  2  1  0
 16  5  2  0
 13  7  1  0
  1 25  1  0
  1 26  1  0
  1 27  1  0
  3 28  1  0
  8 29  1  0
  9 30  1  0
 10 31  1  0
 12 32  1  0
 17 33  1  0
 18 34  1  0
 19 35  1  0
M  END
