7Q8Y_seed22_out
     RDKit          3D

 35 37  0  0  0  0  0  0  0  0999 V2000
   21.4260  -26.1550   42.2510 C   0  0  0  0  0  0  0  0  0  0  0  0
   22.0630  -27.4530   41.8330 C   0  0  0  0  0  0  0  0  0  0  0  0
   21.4840  -28.1930   40.7840 C   0  0  0  0  0  0  0  0  0  0  0  0
   22.0410  -29.4040   40.3440 C   0  0  0  0  0  0  0  0  0  0  0  0
   21.3870  -30.1620   39.2570 C   0  0  0  0  0  0  0  0  0  0  0  0
   20.6000  -31.2080   39.7240 O   0  0  0  0  0  0  0  0  0  0  0  0
   19.9350  -31.9930   38.8180 C   0  0  0  0  0  0  0  0  0  0  0  0
   19.1680  -33.0410   39.3290 C   0  0  0  0  0  0  0  0  0  0  0  0
   18.4630  -33.8780   38.4610 C   0  0  0  0  0  0  0  0  0  0  0  0
   18.5250  -33.6670   37.0820 C   0  0  0  0  0  0  0  0  0  0  0  0
   19.2900  -32.6200   36.5740 C   0  0  0  0  0  0  0  0  0  0  0  0
   19.3050  -32.4690   35.2140 O   0  0  0  0  0  0  0  0  0  0  0  0
   19.9960  -31.7840   37.4440 C   0  0  0  0  0  0  0  0  0  0  0  0
   20.8120  -30.6730   36.9510 C   0  0  0  0  0  0  0  0  0  0  0  0
   20.9100  -30.4180   35.7520 O   0  0  0  0  0  0  0  0  0  0  0  0
   21.5260  -29.8500   37.9550 C   0  0  0  0  0  0  0  0  0  0  0  0
   22.2840  -28.7950   37.4800 O   0  0  0  0  0  0  0  0  0  0  0  0
   23.1890  -29.8800   40.9850 C   0  0  0  0  0  0  0  0  0  0  0  0
   23.7770  -29.1570   42.0260 C   0  0  0  0  0  0  0  0  0  0  0  0
   23.2300  -27.9380   42.4620 C   0  0  0  0  0  0  0  0  0  0  0  0
   23.8960  -27.1820   43.5920 C   0  0  0  0  0  0  0  0  0  0  0  0
   24.9170  -27.8790   44.1650 F   0  0  0  0  0  0  0  0  0  0  0  0
   23.0470  -26.8700   44.6140 F   0  0  0  0  0  0  0  0  0  0  0  0
   24.4310  -25.9960   43.1870 F   0  0  0  0  0  0  0  0  0  0  0  0
   21.3977  -26.0974   43.3491 H   0  0  0  0  0  0  0  0  0  0  0  0
   22.0137  -25.3138   41.8547 H   0  0  0  0  0  0  0  0  0  0  0  0
   20.4011  -26.1052   41.8547 H   0  0  0  0  0  0  0  0  0  0  0  0
   20.5734  -27.8129   40.2978 H   0  0  0  0  0  0  0  0  0  0  0  0
   19.1187  -33.2078   40.4152 H   0  0  0  0  0  0  0  0  0  0  0  0
   17.8585  -34.7040   38.8640 H   0  0  0  0  0  0  0  0  0  0  0  0
   17.9706  -34.3266   36.3982 H   0  0  0  0  0  0  0  0  0  0  0  0
   20.1030  -32.2430   34.7770 H   0  0  0  0  0  0  0  0  0  0  0  0
   22.0510  -27.9150   37.7020 H   0  0  0  0  0  0  0  0  0  0  0  0
   23.6340  -30.8341   40.6662 H   0  0  0  0  0  0  0  0  0  0  0  0
   24.6828  -29.5482   42.5122 H   0  0  0  0  0  0  0  0  0  0  0  0
  1  2  1  0
  2  3  2  0
  3  4  1  0
  4  5  1  0
  5  6  1  0
  6  7  1  0
  7  8  2  0
  8  9  1  0
  9 10  2  0
 10 11  1  0
 11 12  1  0
 11 13  2  0
 13 14  1  0
 14 15  2  0
 14 16  1  0
 16 17  1  0
  4 18  2  0
 18 19  1  0
 19 20  2  0
 20 21  1  0
 21 22  1  0
 21 23  1  0
 21 24  1  0
 20  2  1  0
 16  5  2  0
 13  7  1  0
  1 25  1  0
  1 26  1  0
  1 27  1  0
  3 28  1  0
  8 29  1  0
  9 30  1  0
 10 31  1  0
 12 32  1  0
 17 33  1  0
 18 34  1  0
 19 35  1  0
M  END
