clorgyline_out
     RDKit          3D

 33 33  0  0  0  0  0  0  0  0999 V2000
   45.9630   24.6040  -13.6900 C   0  0  0  0  0  0  0  0  0  0  0  0
   45.1800   25.4610  -13.3820 C   0  0  0  0  0  0  0  0  0  0  0  0
   44.2220   26.5150  -13.0070 C   0  0  0  0  0  0  0  0  0  0  0  0
   42.8300   26.2560  -13.4170 N   0  0  2  0  0  0  0  0  0  0  0  0
   42.7540   25.8420  -14.8190 C   0  0  0  0  0  0  0  0  0  0  0  0
   41.9510   27.4010  -13.1180 C   0  0  0  0  0  0  0  0  0  0  0  0
   40.7260   26.9940  -12.2860 C   0  0  0  0  0  0  0  0  0  0  0  0
   39.5140   26.7000  -13.1700 C   0  0  0  0  0  0  0  0  0  0  0  0
   39.7940   27.1460  -14.4950 O   0  0  0  0  0  0  0  0  0  0  0  0
   38.7900   27.7610  -15.1940 C   0  0  0  0  0  0  0  0  0  0  0  0
   37.9020   28.6950  -14.6500 C   0  0  0  0  0  0  0  0  0  0  0  0
   36.9030   29.2670  -15.4460 C   0  0  0  0  0  0  0  0  0  0  0  0
   36.7860   28.9070  -16.7860 C   0  0  0  0  0  0  0  0  0  0  0  0
   35.5550   29.6150  -17.7550 Cl  0  0  0  0  0  0  0  0  0  0  0  0
   37.6580   27.9790  -17.3450 C   0  0  0  0  0  0  0  0  0  0  0  0
   38.6540   27.4080  -16.5490 C   0  0  0  0  0  0  0  0  0  0  0  0
   39.7190   26.2600  -17.2880 Cl  0  0  0  0  0  0  0  0  0  0  0  0
   46.6802   23.8191  -13.9721 H   0  0  0  0  0  0  0  0  0  0  0  0
   44.2424   26.6230  -11.9125 H   0  0  0  0  0  0  0  0  0  0  0  0
   44.5380   27.4253  -13.5375 H   0  0  0  0  0  0  0  0  0  0  0  0
   42.4830   25.4750  -12.8600 H   0  0  0  0  0  0  0  0  0  0  0  0
   42.5556   24.7613  -14.8720 H   0  0  0  0  0  0  0  0  0  0  0  0
   41.9413   26.3889  -15.3193 H   0  0  0  0  0  0  0  0  0  0  0  0
   43.7080   26.0646  -15.3193 H   0  0  0  0  0  0  0  0  0  0  0  0
   42.5265   28.1515  -12.5563 H   0  0  0  0  0  0  0  0  0  0  0  0
   41.5886   27.8057  -14.0745 H   0  0  0  0  0  0  0  0  0  0  0  0
   40.9722   26.0916  -11.7071 H   0  0  0  0  0  0  0  0  0  0  0  0
   40.4698   27.8317  -11.6207 H   0  0  0  0  0  0  0  0  0  0  0  0
   39.3158   25.6180  -13.1780 H   0  0  0  0  0  0  0  0  0  0  0  0
   38.6293   27.2232  -12.7782 H   0  0  0  0  0  0  0  0  0  0  0  0
   37.9893   28.9813  -13.5915 H   0  0  0  0  0  0  0  0  0  0  0  0
   36.2091   30.0022  -15.0123 H   0  0  0  0  0  0  0  0  0  0  0  0
   37.5644   27.6972  -18.4042 H   0  0  0  0  0  0  0  0  0  0  0  0
  1  2  3  0
  2  3  1  0
  3  4  1  0
  4  5  1  0
  4  6  1  0
  6  7  1  0
  7  8  1  0
  8  9  1  0
  9 10  1  0
 10 11  2  0
 11 12  1  0
 12 13  2  0
 13 14  1  0
 13 15  1  0
 15 16  2  0
 16 17  1  0
 16 10  1  0
  1 18  1  0
  3 19  1  0
  3 20  1  0
  4 21  1  1
  5 22  1  0
  5 23  1  0
  5 24  1  0
  6 25  1  0
  6 26  1  0
  7 27  1  0
  7 28  1  0
  8 29  1  0
  8 30  1  0
 11 31  1  0
 12 32  1  0
 15 33  1  0
M  CHG  1   4   1
M  END
>  <meeko>  (1) 
{"is_sidechain": [false], "free_energy": -7.851, "intermolecular_energy": -10.605, "internal_energy": -0.468}

$$$$
clorgyline_out
     RDKit          3D

 33 33  0  0  0  0  0  0  0  0999 V2000
   35.6690   29.5720  -17.6550 C   0  0  0  0  0  0  0  0  0  0  0  0
   36.6150   28.8920  -17.3650 C   0  0  0  0  0  0  0  0  0  0  0  0
   37.7780   28.0610  -17.0090 C   0  0  0  0  0  0  0  0  0  0  0  0
   37.9430   27.8150  -15.5650 N   0  0  2  0  0  0  0  0  0  0  0  0
   37.9540   29.0670  -14.8080 C   0  0  0  0  0  0  0  0  0  0  0  0
   39.1190   26.9740  -15.2850 C   0  0  0  0  0  0  0  0  0  0  0  0
   39.0680   26.3460  -13.8840 C   0  0  0  0  0  0  0  0  0  0  0  0
   40.2410   26.8020  -13.0170 C   0  0  0  0  0  0  0  0  0  0  0  0
   41.3020   27.2290  -13.8690 O   0  0  0  0  0  0  0  0  0  0  0  0
   42.5380   26.6670  -13.6910 C   0  0  0  0  0  0  0  0  0  0  0  0
   43.3640   26.9000  -12.5860 C   0  0  0  0  0  0  0  0  0  0  0  0
   44.6150   26.2810  -12.4960 C   0  0  0  0  0  0  0  0  0  0  0  0
   45.0480   25.4290  -13.5110 C   0  0  0  0  0  0  0  0  0  0  0  0
   46.5880   24.6740  -13.3910 Cl  0  0  0  0  0  0  0  0  0  0  0  0
   44.2420   25.1870  -14.6180 C   0  0  0  0  0  0  0  0  0  0  0  0
   42.9930   25.8060  -14.7060 C   0  0  0  0  0  0  0  0  0  0  0  0
   42.0240   25.4730  -16.1010 Cl  0  0  0  0  0  0  0  0  0  0  0  0
   34.8023   30.1950  -17.9207 H   0  0  0  0  0  0  0  0  0  0  0  0
   37.6705   27.0885  -17.5117 H   0  0  0  0  0  0  0  0  0  0  0  0
   38.6686   28.6202  -17.3317 H   0  0  0  0  0  0  0  0  0  0  0  0
   37.1290   27.2860  -15.2470 H   0  0  0  0  0  0  0  0  0  0  0  0
   37.9520   28.8442  -13.7308 H   0  0  0  0  0  0  0  0  0  0  0  0
   38.8572   29.6412  -15.0620 H   0  0  0  0  0  0  0  0  0  0  0  0
   37.0610   29.6569  -15.0620 H   0  0  0  0  0  0  0  0  0  0  0  0
   39.1632   26.1680  -16.0323 H   0  0  0  0  0  0  0  0  0  0  0  0
   40.0106   27.6165  -15.3329 H   0  0  0  0  0  0  0  0  0  0  0  0
   38.1277   26.6408  -13.3952 H   0  0  0  0  0  0  0  0  0  0  0  0
   39.1286   25.2534  -13.9956 H   0  0  0  0  0  0  0  0  0  0  0  0
   39.9237   27.6367  -12.3746 H   0  0  0  0  0  0  0  0  0  0  0  0
   40.5822   25.9712  -12.3820 H   0  0  0  0  0  0  0  0  0  0  0  0
   43.0278   27.5735  -11.7839 H   0  0  0  0  0  0  0  0  0  0  0  0
   45.2581   26.4667  -11.6231 H   0  0  0  0  0  0  0  0  0  0  0  0
   44.5851   24.5139  -15.4175 H   0  0  0  0  0  0  0  0  0  0  0  0
  1  2  3  0
  2  3  1  0
  3  4  1  0
  4  5  1  0
  4  6  1  0
  6  7  1  0
  7  8  1  0
  8  9  1  0
  9 10  1  0
 10 11  2  0
 11 12  1  0
 12 13  2  0
 13 14  1  0
 13 15  1  0
 15 16  2  0
 16 17  1  0
 16 10  1  0
  1 18  1  0
  3 19  1  0
  3 20  1  0
  4 21  1  1
  5 22  1  0
  5 23  1  0
  5 24  1  0
  6 25  1  0
  6 26  1  0
  7 27  1  0
  7 28  1  0
  8 29  1  0
  8 30  1  0
 11 31  1  0
 12 32  1  0
 15 33  1  0
M  CHG  1   4   1
M  END
>  <meeko>  (2) 
{"is_sidechain": [false], "free_energy": -7.507, "intermolecular_energy": -10.166, "internal_energy": -0.443}

$$$$
clorgyline_out
     RDKit          3D

 33 33  0  0  0  0  0  0  0  0999 V2000
   48.3510   26.5300  -14.6600 C   0  0  0  0  0  0  0  0  0  0  0  0
   47.3200   26.0250  -14.3060 C   0  0  0  0  0  0  0  0  0  0  0  0
   46.0580   25.4060  -13.8670 C   0  0  0  0  0  0  0  0  0  0  0  0
   44.8740   26.2790  -13.9700 N   0  0  2  0  0  0  0  0  0  0  0  0
   44.6080   26.9690  -12.7070 C   0  0  0  0  0  0  0  0  0  0  0  0
   43.6980   25.5490  -14.4740 C   0  0  0  0  0  0  0  0  0  0  0  0
   42.3770   26.1590  -13.9840 C   0  0  0  0  0  0  0  0  0  0  0  0
   41.3170   26.1690  -15.0840 C   0  0  0  0  0  0  0  0  0  0  0  0
   40.0490   26.4580  -14.4970 O   0  0  0  0  0  0  0  0  0  0  0  0
   39.1300   27.1380  -15.2500 C   0  0  0  0  0  0  0  0  0  0  0  0
   38.7380   26.7730  -16.5430 C   0  0  0  0  0  0  0  0  0  0  0  0
   37.7920   27.5370  -17.2360 C   0  0  0  0  0  0  0  0  0  0  0  0
   37.2370   28.6680  -16.6420 C   0  0  0  0  0  0  0  0  0  0  0  0
   36.0760   29.6000  -17.5030 Cl  0  0  0  0  0  0  0  0  0  0  0  0
   37.6160   29.0480  -15.3590 C   0  0  0  0  0  0  0  0  0  0  0  0
   38.5600   28.2850  -14.6690 C   0  0  0  0  0  0  0  0  0  0  0  0
   38.9990   28.7940  -13.0730 Cl  0  0  0  0  0  0  0  0  0  0  0  0
   49.2950   26.9924  -14.9841 H   0  0  0  0  0  0  0  0  0  0  0  0
   45.8807   24.5140  -14.4858 H   0  0  0  0  0  0  0  0  0  0  0  0
   46.1810   25.1747  -12.7986 H   0  0  0  0  0  0  0  0  0  0  0  0
   45.0820   27.0010  -14.6610 H   0  0  0  0  0  0  0  0  0  0  0  0
   44.8633   26.3068  -11.8666 H   0  0  0  0  0  0  0  0  0  0  0  0
   45.2184   27.8825  -12.6526 H   0  0  0  0  0  0  0  0  0  0  0  0
   43.5424   27.2363  -12.6526 H   0  0  0  0  0  0  0  0  0  0  0  0
   43.7118   25.5729  -15.5737 H   0  0  0  0  0  0  0  0  0  0  0  0
   43.7538   24.5187  -14.0928 H   0  0  0  0  0  0  0  0  0  0  0  0
   42.0042   25.5671  -13.1351 H   0  0  0  0  0  0  0  0  0  0  0  0
   42.5701   27.1996  -13.6844 H   0  0  0  0  0  0  0  0  0  0  0  0
   41.5641   26.9399  -15.8287 H   0  0  0  0  0  0  0  0  0  0  0  0
   41.2843   25.1882  -15.5810 H   0  0  0  0  0  0  0  0  0  0  0  0
   39.1753   25.8817  -17.0167 H   0  0  0  0  0  0  0  0  0  0  0  0
   37.4864   27.2438  -18.2512 H   0  0  0  0  0  0  0  0  0  0  0  0
   37.1761   29.9415  -14.8921 H   0  0  0  0  0  0  0  0  0  0  0  0
  1  2  3  0
  2  3  1  0
  3  4  1  0
  4  5  1  0
  4  6  1  0
  6  7  1  0
  7  8  1  0
  8  9  1  0
  9 10  1  0
 10 11  2  0
 11 12  1  0
 12 13  2  0
 13 14  1  0
 13 15  1  0
 15 16  2  0
 16 17  1  0
 16 10  1  0
  1 18  1  0
  3 19  1  0
  3 20  1  0
  4 21  1  6
  5 22  1  0
  5 23  1  0
  5 24  1  0
  6 25  1  0
  6 26  1  0
  7 27  1  0
  7 28  1  0
  8 29  1  0
  8 30  1  0
 11 31  1  0
 12 32  1  0
 15 33  1  0
M  CHG  1   4   1
M  END
>  <meeko>  (3) 
{"is_sidechain": [false], "free_energy": -7.248, "intermolecular_energy": -9.936, "internal_energy": -0.322}

$$$$
clorgyline_out
     RDKit          3D

 33 33  0  0  0  0  0  0  0  0999 V2000
   45.2100   25.3680  -13.3170 C   0  0  0  0  0  0  0  0  0  0  0  0
   44.4340   26.2850  -13.3510 C   0  0  0  0  0  0  0  0  0  0  0  0
   43.4840   27.4090  -13.3980 C   0  0  0  0  0  0  0  0  0  0  0  0
   42.0640   27.0160  -13.4510 N   0  0  2  0  0  0  0  0  0  0  0  0
   41.4530   27.0410  -12.1220 C   0  0  0  0  0  0  0  0  0  0  0  0
   41.8810   25.7220  -14.1320 C   0  0  0  0  0  0  0  0  0  0  0  0
   42.0670   25.8320  -15.6530 C   0  0  0  0  0  0  0  0  0  0  0  0
   40.7280   25.9620  -16.3780 C   0  0  0  0  0  0  0  0  0  0  0  0
   39.8170   26.6680  -15.5380 O   0  0  0  0  0  0  0  0  0  0  0  0
   38.7790   27.3360  -16.1300 C   0  0  0  0  0  0  0  0  0  0  0  0
   38.2730   27.0470  -17.4010 C   0  0  0  0  0  0  0  0  0  0  0  0
   37.2090   27.7910  -17.9240 C   0  0  0  0  0  0  0  0  0  0  0  0
   36.6500   28.8280  -17.1810 C   0  0  0  0  0  0  0  0  0  0  0  0
   35.3440   29.7380  -17.8330 Cl  0  0  0  0  0  0  0  0  0  0  0  0
   37.1420   29.1330  -15.9160 C   0  0  0  0  0  0  0  0  0  0  0  0
   38.2040   28.3890  -15.3960 C   0  0  0  0  0  0  0  0  0  0  0  0
   38.7810   28.8020  -13.8170 Cl  0  0  0  0  0  0  0  0  0  0  0  0
   45.9203   24.5286  -13.2859 H   0  0  0  0  0  0  0  0  0  0  0  0
   43.6358   28.0233  -12.4982 H   0  0  0  0  0  0  0  0  0  0  0  0
   43.6907   27.9505  -14.3329 H   0  0  0  0  0  0  0  0  0  0  0  0
   41.5720   27.7100  -14.0150 H   0  0  0  0  0  0  0  0  0  0  0  0
   42.2412   27.0087  -11.3554 H   0  0  0  0  0  0  0  0  0  0  0  0
   40.8659   27.9639  -12.0057 H   0  0  0  0  0  0  0  0  0  0  0  0
   40.7925   26.1691  -12.0057 H   0  0  0  0  0  0  0  0  0  0  0  0
   42.6173   25.0069  -13.7364 H   0  0  0  0  0  0  0  0  0  0  0  0
   40.8513   25.3847  -13.9425 H   0  0  0  0  0  0  0  0  0  0  0  0
   42.6797   26.7184  -15.8741 H   0  0  0  0  0  0  0  0  0  0  0  0
   42.5602   24.9142  -16.0055 H   0  0  0  0  0  0  0  0  0  0  0  0
   40.8688   26.5155  -17.3181 H   0  0  0  0  0  0  0  0  0  0  0  0
   40.3282   24.9630  -16.6064 H   0  0  0  0  0  0  0  0  0  0  0  0
   38.7133   26.2309  -17.9928 H   0  0  0  0  0  0  0  0  0  0  0  0
   36.8137   27.5563  -18.9233 H   0  0  0  0  0  0  0  0  0  0  0  0
   36.6990   29.9523  -15.3307 H   0  0  0  0  0  0  0  0  0  0  0  0
  1  2  3  0
  2  3  1  0
  3  4  1  0
  4  5  1  0
  4  6  1  0
  6  7  1  0
  7  8  1  0
  8  9  1  0
  9 10  1  0
 10 11  2  0
 11 12  1  0
 12 13  2  0
 13 14  1  0
 13 15  1  0
 15 16  2  0
 16 17  1  0
 16 10  1  0
  1 18  1  0
  3 19  1  0
  3 20  1  0
  4 21  1  6
  5 22  1  0
  5 23  1  0
  5 24  1  0
  6 25  1  0
  6 26  1  0
  7 27  1  0
  7 28  1  0
  8 29  1  0
  8 30  1  0
 11 31  1  0
 12 32  1  0
 15 33  1  0
M  CHG  1   4   1
M  END
>  <meeko>  (4) 
{"is_sidechain": [false], "free_energy": -7.241, "intermolecular_energy": -9.736, "internal_energy": -0.512}

$$$$
clorgyline_out
     RDKit          3D

 33 33  0  0  0  0  0  0  0  0999 V2000
   34.8570   29.5970  -18.4130 C   0  0  0  0  0  0  0  0  0  0  0  0
   35.8620   29.6540  -17.7570 C   0  0  0  0  0  0  0  0  0  0  0  0
   37.0920   29.7270  -16.9520 C   0  0  0  0  0  0  0  0  0  0  0  0
   37.2050   28.6970  -15.9020 N   0  0  2  0  0  0  0  0  0  0  0  0
   37.6250   29.2780  -14.6270 C   0  0  0  0  0  0  0  0  0  0  0  0
   38.0660   27.5790  -16.3250 C   0  0  0  0  0  0  0  0  0  0  0  0
   38.7420   26.8810  -15.1360 C   0  0  0  0  0  0  0  0  0  0  0  0
   40.2090   26.5650  -15.4260 C   0  0  0  0  0  0  0  0  0  0  0  0
   40.7290   25.7770  -14.3570 O   0  0  0  0  0  0  0  0  0  0  0  0
   42.0780   25.8140  -14.1260 C   0  0  0  0  0  0  0  0  0  0  0  0
   43.0120   24.9830  -14.7530 C   0  0  0  0  0  0  0  0  0  0  0  0
   44.3730   25.0930  -14.4460 C   0  0  0  0  0  0  0  0  0  0  0  0
   44.8050   26.0300  -13.5090 C   0  0  0  0  0  0  0  0  0  0  0  0
   46.4800   26.1560  -13.1390 Cl  0  0  0  0  0  0  0  0  0  0  0  0
   43.8910   26.8620  -12.8730 C   0  0  0  0  0  0  0  0  0  0  0  0
   42.5330   26.7510  -13.1800 C   0  0  0  0  0  0  0  0  0  0  0  0
   41.4310   27.8100  -12.3650 Cl  0  0  0  0  0  0  0  0  0  0  0  0
   33.9369   29.5448  -19.0136 H   0  0  0  0  0  0  0  0  0  0  0  0
   37.9517   29.6206  -17.6299 H   0  0  0  0  0  0  0  0  0  0  0  0
   37.0662   30.6968  -16.4336 H   0  0  0  0  0  0  0  0  0  0  0  0
   36.2750   28.3030  -15.7550 H   0  0  0  0  0  0  0  0  0  0  0  0
   37.2007   28.6910  -13.7991 H   0  0  0  0  0  0  0  0  0  0  0  0
   38.7230   29.2638  -14.5615 H   0  0  0  0  0  0  0  0  0  0  0  0
   37.2672   30.3161  -14.5615 H   0  0  0  0  0  0  0  0  0  0  0  0
   37.4509   26.8433  -16.8639 H   0  0  0  0  0  0  0  0  0  0  0  0
   38.8580   27.9894  -16.9686 H   0  0  0  0  0  0  0  0  0  0  0  0
   38.6862   27.5400  -14.2570 H   0  0  0  0  0  0  0  0  0  0  0  0
   38.2167   25.9323  -14.9512 H   0  0  0  0  0  0  0  0  0  0  0  0
   40.2872   26.0055  -16.3698 H   0  0  0  0  0  0  0  0  0  0  0  0
   40.7823   27.4996  -15.5149 H   0  0  0  0  0  0  0  0  0  0  0  0
   42.6754   24.2397  -15.4907 H   0  0  0  0  0  0  0  0  0  0  0  0
   45.1030   24.4388  -14.9451 H   0  0  0  0  0  0  0  0  0  0  0  0
   44.2342   27.6014  -12.1344 H   0  0  0  0  0  0  0  0  0  0  0  0
  1  2  3  0
  2  3  1  0
  3  4  1  0
  4  5  1  0
  4  6  1  0
  6  7  1  0
  7  8  1  0
  8  9  1  0
  9 10  1  0
 10 11  2  0
 11 12  1  0
 12 13  2  0
 13 14  1  0
 13 15  1  0
 15 16  2  0
 16 17  1  0
 16 10  1  0
  1 18  1  0
  3 19  1  0
  3 20  1  0
  4 21  1  1
  5 22  1  0
  5 23  1  0
  5 24  1  0
  6 25  1  0
  6 26  1  0
  7 27  1  0
  7 28  1  0
  8 29  1  0
  8 30  1  0
 11 31  1  0
 12 32  1  0
 15 33  1  0
M  CHG  1   4   1
M  END
>  <meeko>  (5) 
{"is_sidechain": [false], "free_energy": -6.84, "intermolecular_energy": -9.362, "internal_energy": -0.346}

$$$$
clorgyline_out
     RDKit          3D

 33 33  0  0  0  0  0  0  0  0999 V2000
   47.9940   26.4770  -14.9290 C   0  0  0  0  0  0  0  0  0  0  0  0
   47.3080   25.7980  -14.2140 C   0  0  0  0  0  0  0  0  0  0  0  0
   46.4690   24.9670  -13.3350 C   0  0  0  0  0  0  0  0  0  0  0  0
   45.0400   25.3300  -13.3220 N   0  0  2  0  0  0  0  0  0  0  0  0
   44.3720   24.9140  -14.5560 C   0  0  0  0  0  0  0  0  0  0  0  0
   44.8420   26.7590  -13.0270 C   0  0  0  0  0  0  0  0  0  0  0  0
   43.5840   27.3260  -13.7030 C   0  0  0  0  0  0  0  0  0  0  0  0
   42.3700   27.2690  -12.7760 C   0  0  0  0  0  0  0  0  0  0  0  0
   41.3740   26.4440  -13.3760 O   0  0  0  0  0  0  0  0  0  0  0  0
   40.3160   27.0570  -13.9930 C   0  0  0  0  0  0  0  0  0  0  0  0
   39.4460   27.9560  -13.3680 C   0  0  0  0  0  0  0  0  0  0  0  0
   38.3880   28.5290  -14.0830 C   0  0  0  0  0  0  0  0  0  0  0  0
   38.1930   28.2010  -15.4230 C   0  0  0  0  0  0  0  0  0  0  0  0
   36.8880   28.9090  -16.2920 Cl  0  0  0  0  0  0  0  0  0  0  0  0
   39.0450   27.3060  -16.0600 C   0  0  0  0  0  0  0  0  0  0  0  0
   40.1000   26.7360  -15.3460 C   0  0  0  0  0  0  0  0  0  0  0  0
   41.1370   25.6300  -16.1810 Cl  0  0  0  0  0  0  0  0  0  0  0  0
   48.6222   27.0988  -15.5838 H   0  0  0  0  0  0  0  0  0  0  0  0
   46.5538   23.9222  -13.6684 H   0  0  0  0  0  0  0  0  0  0  0  0
   46.8389   25.1268  -12.3115 H   0  0  0  0  0  0  0  0  0  0  0  0
   44.5970   24.8150  -12.5600 H   0  0  0  0  0  0  0  0  0  0  0  0
   43.4624   24.3475  -14.3075 H   0  0  0  0  0  0  0  0  0  0  0  0
   44.1010   25.8033  -15.1440 H   0  0  0  0  0  0  0  0  0  0  0  0
   45.0506   24.2785  -15.1440 H   0  0  0  0  0  0  0  0  0  0  0  0
   44.7459   26.8853  -11.9385 H   0  0  0  0  0  0  0  0  0  0  0  0
   45.7109   27.3070  -13.4203 H   0  0  0  0  0  0  0  0  0  0  0  0
   43.7706   28.3735  -13.9821 H   0  0  0  0  0  0  0  0  0  0  0  0
   43.3665   26.7144  -14.5910 H   0  0  0  0  0  0  0  0  0  0  0  0
   42.6656   26.8453  -11.8049 H   0  0  0  0  0  0  0  0  0  0  0  0
   41.9716   28.2821  -12.6180 H   0  0  0  0  0  0  0  0  0  0  0  0
   39.5940   28.2141  -12.3090 H   0  0  0  0  0  0  0  0  0  0  0  0
   37.7099   29.2388  -13.5866 H   0  0  0  0  0  0  0  0  0  0  0  0
   38.8889   27.0492  -17.1181 H   0  0  0  0  0  0  0  0  0  0  0  0
  1  2  3  0
  2  3  1  0
  3  4  1  0
  4  5  1  0
  4  6  1  0
  6  7  1  0
  7  8  1  0
  8  9  1  0
  9 10  1  0
 10 11  2  0
 11 12  1  0
 12 13  2  0
 13 14  1  0
 13 15  1  0
 15 16  2  0
 16 17  1  0
 16 10  1  0
  1 18  1  0
  3 19  1  0
  3 20  1  0
  4 21  1  1
  5 22  1  0
  5 23  1  0
  5 24  1  0
  6 25  1  0
  6 26  1  0
  7 27  1  0
  7 28  1  0
  8 29  1  0
  8 30  1  0
 11 31  1  0
 12 32  1  0
 15 33  1  0
M  CHG  1   4   1
M  END
>  <meeko>  (6) 
{"is_sidechain": [false], "free_energy": -6.769, "intermolecular_energy": -9.007, "internal_energy": -0.604}

$$$$
clorgyline_out
     RDKit          3D

 33 33  0  0  0  0  0  0  0  0999 V2000
   49.4420   27.3800  -14.5120 C   0  0  0  0  0  0  0  0  0  0  0  0
   48.4320   26.7370  -14.6090 C   0  0  0  0  0  0  0  0  0  0  0  0
   47.1950   25.9460  -14.7270 C   0  0  0  0  0  0  0  0  0  0  0  0
   46.4080   25.8410  -13.4850 N   0  0  2  0  0  0  0  0  0  0  0  0
   45.9830   24.4630  -13.2360 C   0  0  0  0  0  0  0  0  0  0  0  0
   45.2830   26.7920  -13.4700 C   0  0  0  0  0  0  0  0  0  0  0  0
   43.9290   26.0900  -13.2840 C   0  0  0  0  0  0  0  0  0  0  0  0
   43.0340   26.2540  -14.5120 C   0  0  0  0  0  0  0  0  0  0  0  0
   41.7480   25.7130  -14.2190 O   0  0  0  0  0  0  0  0  0  0  0  0
   40.6470   26.4690  -14.5200 C   0  0  0  0  0  0  0  0  0  0  0  0
   39.9900   26.4560  -15.7550 C   0  0  0  0  0  0  0  0  0  0  0  0
   38.8710   27.2700  -15.9680 C   0  0  0  0  0  0  0  0  0  0  0  0
   38.4090   28.1020  -14.9510 C   0  0  0  0  0  0  0  0  0  0  0  0
   37.0340   29.0990  -15.2240 Cl  0  0  0  0  0  0  0  0  0  0  0  0
   39.0500   28.1300  -13.7180 C   0  0  0  0  0  0  0  0  0  0  0  0
   40.1660   27.3180  -13.5060 C   0  0  0  0  0  0  0  0  0  0  0  0
   40.9310   27.3850  -11.9550 Cl  0  0  0  0  0  0  0  0  0  0  0  0
   50.3669   27.9688  -14.4232 H   0  0  0  0  0  0  0  0  0  0  0  0
   46.5616   26.4138  -15.4951 H   0  0  0  0  0  0  0  0  0  0  0  0
   47.5051   24.9226  -14.9848 H   0  0  0  0  0  0  0  0  0  0  0  0
   47.0180   26.1060  -12.7090 H   0  0  0  0  0  0  0  0  0  0  0  0
   45.9285   24.2864  -12.1516 H   0  0  0  0  0  0  0  0  0  0  0  0
   44.9923   24.2981  -13.6846 H   0  0  0  0  0  0  0  0  0  0  0  0
   46.7088   23.7687  -13.6846 H   0  0  0  0  0  0  0  0  0  0  0  0
   45.4304   27.5014  -12.6423 H   0  0  0  0  0  0  0  0  0  0  0  0
   45.2645   27.3070  -14.4418 H   0  0  0  0  0  0  0  0  0  0  0  0
   44.1041   25.0179  -13.1111 H   0  0  0  0  0  0  0  0  0  0  0  0
   43.4195   26.5498  -12.4244 H   0  0  0  0  0  0  0  0  0  0  0  0
   42.9383   27.3215  -14.7598 H   0  0  0  0  0  0  0  0  0  0  0  0
   43.4754   25.7249  -15.3694 H   0  0  0  0  0  0  0  0  0  0  0  0
   40.3541   25.8034  -16.5622 H   0  0  0  0  0  0  0  0  0  0  0  0
   38.3560   27.2524  -16.9398 H   0  0  0  0  0  0  0  0  0  0  0  0
   38.6812   28.7863  -12.9160 H   0  0  0  0  0  0  0  0  0  0  0  0
  1  2  3  0
  2  3  1  0
  3  4  1  0
  4  5  1  0
  4  6  1  0
  6  7  1  0
  7  8  1  0
  8  9  1  0
  9 10  1  0
 10 11  2  0
 11 12  1  0
 12 13  2  0
 13 14  1  0
 13 15  1  0
 15 16  2  0
 16 17  1  0
 16 10  1  0
  1 18  1  0
  3 19  1  0
  3 20  1  0
  4 21  1  1
  5 22  1  0
  5 23  1  0
  5 24  1  0
  6 25  1  0
  6 26  1  0
  7 27  1  0
  7 28  1  0
  8 29  1  0
  8 30  1  0
 11 31  1  0
 12 32  1  0
 15 33  1  0
M  CHG  1   4   1
M  END
>  <meeko>  (7) 
{"is_sidechain": [false], "free_energy": -6.609, "intermolecular_energy": -9.053, "internal_energy": -0.342}

$$$$
clorgyline_out
     RDKit          3D

 33 33  0  0  0  0  0  0  0  0999 V2000
   45.7180   24.6440  -13.6970 C   0  0  0  0  0  0  0  0  0  0  0  0
   44.6430   25.0710  -14.0170 C   0  0  0  0  0  0  0  0  0  0  0  0
   43.3210   25.5920  -14.4080 C   0  0  0  0  0  0  0  0  0  0  0  0
   42.9120   26.8240  -13.7080 N   0  0  2  0  0  0  0  0  0  0  0  0
   44.0150   27.7820  -13.6240 C   0  0  0  0  0  0  0  0  0  0  0  0
   42.3160   26.5320  -12.3930 C   0  0  0  0  0  0  0  0  0  0  0  0
   41.1300   27.4540  -12.0720 C   0  0  0  0  0  0  0  0  0  0  0  0
   39.8560   27.0060  -12.7870 C   0  0  0  0  0  0  0  0  0  0  0  0
   39.4460   28.0360  -13.6840 O   0  0  0  0  0  0  0  0  0  0  0  0
   39.0190   27.6710  -14.9330 C   0  0  0  0  0  0  0  0  0  0  0  0
   39.6160   26.6780  -15.7160 C   0  0  0  0  0  0  0  0  0  0  0  0
   39.1090   26.3790  -16.9860 C   0  0  0  0  0  0  0  0  0  0  0  0
   38.0060   27.0730  -17.4780 C   0  0  0  0  0  0  0  0  0  0  0  0
   37.3900   26.6990  -19.0400 Cl  0  0  0  0  0  0  0  0  0  0  0  0
   37.4010   28.0660  -16.7160 C   0  0  0  0  0  0  0  0  0  0  0  0
   37.9080   28.3630  -15.4490 C   0  0  0  0  0  0  0  0  0  0  0  0
   37.1210   29.6040  -14.5340 Cl  0  0  0  0  0  0  0  0  0  0  0  0
   46.7033   24.2526  -13.4037 H   0  0  0  0  0  0  0  0  0  0  0  0
   43.3412   25.8020  -15.4876 H   0  0  0  0  0  0  0  0  0  0  0  0
   42.5885   24.8196  -14.1308 H   0  0  0  0  0  0  0  0  0  0  0  0
   42.1790   27.2660  -14.2640 H   0  0  0  0  0  0  0  0  0  0  0  0
   44.2464   27.9830  -12.5676 H   0  0  0  0  0  0  0  0  0  0  0  0
   44.9028   27.3635  -14.1206 H   0  0  0  0  0  0  0  0  0  0  0  0
   43.7249   28.7196  -14.1206 H   0  0  0  0  0  0  0  0  0  0  0  0
   41.9651   25.4895  -12.3874 H   0  0  0  0  0  0  0  0  0  0  0  0
   43.0890   26.7001  -11.6287 H   0  0  0  0  0  0  0  0  0  0  0  0
   40.9526   27.4418  -10.9865 H   0  0  0  0  0  0  0  0  0  0  0  0
   41.3798   28.4674  -12.4193 H   0  0  0  0  0  0  0  0  0  0  0  0
   40.0536   26.0822  -13.3504 H   0  0  0  0  0  0  0  0  0  0  0  0
   39.0619   26.8139  -12.0504 H   0  0  0  0  0  0  0  0  0  0  0  0
   40.4885   26.1291  -15.3319 H   0  0  0  0  0  0  0  0  0  0  0  0
   39.5820   25.5953  -17.5960 H   0  0  0  0  0  0  0  0  0  0  0  0
   36.5306   28.6130  -17.1075 H   0  0  0  0  0  0  0  0  0  0  0  0
  1  2  3  0
  2  3  1  0
  3  4  1  0
  4  5  1  0
  4  6  1  0
  6  7  1  0
  7  8  1  0
  8  9  1  0
  9 10  1  0
 10 11  2  0
 11 12  1  0
 12 13  2  0
 13 14  1  0
 13 15  1  0
 15 16  2  0
 16 17  1  0
 16 10  1  0
  1 18  1  0
  3 19  1  0
  3 20  1  0
  4 21  1  6
  5 22  1  0
  5 23  1  0
  5 24  1  0
  6 25  1  0
  6 26  1  0
  7 27  1  0
  7 28  1  0
  8 29  1  0
  8 30  1  0
 11 31  1  0
 12 32  1  0
 15 33  1  0
M  CHG  1   4   1
M  END
>  <meeko>  (8) 
{"is_sidechain": [false], "free_energy": -6.531, "intermolecular_energy": -8.781, "internal_energy": -0.509}

$$$$
clorgyline_out
     RDKit          3D

 33 33  0  0  0  0  0  0  0  0999 V2000
   36.0700   29.4460  -17.4190 C   0  0  0  0  0  0  0  0  0  0  0  0
   36.8120   29.0300  -16.5710 C   0  0  0  0  0  0  0  0  0  0  0  0
   37.7180   28.5170  -15.5290 C   0  0  0  0  0  0  0  0  0  0  0  0
   38.7910   27.6370  -16.0250 N   0  0  2  0  0  0  0  0  0  0  0  0
   38.4710   27.0960  -17.3460 C   0  0  0  0  0  0  0  0  0  0  0  0
   39.1280   26.5840  -15.0500 C   0  0  0  0  0  0  0  0  0  0  0  0
   39.3420   27.1450  -13.6360 C   0  0  0  0  0  0  0  0  0  0  0  0
   40.7670   26.9000  -13.1410 C   0  0  0  0  0  0  0  0  0  0  0  0
   41.6560   26.9550  -14.2550 O   0  0  0  0  0  0  0  0  0  0  0  0
   42.8720   26.3350  -14.1410 C   0  0  0  0  0  0  0  0  0  0  0  0
   43.1370   25.0280  -14.5620 C   0  0  0  0  0  0  0  0  0  0  0  0
   44.4140   24.4790  -14.3990 C   0  0  0  0  0  0  0  0  0  0  0  0
   45.4280   25.2320  -13.8120 C   0  0  0  0  0  0  0  0  0  0  0  0
   46.9940   24.5470  -13.6140 Cl  0  0  0  0  0  0  0  0  0  0  0  0
   45.1830   26.5330  -13.3850 C   0  0  0  0  0  0  0  0  0  0  0  0
   43.9080   27.0790  -13.5480 C   0  0  0  0  0  0  0  0  0  0  0  0
   43.6500   28.7020  -13.0050 Cl  0  0  0  0  0  0  0  0  0  0  0  0
   35.3905   29.8270  -18.1956 H   0  0  0  0  0  0  0  0  0  0  0  0
   38.1849   29.3772  -15.0270 H   0  0  0  0  0  0  0  0  0  0  0  0
   37.1011   27.9050  -14.8545 H   0  0  0  0  0  0  0  0  0  0  0  0
   39.6320   28.2050  -16.1350 H   0  0  0  0  0  0  0  0  0  0  0  0
   37.9140   26.1544  -17.2315 H   0  0  0  0  0  0  0  0  0  0  0  0
   37.8561   27.8207  -17.8999 H   0  0  0  0  0  0  0  0  0  0  0  0
   39.4022   26.9062  -17.8999 H   0  0  0  0  0  0  0  0  0  0  0  0
   38.3060   25.8536  -15.0200 H   0  0  0  0  0  0  0  0  0  0  0  0
   40.0699   26.1161  -15.3723 H   0  0  0  0  0  0  0  0  0  0  0  0
   39.1504   28.2281  -13.6493 H   0  0  0  0  0  0  0  0  0  0  0  0
   38.6487   26.6307  -12.9542 H   0  0  0  0  0  0  0  0  0  0  0  0
   41.0425   27.6739  -12.4095 H   0  0  0  0  0  0  0  0  0  0  0  0
   40.8311   25.9129  -12.6598 H   0  0  0  0  0  0  0  0  0  0  0  0
   42.3382   24.4288  -15.0233 H   0  0  0  0  0  0  0  0  0  0  0  0
   44.6171   23.4514  -14.7349 H   0  0  0  0  0  0  0  0  0  0  0  0
   45.9860   27.1262  -12.9232 H   0  0  0  0  0  0  0  0  0  0  0  0
  1  2  3  0
  2  3  1  0
  3  4  1  0
  4  5  1  0
  4  6  1  0
  6  7  1  0
  7  8  1  0
  8  9  1  0
  9 10  1  0
 10 11  2  0
 11 12  1  0
 12 13  2  0
 13 14  1  0
 13 15  1  0
 15 16  2  0
 16 17  1  0
 16 10  1  0
  1 18  1  0
  3 19  1  0
  3 20  1  0
  4 21  1  6
  5 22  1  0
  5 23  1  0
  5 24  1  0
  6 25  1  0
  6 26  1  0
  7 27  1  0
  7 28  1  0
  8 29  1  0
  8 30  1  0
 11 31  1  0
 12 32  1  0
 15 33  1  0
M  CHG  1   4   1
M  END
>  <meeko>  (9) 
{"is_sidechain": [false], "free_energy": -6.347, "intermolecular_energy": -8.783, "internal_energy": -0.259}

$$$$
