VP7_out
     RDKit          3D

 45 48  0  0  0  0  0  0  0  0999 V2000
   47.5250   26.1490  -14.0670 C   0  0  0  0  0  0  0  0  0  0  0  0
   46.4740   25.0720  -13.8050 C   0  0  0  0  0  0  0  0  0  0  0  0
   46.9060   24.1650  -12.6550 C   0  0  0  0  0  0  0  0  0  0  0  0
   46.3620   24.2630  -14.9750 O   0  0  0  0  0  0  0  0  0  0  0  0
   45.1670   25.6840  -13.5190 C   0  0  0  0  0  0  0  0  0  0  0  0
   44.1010   26.1900  -13.2920 C   0  0  0  0  0  0  0  0  0  0  0  0
   42.8280   26.7880  -13.0260 C   0  0  0  0  0  0  0  0  0  0  0  0
   42.5310   27.2460  -11.7450 C   0  0  0  0  0  0  0  0  0  0  0  0
   41.2930   27.8280  -11.4610 C   0  0  0  0  0  0  0  0  0  0  0  0
   40.3690   27.9330  -12.5090 C   0  0  0  0  0  0  0  0  0  0  0  0
   39.1000   28.4460  -12.5080 N   0  0  0  0  0  0  0  0  0  0  0  0
   38.5150   28.3450  -13.7520 C   0  0  0  0  0  0  0  0  0  0  0  0
   39.4520   27.7680  -14.6060 C   0  0  0  0  0  0  0  0  0  0  0  0
   40.6270   27.4950  -13.8040 C   0  0  0  0  0  0  0  0  0  0  0  0
   41.8890   26.9050  -14.0570 C   0  0  0  0  0  0  0  0  0  0  0  0
   39.2750   27.4950  -16.0410 C   0  0  0  0  0  0  0  0  0  0  0  0
   40.1560   26.5940  -16.5350 N   0  0  0  0  0  0  0  0  0  0  0  0
   40.0500   26.2470  -17.8150 C   0  0  0  0  0  0  0  0  0  0  0  0
   40.9660   25.3420  -18.3090 N   0  0  0  0  0  0  0  0  0  0  0  0
   39.1570   26.7460  -18.6630 N   0  0  0  0  0  0  0  0  0  0  0  0
   38.3000   27.6460  -18.1530 C   0  0  0  0  0  0  0  0  0  0  0  0
   38.3070   28.0800  -16.8380 C   0  0  0  0  0  0  0  0  0  0  0  0
   37.3140   29.1080  -16.3930 C   0  0  0  0  0  0  0  0  0  0  0  0
   36.4730   28.5790  -15.2550 C   0  0  0  0  0  0  0  0  0  0  0  0
   37.1090   28.8220  -13.8980 C   0  0  0  0  0  0  0  0  0  0  0  0
   47.9015   26.5348  -13.1082 H   0  0  0  0  0  0  0  0  0  0  0  0
   48.3580   25.7166  -14.6408 H   0  0  0  0  0  0  0  0  0  0  0  0
   47.0724   26.9712  -14.6408 H   0  0  0  0  0  0  0  0  0  0  0  0
   46.6739   24.6524  -11.6966 H   0  0  0  0  0  0  0  0  0  0  0  0
   46.3668   23.2084  -12.7200 H   0  0  0  0  0  0  0  0  0  0  0  0
   47.9885   23.9809  -12.7200 H   0  0  0  0  0  0  0  0  0  0  0  0
   47.1610   24.3650  -15.5170 H   0  0  0  0  0  0  0  0  0  0  0  0
   43.2809   27.1483  -10.9462 H   0  0  0  0  0  0  0  0  0  0  0  0
   41.0523   28.1908  -10.4508 H   0  0  0  0  0  0  0  0  0  0  0  0
   38.6590   28.8370  -11.7190 H   0  0  0  0  0  0  0  0  0  0  0  0
   42.1317   26.5381  -15.0652 H   0  0  0  0  0  0  0  0  0  0  0  0
   41.9060   25.6100  -18.4330 H   0  0  0  0  0  0  0  0  0  0  0  0
   40.6810   24.4280  -18.5380 H   0  0  0  0  0  0  0  0  0  0  0  0
   37.5397   28.0676  -18.8269 H   0  0  0  0  0  0  0  0  0  0  0  0
   37.8509   30.0076  -16.0576 H   0  0  0  0  0  0  0  0  0  0  0  0
   36.6534   29.3514  -17.2382 H   0  0  0  0  0  0  0  0  0  0  0  0
   35.4930   29.0780  -15.2794 H   0  0  0  0  0  0  0  0  0  0  0  0
   36.3774   27.4913  -15.3885 H   0  0  0  0  0  0  0  0  0  0  0  0
   37.0974   29.9053  -13.7076 H   0  0  0  0  0  0  0  0  0  0  0  0
   36.5163   28.2384  -13.1783 H   0  0  0  0  0  0  0  0  0  0  0  0
  1  2  1  0
  2  3  1  0
  2  4  1  0
  2  5  1  0
  5  6  3  0
  6  7  1  0
  7  8  2  0
  8  9  1  0
  9 10  2  0
 10 11  1  0
 11 12  1  0
 12 13  2  0
 13 14  1  0
 14 15  2  0
 13 16  1  0
 16 17  2  0
 17 18  1  0
 18 19  1  0
 18 20  2  0
 20 21  1  0
 21 22  2  0
 22 23  1  0
 23 24  1  0
 24 25  1  0
 15  7  1  0
 22 16  1  0
 14 10  1  0
 25 12  1  0
  1 26  1  0
  1 27  1  0
  1 28  1  0
  3 29  1  0
  3 30  1  0
  3 31  1  0
  4 32  1  0
  8 33  1  0
  9 34  1  0
 11 35  1  0
 15 36  1  0
 19 37  1  0
 19 38  1  0
 21 39  1  0
 23 40  1  0
 23 41  1  0
 24 42  1  0
 24 43  1  0
 25 44  1  0
 25 45  1  0
M  END
>  <meeko>  (1) 
{"is_sidechain": [false], "free_energy": -1.354, "intermolecular_energy": -1.829, "internal_energy": 0.778}

$$$$
VP7_out
     RDKit          3D

 45 48  0  0  0  0  0  0  0  0999 V2000
   46.7760   24.5020  -13.9760 C   0  0  0  0  0  0  0  0  0  0  0  0
   45.5880   25.1300  -13.2490 C   0  0  0  0  0  0  0  0  0  0  0  0
   45.9800   26.4720  -12.6350 C   0  0  0  0  0  0  0  0  0  0  0  0
   45.2090   24.2610  -12.1820 O   0  0  0  0  0  0  0  0  0  0  0  0
   44.4480   25.2910  -14.1640 C   0  0  0  0  0  0  0  0  0  0  0  0
   43.5180   25.4150  -14.9150 C   0  0  0  0  0  0  0  0  0  0  0  0
   42.4100   25.5690  -15.8070 C   0  0  0  0  0  0  0  0  0  0  0  0
   42.3970   24.8870  -17.0210 C   0  0  0  0  0  0  0  0  0  0  0  0
   41.3280   25.0270  -17.9110 C   0  0  0  0  0  0  0  0  0  0  0  0
   40.2760   25.8720  -17.5350 C   0  0  0  0  0  0  0  0  0  0  0  0
   39.1270   26.1920  -18.2070 N   0  0  0  0  0  0  0  0  0  0  0  0
   38.3560   27.0800  -17.4900 C   0  0  0  0  0  0  0  0  0  0  0  0
   39.0150   27.3290  -16.2880 C   0  0  0  0  0  0  0  0  0  0  0  0
   40.2450   26.5660  -16.3290 C   0  0  0  0  0  0  0  0  0  0  0  0
   41.3460   26.4080  -15.4530 C   0  0  0  0  0  0  0  0  0  0  0  0
   38.5450   28.1960  -15.1970 C   0  0  0  0  0  0  0  0  0  0  0  0
   39.1090   27.9160  -13.9990 N   0  0  0  0  0  0  0  0  0  0  0  0
   38.7810   28.6740  -12.9560 C   0  0  0  0  0  0  0  0  0  0  0  0
   39.3500   28.3650  -11.7380 N   0  0  0  0  0  0  0  0  0  0  0  0
   37.9080   29.6750  -12.9920 N   0  0  0  0  0  0  0  0  0  0  0  0
   37.3530   29.9280  -14.1900 C   0  0  0  0  0  0  0  0  0  0  0  0
   37.6200   29.2140  -15.3460 C   0  0  0  0  0  0  0  0  0  0  0  0
   36.9180   29.5770  -16.6170 C   0  0  0  0  0  0  0  0  0  0  0  0
   36.1870   28.3870  -17.2170 C   0  0  0  0  0  0  0  0  0  0  0  0
   37.0890   27.5600  -18.1160 C   0  0  0  0  0  0  0  0  0  0  0  0
   47.4974   24.1207  -13.2383 H   0  0  0  0  0  0  0  0  0  0  0  0
   46.4232   23.6726  -14.6066 H   0  0  0  0  0  0  0  0  0  0  0  0
   47.2627   25.2606  -14.6066 H   0  0  0  0  0  0  0  0  0  0  0  0
   45.9572   26.3940  -11.5380 H   0  0  0  0  0  0  0  0  0  0  0  0
   46.9947   26.7426  -12.9623 H   0  0  0  0  0  0  0  0  0  0  0  0
   45.2705   27.2462  -12.9623 H   0  0  0  0  0  0  0  0  0  0  0  0
   46.0040   23.8940  -11.7650 H   0  0  0  0  0  0  0  0  0  0  0  0
   43.2389   24.2294  -17.2832 H   0  0  0  0  0  0  0  0  0  0  0  0
   41.3135   24.4926  -18.8724 H   0  0  0  0  0  0  0  0  0  0  0  0
   38.8840   25.8340  -19.0910 H   0  0  0  0  0  0  0  0  0  0  0  0
   41.3657   26.9449  -14.4931 H   0  0  0  0  0  0  0  0  0  0  0  0
   38.7800   28.2500  -10.9430 H   0  0  0  0  0  0  0  0  0  0  0  0
   40.3260   28.2600  -11.6640 H   0  0  0  0  0  0  0  0  0  0  0  0
   36.6368   30.7603  -14.2566 H   0  0  0  0  0  0  0  0  0  0  0  0
   36.1891   30.3735  -16.4064 H   0  0  0  0  0  0  0  0  0  0  0  0
   37.6740   29.9148  -17.3411 H   0  0  0  0  0  0  0  0  0  0  0  0
   35.8174   27.7488  -16.4008 H   0  0  0  0  0  0  0  0  0  0  0  0
   35.3572   28.7709  -17.8286 H   0  0  0  0  0  0  0  0  0  0  0  0
   36.5203   26.6789  -18.4482 H   0  0  0  0  0  0  0  0  0  0  0  0
   37.3919   28.2279  -18.9359 H   0  0  0  0  0  0  0  0  0  0  0  0
  1  2  1  0
  2  3  1  0
  2  4  1  0
  2  5  1  0
  5  6  3  0
  6  7  1  0
  7  8  2  0
  8  9  1  0
  9 10  2  0
 10 11  1  0
 11 12  1  0
 12 13  2  0
 13 14  1  0
 14 15  2  0
 13 16  1  0
 16 17  2  0
 17 18  1  0
 18 19  1  0
 18 20  2  0
 20 21  1  0
 21 22  2  0
 22 23  1  0
 23 24  1  0
 24 25  1  0
 15  7  1  0
 22 16  1  0
 14 10  1  0
 25 12  1  0
  1 26  1  0
  1 27  1  0
  1 28  1  0
  3 29  1  0
  3 30  1  0
  3 31  1  0
  4 32  1  0
  8 33  1  0
  9 34  1  0
 11 35  1  0
 15 36  1  0
 19 37  1  0
 19 38  1  0
 21 39  1  0
 23 40  1  0
 23 41  1  0
 24 42  1  0
 24 43  1  0
 25 44  1  0
 25 45  1  0
M  END
>  <meeko>  (2) 
{"is_sidechain": [false], "free_energy": 1.082, "intermolecular_energy": 1.531, "internal_energy": 0.708}

$$$$
