cand_002_out
     RDKit          3D

 45 48  0  0  0  0  0  0  0  0999 V2000
  175.7120   18.9680   47.8170 C   0  0  0  0  0  0  0  0  0  0  0  0
  175.8830   20.4300   48.1270 C   0  0  0  0  0  0  0  0  0  0  0  0
  175.1520   20.9800   49.1980 C   0  0  0  0  0  0  0  0  0  0  0  0
  175.2460   22.3380   49.5380 C   0  0  0  0  0  0  0  0  0  0  0  0
  174.4420   22.8740   50.6570 C   0  0  0  0  0  0  0  0  0  0  0  0
  175.2110   23.1990   51.7680 O   0  0  0  0  0  0  0  0  0  0  0  0
  174.5900   23.7080   52.8800 C   0  0  0  0  0  0  0  0  0  0  0  0
  175.3990   24.0060   53.9770 C   0  0  0  0  0  0  0  0  0  0  0  0
  174.8310   24.5290   55.1400 C   0  0  0  0  0  0  0  0  0  0  0  0
  173.4540   24.7550   55.2060 C   0  0  0  0  0  0  0  0  0  0  0  0
  172.6500   24.4570   54.1100 C   0  0  0  0  0  0  0  0  0  0  0  0
  171.3100   24.7020   54.2420 O   0  0  0  0  0  0  0  0  0  0  0  0
  173.2190   23.9320   52.9470 C   0  0  0  0  0  0  0  0  0  0  0  0
  172.4090   23.6050   51.7720 C   0  0  0  0  0  0  0  0  0  0  0  0
  171.1920   23.7810   51.7510 O   0  0  0  0  0  0  0  0  0  0  0  0
  173.1080   23.0470   50.5920 C   0  0  0  0  0  0  0  0  0  0  0  0
  172.3350   22.7540   49.4830 O   0  0  0  0  0  0  0  0  0  0  0  0
  176.0770   23.1570   48.7700 C   0  0  0  0  0  0  0  0  0  0  0  0
  176.8010   22.6320   47.6980 C   0  0  0  0  0  0  0  0  0  0  0  0
  176.7130   21.2700   47.3590 C   0  0  0  0  0  0  0  0  0  0  0  0
  177.5180   20.7660   46.1730 C   0  0  0  0  0  0  0  0  0  0  0  0
  179.0030   20.6080   46.4210 C   0  0  0  0  0  0  0  0  0  0  0  0
  179.8680   20.3330   45.3510 C   0  0  0  0  0  0  0  0  0  0  0  0
  181.2360   20.1600   45.5690 C   0  0  0  0  0  0  0  0  0  0  0  0
  181.7550   20.2500   46.8590 C   0  0  0  0  0  0  0  0  0  0  0  0
  180.9050   20.5090   47.9320 C   0  0  0  0  0  0  0  0  0  0  0  0
  179.5360   20.6820   47.7160 C   0  0  0  0  0  0  0  0  0  0  0  0
  175.6455   18.3994   48.7563 H   0  0  0  0  0  0  0  0  0  0  0  0
  174.7907   18.8221   47.2340 H   0  0  0  0  0  0  0  0  0  0  0  0
  176.5748   18.6134   47.2340 H   0  0  0  0  0  0  0  0  0  0  0  0
  174.4890   20.3267   49.7842 H   0  0  0  0  0  0  0  0  0  0  0  0
  176.4834   23.8290   53.9255 H   0  0  0  0  0  0  0  0  0  0  0  0
  175.4683   24.7634   56.0054 H   0  0  0  0  0  0  0  0  0  0  0  0
  173.0063   25.1675   56.1222 H   0  0  0  0  0  0  0  0  0  0  0  0
  170.7440   24.6300   53.4990 H   0  0  0  0  0  0  0  0  0  0  0  0
  171.4020   22.7100   49.5610 H   0  0  0  0  0  0  0  0  0  0  0  0
  176.1618   24.2266   49.0124 H   0  0  0  0  0  0  0  0  0  0  0  0
  177.4513   23.2950   47.1085 H   0  0  0  0  0  0  0  0  0  0  0  0
  177.1156   19.7847   45.8812 H   0  0  0  0  0  0  0  0  0  0  0  0
  177.4196   21.5324   45.3901 H   0  0  0  0  0  0  0  0  0  0  0  0
  179.4644   20.2530   44.3308 H   0  0  0  0  0  0  0  0  0  0  0  0
  181.9052   19.9523   44.7211 H   0  0  0  0  0  0  0  0  0  0  0  0
  182.8335   20.1168   47.0298 H   0  0  0  0  0  0  0  0  0  0  0  0
  181.3128   20.5774   48.9513 H   0  0  0  0  0  0  0  0  0  0  0  0
  178.8700   20.8780   48.5692 H   0  0  0  0  0  0  0  0  0  0  0  0
  1  2  1  0
  2  3  2  0
  3  4  1  0
  4  5  1  0
  5  6  1  0
  6  7  1  0
  7  8  2  0
  8  9  1  0
  9 10  2  0
 10 11  1  0
 11 12  1  0
 11 13  2  0
 13 14  1  0
 14 15  2  0
 14 16  1  0
 16 17  1  0
  4 18  2  0
 18 19  1  0
 19 20  2  0
 20 21  1  0
 21 22  1  0
 22 23  2  0
 23 24  1  0
 24 25  2  0
 25 26  1  0
 26 27  2  0
 20  2  1  0
 27 22  1  0
 16  5  2  0
 13  7  1  0
  1 28  1  0
  1 29  1  0
  1 30  1  0
  3 31  1  0
  8 32  1  0
  9 33  1  0
 10 34  1  0
 12 35  1  0
 17 36  1  0
 18 37  1  0
 19 38  1  0
 21 39  1  0
 21 40  1  0
 23 41  1  0
 24 42  1  0
 25 43  1  0
 26 44  1  0
 27 45  1  0
M  END
>  <meeko>  (1) 
{"is_sidechain": [false], "free_energy": -8.817, "intermolecular_energy": -10.879, "internal_energy": -0.783}

$$$$
cand_002_out
     RDKit          3D

 45 48  0  0  0  0  0  0  0  0999 V2000
  182.2530   20.7870   45.4140 C   0  0  0  0  0  0  0  0  0  0  0  0
  181.0090   19.9660   45.6180 C   0  0  0  0  0  0  0  0  0  0  0  0
  180.0020   20.4700   46.4630 C   0  0  0  0  0  0  0  0  0  0  0  0
  178.8210   19.7550   46.7140 C   0  0  0  0  0  0  0  0  0  0  0  0
  177.8010   20.3160   47.6270 C   0  0  0  0  0  0  0  0  0  0  0  0
  178.3420   21.1670   48.5830 O   0  0  0  0  0  0  0  0  0  0  0  0
  177.5050   21.7570   49.4960 C   0  0  0  0  0  0  0  0  0  0  0  0
  178.0920   22.5930   50.4460 C   0  0  0  0  0  0  0  0  0  0  0  0
  177.2970   23.2270   51.4030 C   0  0  0  0  0  0  0  0  0  0  0  0
  175.9150   23.0250   51.4090 C   0  0  0  0  0  0  0  0  0  0  0  0
  175.3320   22.1910   50.4590 C   0  0  0  0  0  0  0  0  0  0  0  0
  173.9730   22.0380   50.5230 O   0  0  0  0  0  0  0  0  0  0  0  0
  176.1280   21.5560   49.5030 C   0  0  0  0  0  0  0  0  0  0  0  0
  175.5560   20.6720   48.4870 C   0  0  0  0  0  0  0  0  0  0  0  0
  174.3480   20.4500   48.4240 O   0  0  0  0  0  0  0  0  0  0  0  0
  176.4870   20.0410   47.5230 C   0  0  0  0  0  0  0  0  0  0  0  0
  175.9330   19.2180   46.5600 O   0  0  0  0  0  0  0  0  0  0  0  0
  178.6660   18.5010   46.1180 C   0  0  0  0  0  0  0  0  0  0  0  0
  179.6590   17.9800   45.2870 C   0  0  0  0  0  0  0  0  0  0  0  0
  180.8410   18.6970   45.0280 C   0  0  0  0  0  0  0  0  0  0  0  0
  181.8860   18.0680   44.1230 C   0  0  0  0  0  0  0  0  0  0  0  0
  181.4080   16.8850   43.3080 C   0  0  0  0  0  0  0  0  0  0  0  0
  181.3730   15.6050   43.8810 C   0  0  0  0  0  0  0  0  0  0  0  0
  180.9580   14.5020   43.1340 C   0  0  0  0  0  0  0  0  0  0  0  0
  180.5800   14.6620   41.8020 C   0  0  0  0  0  0  0  0  0  0  0  0
  180.6230   15.9260   41.2160 C   0  0  0  0  0  0  0  0  0  0  0  0
  181.0380   17.0300   41.9630 C   0  0  0  0  0  0  0  0  0  0  0  0
  182.6736   21.0646   46.3918 H   0  0  0  0  0  0  0  0  0  0  0  0
  182.9922   20.1988   44.8505 H   0  0  0  0  0  0  0  0  0  0  0  0
  182.0028   21.6980   44.8505 H   0  0  0  0  0  0  0  0  0  0  0  0
  180.1449   21.4511   46.9395 H   0  0  0  0  0  0  0  0  0  0  0  0
  179.1803   22.7527   50.4412 H   0  0  0  0  0  0  0  0  0  0  0  0
  177.7594   23.8859   52.1526 H   0  0  0  0  0  0  0  0  0  0  0  0
  175.2884   23.5240   52.1630 H   0  0  0  0  0  0  0  0  0  0  0  0
  173.5170   21.6130   49.8240 H   0  0  0  0  0  0  0  0  0  0  0  0
  175.1550   19.4820   46.1090 H   0  0  0  0  0  0  0  0  0  0  0  0
  177.7521   17.9183   46.3056 H   0  0  0  0  0  0  0  0  0  0  0  0
  179.5147   16.9915   44.8266 H   0  0  0  0  0  0  0  0  0  0  0  0
  182.2405   18.8407   43.4249 H   0  0  0  0  0  0  0  0  0  0  0  0
  182.6719   17.6814   44.7885 H   0  0  0  0  0  0  0  0  0  0  0  0
  181.6758   15.4695   44.9298 H   0  0  0  0  0  0  0  0  0  0  0  0
  180.9291   13.5046   43.5970 H   0  0  0  0  0  0  0  0  0  0  0  0
  180.2486   13.7930   41.2147 H   0  0  0  0  0  0  0  0  0  0  0  0
  180.3296   16.0538   40.1636 H   0  0  0  0  0  0  0  0  0  0  0  0
  181.0751   18.0234   41.4920 H   0  0  0  0  0  0  0  0  0  0  0  0
  1  2  1  0
  2  3  2  0
  3  4  1  0
  4  5  1  0
  5  6  1  0
  6  7  1  0
  7  8  2  0
  8  9  1  0
  9 10  2  0
 10 11  1  0
 11 12  1  0
 11 13  2  0
 13 14  1  0
 14 15  2  0
 14 16  1  0
 16 17  1  0
  4 18  2  0
 18 19  1  0
 19 20  2  0
 20 21  1  0
 21 22  1  0
 22 23  2  0
 23 24  1  0
 24 25  2  0
 25 26  1  0
 26 27  2  0
 20  2  1  0
 27 22  1  0
 16  5  2  0
 13  7  1  0
  1 28  1  0
  1 29  1  0
  1 30  1  0
  3 31  1  0
  8 32  1  0
  9 33  1  0
 10 34  1  0
 12 35  1  0
 17 36  1  0
 18 37  1  0
 19 38  1  0
 21 39  1  0
 21 40  1  0
 23 41  1  0
 24 42  1  0
 25 43  1  0
 26 44  1  0
 27 45  1  0
M  END
>  <meeko>  (2) 
{"is_sidechain": [false], "free_energy": -8.436, "intermolecular_energy": -10.975, "internal_energy": -0.217}

$$$$
cand_002_out
     RDKit          3D

 45 48  0  0  0  0  0  0  0  0999 V2000
  179.1690   21.4860   51.1180 C   0  0  0  0  0  0  0  0  0  0  0  0
  178.5410   22.2500   49.9850 C   0  0  0  0  0  0  0  0  0  0  0  0
  177.2390   22.7570   50.1570 C   0  0  0  0  0  0  0  0  0  0  0  0
  176.5800   23.4660   49.1400 C   0  0  0  0  0  0  0  0  0  0  0  0
  175.2040   23.9600   49.3590 C   0  0  0  0  0  0  0  0  0  0  0  0
  175.1620   25.3030   49.7140 O   0  0  0  0  0  0  0  0  0  0  0  0
  173.9450   25.8920   49.9460 C   0  0  0  0  0  0  0  0  0  0  0  0
  173.9510   27.2380   50.3130 C   0  0  0  0  0  0  0  0  0  0  0  0
  172.7460   27.8970   50.5630 C   0  0  0  0  0  0  0  0  0  0  0  0
  171.5360   27.2110   50.4460 C   0  0  0  0  0  0  0  0  0  0  0  0
  171.5330   25.8680   50.0800 C   0  0  0  0  0  0  0  0  0  0  0  0
  170.3120   25.2560   49.9840 O   0  0  0  0  0  0  0  0  0  0  0  0
  172.7390   25.2080   49.8310 C   0  0  0  0  0  0  0  0  0  0  0  0
  172.7800   23.7970   49.4440 C   0  0  0  0  0  0  0  0  0  0  0  0
  171.7570   23.1280   49.3140 O   0  0  0  0  0  0  0  0  0  0  0  0
  174.1100   23.1890   49.2100 C   0  0  0  0  0  0  0  0  0  0  0  0
  174.1360   21.8590   48.8310 O   0  0  0  0  0  0  0  0  0  0  0  0
  177.2420   23.6480   47.9240 C   0  0  0  0  0  0  0  0  0  0  0  0
  178.5300   23.1420   47.7310 C   0  0  0  0  0  0  0  0  0  0  0  0
  179.1940   22.4370   48.7500 C   0  0  0  0  0  0  0  0  0  0  0  0
  180.5890   21.9040   48.4710 C   0  0  0  0  0  0  0  0  0  0  0  0
  180.6800   20.8870   47.3540 C   0  0  0  0  0  0  0  0  0  0  0  0
  181.8140   20.8490   46.5290 C   0  0  0  0  0  0  0  0  0  0  0  0
  181.9010   19.9330   45.4800 C   0  0  0  0  0  0  0  0  0  0  0  0
  180.8510   19.0490   45.2350 C   0  0  0  0  0  0  0  0  0  0  0  0
  179.7130   19.0850   46.0380 C   0  0  0  0  0  0  0  0  0  0  0  0
  179.6250   20.0010   47.0880 C   0  0  0  0  0  0  0  0  0  0  0  0
  178.8260   21.9033   52.0762 H   0  0  0  0  0  0  0  0  0  0  0  0
  178.8764   20.4276   51.0532 H   0  0  0  0  0  0  0  0  0  0  0  0
  180.2640   21.5683   51.0532 H   0  0  0  0  0  0  0  0  0  0  0  0
  176.7236   22.5931   51.1149 H   0  0  0  0  0  0  0  0  0  0  0  0
  174.9041   27.7793   50.4053 H   0  0  0  0  0  0  0  0  0  0  0  0
  172.7501   28.9582   50.8526 H   0  0  0  0  0  0  0  0  0  0  0  0
  170.5866   27.7307   50.6426 H   0  0  0  0  0  0  0  0  0  0  0  0
  170.2200   24.3540   50.2170 H   0  0  0  0  0  0  0  0  0  0  0  0
  174.9260   21.4850   48.4920 H   0  0  0  0  0  0  0  0  0  0  0  0
  176.7444   24.1953   47.1098 H   0  0  0  0  0  0  0  0  0  0  0  0
  179.0330   23.2979   46.7653 H   0  0  0  0  0  0  0  0  0  0  0  0
  181.2325   22.7565   48.2080 H   0  0  0  0  0  0  0  0  0  0  0  0
  180.9039   21.3808   49.3859 H   0  0  0  0  0  0  0  0  0  0  0  0
  182.6432   21.5486   46.7109 H   0  0  0  0  0  0  0  0  0  0  0  0
  182.7992   19.9083   44.8455 H   0  0  0  0  0  0  0  0  0  0  0  0
  180.9209   18.3250   44.4098 H   0  0  0  0  0  0  0  0  0  0  0  0
  178.8823   18.3904   45.8444 H   0  0  0  0  0  0  0  0  0  0  0  0
  178.7200   20.0284   47.7127 H   0  0  0  0  0  0  0  0  0  0  0  0
  1  2  1  0
  2  3  2  0
  3  4  1  0
  4  5  1  0
  5  6  1  0
  6  7  1  0
  7  8  2  0
  8  9  1  0
  9 10  2  0
 10 11  1  0
 11 12  1  0
 11 13  2  0
 13 14  1  0
 14 15  2  0
 14 16  1  0
 16 17  1  0
  4 18  2  0
 18 19  1  0
 19 20  2  0
 20 21  1  0
 21 22  1  0
 22 23  2  0
 23 24  1  0
 24 25  2  0
 25 26  1  0
 26 27  2  0
 20  2  1  0
 27 22  1  0
 16  5  2  0
 13  7  1  0
  1 28  1  0
  1 29  1  0
  1 30  1  0
  3 31  1  0
  8 32  1  0
  9 33  1  0
 10 34  1  0
 12 35  1  0
 17 36  1  0
 18 37  1  0
 19 38  1  0
 21 39  1  0
 21 40  1  0
 23 41  1  0
 24 42  1  0
 25 43  1  0
 26 44  1  0
 27 45  1  0
M  END
>  <meeko>  (3) 
{"is_sidechain": [false], "free_energy": -8.172, "intermolecular_energy": -10.005, "internal_energy": -0.861}

$$$$
cand_002_out
     RDKit          3D

 45 48  0  0  0  0  0  0  0  0999 V2000
  180.8330   19.0090   45.4140 C   0  0  0  0  0  0  0  0  0  0  0  0
  180.7020   20.2880   46.1940 C   0  0  0  0  0  0  0  0  0  0  0  0
  181.8530   20.8280   46.7990 C   0  0  0  0  0  0  0  0  0  0  0  0
  181.8070   22.0080   47.5560 C   0  0  0  0  0  0  0  0  0  0  0  0
  183.0390   22.5250   48.1910 C   0  0  0  0  0  0  0  0  0  0  0  0
  183.7930   23.3200   47.3370 O   0  0  0  0  0  0  0  0  0  0  0  0
  184.9640   23.8660   47.7990 C   0  0  0  0  0  0  0  0  0  0  0  0
  185.6960   24.6460   46.9030 C   0  0  0  0  0  0  0  0  0  0  0  0
  186.8960   25.2320   47.3100 C   0  0  0  0  0  0  0  0  0  0  0  0
  187.3640   25.0390   48.6110 C   0  0  0  0  0  0  0  0  0  0  0  0
  186.6310   24.2600   49.5030 C   0  0  0  0  0  0  0  0  0  0  0  0
  187.1470   24.1120   50.7620 O   0  0  0  0  0  0  0  0  0  0  0  0
  185.4310   23.6730   49.0950 C   0  0  0  0  0  0  0  0  0  0  0  0
  184.6300   22.8470   50.0000 C   0  0  0  0  0  0  0  0  0  0  0  0
  184.9720   22.6360   51.1620 O   0  0  0  0  0  0  0  0  0  0  0  0
  183.3770   22.2640   49.4680 C   0  0  0  0  0  0  0  0  0  0  0  0
  182.6220   21.4970   50.3360 O   0  0  0  0  0  0  0  0  0  0  0  0
  180.5730   22.6410   47.7220 C   0  0  0  0  0  0  0  0  0  0  0  0
  179.4180   22.1140   47.1390 C   0  0  0  0  0  0  0  0  0  0  0  0
  179.4630   20.9350   46.3740 C   0  0  0  0  0  0  0  0  0  0  0  0
  178.1690   20.4100   45.7780 C   0  0  0  0  0  0  0  0  0  0  0  0
  176.9910   20.3640   46.7280 C   0  0  0  0  0  0  0  0  0  0  0  0
  176.1950   21.5040   46.9160 C   0  0  0  0  0  0  0  0  0  0  0  0
  175.1210   21.4830   47.8080 C   0  0  0  0  0  0  0  0  0  0  0  0
  174.8360   20.3270   48.5300 C   0  0  0  0  0  0  0  0  0  0  0  0
  175.6270   19.1920   48.3640 C   0  0  0  0  0  0  0  0  0  0  0  0
  176.7010   19.2110   47.4720 C   0  0  0  0  0  0  0  0  0  0  0  0
  180.9197   18.1620   46.1105 H   0  0  0  0  0  0  0  0  0  0  0  0
  179.9441   18.8732   44.7805 H   0  0  0  0  0  0  0  0  0  0  0  0
  181.7310   19.0562   44.7805 H   0  0  0  0  0  0  0  0  0  0  0  0
  182.8154   20.3099   46.6745 H   0  0  0  0  0  0  0  0  0  0  0  0
  185.3282   24.7989   45.8777 H   0  0  0  0  0  0  0  0  0  0  0  0
  187.4738   25.8469   46.6043 H   0  0  0  0  0  0  0  0  0  0  0  0
  188.3096   25.5011   48.9309 H   0  0  0  0  0  0  0  0  0  0  0  0
  187.6690   23.3620   50.9690 H   0  0  0  0  0  0  0  0  0  0  0  0
  182.9680   21.2580   51.1730 H   0  0  0  0  0  0  0  0  0  0  0  0
  180.5100   23.5636   48.3177 H   0  0  0  0  0  0  0  0  0  0  0  0
  178.4570   22.6301   47.2808 H   0  0  0  0  0  0  0  0  0  0  0  0
  177.8976   21.0575   44.9312 H   0  0  0  0  0  0  0  0  0  0  0  0
  178.3680   19.3673   45.4895 H   0  0  0  0  0  0  0  0  0  0  0  0
  176.4193   22.4233   46.3552 H   0  0  0  0  0  0  0  0  0  0  0  0
  174.4993   22.3807   47.9405 H   0  0  0  0  0  0  0  0  0  0  0  0
  173.9878   20.3098   49.2302 H   0  0  0  0  0  0  0  0  0  0  0  0
  175.4050   18.2794   48.9367 H   0  0  0  0  0  0  0  0  0  0  0  0
  177.3254   18.3134   47.3517 H   0  0  0  0  0  0  0  0  0  0  0  0
  1  2  1  0
  2  3  2  0
  3  4  1  0
  4  5  1  0
  5  6  1  0
  6  7  1  0
  7  8  2  0
  8  9  1  0
  9 10  2  0
 10 11  1  0
 11 12  1  0
 11 13  2  0
 13 14  1  0
 14 15  2  0
 14 16  1  0
 16 17  1  0
  4 18  2  0
 18 19  1  0
 19 20  2  0
 20 21  1  0
 21 22  1  0
 22 23  2  0
 23 24  1  0
 24 25  2  0
 25 26  1  0
 26 27  2  0
 20  2  1  0
 27 22  1  0
 16  5  2  0
 13  7  1  0
  1 28  1  0
  1 29  1  0
  1 30  1  0
  3 31  1  0
  8 32  1  0
  9 33  1  0
 10 34  1  0
 12 35  1  0
 17 36  1  0
 18 37  1  0
 19 38  1  0
 21 39  1  0
 21 40  1  0
 23 41  1  0
 24 42  1  0
 25 43  1  0
 26 44  1  0
 27 45  1  0
M  END
>  <meeko>  (4) 
{"is_sidechain": [false], "free_energy": -8.123, "intermolecular_energy": -10.064, "internal_energy": -0.743}

$$$$
cand_002_out
     RDKit          3D

 45 48  0  0  0  0  0  0  0  0999 V2000
  175.5490   19.0010   47.7980 C   0  0  0  0  0  0  0  0  0  0  0  0
  175.9110   20.4500   47.9710 C   0  0  0  0  0  0  0  0  0  0  0  0
  175.1940   21.2150   48.9110 C   0  0  0  0  0  0  0  0  0  0  0  0
  175.4630   22.5760   49.1180 C   0  0  0  0  0  0  0  0  0  0  0  0
  174.6680   23.3430   50.1020 C   0  0  0  0  0  0  0  0  0  0  0  0
  173.6680   24.1060   49.5100 O   0  0  0  0  0  0  0  0  0  0  0  0
  172.8540   24.8680   50.3090 C   0  0  0  0  0  0  0  0  0  0  0  0
  171.8730   25.6280   49.6720 C   0  0  0  0  0  0  0  0  0  0  0  0
  171.0100   26.4250   50.4270 C   0  0  0  0  0  0  0  0  0  0  0  0
  171.1280   26.4610   51.8180 C   0  0  0  0  0  0  0  0  0  0  0  0
  172.1070   25.7010   52.4510 C   0  0  0  0  0  0  0  0  0  0  0  0
  172.1670   25.7830   53.8160 O   0  0  0  0  0  0  0  0  0  0  0  0
  172.9720   24.9050   51.6950 C   0  0  0  0  0  0  0  0  0  0  0  0
  174.0150   24.0910   52.3200 C   0  0  0  0  0  0  0  0  0  0  0  0
  174.1770   24.0650   53.5390 O   0  0  0  0  0  0  0  0  0  0  0  0
  174.8840   23.2880   51.4300 C   0  0  0  0  0  0  0  0  0  0  0  0
  175.8570   22.5120   52.0320 O   0  0  0  0  0  0  0  0  0  0  0  0
  176.4590   23.1800   48.3460 C   0  0  0  0  0  0  0  0  0  0  0  0
  177.1720   22.4400   47.4000 C   0  0  0  0  0  0  0  0  0  0  0  0
  176.9100   21.0740   47.1960 C   0  0  0  0  0  0  0  0  0  0  0  0
  177.7140   20.3320   46.1430 C   0  0  0  0  0  0  0  0  0  0  0  0
  179.2120   20.3290   46.3590 C   0  0  0  0  0  0  0  0  0  0  0  0
  179.7360   20.4090   47.6580 C   0  0  0  0  0  0  0  0  0  0  0  0
  181.1150   20.4330   47.8690 C   0  0  0  0  0  0  0  0  0  0  0  0
  181.9890   20.3860   46.7850 C   0  0  0  0  0  0  0  0  0  0  0  0
  181.4830   20.3190   45.4880 C   0  0  0  0  0  0  0  0  0  0  0  0
  180.1030   20.2950   45.2760 C   0  0  0  0  0  0  0  0  0  0  0  0
  175.4318   18.5319   48.7860 H   0  0  0  0  0  0  0  0  0  0  0  0
  174.6038   18.9232   47.2407 H   0  0  0  0  0  0  0  0  0  0  0  0
  176.3465   18.4878   47.2407 H   0  0  0  0  0  0  0  0  0  0  0  0
  174.4004   20.7316   49.4997 H   0  0  0  0  0  0  0  0  0  0  0  0
  171.7793   25.5995   48.5764 H   0  0  0  0  0  0  0  0  0  0  0  0
  170.2364   27.0251   49.9255 H   0  0  0  0  0  0  0  0  0  0  0  0
  170.4482   27.0891   52.4124 H   0  0  0  0  0  0  0  0  0  0  0  0
  171.7950   25.1030   54.3420 H   0  0  0  0  0  0  0  0  0  0  0  0
  175.7030   21.6000   52.1820 H   0  0  0  0  0  0  0  0  0  0  0  0
  176.6835   24.2479   48.4846 H   0  0  0  0  0  0  0  0  0  0  0  0
  177.9527   22.9351   46.8038 H   0  0  0  0  0  0  0  0  0  0  0  0
  177.3706   19.2871   46.1264 H   0  0  0  0  0  0  0  0  0  0  0  0
  177.5433   20.8659   45.1965 H   0  0  0  0  0  0  0  0  0  0  0  0
  179.0527   20.4533   48.5189 H   0  0  0  0  0  0  0  0  0  0  0  0
  181.5129   20.4891   48.8930 H   0  0  0  0  0  0  0  0  0  0  0  0
  183.0761   20.4017   46.9524 H   0  0  0  0  0  0  0  0  0  0  0  0
  182.1714   20.2850   44.6307 H   0  0  0  0  0  0  0  0  0  0  0  0
  179.7106   20.2490   44.2494 H   0  0  0  0  0  0  0  0  0  0  0  0
  1  2  1  0
  2  3  2  0
  3  4  1  0
  4  5  1  0
  5  6  1  0
  6  7  1  0
  7  8  2  0
  8  9  1  0
  9 10  2  0
 10 11  1  0
 11 12  1  0
 11 13  2  0
 13 14  1  0
 14 15  2  0
 14 16  1  0
 16 17  1  0
  4 18  2  0
 18 19  1  0
 19 20  2  0
 20 21  1  0
 21 22  1  0
 22 23  2  0
 23 24  1  0
 24 25  2  0
 25 26  1  0
 26 27  2  0
 20  2  1  0
 27 22  1  0
 16  5  2  0
 13  7  1  0
  1 28  1  0
  1 29  1  0
  1 30  1  0
  3 31  1  0
  8 32  1  0
  9 33  1  0
 10 34  1  0
 12 35  1  0
 17 36  1  0
 18 37  1  0
 19 38  1  0
 21 39  1  0
 21 40  1  0
 23 41  1  0
 24 42  1  0
 25 43  1  0
 26 44  1  0
 27 45  1  0
M  END
>  <meeko>  (5) 
{"is_sidechain": [false], "free_energy": -8.084, "intermolecular_energy": -9.994, "internal_energy": -0.764}

$$$$
cand_002_out
     RDKit          3D

 45 48  0  0  0  0  0  0  0  0999 V2000
  182.7400   25.8640   48.1030 C   0  0  0  0  0  0  0  0  0  0  0  0
  182.4400   24.4070   47.8820 C   0  0  0  0  0  0  0  0  0  0  0  0
  181.1820   23.9120   48.2780 C   0  0  0  0  0  0  0  0  0  0  0  0
  180.8350   22.5620   48.1200 C   0  0  0  0  0  0  0  0  0  0  0  0
  179.5100   22.0840   48.5710 C   0  0  0  0  0  0  0  0  0  0  0  0
  178.6300   21.8610   47.5190 O   0  0  0  0  0  0  0  0  0  0  0  0
  177.3630   21.4150   47.7960 C   0  0  0  0  0  0  0  0  0  0  0  0
  176.5080   21.2180   46.7110 C   0  0  0  0  0  0  0  0  0  0  0  0
  175.2050   20.7630   46.9240 C   0  0  0  0  0  0  0  0  0  0  0  0
  174.7570   20.5060   48.2210 C   0  0  0  0  0  0  0  0  0  0  0  0
  175.6120   20.7030   49.3020 C   0  0  0  0  0  0  0  0  0  0  0  0
  175.1090   20.4310   50.5460 O   0  0  0  0  0  0  0  0  0  0  0  0
  176.9150   21.1590   49.0890 C   0  0  0  0  0  0  0  0  0  0  0  0
  177.8460   21.3790   50.1970 C   0  0  0  0  0  0  0  0  0  0  0  0
  177.5280   21.1690   51.3660 O   0  0  0  0  0  0  0  0  0  0  0  0
  179.2030   21.8710   49.8650 C   0  0  0  0  0  0  0  0  0  0  0  0
  180.0780   22.0630   50.9180 O   0  0  0  0  0  0  0  0  0  0  0  0
  181.7820   21.6940   47.5710 C   0  0  0  0  0  0  0  0  0  0  0  0
  183.0390   22.1640   47.1840 C   0  0  0  0  0  0  0  0  0  0  0  0
  183.3870   23.5180   47.3350 C   0  0  0  0  0  0  0  0  0  0  0  0
  184.7740   23.9610   46.9040 C   0  0  0  0  0  0  0  0  0  0  0  0
  185.1430   23.6290   45.4740 C   0  0  0  0  0  0  0  0  0  0  0  0
  186.2980   22.8810   45.2020 C   0  0  0  0  0  0  0  0  0  0  0  0
  186.6630   22.5890   43.8860 C   0  0  0  0  0  0  0  0  0  0  0  0
  185.8840   23.0490   42.8270 C   0  0  0  0  0  0  0  0  0  0  0  0
  184.7420   23.8050   43.0820 C   0  0  0  0  0  0  0  0  0  0  0  0
  184.3750   24.0980   44.3980 C   0  0  0  0  0  0  0  0  0  0  0  0
  182.7824   26.0700   49.1827 H   0  0  0  0  0  0  0  0  0  0  0  0
  183.7082   26.1127   47.6440 H   0  0  0  0  0  0  0  0  0  0  0  0
  181.9488   26.4750   47.6440 H   0  0  0  0  0  0  0  0  0  0  0  0
  180.4515   24.6033   48.7235 H   0  0  0  0  0  0  0  0  0  0  0  0
  176.8600   21.4209   45.6888 H   0  0  0  0  0  0  0  0  0  0  0  0
  174.5309   20.6069   46.0689 H   0  0  0  0  0  0  0  0  0  0  0  0
  173.7303   20.1485   48.3886 H   0  0  0  0  0  0  0  0  0  0  0  0
  175.1570   19.5610   50.8900 H   0  0  0  0  0  0  0  0  0  0  0  0
  180.3080   22.9320   51.1830 H   0  0  0  0  0  0  0  0  0  0  0  0
  181.5352   20.6298   47.4422 H   0  0  0  0  0  0  0  0  0  0  0  0
  183.7693   21.4629   46.7537 H   0  0  0  0  0  0  0  0  0  0  0  0
  184.8357   25.0524   47.0264 H   0  0  0  0  0  0  0  0  0  0  0  0
  185.4815   23.4062   47.5377 H   0  0  0  0  0  0  0  0  0  0  0  0
  186.9222   22.5210   46.0331 H   0  0  0  0  0  0  0  0  0  0  0  0
  187.5668   21.9950   43.6856 H   0  0  0  0  0  0  0  0  0  0  0  0
  186.1701   22.8157   41.7908 H   0  0  0  0  0  0  0  0  0  0  0  0
  184.1283   24.1718   42.2461 H   0  0  0  0  0  0  0  0  0  0  0  0
  183.4761   24.7016   44.5919 H   0  0  0  0  0  0  0  0  0  0  0  0
  1  2  1  0
  2  3  2  0
  3  4  1  0
  4  5  1  0
  5  6  1  0
  6  7  1  0
  7  8  2  0
  8  9  1  0
  9 10  2  0
 10 11  1  0
 11 12  1  0
 11 13  2  0
 13 14  1  0
 14 15  2  0
 14 16  1  0
 16 17  1  0
  4 18  2  0
 18 19  1  0
 19 20  2  0
 20 21  1  0
 21 22  1  0
 22 23  2  0
 23 24  1  0
 24 25  2  0
 25 26  1  0
 26 27  2  0
 20  2  1  0
 27 22  1  0
 16  5  2  0
 13  7  1  0
  1 28  1  0
  1 29  1  0
  1 30  1  0
  3 31  1  0
  8 32  1  0
  9 33  1  0
 10 34  1  0
 12 35  1  0
 17 36  1  0
 18 37  1  0
 19 38  1  0
 21 39  1  0
 21 40  1  0
 23 41  1  0
 24 42  1  0
 25 43  1  0
 26 44  1  0
 27 45  1  0
M  END
>  <meeko>  (6) 
{"is_sidechain": [false], "free_energy": -7.73, "intermolecular_energy": -9.402, "internal_energy": -0.919}

$$$$
cand_002_out
     RDKit          3D

 45 48  0  0  0  0  0  0  0  0999 V2000
  174.9500   26.1710   50.3190 C   0  0  0  0  0  0  0  0  0  0  0  0
  174.9780   24.7290   49.8920 C   0  0  0  0  0  0  0  0  0  0  0  0
  176.2250   24.1270   49.6360 C   0  0  0  0  0  0  0  0  0  0  0  0
  176.3310   22.7920   49.2200 C   0  0  0  0  0  0  0  0  0  0  0  0
  177.6610   22.2100   48.9420 C   0  0  0  0  0  0  0  0  0  0  0  0
  177.7880   21.7490   47.6370 O   0  0  0  0  0  0  0  0  0  0  0  0
  178.9740   21.1840   47.2440 C   0  0  0  0  0  0  0  0  0  0  0  0
  179.0520   20.7220   45.9300 C   0  0  0  0  0  0  0  0  0  0  0  0
  180.2320   20.1380   45.4660 C   0  0  0  0  0  0  0  0  0  0  0  0
  181.3330   20.0160   46.3150 C   0  0  0  0  0  0  0  0  0  0  0  0
  181.2530   20.4770   47.6260 C   0  0  0  0  0  0  0  0  0  0  0  0
  182.3700   20.3260   48.4030 O   0  0  0  0  0  0  0  0  0  0  0  0
  180.0720   21.0610   48.0900 C   0  0  0  0  0  0  0  0  0  0  0  0
  179.9460   21.5590   49.4600 C   0  0  0  0  0  0  0  0  0  0  0  0
  180.8730   21.4930   50.2650 O   0  0  0  0  0  0  0  0  0  0  0  0
  178.6480   22.1540   49.8570 C   0  0  0  0  0  0  0  0  0  0  0  0
  178.5440   22.6340   51.1490 O   0  0  0  0  0  0  0  0  0  0  0  0
  175.1550   22.0600   49.0370 C   0  0  0  0  0  0  0  0  0  0  0  0
  173.9090   22.6430   49.2740 C   0  0  0  0  0  0  0  0  0  0  0  0
  173.8000   23.9800   49.6990 C   0  0  0  0  0  0  0  0  0  0  0  0
  172.4140   24.5560   49.9270 C   0  0  0  0  0  0  0  0  0  0  0  0
  171.8470   24.3450   51.3150 C   0  0  0  0  0  0  0  0  0  0  0  0
  170.4850   24.5760   51.5600 C   0  0  0  0  0  0  0  0  0  0  0  0
  169.9540   24.4100   52.8400 C   0  0  0  0  0  0  0  0  0  0  0  0
  170.7790   24.0180   53.8930 C   0  0  0  0  0  0  0  0  0  0  0  0
  172.1360   23.7970   53.6660 C   0  0  0  0  0  0  0  0  0  0  0  0
  172.6680   23.9640   52.3860 C   0  0  0  0  0  0  0  0  0  0  0  0
  174.9489   26.2282   51.4175 H   0  0  0  0  0  0  0  0  0  0  0  0
  175.8383   26.6871   49.9259 H   0  0  0  0  0  0  0  0  0  0  0  0
  174.0423   26.6523   49.9259 H   0  0  0  0  0  0  0  0  0  0  0  0
  177.1419   24.7207   49.7660 H   0  0  0  0  0  0  0  0  0  0  0  0
  178.1847   20.8178   45.2603 H   0  0  0  0  0  0  0  0  0  0  0  0
  180.2941   19.7735   44.4300 H   0  0  0  0  0  0  0  0  0  0  0  0
  182.2627   19.5562   45.9486 H   0  0  0  0  0  0  0  0  0  0  0  0
  182.8700   21.0770   48.6540 H   0  0  0  0  0  0  0  0  0  0  0  0
  178.1970   23.4900   51.3050 H   0  0  0  0  0  0  0  0  0  0  0  0
  175.2116   21.0135   48.7027 H   0  0  0  0  0  0  0  0  0  0  0  0
  172.9965   22.0469   49.1259 H   0  0  0  0  0  0  0  0  0  0  0  0
  172.4608   25.6389   49.7398 H   0  0  0  0  0  0  0  0  0  0  0  0
  171.7441   24.0190   49.2394 H   0  0  0  0  0  0  0  0  0  0  0  0
  169.8291   24.8911   50.7350 H   0  0  0  0  0  0  0  0  0  0  0  0
  168.8833   24.5887   53.0181 H   0  0  0  0  0  0  0  0  0  0  0  0
  170.3597   23.8834   54.9010 H   0  0  0  0  0  0  0  0  0  0  0  0
  172.7890   23.4905   54.4965 H   0  0  0  0  0  0  0  0  0  0  0  0
  173.7416   23.7951   52.2161 H   0  0  0  0  0  0  0  0  0  0  0  0
  1  2  1  0
  2  3  2  0
  3  4  1  0
  4  5  1  0
  5  6  1  0
  6  7  1  0
  7  8  2  0
  8  9  1  0
  9 10  2  0
 10 11  1  0
 11 12  1  0
 11 13  2  0
 13 14  1  0
 14 15  2  0
 14 16  1  0
 16 17  1  0
  4 18  2  0
 18 19  1  0
 19 20  2  0
 20 21  1  0
 21 22  1  0
 22 23  2  0
 23 24  1  0
 24 25  2  0
 25 26  1  0
 26 27  2  0
 20  2  1  0
 27 22  1  0
 16  5  2  0
 13  7  1  0
  1 28  1  0
  1 29  1  0
  1 30  1  0
  3 31  1  0
  8 32  1  0
  9 33  1  0
 10 34  1  0
 12 35  1  0
 17 36  1  0
 18 37  1  0
 19 38  1  0
 21 39  1  0
 21 40  1  0
 23 41  1  0
 24 42  1  0
 25 43  1  0
 26 44  1  0
 27 45  1  0
M  END
>  <meeko>  (7) 
{"is_sidechain": [false], "free_energy": -7.686, "intermolecular_energy": -9.533, "internal_energy": -0.734}

$$$$
cand_002_out
     RDKit          3D

 45 48  0  0  0  0  0  0  0  0999 V2000
  177.1220   21.5060   51.5240 C   0  0  0  0  0  0  0  0  0  0  0  0
  177.3000   21.8480   50.0700 C   0  0  0  0  0  0  0  0  0  0  0  0
  178.6070   21.9760   49.5650 C   0  0  0  0  0  0  0  0  0  0  0  0
  178.8540   22.3080   48.2240 C   0  0  0  0  0  0  0  0  0  0  0  0
  180.2450   22.4530   47.7450 C   0  0  0  0  0  0  0  0  0  0  0  0
  180.8620   23.6060   48.2160 O   0  0  0  0  0  0  0  0  0  0  0  0
  182.1570   23.8640   47.8480 C   0  0  0  0  0  0  0  0  0  0  0  0
  182.7320   25.0390   48.3330 C   0  0  0  0  0  0  0  0  0  0  0  0
  184.0480   25.3620   47.9970 C   0  0  0  0  0  0  0  0  0  0  0  0
  184.7900   24.5090   47.1770 C   0  0  0  0  0  0  0  0  0  0  0  0
  184.2140   23.3370   46.6940 C   0  0  0  0  0  0  0  0  0  0  0  0
  184.9970   22.5470   45.8960 O   0  0  0  0  0  0  0  0  0  0  0  0
  182.8960   23.0160   47.0300 C   0  0  0  0  0  0  0  0  0  0  0  0
  182.2530   21.7940   46.5440 C   0  0  0  0  0  0  0  0  0  0  0  0
  182.8430   20.9910   45.8230 O   0  0  0  0  0  0  0  0  0  0  0  0
  180.8510   21.5490   46.9510 C   0  0  0  0  0  0  0  0  0  0  0  0
  180.2580   20.3850   46.4970 O   0  0  0  0  0  0  0  0  0  0  0  0
  177.7590   22.5360   47.3860 C   0  0  0  0  0  0  0  0  0  0  0  0
  176.4550   22.4260   47.8730 C   0  0  0  0  0  0  0  0  0  0  0  0
  176.2050   22.0860   49.2140 C   0  0  0  0  0  0  0  0  0  0  0  0
  174.7630   21.9940   49.6810 C   0  0  0  0  0  0  0  0  0  0  0  0
  173.9970   23.2990   49.6720 C   0  0  0  0  0  0  0  0  0  0  0  0
  174.6140   24.4800   50.1100 C   0  0  0  0  0  0  0  0  0  0  0  0
  173.9110   25.6850   50.1310 C   0  0  0  0  0  0  0  0  0  0  0  0
  172.5800   25.7240   49.7220 C   0  0  0  0  0  0  0  0  0  0  0  0
  171.9500   24.5570   49.2970 C   0  0  0  0  0  0  0  0  0  0  0  0
  172.6520   23.3500   49.2760 C   0  0  0  0  0  0  0  0  0  0  0  0
  177.5414   22.3118   52.1442 H   0  0  0  0  0  0  0  0  0  0  0  0
  176.0505   21.3927   51.7455 H   0  0  0  0  0  0  0  0  0  0  0  0
  177.6439   20.5634   51.7455 H   0  0  0  0  0  0  0  0  0  0  0  0
  179.4594   21.8112   50.2405 H   0  0  0  0  0  0  0  0  0  0  0  0
  182.1486   25.7107   48.9799 H   0  0  0  0  0  0  0  0  0  0  0  0
  184.5009   26.2891   48.3784 H   0  0  0  0  0  0  0  0  0  0  0  0
  185.8274   24.7626   46.9133 H   0  0  0  0  0  0  0  0  0  0  0  0
  185.9260   22.5360   46.0160 H   0  0  0  0  0  0  0  0  0  0  0  0
  180.6030   19.5520   46.7550 H   0  0  0  0  0  0  0  0  0  0  0  0
  177.9261   22.8047   46.3325 H   0  0  0  0  0  0  0  0  0  0  0  0
  175.6081   22.6087   47.1952 H   0  0  0  0  0  0  0  0  0  0  0  0
  174.2370   21.2864   49.0232 H   0  0  0  0  0  0  0  0  0  0  0  0
  174.8031   21.6715   50.7319 H   0  0  0  0  0  0  0  0  0  0  0  0
  175.6629   24.4559   50.4404 H   0  0  0  0  0  0  0  0  0  0  0  0
  174.4084   26.6053   50.4709 H   0  0  0  0  0  0  0  0  0  0  0  0
  172.0274   26.6751   49.7347 H   0  0  0  0  0  0  0  0  0  0  0  0
  170.8979   24.5860   48.9774 H   0  0  0  0  0  0  0  0  0  0  0  0
  172.1458   22.4308   48.9460 H   0  0  0  0  0  0  0  0  0  0  0  0
  1  2  1  0
  2  3  2  0
  3  4  1  0
  4  5  1  0
  5  6  1  0
  6  7  1  0
  7  8  2  0
  8  9  1  0
  9 10  2  0
 10 11  1  0
 11 12  1  0
 11 13  2  0
 13 14  1  0
 14 15  2  0
 14 16  1  0
 16 17  1  0
  4 18  2  0
 18 19  1  0
 19 20  2  0
 20 21  1  0
 21 22  1  0
 22 23  2  0
 23 24  1  0
 24 25  2  0
 25 26  1  0
 26 27  2  0
 20  2  1  0
 27 22  1  0
 16  5  2  0
 13  7  1  0
  1 28  1  0
  1 29  1  0
  1 30  1  0
  3 31  1  0
  8 32  1  0
  9 33  1  0
 10 34  1  0
 12 35  1  0
 17 36  1  0
 18 37  1  0
 19 38  1  0
 21 39  1  0
 21 40  1  0
 23 41  1  0
 24 42  1  0
 25 43  1  0
 26 44  1  0
 27 45  1  0
M  END
>  <meeko>  (8) 
{"is_sidechain": [false], "free_energy": -7.597, "intermolecular_energy": -9.225, "internal_energy": -0.931}

$$$$
cand_002_out
     RDKit          3D

 45 48  0  0  0  0  0  0  0  0999 V2000
  178.4390   20.8430   46.3060 C   0  0  0  0  0  0  0  0  0  0  0  0
  178.2140   21.4480   47.6640 C   0  0  0  0  0  0  0  0  0  0  0  0
  176.9920   22.1020   47.9150 C   0  0  0  0  0  0  0  0  0  0  0  0
  176.7150   22.7040   49.1510 C   0  0  0  0  0  0  0  0  0  0  0  0
  175.4260   23.3990   49.3600 C   0  0  0  0  0  0  0  0  0  0  0  0
  175.5830   24.7330   49.7150 O   0  0  0  0  0  0  0  0  0  0  0  0
  174.4660   25.4970   49.9390 C   0  0  0  0  0  0  0  0  0  0  0  0
  174.6700   26.8270   50.3060 C   0  0  0  0  0  0  0  0  0  0  0  0
  173.5750   27.6590   50.5480 C   0  0  0  0  0  0  0  0  0  0  0  0
  172.2770   27.1620   50.4210 C   0  0  0  0  0  0  0  0  0  0  0  0
  172.0760   25.8340   50.0540 C   0  0  0  0  0  0  0  0  0  0  0  0
  170.7780   25.4120   49.9480 O   0  0  0  0  0  0  0  0  0  0  0  0
  173.1710   25.0010   49.8140 C   0  0  0  0  0  0  0  0  0  0  0  0
  173.0040   23.6000   49.4260 C   0  0  0  0  0  0  0  0  0  0  0  0
  171.8930   23.0910   49.2880 O   0  0  0  0  0  0  0  0  0  0  0  0
  174.2300   22.8000   49.2010 C   0  0  0  0  0  0  0  0  0  0  0  0
  174.0600   21.4810   48.8220 O   0  0  0  0  0  0  0  0  0  0  0  0
  177.6970   22.6630   50.1430 C   0  0  0  0  0  0  0  0  0  0  0  0
  178.9200   22.0300   49.9090 C   0  0  0  0  0  0  0  0  0  0  0  0
  179.1970   21.4200   48.6730 C   0  0  0  0  0  0  0  0  0  0  0  0
  180.5510   20.7580   48.4800 C   0  0  0  0  0  0  0  0  0  0  0  0
  181.5860   21.6000   47.7670 C   0  0  0  0  0  0  0  0  0  0  0  0
  182.1240   21.1680   46.5450 C   0  0  0  0  0  0  0  0  0  0  0  0
  183.0970   21.9220   45.8890 C   0  0  0  0  0  0  0  0  0  0  0  0
  183.5520   23.1140   46.4490 C   0  0  0  0  0  0  0  0  0  0  0  0
  183.0370   23.5490   47.6680 C   0  0  0  0  0  0  0  0  0  0  0  0
  182.0630   22.7950   48.3260 C   0  0  0  0  0  0  0  0  0  0  0  0
  178.8203   19.8175   46.4201 H   0  0  0  0  0  0  0  0  0  0  0  0
  177.4888   20.8214   45.7522 H   0  0  0  0  0  0  0  0  0  0  0  0
  179.1724   21.4475   45.7522 H   0  0  0  0  0  0  0  0  0  0  0  0
  176.2336   22.1417   47.1192 H   0  0  0  0  0  0  0  0  0  0  0  0
  175.6926   27.2202   50.4047 H   0  0  0  0  0  0  0  0  0  0  0  0
  173.7356   28.7075   50.8391 H   0  0  0  0  0  0  0  0  0  0  0  0
  171.4146   27.8181   50.6104 H   0  0  0  0  0  0  0  0  0  0  0  0
  170.3930   25.2880   49.1030 H   0  0  0  0  0  0  0  0  0  0  0  0
  174.6970   20.8380   49.0660 H   0  0  0  0  0  0  0  0  0  0  0  0
  177.5055   23.1339   51.1185 H   0  0  0  0  0  0  0  0  0  0  0  0
  179.6789   22.0084   50.7050 H   0  0  0  0  0  0  0  0  0  0  0  0
  180.9479   20.5002   49.4730 H   0  0  0  0  0  0  0  0  0  0  0  0
  180.3735   19.8840   47.8361 H   0  0  0  0  0  0  0  0  0  0  0  0
  181.7747   20.2248   46.0997 H   0  0  0  0  0  0  0  0  0  0  0  0
  183.5056   21.5752   44.9284 H   0  0  0  0  0  0  0  0  0  0  0  0
  184.3165   23.7104   45.9295 H   0  0  0  0  0  0  0  0  0  0  0  0
  183.3981   24.4879   48.1130 H   0  0  0  0  0  0  0  0  0  0  0  0
  181.6661   23.1413   49.2917 H   0  0  0  0  0  0  0  0  0  0  0  0
  1  2  1  0
  2  3  2  0
  3  4  1  0
  4  5  1  0
  5  6  1  0
  6  7  1  0
  7  8  2  0
  8  9  1  0
  9 10  2  0
 10 11  1  0
 11 12  1  0
 11 13  2  0
 13 14  1  0
 14 15  2  0
 14 16  1  0
 16 17  1  0
  4 18  2  0
 18 19  1  0
 19 20  2  0
 20 21  1  0
 21 22  1  0
 22 23  2  0
 23 24  1  0
 24 25  2  0
 25 26  1  0
 26 27  2  0
 20  2  1  0
 27 22  1  0
 16  5  2  0
 13  7  1  0
  1 28  1  0
  1 29  1  0
  1 30  1  0
  3 31  1  0
  8 32  1  0
  9 33  1  0
 10 34  1  0
 12 35  1  0
 17 36  1  0
 18 37  1  0
 19 38  1  0
 21 39  1  0
 21 40  1  0
 23 41  1  0
 24 42  1  0
 25 43  1  0
 26 44  1  0
 27 45  1  0
M  END
>  <meeko>  (9) 
{"is_sidechain": [false], "free_energy": -7.532, "intermolecular_energy": -9.361, "internal_energy": -0.716}

$$$$
