cand_040_out
     RDKit          3D

 36 38  0  0  0  0  0  0  0  0999 V2000
  181.5020   14.6270   41.5280 C   0  0  0  0  0  0  0  0  0  0  0  0
  181.9440   14.8930   42.7630 C   0  0  0  0  0  0  0  0  0  0  0  0
  181.3260   15.8910   43.6480 C   0  0  0  0  0  0  0  0  0  0  0  0
  181.6520   17.2460   43.4990 C   0  0  0  0  0  0  0  0  0  0  0  0
  181.0560   18.2230   44.3010 C   0  0  0  0  0  0  0  0  0  0  0  0
  180.1040   17.8720   45.2650 C   0  0  0  0  0  0  0  0  0  0  0  0
  179.5020   18.9170   46.1200 C   0  0  0  0  0  0  0  0  0  0  0  0
  178.1120   18.8860   46.1130 O   0  0  0  0  0  0  0  0  0  0  0  0
  177.4240   19.8020   46.8650 C   0  0  0  0  0  0  0  0  0  0  0  0
  176.0300   19.7440   46.8160 C   0  0  0  0  0  0  0  0  0  0  0  0
  175.2690   20.6480   47.5610 C   0  0  0  0  0  0  0  0  0  0  0  0
  175.9010   21.6100   48.3530 C   0  0  0  0  0  0  0  0  0  0  0  0
  177.2920   21.6660   48.3980 C   0  0  0  0  0  0  0  0  0  0  0  0
  177.8440   22.6310   49.1950 O   0  0  0  0  0  0  0  0  0  0  0  0
  178.0530   20.7610   47.6540 C   0  0  0  0  0  0  0  0  0  0  0  0
  179.5160   20.7860   47.6730 C   0  0  0  0  0  0  0  0  0  0  0  0
  180.1440   21.5970   48.3520 O   0  0  0  0  0  0  0  0  0  0  0  0
  180.2300   19.7890   46.8420 C   0  0  0  0  0  0  0  0  0  0  0  0
  181.6110   19.8130   46.8790 O   0  0  0  0  0  0  0  0  0  0  0  0
  179.7770   16.5160   45.4150 C   0  0  0  0  0  0  0  0  0  0  0  0
  180.3730   15.5200   44.6170 C   0  0  0  0  0  0  0  0  0  0  0  0
  179.9670   14.0850   44.8230 C   0  0  0  0  0  0  0  0  0  0  0  0
  182.0085   13.8676   40.9142 H   0  0  0  0  0  0  0  0  0  0  0  0
  180.6322   15.1678   41.1268 H   0  0  0  0  0  0  0  0  0  0  0  0
  182.8159   14.3353   43.1355 H   0  0  0  0  0  0  0  0  0  0  0  0
  182.3886   17.5451   42.7388 H   0  0  0  0  0  0  0  0  0  0  0  0
  181.3379   19.2786   44.1733 H   0  0  0  0  0  0  0  0  0  0  0  0
  175.5317   18.9877   46.1918 H   0  0  0  0  0  0  0  0  0  0  0  0
  174.1706   20.6024   47.5241 H   0  0  0  0  0  0  0  0  0  0  0  0
  175.3014   22.3215   48.9397 H   0  0  0  0  0  0  0  0  0  0  0  0
  177.9790   22.4660   50.1080 H   0  0  0  0  0  0  0  0  0  0  0  0
  182.0790   20.5250   46.4880 H   0  0  0  0  0  0  0  0  0  0  0  0
  179.0370   16.2234   46.1745 H   0  0  0  0  0  0  0  0  0  0  0  0
  179.9067   13.8721   45.9005 H   0  0  0  0  0  0  0  0  0  0  0  0
  178.9846   13.9117   44.3595 H   0  0  0  0  0  0  0  0  0  0  0  0
  180.7130   13.4227   44.3595 H   0  0  0  0  0  0  0  0  0  0  0  0
  1  2  2  0
  2  3  1  0
  3  4  2  0
  4  5  1  0
  5  6  2  0
  6  7  1  0
  7  8  1  0
  8  9  1  0
  9 10  2  0
 10 11  1  0
 11 12  2  0
 12 13  1  0
 13 14  1  0
 13 15  2  0
 15 16  1  0
 16 17  2  0
 16 18  1  0
 18 19  1  0
  6 20  1  0
 20 21  2  0
 21 22  1  0
 21  3  1  0
 18  7  2  0
 15  9  1  0
  1 23  1  0
  1 24  1  0
  2 25  1  0
  4 26  1  0
  5 27  1  0
 10 28  1  0
 11 29  1  0
 12 30  1  0
 14 31  1  0
 19 32  1  0
 20 33  1  0
 22 34  1  0
 22 35  1  0
 22 36  1  0
M  END
>  <meeko>  (1) 
{"is_sidechain": [false], "free_energy": -8.119, "intermolecular_energy": -9.543, "internal_energy": -0.217}

$$$$
cand_040_out
     RDKit          3D

 36 38  0  0  0  0  0  0  0  0999 V2000
  181.1280   14.7080   41.0050 C   0  0  0  0  0  0  0  0  0  0  0  0
  181.2680   14.5420   42.3260 C   0  0  0  0  0  0  0  0  0  0  0  0
  180.9990   15.6010   43.3090 C   0  0  0  0  0  0  0  0  0  0  0  0
  181.4600   16.9030   43.0680 C   0  0  0  0  0  0  0  0  0  0  0  0
  181.1900   17.9400   43.9670 C   0  0  0  0  0  0  0  0  0  0  0  0
  180.4390   17.7050   45.1240 C   0  0  0  0  0  0  0  0  0  0  0  0
  180.1850   18.8090   46.0730 C   0  0  0  0  0  0  0  0  0  0  0  0
  181.3540   19.3500   46.5980 O   0  0  0  0  0  0  0  0  0  0  0  0
  181.2630   20.3840   47.4930 C   0  0  0  0  0  0  0  0  0  0  0  0
  182.4600   20.8850   48.0060 C   0  0  0  0  0  0  0  0  0  0  0  0
  182.4380   21.9400   48.9210 C   0  0  0  0  0  0  0  0  0  0  0  0
  181.2200   22.4930   49.3230 C   0  0  0  0  0  0  0  0  0  0  0  0
  180.0270   21.9910   48.8100 C   0  0  0  0  0  0  0  0  0  0  0  0
  178.8710   22.5790   49.2450 O   0  0  0  0  0  0  0  0  0  0  0  0
  180.0490   20.9350   47.8940 C   0  0  0  0  0  0  0  0  0  0  0  0
  178.8190   20.3770   47.3310 C   0  0  0  0  0  0  0  0  0  0  0  0
  177.7100   20.8150   47.6300 O   0  0  0  0  0  0  0  0  0  0  0  0
  178.9510   19.2540   46.3750 C   0  0  0  0  0  0  0  0  0  0  0  0
  177.7840   18.7440   45.8380 O   0  0  0  0  0  0  0  0  0  0  0  0
  179.9780   16.4030   45.3660 C   0  0  0  0  0  0  0  0  0  0  0  0
  180.2450   15.3470   44.4710 C   0  0  0  0  0  0  0  0  0  0  0  0
  179.7100   13.9760   44.7860 C   0  0  0  0  0  0  0  0  0  0  0  0
  181.3454   13.8753   40.3199 H   0  0  0  0  0  0  0  0  0  0  0  0
  180.7956   15.6771   40.6046 H   0  0  0  0  0  0  0  0  0  0  0  0
  181.6020   13.5611   42.6953 H   0  0  0  0  0  0  0  0  0  0  0  0
  182.0426   17.1120   42.1586 H   0  0  0  0  0  0  0  0  0  0  0  0
  181.5721   18.9510   43.7623 H   0  0  0  0  0  0  0  0  0  0  0  0
  183.4196   20.4497   47.6902 H   0  0  0  0  0  0  0  0  0  0  0  0
  183.3812   22.3359   49.3256 H   0  0  0  0  0  0  0  0  0  0  0  0
  181.2034   23.3238   50.0438 H   0  0  0  0  0  0  0  0  0  0  0  0
  178.5260   22.3660   50.0900 H   0  0  0  0  0  0  0  0  0  0  0  0
  176.9540   19.0740   46.1230 H   0  0  0  0  0  0  0  0  0  0  0  0
  179.3940   16.2008   46.2760 H   0  0  0  0  0  0  0  0  0  0  0  0
  179.6586   13.8442   45.8769 H   0  0  0  0  0  0  0  0  0  0  0  0
  178.7035   13.8674   44.3557 H   0  0  0  0  0  0  0  0  0  0  0  0
  180.3769   13.2144   44.3557 H   0  0  0  0  0  0  0  0  0  0  0  0
  1  2  2  0
  2  3  1  0
  3  4  2  0
  4  5  1  0
  5  6  2  0
  6  7  1  0
  7  8  1  0
  8  9  1  0
  9 10  2  0
 10 11  1  0
 11 12  2  0
 12 13  1  0
 13 14  1  0
 13 15  2  0
 15 16  1  0
 16 17  2  0
 16 18  1  0
 18 19  1  0
  6 20  1  0
 20 21  2  0
 21 22  1  0
 21  3  1  0
 18  7  2  0
 15  9  1  0
  1 23  1  0
  1 24  1  0
  2 25  1  0
  4 26  1  0
  5 27  1  0
 10 28  1  0
 11 29  1  0
 12 30  1  0
 14 31  1  0
 19 32  1  0
 20 33  1  0
 22 34  1  0
 22 35  1  0
 22 36  1  0
M  END
>  <meeko>  (2) 
{"is_sidechain": [false], "free_energy": -7.634, "intermolecular_energy": -8.839, "internal_energy": -0.351}

$$$$
cand_040_out
     RDKit          3D

 36 38  0  0  0  0  0  0  0  0999 V2000
  171.6920   24.2150   48.7720 C   0  0  0  0  0  0  0  0  0  0  0  0
  172.5380   23.8720   49.7520 C   0  0  0  0  0  0  0  0  0  0  0  0
  173.9180   23.4250   49.5110 C   0  0  0  0  0  0  0  0  0  0  0  0
  174.1550   22.1110   49.0830 C   0  0  0  0  0  0  0  0  0  0  0  0
  175.4520   21.6650   48.8120 C   0  0  0  0  0  0  0  0  0  0  0  0
  176.5460   22.5260   48.9490 C   0  0  0  0  0  0  0  0  0  0  0  0
  177.9120   22.0290   48.6810 C   0  0  0  0  0  0  0  0  0  0  0  0
  178.0740   21.5730   47.3770 O   0  0  0  0  0  0  0  0  0  0  0  0
  179.2960   21.0840   46.9930 C   0  0  0  0  0  0  0  0  0  0  0  0
  179.4090   20.6220   45.6800 C   0  0  0  0  0  0  0  0  0  0  0  0
  180.6260   20.1120   45.2240 C   0  0  0  0  0  0  0  0  0  0  0  0
  181.7300   20.0640   46.0800 C   0  0  0  0  0  0  0  0  0  0  0  0
  181.6140   20.5250   47.3890 C   0  0  0  0  0  0  0  0  0  0  0  0
  182.7330   20.4490   48.1710 O   0  0  0  0  0  0  0  0  0  0  0  0
  180.3950   21.0340   47.8450 C   0  0  0  0  0  0  0  0  0  0  0  0
  180.2300   21.5280   49.2120 C   0  0  0  0  0  0  0  0  0  0  0  0
  181.1560   21.5260   50.0210 O   0  0  0  0  0  0  0  0  0  0  0  0
  178.8960   22.0410   49.6000 C   0  0  0  0  0  0  0  0  0  0  0  0
  178.7550   22.5180   50.8890 O   0  0  0  0  0  0  0  0  0  0  0  0
  176.3100   23.8410   49.3780 C   0  0  0  0  0  0  0  0  0  0  0  0
  175.0080   24.3040   49.6580 C   0  0  0  0  0  0  0  0  0  0  0  0
  174.8250   25.7300   50.1020 C   0  0  0  0  0  0  0  0  0  0  0  0
  170.6705   24.5418   49.0165 H   0  0  0  0  0  0  0  0  0  0  0  0
  172.0186   24.1699   47.7226 H   0  0  0  0  0  0  0  0  0  0  0  0
  172.1820   23.9276   50.7913 H   0  0  0  0  0  0  0  0  0  0  0  0
  173.3077   21.4207   48.9586 H   0  0  0  0  0  0  0  0  0  0  0  0
  175.6139   20.6264   48.4877 H   0  0  0  0  0  0  0  0  0  0  0  0
  178.5404   20.6599   45.0061 H   0  0  0  0  0  0  0  0  0  0  0  0
  180.7162   19.7476   44.1900 H   0  0  0  0  0  0  0  0  0  0  0  0
  182.6889   19.6627   45.7203 H   0  0  0  0  0  0  0  0  0  0  0  0
  183.1230   19.6160   48.3520 H   0  0  0  0  0  0  0  0  0  0  0  0
  178.4110   23.3780   51.0360 H   0  0  0  0  0  0  0  0  0  0  0  0
  177.1612   24.5271   49.4988 H   0  0  0  0  0  0  0  0  0  0  0  0
  174.8194   25.7740   51.2011 H   0  0  0  0  0  0  0  0  0  0  0  0
  175.6518   26.3436   49.7147 H   0  0  0  0  0  0  0  0  0  0  0  0
  173.8701   26.1149   49.7147 H   0  0  0  0  0  0  0  0  0  0  0  0
  1  2  2  0
  2  3  1  0
  3  4  2  0
  4  5  1  0
  5  6  2  0
  6  7  1  0
  7  8  1  0
  8  9  1  0
  9 10  2  0
 10 11  1  0
 11 12  2  0
 12 13  1  0
 13 14  1  0
 13 15  2  0
 15 16  1  0
 16 17  2  0
 16 18  1  0
 18 19  1  0
  6 20  1  0
 20 21  2  0
 21 22  1  0
 21  3  1  0
 18  7  2  0
 15  9  1  0
  1 23  1  0
  1 24  1  0
  2 25  1  0
  4 26  1  0
  5 27  1  0
 10 28  1  0
 11 29  1  0
 12 30  1  0
 14 31  1  0
 19 32  1  0
 20 33  1  0
 22 34  1  0
 22 35  1  0
 22 36  1  0
M  END
>  <meeko>  (3) 
{"is_sidechain": [false], "free_energy": -7.519, "intermolecular_energy": -8.759, "internal_energy": -0.295}

$$$$
cand_040_out
     RDKit          3D

 36 38  0  0  0  0  0  0  0  0999 V2000
  178.2600   19.7510   46.4660 C   0  0  0  0  0  0  0  0  0  0  0  0
  177.8100   21.0120   46.4830 C   0  0  0  0  0  0  0  0  0  0  0  0
  176.9420   21.5490   47.5400 C   0  0  0  0  0  0  0  0  0  0  0  0
  176.0040   20.7100   48.1590 C   0  0  0  0  0  0  0  0  0  0  0  0
  175.1880   21.1810   49.1910 C   0  0  0  0  0  0  0  0  0  0  0  0
  175.2980   22.5010   49.6430 C   0  0  0  0  0  0  0  0  0  0  0  0
  174.4090   22.9870   50.7200 C   0  0  0  0  0  0  0  0  0  0  0  0
  175.1030   23.3620   51.8650 O   0  0  0  0  0  0  0  0  0  0  0  0
  174.3990   23.8330   52.9430 C   0  0  0  0  0  0  0  0  0  0  0  0
  175.1360   24.1830   54.0760 C   0  0  0  0  0  0  0  0  0  0  0  0
  174.4800   24.6710   55.2080 C   0  0  0  0  0  0  0  0  0  0  0  0
  173.0900   24.8090   55.2080 C   0  0  0  0  0  0  0  0  0  0  0  0
  172.3590   24.4580   54.0760 C   0  0  0  0  0  0  0  0  0  0  0  0
  171.0020   24.6190   54.1440 O   0  0  0  0  0  0  0  0  0  0  0  0
  173.0150   23.9690   52.9430 C   0  0  0  0  0  0  0  0  0  0  0  0
  172.2840   23.5890   51.7340 C   0  0  0  0  0  0  0  0  0  0  0  0
  171.0610   23.6880   51.6540 O   0  0  0  0  0  0  0  0  0  0  0  0
  173.0720   23.0750   50.5900 C   0  0  0  0  0  0  0  0  0  0  0  0
  172.3740   22.7310   49.4480 O   0  0  0  0  0  0  0  0  0  0  0  0
  176.2350   23.3410   49.0240 C   0  0  0  0  0  0  0  0  0  0  0  0
  177.0630   22.8820   47.9800 C   0  0  0  0  0  0  0  0  0  0  0  0
  178.0560   23.8330   47.3690 C   0  0  0  0  0  0  0  0  0  0  0  0
  178.9078   19.4092   45.6453 H   0  0  0  0  0  0  0  0  0  0  0  0
  177.9819   19.0569   47.2727 H   0  0  0  0  0  0  0  0  0  0  0  0
  178.1059   21.6816   45.6620 H   0  0  0  0  0  0  0  0  0  0  0  0
  175.9092   19.6655   47.8272 H   0  0  0  0  0  0  0  0  0  0  0  0
  174.4514   20.5072   49.6530 H   0  0  0  0  0  0  0  0  0  0  0  0
  176.2306   24.0746   54.0769 H   0  0  0  0  0  0  0  0  0  0  0  0
  175.0590   24.9473   56.1015 H   0  0  0  0  0  0  0  0  0  0  0  0
  172.5741   25.1940   56.1000 H   0  0  0  0  0  0  0  0  0  0  0  0
  170.5950   24.8360   54.9600 H   0  0  0  0  0  0  0  0  0  0  0  0
  172.5300   23.1920   48.6470 H   0  0  0  0  0  0  0  0  0  0  0  0
  176.3259   24.3839   49.3617 H   0  0  0  0  0  0  0  0  0  0  0  0
  178.6022   24.3561   48.1678 H   0  0  0  0  0  0  0  0  0  0  0  0
  178.7671   23.2705   46.7462 H   0  0  0  0  0  0  0  0  0  0  0  0
  177.5247   24.5678   46.7462 H   0  0  0  0  0  0  0  0  0  0  0  0
  1  2  2  0
  2  3  1  0
  3  4  2  0
  4  5  1  0
  5  6  2  0
  6  7  1  0
  7  8  1  0
  8  9  1  0
  9 10  2  0
 10 11  1  0
 11 12  2  0
 12 13  1  0
 13 14  1  0
 13 15  2  0
 15 16  1  0
 16 17  2  0
 16 18  1  0
 18 19  1  0
  6 20  1  0
 20 21  2  0
 21 22  1  0
 21  3  1  0
 18  7  2  0
 15  9  1  0
  1 23  1  0
  1 24  1  0
  2 25  1  0
  4 26  1  0
  5 27  1  0
 10 28  1  0
 11 29  1  0
 12 30  1  0
 14 31  1  0
 19 32  1  0
 20 33  1  0
 22 34  1  0
 22 35  1  0
 22 36  1  0
M  END
>  <meeko>  (4) 
{"is_sidechain": [false], "free_energy": -7.349, "intermolecular_energy": -8.521, "internal_energy": -0.334}

$$$$
cand_040_out
     RDKit          3D

 36 38  0  0  0  0  0  0  0  0999 V2000
  170.9480   24.9620   50.4970 C   0  0  0  0  0  0  0  0  0  0  0  0
  171.8330   25.0260   49.4940 C   0  0  0  0  0  0  0  0  0  0  0  0
  173.2010   24.4970   49.5860 C   0  0  0  0  0  0  0  0  0  0  0  0
  173.4440   23.1490   49.2880 C   0  0  0  0  0  0  0  0  0  0  0  0
  174.7380   22.6240   49.3320 C   0  0  0  0  0  0  0  0  0  0  0  0
  175.8280   23.4370   49.6610 C   0  0  0  0  0  0  0  0  0  0  0  0
  177.1870   22.8580   49.7250 C   0  0  0  0  0  0  0  0  0  0  0  0
  177.6030   22.3210   48.5110 O   0  0  0  0  0  0  0  0  0  0  0  0
  178.8460   21.7510   48.4300 C   0  0  0  0  0  0  0  0  0  0  0  0
  179.2160   21.2110   47.1960 C   0  0  0  0  0  0  0  0  0  0  0  0
  180.4710   20.6160   47.0450 C   0  0  0  0  0  0  0  0  0  0  0  0
  181.3540   20.5600   48.1260 C   0  0  0  0  0  0  0  0  0  0  0  0
  180.9820   21.0990   49.3540 C   0  0  0  0  0  0  0  0  0  0  0  0
  181.8960   21.0110   50.3690 O   0  0  0  0  0  0  0  0  0  0  0  0
  179.7270   21.6940   49.5060 C   0  0  0  0  0  0  0  0  0  0  0  0
  179.2960   22.2720   50.7790 C   0  0  0  0  0  0  0  0  0  0  0  0
  180.0200   22.2680   51.7730 O   0  0  0  0  0  0  0  0  0  0  0  0
  177.9440   22.8720   50.8380 C   0  0  0  0  0  0  0  0  0  0  0  0
  177.5520   23.4270   52.0420 O   0  0  0  0  0  0  0  0  0  0  0  0
  175.5860   24.7860   49.9590 C   0  0  0  0  0  0  0  0  0  0  0  0
  174.2860   25.3290   49.9230 C   0  0  0  0  0  0  0  0  0  0  0  0
  174.0990   26.7880   50.2420 C   0  0  0  0  0  0  0  0  0  0  0  0
  169.9376   25.3767   50.3663 H   0  0  0  0  0  0  0  0  0  0  0  0
  171.2315   24.4947   51.4516 H   0  0  0  0  0  0  0  0  0  0  0  0
  171.5195   25.4994   48.5518 H   0  0  0  0  0  0  0  0  0  0  0  0
  172.6030   22.4945   49.0153 H   0  0  0  0  0  0  0  0  0  0  0  0
  174.9015   21.5601   49.1055 H   0  0  0  0  0  0  0  0  0  0  0  0
  178.5206   21.2542   46.3448 H   0  0  0  0  0  0  0  0  0  0  0  0
  180.7642   20.1911   46.0737 H   0  0  0  0  0  0  0  0  0  0  0  0
  182.3417   20.0907   48.0068 H   0  0  0  0  0  0  0  0  0  0  0  0
  181.6180   21.1040   51.2590 H   0  0  0  0  0  0  0  0  0  0  0  0
  176.9440   22.9720   52.5910 H   0  0  0  0  0  0  0  0  0  0  0  0
  176.4317   25.4362   50.2274 H   0  0  0  0  0  0  0  0  0  0  0  0
  174.0814   26.9254   51.3332 H   0  0  0  0  0  0  0  0  0  0  0  0
  174.9303   27.3666   49.8129 H   0  0  0  0  0  0  0  0  0  0  0  0
  173.1486   27.1383   49.8129 H   0  0  0  0  0  0  0  0  0  0  0  0
  1  2  2  0
  2  3  1  0
  3  4  2  0
  4  5  1  0
  5  6  2  0
  6  7  1  0
  7  8  1  0
  8  9  1  0
  9 10  2  0
 10 11  1  0
 11 12  2  0
 12 13  1  0
 13 14  1  0
 13 15  2  0
 15 16  1  0
 16 17  2  0
 16 18  1  0
 18 19  1  0
  6 20  1  0
 20 21  2  0
 21 22  1  0
 21  3  1  0
 18  7  2  0
 15  9  1  0
  1 23  1  0
  1 24  1  0
  2 25  1  0
  4 26  1  0
  5 27  1  0
 10 28  1  0
 11 29  1  0
 12 30  1  0
 14 31  1  0
 19 32  1  0
 20 33  1  0
 22 34  1  0
 22 35  1  0
 22 36  1  0
M  END
>  <meeko>  (5) 
{"is_sidechain": [false], "free_energy": -7.308, "intermolecular_energy": -8.529, "internal_energy": -0.278}

$$$$
cand_040_out
     RDKit          3D

 36 38  0  0  0  0  0  0  0  0999 V2000
  180.3670   18.4670   45.4160 C   0  0  0  0  0  0  0  0  0  0  0  0
  180.1750   19.7900   45.4900 C   0  0  0  0  0  0  0  0  0  0  0  0
  179.4020   20.4380   46.5590 C   0  0  0  0  0  0  0  0  0  0  0  0
  178.0610   20.0800   46.7580 C   0  0  0  0  0  0  0  0  0  0  0  0
  177.3090   20.6520   47.7880 C   0  0  0  0  0  0  0  0  0  0  0  0
  177.8810   21.5890   48.6550 C   0  0  0  0  0  0  0  0  0  0  0  0
  177.0620   22.2010   49.7230 C   0  0  0  0  0  0  0  0  0  0  0  0
  175.9700   22.9050   49.2290 O   0  0  0  0  0  0  0  0  0  0  0  0
  175.1240   23.5230   50.1130 C   0  0  0  0  0  0  0  0  0  0  0  0
  174.0500   24.2320   49.5720 C   0  0  0  0  0  0  0  0  0  0  0  0
  173.1490   24.8830   50.4180 C   0  0  0  0  0  0  0  0  0  0  0  0
  173.3230   24.8260   51.8040 C   0  0  0  0  0  0  0  0  0  0  0  0
  174.3960   24.1190   52.3390 C   0  0  0  0  0  0  0  0  0  0  0  0
  174.5050   24.1040   53.7030 O   0  0  0  0  0  0  0  0  0  0  0  0
  175.2970   23.4670   51.4930 C   0  0  0  0  0  0  0  0  0  0  0  0
  176.4370   22.7140   52.0150 C   0  0  0  0  0  0  0  0  0  0  0  0
  176.6520   22.6110   53.2210 O   0  0  0  0  0  0  0  0  0  0  0  0
  177.3380   22.0660   51.0340 C   0  0  0  0  0  0  0  0  0  0  0  0
  178.4040   21.3460   51.5380 O   0  0  0  0  0  0  0  0  0  0  0  0
  179.2220   21.9490   48.4560 C   0  0  0  0  0  0  0  0  0  0  0  0
  179.9930   21.3830   47.4200 C   0  0  0  0  0  0  0  0  0  0  0  0
  181.4290   21.8050   47.2700 C   0  0  0  0  0  0  0  0  0  0  0  0
  180.9561   18.0421   44.5899 H   0  0  0  0  0  0  0  0  0  0  0  0
  179.9356   17.8050   46.1813 H   0  0  0  0  0  0  0  0  0  0  0  0
  180.6192   20.4254   44.7096 H   0  0  0  0  0  0  0  0  0  0  0  0
  177.5939   19.3380   46.0937 H   0  0  0  0  0  0  0  0  0  0  0  0
  176.2559   20.3622   47.9183 H   0  0  0  0  0  0  0  0  0  0  0  0
  173.9135   24.2779   48.4815 H   0  0  0  0  0  0  0  0  0  0  0  0
  172.3016   25.4411   49.9932 H   0  0  0  0  0  0  0  0  0  0  0  0
  172.6136   25.3387   52.4702 H   0  0  0  0  0  0  0  0  0  0  0  0
  173.7440   24.2260   54.2360 H   0  0  0  0  0  0  0  0  0  0  0  0
  178.6940   21.4910   52.4170 H   0  0  0  0  0  0  0  0  0  0  0  0
  179.6834   22.6909   49.1244 H   0  0  0  0  0  0  0  0  0  0  0  0
  181.8783   21.9370   48.2654 H   0  0  0  0  0  0  0  0  0  0  0  0
  181.9827   21.0316   46.7175 H   0  0  0  0  0  0  0  0  0  0  0  0
  181.4762   22.7550   46.7175 H   0  0  0  0  0  0  0  0  0  0  0  0
  1  2  2  0
  2  3  1  0
  3  4  2  0
  4  5  1  0
  5  6  2  0
  6  7  1  0
  7  8  1  0
  8  9  1  0
  9 10  2  0
 10 11  1  0
 11 12  2  0
 12 13  1  0
 13 14  1  0
 13 15  2  0
 15 16  1  0
 16 17  2  0
 16 18  1  0
 18 19  1  0
  6 20  1  0
 20 21  2  0
 21 22  1  0
 21  3  1  0
 18  7  2  0
 15  9  1  0
  1 23  1  0
  1 24  1  0
  2 25  1  0
  4 26  1  0
  5 27  1  0
 10 28  1  0
 11 29  1  0
 12 30  1  0
 14 31  1  0
 19 32  1  0
 20 33  1  0
 22 34  1  0
 22 35  1  0
 22 36  1  0
M  END
>  <meeko>  (6) 
{"is_sidechain": [false], "free_energy": -7.268, "intermolecular_energy": -8.4, "internal_energy": -0.359}

$$$$
cand_040_out
     RDKit          3D

 36 38  0  0  0  0  0  0  0  0999 V2000
  175.7610   17.8070   46.2140 C   0  0  0  0  0  0  0  0  0  0  0  0
  176.5070   18.9190   46.2430 C   0  0  0  0  0  0  0  0  0  0  0  0
  176.4090   19.9320   47.3040 C   0  0  0  0  0  0  0  0  0  0  0  0
  175.2120   20.0730   48.0200 C   0  0  0  0  0  0  0  0  0  0  0  0
  175.0990   21.0030   49.0570 C   0  0  0  0  0  0  0  0  0  0  0  0
  176.1850   21.8090   49.4160 C   0  0  0  0  0  0  0  0  0  0  0  0
  176.0380   22.8030   50.4990 C   0  0  0  0  0  0  0  0  0  0  0  0
  175.5530   24.0260   50.0480 O   0  0  0  0  0  0  0  0  0  0  0  0
  175.3670   25.0400   50.9520 C   0  0  0  0  0  0  0  0  0  0  0  0
  174.8940   26.2550   50.4520 C   0  0  0  0  0  0  0  0  0  0  0  0
  174.6820   27.3280   51.3200 C   0  0  0  0  0  0  0  0  0  0  0  0
  174.9430   27.1880   52.6850 C   0  0  0  0  0  0  0  0  0  0  0  0
  175.4150   25.9750   53.1790 C   0  0  0  0  0  0  0  0  0  0  0  0
  175.6490   25.9070   54.5260 O   0  0  0  0  0  0  0  0  0  0  0  0
  175.6280   24.9010   52.3120 C   0  0  0  0  0  0  0  0  0  0  0  0
  176.1240   23.6100   52.7900 C   0  0  0  0  0  0  0  0  0  0  0  0
  176.3690   23.4070   53.9780 O   0  0  0  0  0  0  0  0  0  0  0  0
  176.3230   22.5380   51.7880 C   0  0  0  0  0  0  0  0  0  0  0  0
  176.7790   21.3190   52.2530 O   0  0  0  0  0  0  0  0  0  0  0  0
  177.3830   21.6690   48.6990 C   0  0  0  0  0  0  0  0  0  0  0  0
  177.5110   20.7380   47.6490 C   0  0  0  0  0  0  0  0  0  0  0  0
  178.8290   20.6320   46.9300 C   0  0  0  0  0  0  0  0  0  0  0  0
  175.8807   17.0857   45.3922 H   0  0  0  0  0  0  0  0  0  0  0  0
  175.0287   17.6150   47.0120 H   0  0  0  0  0  0  0  0  0  0  0  0
  177.2306   19.0828   45.4308 H   0  0  0  0  0  0  0  0  0  0  0  0
  174.3487   19.4421   47.7617 H   0  0  0  0  0  0  0  0  0  0  0  0
  174.1458   21.1025   49.5970 H   0  0  0  0  0  0  0  0  0  0  0  0
  174.6889   26.3665   49.3771 H   0  0  0  0  0  0  0  0  0  0  0  0
  174.3087   28.2856   50.9280 H   0  0  0  0  0  0  0  0  0  0  0  0
  174.7760   28.0340   53.3679 H   0  0  0  0  0  0  0  0  0  0  0  0
  175.9630   25.1110   54.9080 H   0  0  0  0  0  0  0  0  0  0  0  0
  176.2710   20.5440   52.1110 H   0  0  0  0  0  0  0  0  0  0  0  0
  178.2433   22.3015   48.9631 H   0  0  0  0  0  0  0  0  0  0  0  0
  179.6439   20.5665   47.6659 H   0  0  0  0  0  0  0  0  0  0  0  0
  178.8312   19.7308   46.2993 H   0  0  0  0  0  0  0  0  0  0  0  0
  178.9752   21.5213   46.2993 H   0  0  0  0  0  0  0  0  0  0  0  0
  1  2  2  0
  2  3  1  0
  3  4  2  0
  4  5  1  0
  5  6  2  0
  6  7  1  0
  7  8  1  0
  8  9  1  0
  9 10  2  0
 10 11  1  0
 11 12  2  0
 12 13  1  0
 13 14  1  0
 13 15  2  0
 15 16  1  0
 16 17  2  0
 16 18  1  0
 18 19  1  0
  6 20  1  0
 20 21  2  0
 21 22  1  0
 21  3  1  0
 18  7  2  0
 15  9  1  0
  1 23  1  0
  1 24  1  0
  2 25  1  0
  4 26  1  0
  5 27  1  0
 10 28  1  0
 11 29  1  0
 12 30  1  0
 14 31  1  0
 19 32  1  0
 20 33  1  0
 22 34  1  0
 22 35  1  0
 22 36  1  0
M  END
>  <meeko>  (7) 
{"is_sidechain": [false], "free_energy": -7.258, "intermolecular_energy": -8.277, "internal_energy": -0.471}

$$$$
cand_040_out
     RDKit          3D

 36 38  0  0  0  0  0  0  0  0999 V2000
  175.9660   18.8860   46.7650 C   0  0  0  0  0  0  0  0  0  0  0  0
  176.6790   19.8610   46.1870 C   0  0  0  0  0  0  0  0  0  0  0  0
  177.9430   20.3750   46.7340 C   0  0  0  0  0  0  0  0  0  0  0  0
  179.1210   19.6330   46.5670 C   0  0  0  0  0  0  0  0  0  0  0  0
  180.3450   20.1100   47.0450 C   0  0  0  0  0  0  0  0  0  0  0  0
  180.4260   21.3490   47.6900 C   0  0  0  0  0  0  0  0  0  0  0  0
  181.7260   21.8250   48.2090 C   0  0  0  0  0  0  0  0  0  0  0  0
  182.5300   22.3840   47.2220 O   0  0  0  0  0  0  0  0  0  0  0  0
  183.7650   22.8670   47.5670 C   0  0  0  0  0  0  0  0  0  0  0  0
  184.5450   23.4050   46.5410 C   0  0  0  0  0  0  0  0  0  0  0  0
  185.8130   23.9160   46.8250 C   0  0  0  0  0  0  0  0  0  0  0  0
  186.3020   23.8890   48.1330 C   0  0  0  0  0  0  0  0  0  0  0  0
  185.5220   23.3510   49.1540 C   0  0  0  0  0  0  0  0  0  0  0  0
  186.0620   23.3570   50.4110 O   0  0  0  0  0  0  0  0  0  0  0  0
  184.2530   22.8400   48.8700 C   0  0  0  0  0  0  0  0  0  0  0  0
  183.4020   22.2660   49.9130 C   0  0  0  0  0  0  0  0  0  0  0  0
  183.7590   22.2130   51.0880 O   0  0  0  0  0  0  0  0  0  0  0  0
  182.0780   21.7430   49.5060 C   0  0  0  0  0  0  0  0  0  0  0  0
  181.2760   21.2160   50.5010 O   0  0  0  0  0  0  0  0  0  0  0  0
  179.2480   22.0910   47.8570 C   0  0  0  0  0  0  0  0  0  0  0  0
  178.0060   21.6220   47.3840 C   0  0  0  0  0  0  0  0  0  0  0  0
  176.7830   22.4750   47.5870 C   0  0  0  0  0  0  0  0  0  0  0  0
  175.0266   18.5451   46.3053 H   0  0  0  0  0  0  0  0  0  0  0  0
  176.3197   18.4260   47.6995 H   0  0  0  0  0  0  0  0  0  0  0  0
  176.2987   20.3007   45.2532 H   0  0  0  0  0  0  0  0  0  0  0  0
  179.0814   18.6616   46.0525 H   0  0  0  0  0  0  0  0  0  0  0  0
  181.2540   19.5049   46.9126 H   0  0  0  0  0  0  0  0  0  0  0  0
  184.1609   23.4261   45.5105 H   0  0  0  0  0  0  0  0  0  0  0  0
  186.4277   24.3404   46.0175 H   0  0  0  0  0  0  0  0  0  0  0  0
  187.3010   24.2917   48.3564 H   0  0  0  0  0  0  0  0  0  0  0  0
  186.4030   22.5660   50.7790 H   0  0  0  0  0  0  0  0  0  0  0  0
  181.4060   20.3330   50.7890 H   0  0  0  0  0  0  0  0  0  0  0  0
  179.2944   23.0631   48.3698 H   0  0  0  0  0  0  0  0  0  0  0  0
  176.5998   22.6028   48.6641 H   0  0  0  0  0  0  0  0  0  0  0  0
  176.9414   23.4595   47.1227 H   0  0  0  0  0  0  0  0  0  0  0  0
  175.9138   21.9862   47.1227 H   0  0  0  0  0  0  0  0  0  0  0  0
  1  2  2  0
  2  3  1  0
  3  4  2  0
  4  5  1  0
  5  6  2  0
  6  7  1  0
  7  8  1  0
  8  9  1  0
  9 10  2  0
 10 11  1  0
 11 12  2  0
 12 13  1  0
 13 14  1  0
 13 15  2  0
 15 16  1  0
 16 17  2  0
 16 18  1  0
 18 19  1  0
  6 20  1  0
 20 21  2  0
 21 22  1  0
 21  3  1  0
 18  7  2  0
 15  9  1  0
  1 23  1  0
  1 24  1  0
  2 25  1  0
  4 26  1  0
  5 27  1  0
 10 28  1  0
 11 29  1  0
 12 30  1  0
 14 31  1  0
 19 32  1  0
 20 33  1  0
 22 34  1  0
 22 35  1  0
 22 36  1  0
M  END
>  <meeko>  (8) 
{"is_sidechain": [false], "free_energy": -7.167, "intermolecular_energy": -8.19, "internal_energy": -0.451}

$$$$
cand_040_out
     RDKit          3D

 36 38  0  0  0  0  0  0  0  0999 V2000
  186.0370   23.1110   48.8430 C   0  0  0  0  0  0  0  0  0  0  0  0
  185.0380   23.4310   48.0110 C   0  0  0  0  0  0  0  0  0  0  0  0
  183.6340   23.0710   48.2550 C   0  0  0  0  0  0  0  0  0  0  0  0
  183.3250   21.8230   48.8130 C   0  0  0  0  0  0  0  0  0  0  0  0
  182.0020   21.4650   49.0890 C   0  0  0  0  0  0  0  0  0  0  0  0
  180.9530   22.3520   48.8270 C   0  0  0  0  0  0  0  0  0  0  0  0
  179.5590   21.9460   49.1040 C   0  0  0  0  0  0  0  0  0  0  0  0
  178.8530   21.6180   47.9510 O   0  0  0  0  0  0  0  0  0  0  0  0
  177.5450   21.2220   48.0640 C   0  0  0  0  0  0  0  0  0  0  0  0
  176.8710   20.9190   46.8800 C   0  0  0  0  0  0  0  0  0  0  0  0
  175.5370   20.5080   46.9250 C   0  0  0  0  0  0  0  0  0  0  0  0
  174.8780   20.4000   48.1530 C   0  0  0  0  0  0  0  0  0  0  0  0
  175.5530   20.7050   49.3310 C   0  0  0  0  0  0  0  0  0  0  0  0
  174.8490   20.5770   50.4970 O   0  0  0  0  0  0  0  0  0  0  0  0
  176.8880   21.1160   49.2860 C   0  0  0  0  0  0  0  0  0  0  0  0
  177.6350   21.4460   50.5010 C   0  0  0  0  0  0  0  0  0  0  0  0
  177.1260   21.3680   51.6180 O   0  0  0  0  0  0  0  0  0  0  0  0
  179.0420   21.8790   50.3450 C   0  0  0  0  0  0  0  0  0  0  0  0
  179.7410   22.1750   51.5000 O   0  0  0  0  0  0  0  0  0  0  0  0
  181.2600   23.6010   48.2680 C   0  0  0  0  0  0  0  0  0  0  0  0
  182.5890   23.9750   47.9810 C   0  0  0  0  0  0  0  0  0  0  0  0
  182.8490   25.3360   47.3930 C   0  0  0  0  0  0  0  0  0  0  0  0
  187.0685   23.4095   48.6044 H   0  0  0  0  0  0  0  0  0  0  0  0
  185.8263   22.5496   49.7652 H   0  0  0  0  0  0  0  0  0  0  0  0
  185.2807   23.9928   47.0969 H   0  0  0  0  0  0  0  0  0  0  0  0
  184.1358   21.1143   49.0372 H   0  0  0  0  0  0  0  0  0  0  0  0
  181.7839   20.4753   49.5167 H   0  0  0  0  0  0  0  0  0  0  0  0
  177.3894   21.0037   45.9135 H   0  0  0  0  0  0  0  0  0  0  0  0
  175.0042   20.2689   45.9928 H   0  0  0  0  0  0  0  0  0  0  0  0
  173.8278   20.0745   48.1881 H   0  0  0  0  0  0  0  0  0  0  0  0
  174.8750   19.7710   50.9750 H   0  0  0  0  0  0  0  0  0  0  0  0
  180.1880   22.9950   51.5800 H   0  0  0  0  0  0  0  0  0  0  0  0
  180.4446   24.3058   48.0482 H   0  0  0  0  0  0  0  0  0  0  0  0
  182.9884   26.0655   48.2045 H   0  0  0  0  0  0  0  0  0  0  0  0
  183.7565   25.3000   46.7724 H   0  0  0  0  0  0  0  0  0  0  0  0
  181.9921   25.6371   46.7724 H   0  0  0  0  0  0  0  0  0  0  0  0
  1  2  2  0
  2  3  1  0
  3  4  2  0
  4  5  1  0
  5  6  2  0
  6  7  1  0
  7  8  1  0
  8  9  1  0
  9 10  2  0
 10 11  1  0
 11 12  2  0
 12 13  1  0
 13 14  1  0
 13 15  2  0
 15 16  1  0
 16 17  2  0
 16 18  1  0
 18 19  1  0
  6 20  1  0
 20 21  2  0
 21 22  1  0
 21  3  1  0
 18  7  2  0
 15  9  1  0
  1 23  1  0
  1 24  1  0
  2 25  1  0
  4 26  1  0
  5 27  1  0
 10 28  1  0
 11 29  1  0
 12 30  1  0
 14 31  1  0
 19 32  1  0
 20 33  1  0
 22 34  1  0
 22 35  1  0
 22 36  1  0
M  END
>  <meeko>  (9) 
{"is_sidechain": [false], "free_energy": -7.13, "intermolecular_energy": -8.177, "internal_energy": -0.42}

$$$$
