cand_050_out
     RDKit          3D

 38 40  0  0  0  0  0  0  0  0999 V2000
  181.3940   15.2710   41.4160 C   0  0  0  0  0  0  0  0  0  0  0  0
  182.0290   15.2590   42.7990 C   0  0  0  0  0  0  0  0  0  0  0  0
  181.4510   16.3320   43.6970 C   0  0  0  0  0  0  0  0  0  0  0  0
  181.9150   17.6490   43.5410 C   0  0  0  0  0  0  0  0  0  0  0  0
  181.4290   18.6830   44.3450 C   0  0  0  0  0  0  0  0  0  0  0  0
  180.4630   18.4340   45.3230 C   0  0  0  0  0  0  0  0  0  0  0  0
  179.9750   19.5400   46.1750 C   0  0  0  0  0  0  0  0  0  0  0  0
  178.5920   19.6770   46.1460 O   0  0  0  0  0  0  0  0  0  0  0  0
  178.0090   20.6680   46.8930 C   0  0  0  0  0  0  0  0  0  0  0  0
  176.6190   20.7790   46.8230 C   0  0  0  0  0  0  0  0  0  0  0  0
  175.9610   21.7660   47.5610 C   0  0  0  0  0  0  0  0  0  0  0  0
  176.6920   22.6380   48.3690 C   0  0  0  0  0  0  0  0  0  0  0  0
  178.0780   22.5250   48.4380 C   0  0  0  0  0  0  0  0  0  0  0  0
  178.7310   23.4130   49.2490 O   0  0  0  0  0  0  0  0  0  0  0  0
  178.7370   21.5380   47.6980 C   0  0  0  0  0  0  0  0  0  0  0  0
  180.1910   21.3850   47.7420 C   0  0  0  0  0  0  0  0  0  0  0  0
  180.9030   22.1100   48.4340 O   0  0  0  0  0  0  0  0  0  0  0  0
  180.7910   20.3140   46.9150 C   0  0  0  0  0  0  0  0  0  0  0  0
  182.1650   20.1670   46.9710 O   0  0  0  0  0  0  0  0  0  0  0  0
  180.0100   17.1170   45.4910 C   0  0  0  0  0  0  0  0  0  0  0  0
  180.4890   16.0560   44.6930 C   0  0  0  0  0  0  0  0  0  0  0  0
  179.9380   14.6650   44.9210 C   0  0  0  0  0  0  0  0  0  0  0  0
  179.4660   14.0700   43.7880 F   0  0  0  0  0  0  0  0  0  0  0  0
  178.8970   14.6440   45.8000 F   0  0  0  0  0  0  0  0  0  0  0  0
  180.8710   13.8080   45.4230 F   0  0  0  0  0  0  0  0  0  0  0  0
  180.2987   15.2917   41.5156 H   0  0  0  0  0  0  0  0  0  0  0  0
  181.7291   16.1630   40.8664 H   0  0  0  0  0  0  0  0  0  0  0  0
  181.6952   14.3670   40.8664 H   0  0  0  0  0  0  0  0  0  0  0  0
  181.8543   14.2764   43.2616 H   0  0  0  0  0  0  0  0  0  0  0  0
  183.1046   15.4573   42.6811 H   0  0  0  0  0  0  0  0  0  0  0  0
  182.6723   17.8693   42.7742 H   0  0  0  0  0  0  0  0  0  0  0  0
  181.8114   19.7050   44.2064 H   0  0  0  0  0  0  0  0  0  0  0  0
  176.0428   20.0903   46.1877 H   0  0  0  0  0  0  0  0  0  0  0  0
  174.8661   21.8559   47.5052 H   0  0  0  0  0  0  0  0  0  0  0  0
  176.1735   23.4141   48.9510 H   0  0  0  0  0  0  0  0  0  0  0  0
  179.0060   23.1510   50.1050 H   0  0  0  0  0  0  0  0  0  0  0  0
  182.6360   19.8800   46.2140 H   0  0  0  0  0  0  0  0  0  0  0  0
  179.2598   16.9051   46.2671 H   0  0  0  0  0  0  0  0  0  0  0  0
  1  2  1  0
  2  3  1  0
  3  4  2  0
  4  5  1  0
  5  6  2  0
  6  7  1  0
  7  8  1  0
  8  9  1  0
  9 10  2  0
 10 11  1  0
 11 12  2  0
 12 13  1  0
 13 14  1  0
 13 15  2  0
 15 16  1  0
 16 17  2  0
 16 18  1  0
 18 19  1  0
  6 20  1  0
 20 21  2  0
 21 22  1  0
 22 23  1  0
 22 24  1  0
 22 25  1  0
 21  3  1  0
 18  7  2  0
 15  9  1  0
  1 26  1  0
  1 27  1  0
  1 28  1  0
  2 29  1  0
  2 30  1  0
  4 31  1  0
  5 32  1  0
 10 33  1  0
 11 34  1  0
 12 35  1  0
 14 36  1  0
 19 37  1  0
 20 38  1  0
M  END
>  <meeko>  (1) 
{"is_sidechain": [false], "free_energy": -9.124, "intermolecular_energy": -11.258, "internal_energy": -0.48}

$$$$
cand_050_out
     RDKit          3D

 38 40  0  0  0  0  0  0  0  0999 V2000
  176.7490   23.8060   48.4950 C   0  0  0  0  0  0  0  0  0  0  0  0
  176.6620   22.4020   49.0760 C   0  0  0  0  0  0  0  0  0  0  0  0
  177.4000   21.3900   48.2270 C   0  0  0  0  0  0  0  0  0  0  0  0
  178.7990   21.4930   48.1380 C   0  0  0  0  0  0  0  0  0  0  0  0
  179.5390   20.5970   47.3630 C   0  0  0  0  0  0  0  0  0  0  0  0
  178.9050   19.5690   46.6580 C   0  0  0  0  0  0  0  0  0  0  0  0
  179.7050   18.6420   45.8300 C   0  0  0  0  0  0  0  0  0  0  0  0
  179.1890   17.3510   45.8090 O   0  0  0  0  0  0  0  0  0  0  0  0
  179.8380   16.3910   45.0760 C   0  0  0  0  0  0  0  0  0  0  0  0
  179.2950   15.1060   45.0950 C   0  0  0  0  0  0  0  0  0  0  0  0
  179.9060   14.0800   44.3680 C   0  0  0  0  0  0  0  0  0  0  0  0
  181.0570   14.3410   43.6230 C   0  0  0  0  0  0  0  0  0  0  0  0
  181.5970   15.6250   43.6060 C   0  0  0  0  0  0  0  0  0  0  0  0
  182.7260   15.8100   42.8550 O   0  0  0  0  0  0  0  0  0  0  0  0
  180.9870   16.6500   44.3340 C   0  0  0  0  0  0  0  0  0  0  0  0
  181.5220   18.0120   44.3430 C   0  0  0  0  0  0  0  0  0  0  0  0
  182.5270   18.3220   43.7070 O   0  0  0  0  0  0  0  0  0  0  0  0
  180.8050   19.0230   45.1530 C   0  0  0  0  0  0  0  0  0  0  0  0
  181.3080   20.3110   45.1460 O   0  0  0  0  0  0  0  0  0  0  0  0
  177.5080   19.4750   46.7320 C   0  0  0  0  0  0  0  0  0  0  0  0
  176.7400   20.3710   47.5070 C   0  0  0  0  0  0  0  0  0  0  0  0
  175.2370   20.1930   47.5520 C   0  0  0  0  0  0  0  0  0  0  0  0
  174.7900   19.1280   46.8270 F   0  0  0  0  0  0  0  0  0  0  0  0
  174.5600   21.2710   47.0640 F   0  0  0  0  0  0  0  0  0  0  0  0
  174.7710   19.9970   48.8170 F   0  0  0  0  0  0  0  0  0  0  0  0
  176.7944   24.5394   49.3136 H   0  0  0  0  0  0  0  0  0  0  0  0
  177.6541   23.8911   47.8757 H   0  0  0  0  0  0  0  0  0  0  0  0
  175.8613   24.0022   47.8757 H   0  0  0  0  0  0  0  0  0  0  0  0
  177.1013   22.4072   50.0845 H   0  0  0  0  0  0  0  0  0  0  0  0
  175.6014   22.1117   49.1053 H   0  0  0  0  0  0  0  0  0  0  0  0
  179.3191   22.2916   48.6872 H   0  0  0  0  0  0  0  0  0  0  0  0
  180.6326   20.7011   47.3066 H   0  0  0  0  0  0  0  0  0  0  0  0
  178.3873   14.9004   45.6813 H   0  0  0  0  0  0  0  0  0  0  0  0
  179.4793   13.0663   44.3832 H   0  0  0  0  0  0  0  0  0  0  0  0
  181.5371   13.5340   43.0501 H   0  0  0  0  0  0  0  0  0  0  0  0
  183.0750   16.6710   42.7390 H   0  0  0  0  0  0  0  0  0  0  0  0
  181.0650   20.9120   45.8220 H   0  0  0  0  0  0  0  0  0  0  0  0
  176.9956   18.6802   46.1700 H   0  0  0  0  0  0  0  0  0  0  0  0
  1  2  1  0
  2  3  1  0
  3  4  2  0
  4  5  1  0
  5  6  2  0
  6  7  1  0
  7  8  1  0
  8  9  1  0
  9 10  2  0
 10 11  1  0
 11 12  2  0
 12 13  1  0
 13 14  1  0
 13 15  2  0
 15 16  1  0
 16 17  2  0
 16 18  1  0
 18 19  1  0
  6 20  1  0
 20 21  2  0
 21 22  1  0
 22 23  1  0
 22 24  1  0
 22 25  1  0
 21  3  1  0
 18  7  2  0
 15  9  1  0
  1 26  1  0
  1 27  1  0
  1 28  1  0
  2 29  1  0
  2 30  1  0
  4 31  1  0
  5 32  1  0
 10 33  1  0
 11 34  1  0
 12 35  1  0
 14 36  1  0
 19 37  1  0
 20 38  1  0
M  END
>  <meeko>  (2) 
{"is_sidechain": [false], "free_energy": -7.975, "intermolecular_energy": -10.083, "internal_energy": -0.238}

$$$$
cand_050_out
     RDKit          3D

 38 40  0  0  0  0  0  0  0  0999 V2000
  181.6280   15.4950   41.9340 C   0  0  0  0  0  0  0  0  0  0  0  0
  182.1470   15.8230   43.3260 C   0  0  0  0  0  0  0  0  0  0  0  0
  181.1890   16.7090   44.0940 C   0  0  0  0  0  0  0  0  0  0  0  0
  181.3660   18.1010   44.0160 C   0  0  0  0  0  0  0  0  0  0  0  0
  180.5220   18.9730   44.7080 C   0  0  0  0  0  0  0  0  0  0  0  0
  179.4760   18.4820   45.4940 C   0  0  0  0  0  0  0  0  0  0  0  0
  178.6060   19.4210   46.2330 C   0  0  0  0  0  0  0  0  0  0  0  0
  179.2410   20.6190   46.5420 O   0  0  0  0  0  0  0  0  0  0  0  0
  178.5440   21.5800   47.2290 C   0  0  0  0  0  0  0  0  0  0  0  0
  179.2240   22.7600   47.5320 C   0  0  0  0  0  0  0  0  0  0  0  0
  178.5720   23.7810   48.2270 C   0  0  0  0  0  0  0  0  0  0  0  0
  177.2410   23.6220   48.6170 C   0  0  0  0  0  0  0  0  0  0  0  0
  176.5650   22.4440   48.3130 C   0  0  0  0  0  0  0  0  0  0  0  0
  175.2630   22.3550   48.7260 O   0  0  0  0  0  0  0  0  0  0  0  0
  177.2180   21.4210   47.6190 C   0  0  0  0  0  0  0  0  0  0  0  0
  176.5430   20.1680   47.2800 C   0  0  0  0  0  0  0  0  0  0  0  0
  175.3710   19.9550   47.5830 O   0  0  0  0  0  0  0  0  0  0  0  0
  177.3270   19.1460   46.5490 C   0  0  0  0  0  0  0  0  0  0  0  0
  176.6790   17.9690   46.2210 O   0  0  0  0  0  0  0  0  0  0  0  0
  179.3080   17.0920   45.5860 C   0  0  0  0  0  0  0  0  0  0  0  0
  180.1500   16.1920   44.8970 C   0  0  0  0  0  0  0  0  0  0  0  0
  179.8950   14.7060   45.0310 C   0  0  0  0  0  0  0  0  0  0  0  0
  180.9730   14.0050   45.4880 F   0  0  0  0  0  0  0  0  0  0  0  0
  179.5560   14.1170   43.8500 F   0  0  0  0  0  0  0  0  0  0  0  0
  178.8810   14.4250   45.8970 F   0  0  0  0  0  0  0  0  0  0  0  0
  180.7008   14.9090   42.0170 H   0  0  0  0  0  0  0  0  0  0  0  0
  181.4242   16.4286   41.3893 H   0  0  0  0  0  0  0  0  0  0  0  0
  182.3838   14.9102   41.3893 H   0  0  0  0  0  0  0  0  0  0  0  0
  182.2873   14.8849   43.8830 H   0  0  0  0  0  0  0  0  0  0  0  0
  183.0974   16.3657   43.2153 H   0  0  0  0  0  0  0  0  0  0  0  0
  182.1812   18.5100   43.4010 H   0  0  0  0  0  0  0  0  0  0  0  0
  180.6826   20.0586   44.6333 H   0  0  0  0  0  0  0  0  0  0  0  0
  180.2724   22.8860   47.2239 H   0  0  0  0  0  0  0  0  0  0  0  0
  179.1077   24.7112   48.4673 H   0  0  0  0  0  0  0  0  0  0  0  0
  176.7273   24.4265   49.1637 H   0  0  0  0  0  0  0  0  0  0  0  0
  174.7210   23.1180   48.7360 H   0  0  0  0  0  0  0  0  0  0  0  0
  176.3030   17.4380   46.8950 H   0  0  0  0  0  0  0  0  0  0  0  0
  178.4973   16.6921   46.2127 H   0  0  0  0  0  0  0  0  0  0  0  0
  1  2  1  0
  2  3  1  0
  3  4  2  0
  4  5  1  0
  5  6  2  0
  6  7  1  0
  7  8  1  0
  8  9  1  0
  9 10  2  0
 10 11  1  0
 11 12  2  0
 12 13  1  0
 13 14  1  0
 13 15  2  0
 15 16  1  0
 16 17  2  0
 16 18  1  0
 18 19  1  0
  6 20  1  0
 20 21  2  0
 21 22  1  0
 22 23  1  0
 22 24  1  0
 22 25  1  0
 21  3  1  0
 18  7  2  0
 15  9  1  0
  1 26  1  0
  1 27  1  0
  1 28  1  0
  2 29  1  0
  2 30  1  0
  4 31  1  0
  5 32  1  0
 10 33  1  0
 11 34  1  0
 12 35  1  0
 14 36  1  0
 19 37  1  0
 20 38  1  0
M  END
>  <meeko>  (3) 
{"is_sidechain": [false], "free_energy": -7.328, "intermolecular_energy": -9.361, "internal_energy": -0.161}

$$$$
cand_050_out
     RDKit          3D

 38 40  0  0  0  0  0  0  0  0999 V2000
  175.1510   21.4990   49.7120 C   0  0  0  0  0  0  0  0  0  0  0  0
  175.7480   22.2280   48.5170 C   0  0  0  0  0  0  0  0  0  0  0  0
  176.7430   21.3690   47.7680 C   0  0  0  0  0  0  0  0  0  0  0  0
  176.3900   20.0370   47.4870 C   0  0  0  0  0  0  0  0  0  0  0  0
  177.2660   19.1880   46.8070 C   0  0  0  0  0  0  0  0  0  0  0  0
  178.5180   19.6440   46.3830 C   0  0  0  0  0  0  0  0  0  0  0  0
  179.4370   18.7240   45.6810 C   0  0  0  0  0  0  0  0  0  0  0  0
  178.9970   17.4050   45.6910 O   0  0  0  0  0  0  0  0  0  0  0  0
  179.7590   16.4480   45.0730 C   0  0  0  0  0  0  0  0  0  0  0  0
  179.2880   15.1350   45.1200 C   0  0  0  0  0  0  0  0  0  0  0  0
  180.0150   14.1110   44.5090 C   0  0  0  0  0  0  0  0  0  0  0  0
  181.2110   14.4000   43.8500 C   0  0  0  0  0  0  0  0  0  0  0  0
  181.6800   15.7100   43.8050 C   0  0  0  0  0  0  0  0  0  0  0  0
  182.8590   15.9220   43.1440 O   0  0  0  0  0  0  0  0  0  0  0  0
  180.9530   16.7350   44.4180 C   0  0  0  0  0  0  0  0  0  0  0  0
  181.4100   18.1250   44.3930 C   0  0  0  0  0  0  0  0  0  0  0  0
  182.4490   18.4600   43.8290 O   0  0  0  0  0  0  0  0  0  0  0  0
  180.5700   19.1330   45.0790 C   0  0  0  0  0  0  0  0  0  0  0  0
  181.0010   20.4460   45.0410 O   0  0  0  0  0  0  0  0  0  0  0  0
  178.8780   20.9680   46.6760 C   0  0  0  0  0  0  0  0  0  0  0  0
  178.0100   21.8420   47.3640 C   0  0  0  0  0  0  0  0  0  0  0  0
  178.4620   23.2620   47.6280 C   0  0  0  0  0  0  0  0  0  0  0  0
  177.5900   24.2080   47.1730 F   0  0  0  0  0  0  0  0  0  0  0  0
  179.6540   23.5580   47.0360 F   0  0  0  0  0  0  0  0  0  0  0  0
  178.6260   23.5230   48.9550 F   0  0  0  0  0  0  0  0  0  0  0  0
  175.5231   21.9534   50.6421 H   0  0  0  0  0  0  0  0  0  0  0  0
  174.0543   21.5774   49.6789 H   0  0  0  0  0  0  0  0  0  0  0  0
  175.4440   20.4393   49.6789 H   0  0  0  0  0  0  0  0  0  0  0  0
  174.9356   22.5104   47.8312 H   0  0  0  0  0  0  0  0  0  0  0  0
  176.2794   23.1154   48.8913 H   0  0  0  0  0  0  0  0  0  0  0  0
  175.4085   19.6579   47.8078 H   0  0  0  0  0  0  0  0  0  0  0  0
  176.9677   18.1491   46.6027 H   0  0  0  0  0  0  0  0  0  0  0  0
  178.3448   14.9069   45.6380 H   0  0  0  0  0  0  0  0  0  0  0  0
  179.6448   13.0759   44.5471 H   0  0  0  0  0  0  0  0  0  0  0  0
  181.7823   13.5937   43.3668 H   0  0  0  0  0  0  0  0  0  0  0  0
  183.4190   16.6280   43.3990 H   0  0  0  0  0  0  0  0  0  0  0  0
  180.6410   21.0390   44.4110 H   0  0  0  0  0  0  0  0  0  0  0  0
  179.8656   21.3353   46.3602 H   0  0  0  0  0  0  0  0  0  0  0  0
  1  2  1  0
  2  3  1  0
  3  4  2  0
  4  5  1  0
  5  6  2  0
  6  7  1  0
  7  8  1  0
  8  9  1  0
  9 10  2  0
 10 11  1  0
 11 12  2  0
 12 13  1  0
 13 14  1  0
 13 15  2  0
 15 16  1  0
 16 17  2  0
 16 18  1  0
 18 19  1  0
  6 20  1  0
 20 21  2  0
 21 22  1  0
 22 23  1  0
 22 24  1  0
 22 25  1  0
 21  3  1  0
 18  7  2  0
 15  9  1  0
  1 26  1  0
  1 27  1  0
  1 28  1  0
  2 29  1  0
  2 30  1  0
  4 31  1  0
  5 32  1  0
 10 33  1  0
 11 34  1  0
 12 35  1  0
 14 36  1  0
 19 37  1  0
 20 38  1  0
M  END
>  <meeko>  (4) 
{"is_sidechain": [false], "free_energy": -7.028, "intermolecular_energy": -9.125, "internal_energy": -0.027}

$$$$
