cand_036_out
     RDKit          3D

 35 37  0  0  0  0  0  0  0  0999 V2000
  181.9910   15.0510   42.7620 C   0  0  0  0  0  0  0  0  0  0  0  0
  181.3100   16.0460   43.6600 C   0  0  0  0  0  0  0  0  0  0  0  0
  181.6250   17.4070   43.5420 C   0  0  0  0  0  0  0  0  0  0  0  0
  181.0120   18.3590   44.3600 C   0  0  0  0  0  0  0  0  0  0  0  0
  180.0740   17.9760   45.3240 C   0  0  0  0  0  0  0  0  0  0  0  0
  179.3920   18.9670   46.1840 C   0  0  0  0  0  0  0  0  0  0  0  0
  178.0090   18.8350   46.1670 O   0  0  0  0  0  0  0  0  0  0  0  0
  177.2500   19.6920   46.9220 C   0  0  0  0  0  0  0  0  0  0  0  0
  175.8650   19.5330   46.8630 C   0  0  0  0  0  0  0  0  0  0  0  0
  175.0350   20.3730   47.6100 C   0  0  0  0  0  0  0  0  0  0  0  0
  175.5900   21.3690   48.4160 C   0  0  0  0  0  0  0  0  0  0  0  0
  176.9730   21.5250   48.4730 C   0  0  0  0  0  0  0  0  0  0  0  0
  177.4490   22.5200   49.2820 O   0  0  0  0  0  0  0  0  0  0  0  0
  177.8030   20.6860   47.7250 C   0  0  0  0  0  0  0  0  0  0  0  0
  179.2610   20.8160   47.7560 C   0  0  0  0  0  0  0  0  0  0  0  0
  179.8230   21.6640   48.4450 O   0  0  0  0  0  0  0  0  0  0  0  0
  180.0500   19.8820   46.9200 C   0  0  0  0  0  0  0  0  0  0  0  0
  181.4250   20.0050   46.9680 O   0  0  0  0  0  0  0  0  0  0  0  0
  179.7530   16.6140   45.4350 C   0  0  0  0  0  0  0  0  0  0  0  0
  180.3590   15.6440   44.6180 C   0  0  0  0  0  0  0  0  0  0  0  0
  179.9810   14.1980   44.7880 C   0  0  0  0  0  0  0  0  0  0  0  0
  182.5070   14.2971   43.3747 H   0  0  0  0  0  0  0  0  0  0  0  0
  181.2410   14.5567   42.1271 H   0  0  0  0  0  0  0  0  0  0  0  0
  182.7233   15.5712   42.1271 H   0  0  0  0  0  0  0  0  0  0  0  0
  182.3651   17.7296   42.7949 H   0  0  0  0  0  0  0  0  0  0  0  0
  181.2700   19.4221   44.2446 H   0  0  0  0  0  0  0  0  0  0  0  0
  175.4272   18.7476   46.2294 H   0  0  0  0  0  0  0  0  0  0  0  0
  173.9430   20.2495   47.5630 H   0  0  0  0  0  0  0  0  0  0  0  0
  174.9363   22.0292   49.0049 H   0  0  0  0  0  0  0  0  0  0  0  0
  178.3650   22.5690   49.4750 H   0  0  0  0  0  0  0  0  0  0  0  0
  181.8550   20.1520   47.7880 H   0  0  0  0  0  0  0  0  0  0  0  0
  179.0083   16.2978   46.1803 H   0  0  0  0  0  0  0  0  0  0  0  0
  179.9185   13.9589   45.8599 H   0  0  0  0  0  0  0  0  0  0  0  0
  179.0051   14.0160   44.3142 H   0  0  0  0  0  0  0  0  0  0  0  0
  180.7430   13.5617   44.3142 H   0  0  0  0  0  0  0  0  0  0  0  0
  1  2  1  0
  2  3  2  0
  3  4  1  0
  4  5  2  0
  5  6  1  0
  6  7  1  0
  7  8  1  0
  8  9  2  0
  9 10  1  0
 10 11  2  0
 11 12  1  0
 12 13  1  0
 12 14  2  0
 14 15  1  0
 15 16  2  0
 15 17  1  0
 17 18  1  0
  5 19  1  0
 19 20  2  0
 20 21  1  0
 20  2  1  0
 17  6  2  0
 14  8  1  0
  1 22  1  0
  1 23  1  0
  1 24  1  0
  3 25  1  0
  4 26  1  0
  9 27  1  0
 10 28  1  0
 11 29  1  0
 13 30  1  0
 18 31  1  0
 19 32  1  0
 21 33  1  0
 21 34  1  0
 21 35  1  0
M  END
>  <meeko>  (1) 
{"is_sidechain": [false], "free_energy": -7.705, "intermolecular_energy": -8.605, "internal_energy": -0.106}

$$$$
cand_036_out
     RDKit          3D

 35 37  0  0  0  0  0  0  0  0999 V2000
  171.7710   24.8800   49.4770 C   0  0  0  0  0  0  0  0  0  0  0  0
  173.1740   24.3460   49.5610 C   0  0  0  0  0  0  0  0  0  0  0  0
  173.4070   22.9860   49.3190 C   0  0  0  0  0  0  0  0  0  0  0  0
  174.6980   22.4550   49.3890 C   0  0  0  0  0  0  0  0  0  0  0  0
  175.7890   23.2690   49.7100 C   0  0  0  0  0  0  0  0  0  0  0  0
  177.1670   22.7380   49.7640 C   0  0  0  0  0  0  0  0  0  0  0  0
  177.5890   22.2090   48.5500 O   0  0  0  0  0  0  0  0  0  0  0  0
  178.8520   21.6800   48.4590 C   0  0  0  0  0  0  0  0  0  0  0  0
  179.2290   21.1460   47.2260 C   0  0  0  0  0  0  0  0  0  0  0  0
  180.5020   20.5940   47.0660 C   0  0  0  0  0  0  0  0  0  0  0  0
  181.3970   20.5770   48.1370 C   0  0  0  0  0  0  0  0  0  0  0  0
  181.0190   21.1120   49.3660 C   0  0  0  0  0  0  0  0  0  0  0  0
  181.9440   21.0620   50.3730 O   0  0  0  0  0  0  0  0  0  0  0  0
  179.7450   21.6630   49.5270 C   0  0  0  0  0  0  0  0  0  0  0  0
  179.3070   22.2340   50.8010 C   0  0  0  0  0  0  0  0  0  0  0  0
  180.0400   22.2610   51.7880 O   0  0  0  0  0  0  0  0  0  0  0  0
  177.9340   22.7860   50.8690 C   0  0  0  0  0  0  0  0  0  0  0  0
  177.5360   23.3340   52.0740 O   0  0  0  0  0  0  0  0  0  0  0  0
  175.5550   24.6340   49.9420 C   0  0  0  0  0  0  0  0  0  0  0  0
  174.2620   25.1830   49.8730 C   0  0  0  0  0  0  0  0  0  0  0  0
  174.0710   26.6510   50.1400 C   0  0  0  0  0  0  0  0  0  0  0  0
  171.3747   25.0308   50.4920 H   0  0  0  0  0  0  0  0  0  0  0  0
  171.7754   25.8393   48.9388 H   0  0  0  0  0  0  0  0  0  0  0  0
  171.1364   24.1605   48.9388 H   0  0  0  0  0  0  0  0  0  0  0  0
  172.5622   22.3268   49.0704 H   0  0  0  0  0  0  0  0  0  0  0  0
  174.8577   21.3851   49.1894 H   0  0  0  0  0  0  0  0  0  0  0  0
  178.5246   21.1598   46.3813 H   0  0  0  0  0  0  0  0  0  0  0  0
  180.7996   20.1721   46.0947 H   0  0  0  0  0  0  0  0  0  0  0  0
  182.3993   20.1417   48.0105 H   0  0  0  0  0  0  0  0  0  0  0  0
  182.7910   20.6950   50.2130 H   0  0  0  0  0  0  0  0  0  0  0  0
  177.1430   22.7920   52.7280 H   0  0  0  0  0  0  0  0  0  0  0  0
  176.4041   25.2902   50.1837 H   0  0  0  0  0  0  0  0  0  0  0  0
  174.0482   26.8263   51.2257 H   0  0  0  0  0  0  0  0  0  0  0  0
  174.9032   27.2160   49.6948 H   0  0  0  0  0  0  0  0  0  0  0  0
  173.1219   26.9842   49.6948 H   0  0  0  0  0  0  0  0  0  0  0  0
  1  2  1  0
  2  3  2  0
  3  4  1  0
  4  5  2  0
  5  6  1  0
  6  7  1  0
  7  8  1  0
  8  9  2  0
  9 10  1  0
 10 11  2  0
 11 12  1  0
 12 13  1  0
 12 14  2  0
 14 15  1  0
 15 16  2  0
 15 17  1  0
 17 18  1  0
  5 19  1  0
 19 20  2  0
 20 21  1  0
 20  2  1  0
 17  6  2  0
 14  8  1  0
  1 22  1  0
  1 23  1  0
  1 24  1  0
  3 25  1  0
  4 26  1  0
  9 27  1  0
 10 28  1  0
 11 29  1  0
 13 30  1  0
 18 31  1  0
 19 32  1  0
 21 33  1  0
 21 34  1  0
 21 35  1  0
M  END
>  <meeko>  (2) 
{"is_sidechain": [false], "free_energy": -7.483, "intermolecular_energy": -8.304, "internal_energy": -0.16}

$$$$
cand_036_out
     RDKit          3D

 35 37  0  0  0  0  0  0  0  0999 V2000
  172.3760   24.6150   49.8640 C   0  0  0  0  0  0  0  0  0  0  0  0
  173.7340   24.0160   49.6230 C   0  0  0  0  0  0  0  0  0  0  0  0
  173.8320   22.6870   49.1890 C   0  0  0  0  0  0  0  0  0  0  0  0
  175.0760   22.0980   48.9560 C   0  0  0  0  0  0  0  0  0  0  0  0
  176.2580   22.8190   49.1560 C   0  0  0  0  0  0  0  0  0  0  0  0
  177.5860   22.2270   48.8910 C   0  0  0  0  0  0  0  0  0  0  0  0
  177.7190   21.7620   47.5880 O   0  0  0  0  0  0  0  0  0  0  0  0
  178.9050   21.1880   47.2050 C   0  0  0  0  0  0  0  0  0  0  0  0
  178.9890   20.7220   45.8930 C   0  0  0  0  0  0  0  0  0  0  0  0
  180.1690   20.1280   45.4390 C   0  0  0  0  0  0  0  0  0  0  0  0
  181.2640   20.0020   46.2960 C   0  0  0  0  0  0  0  0  0  0  0  0
  181.1770   20.4680   47.6060 C   0  0  0  0  0  0  0  0  0  0  0  0
  182.2850   20.3120   48.3920 O   0  0  0  0  0  0  0  0  0  0  0  0
  179.9950   21.0610   48.0600 C   0  0  0  0  0  0  0  0  0  0  0  0
  179.8620   21.5640   49.4280 C   0  0  0  0  0  0  0  0  0  0  0  0
  180.7830   21.4940   50.2390 O   0  0  0  0  0  0  0  0  0  0  0  0
  178.5650   22.1680   49.8120 C   0  0  0  0  0  0  0  0  0  0  0  0
  178.4550   22.6510   51.1030 O   0  0  0  0  0  0  0  0  0  0  0  0
  176.1580   24.1530   49.5810 C   0  0  0  0  0  0  0  0  0  0  0  0
  174.9130   24.7610   49.8190 C   0  0  0  0  0  0  0  0  0  0  0  0
  174.8680   26.1910   50.2820 C   0  0  0  0  0  0  0  0  0  0  0  0
  172.1969   24.6940   50.9464 H   0  0  0  0  0  0  0  0  0  0  0  0
  172.3313   25.6164   49.4109 H   0  0  0  0  0  0  0  0  0  0  0  0
  171.6064   23.9729   49.4109 H   0  0  0  0  0  0  0  0  0  0  0  0
  172.9157   22.0997   49.0297 H   0  0  0  0  0  0  0  0  0  0  0  0
  175.1274   21.0547   48.6111 H   0  0  0  0  0  0  0  0  0  0  0  0
  178.1272   20.8221   45.2167 H   0  0  0  0  0  0  0  0  0  0  0  0
  180.2356   19.7590   44.4049 H   0  0  0  0  0  0  0  0  0  0  0  0
  182.1936   19.5357   45.9375 H   0  0  0  0  0  0  0  0  0  0  0  0
  182.5990   21.0290   48.9070 H   0  0  0  0  0  0  0  0  0  0  0  0
  178.1290   22.0970   51.7840 H   0  0  0  0  0  0  0  0  0  0  0  0
  177.0774   24.7377   49.7317 H   0  0  0  0  0  0  0  0  0  0  0  0
  174.8671   26.2205   51.3816 H   0  0  0  0  0  0  0  0  0  0  0  0
  175.7497   26.7275   49.9015 H   0  0  0  0  0  0  0  0  0  0  0  0
  173.9543   26.6710   49.9015 H   0  0  0  0  0  0  0  0  0  0  0  0
  1  2  1  0
  2  3  2  0
  3  4  1  0
  4  5  2  0
  5  6  1  0
  6  7  1  0
  7  8  1  0
  8  9  2  0
  9 10  1  0
 10 11  2  0
 11 12  1  0
 12 13  1  0
 12 14  2  0
 14 15  1  0
 15 16  2  0
 15 17  1  0
 17 18  1  0
  5 19  1  0
 19 20  2  0
 20 21  1  0
 20  2  1  0
 17  6  2  0
 14  8  1  0
  1 22  1  0
  1 23  1  0
  1 24  1  0
  3 25  1  0
  4 26  1  0
  9 27  1  0
 10 28  1  0
 11 29  1  0
 13 30  1  0
 18 31  1  0
 19 32  1  0
 21 33  1  0
 21 34  1  0
 21 35  1  0
M  END
>  <meeko>  (3) 
{"is_sidechain": [false], "free_energy": -7.323, "intermolecular_energy": -8.162, "internal_energy": -0.123}

$$$$
cand_036_out
     RDKit          3D

 35 37  0  0  0  0  0  0  0  0999 V2000
  185.0440   23.4690   48.0010 C   0  0  0  0  0  0  0  0  0  0  0  0
  183.6150   23.0780   48.2580 C   0  0  0  0  0  0  0  0  0  0  0  0
  183.3340   21.8200   48.8080 C   0  0  0  0  0  0  0  0  0  0  0  0
  182.0190   21.4240   49.0600 C   0  0  0  0  0  0  0  0  0  0  0  0
  180.9470   22.2720   48.7620 C   0  0  0  0  0  0  0  0  0  0  0  0
  179.5480   21.8880   49.0440 C   0  0  0  0  0  0  0  0  0  0  0  0
  178.8420   21.5420   47.8970 O   0  0  0  0  0  0  0  0  0  0  0  0
  177.5290   21.1640   48.0140 C   0  0  0  0  0  0  0  0  0  0  0  0
  176.8550   20.8400   46.8360 C   0  0  0  0  0  0  0  0  0  0  0  0
  175.5160   20.4450   46.8860 C   0  0  0  0  0  0  0  0  0  0  0  0
  174.8530   20.3730   48.1120 C   0  0  0  0  0  0  0  0  0  0  0  0
  175.5280   20.6970   49.2870 C   0  0  0  0  0  0  0  0  0  0  0  0
  174.8180   20.6050   50.4530 O   0  0  0  0  0  0  0  0  0  0  0  0
  176.8670   21.0930   49.2360 C   0  0  0  0  0  0  0  0  0  0  0  0
  177.6140   21.4420   50.4460 C   0  0  0  0  0  0  0  0  0  0  0  0
  177.1010   21.3970   51.5620 O   0  0  0  0  0  0  0  0  0  0  0  0
  179.0260   21.8570   50.2840 C   0  0  0  0  0  0  0  0  0  0  0  0
  179.7250   22.1710   51.4340 O   0  0  0  0  0  0  0  0  0  0  0  0
  181.2310   23.5360   48.2200 C   0  0  0  0  0  0  0  0  0  0  0  0
  182.5490   23.9500   47.9620 C   0  0  0  0  0  0  0  0  0  0  0  0
  182.7910   25.3120   47.3730 C   0  0  0  0  0  0  0  0  0  0  0  0
  185.5634   23.6111   48.9602 H   0  0  0  0  0  0  0  0  0  0  0  0
  185.5440   22.6747   47.4274 H   0  0  0  0  0  0  0  0  0  0  0  0
  185.0699   24.4073   47.4274 H   0  0  0  0  0  0  0  0  0  0  0  0
  184.1613   21.1347   49.0446 H   0  0  0  0  0  0  0  0  0  0  0  0
  181.8237   20.4340   49.4978 H   0  0  0  0  0  0  0  0  0  0  0  0
  177.3772   20.8955   45.8695 H   0  0  0  0  0  0  0  0  0  0  0  0
  174.9835   20.1904   45.9578 H   0  0  0  0  0  0  0  0  0  0  0  0
  173.7989   20.0609   48.1506 H   0  0  0  0  0  0  0  0  0  0  0  0
  174.5800   19.7650   50.7920 H   0  0  0  0  0  0  0  0  0  0  0  0
  180.3740   22.8480   51.4180 H   0  0  0  0  0  0  0  0  0  0  0  0
  180.4002   24.2198   47.9915 H   0  0  0  0  0  0  0  0  0  0  0  0
  182.9211   26.0442   48.1836 H   0  0  0  0  0  0  0  0  0  0  0  0
  183.6988   25.2870   46.7523 H   0  0  0  0  0  0  0  0  0  0  0  0
  181.9302   25.6013   46.7523 H   0  0  0  0  0  0  0  0  0  0  0  0
  1  2  1  0
  2  3  2  0
  3  4  1  0
  4  5  2  0
  5  6  1  0
  6  7  1  0
  7  8  1  0
  8  9  2  0
  9 10  1  0
 10 11  2  0
 11 12  1  0
 12 13  1  0
 12 14  2  0
 14 15  1  0
 15 16  2  0
 15 17  1  0
 17 18  1  0
  5 19  1  0
 19 20  2  0
 20 21  1  0
 20  2  1  0
 17  6  2  0
 14  8  1  0
  1 22  1  0
  1 23  1  0
  1 24  1  0
  3 25  1  0
  4 26  1  0
  9 27  1  0
 10 28  1  0
 11 29  1  0
 13 30  1  0
 18 31  1  0
 19 32  1  0
 21 33  1  0
 21 34  1  0
 21 35  1  0
M  END
>  <meeko>  (4) 
{"is_sidechain": [false], "free_energy": -7.26, "intermolecular_energy": -7.939, "internal_energy": -0.276}

$$$$
cand_036_out
     RDKit          3D

 35 37  0  0  0  0  0  0  0  0999 V2000
  181.4720   20.8200   45.9520 C   0  0  0  0  0  0  0  0  0  0  0  0
  180.4350   21.2260   46.9640 C   0  0  0  0  0  0  0  0  0  0  0  0
  180.6710   22.3400   47.7800 C   0  0  0  0  0  0  0  0  0  0  0  0
  179.7310   22.7450   48.7300 C   0  0  0  0  0  0  0  0  0  0  0  0
  178.5330   22.0430   48.8960 C   0  0  0  0  0  0  0  0  0  0  0  0
  177.5100   22.4670   49.8750 C   0  0  0  0  0  0  0  0  0  0  0  0
  176.3920   23.0340   49.2760 O   0  0  0  0  0  0  0  0  0  0  0  0
  175.3630   23.4720   50.0710 C   0  0  0  0  0  0  0  0  0  0  0  0
  174.2670   24.0490   49.4290 C   0  0  0  0  0  0  0  0  0  0  0  0
  173.1850   24.5140   50.1800 C   0  0  0  0  0  0  0  0  0  0  0  0
  173.1990   24.4010   51.5710 C   0  0  0  0  0  0  0  0  0  0  0  0
  174.2940   23.8250   52.2100 C   0  0  0  0  0  0  0  0  0  0  0  0
  174.2430   23.7460   53.5750 O   0  0  0  0  0  0  0  0  0  0  0  0
  175.3770   23.3610   51.4580 C   0  0  0  0  0  0  0  0  0  0  0  0
  176.5480   22.7490   52.0890 C   0  0  0  0  0  0  0  0  0  0  0  0
  176.6310   22.6100   53.3080 O   0  0  0  0  0  0  0  0  0  0  0  0
  177.6460   22.2970   51.2040 C   0  0  0  0  0  0  0  0  0  0  0  0
  178.7400   21.7090   51.8090 O   0  0  0  0  0  0  0  0  0  0  0  0
  178.2940   20.9330   48.0700 C   0  0  0  0  0  0  0  0  0  0  0  0
  179.2290   20.5130   47.1080 C   0  0  0  0  0  0  0  0  0  0  0  0
  178.9220   19.3110   46.2580 C   0  0  0  0  0  0  0  0  0  0  0  0
  182.3741   20.4668   46.4729 H   0  0  0  0  0  0  0  0  0  0  0  0
  181.0725   20.0119   45.3216 H   0  0  0  0  0  0  0  0  0  0  0  0
  181.7274   21.6845   45.3216 H   0  0  0  0  0  0  0  0  0  0  0  0
  181.6095   22.9033   47.6709 H   0  0  0  0  0  0  0  0  0  0  0  0
  179.9353   23.6267   49.3552 H   0  0  0  0  0  0  0  0  0  0  0  0
  174.2550   24.1376   48.3326 H   0  0  0  0  0  0  0  0  0  0  0  0
  172.3209   24.9698   49.6745 H   0  0  0  0  0  0  0  0  0  0  0  0
  172.3461   24.7665   52.1618 H   0  0  0  0  0  0  0  0  0  0  0  0
  173.6170   23.1850   53.9880 H   0  0  0  0  0  0  0  0  0  0  0  0
  178.6500   20.8800   52.2370 H   0  0  0  0  0  0  0  0  0  0  0  0
  177.3507   20.3777   48.1785 H   0  0  0  0  0  0  0  0  0  0  0  0
  178.7021   18.4500   46.9063 H   0  0  0  0  0  0  0  0  0  0  0  0
  178.0495   19.5242   45.6230 H   0  0  0  0  0  0  0  0  0  0  0  0
  179.7899   19.0796   45.6230 H   0  0  0  0  0  0  0  0  0  0  0  0
  1  2  1  0
  2  3  2  0
  3  4  1  0
  4  5  2  0
  5  6  1  0
  6  7  1  0
  7  8  1  0
  8  9  2  0
  9 10  1  0
 10 11  2  0
 11 12  1  0
 12 13  1  0
 12 14  2  0
 14 15  1  0
 15 16  2  0
 15 17  1  0
 17 18  1  0
  5 19  1  0
 19 20  2  0
 20 21  1  0
 20  2  1  0
 17  6  2  0
 14  8  1  0
  1 22  1  0
  1 23  1  0
  1 24  1  0
  3 25  1  0
  4 26  1  0
  9 27  1  0
 10 28  1  0
 11 29  1  0
 13 30  1  0
 18 31  1  0
 19 32  1  0
 21 33  1  0
 21 34  1  0
 21 35  1  0
M  END
>  <meeko>  (5) 
{"is_sidechain": [false], "free_energy": -7.21, "intermolecular_energy": -7.877, "internal_energy": -0.282}

$$$$
cand_036_out
     RDKit          3D

 35 37  0  0  0  0  0  0  0  0999 V2000
  177.6650   20.7900   46.2310 C   0  0  0  0  0  0  0  0  0  0  0  0
  176.8200   21.3110   47.3610 C   0  0  0  0  0  0  0  0  0  0  0  0
  176.9410   22.6520   47.7490 C   0  0  0  0  0  0  0  0  0  0  0  0
  176.1720   23.1690   48.7940 C   0  0  0  0  0  0  0  0  0  0  0  0
  175.2670   22.3580   49.4850 C   0  0  0  0  0  0  0  0  0  0  0  0
  174.4220   22.8880   50.5760 C   0  0  0  0  0  0  0  0  0  0  0  0
  175.1520   23.2120   51.7140 O   0  0  0  0  0  0  0  0  0  0  0  0
  174.4910   23.7160   52.8050 C   0  0  0  0  0  0  0  0  0  0  0  0
  175.2610   24.0140   53.9310 C   0  0  0  0  0  0  0  0  0  0  0  0
  174.6500   24.5320   55.0750 C   0  0  0  0  0  0  0  0  0  0  0  0
  173.2710   24.7520   55.0940 C   0  0  0  0  0  0  0  0  0  0  0  0
  172.5050   24.4540   53.9690 C   0  0  0  0  0  0  0  0  0  0  0  0
  171.1610   24.6930   54.0550 O   0  0  0  0  0  0  0  0  0  0  0  0
  173.1170   23.9350   52.8240 C   0  0  0  0  0  0  0  0  0  0  0  0
  172.3490   23.6070   51.6220 C   0  0  0  0  0  0  0  0  0  0  0  0
  171.1340   23.7790   51.5590 O   0  0  0  0  0  0  0  0  0  0  0  0
  173.0910   23.0550   50.4650 C   0  0  0  0  0  0  0  0  0  0  0  0
  172.3580   22.7620   49.3310 O   0  0  0  0  0  0  0  0  0  0  0  0
  175.1390   21.0170   49.0880 C   0  0  0  0  0  0  0  0  0  0  0  0
  175.9040   20.4820   48.0370 C   0  0  0  0  0  0  0  0  0  0  0  0
  175.7300   19.0360   47.6630 C   0  0  0  0  0  0  0  0  0  0  0  0
  178.5342   20.2541   46.6400 H   0  0  0  0  0  0  0  0  0  0  0  0
  177.0680   20.1029   45.6133 H   0  0  0  0  0  0  0  0  0  0  0  0
  178.0108   21.6320   45.6133 H   0  0  0  0  0  0  0  0  0  0  0  0
  177.6516   23.3067   47.2232 H   0  0  0  0  0  0  0  0  0  0  0  0
  176.2797   24.2266   49.0766 H   0  0  0  0  0  0  0  0  0  0  0  0
  176.3472   23.8410   53.9170 H   0  0  0  0  0  0  0  0  0  0  0  0
  175.2559   24.7671   55.9625 H   0  0  0  0  0  0  0  0  0  0  0  0
  172.7905   25.1598   55.9955 H   0  0  0  0  0  0  0  0  0  0  0  0
  170.6950   24.4680   54.8360 H   0  0  0  0  0  0  0  0  0  0  0  0
  171.8000   23.4130   48.9530 H   0  0  0  0  0  0  0  0  0  0  0  0
  174.4218   20.3688   49.6129 H   0  0  0  0  0  0  0  0  0  0  0  0
  175.6567   18.4273   48.5763 H   0  0  0  0  0  0  0  0  0  0  0  0
  174.8113   18.9188   47.0695 H   0  0  0  0  0  0  0  0  0  0  0  0
  176.5947   18.7041   47.0695 H   0  0  0  0  0  0  0  0  0  0  0  0
  1  2  1  0
  2  3  2  0
  3  4  1  0
  4  5  2  0
  5  6  1  0
  6  7  1  0
  7  8  1  0
  8  9  2  0
  9 10  1  0
 10 11  2  0
 11 12  1  0
 12 13  1  0
 12 14  2  0
 14 15  1  0
 15 16  2  0
 15 17  1  0
 17 18  1  0
  5 19  1  0
 19 20  2  0
 20 21  1  0
 20  2  1  0
 17  6  2  0
 14  8  1  0
  1 22  1  0
  1 23  1  0
  1 24  1  0
  3 25  1  0
  4 26  1  0
  9 27  1  0
 10 28  1  0
 11 29  1  0
 13 30  1  0
 18 31  1  0
 19 32  1  0
 21 33  1  0
 21 34  1  0
 21 35  1  0
M  END
>  <meeko>  (6) 
{"is_sidechain": [false], "free_energy": -7.203, "intermolecular_energy": -7.925, "internal_energy": -0.227}

$$$$
cand_036_out
     RDKit          3D

 35 37  0  0  0  0  0  0  0  0999 V2000
  176.5380   18.6800   46.2810 C   0  0  0  0  0  0  0  0  0  0  0  0
  176.4050   19.7300   47.3490 C   0  0  0  0  0  0  0  0  0  0  0  0
  175.3180   19.6800   48.2320 C   0  0  0  0  0  0  0  0  0  0  0  0
  175.1630   20.6400   49.2350 C   0  0  0  0  0  0  0  0  0  0  0  0
  176.0870   21.6790   49.3790 C   0  0  0  0  0  0  0  0  0  0  0  0
  175.9610   22.6910   50.4500 C   0  0  0  0  0  0  0  0  0  0  0  0
  175.4750   23.9080   49.9870 O   0  0  0  0  0  0  0  0  0  0  0  0
  175.3080   24.9390   50.8760 C   0  0  0  0  0  0  0  0  0  0  0  0
  174.8330   26.1470   50.3660 C   0  0  0  0  0  0  0  0  0  0  0  0
  174.6380   27.2360   51.2190 C   0  0  0  0  0  0  0  0  0  0  0  0
  174.9190   27.1160   52.5810 C   0  0  0  0  0  0  0  0  0  0  0  0
  175.3940   25.9080   53.0890 C   0  0  0  0  0  0  0  0  0  0  0  0
  175.6490   25.8600   54.4320 O   0  0  0  0  0  0  0  0  0  0  0  0
  175.5890   24.8200   52.2340 C   0  0  0  0  0  0  0  0  0  0  0  0
  176.0860   23.5340   52.7260 C   0  0  0  0  0  0  0  0  0  0  0  0
  176.3500   23.3490   53.9120 O   0  0  0  0  0  0  0  0  0  0  0  0
  176.2660   22.4450   51.7370 C   0  0  0  0  0  0  0  0  0  0  0  0
  176.7230   21.2320   52.2150 O   0  0  0  0  0  0  0  0  0  0  0  0
  177.1810   21.7220   48.5010 C   0  0  0  0  0  0  0  0  0  0  0  0
  177.3520   20.7630   47.4870 C   0  0  0  0  0  0  0  0  0  0  0  0
  178.5400   20.8660   46.5690 C   0  0  0  0  0  0  0  0  0  0  0  0
  176.6630   17.6931   46.7506 H   0  0  0  0  0  0  0  0  0  0  0  0
  175.6331   18.6765   45.6555 H   0  0  0  0  0  0  0  0  0  0  0  0
  177.4152   18.9022   45.6555 H   0  0  0  0  0  0  0  0  0  0  0  0
  174.5764   18.8735   48.1340 H   0  0  0  0  0  0  0  0  0  0  0  0
  174.3040   20.5776   49.9193 H   0  0  0  0  0  0  0  0  0  0  0  0
  174.6120   26.2423   49.2926 H   0  0  0  0  0  0  0  0  0  0  0  0
  174.2628   28.1887   50.8171 H   0  0  0  0  0  0  0  0  0  0  0  0
  174.7658   27.9736   53.2526 H   0  0  0  0  0  0  0  0  0  0  0  0
  175.9360   26.6300   54.8820 H   0  0  0  0  0  0  0  0  0  0  0  0
  176.5910   21.0030   53.1140 H   0  0  0  0  0  0  0  0  0  0  0  0
  177.9236   22.5264   48.6088 H   0  0  0  0  0  0  0  0  0  0  0  0
  179.4597   20.9457   47.1671 H   0  0  0  0  0  0  0  0  0  0  0  0
  178.5919   19.9690   45.9344 H   0  0  0  0  0  0  0  0  0  0  0  0
  178.4367   21.7586   45.9344 H   0  0  0  0  0  0  0  0  0  0  0  0
  1  2  1  0
  2  3  2  0
  3  4  1  0
  4  5  2  0
  5  6  1  0
  6  7  1  0
  7  8  1  0
  8  9  2  0
  9 10  1  0
 10 11  2  0
 11 12  1  0
 12 13  1  0
 12 14  2  0
 14 15  1  0
 15 16  2  0
 15 17  1  0
 17 18  1  0
  5 19  1  0
 19 20  2  0
 20 21  1  0
 20  2  1  0
 17  6  2  0
 14  8  1  0
  1 22  1  0
  1 23  1  0
  1 24  1  0
  3 25  1  0
  4 26  1  0
  9 27  1  0
 10 28  1  0
 11 29  1  0
 13 30  1  0
 18 31  1  0
 19 32  1  0
 21 33  1  0
 21 34  1  0
 21 35  1  0
M  END
>  <meeko>  (7) 
{"is_sidechain": [false], "free_energy": -7.128, "intermolecular_energy": -7.779, "internal_energy": -0.289}

$$$$
cand_036_out
     RDKit          3D

 35 37  0  0  0  0  0  0  0  0999 V2000
  175.3510   26.9410   53.0590 C   0  0  0  0  0  0  0  0  0  0  0  0
  175.5400   25.8140   52.0820 C   0  0  0  0  0  0  0  0  0  0  0  0
  176.1400   24.6230   52.5130 C   0  0  0  0  0  0  0  0  0  0  0  0
  176.3320   23.5560   51.6320 C   0  0  0  0  0  0  0  0  0  0  0  0
  175.9360   23.6530   50.2950 C   0  0  0  0  0  0  0  0  0  0  0  0
  176.1030   22.5290   49.3490 C   0  0  0  0  0  0  0  0  0  0  0  0
  177.4210   22.3600   48.9410 O   0  0  0  0  0  0  0  0  0  0  0  0
  177.7190   21.3500   48.0610 C   0  0  0  0  0  0  0  0  0  0  0  0
  179.0510   21.2260   47.6660 C   0  0  0  0  0  0  0  0  0  0  0  0
  179.4220   20.2170   46.7740 C   0  0  0  0  0  0  0  0  0  0  0  0
  178.4610   19.3330   46.2780 C   0  0  0  0  0  0  0  0  0  0  0  0
  177.1320   19.4590   46.6740 C   0  0  0  0  0  0  0  0  0  0  0  0
  176.2430   18.5610   46.1510 O   0  0  0  0  0  0  0  0  0  0  0  0
  176.7610   20.4690   47.5660 C   0  0  0  0  0  0  0  0  0  0  0  0
  175.3760   20.6370   48.0080 C   0  0  0  0  0  0  0  0  0  0  0  0
  174.4750   19.8950   47.6210 O   0  0  0  0  0  0  0  0  0  0  0  0
  175.0860   21.7440   48.9490 C   0  0  0  0  0  0  0  0  0  0  0  0
  173.7770   21.8850   49.3690 O   0  0  0  0  0  0  0  0  0  0  0  0
  175.3260   24.8430   49.8670 C   0  0  0  0  0  0  0  0  0  0  0  0
  175.1240   25.9250   50.7410 C   0  0  0  0  0  0  0  0  0  0  0  0
  174.4730   27.1790   50.2230 C   0  0  0  0  0  0  0  0  0  0  0  0
  175.4164   26.5512   54.0855 H   0  0  0  0  0  0  0  0  0  0  0  0
  176.1350   27.6967   52.9031 H   0  0  0  0  0  0  0  0  0  0  0  0
  174.3634   27.3996   52.9031 H   0  0  0  0  0  0  0  0  0  0  0  0
  176.4643   24.5271   53.5597 H   0  0  0  0  0  0  0  0  0  0  0  0
  176.8001   22.6290   51.9946 H   0  0  0  0  0  0  0  0  0  0  0  0
  179.8083   21.9218   48.0564 H   0  0  0  0  0  0  0  0  0  0  0  0
  180.4722   20.1185   46.4618 H   0  0  0  0  0  0  0  0  0  0  0  0
  178.7536   18.5386   45.5757 H   0  0  0  0  0  0  0  0  0  0  0  0
  175.5900   18.8480   45.5430 H   0  0  0  0  0  0  0  0  0  0  0  0
  173.3340   21.1630   49.7710 H   0  0  0  0  0  0  0  0  0  0  0  0
  174.9978   24.9307   48.8208 H   0  0  0  0  0  0  0  0  0  0  0  0
  174.1499   27.8014   51.0705 H   0  0  0  0  0  0  0  0  0  0  0  0
  175.1938   27.7399   49.6099 H   0  0  0  0  0  0  0  0  0  0  0  0
  173.5995   26.9123   49.6099 H   0  0  0  0  0  0  0  0  0  0  0  0
  1  2  1  0
  2  3  2  0
  3  4  1  0
  4  5  2  0
  5  6  1  0
  6  7  1  0
  7  8  1  0
  8  9  2  0
  9 10  1  0
 10 11  2  0
 11 12  1  0
 12 13  1  0
 12 14  2  0
 14 15  1  0
 15 16  2  0
 15 17  1  0
 17 18  1  0
  5 19  1  0
 19 20  2  0
 20 21  1  0
 20  2  1  0
 17  6  2  0
 14  8  1  0
  1 22  1  0
  1 23  1  0
  1 24  1  0
  3 25  1  0
  4 26  1  0
  9 27  1  0
 10 28  1  0
 11 29  1  0
 13 30  1  0
 18 31  1  0
 19 32  1  0
 21 33  1  0
 21 34  1  0
 21 35  1  0
M  END
>  <meeko>  (8) 
{"is_sidechain": [false], "free_energy": -7.102, "intermolecular_energy": -7.765, "internal_energy": -0.274}

$$$$
cand_036_out
     RDKit          3D

 35 37  0  0  0  0  0  0  0  0999 V2000
  172.2530   26.0460   52.7710 C   0  0  0  0  0  0  0  0  0  0  0  0
  173.0850   25.2420   51.8100 C   0  0  0  0  0  0  0  0  0  0  0  0
  174.1020   24.4150   52.3070 C   0  0  0  0  0  0  0  0  0  0  0  0
  174.8940   23.6550   51.4430 C   0  0  0  0  0  0  0  0  0  0  0  0
  174.6960   23.7050   50.0600 C   0  0  0  0  0  0  0  0  0  0  0  0
  175.5020   22.8900   49.1270 C   0  0  0  0  0  0  0  0  0  0  0  0
  174.9240   21.6570   48.8500 O   0  0  0  0  0  0  0  0  0  0  0  0
  175.5680   20.7980   47.9960 C   0  0  0  0  0  0  0  0  0  0  0  0
  174.9600   19.5650   47.7580 C   0  0  0  0  0  0  0  0  0  0  0  0
  175.5630   18.6450   46.8970 C   0  0  0  0  0  0  0  0  0  0  0  0
  176.7730   18.9580   46.2750 C   0  0  0  0  0  0  0  0  0  0  0  0
  177.3780   20.1900   46.5140 C   0  0  0  0  0  0  0  0  0  0  0  0
  178.5620   20.4320   45.8720 O   0  0  0  0  0  0  0  0  0  0  0  0
  176.7750   21.1100   47.3760 C   0  0  0  0  0  0  0  0  0  0  0  0
  177.3770   22.4150   47.6550 C   0  0  0  0  0  0  0  0  0  0  0  0
  178.4370   22.7650   47.1400 O   0  0  0  0  0  0  0  0  0  0  0  0
  176.6610   23.3140   48.5900 C   0  0  0  0  0  0  0  0  0  0  0  0
  177.2320   24.5480   48.8350 O   0  0  0  0  0  0  0  0  0  0  0  0
  173.6700   24.5260   49.5650 C   0  0  0  0  0  0  0  0  0  0  0  0
  172.8630   25.2960   50.4210 C   0  0  0  0  0  0  0  0  0  0  0  0
  171.7840   26.1640   49.8330 C   0  0  0  0  0  0  0  0  0  0  0  0
  172.5267   25.7815   53.8031 H   0  0  0  0  0  0  0  0  0  0  0  0
  172.4360   27.1181   52.6064 H   0  0  0  0  0  0  0  0  0  0  0  0
  171.1878   25.8264   52.6064 H   0  0  0  0  0  0  0  0  0  0  0  0
  174.2787   24.3639   53.3915 H   0  0  0  0  0  0  0  0  0  0  0  0
  175.6831   23.0093   51.8559 H   0  0  0  0  0  0  0  0  0  0  0  0
  174.0067   19.3176   48.2479 H   0  0  0  0  0  0  0  0  0  0  0  0
  175.0839   17.6728   46.7089 H   0  0  0  0  0  0  0  0  0  0  0  0
  177.2479   18.2332   45.5974 H   0  0  0  0  0  0  0  0  0  0  0  0
  179.3370   20.6040   46.3680 H   0  0  0  0  0  0  0  0  0  0  0  0
  176.7570   25.3320   48.6390 H   0  0  0  0  0  0  0  0  0  0  0  0
  173.4931   24.5678   48.4801 H   0  0  0  0  0  0  0  0  0  0  0  0
  171.2052   26.6296   50.6443 H   0  0  0  0  0  0  0  0  0  0  0  0
  172.2419   26.9483   49.2124 H   0  0  0  0  0  0  0  0  0  0  0  0
  171.1160   25.5487   49.2124 H   0  0  0  0  0  0  0  0  0  0  0  0
  1  2  1  0
  2  3  2  0
  3  4  1  0
  4  5  2  0
  5  6  1  0
  6  7  1  0
  7  8  1  0
  8  9  2  0
  9 10  1  0
 10 11  2  0
 11 12  1  0
 12 13  1  0
 12 14  2  0
 14 15  1  0
 15 16  2  0
 15 17  1  0
 17 18  1  0
  5 19  1  0
 19 20  2  0
 20 21  1  0
 20  2  1  0
 17  6  2  0
 14  8  1  0
  1 22  1  0
  1 23  1  0
  1 24  1  0
  3 25  1  0
  4 26  1  0
  9 27  1  0
 10 28  1  0
 11 29  1  0
 13 30  1  0
 18 31  1  0
 19 32  1  0
 21 33  1  0
 21 34  1  0
 21 35  1  0
M  END
>  <meeko>  (9) 
{"is_sidechain": [false], "free_energy": -7.065, "intermolecular_energy": -7.671, "internal_energy": -0.326}

$$$$
