cand_012_out
     RDKit          3D

 40 42  0  0  0  0  0  0  0  0999 V2000
  182.6820   14.9920   42.5390 C   0  0  0  0  0  0  0  0  0  0  0  0
  181.2500   15.2980   42.6040 N   0  0  0  0  0  0  0  0  0  0  0  0
  180.6040   15.4230   41.2930 C   0  0  0  0  0  0  0  0  0  0  0  0
  180.9470   16.3820   43.4490 C   0  0  0  0  0  0  0  0  0  0  0  0
  181.3140   17.6980   43.1250 C   0  0  0  0  0  0  0  0  0  0  0  0
  181.0000   18.7690   43.9680 C   0  0  0  0  0  0  0  0  0  0  0  0
  180.3000   18.5590   45.1580 C   0  0  0  0  0  0  0  0  0  0  0  0
  179.9770   19.6670   46.0810 C   0  0  0  0  0  0  0  0  0  0  0  0
  178.6200   19.9660   46.1140 O   0  0  0  0  0  0  0  0  0  0  0  0
  178.1820   20.9780   46.9280 C   0  0  0  0  0  0  0  0  0  0  0  0
  176.8100   21.2350   46.9380 C   0  0  0  0  0  0  0  0  0  0  0  0
  176.2990   22.2540   47.7450 C   0  0  0  0  0  0  0  0  0  0  0  0
  177.1580   23.0150   48.5410 C   0  0  0  0  0  0  0  0  0  0  0  0
  178.5260   22.7560   48.5280 C   0  0  0  0  0  0  0  0  0  0  0  0
  179.3100   23.5400   49.3310 O   0  0  0  0  0  0  0  0  0  0  0  0
  179.0370   21.7370   47.7210 C   0  0  0  0  0  0  0  0  0  0  0  0
  180.4680   21.4320   47.6780 C   0  0  0  0  0  0  0  0  0  0  0  0
  181.2890   22.0610   48.3440 O   0  0  0  0  0  0  0  0  0  0  0  0
  180.9080   20.3290   46.7940 C   0  0  0  0  0  0  0  0  0  0  0  0
  182.2640   20.0590   46.7480 O   0  0  0  0  0  0  0  0  0  0  0  0
  179.9380   17.2450   45.4890 C   0  0  0  0  0  0  0  0  0  0  0  0
  180.2480   16.1540   44.6480 C   0  0  0  0  0  0  0  0  0  0  0  0
  179.8330   14.7600   45.0490 C   0  0  0  0  0  0  0  0  0  0  0  0
  179.2080   14.0660   44.0550 F   0  0  0  0  0  0  0  0  0  0  0  0
  178.9400   14.7560   46.0890 F   0  0  0  0  0  0  0  0  0  0  0  0
  180.8670   13.9810   45.4790 F   0  0  0  0  0  0  0  0  0  0  0  0
  183.0852   14.9058   43.5588 H   0  0  0  0  0  0  0  0  0  0  0  0
  182.8301   14.0419   42.0047 H   0  0  0  0  0  0  0  0  0  0  0  0
  183.2054   15.7986   42.0047 H   0  0  0  0  0  0  0  0  0  0  0  0
  179.5325   15.6303   41.4305 H   0  0  0  0  0  0  0  0  0  0  0  0
  181.0682   16.2480   40.7327 H   0  0  0  0  0  0  0  0  0  0  0  0
  180.7269   14.4844   40.7327 H   0  0  0  0  0  0  0  0  0  0  0  0
  181.8594   17.8906   42.1894 H   0  0  0  0  0  0  0  0  0  0  0  0
  181.3078   19.7880   43.6906 H   0  0  0  0  0  0  0  0  0  0  0  0
  176.1326   20.6361   46.3115 H   0  0  0  0  0  0  0  0  0  0  0  0
  175.2180   22.4575   47.7537 H   0  0  0  0  0  0  0  0  0  0  0  0
  176.7548   23.8171   49.1767 H   0  0  0  0  0  0  0  0  0  0  0  0
  180.1870   23.7460   49.0720 H   0  0  0  0  0  0  0  0  0  0  0  0
  182.6560   19.5180   47.4050 H   0  0  0  0  0  0  0  0  0  0  0  0
  179.3980   17.0594   46.4292 H   0  0  0  0  0  0  0  0  0  0  0  0
  1  2  1  0
  2  3  1  0
  2  4  1  0
  4  5  2  0
  5  6  1  0
  6  7  2  0
  7  8  1  0
  8  9  1  0
  9 10  1  0
 10 11  2  0
 11 12  1  0
 12 13  2  0
 13 14  1  0
 14 15  1  0
 14 16  2  0
 16 17  1  0
 17 18  2  0
 17 19  1  0
 19 20  1  0
  7 21  1  0
 21 22  2  0
 22 23  1  0
 23 24  1  0
 23 25  1  0
 23 26  1  0
 22  4  1  0
 19  8  2  0
 16 10  1  0
  1 27  1  0
  1 28  1  0
  1 29  1  0
  3 30  1  0
  3 31  1  0
  3 32  1  0
  5 33  1  0
  6 34  1  0
 11 35  1  0
 12 36  1  0
 13 37  1  0
 15 38  1  0
 20 39  1  0
 21 40  1  0
M  END
>  <meeko>  (1) 
{"is_sidechain": [false], "free_energy": -7.926, "intermolecular_energy": -9.779, "internal_energy": -0.503}

$$$$
cand_012_out
     RDKit          3D

 40 42  0  0  0  0  0  0  0  0999 V2000
  176.8860   23.5740   48.7670 C   0  0  0  0  0  0  0  0  0  0  0  0
  176.4340   22.1800   48.8000 N   0  0  0  0  0  0  0  0  0  0  0  0
  176.1710   21.6680   50.1490 C   0  0  0  0  0  0  0  0  0  0  0  0
  177.2480   21.3090   48.0520 C   0  0  0  0  0  0  0  0  0  0  0  0
  178.6490   21.3970   48.0820 C   0  0  0  0  0  0  0  0  0  0  0  0
  179.4490   20.5210   47.3420 C   0  0  0  0  0  0  0  0  0  0  0  0
  178.8720   19.5220   46.5540 C   0  0  0  0  0  0  0  0  0  0  0  0
  179.6900   18.5980   45.7400 C   0  0  0  0  0  0  0  0  0  0  0  0
  179.2060   17.2950   45.7500 O   0  0  0  0  0  0  0  0  0  0  0  0
  179.8740   16.3330   45.0370 C   0  0  0  0  0  0  0  0  0  0  0  0
  179.3450   15.0420   45.0650 C   0  0  0  0  0  0  0  0  0  0  0  0
  179.9780   14.0150   44.3600 C   0  0  0  0  0  0  0  0  0  0  0  0
  181.1380   14.2800   43.6290 C   0  0  0  0  0  0  0  0  0  0  0  0
  181.6630   15.5690   43.6030 C   0  0  0  0  0  0  0  0  0  0  0  0
  182.8010   15.7570   42.8670 O   0  0  0  0  0  0  0  0  0  0  0  0
  181.0290   16.5960   44.3070 C   0  0  0  0  0  0  0  0  0  0  0  0
  181.5480   17.9640   44.3070 C   0  0  0  0  0  0  0  0  0  0  0  0
  182.5670   18.2750   43.6930 O   0  0  0  0  0  0  0  0  0  0  0  0
  180.8000   18.9810   45.0810 C   0  0  0  0  0  0  0  0  0  0  0  0
  181.3070   20.2680   45.0880 O   0  0  0  0  0  0  0  0  0  0  0  0
  177.4720   19.4350   46.5150 C   0  0  0  0  0  0  0  0  0  0  0  0
  176.6530   20.3130   47.2580 C   0  0  0  0  0  0  0  0  0  0  0  0
  175.1520   20.1750   47.1830 C   0  0  0  0  0  0  0  0  0  0  0  0
  174.5500   20.0650   48.4020 F   0  0  0  0  0  0  0  0  0  0  0  0
  174.7600   19.0540   46.4990 F   0  0  0  0  0  0  0  0  0  0  0  0
  174.5370   21.2070   46.5360 F   0  0  0  0  0  0  0  0  0  0  0  0
  177.0063   23.9449   49.7956 H   0  0  0  0  0  0  0  0  0  0  0  0
  177.8498   23.6346   48.2403 H   0  0  0  0  0  0  0  0  0  0  0  0
  176.1411   24.1886   48.2403 H   0  0  0  0  0  0  0  0  0  0  0  0
  176.5411   22.3885   50.8933 H   0  0  0  0  0  0  0  0  0  0  0  0
  175.0884   21.5261   50.2827 H   0  0  0  0  0  0  0  0  0  0  0  0
  176.6862   20.7054   50.2827 H   0  0  0  0  0  0  0  0  0  0  0  0
  179.1270   22.1710   48.7004 H   0  0  0  0  0  0  0  0  0  0  0  0
  180.5439   20.6194   47.3806 H   0  0  0  0  0  0  0  0  0  0  0  0
  178.4314   14.8332   45.6410 H   0  0  0  0  0  0  0  0  0  0  0  0
  179.5622   12.9968   44.3808 H   0  0  0  0  0  0  0  0  0  0  0  0
  181.6363   13.4712   43.0744 H   0  0  0  0  0  0  0  0  0  0  0  0
  183.4130   16.4230   43.1130 H   0  0  0  0  0  0  0  0  0  0  0  0
  181.4270   20.7190   45.9000 H   0  0  0  0  0  0  0  0  0  0  0  0
  177.0004   18.6628   45.8894 H   0  0  0  0  0  0  0  0  0  0  0  0
  1  2  1  0
  2  3  1  0
  2  4  1  0
  4  5  2  0
  5  6  1  0
  6  7  2  0
  7  8  1  0
  8  9  1  0
  9 10  1  0
 10 11  2  0
 11 12  1  0
 12 13  2  0
 13 14  1  0
 14 15  1  0
 14 16  2  0
 16 17  1  0
 17 18  2  0
 17 19  1  0
 19 20  1  0
  7 21  1  0
 21 22  2  0
 22 23  1  0
 23 24  1  0
 23 25  1  0
 23 26  1  0
 22  4  1  0
 19  8  2  0
 16 10  1  0
  1 27  1  0
  1 28  1  0
  1 29  1  0
  3 30  1  0
  3 31  1  0
  3 32  1  0
  5 33  1  0
  6 34  1  0
 11 35  1  0
 12 36  1  0
 13 37  1  0
 15 38  1  0
 20 39  1  0
 21 40  1  0
M  END
>  <meeko>  (2) 
{"is_sidechain": [false], "free_energy": -6.979, "intermolecular_energy": -9.271, "internal_energy": 0.157}

$$$$
cand_012_out
     RDKit          3D

 40 42  0  0  0  0  0  0  0  0999 V2000
  175.8520   21.8210   50.0310 C   0  0  0  0  0  0  0  0  0  0  0  0
  175.8870   22.0910   48.5910 N   0  0  0  0  0  0  0  0  0  0  0  0
  174.5630   22.1990   47.9690 C   0  0  0  0  0  0  0  0  0  0  0  0
  176.7370   21.2230   47.8790 C   0  0  0  0  0  0  0  0  0  0  0  0
  176.3770   19.8940   47.6060 C   0  0  0  0  0  0  0  0  0  0  0  0
  177.2250   19.0430   46.8910 C   0  0  0  0  0  0  0  0  0  0  0  0
  178.4570   19.4980   46.4170 C   0  0  0  0  0  0  0  0  0  0  0  0
  179.3860   18.6130   45.6810 C   0  0  0  0  0  0  0  0  0  0  0  0
  178.9950   17.2790   45.7060 O   0  0  0  0  0  0  0  0  0  0  0  0
  179.7710   16.3480   45.0630 C   0  0  0  0  0  0  0  0  0  0  0  0
  179.3340   15.0230   45.1040 C   0  0  0  0  0  0  0  0  0  0  0  0
  180.0790   14.0260   44.4700 C   0  0  0  0  0  0  0  0  0  0  0  0
  181.2570   14.3530   43.7970 C   0  0  0  0  0  0  0  0  0  0  0  0
  181.6900   15.6760   43.7580 C   0  0  0  0  0  0  0  0  0  0  0  0
  182.8530   15.9250   43.0820 O   0  0  0  0  0  0  0  0  0  0  0  0
  180.9450   16.6740   44.3910 C   0  0  0  0  0  0  0  0  0  0  0  0
  181.3640   18.0760   44.3760 C   0  0  0  0  0  0  0  0  0  0  0  0
  182.3930   18.4420   43.8100 O   0  0  0  0  0  0  0  0  0  0  0  0
  180.5020   19.0570   45.0730 C   0  0  0  0  0  0  0  0  0  0  0  0
  180.9150   20.3770   45.0660 O   0  0  0  0  0  0  0  0  0  0  0  0
  178.8250   20.8220   46.6940 C   0  0  0  0  0  0  0  0  0  0  0  0
  177.9790   21.6930   47.4150 C   0  0  0  0  0  0  0  0  0  0  0  0
  178.4200   23.1100   47.6830 C   0  0  0  0  0  0  0  0  0  0  0  0
  177.5190   24.0520   47.2790 F   0  0  0  0  0  0  0  0  0  0  0  0
  179.5780   23.4340   47.0260 F   0  0  0  0  0  0  0  0  0  0  0  0
  178.6870   23.3640   48.9970 F   0  0  0  0  0  0  0  0  0  0  0  0
  175.9742   22.7640   50.5839 H   0  0  0  0  0  0  0  0  0  0  0  0
  174.8871   21.3636   50.2950 H   0  0  0  0  0  0  0  0  0  0  0  0
  176.6685   21.1327   50.2950 H   0  0  0  0  0  0  0  0  0  0  0  0
  173.7937   22.2618   48.7527 H   0  0  0  0  0  0  0  0  0  0  0  0
  174.5242   23.1033   47.3439 H   0  0  0  0  0  0  0  0  0  0  0  0
  174.3782   21.3129   47.3439 H   0  0  0  0  0  0  0  0  0  0  0  0
  175.4079   19.5144   47.9619 H   0  0  0  0  0  0  0  0  0  0  0  0
  176.9184   18.0040   46.6998 H   0  0  0  0  0  0  0  0  0  0  0  0
  178.4054   14.7647   45.6342 H   0  0  0  0  0  0  0  0  0  0  0  0
  179.7365   12.9811   44.5012 H   0  0  0  0  0  0  0  0  0  0  0  0
  181.8427   13.5668   43.2980 H   0  0  0  0  0  0  0  0  0  0  0  0
  183.1580   15.3200   42.4350 H   0  0  0  0  0  0  0  0  0  0  0  0
  180.8180   20.8930   44.2900 H   0  0  0  0  0  0  0  0  0  0  0  0
  179.7986   21.1923   46.3404 H   0  0  0  0  0  0  0  0  0  0  0  0
  1  2  1  0
  2  3  1  0
  2  4  1  0
  4  5  2  0
  5  6  1  0
  6  7  2  0
  7  8  1  0
  8  9  1  0
  9 10  1  0
 10 11  2  0
 11 12  1  0
 12 13  2  0
 13 14  1  0
 14 15  1  0
 14 16  2  0
 16 17  1  0
 17 18  2  0
 17 19  1  0
 19 20  1  0
  7 21  1  0
 21 22  2  0
 22 23  1  0
 23 24  1  0
 23 25  1  0
 23 26  1  0
 22  4  1  0
 19  8  2  0
 16 10  1  0
  1 27  1  0
  1 28  1  0
  1 29  1  0
  3 30  1  0
  3 31  1  0
  3 32  1  0
  5 33  1  0
  6 34  1  0
 11 35  1  0
 12 36  1  0
 13 37  1  0
 15 38  1  0
 20 39  1  0
 21 40  1  0
M  END
>  <meeko>  (3) 
{"is_sidechain": [false], "free_energy": -5.936, "intermolecular_energy": -7.924, "internal_energy": 0.096}

$$$$
cand_012_out
     RDKit          3D

 40 42  0  0  0  0  0  0  0  0999 V2000
  187.9300   24.2230   46.5680 C   0  0  0  0  0  0  0  0  0  0  0  0
  187.1680   24.0830   45.3240 N   0  0  0  0  0  0  0  0  0  0  0  0
  187.0640   25.3210   44.5420 C   0  0  0  0  0  0  0  0  0  0  0  0
  185.9170   23.4620   45.5000 C   0  0  0  0  0  0  0  0  0  0  0  0
  185.0790   23.7790   46.5810 C   0  0  0  0  0  0  0  0  0  0  0  0
  183.8340   23.1630   46.7420 C   0  0  0  0  0  0  0  0  0  0  0  0
  183.3840   22.2150   45.8200 C   0  0  0  0  0  0  0  0  0  0  0  0
  182.0850   21.5270   45.9790 C   0  0  0  0  0  0  0  0  0  0  0  0
  181.1770   22.2560   46.7380 O   0  0  0  0  0  0  0  0  0  0  0  0
  179.9300   21.7320   46.9670 C   0  0  0  0  0  0  0  0  0  0  0  0
  179.0480   22.5030   47.7250 C   0  0  0  0  0  0  0  0  0  0  0  0
  177.7630   22.0260   47.9950 C   0  0  0  0  0  0  0  0  0  0  0  0
  177.3620   20.7810   47.5080 C   0  0  0  0  0  0  0  0  0  0  0  0
  178.2450   20.0130   46.7530 C   0  0  0  0  0  0  0  0  0  0  0  0
  177.7870   18.8030   46.3080 O   0  0  0  0  0  0  0  0  0  0  0  0
  179.5290   20.4910   46.4820 C   0  0  0  0  0  0  0  0  0  0  0  0
  180.4890   19.7160   45.6930 C   0  0  0  0  0  0  0  0  0  0  0  0
  180.2130   18.6090   45.2350 O   0  0  0  0  0  0  0  0  0  0  0  0
  181.8230   20.3140   45.4580 C   0  0  0  0  0  0  0  0  0  0  0  0
  182.7280   19.5680   44.7250 O   0  0  0  0  0  0  0  0  0  0  0  0
  184.2200   21.8900   44.7430 C   0  0  0  0  0  0  0  0  0  0  0  0
  185.4790   22.5050   44.5680 C   0  0  0  0  0  0  0  0  0  0  0  0
  186.3400   22.1210   43.3890 C   0  0  0  0  0  0  0  0  0  0  0  0
  186.1800   22.9340   42.3050 F   0  0  0  0  0  0  0  0  0  0  0  0
  186.0630   20.8630   42.9230 F   0  0  0  0  0  0  0  0  0  0  0  0
  187.6750   22.1000   43.6680 F   0  0  0  0  0  0  0  0  0  0  0  0
  187.2548   24.0989   47.4275 H   0  0  0  0  0  0  0  0  0  0  0  0
  188.7159   23.4542   46.6051 H   0  0  0  0  0  0  0  0  0  0  0  0
  188.3913   25.2209   46.6051 H   0  0  0  0  0  0  0  0  0  0  0  0
  186.9918   26.1807   45.2244 H   0  0  0  0  0  0  0  0  0  0  0  0
  187.9561   25.4301   43.9078 H   0  0  0  0  0  0  0  0  0  0  0  0
  186.1661   25.2798   43.9078 H   0  0  0  0  0  0  0  0  0  0  0  0
  185.4087   24.5275   47.3166 H   0  0  0  0  0  0  0  0  0  0  0  0
  183.2028   23.4275   47.6032 H   0  0  0  0  0  0  0  0  0  0  0  0
  179.3638   23.4842   48.1091 H   0  0  0  0  0  0  0  0  0  0  0  0
  177.0663   22.6325   48.5923 H   0  0  0  0  0  0  0  0  0  0  0  0
  176.3496   20.4068   47.7203 H   0  0  0  0  0  0  0  0  0  0  0  0
  176.8740   18.5990   46.3620 H   0  0  0  0  0  0  0  0  0  0  0  0
  182.5690   18.6560   44.5740 H   0  0  0  0  0  0  0  0  0  0  0  0
  183.8865   21.1359   44.0148 H   0  0  0  0  0  0  0  0  0  0  0  0
  1  2  1  0
  2  3  1  0
  2  4  1  0
  4  5  2  0
  5  6  1  0
  6  7  2  0
  7  8  1  0
  8  9  1  0
  9 10  1  0
 10 11  2  0
 11 12  1  0
 12 13  2  0
 13 14  1  0
 14 15  1  0
 14 16  2  0
 16 17  1  0
 17 18  2  0
 17 19  1  0
 19 20  1  0
  7 21  1  0
 21 22  2  0
 22 23  1  0
 23 24  1  0
 23 25  1  0
 23 26  1  0
 22  4  1  0
 19  8  2  0
 16 10  1  0
  1 27  1  0
  1 28  1  0
  1 29  1  0
  3 30  1  0
  3 31  1  0
  3 32  1  0
  5 33  1  0
  6 34  1  0
 11 35  1  0
 12 36  1  0
 13 37  1  0
 15 38  1  0
 20 39  1  0
 21 40  1  0
M  END
>  <meeko>  (4) 
{"is_sidechain": [false], "free_energy": -5.025, "intermolecular_energy": -6.965, "internal_energy": 0.262}

$$$$
