cand_021_out
     RDKit          3D

 36 38  0  0  0  0  0  0  0  0999 V2000
  178.6940   13.9300   44.2660 C   0  0  0  0  0  0  0  0  0  0  0  0
  179.7350   14.4480   44.9310 C   0  0  0  0  0  0  0  0  0  0  0  0
  180.2360   15.8060   44.6840 C   0  0  0  0  0  0  0  0  0  0  0  0
  179.7680   16.8640   45.4840 C   0  0  0  0  0  0  0  0  0  0  0  0
  180.2200   18.1790   45.2980 C   0  0  0  0  0  0  0  0  0  0  0  0
  179.7450   19.2890   46.1490 C   0  0  0  0  0  0  0  0  0  0  0  0
  178.3590   19.3780   46.1980 O   0  0  0  0  0  0  0  0  0  0  0  0
  177.7850   20.3690   46.9540 C   0  0  0  0  0  0  0  0  0  0  0  0
  176.3910   20.4320   46.9620 C   0  0  0  0  0  0  0  0  0  0  0  0
  175.7440   21.4170   47.7130 C   0  0  0  0  0  0  0  0  0  0  0  0
  176.4890   22.3350   48.4540 C   0  0  0  0  0  0  0  0  0  0  0  0
  177.8800   22.2700   48.4430 C   0  0  0  0  0  0  0  0  0  0  0  0
  178.5480   23.2010   49.1910 O   0  0  0  0  0  0  0  0  0  0  0  0
  178.5280   21.2860   47.6920 C   0  0  0  0  0  0  0  0  0  0  0  0
  179.9870   21.1820   47.6530 C   0  0  0  0  0  0  0  0  0  0  0  0
  180.7120   21.9490   48.2840 O   0  0  0  0  0  0  0  0  0  0  0  0
  180.5750   20.1090   46.8200 C   0  0  0  0  0  0  0  0  0  0  0  0
  181.9540   20.0100   46.8010 O   0  0  0  0  0  0  0  0  0  0  0  0
  181.1770   18.4200   44.3060 C   0  0  0  0  0  0  0  0  0  0  0  0
  181.6560   17.3780   43.5080 C   0  0  0  0  0  0  0  0  0  0  0  0
  181.1930   16.0630   43.6850 C   0  0  0  0  0  0  0  0  0  0  0  0
  181.7150   14.9630   42.7930 C   0  0  0  0  0  0  0  0  0  0  0  0
  183.0310   15.1210   42.4760 F   0  0  0  0  0  0  0  0  0  0  0  0
  181.0640   14.8830   41.5950 F   0  0  0  0  0  0  0  0  0  0  0  0
  178.3547   12.9070   44.4861 H   0  0  0  0  0  0  0  0  0  0  0  0
  178.1784   14.5276   43.4998 H   0  0  0  0  0  0  0  0  0  0  0  0
  180.2346   13.8314   45.6927 H   0  0  0  0  0  0  0  0  0  0  0  0
  179.0309   16.6556   46.2734 H   0  0  0  0  0  0  0  0  0  0  0  0
  175.8030   19.7082   46.3787 H   0  0  0  0  0  0  0  0  0  0  0  0
  174.6452   21.4687   47.7200 H   0  0  0  0  0  0  0  0  0  0  0  0
  175.9784   23.1089   49.0459 H   0  0  0  0  0  0  0  0  0  0  0  0
  179.3240   23.6050   48.8540 H   0  0  0  0  0  0  0  0  0  0  0  0
  182.3700   19.2050   47.0420 H   0  0  0  0  0  0  0  0  0  0  0  0
  181.5564   19.4411   44.1528 H   0  0  0  0  0  0  0  0  0  0  0  0
  182.4053   17.5897   42.7310 H   0  0  0  0  0  0  0  0  0  0  0  0
  181.5497   14.0553   43.3920 H   0  0  0  0  0  0  0  0  0  0  0  0
  1  2  2  0
  2  3  1  0
  3  4  2  0
  4  5  1  0
  5  6  1  0
  6  7  1  0
  7  8  1  0
  8  9  2  0
  9 10  1  0
 10 11  2  0
 11 12  1  0
 12 13  1  0
 12 14  2  0
 14 15  1  0
 15 16  2  0
 15 17  1  0
 17 18  1  0
  5 19  2  0
 19 20  1  0
 20 21  2  0
 21 22  1  0
 22 23  1  0
 22 24  1  0
 21  3  1  0
 17  6  2  0
 14  8  1  0
  1 25  1  0
  1 26  1  0
  2 27  1  0
  4 28  1  0
  9 29  1  0
 10 30  1  0
 11 31  1  0
 13 32  1  0
 18 33  1  0
 19 34  1  0
 20 35  1  0
 22 36  1  0
M  END
>  <meeko>  (1) 
{"is_sidechain": [false], "free_energy": -8.003, "intermolecular_energy": -9.875, "internal_energy": -0.382}

$$$$
cand_021_out
     RDKit          3D

 36 38  0  0  0  0  0  0  0  0999 V2000
  174.7490   20.0350   47.3640 C   0  0  0  0  0  0  0  0  0  0  0  0
  175.6130   20.9910   47.0000 C   0  0  0  0  0  0  0  0  0  0  0  0
  177.0630   20.8630   47.1880 C   0  0  0  0  0  0  0  0  0  0  0  0
  177.7700   19.9070   46.4360 C   0  0  0  0  0  0  0  0  0  0  0  0
  179.1570   19.7480   46.5690 C   0  0  0  0  0  0  0  0  0  0  0  0
  179.9040   18.7590   45.7660 C   0  0  0  0  0  0  0  0  0  0  0  0
  179.3180   17.4990   45.7780 O   0  0  0  0  0  0  0  0  0  0  0  0
  179.9130   16.4840   45.0710 C   0  0  0  0  0  0  0  0  0  0  0  0
  179.2990   15.2320   45.1230 C   0  0  0  0  0  0  0  0  0  0  0  0
  179.8540   14.1560   44.4240 C   0  0  0  0  0  0  0  0  0  0  0  0
  181.0180   14.3330   43.6750 C   0  0  0  0  0  0  0  0  0  0  0  0
  181.6280   15.5850   43.6250 C   0  0  0  0  0  0  0  0  0  0  0  0
  182.7650   15.6880   42.8720 O   0  0  0  0  0  0  0  0  0  0  0  0
  181.0740   16.6600   44.3250 C   0  0  0  0  0  0  0  0  0  0  0  0
  181.6820   17.9910   44.2990 C   0  0  0  0  0  0  0  0  0  0  0  0
  182.7040   18.2290   43.6570 O   0  0  0  0  0  0  0  0  0  0  0  0
  181.0220   19.0610   45.0810 C   0  0  0  0  0  0  0  0  0  0  0  0
  181.5960   20.3180   45.0390 O   0  0  0  0  0  0  0  0  0  0  0  0
  179.8410   20.5850   47.4580 C   0  0  0  0  0  0  0  0  0  0  0  0
  179.1530   21.5430   48.2070 C   0  0  0  0  0  0  0  0  0  0  0  0
  177.7610   21.6930   48.0850 C   0  0  0  0  0  0  0  0  0  0  0  0
  177.0460   22.7240   48.9240 C   0  0  0  0  0  0  0  0  0  0  0  0
  176.0040   22.1990   49.6280 F   0  0  0  0  0  0  0  0  0  0  0  0
  176.5070   23.7410   48.1880 F   0  0  0  0  0  0  0  0  0  0  0  0
  173.6704   20.1779   47.2022 H   0  0  0  0  0  0  0  0  0  0  0  0
  175.1178   19.1068   47.8248 H   0  0  0  0  0  0  0  0  0  0  0  0
  175.2199   21.9102   46.5412 H   0  0  0  0  0  0  0  0  0  0  0  0
  177.2219   19.2692   45.7269 H   0  0  0  0  0  0  0  0  0  0  0  0
  178.3808   15.0921   45.7124 H   0  0  0  0  0  0  0  0  0  0  0  0
  179.3722   13.1680   44.4645 H   0  0  0  0  0  0  0  0  0  0  0  0
  181.4534   13.4857   43.1250 H   0  0  0  0  0  0  0  0  0  0  0  0
  182.7860   15.3370   42.0030 H   0  0  0  0  0  0  0  0  0  0  0  0
  181.4560   20.8740   44.2980 H   0  0  0  0  0  0  0  0  0  0  0  0
  180.9311   20.4876   47.5681 H   0  0  0  0  0  0  0  0  0  0  0  0
  179.7089   22.1892   48.9023 H   0  0  0  0  0  0  0  0  0  0  0  0
  177.8369   23.0978   49.5909 H   0  0  0  0  0  0  0  0  0  0  0  0
  1  2  2  0
  2  3  1  0
  3  4  2  0
  4  5  1  0
  5  6  1  0
  6  7  1  0
  7  8  1  0
  8  9  2  0
  9 10  1  0
 10 11  2  0
 11 12  1  0
 12 13  1  0
 12 14  2  0
 14 15  1  0
 15 16  2  0
 15 17  1  0
 17 18  1  0
  5 19  2  0
 19 20  1  0
 20 21  2  0
 21 22  1  0
 22 23  1  0
 22 24  1  0
 21  3  1  0
 17  6  2  0
 14  8  1  0
  1 25  1  0
  1 26  1  0
  2 27  1  0
  4 28  1  0
  9 29  1  0
 10 30  1  0
 11 31  1  0
 13 32  1  0
 18 33  1  0
 19 34  1  0
 20 35  1  0
 22 36  1  0
M  END
>  <meeko>  (2) 
{"is_sidechain": [false], "free_energy": -7.476, "intermolecular_energy": -9.402, "internal_energy": -0.203}

$$$$
cand_021_out
     RDKit          3D

 36 38  0  0  0  0  0  0  0  0999 V2000
  181.2480   17.0050   41.1110 C   0  0  0  0  0  0  0  0  0  0  0  0
  181.8080   16.9780   42.3270 C   0  0  0  0  0  0  0  0  0  0  0  0
  181.0190   16.8900   43.5610 C   0  0  0  0  0  0  0  0  0  0  0  0
  180.7710   18.0600   44.3010 C   0  0  0  0  0  0  0  0  0  0  0  0
  180.0160   18.0350   45.4830 C   0  0  0  0  0  0  0  0  0  0  0  0
  179.7380   19.2650   46.2520 C   0  0  0  0  0  0  0  0  0  0  0  0
  178.3900   19.6040   46.2620 O   0  0  0  0  0  0  0  0  0  0  0  0
  177.9940   20.7290   46.9400 C   0  0  0  0  0  0  0  0  0  0  0  0
  176.6340   21.0410   46.9110 C   0  0  0  0  0  0  0  0  0  0  0  0
  176.1650   22.1720   47.5830 C   0  0  0  0  0  0  0  0  0  0  0  0
  177.0540   22.9890   48.2840 C   0  0  0  0  0  0  0  0  0  0  0  0
  178.4110   22.6750   48.3120 C   0  0  0  0  0  0  0  0  0  0  0  0
  179.2260   23.5170   49.0170 O   0  0  0  0  0  0  0  0  0  0  0  0
  178.8800   21.5440   47.6380 C   0  0  0  0  0  0  0  0  0  0  0  0
  180.2970   21.1780   47.6420 C   0  0  0  0  0  0  0  0  0  0  0  0
  181.1410   21.8420   48.2420 O   0  0  0  0  0  0  0  0  0  0  0  0
  180.6930   19.9650   46.8910 C   0  0  0  0  0  0  0  0  0  0  0  0
  182.0320   19.6190   46.9120 O   0  0  0  0  0  0  0  0  0  0  0  0
  179.4840   16.8120   45.9070 C   0  0  0  0  0  0  0  0  0  0  0  0
  179.7170   15.6430   45.1790 C   0  0  0  0  0  0  0  0  0  0  0  0
  180.4850   15.6650   44.0030 C   0  0  0  0  0  0  0  0  0  0  0  0
  180.7340   14.3800   43.2510 C   0  0  0  0  0  0  0  0  0  0  0  0
  180.0450   14.3150   42.0760 F   0  0  0  0  0  0  0  0  0  0  0  0
  180.3650   13.2650   43.9470 F   0  0  0  0  0  0  0  0  0  0  0  0
  181.8823   17.0716   40.2147 H   0  0  0  0  0  0  0  0  0  0  0  0
  180.1537   16.9605   41.0083 H   0  0  0  0  0  0  0  0  0  0  0  0
  182.9044   17.0237   42.4040 H   0  0  0  0  0  0  0  0  0  0  0  0
  181.1787   19.0174   43.9444 H   0  0  0  0  0  0  0  0  0  0  0  0
  175.9327   20.3973   46.3598 H   0  0  0  0  0  0  0  0  0  0  0  0
  175.0934   22.4195   47.5599 H   0  0  0  0  0  0  0  0  0  0  0  0
  176.6835   23.8792   48.8134 H   0  0  0  0  0  0  0  0  0  0  0  0
  180.0980   23.2520   49.2370 H   0  0  0  0  0  0  0  0  0  0  0  0
  182.5730   19.8820   47.6310 H   0  0  0  0  0  0  0  0  0  0  0  0
  178.8762   16.7710   46.8229 H   0  0  0  0  0  0  0  0  0  0  0  0
  179.2929   14.6913   45.5317 H   0  0  0  0  0  0  0  0  0  0  0  0
  181.8208   14.3952   43.0819 H   0  0  0  0  0  0  0  0  0  0  0  0
  1  2  2  0
  2  3  1  0
  3  4  2  0
  4  5  1  0
  5  6  1  0
  6  7  1  0
  7  8  1  0
  8  9  2  0
  9 10  1  0
 10 11  2  0
 11 12  1  0
 12 13  1  0
 12 14  2  0
 14 15  1  0
 15 16  2  0
 15 17  1  0
 17 18  1  0
  5 19  2  0
 19 20  1  0
 20 21  2  0
 21 22  1  0
 22 23  1  0
 22 24  1  0
 21  3  1  0
 17  6  2  0
 14  8  1  0
  1 25  1  0
  1 26  1  0
  2 27  1  0
  4 28  1  0
  9 29  1  0
 10 30  1  0
 11 31  1  0
 13 32  1  0
 18 33  1  0
 19 34  1  0
 20 35  1  0
 22 36  1  0
M  END
>  <meeko>  (3) 
{"is_sidechain": [false], "free_energy": -6.962, "intermolecular_energy": -8.585, "internal_energy": -0.387}

$$$$
cand_021_out
     RDKit          3D

 36 38  0  0  0  0  0  0  0  0999 V2000
  179.2630   14.2110   44.1570 C   0  0  0  0  0  0  0  0  0  0  0  0
  179.9440   14.9380   45.0520 C   0  0  0  0  0  0  0  0  0  0  0  0
  180.0970   16.3940   44.9380 C   0  0  0  0  0  0  0  0  0  0  0  0
  179.2190   17.2330   45.6480 C   0  0  0  0  0  0  0  0  0  0  0  0
  179.3260   18.6290   45.5830 C   0  0  0  0  0  0  0  0  0  0  0  0
  178.4180   19.5120   46.3430 C   0  0  0  0  0  0  0  0  0  0  0  0
  179.0250   20.6960   46.7450 O   0  0  0  0  0  0  0  0  0  0  0  0
  178.2910   21.6070   47.4620 C   0  0  0  0  0  0  0  0  0  0  0  0
  178.9450   22.7740   47.8600 C   0  0  0  0  0  0  0  0  0  0  0  0
  178.2540   23.7440   48.5910 C   0  0  0  0  0  0  0  0  0  0  0  0
  176.9120   23.5460   48.9230 C   0  0  0  0  0  0  0  0  0  0  0  0
  176.2630   22.3800   48.5250 C   0  0  0  0  0  0  0  0  0  0  0  0
  174.9490   22.2520   48.8840 O   0  0  0  0  0  0  0  0  0  0  0  0
  176.9540   21.4100   47.7950 C   0  0  0  0  0  0  0  0  0  0  0  0
  176.3100   20.1720   47.3560 C   0  0  0  0  0  0  0  0  0  0  0  0
  175.1300   19.9280   47.6030 O   0  0  0  0  0  0  0  0  0  0  0  0
  177.1320   19.2040   46.5940 C   0  0  0  0  0  0  0  0  0  0  0  0
  176.5110   18.0430   46.1720 O   0  0  0  0  0  0  0  0  0  0  0  0
  180.3510   19.1840   44.8080 C   0  0  0  0  0  0  0  0  0  0  0  0
  181.2340   18.3630   44.1020 C   0  0  0  0  0  0  0  0  0  0  0  0
  181.1190   16.9630   44.1550 C   0  0  0  0  0  0  0  0  0  0  0  0
  182.0760   16.1060   43.3650 C   0  0  0  0  0  0  0  0  0  0  0  0
  181.5840   15.7550   42.1430 F   0  0  0  0  0  0  0  0  0  0  0  0
  182.3810   14.9260   43.9810 F   0  0  0  0  0  0  0  0  0  0  0  0
  179.1757   13.1220   44.2851 H   0  0  0  0  0  0  0  0  0  0  0  0
  178.7909   14.7029   43.2938 H   0  0  0  0  0  0  0  0  0  0  0  0
  180.4074   14.4238   45.9069 H   0  0  0  0  0  0  0  0  0  0  0  0
  178.4301   16.7830   46.2686 H   0  0  0  0  0  0  0  0  0  0  0  0
  180.0021   22.9299   47.5988 H   0  0  0  0  0  0  0  0  0  0  0  0
  178.7677   24.6645   48.9053 H   0  0  0  0  0  0  0  0  0  0  0  0
  176.3684   24.3100   49.4981 H   0  0  0  0  0  0  0  0  0  0  0  0
  174.4290   23.0160   49.0410 H   0  0  0  0  0  0  0  0  0  0  0  0
  175.9750   17.5550   46.7670 H   0  0  0  0  0  0  0  0  0  0  0  0
  180.4624   20.2770   44.7543 H   0  0  0  0  0  0  0  0  0  0  0  0
  182.0308   18.8188   43.4959 H   0  0  0  0  0  0  0  0  0  0  0  0
  182.9671   16.7445   43.2743 H   0  0  0  0  0  0  0  0  0  0  0  0
  1  2  2  0
  2  3  1  0
  3  4  2  0
  4  5  1  0
  5  6  1  0
  6  7  1  0
  7  8  1  0
  8  9  2  0
  9 10  1  0
 10 11  2  0
 11 12  1  0
 12 13  1  0
 12 14  2  0
 14 15  1  0
 15 16  2  0
 15 17  1  0
 17 18  1  0
  5 19  2  0
 19 20  1  0
 20 21  2  0
 21 22  1  0
 22 23  1  0
 22 24  1  0
 21  3  1  0
 17  6  2  0
 14  8  1  0
  1 25  1  0
  1 26  1  0
  2 27  1  0
  4 28  1  0
  9 29  1  0
 10 30  1  0
 11 31  1  0
 13 32  1  0
 18 33  1  0
 19 34  1  0
 20 35  1  0
 22 36  1  0
M  END
>  <meeko>  (4) 
{"is_sidechain": [false], "free_energy": -6.457, "intermolecular_energy": -8.585, "internal_energy": 0.236}

$$$$
cand_021_out
     RDKit          3D

 36 38  0  0  0  0  0  0  0  0999 V2000
  178.5680   22.8480   47.5160 C   0  0  0  0  0  0  0  0  0  0  0  0
  179.2470   21.7250   47.7810 C   0  0  0  0  0  0  0  0  0  0  0  0
  180.2830   21.1960   46.8860 C   0  0  0  0  0  0  0  0  0  0  0  0
  181.4570   21.9430   46.6800 C   0  0  0  0  0  0  0  0  0  0  0  0
  182.4830   21.4800   45.8420 C   0  0  0  0  0  0  0  0  0  0  0  0
  183.7250   22.2540   45.6380 C   0  0  0  0  0  0  0  0  0  0  0  0
  184.3110   22.0210   44.4000 O   0  0  0  0  0  0  0  0  0  0  0  0
  185.4730   22.6760   44.0830 C   0  0  0  0  0  0  0  0  0  0  0  0
  186.0360   22.4000   42.8360 C   0  0  0  0  0  0  0  0  0  0  0  0
  187.2190   23.0360   42.4500 C   0  0  0  0  0  0  0  0  0  0  0  0
  187.8370   23.9460   43.3100 C   0  0  0  0  0  0  0  0  0  0  0  0
  187.2730   24.2200   44.5540 C   0  0  0  0  0  0  0  0  0  0  0  0
  187.9300   25.1210   45.3450 O   0  0  0  0  0  0  0  0  0  0  0  0
  186.0900   23.5830   44.9400 C   0  0  0  0  0  0  0  0  0  0  0  0
  185.4640   23.8420   46.2370 C   0  0  0  0  0  0  0  0  0  0  0  0
  185.9430   24.6340   47.0460 O   0  0  0  0  0  0  0  0  0  0  0  0
  184.2170   23.1100   46.5530 C   0  0  0  0  0  0  0  0  0  0  0  0
  183.6250   23.3710   47.7750 O   0  0  0  0  0  0  0  0  0  0  0  0
  182.3280   20.2340   45.2250 C   0  0  0  0  0  0  0  0  0  0  0  0
  181.1700   19.4780   45.4260 C   0  0  0  0  0  0  0  0  0  0  0  0
  180.1360   19.9470   46.2540 C   0  0  0  0  0  0  0  0  0  0  0  0
  178.8900   19.1150   46.4330 C   0  0  0  0  0  0  0  0  0  0  0  0
  178.9860   17.8890   45.8460 F   0  0  0  0  0  0  0  0  0  0  0  0
  177.7750   19.6870   45.8910 F   0  0  0  0  0  0  0  0  0  0  0  0
  177.8000   23.2050   48.2180 H   0  0  0  0  0  0  0  0  0  0  0  0
  178.7781   23.4137   46.5963 H   0  0  0  0  0  0  0  0  0  0  0  0
  179.0192   21.1766   48.7069 H   0  0  0  0  0  0  0  0  0  0  0  0
  181.5735   22.9121   47.1873 H   0  0  0  0  0  0  0  0  0  0  0  0
  185.5494   21.6831   42.1583 H   0  0  0  0  0  0  0  0  0  0  0  0
  187.6638   22.8195   41.4675 H   0  0  0  0  0  0  0  0  0  0  0  0
  188.7683   24.4460   43.0055 H   0  0  0  0  0  0  0  0  0  0  0  0
  188.7290   24.8760   45.7710 H   0  0  0  0  0  0  0  0  0  0  0  0
  183.8760   22.8790   48.5330 H   0  0  0  0  0  0  0  0  0  0  0  0
  183.1258   19.8454   44.5750 H   0  0  0  0  0  0  0  0  0  0  0  0
  181.0664   18.5021   44.9291 H   0  0  0  0  0  0  0  0  0  0  0  0
  178.7981   19.0334   47.5261 H   0  0  0  0  0  0  0  0  0  0  0  0
  1  2  2  0
  2  3  1  0
  3  4  2  0
  4  5  1  0
  5  6  1  0
  6  7  1  0
  7  8  1  0
  8  9  2  0
  9 10  1  0
 10 11  2  0
 11 12  1  0
 12 13  1  0
 12 14  2  0
 14 15  1  0
 15 16  2  0
 15 17  1  0
 17 18  1  0
  5 19  2  0
 19 20  1  0
 20 21  2  0
 21 22  1  0
 22 23  1  0
 22 24  1  0
 21  3  1  0
 17  6  2  0
 14  8  1  0
  1 25  1  0
  1 26  1  0
  2 27  1  0
  4 28  1  0
  9 29  1  0
 10 30  1  0
 11 31  1  0
 13 32  1  0
 18 33  1  0
 19 34  1  0
 20 35  1  0
 22 36  1  0
M  END
>  <meeko>  (5) 
{"is_sidechain": [false], "free_energy": -5.544, "intermolecular_energy": -7.073, "internal_energy": -0.149}

$$$$
cand_021_out
     RDKit          3D

 36 38  0  0  0  0  0  0  0  0999 V2000
  178.4550   22.6940   47.6200 C   0  0  0  0  0  0  0  0  0  0  0  0
  179.3270   21.7290   47.9350 C   0  0  0  0  0  0  0  0  0  0  0  0
  180.4600   21.3720   47.0710 C   0  0  0  0  0  0  0  0  0  0  0  0
  181.5650   22.2390   46.9980 C   0  0  0  0  0  0  0  0  0  0  0  0
  182.6770   21.9430   46.1960 C   0  0  0  0  0  0  0  0  0  0  0  0
  183.8470   22.8420   46.1310 C   0  0  0  0  0  0  0  0  0  0  0  0
  184.1900   23.3730   47.3680 O   0  0  0  0  0  0  0  0  0  0  0  0
  185.2610   24.2280   47.4490 C   0  0  0  0  0  0  0  0  0  0  0  0
  185.5600   24.7510   48.7080 C   0  0  0  0  0  0  0  0  0  0  0  0
  186.6400   25.6250   48.8590 C   0  0  0  0  0  0  0  0  0  0  0  0
  187.4170   25.9750   47.7540 C   0  0  0  0  0  0  0  0  0  0  0  0
  187.1160   25.4520   46.4990 C   0  0  0  0  0  0  0  0  0  0  0  0
  187.9190   25.8360   45.4610 O   0  0  0  0  0  0  0  0  0  0  0  0
  186.0360   24.5780   46.3480 C   0  0  0  0  0  0  0  0  0  0  0  0
  185.6850   24.0050   45.0480 C   0  0  0  0  0  0  0  0  0  0  0  0
  186.3260   24.2580   44.0290 O   0  0  0  0  0  0  0  0  0  0  0  0
  184.5180   23.0950   44.9920 C   0  0  0  0  0  0  0  0  0  0  0  0
  184.2030   22.5480   43.7620 O   0  0  0  0  0  0  0  0  0  0  0  0
  182.6810   20.7400   45.4790 C   0  0  0  0  0  0  0  0  0  0  0  0
  181.5930   19.8670   45.5480 C   0  0  0  0  0  0  0  0  0  0  0  0
  180.4720   20.1690   46.3400 C   0  0  0  0  0  0  0  0  0  0  0  0
  179.3050   19.2130   46.3760 C   0  0  0  0  0  0  0  0  0  0  0  0
  179.5650   18.0390   45.7360 F   0  0  0  0  0  0  0  0  0  0  0  0
  178.1820   19.7080   45.7770 F   0  0  0  0  0  0  0  0  0  0  0  0
  177.6216   22.9255   48.2996 H   0  0  0  0  0  0  0  0  0  0  0  0
  178.5716   23.2557   46.6814 H   0  0  0  0  0  0  0  0  0  0  0  0
  179.1898   21.1811   48.8789 H   0  0  0  0  0  0  0  0  0  0  0  0
  181.5570   23.1704   47.5832 H   0  0  0  0  0  0  0  0  0  0  0  0
  184.9472   24.4760   49.5791 H   0  0  0  0  0  0  0  0  0  0  0  0
  186.8780   26.0377   49.8505 H   0  0  0  0  0  0  0  0  0  0  0  0
  188.2665   26.6634   47.8742 H   0  0  0  0  0  0  0  0  0  0  0  0
  187.5720   26.3720   44.7730 H   0  0  0  0  0  0  0  0  0  0  0  0
  183.4320   22.0230   43.6660 H   0  0  0  0  0  0  0  0  0  0  0  0
  183.5493   20.4802   44.8556 H   0  0  0  0  0  0  0  0  0  0  0  0
  181.6138   18.9290   44.9738 H   0  0  0  0  0  0  0  0  0  0  0  0
  179.1411   19.0581   47.4526 H   0  0  0  0  0  0  0  0  0  0  0  0
  1  2  2  0
  2  3  1  0
  3  4  2  0
  4  5  1  0
  5  6  1  0
  6  7  1  0
  7  8  1  0
  8  9  2  0
  9 10  1  0
 10 11  2  0
 11 12  1  0
 12 13  1  0
 12 14  2  0
 14 15  1  0
 15 16  2  0
 15 17  1  0
 17 18  1  0
  5 19  2  0
 19 20  1  0
 20 21  2  0
 21 22  1  0
 22 23  1  0
 22 24  1  0
 21  3  1  0
 17  6  2  0
 14  8  1  0
  1 25  1  0
  1 26  1  0
  2 27  1  0
  4 28  1  0
  9 29  1  0
 10 30  1  0
 11 31  1  0
 13 32  1  0
 18 33  1  0
 19 34  1  0
 20 35  1  0
 22 36  1  0
M  END
>  <meeko>  (6) 
{"is_sidechain": [false], "free_energy": -5.529, "intermolecular_energy": -6.912, "internal_energy": -0.291}

$$$$
cand_021_out
     RDKit          3D

 36 38  0  0  0  0  0  0  0  0999 V2000
  186.9350   21.3150   43.1160 C   0  0  0  0  0  0  0  0  0  0  0  0
  186.2030   22.4230   43.2820 C   0  0  0  0  0  0  0  0  0  0  0  0
  185.4330   22.6890   44.5030 C   0  0  0  0  0  0  0  0  0  0  0  0
  184.2040   22.0320   44.6950 C   0  0  0  0  0  0  0  0  0  0  0  0
  183.4320   22.2420   45.8470 C   0  0  0  0  0  0  0  0  0  0  0  0
  182.1500   21.5390   46.0590 C   0  0  0  0  0  0  0  0  0  0  0  0
  181.2520   22.2710   46.8250 O   0  0  0  0  0  0  0  0  0  0  0  0
  180.0200   21.7320   47.1000 C   0  0  0  0  0  0  0  0  0  0  0  0
  179.1550   22.4950   47.8860 C   0  0  0  0  0  0  0  0  0  0  0  0
  177.8850   22.0040   48.2000 C   0  0  0  0  0  0  0  0  0  0  0  0
  177.4820   20.7540   47.7290 C   0  0  0  0  0  0  0  0  0  0  0  0
  178.3470   19.9950   46.9440 C   0  0  0  0  0  0  0  0  0  0  0  0
  177.8870   18.7800   46.5160 O   0  0  0  0  0  0  0  0  0  0  0  0
  179.6170   20.4850   46.6310 C   0  0  0  0  0  0  0  0  0  0  0  0
  180.5570   19.7210   45.8100 C   0  0  0  0  0  0  0  0  0  0  0  0
  180.2730   18.6160   45.3510 O   0  0  0  0  0  0  0  0  0  0  0  0
  181.8810   20.3260   45.5410 C   0  0  0  0  0  0  0  0  0  0  0  0
  182.7570   19.6020   44.7530 O   0  0  0  0  0  0  0  0  0  0  0  0
  183.9230   23.1090   46.8290 C   0  0  0  0  0  0  0  0  0  0  0  0
  185.1450   23.7630   46.6550 C   0  0  0  0  0  0  0  0  0  0  0  0
  185.9120   23.5650   45.4950 C   0  0  0  0  0  0  0  0  0  0  0  0
  187.2180   24.3020   45.3300 C   0  0  0  0  0  0  0  0  0  0  0  0
  187.8620   24.5060   46.5140 F   0  0  0  0  0  0  0  0  0  0  0  0
  187.0720   25.5450   44.7810 F   0  0  0  0  0  0  0  0  0  0  0  0
  187.4952   21.1607   42.1820 H   0  0  0  0  0  0  0  0  0  0  0  0
  186.9764   20.5586   43.9136 H   0  0  0  0  0  0  0  0  0  0  0  0
  186.1773   23.1648   42.4701 H   0  0  0  0  0  0  0  0  0  0  0  0
  183.8400   21.3374   43.9237 H   0  0  0  0  0  0  0  0  0  0  0  0
  179.4723   23.4806   48.2574 H   0  0  0  0  0  0  0  0  0  0  0  0
  177.2020   22.6038   48.8194 H   0  0  0  0  0  0  0  0  0  0  0  0
  176.4822   20.3682   47.9773 H   0  0  0  0  0  0  0  0  0  0  0  0
  177.9190   18.5610   45.6050 H   0  0  0  0  0  0  0  0  0  0  0  0
  183.3770   19.0230   45.1510 H   0  0  0  0  0  0  0  0  0  0  0  0
  183.3411   23.2774   47.7472 H   0  0  0  0  0  0  0  0  0  0  0  0
  185.5120   24.4430   47.4379 H   0  0  0  0  0  0  0  0  0  0  0  0
  187.7954   23.6432   44.6647 H   0  0  0  0  0  0  0  0  0  0  0  0
  1  2  2  0
  2  3  1  0
  3  4  2  0
  4  5  1  0
  5  6  1  0
  6  7  1  0
  7  8  1  0
  8  9  2  0
  9 10  1  0
 10 11  2  0
 11 12  1  0
 12 13  1  0
 12 14  2  0
 14 15  1  0
 15 16  2  0
 15 17  1  0
 17 18  1  0
  5 19  2  0
 19 20  1  0
 20 21  2  0
 21 22  1  0
 22 23  1  0
 22 24  1  0
 21  3  1  0
 17  6  2  0
 14  8  1  0
  1 25  1  0
  1 26  1  0
  2 27  1  0
  4 28  1  0
  9 29  1  0
 10 30  1  0
 11 31  1  0
 13 32  1  0
 18 33  1  0
 19 34  1  0
 20 35  1  0
 22 36  1  0
M  END
>  <meeko>  (7) 
{"is_sidechain": [false], "free_energy": -5.408, "intermolecular_energy": -6.888, "internal_energy": -0.166}

$$$$
cand_021_out
     RDKit          3D

 36 38  0  0  0  0  0  0  0  0999 V2000
  185.2650   24.5900   48.7950 C   0  0  0  0  0  0  0  0  0  0  0  0
  185.5200   24.6310   47.4810 C   0  0  0  0  0  0  0  0  0  0  0  0
  184.9520   23.6650   46.5330 C   0  0  0  0  0  0  0  0  0  0  0  0
  183.7080   23.0750   46.8190 C   0  0  0  0  0  0  0  0  0  0  0  0
  183.1160   22.1530   45.9440 C   0  0  0  0  0  0  0  0  0  0  0  0
  181.8000   21.5450   46.2320 C   0  0  0  0  0  0  0  0  0  0  0  0
  180.9580   22.3910   46.9430 O   0  0  0  0  0  0  0  0  0  0  0  0
  179.7030   21.9490   47.2790 C   0  0  0  0  0  0  0  0  0  0  0  0
  178.8960   22.8250   48.0060 C   0  0  0  0  0  0  0  0  0  0  0  0
  177.6060   22.4370   48.3780 C   0  0  0  0  0  0  0  0  0  0  0  0
  177.1250   21.1760   48.0220 C   0  0  0  0  0  0  0  0  0  0  0  0
  177.9330   20.3040   47.2960 C   0  0  0  0  0  0  0  0  0  0  0  0
  177.3980   19.0850   46.9800 O   0  0  0  0  0  0  0  0  0  0  0  0
  179.2230   20.6920   46.9250 C   0  0  0  0  0  0  0  0  0  0  0  0
  180.1030   19.8070   46.1610 C   0  0  0  0  0  0  0  0  0  0  0  0
  179.7500   18.6840   45.8040 O   0  0  0  0  0  0  0  0  0  0  0  0
  181.4550   20.3100   45.8250 C   0  0  0  0  0  0  0  0  0  0  0  0
  182.2750   19.4720   45.0920 O   0  0  0  0  0  0  0  0  0  0  0  0
  183.7800   21.8440   44.7510 C   0  0  0  0  0  0  0  0  0  0  0  0
  185.0130   22.4280   44.4510 C   0  0  0  0  0  0  0  0  0  0  0  0
  185.6140   23.3410   45.3340 C   0  0  0  0  0  0  0  0  0  0  0  0
  186.9570   23.9380   44.9890 C   0  0  0  0  0  0  0  0  0  0  0  0
  186.8540   25.1690   44.4140 F   0  0  0  0  0  0  0  0  0  0  0  0
  187.6710   23.1850   44.1010 F   0  0  0  0  0  0  0  0  0  0  0  0
  185.7146   25.3367   49.4661 H   0  0  0  0  0  0  0  0  0  0  0  0
  184.6060   23.8096   49.2033 H   0  0  0  0  0  0  0  0  0  0  0  0
  186.1821   25.4208   47.0964 H   0  0  0  0  0  0  0  0  0  0  0  0
  183.1875   23.3429   47.7503 H   0  0  0  0  0  0  0  0  0  0  0  0
  179.2745   23.8192   48.2858 H   0  0  0  0  0  0  0  0  0  0  0  0
  176.9690   23.1261   48.9520 H   0  0  0  0  0  0  0  0  0  0  0  0
  176.1093   20.8713   48.3143 H   0  0  0  0  0  0  0  0  0  0  0  0
  177.6820   18.3160   47.4360 H   0  0  0  0  0  0  0  0  0  0  0  0
  181.9260   18.6920   44.7080 H   0  0  0  0  0  0  0  0  0  0  0  0
  183.3265   21.1346   44.0431 H   0  0  0  0  0  0  0  0  0  0  0  0
  185.5207   22.1694   43.5101 H   0  0  0  0  0  0  0  0  0  0  0  0
  187.4673   23.9880   45.9622 H   0  0  0  0  0  0  0  0  0  0  0  0
  1  2  2  0
  2  3  1  0
  3  4  2  0
  4  5  1  0
  5  6  1  0
  6  7  1  0
  7  8  1  0
  8  9  2  0
  9 10  1  0
 10 11  2  0
 11 12  1  0
 12 13  1  0
 12 14  2  0
 14 15  1  0
 15 16  2  0
 15 17  1  0
 17 18  1  0
  5 19  2  0
 19 20  1  0
 20 21  2  0
 21 22  1  0
 22 23  1  0
 22 24  1  0
 21  3  1  0
 17  6  2  0
 14  8  1  0
  1 25  1  0
  1 26  1  0
  2 27  1  0
  4 28  1  0
  9 29  1  0
 10 30  1  0
 11 31  1  0
 13 32  1  0
 18 33  1  0
 19 34  1  0
 20 35  1  0
 22 36  1  0
M  END
>  <meeko>  (8) 
{"is_sidechain": [false], "free_energy": -5.273, "intermolecular_energy": -6.716, "internal_energy": -0.171}

$$$$
cand_021_out
     RDKit          3D

 36 38  0  0  0  0  0  0  0  0999 V2000
  181.2280   17.8290   43.9610 C   0  0  0  0  0  0  0  0  0  0  0  0
  180.5960   18.2200   45.0740 C   0  0  0  0  0  0  0  0  0  0  0  0
  180.7820   19.5510   45.6650 C   0  0  0  0  0  0  0  0  0  0  0  0
  182.0130   20.2100   45.4960 C   0  0  0  0  0  0  0  0  0  0  0  0
  182.2420   21.4860   46.0310 C   0  0  0  0  0  0  0  0  0  0  0  0
  183.5280   22.1880   45.8390 C   0  0  0  0  0  0  0  0  0  0  0  0
  184.1240   21.9000   44.6170 O   0  0  0  0  0  0  0  0  0  0  0  0
  185.3260   22.4870   44.3110 C   0  0  0  0  0  0  0  0  0  0  0  0
  185.8970   22.1570   43.0810 C   0  0  0  0  0  0  0  0  0  0  0  0
  187.1200   22.7220   42.7080 C   0  0  0  0  0  0  0  0  0  0  0  0
  187.7690   23.6140   43.5630 C   0  0  0  0  0  0  0  0  0  0  0  0
  187.1960   23.9400   44.7900 C   0  0  0  0  0  0  0  0  0  0  0  0
  187.8860   24.8200   45.5790 O   0  0  0  0  0  0  0  0  0  0  0  0
  185.9740   23.3750   45.1640 C   0  0  0  0  0  0  0  0  0  0  0  0
  185.3380   23.6920   46.4430 C   0  0  0  0  0  0  0  0  0  0  0  0
  185.8440   24.4730   47.2470 O   0  0  0  0  0  0  0  0  0  0  0  0
  184.0470   23.0340   46.7480 C   0  0  0  0  0  0  0  0  0  0  0  0
  183.4470   23.3490   47.9530 O   0  0  0  0  0  0  0  0  0  0  0  0
  181.2010   22.1140   46.7240 C   0  0  0  0  0  0  0  0  0  0  0  0
  179.9710   21.4740   46.8950 C   0  0  0  0  0  0  0  0  0  0  0  0
  179.7460   20.1900   46.3710 C   0  0  0  0  0  0  0  0  0  0  0  0
  178.4120   19.5190   46.5900 C   0  0  0  0  0  0  0  0  0  0  0  0
  177.4610   19.9340   45.7060 F   0  0  0  0  0  0  0  0  0  0  0  0
  177.8820   19.7590   47.8260 F   0  0  0  0  0  0  0  0  0  0  0  0
  181.0559   16.8208   43.5561 H   0  0  0  0  0  0  0  0  0  0  0  0
  181.9196   18.5158   43.4511 H   0  0  0  0  0  0  0  0  0  0  0  0
  179.9093   17.5155   45.5660 H   0  0  0  0  0  0  0  0  0  0  0  0
  182.8151   19.7128   44.9308 H   0  0  0  0  0  0  0  0  0  0  0  0
  185.3859   21.4540   42.4067 H   0  0  0  0  0  0  0  0  0  0  0  0
  187.5716   22.4631   41.7390 H   0  0  0  0  0  0  0  0  0  0  0  0
  188.7310   24.0587   43.2685 H   0  0  0  0  0  0  0  0  0  0  0  0
  188.4980   24.5010   46.2140 H   0  0  0  0  0  0  0  0  0  0  0  0
  183.2690   22.6750   48.5780 H   0  0  0  0  0  0  0  0  0  0  0  0
  181.3527   23.1217   47.1382 H   0  0  0  0  0  0  0  0  0  0  0  0
  179.1673   21.9826   47.4477 H   0  0  0  0  0  0  0  0  0  0  0  0
  178.6449   18.4516   46.4617 H   0  0  0  0  0  0  0  0  0  0  0  0
  1  2  2  0
  2  3  1  0
  3  4  2  0
  4  5  1  0
  5  6  1  0
  6  7  1  0
  7  8  1  0
  8  9  2  0
  9 10  1  0
 10 11  2  0
 11 12  1  0
 12 13  1  0
 12 14  2  0
 14 15  1  0
 15 16  2  0
 15 17  1  0
 17 18  1  0
  5 19  2  0
 19 20  1  0
 20 21  2  0
 21 22  1  0
 22 23  1  0
 22 24  1  0
 21  3  1  0
 17  6  2  0
 14  8  1  0
  1 25  1  0
  1 26  1  0
  2 27  1  0
  4 28  1  0
  9 29  1  0
 10 30  1  0
 11 31  1  0
 13 32  1  0
 18 33  1  0
 19 34  1  0
 20 35  1  0
 22 36  1  0
M  END
>  <meeko>  (9) 
{"is_sidechain": [false], "free_energy": -5.257, "intermolecular_energy": -6.684, "internal_energy": -0.184}

$$$$
