cand_043_out
     RDKit          3D

 44 46  0  0  0  0  0  0  0  0999 V2000
  179.5920   22.3100   49.0060 C   0  0  0  0  0  0  0  0  0  0  0  0
  178.7480   21.3660   48.1890 C   0  0  0  0  0  0  0  0  0  0  0  0
  179.4720   20.4290   47.4100 C   0  0  0  0  0  0  0  0  0  0  0  0
  178.8450   19.4790   46.5980 C   0  0  0  0  0  0  0  0  0  0  0  0
  179.6520   18.5490   45.7800 C   0  0  0  0  0  0  0  0  0  0  0  0
  179.1700   17.2450   45.8100 O   0  0  0  0  0  0  0  0  0  0  0  0
  179.8270   16.2780   45.0930 C   0  0  0  0  0  0  0  0  0  0  0  0
  179.3170   14.9820   45.1630 C   0  0  0  0  0  0  0  0  0  0  0  0
  179.9380   13.9500   44.4550 C   0  0  0  0  0  0  0  0  0  0  0  0
  181.0680   14.2140   43.6790 C   0  0  0  0  0  0  0  0  0  0  0  0
  181.5750   15.5090   43.6110 C   0  0  0  0  0  0  0  0  0  0  0  0
  182.6840   15.6990   42.8320 O   0  0  0  0  0  0  0  0  0  0  0  0
  180.9540   16.5410   44.3200 C   0  0  0  0  0  0  0  0  0  0  0  0
  181.4540   17.9160   44.2770 C   0  0  0  0  0  0  0  0  0  0  0  0
  182.4390   18.2290   43.6110 O   0  0  0  0  0  0  0  0  0  0  0  0
  180.7290   18.9350   45.0690 C   0  0  0  0  0  0  0  0  0  0  0  0
  181.2030   20.2320   45.0110 O   0  0  0  0  0  0  0  0  0  0  0  0
  177.4560   19.4810   46.5610 C   0  0  0  0  0  0  0  0  0  0  0  0
  176.7220   20.3880   47.3350 C   0  0  0  0  0  0  0  0  0  0  0  0
  177.3290   21.3410   48.1860 C   0  0  0  0  0  0  0  0  0  0  0  0
  176.4240   22.2980   49.0100 C   0  0  0  0  0  0  0  0  0  0  0  0
  176.6520   23.7880   48.6690 C   0  0  0  0  0  0  0  0  0  0  0  0
  176.6630   22.2000   50.5450 C   0  0  0  0  0  0  0  0  0  0  0  0
  174.9460   21.9230   48.7750 C   0  0  0  0  0  0  0  0  0  0  0  0
  179.4226   22.1205   50.0762 H   0  0  0  0  0  0  0  0  0  0  0  0
  180.6543   22.1506   48.7691 H   0  0  0  0  0  0  0  0  0  0  0  0
  179.3152   23.3479   48.7691 H   0  0  0  0  0  0  0  0  0  0  0  0
  180.5712   20.4500   47.4457 H   0  0  0  0  0  0  0  0  0  0  0  0
  178.4271   14.7725   45.7747 H   0  0  0  0  0  0  0  0  0  0  0  0
  179.5358   12.9276   44.5091 H   0  0  0  0  0  0  0  0  0  0  0  0
  181.5568   13.4008   43.1225 H   0  0  0  0  0  0  0  0  0  0  0  0
  182.6160   15.6460   41.8990 H   0  0  0  0  0  0  0  0  0  0  0  0
  182.0960   20.3940   44.7790 H   0  0  0  0  0  0  0  0  0  0  0  0
  176.9276   18.7626   45.9170 H   0  0  0  0  0  0  0  0  0  0  0  0
  175.6238   20.3581   47.2788 H   0  0  0  0  0  0  0  0  0  0  0  0
  176.7407   24.3677   49.5996 H   0  0  0  0  0  0  0  0  0  0  0  0
  177.5766   23.8926   48.0823 H   0  0  0  0  0  0  0  0  0  0  0  0
  175.8010   24.1643   48.0823 H   0  0  0  0  0  0  0  0  0  0  0  0
  175.7730   22.5649   51.0787 H   0  0  0  0  0  0  0  0  0  0  0  0
  176.8517   21.1519   50.8205 H   0  0  0  0  0  0  0  0  0  0  0  0
  177.5332   22.8139   50.8205 H   0  0  0  0  0  0  0  0  0  0  0  0
  174.4416   21.7950   49.7441 H   0  0  0  0  0  0  0  0  0  0  0  0
  174.4504   22.7239   48.2067 H   0  0  0  0  0  0  0  0  0  0  0  0
  174.8922   20.9827   48.2067 H   0  0  0  0  0  0  0  0  0  0  0  0
  1  2  1  0
  2  3  2  0
  3  4  1  0
  4  5  1  0
  5  6  1  0
  6  7  1  0
  7  8  2  0
  8  9  1  0
  9 10  2  0
 10 11  1  0
 11 12  1  0
 11 13  2  0
 13 14  1  0
 14 15  2  0
 14 16  1  0
 16 17  1  0
  4 18  2  0
 18 19  1  0
 19 20  2  0
 20 21  1  0
 21 22  1  0
 21 23  1  0
 21 24  1  0
 20  2  1  0
 16  5  2  0
 13  7  1  0
  1 25  1  0
  1 26  1  0
  1 27  1  0
  3 28  1  0
  8 29  1  0
  9 30  1  0
 10 31  1  0
 12 32  1  0
 17 33  1  0
 18 34  1  0
 19 35  1  0
 22 36  1  0
 22 37  1  0
 22 38  1  0
 23 39  1  0
 23 40  1  0
 23 41  1  0
 24 42  1  0
 24 43  1  0
 24 44  1  0
M  END
>  <meeko>  (1) 
{"is_sidechain": [false], "free_energy": -7.723, "intermolecular_energy": -9.078, "internal_energy": 0.074}

$$$$
cand_043_out
     RDKit          3D

 44 46  0  0  0  0  0  0  0  0999 V2000
  176.9530   19.4220   46.2330 C   0  0  0  0  0  0  0  0  0  0  0  0
  177.7660   20.2610   47.1840 C   0  0  0  0  0  0  0  0  0  0  0  0
  177.0230   20.9140   48.1990 C   0  0  0  0  0  0  0  0  0  0  0  0
  177.6210   21.7280   49.1670 C   0  0  0  0  0  0  0  0  0  0  0  0
  176.7900   22.4120   50.1800 C   0  0  0  0  0  0  0  0  0  0  0  0
  175.7290   23.1170   49.6220 O   0  0  0  0  0  0  0  0  0  0  0  0
  174.8770   23.8000   50.4520 C   0  0  0  0  0  0  0  0  0  0  0  0
  173.8360   24.5050   49.8480 C   0  0  0  0  0  0  0  0  0  0  0  0
  172.9310   25.2210   50.6360 C   0  0  0  0  0  0  0  0  0  0  0  0
  173.0680   25.2320   52.0250 C   0  0  0  0  0  0  0  0  0  0  0  0
  174.1090   24.5280   52.6250 C   0  0  0  0  0  0  0  0  0  0  0  0
  174.1850   24.5810   53.9900 O   0  0  0  0  0  0  0  0  0  0  0  0
  175.0150   23.8130   51.8360 C   0  0  0  0  0  0  0  0  0  0  0  0
  176.1220   23.0590   52.4260 C   0  0  0  0  0  0  0  0  0  0  0  0
  176.3050   23.0150   53.6410 O   0  0  0  0  0  0  0  0  0  0  0  0
  177.0300   22.3400   51.5030 C   0  0  0  0  0  0  0  0  0  0  0  0
  178.0660   21.6220   52.0720 O   0  0  0  0  0  0  0  0  0  0  0  0
  178.9980   21.8960   49.1030 C   0  0  0  0  0  0  0  0  0  0  0  0
  179.7530   21.2460   48.1190 C   0  0  0  0  0  0  0  0  0  0  0  0
  179.1780   20.3970   47.1440 C   0  0  0  0  0  0  0  0  0  0  0  0
  180.1050   19.7160   46.1000 C   0  0  0  0  0  0  0  0  0  0  0  0
  180.0450   20.3900   44.7100 C   0  0  0  0  0  0  0  0  0  0  0  0
  179.7440   18.2260   45.8350 C   0  0  0  0  0  0  0  0  0  0  0  0
  181.5550   19.7260   46.6270 C   0  0  0  0  0  0  0  0  0  0  0  0
  176.2995   18.7476   46.8058 H   0  0  0  0  0  0  0  0  0  0  0  0
  176.3379   20.0779   45.5994 H   0  0  0  0  0  0  0  0  0  0  0  0
  177.6279   18.8279   45.5994 H   0  0  0  0  0  0  0  0  0  0  0  0
  175.9321   20.7752   48.2268 H   0  0  0  0  0  0  0  0  0  0  0  0
  173.7276   24.4974   48.7534 H   0  0  0  0  0  0  0  0  0  0  0  0
  172.1093   25.7769   50.1609 H   0  0  0  0  0  0  0  0  0  0  0  0
  172.3550   25.7957   52.6446 H   0  0  0  0  0  0  0  0  0  0  0  0
  174.9500   24.9320   54.4030 H   0  0  0  0  0  0  0  0  0  0  0  0
  177.9190   21.1310   52.8560 H   0  0  0  0  0  0  0  0  0  0  0  0
  179.5011   22.5468   49.8333 H   0  0  0  0  0  0  0  0  0  0  0  0
  180.8417   21.4024   48.1033 H   0  0  0  0  0  0  0  0  0  0  0  0
  179.9481   21.4787   44.8343 H   0  0  0  0  0  0  0  0  0  0  0  0
  180.9667   20.1651   44.1534 H   0  0  0  0  0  0  0  0  0  0  0  0
  179.1775   20.0058   44.1534 H   0  0  0  0  0  0  0  0  0  0  0  0
  179.6173   17.7032   46.7945 H   0  0  0  0  0  0  0  0  0  0  0  0
  178.8068   18.1722   45.2616 H   0  0  0  0  0  0  0  0  0  0  0  0
  180.5526   17.7492   45.2616 H   0  0  0  0  0  0  0  0  0  0  0  0
  181.5454   19.7259   47.7270 H   0  0  0  0  0  0  0  0  0  0  0  0
  182.0829   18.8315   46.2649 H   0  0  0  0  0  0  0  0  0  0  0  0
  182.0705   20.6277   46.2649 H   0  0  0  0  0  0  0  0  0  0  0  0
  1  2  1  0
  2  3  2  0
  3  4  1  0
  4  5  1  0
  5  6  1  0
  6  7  1  0
  7  8  2  0
  8  9  1  0
  9 10  2  0
 10 11  1  0
 11 12  1  0
 11 13  2  0
 13 14  1  0
 14 15  2  0
 14 16  1  0
 16 17  1  0
  4 18  2  0
 18 19  1  0
 19 20  2  0
 20 21  1  0
 21 22  1  0
 21 23  1  0
 21 24  1  0
 20  2  1  0
 16  5  2  0
 13  7  1  0
  1 25  1  0
  1 26  1  0
  1 27  1  0
  3 28  1  0
  8 29  1  0
  9 30  1  0
 10 31  1  0
 12 32  1  0
 17 33  1  0
 18 34  1  0
 19 35  1  0
 22 36  1  0
 22 37  1  0
 22 38  1  0
 23 39  1  0
 23 40  1  0
 23 41  1  0
 24 42  1  0
 24 43  1  0
 24 44  1  0
M  END
>  <meeko>  (2) 
{"is_sidechain": [false], "free_energy": -7.546, "intermolecular_energy": -8.797, "internal_energy": 0.002}

$$$$
cand_043_out
     RDKit          3D

 44 46  0  0  0  0  0  0  0  0999 V2000
  177.1250   22.7390   48.7940 C   0  0  0  0  0  0  0  0  0  0  0  0
  178.1920   21.8620   48.1930 C   0  0  0  0  0  0  0  0  0  0  0  0
  179.5230   22.2970   48.4080 C   0  0  0  0  0  0  0  0  0  0  0  0
  180.6330   21.5970   47.9220 C   0  0  0  0  0  0  0  0  0  0  0  0
  181.9980   22.1190   48.1470 C   0  0  0  0  0  0  0  0  0  0  0  0
  182.4630   22.8910   47.0880 O   0  0  0  0  0  0  0  0  0  0  0  0
  183.7180   23.4370   47.1670 C   0  0  0  0  0  0  0  0  0  0  0  0
  184.1500   24.1920   46.0760 C   0  0  0  0  0  0  0  0  0  0  0  0
  185.4180   24.7780   46.0920 C   0  0  0  0  0  0  0  0  0  0  0  0
  186.2530   24.6080   47.1970 C   0  0  0  0  0  0  0  0  0  0  0  0
  185.8200   23.8540   48.2850 C   0  0  0  0  0  0  0  0  0  0  0  0
  186.6890   23.7280   49.3340 O   0  0  0  0  0  0  0  0  0  0  0  0
  184.5520   23.2670   48.2680 C   0  0  0  0  0  0  0  0  0  0  0  0
  184.0580   22.4670   49.3890 C   0  0  0  0  0  0  0  0  0  0  0  0
  184.7320   22.2780   50.4000 O   0  0  0  0  0  0  0  0  0  0  0  0
  182.7030   21.8820   49.2700 C   0  0  0  0  0  0  0  0  0  0  0  0
  182.2420   21.1380   50.3410 O   0  0  0  0  0  0  0  0  0  0  0  0
  180.3940   20.4400   47.1930 C   0  0  0  0  0  0  0  0  0  0  0  0
  179.0870   19.9840   46.9830 C   0  0  0  0  0  0  0  0  0  0  0  0
  177.9480   20.6560   47.4860 C   0  0  0  0  0  0  0  0  0  0  0  0
  176.5400   20.0620   47.2050 C   0  0  0  0  0  0  0  0  0  0  0  0
  175.5560   21.0970   46.6130 C   0  0  0  0  0  0  0  0  0  0  0  0
  175.8320   19.5250   48.4810 C   0  0  0  0  0  0  0  0  0  0  0  0
  176.6800   18.8610   46.2460 C   0  0  0  0  0  0  0  0  0  0  0  0
  177.1849   22.6897   49.8913 H   0  0  0  0  0  0  0  0  0  0  0  0
  177.2757   23.7777   48.4648 H   0  0  0  0  0  0  0  0  0  0  0  0
  176.1351   22.3900   48.4648 H   0  0  0  0  0  0  0  0  0  0  0  0
  179.6906   23.2217   48.9797 H   0  0  0  0  0  0  0  0  0  0  0  0
  183.4927   24.3256   45.2041 H   0  0  0  0  0  0  0  0  0  0  0  0
  185.7586   25.3741   45.2326 H   0  0  0  0  0  0  0  0  0  0  0  0
  187.2518   25.0688   47.2087 H   0  0  0  0  0  0  0  0  0  0  0  0
  187.2180   22.9590   49.4150 H   0  0  0  0  0  0  0  0  0  0  0  0
  181.3240   20.9860   50.4430 H   0  0  0  0  0  0  0  0  0  0  0  0
  181.2408   19.8753   46.7758 H   0  0  0  0  0  0  0  0  0  0  0  0
  178.9391   19.0623   46.4011 H   0  0  0  0  0  0  0  0  0  0  0  0
  175.0490   21.6303   47.4306 H   0  0  0  0  0  0  0  0  0  0  0  0
  176.1104   21.8174   45.9936 H   0  0  0  0  0  0  0  0  0  0  0  0
  174.8085   20.5797   45.9936 H   0  0  0  0  0  0  0  0  0  0  0  0
  176.3431   19.9127   49.3746 H   0  0  0  0  0  0  0  0  0  0  0  0
  174.7832   19.8568   48.4856 H   0  0  0  0  0  0  0  0  0  0  0  0
  175.8688   18.4256   48.4856 H   0  0  0  0  0  0  0  0  0  0  0  0
  176.7879   17.9355   46.8307 H   0  0  0  0  0  0  0  0  0  0  0  0
  175.7838   18.7917   45.6119 H   0  0  0  0  0  0  0  0  0  0  0  0
  177.5681   18.9997   45.6119 H   0  0  0  0  0  0  0  0  0  0  0  0
  1  2  1  0
  2  3  2  0
  3  4  1  0
  4  5  1  0
  5  6  1  0
  6  7  1  0
  7  8  2  0
  8  9  1  0
  9 10  2  0
 10 11  1  0
 11 12  1  0
 11 13  2  0
 13 14  1  0
 14 15  2  0
 14 16  1  0
 16 17  1  0
  4 18  2  0
 18 19  1  0
 19 20  2  0
 20 21  1  0
 21 22  1  0
 21 23  1  0
 21 24  1  0
 20  2  1  0
 16  5  2  0
 13  7  1  0
  1 25  1  0
  1 26  1  0
  1 27  1  0
  3 28  1  0
  8 29  1  0
  9 30  1  0
 10 31  1  0
 12 32  1  0
 17 33  1  0
 18 34  1  0
 19 35  1  0
 22 36  1  0
 22 37  1  0
 22 38  1  0
 23 39  1  0
 23 40  1  0
 23 41  1  0
 24 42  1  0
 24 43  1  0
 24 44  1  0
M  END
>  <meeko>  (3) 
{"is_sidechain": [false], "free_energy": -7.506, "intermolecular_energy": -8.5, "internal_energy": -0.249}

$$$$
cand_043_out
     RDKit          3D

 44 46  0  0  0  0  0  0  0  0999 V2000
  182.7310   25.2740   47.3700 C   0  0  0  0  0  0  0  0  0  0  0  0
  182.6170   24.0160   48.1900 C   0  0  0  0  0  0  0  0  0  0  0  0
  181.2960   23.5420   48.3880 C   0  0  0  0  0  0  0  0  0  0  0  0
  181.0120   22.3850   49.1210 C   0  0  0  0  0  0  0  0  0  0  0  0
  179.6110   21.9580   49.3250 C   0  0  0  0  0  0  0  0  0  0  0  0
  178.9600   21.6550   48.1340 O   0  0  0  0  0  0  0  0  0  0  0  0
  177.6530   21.2460   48.1790 C   0  0  0  0  0  0  0  0  0  0  0  0
  177.0340   20.9660   46.9590 C   0  0  0  0  0  0  0  0  0  0  0  0
  175.7040   20.5430   46.9340 C   0  0  0  0  0  0  0  0  0  0  0  0
  174.9920   20.3990   48.1260 C   0  0  0  0  0  0  0  0  0  0  0  0
  175.6110   20.6780   49.3420 C   0  0  0  0  0  0  0  0  0  0  0  0
  174.8560   20.5170   50.4720 O   0  0  0  0  0  0  0  0  0  0  0  0
  176.9430   21.1030   49.3670 C   0  0  0  0  0  0  0  0  0  0  0  0
  177.6310   21.4080   50.6220 C   0  0  0  0  0  0  0  0  0  0  0  0
  177.0740   21.2980   51.7120 O   0  0  0  0  0  0  0  0  0  0  0  0
  179.0390   21.8570   50.5400 C   0  0  0  0  0  0  0  0  0  0  0  0
  179.6830   22.1300   51.7320 O   0  0  0  0  0  0  0  0  0  0  0  0
  182.0830   21.6970   49.6770 C   0  0  0  0  0  0  0  0  0  0  0  0
  183.3970   22.1390   49.4790 C   0  0  0  0  0  0  0  0  0  0  0  0
  183.7160   23.2900   48.7190 C   0  0  0  0  0  0  0  0  0  0  0  0
  185.2070   23.6910   48.5530 C   0  0  0  0  0  0  0  0  0  0  0  0
  185.6630   23.7200   47.0770 C   0  0  0  0  0  0  0  0  0  0  0  0
  186.1900   22.7100   49.2540 C   0  0  0  0  0  0  0  0  0  0  0  0
  185.4340   25.0730   49.2010 C   0  0  0  0  0  0  0  0  0  0  0  0
  182.8097   26.1427   48.0402 H   0  0  0  0  0  0  0  0  0  0  0  0
  183.6278   25.2180   46.7354 H   0  0  0  0  0  0  0  0  0  0  0  0
  181.8388   25.3802   46.7354 H   0  0  0  0  0  0  0  0  0  0  0  0
  180.4609   24.1065   47.9477 H   0  0  0  0  0  0  0  0  0  0  0  0
  177.5938   21.0786   46.0188 H   0  0  0  0  0  0  0  0  0  0  0  0
  175.2160   20.3227   45.9731 H   0  0  0  0  0  0  0  0  0  0  0  0
  173.9439   20.0658   48.1049 H   0  0  0  0  0  0  0  0  0  0  0  0
  174.2810   19.7810   50.5490 H   0  0  0  0  0  0  0  0  0  0  0  0
  179.4110   21.7020   52.5190 H   0  0  0  0  0  0  0  0  0  0  0  0
  181.8970   20.7955   50.2792 H   0  0  0  0  0  0  0  0  0  0  0  0
  184.2182   21.5661   49.9345 H   0  0  0  0  0  0  0  0  0  0  0  0
  186.7599   23.7898   47.0334 H   0  0  0  0  0  0  0  0  0  0  0  0
  185.3339   22.7991   46.5734 H   0  0  0  0  0  0  0  0  0  0  0  0
  185.2198   24.5918   46.5734 H   0  0  0  0  0  0  0  0  0  0  0  0
  186.0909   22.8089   50.3451 H   0  0  0  0  0  0  0  0  0  0  0  0
  185.9527   21.6780   48.9563 H   0  0  0  0  0  0  0  0  0  0  0  0
  187.2215   22.9495   48.9563 H   0  0  0  0  0  0  0  0  0  0  0  0
  185.4174   24.9716   50.2962 H   0  0  0  0  0  0  0  0  0  0  0  0
  186.4095   25.4707   48.8844 H   0  0  0  0  0  0  0  0  0  0  0  0
  184.6370   25.7618   48.8844 H   0  0  0  0  0  0  0  0  0  0  0  0
  1  2  1  0
  2  3  2  0
  3  4  1  0
  4  5  1  0
  5  6  1  0
  6  7  1  0
  7  8  2  0
  8  9  1  0
  9 10  2  0
 10 11  1  0
 11 12  1  0
 11 13  2  0
 13 14  1  0
 14 15  2  0
 14 16  1  0
 16 17  1  0
  4 18  2  0
 18 19  1  0
 19 20  2  0
 20 21  1  0
 21 22  1  0
 21 23  1  0
 21 24  1  0
 20  2  1  0
 16  5  2  0
 13  7  1  0
  1 25  1  0
  1 26  1  0
  1 27  1  0
  3 28  1  0
  8 29  1  0
  9 30  1  0
 10 31  1  0
 12 32  1  0
 17 33  1  0
 18 34  1  0
 19 35  1  0
 22 36  1  0
 22 37  1  0
 22 38  1  0
 23 39  1  0
 23 40  1  0
 23 41  1  0
 24 42  1  0
 24 43  1  0
 24 44  1  0
M  END
>  <meeko>  (4) 
{"is_sidechain": [false], "free_energy": -7.432, "intermolecular_energy": -8.551, "internal_energy": -0.111}

$$$$
cand_043_out
     RDKit          3D

 44 46  0  0  0  0  0  0  0  0999 V2000
  175.1370   26.1460   50.3330 C   0  0  0  0  0  0  0  0  0  0  0  0
  175.0770   24.7170   49.8580 C   0  0  0  0  0  0  0  0  0  0  0  0
  176.3340   24.1070   49.6210 C   0  0  0  0  0  0  0  0  0  0  0  0
  176.4590   22.7850   49.1820 C   0  0  0  0  0  0  0  0  0  0  0  0
  177.7960   22.2120   48.9170 C   0  0  0  0  0  0  0  0  0  0  0  0
  177.9390   21.7530   47.6120 O   0  0  0  0  0  0  0  0  0  0  0  0
  179.1330   21.1960   47.2320 C   0  0  0  0  0  0  0  0  0  0  0  0
  179.2270   20.7360   45.9180 C   0  0  0  0  0  0  0  0  0  0  0  0
  180.4160   20.1600   45.4660 C   0  0  0  0  0  0  0  0  0  0  0  0
  181.5090   20.0430   46.3260 C   0  0  0  0  0  0  0  0  0  0  0  0
  181.4130   20.5030   47.6370 C   0  0  0  0  0  0  0  0  0  0  0  0
  182.5210   20.3570   48.4260 O   0  0  0  0  0  0  0  0  0  0  0  0
  180.2220   21.0790   48.0900 C   0  0  0  0  0  0  0  0  0  0  0  0
  180.0790   21.5740   49.4590 C   0  0  0  0  0  0  0  0  0  0  0  0
  180.9980   21.5130   50.2730 O   0  0  0  0  0  0  0  0  0  0  0  0
  178.7740   22.1610   49.8420 C   0  0  0  0  0  0  0  0  0  0  0  0
  178.6530   22.6370   51.1340 O   0  0  0  0  0  0  0  0  0  0  0  0
  175.2910   22.0660   48.9640 C   0  0  0  0  0  0  0  0  0  0  0  0
  174.0390   22.6450   49.2080 C   0  0  0  0  0  0  0  0  0  0  0  0
  173.8840   23.9710   49.6790 C   0  0  0  0  0  0  0  0  0  0  0  0
  172.4510   24.5170   49.9260 C   0  0  0  0  0  0  0  0  0  0  0  0
  171.4450   24.0900   48.8330 C   0  0  0  0  0  0  0  0  0  0  0  0
  172.3800   26.0710   49.9450 C   0  0  0  0  0  0  0  0  0  0  0  0
  171.9590   24.0410   51.3090 C   0  0  0  0  0  0  0  0  0  0  0  0
  175.1379   26.1671   51.4328 H   0  0  0  0  0  0  0  0  0  0  0  0
  176.0558   26.6193   49.9565 H   0  0  0  0  0  0  0  0  0  0  0  0
  174.2611   26.6946   49.9565 H   0  0  0  0  0  0  0  0  0  0  0  0
  177.2474   24.6965   49.7889 H   0  0  0  0  0  0  0  0  0  0  0  0
  178.3660   20.8270   45.2394 H   0  0  0  0  0  0  0  0  0  0  0  0
  180.4914   19.7977   44.4301 H   0  0  0  0  0  0  0  0  0  0  0  0
  182.4448   19.5882   45.9689 H   0  0  0  0  0  0  0  0  0  0  0  0
  182.4720   19.8530   49.2140 H   0  0  0  0  0  0  0  0  0  0  0  0
  178.9330   22.1090   51.8550 H   0  0  0  0  0  0  0  0  0  0  0  0
  175.3496   21.0311   48.5959 H   0  0  0  0  0  0  0  0  0  0  0  0
  173.1367   22.0429   49.0256 H   0  0  0  0  0  0  0  0  0  0  0  0
  170.5313   23.7022   49.3070 H   0  0  0  0  0  0  0  0  0  0  0  0
  171.1930   24.9587   48.2071 H   0  0  0  0  0  0  0  0  0  0  0  0
  171.8948   23.3052   48.2071 H   0  0  0  0  0  0  0  0  0  0  0  0
  172.3638   26.4246   50.9865 H   0  0  0  0  0  0  0  0  0  0  0  0
  173.2602   26.4846   49.4310 H   0  0  0  0  0  0  0  0  0  0  0  0
  171.4658   26.4026   49.4310 H   0  0  0  0  0  0  0  0  0  0  0  0
  172.5101   24.5742   52.0977 H   0  0  0  0  0  0  0  0  0  0  0  0
  170.8836   24.2503   51.4076 H   0  0  0  0  0  0  0  0  0  0  0  0
  172.1326   22.9593   51.4076 H   0  0  0  0  0  0  0  0  0  0  0  0
  1  2  1  0
  2  3  2  0
  3  4  1  0
  4  5  1  0
  5  6  1  0
  6  7  1  0
  7  8  2  0
  8  9  1  0
  9 10  2  0
 10 11  1  0
 11 12  1  0
 11 13  2  0
 13 14  1  0
 14 15  2  0
 14 16  1  0
 16 17  1  0
  4 18  2  0
 18 19  1  0
 19 20  2  0
 20 21  1  0
 21 22  1  0
 21 23  1  0
 21 24  1  0
 20  2  1  0
 16  5  2  0
 13  7  1  0
  1 25  1  0
  1 26  1  0
  1 27  1  0
  3 28  1  0
  8 29  1  0
  9 30  1  0
 10 31  1  0
 12 32  1  0
 17 33  1  0
 18 34  1  0
 19 35  1  0
 22 36  1  0
 22 37  1  0
 22 38  1  0
 23 39  1  0
 23 40  1  0
 23 41  1  0
 24 42  1  0
 24 43  1  0
 24 44  1  0
M  END
>  <meeko>  (5) 
{"is_sidechain": [false], "free_energy": -7.352, "intermolecular_energy": -8.929, "internal_energy": 0.362}

$$$$
cand_043_out
     RDKit          3D

 44 46  0  0  0  0  0  0  0  0999 V2000
  171.8030   24.2410   48.8510 C   0  0  0  0  0  0  0  0  0  0  0  0
  173.0380   23.8310   49.6100 C   0  0  0  0  0  0  0  0  0  0  0  0
  173.9610   23.0420   48.8790 C   0  0  0  0  0  0  0  0  0  0  0  0
  175.1610   22.5810   49.4310 C   0  0  0  0  0  0  0  0  0  0  0  0
  176.0700   21.7320   48.6310 C   0  0  0  0  0  0  0  0  0  0  0  0
  177.3460   22.2710   48.5090 O   0  0  0  0  0  0  0  0  0  0  0  0
  178.2900   21.5850   47.7910 C   0  0  0  0  0  0  0  0  0  0  0  0
  179.5520   22.1700   47.6820 C   0  0  0  0  0  0  0  0  0  0  0  0
  180.5610   21.5220   46.9650 C   0  0  0  0  0  0  0  0  0  0  0  0
  180.3080   20.2910   46.3580 C   0  0  0  0  0  0  0  0  0  0  0  0
  179.0480   19.7090   46.4680 C   0  0  0  0  0  0  0  0  0  0  0  0
  178.8680   18.5020   45.8490 O   0  0  0  0  0  0  0  0  0  0  0  0
  178.0380   20.3580   47.1840 C   0  0  0  0  0  0  0  0  0  0  0  0
  176.7000   19.7810   47.3250 C   0  0  0  0  0  0  0  0  0  0  0  0
  176.4030   18.6980   46.8250 O   0  0  0  0  0  0  0  0  0  0  0  0
  175.7000   20.5520   48.0980 C   0  0  0  0  0  0  0  0  0  0  0  0
  174.4430   19.9920   48.2340 O   0  0  0  0  0  0  0  0  0  0  0  0
  175.4300   22.9120   50.7530 C   0  0  0  0  0  0  0  0  0  0  0  0
  174.5380   23.7040   51.4870 C   0  0  0  0  0  0  0  0  0  0  0  0
  173.3310   24.2070   50.9460 C   0  0  0  0  0  0  0  0  0  0  0  0
  172.4150   25.0840   51.8420 C   0  0  0  0  0  0  0  0  0  0  0  0
  171.0070   24.4780   52.0410 C   0  0  0  0  0  0  0  0  0  0  0  0
  172.1580   26.5020   51.2580 C   0  0  0  0  0  0  0  0  0  0  0  0
  173.0960   25.2930   53.2110 C   0  0  0  0  0  0  0  0  0  0  0  0
  171.0065   24.5054   49.5621 H   0  0  0  0  0  0  0  0  0  0  0  0
  172.0333   25.1109   48.2183 H   0  0  0  0  0  0  0  0  0  0  0  0
  171.4674   23.4061   48.2183 H   0  0  0  0  0  0  0  0  0  0  0  0
  173.7245   22.7819   47.8367 H   0  0  0  0  0  0  0  0  0  0  0  0
  179.7523   23.1402   48.1600 H   0  0  0  0  0  0  0  0  0  0  0  0
  181.5562   21.9827   46.8788 H   0  0  0  0  0  0  0  0  0  0  0  0
  181.1028   19.7814   45.7936 H   0  0  0  0  0  0  0  0  0  0  0  0
  179.1910   18.3680   44.9800 H   0  0  0  0  0  0  0  0  0  0  0  0
  174.2910   19.1100   47.9570 H   0  0  0  0  0  0  0  0  0  0  0  0
  176.3530   22.5484   51.2282 H   0  0  0  0  0  0  0  0  0  0  0  0
  174.7868   23.9459   52.5308 H   0  0  0  0  0  0  0  0  0  0  0  0
  170.7957   24.3870   53.1167 H   0  0  0  0  0  0  0  0  0  0  0  0
  170.2566   25.1328   51.5740 H   0  0  0  0  0  0  0  0  0  0  0  0
  170.9668   23.4829   51.5740 H   0  0  0  0  0  0  0  0  0  0  0  0
  172.0279   27.2196   52.0815 H   0  0  0  0  0  0  0  0  0  0  0  0
  173.0159   26.8049   50.6397 H   0  0  0  0  0  0  0  0  0  0  0  0
  171.2484   26.4846   50.6397 H   0  0  0  0  0  0  0  0  0  0  0  0
  172.3783   25.0727   54.0150 H   0  0  0  0  0  0  0  0  0  0  0  0
  173.9611   24.6190   53.2969 H   0  0  0  0  0  0  0  0  0  0  0  0
  173.4340   26.3362   53.2969 H   0  0  0  0  0  0  0  0  0  0  0  0
  1  2  1  0
  2  3  2  0
  3  4  1  0
  4  5  1  0
  5  6  1  0
  6  7  1  0
  7  8  2  0
  8  9  1  0
  9 10  2  0
 10 11  1  0
 11 12  1  0
 11 13  2  0
 13 14  1  0
 14 15  2  0
 14 16  1  0
 16 17  1  0
  4 18  2  0
 18 19  1  0
 19 20  2  0
 20 21  1  0
 21 22  1  0
 21 23  1  0
 21 24  1  0
 20  2  1  0
 16  5  2  0
 13  7  1  0
  1 25  1  0
  1 26  1  0
  1 27  1  0
  3 28  1  0
  8 29  1  0
  9 30  1  0
 10 31  1  0
 12 32  1  0
 17 33  1  0
 18 34  1  0
 19 35  1  0
 22 36  1  0
 22 37  1  0
 22 38  1  0
 23 39  1  0
 23 40  1  0
 23 41  1  0
 24 42  1  0
 24 43  1  0
 24 44  1  0
M  END
>  <meeko>  (6) 
{"is_sidechain": [false], "free_energy": -7.286, "intermolecular_energy": -8.393, "internal_energy": -0.097}

$$$$
cand_043_out
     RDKit          3D

 44 46  0  0  0  0  0  0  0  0999 V2000
  176.4810   21.6460   50.1090 C   0  0  0  0  0  0  0  0  0  0  0  0
  177.6360   21.4490   49.1610 C   0  0  0  0  0  0  0  0  0  0  0  0
  178.8570   22.0440   49.5640 C   0  0  0  0  0  0  0  0  0  0  0  0
  180.0280   21.9530   48.8040 C   0  0  0  0  0  0  0  0  0  0  0  0
  181.2640   22.6240   49.2590 C   0  0  0  0  0  0  0  0  0  0  0  0
  181.3410   23.9500   48.8480 O   0  0  0  0  0  0  0  0  0  0  0  0
  182.4390   24.6910   49.2010 C   0  0  0  0  0  0  0  0  0  0  0  0
  182.4820   26.0120   48.7540 C   0  0  0  0  0  0  0  0  0  0  0  0
  183.5720   26.8230   49.0810 C   0  0  0  0  0  0  0  0  0  0  0  0
  184.6180   26.3130   49.8520 C   0  0  0  0  0  0  0  0  0  0  0  0
  184.5730   24.9940   50.2960 C   0  0  0  0  0  0  0  0  0  0  0  0
  185.6300   24.5590   51.0470 O   0  0  0  0  0  0  0  0  0  0  0  0
  183.4830   24.1830   49.9690 C   0  0  0  0  0  0  0  0  0  0  0  0
  183.3960   22.7920   50.4150 C   0  0  0  0  0  0  0  0  0  0  0  0
  184.2730   22.2730   51.1030 O   0  0  0  0  0  0  0  0  0  0  0  0
  182.2030   22.0150   50.0080 C   0  0  0  0  0  0  0  0  0  0  0  0
  182.1260   20.7050   50.4460 O   0  0  0  0  0  0  0  0  0  0  0  0
  179.9620   21.2560   47.6040 C   0  0  0  0  0  0  0  0  0  0  0  0
  178.7700   20.6470   47.1950 C   0  0  0  0  0  0  0  0  0  0  0  0
  177.5790   20.7000   47.9570 C   0  0  0  0  0  0  0  0  0  0  0  0
  176.3100   19.9830   47.4180 C   0  0  0  0  0  0  0  0  0  0  0  0
  175.2110   20.9670   46.9570 C   0  0  0  0  0  0  0  0  0  0  0  0
  175.6160   19.0800   48.4780 C   0  0  0  0  0  0  0  0  0  0  0  0
  176.7100   19.0560   46.2510 C   0  0  0  0  0  0  0  0  0  0  0  0
  176.8431   21.5842   51.1459 H   0  0  0  0  0  0  0  0  0  0  0  0
  176.0295   22.6341   49.9365 H   0  0  0  0  0  0  0  0  0  0  0  0
  175.7275   20.8634   49.9365 H   0  0  0  0  0  0  0  0  0  0  0  0
  178.8854   22.5999   50.5127 H   0  0  0  0  0  0  0  0  0  0  0  0
  181.6591   26.4145   48.1451 H   0  0  0  0  0  0  0  0  0  0  0  0
  183.6058   27.8650   48.7303 H   0  0  0  0  0  0  0  0  0  0  0  0
  185.4760   26.9518   50.1083 H   0  0  0  0  0  0  0  0  0  0  0  0
  185.5360   23.8060   51.5970 H   0  0  0  0  0  0  0  0  0  0  0  0
  182.5340   20.4570   51.2510 H   0  0  0  0  0  0  0  0  0  0  0  0
  180.8566   21.1819   46.9682 H   0  0  0  0  0  0  0  0  0  0  0  0
  178.7586   20.1031   46.2389 H   0  0  0  0  0  0  0  0  0  0  0  0
  174.7198   21.4068   47.8375 H   0  0  0  0  0  0  0  0  0  0  0  0
  175.6646   21.7664   46.3527 H   0  0  0  0  0  0  0  0  0  0  0  0
  174.4664   20.4281   46.3527 H   0  0  0  0  0  0  0  0  0  0  0  0
  175.8830   19.4274   49.4870 H   0  0  0  0  0  0  0  0  0  0  0  0
  174.5250   19.1344   48.3482 H   0  0  0  0  0  0  0  0  0  0  0  0
  175.9493   18.0398   48.3482 H   0  0  0  0  0  0  0  0  0  0  0  0
  177.1158   18.1156   46.6522 H   0  0  0  0  0  0  0  0  0  0  0  0
  175.8250   18.8400   45.6344 H   0  0  0  0  0  0  0  0  0  0  0  0
  177.4743   19.5516   45.6344 H   0  0  0  0  0  0  0  0  0  0  0  0
  1  2  1  0
  2  3  2  0
  3  4  1  0
  4  5  1  0
  5  6  1  0
  6  7  1  0
  7  8  2  0
  8  9  1  0
  9 10  2  0
 10 11  1  0
 11 12  1  0
 11 13  2  0
 13 14  1  0
 14 15  2  0
 14 16  1  0
 16 17  1  0
  4 18  2  0
 18 19  1  0
 19 20  2  0
 20 21  1  0
 21 22  1  0
 21 23  1  0
 21 24  1  0
 20  2  1  0
 16  5  2  0
 13  7  1  0
  1 25  1  0
  1 26  1  0
  1 27  1  0
  3 28  1  0
  8 29  1  0
  9 30  1  0
 10 31  1  0
 12 32  1  0
 17 33  1  0
 18 34  1  0
 19 35  1  0
 22 36  1  0
 22 37  1  0
 22 38  1  0
 23 39  1  0
 23 40  1  0
 23 41  1  0
 24 42  1  0
 24 43  1  0
 24 44  1  0
M  END
>  <meeko>  (7) 
{"is_sidechain": [false], "free_energy": -7.282, "intermolecular_energy": -8.231, "internal_energy": -0.254}

$$$$
cand_043_out
     RDKit          3D

 44 46  0  0  0  0  0  0  0  0999 V2000
  178.7780   20.3290   45.8260 C   0  0  0  0  0  0  0  0  0  0  0  0
  178.6560   20.8850   47.2210 C   0  0  0  0  0  0  0  0  0  0  0  0
  179.8140   21.5370   47.7140 C   0  0  0  0  0  0  0  0  0  0  0  0
  179.8700   22.1130   48.9870 C   0  0  0  0  0  0  0  0  0  0  0  0
  181.1180   22.7490   49.4620 C   0  0  0  0  0  0  0  0  0  0  0  0
  181.1630   24.1130   49.1950 O   0  0  0  0  0  0  0  0  0  0  0  0
  182.2670   24.8280   49.5830 C   0  0  0  0  0  0  0  0  0  0  0  0
  182.2770   26.1910   49.2820 C   0  0  0  0  0  0  0  0  0  0  0  0
  183.3710   26.9770   49.6500 C   0  0  0  0  0  0  0  0  0  0  0  0
  184.4540   26.4030   50.3170 C   0  0  0  0  0  0  0  0  0  0  0  0
  184.4420   25.0420   50.6160 C   0  0  0  0  0  0  0  0  0  0  0  0
  185.5350   24.5440   51.2710 O   0  0  0  0  0  0  0  0  0  0  0  0
  183.3480   24.2550   50.2470 C   0  0  0  0  0  0  0  0  0  0  0  0
  183.2950   22.8230   50.5410 C   0  0  0  0  0  0  0  0  0  0  0  0
  184.2060   22.2460   51.1310 O   0  0  0  0  0  0  0  0  0  0  0  0
  182.0940   22.0760   50.1010 C   0  0  0  0  0  0  0  0  0  0  0  0
  182.0490   20.7260   50.3950 O   0  0  0  0  0  0  0  0  0  0  0  0
  178.7380   22.0180   49.7860 C   0  0  0  0  0  0  0  0  0  0  0  0
  177.5790   21.3920   49.3120 C   0  0  0  0  0  0  0  0  0  0  0  0
  177.4840   20.8260   48.0190 C   0  0  0  0  0  0  0  0  0  0  0  0
  176.1490   20.1610   47.5860 C   0  0  0  0  0  0  0  0  0  0  0  0
  176.3530   18.8020   46.8790 C   0  0  0  0  0  0  0  0  0  0  0  0
  175.3360   21.0170   46.5730 C   0  0  0  0  0  0  0  0  0  0  0  0
  175.2480   19.9800   48.8250 C   0  0  0  0  0  0  0  0  0  0  0  0
  179.0135   19.2558   45.8783 H   0  0  0  0  0  0  0  0  0  0  0  0
  177.8275   20.4702   45.2906 H   0  0  0  0  0  0  0  0  0  0  0  0
  179.5821   20.8551   45.2906 H   0  0  0  0  0  0  0  0  0  0  0  0
  180.7039   21.5921   47.0697 H   0  0  0  0  0  0  0  0  0  0  0  0
  181.4245   26.6452   48.7558 H   0  0  0  0  0  0  0  0  0  0  0  0
  183.3791   28.0512   49.4135 H   0  0  0  0  0  0  0  0  0  0  0  0
  185.3151   27.0234   50.6061 H   0  0  0  0  0  0  0  0  0  0  0  0
  185.9200   23.7360   50.9930 H   0  0  0  0  0  0  0  0  0  0  0  0
  181.6430   20.4330   51.1860 H   0  0  0  0  0  0  0  0  0  0  0  0
  178.7523   22.4391   50.8021 H   0  0  0  0  0  0  0  0  0  0  0  0
  176.7028   21.3378   49.9748 H   0  0  0  0  0  0  0  0  0  0  0  0
  176.4718   18.0104   47.6335 H   0  0  0  0  0  0  0  0  0  0  0  0
  175.4780   18.5808   46.2502 H   0  0  0  0  0  0  0  0  0  0  0  0
  177.2544   18.8475   46.2502 H   0  0  0  0  0  0  0  0  0  0  0  0
  174.6793   21.7084   47.1213 H   0  0  0  0  0  0  0  0  0  0  0  0
  176.0281   21.5924   45.9407 H   0  0  0  0  0  0  0  0  0  0  0  0
  174.7257   20.3554   45.9407 H   0  0  0  0  0  0  0  0  0  0  0  0
  175.8505   20.1010   49.7373 H   0  0  0  0  0  0  0  0  0  0  0  0
  174.4486   20.7355   48.8106 H   0  0  0  0  0  0  0  0  0  0  0  0
  174.8024   18.9744   48.8106 H   0  0  0  0  0  0  0  0  0  0  0  0
  1  2  1  0
  2  3  2  0
  3  4  1  0
  4  5  1  0
  5  6  1  0
  6  7  1  0
  7  8  2  0
  8  9  1  0
  9 10  2  0
 10 11  1  0
 11 12  1  0
 11 13  2  0
 13 14  1  0
 14 15  2  0
 14 16  1  0
 16 17  1  0
  4 18  2  0
 18 19  1  0
 19 20  2  0
 20 21  1  0
 21 22  1  0
 21 23  1  0
 21 24  1  0
 20  2  1  0
 16  5  2  0
 13  7  1  0
  1 25  1  0
  1 26  1  0
  1 27  1  0
  3 28  1  0
  8 29  1  0
  9 30  1  0
 10 31  1  0
 12 32  1  0
 17 33  1  0
 18 34  1  0
 19 35  1  0
 22 36  1  0
 22 37  1  0
 22 38  1  0
 23 39  1  0
 23 40  1  0
 23 41  1  0
 24 42  1  0
 24 43  1  0
 24 44  1  0
M  END
>  <meeko>  (8) 
{"is_sidechain": [false], "free_energy": -7.175, "intermolecular_energy": -8.168, "internal_energy": -0.192}

$$$$
cand_043_out
     RDKit          3D

 44 46  0  0  0  0  0  0  0  0999 V2000
  174.2040   24.7020   49.6350 C   0  0  0  0  0  0  0  0  0  0  0  0
  175.2660   23.8120   50.2260 C   0  0  0  0  0  0  0  0  0  0  0  0
  176.0870   23.1440   49.2830 C   0  0  0  0  0  0  0  0  0  0  0  0
  177.1230   22.2840   49.6610 C   0  0  0  0  0  0  0  0  0  0  0  0
  177.9250   21.5870   48.6320 C   0  0  0  0  0  0  0  0  0  0  0  0
  179.2210   22.0810   48.5310 O   0  0  0  0  0  0  0  0  0  0  0  0
  180.0720   21.5230   47.6130 C   0  0  0  0  0  0  0  0  0  0  0  0
  181.3580   22.0600   47.5350 C   0  0  0  0  0  0  0  0  0  0  0  0
  182.2770   21.5360   46.6220 C   0  0  0  0  0  0  0  0  0  0  0  0
  181.9110   20.4790   45.7880 C   0  0  0  0  0  0  0  0  0  0  0  0
  180.6260   19.9450   45.8680 C   0  0  0  0  0  0  0  0  0  0  0  0
  180.3330   18.9110   45.0220 O   0  0  0  0  0  0  0  0  0  0  0  0
  179.7070   20.4700   46.7810 C   0  0  0  0  0  0  0  0  0  0  0  0
  178.3480   19.9390   46.8970 C   0  0  0  0  0  0  0  0  0  0  0  0
  177.9530   19.0050   46.2020 O   0  0  0  0  0  0  0  0  0  0  0  0
  177.4480   20.5700   47.8900 C   0  0  0  0  0  0  0  0  0  0  0  0
  176.1710   20.0520   47.9990 O   0  0  0  0  0  0  0  0  0  0  0  0
  177.3290   22.0840   51.0200 C   0  0  0  0  0  0  0  0  0  0  0  0
  176.5390   22.7470   51.9680 C   0  0  0  0  0  0  0  0  0  0  0  0
  175.5030   23.6430   51.6150 C   0  0  0  0  0  0  0  0  0  0  0  0
  174.6900   24.3340   52.7440 C   0  0  0  0  0  0  0  0  0  0  0  0
  174.7270   25.8760   52.6570 C   0  0  0  0  0  0  0  0  0  0  0  0
  175.2140   24.0030   54.1710 C   0  0  0  0  0  0  0  0  0  0  0  0
  173.2290   23.8390   52.6910 C   0  0  0  0  0  0  0  0  0  0  0  0
  173.6336   25.1800   50.4451 H   0  0  0  0  0  0  0  0  0  0  0  0
  174.6783   25.4763   49.0142 H   0  0  0  0  0  0  0  0  0  0  0  0
  173.5245   24.0996   49.0142 H   0  0  0  0  0  0  0  0  0  0  0  0
  175.9018   23.3086   48.2113 H   0  0  0  0  0  0  0  0  0  0  0  0
  181.6475   22.8942   48.1910 H   0  0  0  0  0  0  0  0  0  0  0  0
  183.2911   21.9577   46.5607 H   0  0  0  0  0  0  0  0  0  0  0  0
  182.6349   20.0680   45.0690 H   0  0  0  0  0  0  0  0  0  0  0  0
  179.4400   18.6900   44.8430 H   0  0  0  0  0  0  0  0  0  0  0  0
  176.0400   19.2090   48.3850 H   0  0  0  0  0  0  0  0  0  0  0  0
  178.1207   21.3979   51.3553 H   0  0  0  0  0  0  0  0  0  0  0  0
  176.7331   22.5625   53.0349 H   0  0  0  0  0  0  0  0  0  0  0  0
  174.7372   26.3004   53.6718 H   0  0  0  0  0  0  0  0  0  0  0  0
  175.6330   26.1912   52.1186 H   0  0  0  0  0  0  0  0  0  0  0  0
  173.8372   26.2343   52.1186 H   0  0  0  0  0  0  0  0  0  0  0  0
  174.5333   24.4330   54.9205 H   0  0  0  0  0  0  0  0  0  0  0  0
  175.2600   22.9116   54.3007 H   0  0  0  0  0  0  0  0  0  0  0  0
  176.2193   24.4303   54.3007 H   0  0  0  0  0  0  0  0  0  0  0  0
  172.8482   23.7100   53.7149 H   0  0  0  0  0  0  0  0  0  0  0  0
  172.6106   24.5778   52.1602 H   0  0  0  0  0  0  0  0  0  0  0  0
  173.1870   22.8765   52.1602 H   0  0  0  0  0  0  0  0  0  0  0  0
  1  2  1  0
  2  3  2  0
  3  4  1  0
  4  5  1  0
  5  6  1  0
  6  7  1  0
  7  8  2  0
  8  9  1  0
  9 10  2  0
 10 11  1  0
 11 12  1  0
 11 13  2  0
 13 14  1  0
 14 15  2  0
 14 16  1  0
 16 17  1  0
  4 18  2  0
 18 19  1  0
 19 20  2  0
 20 21  1  0
 21 22  1  0
 21 23  1  0
 21 24  1  0
 20  2  1  0
 16  5  2  0
 13  7  1  0
  1 25  1  0
  1 26  1  0
  1 27  1  0
  3 28  1  0
  8 29  1  0
  9 30  1  0
 10 31  1  0
 12 32  1  0
 17 33  1  0
 18 34  1  0
 19 35  1  0
 22 36  1  0
 22 37  1  0
 22 38  1  0
 23 39  1  0
 23 40  1  0
 23 41  1  0
 24 42  1  0
 24 43  1  0
 24 44  1  0
M  END
>  <meeko>  (9) 
{"is_sidechain": [false], "free_energy": -7.158, "intermolecular_energy": -8.127, "internal_energy": -0.212}

$$$$
