cand_051_out
     RDKit          3D

 44 46  0  0  0  0  0  0  0  0999 V2000
  179.6760   15.1300   45.1800 C   0  0  0  0  0  0  0  0  0  0  0  0
  180.1210   16.5610   45.0550 C   0  0  0  0  0  0  0  0  0  0  0  0
  179.4850   17.5380   45.8440 C   0  0  0  0  0  0  0  0  0  0  0  0
  179.8440   18.8930   45.7790 C   0  0  0  0  0  0  0  0  0  0  0  0
  179.1300   19.8860   46.6100 C   0  0  0  0  0  0  0  0  0  0  0  0
  177.7610   19.6530   46.6710 O   0  0  0  0  0  0  0  0  0  0  0  0
  176.9760   20.5010   47.4110 C   0  0  0  0  0  0  0  0  0  0  0  0
  175.6050   20.2390   47.4340 C   0  0  0  0  0  0  0  0  0  0  0  0
  174.7510   21.0630   48.1690 C   0  0  0  0  0  0  0  0  0  0  0  0
  175.2650   22.1480   48.8810 C   0  0  0  0  0  0  0  0  0  0  0  0
  176.6330   22.4070   48.8560 C   0  0  0  0  0  0  0  0  0  0  0  0
  177.0700   23.4860   49.5770 O   0  0  0  0  0  0  0  0  0  0  0  0
  177.4890   21.5830   48.1200 C   0  0  0  0  0  0  0  0  0  0  0  0
  178.9310   21.8200   48.0680 C   0  0  0  0  0  0  0  0  0  0  0  0
  179.4610   22.7510   48.6740 O   0  0  0  0  0  0  0  0  0  0  0  0
  179.7490   20.8930   47.2520 C   0  0  0  0  0  0  0  0  0  0  0  0
  181.1130   21.1190   47.2210 O   0  0  0  0  0  0  0  0  0  0  0  0
  180.8490   19.2690   44.8840 C   0  0  0  0  0  0  0  0  0  0  0  0
  181.4890   18.3140   44.0920 C   0  0  0  0  0  0  0  0  0  0  0  0
  181.1420   16.9540   44.1660 C   0  0  0  0  0  0  0  0  0  0  0  0
  181.8840   15.9740   43.2780 C   0  0  0  0  0  0  0  0  0  0  0  0
  181.0590   15.4700   42.0760 C   0  0  0  0  0  0  0  0  0  0  0  0
  181.5190   14.0620   41.6880 C   0  0  0  0  0  0  0  0  0  0  0  0
  181.1720   16.4000   40.8660 C   0  0  0  0  0  0  0  0  0  0  0  0
  179.5931   14.8634   46.2440 H   0  0  0  0  0  0  0  0  0  0  0  0
  178.6971   15.0066   44.6937 H   0  0  0  0  0  0  0  0  0  0  0  0
  180.4123   14.4732   44.6937 H   0  0  0  0  0  0  0  0  0  0  0  0
  178.6833   17.2303   46.5315 H   0  0  0  0  0  0  0  0  0  0  0  0
  175.1982   19.3843   46.8736 H   0  0  0  0  0  0  0  0  0  0  0  0
  173.6706   20.8568   48.1871 H   0  0  0  0  0  0  0  0  0  0  0  0
  174.5913   22.7966   49.4602 H   0  0  0  0  0  0  0  0  0  0  0  0
  177.9260   23.8350   49.4250 H   0  0  0  0  0  0  0  0  0  0  0  0
  181.6720   20.6960   47.8440 H   0  0  0  0  0  0  0  0  0  0  0  0
  181.1385   20.3271   44.8027 H   0  0  0  0  0  0  0  0  0  0  0  0
  182.2799   18.6319   43.3968 H   0  0  0  0  0  0  0  0  0  0  0  0
  182.7875   16.4703   42.8940 H   0  0  0  0  0  0  0  0  0  0  0  0
  182.1154   15.0947   43.8971 H   0  0  0  0  0  0  0  0  0  0  0  0
  180.0030   15.4527   42.3837 H   0  0  0  0  0  0  0  0  0  0  0  0
  181.7108   13.4750   42.5983 H   0  0  0  0  0  0  0  0  0  0  0  0
  180.7346   13.5708   41.0935 H   0  0  0  0  0  0  0  0  0  0  0  0
  182.4421   14.1287   41.0935 H   0  0  0  0  0  0  0  0  0  0  0  0
  181.2980   17.4369   41.2110 H   0  0  0  0  0  0  0  0  0  0  0  0
  182.0412   16.1075   40.2586 H   0  0  0  0  0  0  0  0  0  0  0  0
  180.2580   16.3241   40.2586 H   0  0  0  0  0  0  0  0  0  0  0  0
  1  2  1  0
  2  3  2  0
  3  4  1  0
  4  5  1  0
  5  6  1  0
  6  7  1  0
  7  8  2  0
  8  9  1  0
  9 10  2  0
 10 11  1  0
 11 12  1  0
 11 13  2  0
 13 14  1  0
 14 15  2  0
 14 16  1  0
 16 17  1  0
  4 18  2  0
 18 19  1  0
 19 20  2  0
 20 21  1  0
 21 22  1  0
 22 23  1  0
 22 24  1  0
 20  2  1  0
 16  5  2  0
 13  7  1  0
  1 25  1  0
  1 26  1  0
  1 27  1  0
  3 28  1  0
  8 29  1  0
  9 30  1  0
 10 31  1  0
 12 32  1  0
 17 33  1  0
 18 34  1  0
 19 35  1  0
 21 36  1  0
 21 37  1  0
 22 38  1  0
 23 39  1  0
 23 40  1  0
 23 41  1  0
 24 42  1  0
 24 43  1  0
 24 44  1  0
M  END
>  <meeko>  (1) 
{"is_sidechain": [false], "free_energy": -8.492, "intermolecular_energy": -10.478, "internal_energy": -0.322}

$$$$
cand_051_out
     RDKit          3D

 44 46  0  0  0  0  0  0  0  0999 V2000
  179.5900   15.1210   45.2190 C   0  0  0  0  0  0  0  0  0  0  0  0
  179.8550   16.5970   45.1090 C   0  0  0  0  0  0  0  0  0  0  0  0
  179.0270   17.4860   45.8200 C   0  0  0  0  0  0  0  0  0  0  0  0
  179.2110   18.8770   45.7630 C   0  0  0  0  0  0  0  0  0  0  0  0
  178.3000   19.7720   46.5070 C   0  0  0  0  0  0  0  0  0  0  0  0
  178.9170   20.9500   46.9150 O   0  0  0  0  0  0  0  0  0  0  0  0
  178.1840   21.8730   47.6180 C   0  0  0  0  0  0  0  0  0  0  0  0
  178.8460   23.0340   48.0200 C   0  0  0  0  0  0  0  0  0  0  0  0
  178.1580   24.0150   48.7370 C   0  0  0  0  0  0  0  0  0  0  0  0
  176.8100   23.8360   49.0520 C   0  0  0  0  0  0  0  0  0  0  0  0
  176.1520   22.6770   48.6480 C   0  0  0  0  0  0  0  0  0  0  0  0
  174.8310   22.5670   48.9890 O   0  0  0  0  0  0  0  0  0  0  0  0
  176.8400   21.6940   47.9320 C   0  0  0  0  0  0  0  0  0  0  0  0
  176.1870   20.4630   47.4900 C   0  0  0  0  0  0  0  0  0  0  0  0
  175.0000   20.2360   47.7210 O   0  0  0  0  0  0  0  0  0  0  0  0
  177.0080   19.4820   46.7430 C   0  0  0  0  0  0  0  0  0  0  0  0
  176.3760   18.3270   46.3180 O   0  0  0  0  0  0  0  0  0  0  0  0
  180.2370   19.3760   44.9570 C   0  0  0  0  0  0  0  0  0  0  0  0
  181.0670   18.5080   44.2430 C   0  0  0  0  0  0  0  0  0  0  0  0
  180.8940   17.1150   44.3110 C   0  0  0  0  0  0  0  0  0  0  0  0
  181.8360   16.2360   43.5110 C   0  0  0  0  0  0  0  0  0  0  0  0
  181.1880   15.5880   42.2700 C   0  0  0  0  0  0  0  0  0  0  0  0
  181.9430   14.3090   41.9000 C   0  0  0  0  0  0  0  0  0  0  0  0
  181.1640   16.5370   41.0700 C   0  0  0  0  0  0  0  0  0  0  0  0
  179.5388   14.8358   46.2801 H   0  0  0  0  0  0  0  0  0  0  0  0
  178.6347   14.8824   44.7287 H   0  0  0  0  0  0  0  0  0  0  0  0
  180.4027   14.5650   44.7287 H   0  0  0  0  0  0  0  0  0  0  0  0
  178.2127   17.0796   46.4378 H   0  0  0  0  0  0  0  0  0  0  0  0
  179.9083   23.1761   47.7724 H   0  0  0  0  0  0  0  0  0  0  0  0
  178.6792   24.9303   49.0541 H   0  0  0  0  0  0  0  0  0  0  0  0
  176.2688   24.6085   49.6180 H   0  0  0  0  0  0  0  0  0  0  0  0
  174.2100   23.1910   48.6680 H   0  0  0  0  0  0  0  0  0  0  0  0
  176.8820   17.6160   45.9740 H   0  0  0  0  0  0  0  0  0  0  0  0
  180.3929   20.4624   44.8838 H   0  0  0  0  0  0  0  0  0  0  0  0
  181.8704   18.9225   43.6163 H   0  0  0  0  0  0  0  0  0  0  0  0
  182.6837   16.8521   43.1766 H   0  0  0  0  0  0  0  0  0  0  0  0
  182.1448   15.4145   44.1742 H   0  0  0  0  0  0  0  0  0  0  0  0
  180.1453   15.3503   42.5274 H   0  0  0  0  0  0  0  0  0  0  0  0
  182.2513   13.7867   42.8177 H   0  0  0  0  0  0  0  0  0  0  0  0
  181.2867   13.6540   41.3082 H   0  0  0  0  0  0  0  0  0  0  0  0
  182.8336   14.5671   41.3082 H   0  0  0  0  0  0  0  0  0  0  0  0
  181.1377   17.5775   41.4259 H   0  0  0  0  0  0  0  0  0  0  0  0
  182.0664   16.3806   40.4607 H   0  0  0  0  0  0  0  0  0  0  0  0
  180.2707   16.3352   40.4607 H   0  0  0  0  0  0  0  0  0  0  0  0
  1  2  1  0
  2  3  2  0
  3  4  1  0
  4  5  1  0
  5  6  1  0
  6  7  1  0
  7  8  2  0
  8  9  1  0
  9 10  2  0
 10 11  1  0
 11 12  1  0
 11 13  2  0
 13 14  1  0
 14 15  2  0
 14 16  1  0
 16 17  1  0
  4 18  2  0
 18 19  1  0
 19 20  2  0
 20 21  1  0
 21 22  1  0
 22 23  1  0
 22 24  1  0
 20  2  1  0
 16  5  2  0
 13  7  1  0
  1 25  1  0
  1 26  1  0
  1 27  1  0
  3 28  1  0
  8 29  1  0
  9 30  1  0
 10 31  1  0
 12 32  1  0
 17 33  1  0
 18 34  1  0
 19 35  1  0
 21 36  1  0
 21 37  1  0
 22 38  1  0
 23 39  1  0
 23 40  1  0
 23 41  1  0
 24 42  1  0
 24 43  1  0
 24 44  1  0
M  END
>  <meeko>  (2) 
{"is_sidechain": [false], "free_energy": -7.517, "intermolecular_energy": -9.491, "internal_energy": -0.105}

$$$$
cand_051_out
     RDKit          3D

 44 46  0  0  0  0  0  0  0  0999 V2000
  175.0790   20.0760   47.2310 C   0  0  0  0  0  0  0  0  0  0  0  0
  176.5700   20.2010   47.3830 C   0  0  0  0  0  0  0  0  0  0  0  0
  177.4000   19.3970   46.5790 C   0  0  0  0  0  0  0  0  0  0  0  0
  178.8000   19.4550   46.6670 C   0  0  0  0  0  0  0  0  0  0  0  0
  179.6300   18.5730   45.8200 C   0  0  0  0  0  0  0  0  0  0  0  0
  179.1660   17.2620   45.7900 O   0  0  0  0  0  0  0  0  0  0  0  0
  179.8450   16.3360   45.0390 C   0  0  0  0  0  0  0  0  0  0  0  0
  179.3540   15.0300   45.0490 C   0  0  0  0  0  0  0  0  0  0  0  0
  179.9970   14.0390   44.3040 C   0  0  0  0  0  0  0  0  0  0  0  0
  181.1300   14.3520   43.5510 C   0  0  0  0  0  0  0  0  0  0  0  0
  181.6170   15.6570   43.5430 C   0  0  0  0  0  0  0  0  0  0  0  0
  182.7300   15.8960   42.7830 O   0  0  0  0  0  0  0  0  0  0  0  0
  180.9750   16.6490   44.2880 C   0  0  0  0  0  0  0  0  0  0  0  0
  181.4540   18.0310   44.3080 C   0  0  0  0  0  0  0  0  0  0  0  0
  182.4400   18.3870   43.6640 O   0  0  0  0  0  0  0  0  0  0  0  0
  180.7050   19.0040   45.1360 C   0  0  0  0  0  0  0  0  0  0  0  0
  181.1590   20.3110   45.1360 O   0  0  0  0  0  0  0  0  0  0  0  0
  179.3680   20.3270   47.5990 C   0  0  0  0  0  0  0  0  0  0  0  0
  178.5590   21.1310   48.4060 C   0  0  0  0  0  0  0  0  0  0  0  0
  177.1580   21.0850   48.3090 C   0  0  0  0  0  0  0  0  0  0  0  0
  176.3460   21.9900   49.2150 C   0  0  0  0  0  0  0  0  0  0  0  0
  176.6610   23.4910   49.0480 C   0  0  0  0  0  0  0  0  0  0  0  0
  175.3830   24.3120   49.2400 C   0  0  0  0  0  0  0  0  0  0  0  0
  177.2730   23.8040   47.6810 C   0  0  0  0  0  0  0  0  0  0  0  0
  174.6110   20.0368   48.2257 H   0  0  0  0  0  0  0  0  0  0  0  0
  174.6927   20.9449   46.6781 H   0  0  0  0  0  0  0  0  0  0  0  0
  174.8427   19.1549   46.6781 H   0  0  0  0  0  0  0  0  0  0  0  0
  176.9383   18.7032   45.8610 H   0  0  0  0  0  0  0  0  0  0  0  0
  178.4620   14.7813   45.6427 H   0  0  0  0  0  0  0  0  0  0  0  0
  179.6097   13.0094   44.3106 H   0  0  0  0  0  0  0  0  0  0  0  0
  181.6367   13.5705   42.9658 H   0  0  0  0  0  0  0  0  0  0  0  0
  183.0630   15.2280   42.2170 H   0  0  0  0  0  0  0  0  0  0  0  0
  181.4840   20.6930   45.9280 H   0  0  0  0  0  0  0  0  0  0  0  0
  180.4622   20.3811   47.6984 H   0  0  0  0  0  0  0  0  0  0  0  0
  179.0277   21.8128   49.1309 H   0  0  0  0  0  0  0  0  0  0  0  0
  175.2797   21.8337   48.9944 H   0  0  0  0  0  0  0  0  0  0  0  0
  176.6081   21.7229   50.2494 H   0  0  0  0  0  0  0  0  0  0  0  0
  177.4029   23.7606   49.8141 H   0  0  0  0  0  0  0  0  0  0  0  0
  175.1864   24.4383   50.3149 H   0  0  0  0  0  0  0  0  0  0  0  0
  175.5077   25.2994   48.7715 H   0  0  0  0  0  0  0  0  0  0  0  0
  174.5368   23.7881   48.7715 H   0  0  0  0  0  0  0  0  0  0  0  0
  178.2446   24.3009   47.8193 H   0  0  0  0  0  0  0  0  0  0  0  0
  177.4162   22.8684   47.1205 H   0  0  0  0  0  0  0  0  0  0  0  0
  176.5982   24.4677   47.1205 H   0  0  0  0  0  0  0  0  0  0  0  0
  1  2  1  0
  2  3  2  0
  3  4  1  0
  4  5  1  0
  5  6  1  0
  6  7  1  0
  7  8  2  0
  8  9  1  0
  9 10  2  0
 10 11  1  0
 11 12  1  0
 11 13  2  0
 13 14  1  0
 14 15  2  0
 14 16  1  0
 16 17  1  0
  4 18  2  0
 18 19  1  0
 19 20  2  0
 20 21  1  0
 21 22  1  0
 22 23  1  0
 22 24  1  0
 20  2  1  0
 16  5  2  0
 13  7  1  0
  1 25  1  0
  1 26  1  0
  1 27  1  0
  3 28  1  0
  8 29  1  0
  9 30  1  0
 10 31  1  0
 12 32  1  0
 17 33  1  0
 18 34  1  0
 19 35  1  0
 21 36  1  0
 21 37  1  0
 22 38  1  0
 23 39  1  0
 23 40  1  0
 23 41  1  0
 24 42  1  0
 24 43  1  0
 24 44  1  0
M  END
>  <meeko>  (3) 
{"is_sidechain": [false], "free_energy": -7.11, "intermolecular_energy": -8.99, "internal_energy": -0.104}

$$$$
cand_051_out
     RDKit          3D

 44 46  0  0  0  0  0  0  0  0999 V2000
  182.8290   18.4950   43.8850 C   0  0  0  0  0  0  0  0  0  0  0  0
  181.5170   18.1860   44.5510 C   0  0  0  0  0  0  0  0  0  0  0  0
  180.8900   19.1940   45.3070 C   0  0  0  0  0  0  0  0  0  0  0  0
  179.6660   18.9770   45.9610 C   0  0  0  0  0  0  0  0  0  0  0  0
  179.0580   20.0590   46.7640 C   0  0  0  0  0  0  0  0  0  0  0  0
  177.6820   19.9140   46.9090 O   0  0  0  0  0  0  0  0  0  0  0  0
  176.9900   20.8510   47.6330 C   0  0  0  0  0  0  0  0  0  0  0  0
  175.6090   20.6750   47.7420 C   0  0  0  0  0  0  0  0  0  0  0  0
  174.8450   21.5920   48.4670 C   0  0  0  0  0  0  0  0  0  0  0  0
  175.4600   22.6830   49.0830 C   0  0  0  0  0  0  0  0  0  0  0  0
  176.8370   22.8560   48.9740 C   0  0  0  0  0  0  0  0  0  0  0  0
  177.3740   23.9460   49.6030 O   0  0  0  0  0  0  0  0  0  0  0  0
  177.6020   21.9400   48.2470 C   0  0  0  0  0  0  0  0  0  0  0  0
  179.0510   22.0840   48.1080 C   0  0  0  0  0  0  0  0  0  0  0  0
  179.6660   23.0140   48.6270 O   0  0  0  0  0  0  0  0  0  0  0  0
  179.7680   21.0620   47.3100 C   0  0  0  0  0  0  0  0  0  0  0  0
  181.1390   21.2020   47.1960 O   0  0  0  0  0  0  0  0  0  0  0  0
  179.0790   17.7140   45.8630 C   0  0  0  0  0  0  0  0  0  0  0  0
  179.6880   16.7010   45.1180 C   0  0  0  0  0  0  0  0  0  0  0  0
  180.9060   16.9200   44.4510 C   0  0  0  0  0  0  0  0  0  0  0  0
  181.5060   15.7750   43.6590 C   0  0  0  0  0  0  0  0  0  0  0  0
  180.8020   15.5080   42.3120 C   0  0  0  0  0  0  0  0  0  0  0  0
  181.5010   14.3570   41.5830 C   0  0  0  0  0  0  0  0  0  0  0  0
  180.7800   16.7480   41.4160 C   0  0  0  0  0  0  0  0  0  0  0  0
  183.5961   18.6757   44.6524 H   0  0  0  0  0  0  0  0  0  0  0  0
  183.1313   17.6435   43.2577 H   0  0  0  0  0  0  0  0  0  0  0  0
  182.7195   19.3919   43.2577 H   0  0  0  0  0  0  0  0  0  0  0  0
  181.3720   20.1794   45.3880 H   0  0  0  0  0  0  0  0  0  0  0  0
  175.1235   19.8151   47.2574 H   0  0  0  0  0  0  0  0  0  0  0  0
  173.7570   21.4543   48.5527 H   0  0  0  0  0  0  0  0  0  0  0  0
  174.8576   23.4050   49.6537 H   0  0  0  0  0  0  0  0  0  0  0  0
  177.1730   24.8090   49.2990 H   0  0  0  0  0  0  0  0  0  0  0  0
  181.6960   20.9610   47.9110 H   0  0  0  0  0  0  0  0  0  0  0  0
  178.1274   17.5145   46.3775 H   0  0  0  0  0  0  0  0  0  0  0  0
  179.2058   15.7145   45.0522 H   0  0  0  0  0  0  0  0  0  0  0  0
  182.5616   16.0095   43.4573 H   0  0  0  0  0  0  0  0  0  0  0  0
  181.3831   14.8674   44.2682 H   0  0  0  0  0  0  0  0  0  0  0  0
  179.7583   15.2386   42.5314 H   0  0  0  0  0  0  0  0  0  0  0  0
  181.9247   13.6594   42.3205 H   0  0  0  0  0  0  0  0  0  0  0  0
  180.7726   13.8262   40.9524 H   0  0  0  0  0  0  0  0  0  0  0  0
  182.3079   14.7586   40.9524 H   0  0  0  0  0  0  0  0  0  0  0  0
  180.7640   17.6524   42.0419 H   0  0  0  0  0  0  0  0  0  0  0  0
  181.6781   16.7575   40.7809 H   0  0  0  0  0  0  0  0  0  0  0  0
  179.8821   16.7256   40.7809 H   0  0  0  0  0  0  0  0  0  0  0  0
  1  2  1  0
  2  3  2  0
  3  4  1  0
  4  5  1  0
  5  6  1  0
  6  7  1  0
  7  8  2  0
  8  9  1  0
  9 10  2  0
 10 11  1  0
 11 12  1  0
 11 13  2  0
 13 14  1  0
 14 15  2  0
 14 16  1  0
 16 17  1  0
  4 18  2  0
 18 19  1  0
 19 20  2  0
 20 21  1  0
 21 22  1  0
 22 23  1  0
 22 24  1  0
 20  2  1  0
 16  5  2  0
 13  7  1  0
  1 25  1  0
  1 26  1  0
  1 27  1  0
  3 28  1  0
  8 29  1  0
  9 30  1  0
 10 31  1  0
 12 32  1  0
 17 33  1  0
 18 34  1  0
 19 35  1  0
 21 36  1  0
 21 37  1  0
 22 38  1  0
 23 39  1  0
 23 40  1  0
 23 41  1  0
 24 42  1  0
 24 43  1  0
 24 44  1  0
M  END
>  <meeko>  (4) 
{"is_sidechain": [false], "free_energy": -6.754, "intermolecular_energy": -8.498, "internal_energy": -0.157}

$$$$
cand_051_out
     RDKit          3D

 44 46  0  0  0  0  0  0  0  0999 V2000
  182.1890   21.4140   46.5940 C   0  0  0  0  0  0  0  0  0  0  0  0
  181.0510   20.4580   46.3720 C   0  0  0  0  0  0  0  0  0  0  0  0
  181.2430   19.3720   45.4970 C   0  0  0  0  0  0  0  0  0  0  0  0
  180.2250   18.4400   45.2370 C   0  0  0  0  0  0  0  0  0  0  0  0
  180.4660   17.3300   44.2900 C   0  0  0  0  0  0  0  0  0  0  0  0
  180.7680   17.7710   43.0070 O   0  0  0  0  0  0  0  0  0  0  0  0
  181.0150   16.8430   42.0280 C   0  0  0  0  0  0  0  0  0  0  0  0
  181.3010   17.3300   40.7510 C   0  0  0  0  0  0  0  0  0  0  0  0
  181.5630   16.4380   39.7090 C   0  0  0  0  0  0  0  0  0  0  0  0
  181.5400   15.0620   39.9420 C   0  0  0  0  0  0  0  0  0  0  0  0
  181.2550   14.5790   41.2170 C   0  0  0  0  0  0  0  0  0  0  0  0
  181.2500   13.2200   41.3760 O   0  0  0  0  0  0  0  0  0  0  0  0
  180.9920   15.4710   42.2600 C   0  0  0  0  0  0  0  0  0  0  0  0
  180.6880   15.0060   43.6130 C   0  0  0  0  0  0  0  0  0  0  0  0
  180.6570   13.8110   43.9000 O   0  0  0  0  0  0  0  0  0  0  0  0
  180.4160   16.0330   44.6460 C   0  0  0  0  0  0  0  0  0  0  0  0
  180.1440   15.5830   45.9250 O   0  0  0  0  0  0  0  0  0  0  0  0
  178.9870   18.6230   45.8570 C   0  0  0  0  0  0  0  0  0  0  0  0
  178.7790   19.6960   46.7270 C   0  0  0  0  0  0  0  0  0  0  0  0
  179.8000   20.6210   47.0000 C   0  0  0  0  0  0  0  0  0  0  0  0
  179.5010   21.7580   47.9580 C   0  0  0  0  0  0  0  0  0  0  0  0
  178.1820   22.5000   47.6590 C   0  0  0  0  0  0  0  0  0  0  0  0
  178.4570   23.9960   47.4890 C   0  0  0  0  0  0  0  0  0  0  0  0
  177.1390   22.2900   48.7580 C   0  0  0  0  0  0  0  0  0  0  0  0
  182.3494   21.5487   47.6739 H   0  0  0  0  0  0  0  0  0  0  0  0
  183.1030   21.0088   46.1353 H   0  0  0  0  0  0  0  0  0  0  0  0
  181.9476   22.3842   46.1353 H   0  0  0  0  0  0  0  0  0  0  0  0
  182.2181   19.2499   45.0028 H   0  0  0  0  0  0  0  0  0  0  0  0
  181.3199   18.4142   40.5661 H   0  0  0  0  0  0  0  0  0  0  0  0
  181.7880   16.8206   38.7025 H   0  0  0  0  0  0  0  0  0  0  0  0
  181.7465   14.3604   39.1203 H   0  0  0  0  0  0  0  0  0  0  0  0
  181.5160   12.8420   42.1910 H   0  0  0  0  0  0  0  0  0  0  0  0
  180.6300   15.9180   46.6530 H   0  0  0  0  0  0  0  0  0  0  0  0
  178.1682   17.9158   45.6584 H   0  0  0  0  0  0  0  0  0  0  0  0
  177.7971   19.8188   47.2073 H   0  0  0  0  0  0  0  0  0  0  0  0
  179.4430   21.3461   48.9763 H   0  0  0  0  0  0  0  0  0  0  0  0
  180.3121   22.4922   47.8436 H   0  0  0  0  0  0  0  0  0  0  0  0
  177.7719   22.0825   46.7276 H   0  0  0  0  0  0  0  0  0  0  0  0
  178.5437   24.4677   48.4789 H   0  0  0  0  0  0  0  0  0  0  0  0
  179.3958   24.1354   46.9329 H   0  0  0  0  0  0  0  0  0  0  0  0
  177.6291   24.4601   46.9329 H   0  0  0  0  0  0  0  0  0  0  0  0
  177.6195   22.3867   49.7428 H   0  0  0  0  0  0  0  0  0  0  0  0
  176.3465   23.0466   48.6608 H   0  0  0  0  0  0  0  0  0  0  0  0
  176.7010   21.2856   48.6608 H   0  0  0  0  0  0  0  0  0  0  0  0
  1  2  1  0
  2  3  2  0
  3  4  1  0
  4  5  1  0
  5  6  1  0
  6  7  1  0
  7  8  2  0
  8  9  1  0
  9 10  2  0
 10 11  1  0
 11 12  1  0
 11 13  2  0
 13 14  1  0
 14 15  2  0
 14 16  1  0
 16 17  1  0
  4 18  2  0
 18 19  1  0
 19 20  2  0
 20 21  1  0
 21 22  1  0
 22 23  1  0
 22 24  1  0
 20  2  1  0
 16  5  2  0
 13  7  1  0
  1 25  1  0
  1 26  1  0
  1 27  1  0
  3 28  1  0
  8 29  1  0
  9 30  1  0
 10 31  1  0
 12 32  1  0
 17 33  1  0
 18 34  1  0
 19 35  1  0
 21 36  1  0
 21 37  1  0
 22 38  1  0
 23 39  1  0
 23 40  1  0
 23 41  1  0
 24 42  1  0
 24 43  1  0
 24 44  1  0
M  END
>  <meeko>  (5) 
{"is_sidechain": [false], "free_energy": -6.025, "intermolecular_energy": -7.183, "internal_energy": -0.573}

$$$$
cand_051_out
     RDKit          3D

 44 46  0  0  0  0  0  0  0  0999 V2000
  180.8060   18.2510   44.7170 C   0  0  0  0  0  0  0  0  0  0  0  0
  180.9630   19.5360   45.4820 C   0  0  0  0  0  0  0  0  0  0  0  0
  182.1460   20.2800   45.3160 C   0  0  0  0  0  0  0  0  0  0  0  0
  182.3650   21.4860   46.0000 C   0  0  0  0  0  0  0  0  0  0  0  0
  183.6350   22.2200   45.8120 C   0  0  0  0  0  0  0  0  0  0  0  0
  184.2380   21.9490   44.5890 O   0  0  0  0  0  0  0  0  0  0  0  0
  185.4260   22.5650   44.2840 C   0  0  0  0  0  0  0  0  0  0  0  0
  186.0040   22.2530   43.0530 C   0  0  0  0  0  0  0  0  0  0  0  0
  187.2110   22.8470   42.6800 C   0  0  0  0  0  0  0  0  0  0  0  0
  187.8400   23.7520   43.5370 C   0  0  0  0  0  0  0  0  0  0  0  0
  187.2610   24.0620   44.7650 C   0  0  0  0  0  0  0  0  0  0  0  0
  187.9300   24.9570   45.5550 O   0  0  0  0  0  0  0  0  0  0  0  0
  186.0530   23.4670   45.1390 C   0  0  0  0  0  0  0  0  0  0  0  0
  185.4110   23.7640   46.4190 C   0  0  0  0  0  0  0  0  0  0  0  0
  185.8990   24.5560   47.2240 O   0  0  0  0  0  0  0  0  0  0  0  0
  184.1360   23.0750   46.7230 C   0  0  0  0  0  0  0  0  0  0  0  0
  183.5310   23.3740   47.9300 O   0  0  0  0  0  0  0  0  0  0  0  0
  181.3790   21.9350   46.8820 C   0  0  0  0  0  0  0  0  0  0  0  0
  180.2000   21.2080   47.0600 C   0  0  0  0  0  0  0  0  0  0  0  0
  179.9720   20.0080   46.3660 C   0  0  0  0  0  0  0  0  0  0  0  0
  178.6660   19.2760   46.6080 C   0  0  0  0  0  0  0  0  0  0  0  0
  177.5040   20.1930   47.0400 C   0  0  0  0  0  0  0  0  0  0  0  0
  176.5430   19.4190   47.9460 C   0  0  0  0  0  0  0  0  0  0  0  0
  176.7370   20.7580   45.8410 C   0  0  0  0  0  0  0  0  0  0  0  0
  180.7037   17.4139   45.4233 H   0  0  0  0  0  0  0  0  0  0  0  0
  179.9082   18.3084   44.0840 H   0  0  0  0  0  0  0  0  0  0  0  0
  181.6912   18.0906   44.0840 H   0  0  0  0  0  0  0  0  0  0  0  0
  182.9210   19.9058   44.6308 H   0  0  0  0  0  0  0  0  0  0  0  0
  185.5092   21.5399   42.3773 H   0  0  0  0  0  0  0  0  0  0  0  0
  187.6671   22.6017   41.7095 H   0  0  0  0  0  0  0  0  0  0  0  0
  188.7913   24.2194   43.2428 H   0  0  0  0  0  0  0  0  0  0  0  0
  188.2960   24.6790   46.3710 H   0  0  0  0  0  0  0  0  0  0  0  0
  184.0430   23.7100   48.6390 H   0  0  0  0  0  0  0  0  0  0  0  0
  181.5327   22.8696   47.4413 H   0  0  0  0  0  0  0  0  0  0  0  0
  179.4354   21.5820   47.7568 H   0  0  0  0  0  0  0  0  0  0  0  0
  178.3771   18.7669   45.6767 H   0  0  0  0  0  0  0  0  0  0  0  0
  178.8430   18.5746   47.4367 H   0  0  0  0  0  0  0  0  0  0  0  0
  177.9394   21.0421   47.5872 H   0  0  0  0  0  0  0  0  0  0  0  0
  176.7908   19.6186   48.9990 H   0  0  0  0  0  0  0  0  0  0  0  0
  175.5104   19.7406   47.7450 H   0  0  0  0  0  0  0  0  0  0  0  0
  176.6372   18.3416   47.7450 H   0  0  0  0  0  0  0  0  0  0  0  0
  175.8996   21.3749   46.1991 H   0  0  0  0  0  0  0  0  0  0  0  0
  177.4129   21.3756   45.2313 H   0  0  0  0  0  0  0  0  0  0  0  0
  176.3476   19.9294   45.2313 H   0  0  0  0  0  0  0  0  0  0  0  0
  1  2  1  0
  2  3  2  0
  3  4  1  0
  4  5  1  0
  5  6  1  0
  6  7  1  0
  7  8  2  0
  8  9  1  0
  9 10  2  0
 10 11  1  0
 11 12  1  0
 11 13  2  0
 13 14  1  0
 14 15  2  0
 14 16  1  0
 16 17  1  0
  4 18  2  0
 18 19  1  0
 19 20  2  0
 20 21  1  0
 21 22  1  0
 22 23  1  0
 22 24  1  0
 20  2  1  0
 16  5  2  0
 13  7  1  0
  1 25  1  0
  1 26  1  0
  1 27  1  0
  3 28  1  0
  8 29  1  0
  9 30  1  0
 10 31  1  0
 12 32  1  0
 17 33  1  0
 18 34  1  0
 19 35  1  0
 21 36  1  0
 21 37  1  0
 22 38  1  0
 23 39  1  0
 23 40  1  0
 23 41  1  0
 24 42  1  0
 24 43  1  0
 24 44  1  0
M  END
>  <meeko>  (6) 
{"is_sidechain": [false], "free_energy": -5.559, "intermolecular_energy": -7.034, "internal_energy": -0.147}

$$$$
