cand_019_out
     RDKit          3D

 35 37  0  0  0  0  0  0  0  0999 V2000
  179.7150   21.7280   48.4300 O   0  0  0  0  0  0  0  0  0  0  0  0
  179.1620   20.8620   47.7560 C   0  0  0  0  0  0  0  0  0  0  0  0
  179.9600   19.9380   46.9170 C   0  0  0  0  0  0  0  0  0  0  0  0
  181.3320   20.1120   46.9210 O   0  0  0  0  0  0  0  0  0  0  0  0
  179.3140   19.0050   46.1950 C   0  0  0  0  0  0  0  0  0  0  0  0
  180.0060   18.0400   45.3130 C   0  0  0  0  0  0  0  0  0  0  0  0
  180.9650   18.4490   44.3820 C   0  0  0  0  0  0  0  0  0  0  0  0
  181.6230   17.5170   43.5750 C   0  0  0  0  0  0  0  0  0  0  0  0
  181.3390   16.1470   43.6810 C   0  0  0  0  0  0  0  0  0  0  0  0
  182.0730   15.1670   42.8010 C   0  0  0  0  0  0  0  0  0  0  0  0
  181.3110   14.7360   41.7560 F   0  0  0  0  0  0  0  0  0  0  0  0
  180.3930   15.7130   44.6340 C   0  0  0  0  0  0  0  0  0  0  0  0
  180.0670   14.2460   44.8060 C   0  0  0  0  0  0  0  0  0  0  0  0
  180.9220   13.6200   45.6630 F   0  0  0  0  0  0  0  0  0  0  0  0
  178.8210   14.0310   45.3230 F   0  0  0  0  0  0  0  0  0  0  0  0
  179.7370   16.6680   45.4340 C   0  0  0  0  0  0  0  0  0  0  0  0
  177.9320   18.8570   46.1780 O   0  0  0  0  0  0  0  0  0  0  0  0
  177.1660   19.6930   46.9500 C   0  0  0  0  0  0  0  0  0  0  0  0
  175.7840   19.5030   46.9110 C   0  0  0  0  0  0  0  0  0  0  0  0
  174.9470   20.3210   47.6730 C   0  0  0  0  0  0  0  0  0  0  0  0
  175.4910   21.3290   48.4720 C   0  0  0  0  0  0  0  0  0  0  0  0
  176.8700   21.5160   48.5090 C   0  0  0  0  0  0  0  0  0  0  0  0
  177.3350   22.5200   49.3130 O   0  0  0  0  0  0  0  0  0  0  0  0
  177.7070   20.6970   47.7470 C   0  0  0  0  0  0  0  0  0  0  0  0
  181.7170   20.7920   47.4400 H   0  0  0  0  0  0  0  0  0  0  0  0
  181.2048   19.5180   44.2833 H   0  0  0  0  0  0  0  0  0  0  0  0
  182.3728   17.8616   42.8477 H   0  0  0  0  0  0  0  0  0  0  0  0
  182.9745   15.6558   42.4030 H   0  0  0  0  0  0  0  0  0  0  0  0
  182.3278   14.2904   43.4146 H   0  0  0  0  0  0  0  0  0  0  0  0
  180.1461   13.8428   43.7856 H   0  0  0  0  0  0  0  0  0  0  0  0
  178.9950   16.3302   46.1724 H   0  0  0  0  0  0  0  0  0  0  0  0
  175.3546   18.7101   46.2810 H   0  0  0  0  0  0  0  0  0  0  0  0
  173.8577   20.1711   47.6438 H   0  0  0  0  0  0  0  0  0  0  0  0
  174.8311   21.9739   49.0709 H   0  0  0  0  0  0  0  0  0  0  0  0
  178.0720   22.3710   49.8720 H   0  0  0  0  0  0  0  0  0  0  0  0
  1  2  2  0
  2  3  1  0
  3  4  1  0
  3  5  2  0
  5  6  1  0
  6  7  2  0
  7  8  1  0
  8  9  2  0
  9 10  1  0
 10 11  1  0
  9 12  1  0
 12 13  1  0
 13 14  1  0
 13 15  1  0
 12 16  2  0
  5 17  1  0
 17 18  1  0
 18 19  2  0
 19 20  1  0
 20 21  2  0
 21 22  1  0
 22 23  1  0
 22 24  2  0
 24  2  1  0
 16  6  1  0
 24 18  1  0
  4 25  1  0
  7 26  1  0
  8 27  1  0
 10 28  1  0
 10 29  1  0
 13 30  1  0
 16 31  1  0
 19 32  1  0
 20 33  1  0
 21 34  1  0
 23 35  1  0
M  END
>  <meeko>  (1) 
{"is_sidechain": [false], "free_energy": -7.988, "intermolecular_energy": -9.855, "internal_energy": -0.351}

$$$$
cand_019_out
     RDKit          3D

 35 37  0  0  0  0  0  0  0  0999 V2000
  176.4080   23.2920   53.9130 O   0  0  0  0  0  0  0  0  0  0  0  0
  176.1420   23.4320   52.7220 C   0  0  0  0  0  0  0  0  0  0  0  0
  176.3430   22.3150   51.7700 C   0  0  0  0  0  0  0  0  0  0  0  0
  176.8520   21.1360   52.2830 O   0  0  0  0  0  0  0  0  0  0  0  0
  176.0390   22.5120   50.4740 C   0  0  0  0  0  0  0  0  0  0  0  0
  176.2120   21.4740   49.4340 C   0  0  0  0  0  0  0  0  0  0  0  0
  175.2760   20.4510   49.2530 C   0  0  0  0  0  0  0  0  0  0  0  0
  175.4480   19.4940   48.2490 C   0  0  0  0  0  0  0  0  0  0  0  0
  176.5610   19.5370   47.3970 C   0  0  0  0  0  0  0  0  0  0  0  0
  176.7120   18.4940   46.3190 C   0  0  0  0  0  0  0  0  0  0  0  0
  175.7170   17.5630   46.3540 F   0  0  0  0  0  0  0  0  0  0  0  0
  177.5010   20.5790   47.5480 C   0  0  0  0  0  0  0  0  0  0  0  0
  178.7080   20.6870   46.6410 C   0  0  0  0  0  0  0  0  0  0  0  0
  179.2190   21.9490   46.6050 F   0  0  0  0  0  0  0  0  0  0  0  0
  179.7450   19.8900   47.0330 F   0  0  0  0  0  0  0  0  0  0  0  0
  177.3150   21.5310   48.5690 C   0  0  0  0  0  0  0  0  0  0  0  0
  175.5540   23.7110   49.9650 O   0  0  0  0  0  0  0  0  0  0  0  0
  175.3510   24.7620   50.8230 C   0  0  0  0  0  0  0  0  0  0  0  0
  174.8540   25.9430   50.2710 C   0  0  0  0  0  0  0  0  0  0  0  0
  174.6250   27.0520   51.0890 C   0  0  0  0  0  0  0  0  0  0  0  0
  174.8940   26.9800   52.4580 C   0  0  0  0  0  0  0  0  0  0  0  0
  175.3910   25.7990   53.0050 C   0  0  0  0  0  0  0  0  0  0  0  0
  175.6320   25.7980   54.3520 O   0  0  0  0  0  0  0  0  0  0  0  0
  175.6190   24.6910   52.1860 C   0  0  0  0  0  0  0  0  0  0  0  0
  176.8990   20.3710   51.7420 H   0  0  0  0  0  0  0  0  0  0  0  0
  174.3941   20.3989   49.9084 H   0  0  0  0  0  0  0  0  0  0  0  0
  174.7004   18.6966   48.1255 H   0  0  0  0  0  0  0  0  0  0  0  0
  176.6942   18.9935   45.3391 H   0  0  0  0  0  0  0  0  0  0  0  0
  177.6656   17.9724   46.4881 H   0  0  0  0  0  0  0  0  0  0  0  0
  178.3226   20.3768   45.6585 H   0  0  0  0  0  0  0  0  0  0  0  0
  178.0520   22.3384   48.6911 H   0  0  0  0  0  0  0  0  0  0  0  0
  174.6427   26.0008   49.1930 H   0  0  0  0  0  0  0  0  0  0  0  0
  174.2323   27.9832   50.6546 H   0  0  0  0  0  0  0  0  0  0  0  0
  174.7139   27.8533   53.1022 H   0  0  0  0  0  0  0  0  0  0  0  0
  174.9210   25.8770   54.9560 H   0  0  0  0  0  0  0  0  0  0  0  0
  1  2  2  0
  2  3  1  0
  3  4  1  0
  3  5  2  0
  5  6  1  0
  6  7  2  0
  7  8  1  0
  8  9  2  0
  9 10  1  0
 10 11  1  0
  9 12  1  0
 12 13  1  0
 13 14  1  0
 13 15  1  0
 12 16  2  0
  5 17  1  0
 17 18  1  0
 18 19  2  0
 19 20  1  0
 20 21  2  0
 21 22  1  0
 22 23  1  0
 22 24  2  0
 24  2  1  0
 16  6  1  0
 24 18  1  0
  4 25  1  0
  7 26  1  0
  8 27  1  0
 10 28  1  0
 10 29  1  0
 13 30  1  0
 16 31  1  0
 19 32  1  0
 20 33  1  0
 21 34  1  0
 23 35  1  0
M  END
>  <meeko>  (2) 
{"is_sidechain": [false], "free_energy": -7.473, "intermolecular_energy": -9.01, "internal_energy": -0.561}

$$$$
cand_019_out
     RDKit          3D

 35 37  0  0  0  0  0  0  0  0999 V2000
  171.1880   23.6990   51.6980 O   0  0  0  0  0  0  0  0  0  0  0  0
  172.4120   23.5890   51.7250 C   0  0  0  0  0  0  0  0  0  0  0  0
  173.1500   23.1060   50.5350 C   0  0  0  0  0  0  0  0  0  0  0  0
  172.4000   22.7780   49.4210 O   0  0  0  0  0  0  0  0  0  0  0  0
  174.4890   22.9990   50.6090 C   0  0  0  0  0  0  0  0  0  0  0  0
  175.3270   22.5180   49.4890 C   0  0  0  0  0  0  0  0  0  0  0  0
  176.2420   23.3530   48.8410 C   0  0  0  0  0  0  0  0  0  0  0  0
  177.0400   22.8700   47.8000 C   0  0  0  0  0  0  0  0  0  0  0  0
  176.9440   21.5350   47.3810 C   0  0  0  0  0  0  0  0  0  0  0  0
  177.8240   21.0440   46.2600 C   0  0  0  0  0  0  0  0  0  0  0  0
  179.0910   21.5400   46.3390 F   0  0  0  0  0  0  0  0  0  0  0  0
  176.0450   20.6700   48.0410 C   0  0  0  0  0  0  0  0  0  0  0  0
  175.9180   19.2160   47.6450 C   0  0  0  0  0  0  0  0  0  0  0  0
  175.8760   18.3850   48.7240 F   0  0  0  0  0  0  0  0  0  0  0  0
  174.7780   18.9490   46.9430 F   0  0  0  0  0  0  0  0  0  0  0  0
  175.2450   21.1770   49.0840 C   0  0  0  0  0  0  0  0  0  0  0  0
  175.2300   23.3060   51.7440 O   0  0  0  0  0  0  0  0  0  0  0  0
  174.5760   23.7620   52.8600 C   0  0  0  0  0  0  0  0  0  0  0  0
  175.3600   24.0670   53.9740 C   0  0  0  0  0  0  0  0  0  0  0  0
  174.7560   24.5350   55.1430 C   0  0  0  0  0  0  0  0  0  0  0  0
  173.3700   24.6970   55.1990 C   0  0  0  0  0  0  0  0  0  0  0  0
  172.5900   24.3910   54.0860 C   0  0  0  0  0  0  0  0  0  0  0  0
  171.2400   24.5720   54.2100 O   0  0  0  0  0  0  0  0  0  0  0  0
  173.1950   23.9230   52.9170 C   0  0  0  0  0  0  0  0  0  0  0  0
  171.5820   23.2090   49.2630 H   0  0  0  0  0  0  0  0  0  0  0  0
  176.3352   24.4033   49.1543 H   0  0  0  0  0  0  0  0  0  0  0  0
  177.7521   23.5453   47.3032 H   0  0  0  0  0  0  0  0  0  0  0  0
  177.8712   19.9459   46.3030 H   0  0  0  0  0  0  0  0  0  0  0  0
  177.3860   21.3918   45.3128 H   0  0  0  0  0  0  0  0  0  0  0  0
  176.8114   19.0378   47.0285 H   0  0  0  0  0  0  0  0  0  0  0  0
  174.5386   20.5050   49.5934 H   0  0  0  0  0  0  0  0  0  0  0  0
  176.4517   23.9389   53.9311 H   0  0  0  0  0  0  0  0  0  0  0  0
  175.3730   24.7764   56.0211 H   0  0  0  0  0  0  0  0  0  0  0  0
  172.8951   25.0655   56.1202 H   0  0  0  0  0  0  0  0  0  0  0  0
  170.6920   23.8550   54.4600 H   0  0  0  0  0  0  0  0  0  0  0  0
  1  2  2  0
  2  3  1  0
  3  4  1  0
  3  5  2  0
  5  6  1  0
  6  7  2  0
  7  8  1  0
  8  9  2  0
  9 10  1  0
 10 11  1  0
  9 12  1  0
 12 13  1  0
 13 14  1  0
 13 15  1  0
 12 16  2  0
  5 17  1  0
 17 18  1  0
 18 19  2  0
 19 20  1  0
 20 21  2  0
 21 22  1  0
 22 23  1  0
 22 24  2  0
 24  2  1  0
 16  6  1  0
 24 18  1  0
  4 25  1  0
  7 26  1  0
  8 27  1  0
 10 28  1  0
 10 29  1  0
 13 30  1  0
 16 31  1  0
 19 32  1  0
 20 33  1  0
 21 34  1  0
 23 35  1  0
M  END
>  <meeko>  (3) 
{"is_sidechain": [false], "free_energy": -7.467, "intermolecular_energy": -9.098, "internal_energy": -0.466}

$$$$
cand_019_out
     RDKit          3D

 35 37  0  0  0  0  0  0  0  0999 V2000
  182.5550   18.1740   43.6390 O   0  0  0  0  0  0  0  0  0  0  0  0
  181.5480   17.9080   44.2910 C   0  0  0  0  0  0  0  0  0  0  0  0
  180.8630   18.9580   45.0790 C   0  0  0  0  0  0  0  0  0  0  0  0
  181.4170   20.2250   45.0540 O   0  0  0  0  0  0  0  0  0  0  0  0
  179.7640   18.6220   45.7800 C   0  0  0  0  0  0  0  0  0  0  0  0
  179.0080   19.5840   46.6110 C   0  0  0  0  0  0  0  0  0  0  0  0
  179.6510   20.5650   47.3720 C   0  0  0  0  0  0  0  0  0  0  0  0
  178.9150   21.4780   48.1320 C   0  0  0  0  0  0  0  0  0  0  0  0
  177.5130   21.4340   48.1490 C   0  0  0  0  0  0  0  0  0  0  0  0
  176.7490   22.4390   48.9740 C   0  0  0  0  0  0  0  0  0  0  0  0
  176.5020   23.5920   48.2910 F   0  0  0  0  0  0  0  0  0  0  0  0
  176.8460   20.4680   47.3650 C   0  0  0  0  0  0  0  0  0  0  0  0
  175.3350   20.3930   47.3280 C   0  0  0  0  0  0  0  0  0  0  0  0
  174.7900   21.3130   46.4850 F   0  0  0  0  0  0  0  0  0  0  0  0
  174.8700   19.1860   46.8910 F   0  0  0  0  0  0  0  0  0  0  0  0
  177.6050   19.5540   46.6110 C   0  0  0  0  0  0  0  0  0  0  0  0
  179.2320   17.3390   45.8200 O   0  0  0  0  0  0  0  0  0  0  0  0
  179.8410   16.3460   45.0950 C   0  0  0  0  0  0  0  0  0  0  0  0
  179.2670   15.0750   45.1550 C   0  0  0  0  0  0  0  0  0  0  0  0
  179.8380   14.0190   44.4410 C   0  0  0  0  0  0  0  0  0  0  0  0
  180.9810   14.2330   43.6680 C   0  0  0  0  0  0  0  0  0  0  0  0
  181.5510   15.5030   43.6100 C   0  0  0  0  0  0  0  0  0  0  0  0
  182.6690   15.6420   42.8340 O   0  0  0  0  0  0  0  0  0  0  0  0
  180.9800   16.5580   44.3240 C   0  0  0  0  0  0  0  0  0  0  0  0
  181.4040   20.7270   44.2620 H   0  0  0  0  0  0  0  0  0  0  0  0
  180.7497   20.6188   47.3725 H   0  0  0  0  0  0  0  0  0  0  0  0
  179.4416   22.2407   48.7243 H   0  0  0  0  0  0  0  0  0  0  0  0
  175.7889   21.9933   49.2734 H   0  0  0  0  0  0  0  0  0  0  0  0
  177.3659   22.6931   49.8486 H   0  0  0  0  0  0  0  0  0  0  0  0
  175.0409   20.5743   48.3723 H   0  0  0  0  0  0  0  0  0  0  0  0
  177.0852   18.7965   46.0060 H   0  0  0  0  0  0  0  0  0  0  0  0
  178.3665   14.9053   45.7635 H   0  0  0  0  0  0  0  0  0  0  0  0
  179.3865   13.0170   44.4877 H   0  0  0  0  0  0  0  0  0  0  0  0
  181.4303   13.4009   43.1062 H   0  0  0  0  0  0  0  0  0  0  0  0
  183.2390   14.9110   42.6980 H   0  0  0  0  0  0  0  0  0  0  0  0
  1  2  2  0
  2  3  1  0
  3  4  1  0
  3  5  2  0
  5  6  1  0
  6  7  2  0
  7  8  1  0
  8  9  2  0
  9 10  1  0
 10 11  1  0
  9 12  1  0
 12 13  1  0
 13 14  1  0
 13 15  1  0
 12 16  2  0
  5 17  1  0
 17 18  1  0
 18 19  2  0
 19 20  1  0
 20 21  2  0
 21 22  1  0
 22 23  1  0
 22 24  2  0
 24  2  1  0
 16  6  1  0
 24 18  1  0
  4 25  1  0
  7 26  1  0
  8 27  1  0
 10 28  1  0
 10 29  1  0
 13 30  1  0
 16 31  1  0
 19 32  1  0
 20 33  1  0
 21 34  1  0
 23 35  1  0
M  END
>  <meeko>  (4) 
{"is_sidechain": [false], "free_energy": -7.458, "intermolecular_energy": -9.285, "internal_energy": -0.268}

$$$$
cand_019_out
     RDKit          3D

 35 37  0  0  0  0  0  0  0  0999 V2000
  176.6800   22.3720   53.1860 O   0  0  0  0  0  0  0  0  0  0  0  0
  176.7160   22.6400   51.9870 C   0  0  0  0  0  0  0  0  0  0  0  0
  177.8810   22.2420   51.1630 C   0  0  0  0  0  0  0  0  0  0  0  0
  178.9110   21.5820   51.8080 O   0  0  0  0  0  0  0  0  0  0  0  0
  177.8800   22.5560   49.8550 C   0  0  0  0  0  0  0  0  0  0  0  0
  178.9930   22.2220   48.9400 C   0  0  0  0  0  0  0  0  0  0  0  0
  180.2480   22.8290   49.0550 C   0  0  0  0  0  0  0  0  0  0  0  0
  181.2920   22.4800   48.1940 C   0  0  0  0  0  0  0  0  0  0  0  0
  181.1090   21.5130   47.1950 C   0  0  0  0  0  0  0  0  0  0  0  0
  182.2580   21.1550   46.2880 C   0  0  0  0  0  0  0  0  0  0  0  0
  183.1080   22.2010   46.0880 F   0  0  0  0  0  0  0  0  0  0  0  0
  179.8570   20.8700   47.0830 C   0  0  0  0  0  0  0  0  0  0  0  0
  179.6120   19.8020   46.0390 C   0  0  0  0  0  0  0  0  0  0  0  0
  178.4850   19.0790   46.2910 F   0  0  0  0  0  0  0  0  0  0  0  0
  179.4380   20.3100   44.7830 F   0  0  0  0  0  0  0  0  0  0  0  0
  178.8150   21.2380   47.9550 C   0  0  0  0  0  0  0  0  0  0  0  0
  176.8500   23.2440   49.2240 O   0  0  0  0  0  0  0  0  0  0  0  0
  175.7550   23.6200   49.9590 C   0  0  0  0  0  0  0  0  0  0  0  0
  174.7410   24.3000   49.2830 C   0  0  0  0  0  0  0  0  0  0  0  0
  173.5980   24.7110   49.9730 C   0  0  0  0  0  0  0  0  0  0  0  0
  173.4700   24.4440   51.3380 C   0  0  0  0  0  0  0  0  0  0  0  0
  174.4840   23.7650   52.0090 C   0  0  0  0  0  0  0  0  0  0  0  0
  174.2940   23.5370   53.3450 O   0  0  0  0  0  0  0  0  0  0  0  0
  175.6260   23.3540   51.3190 C   0  0  0  0  0  0  0  0  0  0  0  0
  179.4030   22.0200   52.4750 H   0  0  0  0  0  0  0  0  0  0  0  0
  180.4150   23.5896   49.8319 H   0  0  0  0  0  0  0  0  0  0  0  0
  182.2707   22.9705   48.3014 H   0  0  0  0  0  0  0  0  0  0  0  0
  182.8200   20.3249   46.7408 H   0  0  0  0  0  0  0  0  0  0  0  0
  181.8384   20.8726   45.3112 H   0  0  0  0  0  0  0  0  0  0  0  0
  180.5164   19.1780   46.0900 H   0  0  0  0  0  0  0  0  0  0  0  0
  177.8374   20.7423   47.8622 H   0  0  0  0  0  0  0  0  0  0  0  0
  174.8416   24.5121   48.2083 H   0  0  0  0  0  0  0  0  0  0  0  0
  172.7976   25.2457   49.4406 H   0  0  0  0  0  0  0  0  0  0  0  0
  172.5707   24.7692   51.8816 H   0  0  0  0  0  0  0  0  0  0  0  0
  174.6990   24.0950   53.9780 H   0  0  0  0  0  0  0  0  0  0  0  0
  1  2  2  0
  2  3  1  0
  3  4  1  0
  3  5  2  0
  5  6  1  0
  6  7  2  0
  7  8  1  0
  8  9  2  0
  9 10  1  0
 10 11  1  0
  9 12  1  0
 12 13  1  0
 13 14  1  0
 13 15  1  0
 12 16  2  0
  5 17  1  0
 17 18  1  0
 18 19  2  0
 19 20  1  0
 20 21  2  0
 21 22  1  0
 22 23  1  0
 22 24  2  0
 24  2  1  0
 16  6  1  0
 24 18  1  0
  4 25  1  0
  7 26  1  0
  8 27  1  0
 10 28  1  0
 10 29  1  0
 13 30  1  0
 16 31  1  0
 19 32  1  0
 20 33  1  0
 21 34  1  0
 23 35  1  0
M  END
>  <meeko>  (5) 
{"is_sidechain": [false], "free_energy": -7.36, "intermolecular_energy": -8.947, "internal_energy": -0.485}

$$$$
cand_019_out
     RDKit          3D

 35 37  0  0  0  0  0  0  0  0999 V2000
  177.9690   21.1860   47.6880 O   0  0  0  0  0  0  0  0  0  0  0  0
  179.0320   20.8150   47.1950 C   0  0  0  0  0  0  0  0  0  0  0  0
  179.0900   19.5860   46.3720 C   0  0  0  0  0  0  0  0  0  0  0  0
  177.9100   18.8840   46.2050 O   0  0  0  0  0  0  0  0  0  0  0  0
  180.2740   19.2160   45.8520 C   0  0  0  0  0  0  0  0  0  0  0  0
  180.4530   18.0010   45.0270 C   0  0  0  0  0  0  0  0  0  0  0  0
  181.2130   18.0140   43.8530 C   0  0  0  0  0  0  0  0  0  0  0  0
  181.3880   16.8490   43.1010 C   0  0  0  0  0  0  0  0  0  0  0  0
  180.8080   15.6390   43.5050 C   0  0  0  0  0  0  0  0  0  0  0  0
  181.0220   14.3990   42.6740 C   0  0  0  0  0  0  0  0  0  0  0  0
  182.0070   14.5590   41.7460 F   0  0  0  0  0  0  0  0  0  0  0  0
  180.0600   15.6010   44.7010 C   0  0  0  0  0  0  0  0  0  0  0  0
  179.4320   14.3160   45.1960 C   0  0  0  0  0  0  0  0  0  0  0  0
  178.5570   13.7860   44.2960 F   0  0  0  0  0  0  0  0  0  0  0  0
  180.3460   13.3290   45.4310 F   0  0  0  0  0  0  0  0  0  0  0  0
  179.8900   16.7860   45.4430 C   0  0  0  0  0  0  0  0  0  0  0  0
  181.4600   19.9140   46.0490 O   0  0  0  0  0  0  0  0  0  0  0  0
  181.4370   21.0610   46.8020 C   0  0  0  0  0  0  0  0  0  0  0  0
  182.6470   21.7360   46.9660 C   0  0  0  0  0  0  0  0  0  0  0  0
  182.6930   22.9090   47.7210 C   0  0  0  0  0  0  0  0  0  0  0  0
  181.5310   23.4070   48.3130 C   0  0  0  0  0  0  0  0  0  0  0  0
  180.3240   22.7310   48.1480 C   0  0  0  0  0  0  0  0  0  0  0  0
  179.2250   23.2740   48.7550 O   0  0  0  0  0  0  0  0  0  0  0  0
  180.2790   21.5570   47.3920 C   0  0  0  0  0  0  0  0  0  0  0  0
  177.9080   17.9490   46.2690 H   0  0  0  0  0  0  0  0  0  0  0  0
  181.6786   18.9524   43.5175 H   0  0  0  0  0  0  0  0  0  0  0  0
  181.9888   16.8823   42.1801 H   0  0  0  0  0  0  0  0  0  0  0  0
  181.2973   13.5694   43.3418 H   0  0  0  0  0  0  0  0  0  0  0  0
  180.0854   14.1899   42.1363 H   0  0  0  0  0  0  0  0  0  0  0  0
  178.9276   14.6158   46.1265 H   0  0  0  0  0  0  0  0  0  0  0  0
  179.3011   16.7577   46.3717 H   0  0  0  0  0  0  0  0  0  0  0  0
  183.5636   21.3442   46.5009 H   0  0  0  0  0  0  0  0  0  0  0  0
  183.6466   23.4420   47.8498 H   0  0  0  0  0  0  0  0  0  0  0  0
  181.5683   24.3311   48.9085 H   0  0  0  0  0  0  0  0  0  0  0  0
  178.8340   22.8430   49.4890 H   0  0  0  0  0  0  0  0  0  0  0  0
  1  2  2  0
  2  3  1  0
  3  4  1  0
  3  5  2  0
  5  6  1  0
  6  7  2  0
  7  8  1  0
  8  9  2  0
  9 10  1  0
 10 11  1  0
  9 12  1  0
 12 13  1  0
 13 14  1  0
 13 15  1  0
 12 16  2  0
  5 17  1  0
 17 18  1  0
 18 19  2  0
 19 20  1  0
 20 21  2  0
 21 22  1  0
 22 23  1  0
 22 24  2  0
 24  2  1  0
 16  6  1  0
 24 18  1  0
  4 25  1  0
  7 26  1  0
  8 27  1  0
 10 28  1  0
 10 29  1  0
 13 30  1  0
 16 31  1  0
 19 32  1  0
 20 33  1  0
 21 34  1  0
 23 35  1  0
M  END
>  <meeko>  (6) 
{"is_sidechain": [false], "free_energy": -7.27, "intermolecular_energy": -9.338, "internal_energy": 0.016}

$$$$
cand_019_out
     RDKit          3D

 35 37  0  0  0  0  0  0  0  0999 V2000
  180.4440   22.6740   51.8300 O   0  0  0  0  0  0  0  0  0  0  0  0
  179.7130   22.4650   50.8640 C   0  0  0  0  0  0  0  0  0  0  0  0
  178.3140   22.9510   50.8600 C   0  0  0  0  0  0  0  0  0  0  0  0
  177.8790   23.6230   51.9880 O   0  0  0  0  0  0  0  0  0  0  0  0
  177.5490   22.7000   49.7820 C   0  0  0  0  0  0  0  0  0  0  0  0
  176.1360   23.1240   49.6740 C   0  0  0  0  0  0  0  0  0  0  0  0
  175.1260   22.2340   49.2960 C   0  0  0  0  0  0  0  0  0  0  0  0
  173.7950   22.6520   49.2230 C   0  0  0  0  0  0  0  0  0  0  0  0
  173.4380   23.9730   49.5280 C   0  0  0  0  0  0  0  0  0  0  0  0
  171.9910   24.3890   49.4470 C   0  0  0  0  0  0  0  0  0  0  0  0
  171.4330   24.0940   48.2390 F   0  0  0  0  0  0  0  0  0  0  0  0
  174.4400   24.8790   49.9380 C   0  0  0  0  0  0  0  0  0  0  0  0
  174.1070   26.3090   50.3020 C   0  0  0  0  0  0  0  0  0  0  0  0
  173.9760   26.4860   51.6470 F   0  0  0  0  0  0  0  0  0  0  0  0
  175.0680   27.1980   49.9160 F   0  0  0  0  0  0  0  0  0  0  0  0
  175.7770   24.4410   50.0000 C   0  0  0  0  0  0  0  0  0  0  0  0
  177.9890   21.9990   48.6660 O   0  0  0  0  0  0  0  0  0  0  0  0
  179.2820   21.5420   48.6360 C   0  0  0  0  0  0  0  0  0  0  0  0
  179.6850   20.8530   47.4920 C   0  0  0  0  0  0  0  0  0  0  0  0
  180.9890   20.3600   47.3980 C   0  0  0  0  0  0  0  0  0  0  0  0
  181.8890   20.5570   48.4480 C   0  0  0  0  0  0  0  0  0  0  0  0
  181.4840   21.2460   49.5890 C   0  0  0  0  0  0  0  0  0  0  0  0
  182.4150   21.4020   50.5780 O   0  0  0  0  0  0  0  0  0  0  0  0
  180.1800   21.7380   49.6820 C   0  0  0  0  0  0  0  0  0  0  0  0
  177.9750   23.2300   52.8340 H   0  0  0  0  0  0  0  0  0  0  0  0
  175.3825   21.1922   49.0532 H   0  0  0  0  0  0  0  0  0  0  0  0
  173.0168   21.9352   48.9222 H   0  0  0  0  0  0  0  0  0  0  0  0
  171.4281   23.8652   50.2336 H   0  0  0  0  0  0  0  0  0  0  0  0
  171.9475   25.4801   49.5793 H   0  0  0  0  0  0  0  0  0  0  0  0
  173.1611   26.4964   49.7727 H   0  0  0  0  0  0  0  0  0  0  0  0
  176.5593   25.1487   50.3117 H   0  0  0  0  0  0  0  0  0  0  0  0
  178.9769   20.6979   46.6647 H   0  0  0  0  0  0  0  0  0  0  0  0
  181.3072   19.8162   46.4963 H   0  0  0  0  0  0  0  0  0  0  0  0
  182.9156   20.1688   48.3740 H   0  0  0  0  0  0  0  0  0  0  0  0
  182.5040   20.7510   51.2460 H   0  0  0  0  0  0  0  0  0  0  0  0
  1  2  2  0
  2  3  1  0
  3  4  1  0
  3  5  2  0
  5  6  1  0
  6  7  2  0
  7  8  1  0
  8  9  2  0
  9 10  1  0
 10 11  1  0
  9 12  1  0
 12 13  1  0
 13 14  1  0
 13 15  1  0
 12 16  2  0
  5 17  1  0
 17 18  1  0
 18 19  2  0
 19 20  1  0
 20 21  2  0
 21 22  1  0
 22 23  1  0
 22 24  2  0
 24  2  1  0
 16  6  1  0
 24 18  1  0
  4 25  1  0
  7 26  1  0
  8 27  1  0
 10 28  1  0
 10 29  1  0
 13 30  1  0
 16 31  1  0
 19 32  1  0
 20 33  1  0
 21 34  1  0
 23 35  1  0
M  END
>  <meeko>  (7) 
{"is_sidechain": [false], "free_energy": -7.225, "intermolecular_energy": -9.018, "internal_energy": -0.248}

$$$$
cand_019_out
     RDKit          3D

 35 37  0  0  0  0  0  0  0  0999 V2000
  184.3640   22.2540   50.9610 O   0  0  0  0  0  0  0  0  0  0  0  0
  183.9360   22.4260   49.8220 C   0  0  0  0  0  0  0  0  0  0  0  0
  182.6290   21.8590   49.4160 C   0  0  0  0  0  0  0  0  0  0  0  0
  181.9390   21.1270   50.3650 O   0  0  0  0  0  0  0  0  0  0  0  0
  182.2000   22.0710   48.1580 C   0  0  0  0  0  0  0  0  0  0  0  0
  180.9190   21.5430   47.6400 C   0  0  0  0  0  0  0  0  0  0  0  0
  180.8070   20.2420   47.1400 C   0  0  0  0  0  0  0  0  0  0  0  0
  179.5820   19.7560   46.6760 C   0  0  0  0  0  0  0  0  0  0  0  0
  178.4330   20.5610   46.7020 C   0  0  0  0  0  0  0  0  0  0  0  0
  177.1250   20.0030   46.2010 C   0  0  0  0  0  0  0  0  0  0  0  0
  176.4970   19.2330   47.1330 F   0  0  0  0  0  0  0  0  0  0  0  0
  178.5210   21.8680   47.2280 C   0  0  0  0  0  0  0  0  0  0  0  0
  177.3080   22.7690   47.3010 C   0  0  0  0  0  0  0  0  0  0  0  0
  176.5900   22.5810   48.4440 F   0  0  0  0  0  0  0  0  0  0  0  0
  177.6270   24.0970   47.2930 F   0  0  0  0  0  0  0  0  0  0  0  0
  179.7660   22.3410   47.6850 C   0  0  0  0  0  0  0  0  0  0  0  0
  182.9150   22.7860   47.2050 O   0  0  0  0  0  0  0  0  0  0  0  0
  184.1260   23.3290   47.5530 C   0  0  0  0  0  0  0  0  0  0  0  0
  184.8050   24.0470   46.5680 C   0  0  0  0  0  0  0  0  0  0  0  0
  186.0430   24.6250   46.8570 C   0  0  0  0  0  0  0  0  0  0  0  0
  186.6020   24.4840   48.1290 C   0  0  0  0  0  0  0  0  0  0  0  0
  185.9220   23.7670   49.1100 C   0  0  0  0  0  0  0  0  0  0  0  0
  186.5260   23.6690   50.3330 O   0  0  0  0  0  0  0  0  0  0  0  0
  184.6830   23.1890   48.8200 C   0  0  0  0  0  0  0  0  0  0  0  0
  182.1760   20.2360   50.5320 H   0  0  0  0  0  0  0  0  0  0  0  0
  181.6946   19.5929   47.1116 H   0  0  0  0  0  0  0  0  0  0  0  0
  179.5175   18.7297   46.2855 H   0  0  0  0  0  0  0  0  0  0  0  0
  176.4643   20.8400   45.9312 H   0  0  0  0  0  0  0  0  0  0  0  0
  177.3438   19.3653   45.3319 H   0  0  0  0  0  0  0  0  0  0  0  0
  176.7283   22.4968   46.4067 H   0  0  0  0  0  0  0  0  0  0  0  0
  179.8364   23.3623   48.0876 H   0  0  0  0  0  0  0  0  0  0  0  0
  184.3659   24.1576   45.5655 H   0  0  0  0  0  0  0  0  0  0  0  0
  186.5787   25.1922   46.0815 H   0  0  0  0  0  0  0  0  0  0  0  0
  187.5778   24.9385   48.3555 H   0  0  0  0  0  0  0  0  0  0  0  0
  186.8340   22.8380   50.6380 H   0  0  0  0  0  0  0  0  0  0  0  0
  1  2  2  0
  2  3  1  0
  3  4  1  0
  3  5  2  0
  5  6  1  0
  6  7  2  0
  7  8  1  0
  8  9  2  0
  9 10  1  0
 10 11  1  0
  9 12  1  0
 12 13  1  0
 13 14  1  0
 13 15  1  0
 12 16  2  0
  5 17  1  0
 17 18  1  0
 18 19  2  0
 19 20  1  0
 20 21  2  0
 21 22  1  0
 22 23  1  0
 22 24  2  0
 24  2  1  0
 16  6  1  0
 24 18  1  0
  4 25  1  0
  7 26  1  0
  8 27  1  0
 10 28  1  0
 10 29  1  0
 13 30  1  0
 16 31  1  0
 19 32  1  0
 20 33  1  0
 21 34  1  0
 23 35  1  0
M  END
>  <meeko>  (8) 
{"is_sidechain": [false], "free_energy": -7.169, "intermolecular_energy": -8.568, "internal_energy": -0.628}

$$$$
cand_019_out
     RDKit          3D

 35 37  0  0  0  0  0  0  0  0999 V2000
  176.6600   22.6680   53.2460 O   0  0  0  0  0  0  0  0  0  0  0  0
  176.4180   22.7190   52.0420 C   0  0  0  0  0  0  0  0  0  0  0  0
  177.2950   22.0300   51.0680 C   0  0  0  0  0  0  0  0  0  0  0  0
  178.3890   21.3530   51.5770 O   0  0  0  0  0  0  0  0  0  0  0  0
  176.9940   22.1130   49.7600 C   0  0  0  0  0  0  0  0  0  0  0  0
  177.8050   21.4770   48.6990 C   0  0  0  0  0  0  0  0  0  0  0  0
  177.2760   20.4920   47.8580 C   0  0  0  0  0  0  0  0  0  0  0  0
  178.0540   19.9210   46.8470 C   0  0  0  0  0  0  0  0  0  0  0  0
  179.3830   20.3220   46.6490 C   0  0  0  0  0  0  0  0  0  0  0  0
  180.1920   19.6910   45.5450 C   0  0  0  0  0  0  0  0  0  0  0  0
  179.9760   20.2860   44.3380 F   0  0  0  0  0  0  0  0  0  0  0  0
  179.9250   21.3340   47.4710 C   0  0  0  0  0  0  0  0  0  0  0  0
  181.3450   21.8210   47.2850 C   0  0  0  0  0  0  0  0  0  0  0  0
  181.5260   23.0880   47.7530 F   0  0  0  0  0  0  0  0  0  0  0  0
  182.2640   21.0600   47.9500 F   0  0  0  0  0  0  0  0  0  0  0  0
  179.1280   21.8940   48.4880 C   0  0  0  0  0  0  0  0  0  0  0  0
  175.9070   22.8190   49.2580 O   0  0  0  0  0  0  0  0  0  0  0  0
  175.0720   23.4630   50.1360 C   0  0  0  0  0  0  0  0  0  0  0  0
  173.9870   24.1510   49.5890 C   0  0  0  0  0  0  0  0  0  0  0  0
  173.0990   24.8280   50.4280 C   0  0  0  0  0  0  0  0  0  0  0  0
  173.2950   24.8180   51.8110 C   0  0  0  0  0  0  0  0  0  0  0  0
  174.3780   24.1300   52.3520 C   0  0  0  0  0  0  0  0  0  0  0  0
  174.5100   24.1610   53.7130 O   0  0  0  0  0  0  0  0  0  0  0  0
  175.2660   23.4530   51.5130 C   0  0  0  0  0  0  0  0  0  0  0  0
  178.2710   20.7090   52.2470 H   0  0  0  0  0  0  0  0  0  0  0  0
  176.2352   20.1630   47.9941 H   0  0  0  0  0  0  0  0  0  0  0  0
  177.6181   19.1470   46.1982 H   0  0  0  0  0  0  0  0  0  0  0  0
  181.2596   19.7774   45.7955 H   0  0  0  0  0  0  0  0  0  0  0  0
  179.8819   18.6390   45.4609 H   0  0  0  0  0  0  0  0  0  0  0  0
  181.4970   21.7631   46.1971 H   0  0  0  0  0  0  0  0  0  0  0  0
  179.5530   22.6774   49.1327 H   0  0  0  0  0  0  0  0  0  0  0  0
  173.8320   24.1598   48.5000 H   0  0  0  0  0  0  0  0  0  0  0  0
  172.2435   25.3702   49.9988 H   0  0  0  0  0  0  0  0  0  0  0  0
  172.5957   25.3522   52.4710 H   0  0  0  0  0  0  0  0  0  0  0  0
  173.7480   24.2110   54.2570 H   0  0  0  0  0  0  0  0  0  0  0  0
  1  2  2  0
  2  3  1  0
  3  4  1  0
  3  5  2  0
  5  6  1  0
  6  7  2  0
  7  8  1  0
  8  9  2  0
  9 10  1  0
 10 11  1  0
  9 12  1  0
 12 13  1  0
 13 14  1  0
 13 15  1  0
 12 16  2  0
  5 17  1  0
 17 18  1  0
 18 19  2  0
 19 20  1  0
 20 21  2  0
 21 22  1  0
 22 23  1  0
 22 24  2  0
 24  2  1  0
 16  6  1  0
 24 18  1  0
  4 25  1  0
  7 26  1  0
  8 27  1  0
 10 28  1  0
 10 29  1  0
 13 30  1  0
 16 31  1  0
 19 32  1  0
 20 33  1  0
 21 34  1  0
 23 35  1  0
M  END
>  <meeko>  (9) 
{"is_sidechain": [false], "free_energy": -7.137, "intermolecular_energy": -8.696, "internal_energy": -0.461}

$$$$
