cand_053_out
     RDKit          3D

 44 46  0  0  0  0  0  0  0  0999 V2000
  181.2010   15.2250   40.3710 C   0  0  0  0  0  0  0  0  0  0  0  0
  181.2160   14.4180   41.6600 C   0  0  0  0  0  0  0  0  0  0  0  0
  182.1530   15.0410   42.6960 C   0  0  0  0  0  0  0  0  0  0  0  0
  181.4200   15.9970   43.6130 C   0  0  0  0  0  0  0  0  0  0  0  0
  181.5700   17.3760   43.3870 C   0  0  0  0  0  0  0  0  0  0  0  0
  180.9120   18.3140   44.1850 C   0  0  0  0  0  0  0  0  0  0  0  0
  180.0770   17.9030   45.2280 C   0  0  0  0  0  0  0  0  0  0  0  0
  179.4140   18.9110   46.0820 C   0  0  0  0  0  0  0  0  0  0  0  0
  178.0290   18.7850   46.0890 O   0  0  0  0  0  0  0  0  0  0  0  0
  177.2870   19.6600   46.8410 C   0  0  0  0  0  0  0  0  0  0  0  0
  175.9000   19.5060   46.8070 C   0  0  0  0  0  0  0  0  0  0  0  0
  175.0860   20.3620   47.5520 C   0  0  0  0  0  0  0  0  0  0  0  0
  175.6580   21.3710   48.3310 C   0  0  0  0  0  0  0  0  0  0  0  0
  177.0420   21.5210   48.3630 C   0  0  0  0  0  0  0  0  0  0  0  0
  177.5360   22.5280   49.1470 O   0  0  0  0  0  0  0  0  0  0  0  0
  177.8560   20.6640   47.6170 C   0  0  0  0  0  0  0  0  0  0  0  0
  179.3140   20.7880   47.6220 C   0  0  0  0  0  0  0  0  0  0  0  0
  179.8920   21.6450   48.2890 O   0  0  0  0  0  0  0  0  0  0  0  0
  180.0860   19.8360   46.7910 C   0  0  0  0  0  0  0  0  0  0  0  0
  181.4640   19.9540   46.8150 O   0  0  0  0  0  0  0  0  0  0  0  0
  179.9290   16.5280   45.4570 C   0  0  0  0  0  0  0  0  0  0  0  0
  180.5780   15.5650   44.6570 C   0  0  0  0  0  0  0  0  0  0  0  0
  180.3580   14.1060   44.9870 C   0  0  0  0  0  0  0  0  0  0  0  0
  178.9190   13.6780   44.7410 C   0  0  0  0  0  0  0  0  0  0  0  0
  181.1811   16.2984   40.6106 H   0  0  0  0  0  0  0  0  0  0  0  0
  182.1035   14.9968   39.7850 H   0  0  0  0  0  0  0  0  0  0  0  0
  180.3076   14.9635   39.7850 H   0  0  0  0  0  0  0  0  0  0  0  0
  180.1971   14.3841   42.0732 H   0  0  0  0  0  0  0  0  0  0  0  0
  181.5774   13.4047   41.4305 H   0  0  0  0  0  0  0  0  0  0  0  0
  182.5989   14.2381   43.3014 H   0  0  0  0  0  0  0  0  0  0  0  0
  182.9280   15.6079   42.1594 H   0  0  0  0  0  0  0  0  0  0  0  0
  182.2169   17.7223   42.5674 H   0  0  0  0  0  0  0  0  0  0  0  0
  181.0522   19.3876   43.9909 H   0  0  0  0  0  0  0  0  0  0  0  0
  175.4489   18.7116   46.1943 H   0  0  0  0  0  0  0  0  0  0  0  0
  173.9929   20.2417   47.5255 H   0  0  0  0  0  0  0  0  0  0  0  0
  175.0166   22.0452   48.9176 H   0  0  0  0  0  0  0  0  0  0  0  0
  177.6700   22.3850   50.0630 H   0  0  0  0  0  0  0  0  0  0  0  0
  181.9970   19.1940   46.9370 H   0  0  0  0  0  0  0  0  0  0  0  0
  179.2880   16.1904   46.2848 H   0  0  0  0  0  0  0  0  0  0  0  0
  181.0228   13.4953   44.3584 H   0  0  0  0  0  0  0  0  0  0  0  0
  180.5781   13.9618   46.0551 H   0  0  0  0  0  0  0  0  0  0  0  0
  178.4114   13.5270   45.7052 H   0  0  0  0  0  0  0  0  0  0  0  0
  178.3965   14.4596   44.1700 H   0  0  0  0  0  0  0  0  0  0  0  0
  178.9086   12.7379   44.1700 H   0  0  0  0  0  0  0  0  0  0  0  0
  1  2  1  0
  2  3  1  0
  3  4  1  0
  4  5  2  0
  5  6  1  0
  6  7  2  0
  7  8  1  0
  8  9  1  0
  9 10  1  0
 10 11  2  0
 11 12  1  0
 12 13  2  0
 13 14  1  0
 14 15  1  0
 14 16  2  0
 16 17  1  0
 17 18  2  0
 17 19  1  0
 19 20  1  0
  7 21  1  0
 21 22  2  0
 22 23  1  0
 23 24  1  0
 22  4  1  0
 19  8  2  0
 16 10  1  0
  1 25  1  0
  1 26  1  0
  1 27  1  0
  2 28  1  0
  2 29  1  0
  3 30  1  0
  3 31  1  0
  5 32  1  0
  6 33  1  0
 11 34  1  0
 12 35  1  0
 13 36  1  0
 15 37  1  0
 20 38  1  0
 21 39  1  0
 23 40  1  0
 23 41  1  0
 24 42  1  0
 24 43  1  0
 24 44  1  0
M  END
>  <meeko>  (1) 
{"is_sidechain": [false], "free_energy": -8.285, "intermolecular_energy": -10.707, "internal_energy": -0.595}

$$$$
cand_053_out
     RDKit          3D

 44 46  0  0  0  0  0  0  0  0999 V2000
  175.5740   19.6490   48.8140 C   0  0  0  0  0  0  0  0  0  0  0  0
  175.8980   19.2740   47.3760 C   0  0  0  0  0  0  0  0  0  0  0  0
  176.3820   20.4880   46.5810 C   0  0  0  0  0  0  0  0  0  0  0  0
  177.7480   20.9510   47.0410 C   0  0  0  0  0  0  0  0  0  0  0  0
  178.8230   20.0510   46.9300 C   0  0  0  0  0  0  0  0  0  0  0  0
  180.1120   20.4150   47.3230 C   0  0  0  0  0  0  0  0  0  0  0  0
  180.3700   21.6920   47.8290 C   0  0  0  0  0  0  0  0  0  0  0  0
  181.7360   22.0490   48.2680 C   0  0  0  0  0  0  0  0  0  0  0  0
  182.5250   22.5380   47.2330 O   0  0  0  0  0  0  0  0  0  0  0  0
  183.8190   22.9070   47.5020 C   0  0  0  0  0  0  0  0  0  0  0  0
  184.5790   23.3770   46.4310 C   0  0  0  0  0  0  0  0  0  0  0  0
  185.9030   23.7720   46.6360 C   0  0  0  0  0  0  0  0  0  0  0  0
  186.4660   23.6960   47.9120 C   0  0  0  0  0  0  0  0  0  0  0  0
  185.7040   23.2270   48.9790 C   0  0  0  0  0  0  0  0  0  0  0  0
  186.3170   23.1790   50.2010 O   0  0  0  0  0  0  0  0  0  0  0  0
  184.3800   22.8310   48.7730 C   0  0  0  0  0  0  0  0  0  0  0  0
  183.5450   22.3320   49.8660 C   0  0  0  0  0  0  0  0  0  0  0  0
  183.9660   22.2450   51.0180 O   0  0  0  0  0  0  0  0  0  0  0  0
  182.1570   21.9310   49.5410 C   0  0  0  0  0  0  0  0  0  0  0  0
  181.3730   21.4740   50.5850 O   0  0  0  0  0  0  0  0  0  0  0  0
  179.2990   22.5890   47.9430 C   0  0  0  0  0  0  0  0  0  0  0  0
  177.9910   22.2430   47.5450 C   0  0  0  0  0  0  0  0  0  0  0  0
  176.9030   23.2800   47.7120 C   0  0  0  0  0  0  0  0  0  0  0  0
  176.3460   23.2970   49.1270 C   0  0  0  0  0  0  0  0  0  0  0  0
  176.1369   18.9975   49.4986 H   0  0  0  0  0  0  0  0  0  0  0  0
  175.8550   20.6975   48.9917 H   0  0  0  0  0  0  0  0  0  0  0  0
  174.4958   19.5232   48.9917 H   0  0  0  0  0  0  0  0  0  0  0  0
  176.6866   18.5071   47.3746 H   0  0  0  0  0  0  0  0  0  0  0  0
  174.9821   18.8911   46.9021 H   0  0  0  0  0  0  0  0  0  0  0  0
  176.4373   20.2177   45.5162 H   0  0  0  0  0  0  0  0  0  0  0  0
  175.6692   21.3100   46.7429 H   0  0  0  0  0  0  0  0  0  0  0  0
  178.6450   19.0432   46.5267 H   0  0  0  0  0  0  0  0  0  0  0  0
  180.9335   19.6890   47.2335 H   0  0  0  0  0  0  0  0  0  0  0  0
  184.1361   23.4365   45.4259 H   0  0  0  0  0  0  0  0  0  0  0  0
  186.5027   24.1432   45.7919 H   0  0  0  0  0  0  0  0  0  0  0  0
  187.5090   24.0059   48.0737 H   0  0  0  0  0  0  0  0  0  0  0  0
  186.7030   23.9540   50.5620 H   0  0  0  0  0  0  0  0  0  0  0  0
  181.3720   21.9290   51.4040 H   0  0  0  0  0  0  0  0  0  0  0  0
  179.4841   23.5920   48.3549 H   0  0  0  0  0  0  0  0  0  0  0  0
  177.3192   24.2719   47.4820 H   0  0  0  0  0  0  0  0  0  0  0  0
  176.0817   23.0249   47.0261 H   0  0  0  0  0  0  0  0  0  0  0  0
  177.1762   23.2717   49.8482 H   0  0  0  0  0  0  0  0  0  0  0  0
  175.7568   24.2135   49.2782 H   0  0  0  0  0  0  0  0  0  0  0  0
  175.7020   22.4181   49.2782 H   0  0  0  0  0  0  0  0  0  0  0  0
  1  2  1  0
  2  3  1  0
  3  4  1  0
  4  5  2  0
  5  6  1  0
  6  7  2  0
  7  8  1  0
  8  9  1  0
  9 10  1  0
 10 11  2  0
 11 12  1  0
 12 13  2  0
 13 14  1  0
 14 15  1  0
 14 16  2  0
 16 17  1  0
 17 18  2  0
 17 19  1  0
 19 20  1  0
  7 21  1  0
 21 22  2  0
 22 23  1  0
 23 24  1  0
 22  4  1  0
 19  8  2  0
 16 10  1  0
  1 25  1  0
  1 26  1  0
  1 27  1  0
  2 28  1  0
  2 29  1  0
  3 30  1  0
  3 31  1  0
  5 32  1  0
  6 33  1  0
 11 34  1  0
 12 35  1  0
 13 36  1  0
 15 37  1  0
 20 38  1  0
 21 39  1  0
 23 40  1  0
 23 41  1  0
 24 42  1  0
 24 43  1  0
 24 44  1  0
M  END
>  <meeko>  (2) 
{"is_sidechain": [false], "free_energy": -7.406, "intermolecular_energy": -9.15, "internal_energy": -1.015}

$$$$
cand_053_out
     RDKit          3D

 44 46  0  0  0  0  0  0  0  0999 V2000
  175.9300   19.2750   47.9680 C   0  0  0  0  0  0  0  0  0  0  0  0
  176.0440   20.4670   47.0310 C   0  0  0  0  0  0  0  0  0  0  0  0
  177.1680   20.2700   46.0130 C   0  0  0  0  0  0  0  0  0  0  0  0
  178.5080   20.7050   46.5660 C   0  0  0  0  0  0  0  0  0  0  0  0
  178.5860   21.9580   47.2010 C   0  0  0  0  0  0  0  0  0  0  0  0
  179.7860   22.4170   47.7460 C   0  0  0  0  0  0  0  0  0  0  0  0
  180.9440   21.6360   47.6830 C   0  0  0  0  0  0  0  0  0  0  0  0
  182.2120   22.1530   48.2390 C   0  0  0  0  0  0  0  0  0  0  0  0
  182.8910   22.9830   47.3540 O   0  0  0  0  0  0  0  0  0  0  0  0
  184.0860   23.5320   47.7430 C   0  0  0  0  0  0  0  0  0  0  0  0
  184.7400   24.3460   46.8160 C   0  0  0  0  0  0  0  0  0  0  0  0
  185.9610   24.9390   47.1490 C   0  0  0  0  0  0  0  0  0  0  0  0
  186.5260   24.7180   48.4070 C   0  0  0  0  0  0  0  0  0  0  0  0
  185.8700   23.9050   49.3290 C   0  0  0  0  0  0  0  0  0  0  0  0
  186.4790   23.7320   50.5410 O   0  0  0  0  0  0  0  0  0  0  0  0
  184.6500   23.3120   48.9950 C   0  0  0  0  0  0  0  0  0  0  0  0
  183.9290   22.4520   49.9340 C   0  0  0  0  0  0  0  0  0  0  0  0
  184.3580   22.2170   51.0620 O   0  0  0  0  0  0  0  0  0  0  0  0
  182.6470   21.8650   49.4800 C   0  0  0  0  0  0  0  0  0  0  0  0
  181.9680   21.0650   50.3810 O   0  0  0  0  0  0  0  0  0  0  0  0
  180.8690   20.3890   47.0480 C   0  0  0  0  0  0  0  0  0  0  0  0
  179.6640   19.9030   46.4980 C   0  0  0  0  0  0  0  0  0  0  0  0
  179.6880   18.5470   45.8300 C   0  0  0  0  0  0  0  0  0  0  0  0
  180.8080   18.4370   44.8060 C   0  0  0  0  0  0  0  0  0  0  0  0
  175.9634   19.6238   49.0107 H   0  0  0  0  0  0  0  0  0  0  0  0
  174.9780   18.7550   47.7856 H   0  0  0  0  0  0  0  0  0  0  0  0
  176.7661   18.5839   47.7856 H   0  0  0  0  0  0  0  0  0  0  0  0
  175.0923   20.5924   46.4938 H   0  0  0  0  0  0  0  0  0  0  0  0
  176.2732   21.3594   47.6319 H   0  0  0  0  0  0  0  0  0  0  0  0
  177.2224   19.2048   45.7440 H   0  0  0  0  0  0  0  0  0  0  0  0
  176.9441   20.8888   45.1315 H   0  0  0  0  0  0  0  0  0  0  0  0
  177.6859   22.5866   47.2691 H   0  0  0  0  0  0  0  0  0  0  0  0
  179.8212   23.4040   48.2304 H   0  0  0  0  0  0  0  0  0  0  0  0
  184.2950   24.5203   45.8253 H   0  0  0  0  0  0  0  0  0  0  0  0
  186.4774   25.5803   46.4196 H   0  0  0  0  0  0  0  0  0  0  0  0
  187.4869   25.1848   48.6694 H   0  0  0  0  0  0  0  0  0  0  0  0
  186.2080   24.2420   51.2790 H   0  0  0  0  0  0  0  0  0  0  0  0
  181.1700   21.3670   50.7660 H   0  0  0  0  0  0  0  0  0  0  0  0
  181.7761   19.7710   46.9763 H   0  0  0  0  0  0  0  0  0  0  0  0
  179.8329   17.7744   46.5994 H   0  0  0  0  0  0  0  0  0  0  0  0
  178.7316   18.4098   45.3042 H   0  0  0  0  0  0  0  0  0  0  0  0
  181.7725   18.3423   45.3263 H   0  0  0  0  0  0  0  0  0  0  0  0
  180.6428   17.5508   44.1757 H   0  0  0  0  0  0  0  0  0  0  0  0
  180.8184   19.3384   44.1757 H   0  0  0  0  0  0  0  0  0  0  0  0
  1  2  1  0
  2  3  1  0
  3  4  1  0
  4  5  2  0
  5  6  1  0
  6  7  2  0
  7  8  1  0
  8  9  1  0
  9 10  1  0
 10 11  2  0
 11 12  1  0
 12 13  2  0
 13 14  1  0
 14 15  1  0
 14 16  2  0
 16 17  1  0
 17 18  2  0
 17 19  1  0
 19 20  1  0
  7 21  1  0
 21 22  2  0
 22 23  1  0
 23 24  1  0
 22  4  1  0
 19  8  2  0
 16 10  1  0
  1 25  1  0
  1 26  1  0
  1 27  1  0
  2 28  1  0
  2 29  1  0
  3 30  1  0
  3 31  1  0
  5 32  1  0
  6 33  1  0
 11 34  1  0
 12 35  1  0
 13 36  1  0
 15 37  1  0
 20 38  1  0
 21 39  1  0
 23 40  1  0
 23 41  1  0
 24 42  1  0
 24 43  1  0
 24 44  1  0
M  END
>  <meeko>  (3) 
{"is_sidechain": [false], "free_energy": -7.375, "intermolecular_energy": -9.256, "internal_energy": -0.869}

$$$$
cand_053_out
     RDKit          3D

 44 46  0  0  0  0  0  0  0  0999 V2000
  180.2190   20.6480   46.8480 C   0  0  0  0  0  0  0  0  0  0  0  0
  178.8600   19.9670   46.8980 C   0  0  0  0  0  0  0  0  0  0  0  0
  177.7580   20.8840   46.3640 C   0  0  0  0  0  0  0  0  0  0  0  0
  176.9280   21.4750   47.4830 C   0  0  0  0  0  0  0  0  0  0  0  0
  175.9750   20.6510   48.1060 C   0  0  0  0  0  0  0  0  0  0  0  0
  175.1850   21.1260   49.1550 C   0  0  0  0  0  0  0  0  0  0  0  0
  175.3290   22.4360   49.6200 C   0  0  0  0  0  0  0  0  0  0  0  0
  174.4610   22.9300   50.7100 C   0  0  0  0  0  0  0  0  0  0  0  0
  175.1780   23.3150   51.8380 O   0  0  0  0  0  0  0  0  0  0  0  0
  174.4950   23.7940   52.9270 C   0  0  0  0  0  0  0  0  0  0  0  0
  175.2540   24.1540   54.0410 C   0  0  0  0  0  0  0  0  0  0  0  0
  174.6210   24.6500   55.1840 C   0  0  0  0  0  0  0  0  0  0  0  0
  173.2310   24.7870   55.2100 C   0  0  0  0  0  0  0  0  0  0  0  0
  172.4780   24.4270   54.0960 C   0  0  0  0  0  0  0  0  0  0  0  0
  171.1220   24.5870   54.1890 O   0  0  0  0  0  0  0  0  0  0  0  0
  173.1110   23.9300   52.9540 C   0  0  0  0  0  0  0  0  0  0  0  0
  172.3570   23.5400   51.7620 C   0  0  0  0  0  0  0  0  0  0  0  0
  171.1320   23.6390   51.7060 O   0  0  0  0  0  0  0  0  0  0  0  0
  173.1220   23.0170   50.6070 C   0  0  0  0  0  0  0  0  0  0  0  0
  172.3990   22.6640   49.4820 O   0  0  0  0  0  0  0  0  0  0  0  0
  176.2760   23.2600   48.9980 C   0  0  0  0  0  0  0  0  0  0  0  0
  177.0900   22.7970   47.9430 C   0  0  0  0  0  0  0  0  0  0  0  0
  178.0790   23.7650   47.3350 C   0  0  0  0  0  0  0  0  0  0  0  0
  179.2790   23.9960   48.2420 C   0  0  0  0  0  0  0  0  0  0  0  0
  180.5771   20.8275   47.8725 H   0  0  0  0  0  0  0  0  0  0  0  0
  180.9338   20.0016   46.3177 H   0  0  0  0  0  0  0  0  0  0  0  0
  180.1290   21.6075   46.3177 H   0  0  0  0  0  0  0  0  0  0  0  0
  178.8942   19.0539   46.2856 H   0  0  0  0  0  0  0  0  0  0  0  0
  178.6318   19.7246   47.9464 H   0  0  0  0  0  0  0  0  0  0  0  0
  178.2212   21.7026   45.7935 H   0  0  0  0  0  0  0  0  0  0  0  0
  177.0933   20.2840   45.7252 H   0  0  0  0  0  0  0  0  0  0  0  0
  175.8492   19.6140   47.7613 H   0  0  0  0  0  0  0  0  0  0  0  0
  174.4415   20.4620   49.6202 H   0  0  0  0  0  0  0  0  0  0  0  0
  176.3486   24.0476   54.0197 H   0  0  0  0  0  0  0  0  0  0  0  0
  175.2177   24.9327   56.0638 H   0  0  0  0  0  0  0  0  0  0  0  0
  172.7325   25.1786   56.1090 H   0  0  0  0  0  0  0  0  0  0  0  0
  170.6490   24.1780   54.8870 H   0  0  0  0  0  0  0  0  0  0  0  0
  171.4630   22.6810   49.5020 H   0  0  0  0  0  0  0  0  0  0  0  0
  176.3881   24.2986   49.3424 H   0  0  0  0  0  0  0  0  0  0  0  0
  178.4315   23.3576   46.3760 H   0  0  0  0  0  0  0  0  0  0  0  0
  177.5687   24.7291   47.1932 H   0  0  0  0  0  0  0  0  0  0  0  0
  178.9612   23.9348   49.2933 H   0  0  0  0  0  0  0  0  0  0  0  0
  180.0414   23.2281   48.0441 H   0  0  0  0  0  0  0  0  0  0  0  0
  179.7018   24.9920   48.0441 H   0  0  0  0  0  0  0  0  0  0  0  0
  1  2  1  0
  2  3  1  0
  3  4  1  0
  4  5  2  0
  5  6  1  0
  6  7  2  0
  7  8  1  0
  8  9  1  0
  9 10  1  0
 10 11  2  0
 11 12  1  0
 12 13  2  0
 13 14  1  0
 14 15  1  0
 14 16  2  0
 16 17  1  0
 17 18  2  0
 17 19  1  0
 19 20  1  0
  7 21  1  0
 21 22  2  0
 22 23  1  0
 23 24  1  0
 22  4  1  0
 19  8  2  0
 16 10  1  0
  1 25  1  0
  1 26  1  0
  1 27  1  0
  2 28  1  0
  2 29  1  0
  3 30  1  0
  3 31  1  0
  5 32  1  0
  6 33  1  0
 11 34  1  0
 12 35  1  0
 13 36  1  0
 15 37  1  0
 20 38  1  0
 21 39  1  0
 23 40  1  0
 23 41  1  0
 24 42  1  0
 24 43  1  0
 24 44  1  0
M  END
>  <meeko>  (4) 
{"is_sidechain": [false], "free_energy": -7.364, "intermolecular_energy": -9.284, "internal_energy": -0.827}

$$$$
cand_053_out
     RDKit          3D

 44 46  0  0  0  0  0  0  0  0999 V2000
  181.9420   19.9850   45.5230 C   0  0  0  0  0  0  0  0  0  0  0  0
  180.5950   19.3040   45.7110 C   0  0  0  0  0  0  0  0  0  0  0  0
  179.4460   20.2060   45.2560 C   0  0  0  0  0  0  0  0  0  0  0  0
  178.6670   20.7570   46.4300 C   0  0  0  0  0  0  0  0  0  0  0  0
  179.1370   21.9320   47.0420 C   0  0  0  0  0  0  0  0  0  0  0  0
  178.4610   22.5040   48.1220 C   0  0  0  0  0  0  0  0  0  0  0  0
  177.2890   21.9240   48.6170 C   0  0  0  0  0  0  0  0  0  0  0  0
  176.6040   22.5270   49.7810 C   0  0  0  0  0  0  0  0  0  0  0  0
  175.4950   23.2840   49.4220 O   0  0  0  0  0  0  0  0  0  0  0  0
  174.7660   23.9020   50.4060 C   0  0  0  0  0  0  0  0  0  0  0  0
  173.6700   24.6640   49.9980 C   0  0  0  0  0  0  0  0  0  0  0  0
  172.8830   25.3180   50.9500 C   0  0  0  0  0  0  0  0  0  0  0  0
  173.1930   25.2090   52.3070 C   0  0  0  0  0  0  0  0  0  0  0  0
  174.2870   24.4480   52.7100 C   0  0  0  0  0  0  0  0  0  0  0  0
  174.5330   24.3840   54.0540 O   0  0  0  0  0  0  0  0  0  0  0  0
  175.0740   23.7950   51.7580 C   0  0  0  0  0  0  0  0  0  0  0  0
  176.2320   22.9850   52.1380 C   0  0  0  0  0  0  0  0  0  0  0  0
  176.5630   22.8350   53.3130 O   0  0  0  0  0  0  0  0  0  0  0  0
  177.0050   22.3410   51.0520 C   0  0  0  0  0  0  0  0  0  0  0  0
  178.0890   21.5670   51.4250 O   0  0  0  0  0  0  0  0  0  0  0  0
  176.8210   20.7510   48.0110 C   0  0  0  0  0  0  0  0  0  0  0  0
  177.4850   20.1630   46.9140 C   0  0  0  0  0  0  0  0  0  0  0  0
  176.9030   18.8950   46.3320 C   0  0  0  0  0  0  0  0  0  0  0  0
  175.5560   18.5500   46.9510 C   0  0  0  0  0  0  0  0  0  0  0  0
  182.3811   20.2070   46.5068 H   0  0  0  0  0  0  0  0  0  0  0  0
  182.6147   19.3187   44.9631 H   0  0  0  0  0  0  0  0  0  0  0  0
  181.8043   20.9218   44.9631 H   0  0  0  0  0  0  0  0  0  0  0  0
  180.5773   18.3762   45.1203 H   0  0  0  0  0  0  0  0  0  0  0  0
  180.4626   19.0874   46.7813 H   0  0  0  0  0  0  0  0  0  0  0  0
  179.8595   21.0452   44.6774 H   0  0  0  0  0  0  0  0  0  0  0  0
  178.7601   19.6035   44.6424 H   0  0  0  0  0  0  0  0  0  0  0  0
  180.0531   22.4092   46.6637 H   0  0  0  0  0  0  0  0  0  0  0  0
  178.8544   23.4196   48.5877 H   0  0  0  0  0  0  0  0  0  0  0  0
  173.4260   24.7496   48.9288 H   0  0  0  0  0  0  0  0  0  0  0  0
  172.0190   25.9189   50.6300 H   0  0  0  0  0  0  0  0  0  0  0  0
  172.5738   25.7236   53.0565 H   0  0  0  0  0  0  0  0  0  0  0  0
  173.8190   24.3230   54.6590 H   0  0  0  0  0  0  0  0  0  0  0  0
  178.8370   21.5090   50.8650 H   0  0  0  0  0  0  0  0  0  0  0  0
  175.9097   20.2747   48.4017 H   0  0  0  0  0  0  0  0  0  0  0  0
  176.7719   19.0291   45.2481 H   0  0  0  0  0  0  0  0  0  0  0  0
  177.5982   18.0708   46.5495 H   0  0  0  0  0  0  0  0  0  0  0  0
  175.6401   18.5715   48.0476 H   0  0  0  0  0  0  0  0  0  0  0  0
  174.8044   19.2846   46.6264 H   0  0  0  0  0  0  0  0  0  0  0  0
  175.2500   17.5445   46.6264 H   0  0  0  0  0  0  0  0  0  0  0  0
  1  2  1  0
  2  3  1  0
  3  4  1  0
  4  5  2  0
  5  6  1  0
  6  7  2  0
  7  8  1  0
  8  9  1  0
  9 10  1  0
 10 11  2  0
 11 12  1  0
 12 13  2  0
 13 14  1  0
 14 15  1  0
 14 16  2  0
 16 17  1  0
 17 18  2  0
 17 19  1  0
 19 20  1  0
  7 21  1  0
 21 22  2  0
 22 23  1  0
 23 24  1  0
 22  4  1  0
 19  8  2  0
 16 10  1  0
  1 25  1  0
  1 26  1  0
  1 27  1  0
  2 28  1  0
  2 29  1  0
  3 30  1  0
  3 31  1  0
  5 32  1  0
  6 33  1  0
 11 34  1  0
 12 35  1  0
 13 36  1  0
 15 37  1  0
 20 38  1  0
 21 39  1  0
 23 40  1  0
 23 41  1  0
 24 42  1  0
 24 43  1  0
 24 44  1  0
M  END
>  <meeko>  (5) 
{"is_sidechain": [false], "free_energy": -7.323, "intermolecular_energy": -9.308, "internal_energy": -0.751}

$$$$
cand_053_out
     RDKit          3D

 44 46  0  0  0  0  0  0  0  0999 V2000
  181.1150   17.9170   44.2590 C   0  0  0  0  0  0  0  0  0  0  0  0
  180.3840   18.5340   45.4410 C   0  0  0  0  0  0  0  0  0  0  0  0
  180.0890   20.0160   45.2010 C   0  0  0  0  0  0  0  0  0  0  0  0
  179.3490   20.6360   46.3670 C   0  0  0  0  0  0  0  0  0  0  0  0
  177.9820   20.3390   46.5150 C   0  0  0  0  0  0  0  0  0  0  0  0
  177.2410   20.8650   47.5750 C   0  0  0  0  0  0  0  0  0  0  0  0
  177.8430   21.6960   48.5240 C   0  0  0  0  0  0  0  0  0  0  0  0
  177.0340   22.2680   49.6210 C   0  0  0  0  0  0  0  0  0  0  0  0
  175.9320   22.9820   49.1640 O   0  0  0  0  0  0  0  0  0  0  0  0
  175.0940   23.5680   50.0780 C   0  0  0  0  0  0  0  0  0  0  0  0
  174.0100   24.2870   49.5740 C   0  0  0  0  0  0  0  0  0  0  0  0
  173.1160   24.9070   50.4510 C   0  0  0  0  0  0  0  0  0  0  0  0
  173.3070   24.8070   51.8310 C   0  0  0  0  0  0  0  0  0  0  0  0
  174.3910   24.0880   52.3300 C   0  0  0  0  0  0  0  0  0  0  0  0
  174.5180   24.0300   53.6910 O   0  0  0  0  0  0  0  0  0  0  0  0
  175.2840   23.4690   51.4530 C   0  0  0  0  0  0  0  0  0  0  0  0
  176.4350   22.7040   51.9360 C   0  0  0  0  0  0  0  0  0  0  0  0
  176.6650   22.5640   53.1360 O   0  0  0  0  0  0  0  0  0  0  0  0
  177.3260   22.0940   50.9230 C   0  0  0  0  0  0  0  0  0  0  0  0
  178.4030   21.3620   51.3920 O   0  0  0  0  0  0  0  0  0  0  0  0
  179.2030   21.9960   48.3760 C   0  0  0  0  0  0  0  0  0  0  0  0
  179.9720   21.4680   47.3170 C   0  0  0  0  0  0  0  0  0  0  0  0
  181.4320   21.8540   47.2420 C   0  0  0  0  0  0  0  0  0  0  0  0
  182.3130   20.9080   48.0430 C   0  0  0  0  0  0  0  0  0  0  0  0
  181.9073   17.2482   44.6264 H   0  0  0  0  0  0  0  0  0  0  0  0
  180.4039   17.3419   43.6478 H   0  0  0  0  0  0  0  0  0  0  0  0
  181.5626   18.7146   43.6478 H   0  0  0  0  0  0  0  0  0  0  0  0
  179.4345   17.9999   45.5934 H   0  0  0  0  0  0  0  0  0  0  0  0
  181.0265   18.4477   46.3297 H   0  0  0  0  0  0  0  0  0  0  0  0
  181.0399   20.5501   45.0578 H   0  0  0  0  0  0  0  0  0  0  0  0
  179.4520   20.0984   44.3080 H   0  0  0  0  0  0  0  0  0  0  0  0
  177.4888   19.6817   45.7837 H   0  0  0  0  0  0  0  0  0  0  0  0
  176.1717   20.6228   47.6642 H   0  0  0  0  0  0  0  0  0  0  0  0
  173.8591   24.3658   48.4873 H   0  0  0  0  0  0  0  0  0  0  0  0
  172.2611   25.4743   50.0542 H   0  0  0  0  0  0  0  0  0  0  0  0
  172.6035   25.2946   52.5219 H   0  0  0  0  0  0  0  0  0  0  0  0
  173.9110   24.4890   54.2380 H   0  0  0  0  0  0  0  0  0  0  0  0
  178.7500   20.6600   50.8790 H   0  0  0  0  0  0  0  0  0  0  0  0
  179.6856   22.6623   49.1062 H   0  0  0  0  0  0  0  0  0  0  0  0
  181.7517   21.8317   46.1897 H   0  0  0  0  0  0  0  0  0  0  0  0
  181.5394   22.8620   47.6691 H   0  0  0  0  0  0  0  0  0  0  0  0
  182.1531   21.0797   49.1177 H   0  0  0  0  0  0  0  0  0  0  0  0
  182.0543   19.8679   47.7953 H   0  0  0  0  0  0  0  0  0  0  0  0
  183.3688   21.0921   47.7953 H   0  0  0  0  0  0  0  0  0  0  0  0
  1  2  1  0
  2  3  1  0
  3  4  1  0
  4  5  2  0
  5  6  1  0
  6  7  2  0
  7  8  1  0
  8  9  1  0
  9 10  1  0
 10 11  2  0
 11 12  1  0
 12 13  2  0
 13 14  1  0
 14 15  1  0
 14 16  2  0
 16 17  1  0
 17 18  2  0
 17 19  1  0
 19 20  1  0
  7 21  1  0
 21 22  2  0
 22 23  1  0
 23 24  1  0
 22  4  1  0
 19  8  2  0
 16 10  1  0
  1 25  1  0
  1 26  1  0
  1 27  1  0
  2 28  1  0
  2 29  1  0
  3 30  1  0
  3 31  1  0
  5 32  1  0
  6 33  1  0
 11 34  1  0
 12 35  1  0
 13 36  1  0
 15 37  1  0
 20 38  1  0
 21 39  1  0
 23 40  1  0
 23 41  1  0
 24 42  1  0
 24 43  1  0
 24 44  1  0
M  END
>  <meeko>  (6) 
{"is_sidechain": [false], "free_energy": -7.272, "intermolecular_energy": -9.351, "internal_energy": -0.641}

$$$$
cand_053_out
     RDKit          3D

 44 46  0  0  0  0  0  0  0  0999 V2000
  181.2450   15.1970   39.8180 C   0  0  0  0  0  0  0  0  0  0  0  0
  180.5090   14.8050   41.0890 C   0  0  0  0  0  0  0  0  0  0  0  0
  181.4570   14.7540   42.2880 C   0  0  0  0  0  0  0  0  0  0  0  0
  181.1010   15.7940   43.3300 C   0  0  0  0  0  0  0  0  0  0  0  0
  181.3900   17.1400   43.0460 C   0  0  0  0  0  0  0  0  0  0  0  0
  181.0770   18.1530   43.9540 C   0  0  0  0  0  0  0  0  0  0  0  0
  180.4560   17.8530   45.1700 C   0  0  0  0  0  0  0  0  0  0  0  0
  180.1600   18.9360   46.1320 C   0  0  0  0  0  0  0  0  0  0  0  0
  181.3060   19.4930   46.6880 O   0  0  0  0  0  0  0  0  0  0  0  0
  181.1760   20.5090   47.6000 C   0  0  0  0  0  0  0  0  0  0  0  0
  182.3520   21.0270   48.1430 C   0  0  0  0  0  0  0  0  0  0  0  0
  182.2910   22.0650   49.0760 C   0  0  0  0  0  0  0  0  0  0  0  0
  181.0540   22.5850   49.4640 C   0  0  0  0  0  0  0  0  0  0  0  0
  179.8820   22.0660   48.9190 C   0  0  0  0  0  0  0  0  0  0  0  0
  178.7060   22.6210   49.3430 O   0  0  0  0  0  0  0  0  0  0  0  0
  179.9440   21.0270   47.9870 C   0  0  0  0  0  0  0  0  0  0  0  0
  178.7370   20.4530   47.3910 C   0  0  0  0  0  0  0  0  0  0  0  0
  177.6130   20.8620   47.6760 O   0  0  0  0  0  0  0  0  0  0  0  0
  178.9110   19.3490   46.4190 C   0  0  0  0  0  0  0  0  0  0  0  0
  177.7640   18.8230   45.8520 O   0  0  0  0  0  0  0  0  0  0  0  0
  180.1700   16.5120   45.4560 C   0  0  0  0  0  0  0  0  0  0  0  0
  180.4710   15.4750   44.5480 C   0  0  0  0  0  0  0  0  0  0  0  0
  180.1260   14.0590   44.9520 C   0  0  0  0  0  0  0  0  0  0  0  0
  178.6960   13.6940   44.5830 C   0  0  0  0  0  0  0  0  0  0  0  0
  182.1879   15.6992   40.0803 H   0  0  0  0  0  0  0  0  0  0  0  0
  181.4621   14.2950   39.2270 H   0  0  0  0  0  0  0  0  0  0  0  0
  180.6176   15.8805   39.2270 H   0  0  0  0  0  0  0  0  0  0  0  0
  179.7193   15.5444   41.2881 H   0  0  0  0  0  0  0  0  0  0  0  0
  180.0777   13.8034   40.9451 H   0  0  0  0  0  0  0  0  0  0  0  0
  181.3982   13.7558   42.7464 H   0  0  0  0  0  0  0  0  0  0  0  0
  182.4752   14.9641   41.9285 H   0  0  0  0  0  0  0  0  0  0  0  0
  181.8712   17.3996   42.0915 H   0  0  0  0  0  0  0  0  0  0  0  0
  181.3214   19.1975   43.7103 H   0  0  0  0  0  0  0  0  0  0  0  0
  183.3264   20.6185   47.8368 H   0  0  0  0  0  0  0  0  0  0  0  0
  183.2178   22.4731   49.5054 H   0  0  0  0  0  0  0  0  0  0  0  0
  181.0056   23.4026   50.1983 H   0  0  0  0  0  0  0  0  0  0  0  0
  178.4640   23.4810   49.0580 H   0  0  0  0  0  0  0  0  0  0  0  0
  177.2430   19.3490   45.2780 H   0  0  0  0  0  0  0  0  0  0  0  0
  179.6969   16.2600   46.4166 H   0  0  0  0  0  0  0  0  0  0  0  0
  180.8122   13.3669   44.4420 H   0  0  0  0  0  0  0  0  0  0  0  0
  180.2249   13.9836   46.0449 H   0  0  0  0  0  0  0  0  0  0  0  0
  178.1076   13.5438   45.5002 H   0  0  0  0  0  0  0  0  0  0  0  0
  178.2511   14.5074   43.9910 H   0  0  0  0  0  0  0  0  0  0  0  0
  178.6953   12.7669   43.9910 H   0  0  0  0  0  0  0  0  0  0  0  0
  1  2  1  0
  2  3  1  0
  3  4  1  0
  4  5  2  0
  5  6  1  0
  6  7  2  0
  7  8  1  0
  8  9  1  0
  9 10  1  0
 10 11  2  0
 11 12  1  0
 12 13  2  0
 13 14  1  0
 14 15  1  0
 14 16  2  0
 16 17  1  0
 17 18  2  0
 17 19  1  0
 19 20  1  0
  7 21  1  0
 21 22  2  0
 22 23  1  0
 23 24  1  0
 22  4  1  0
 19  8  2  0
 16 10  1  0
  1 25  1  0
  1 26  1  0
  1 27  1  0
  2 28  1  0
  2 29  1  0
  3 30  1  0
  3 31  1  0
  5 32  1  0
  6 33  1  0
 11 34  1  0
 12 35  1  0
 13 36  1  0
 15 37  1  0
 20 38  1  0
 21 39  1  0
 23 40  1  0
 23 41  1  0
 24 42  1  0
 24 43  1  0
 24 44  1  0
M  END
>  <meeko>  (7) 
{"is_sidechain": [false], "free_energy": -7.159, "intermolecular_energy": -9.067, "internal_energy": -0.779}

$$$$
cand_053_out
     RDKit          3D

 44 46  0  0  0  0  0  0  0  0999 V2000
  175.5450   18.1260   46.6780 C   0  0  0  0  0  0  0  0  0  0  0  0
  175.6410   19.2500   47.6980 C   0  0  0  0  0  0  0  0  0  0  0  0
  176.1260   20.5490   47.0530 C   0  0  0  0  0  0  0  0  0  0  0  0
  177.3780   21.0740   47.7220 C   0  0  0  0  0  0  0  0  0  0  0  0
  177.2530   21.6490   48.9990 C   0  0  0  0  0  0  0  0  0  0  0  0
  178.3680   22.1410   49.6820 C   0  0  0  0  0  0  0  0  0  0  0  0
  179.6420   22.0660   49.1130 C   0  0  0  0  0  0  0  0  0  0  0  0
  180.8060   22.6200   49.8380 C   0  0  0  0  0  0  0  0  0  0  0  0
  180.6950   23.9860   50.0720 O   0  0  0  0  0  0  0  0  0  0  0  0
  181.7070   24.6310   50.7360 C   0  0  0  0  0  0  0  0  0  0  0  0
  181.5600   26.0040   50.9350 C   0  0  0  0  0  0  0  0  0  0  0  0
  182.5540   26.7210   51.6060 C   0  0  0  0  0  0  0  0  0  0  0  0
  183.6930   26.0640   52.0780 C   0  0  0  0  0  0  0  0  0  0  0  0
  183.8350   24.6930   51.8780 C   0  0  0  0  0  0  0  0  0  0  0  0
  184.9740   24.1140   52.3660 O   0  0  0  0  0  0  0  0  0  0  0  0
  182.8420   23.9770   51.2060 C   0  0  0  0  0  0  0  0  0  0  0  0
  182.9520   22.5370   50.9740 C   0  0  0  0  0  0  0  0  0  0  0  0
  183.9200   21.8870   51.3670 O   0  0  0  0  0  0  0  0  0  0  0  0
  181.8480   21.8730   50.2440 C   0  0  0  0  0  0  0  0  0  0  0  0
  181.9580   20.5080   50.0440 O   0  0  0  0  0  0  0  0  0  0  0  0
  179.7680   21.4960   47.8390 C   0  0  0  0  0  0  0  0  0  0  0  0
  178.6560   20.9860   47.1370 C   0  0  0  0  0  0  0  0  0  0  0  0
  178.8960   20.3950   45.7660 C   0  0  0  0  0  0  0  0  0  0  0  0
  179.5820   19.0390   45.8430 C   0  0  0  0  0  0  0  0  0  0  0  0
  175.4627   17.1620   47.2014 H   0  0  0  0  0  0  0  0  0  0  0  0
  174.6566   18.2780   46.0475 H   0  0  0  0  0  0  0  0  0  0  0  0
  176.4463   18.1251   46.0475 H   0  0  0  0  0  0  0  0  0  0  0  0
  174.6476   19.4187   48.1392 H   0  0  0  0  0  0  0  0  0  0  0  0
  176.3664   18.9553   48.4706 H   0  0  0  0  0  0  0  0  0  0  0  0
  176.3418   20.3605   45.9910 H   0  0  0  0  0  0  0  0  0  0  0  0
  175.3344   21.3043   47.1670 H   0  0  0  0  0  0  0  0  0  0  0  0
  176.2602   21.7125   49.4684 H   0  0  0  0  0  0  0  0  0  0  0  0
  178.2417   22.5918   50.6774 H   0  0  0  0  0  0  0  0  0  0  0  0
  180.6629   26.5214   50.5642 H   0  0  0  0  0  0  0  0  0  0  0  0
  182.4396   27.8038   51.7627 H   0  0  0  0  0  0  0  0  0  0  0  0
  184.4757   26.6281   52.6063 H   0  0  0  0  0  0  0  0  0  0  0  0
  185.7370   24.6360   52.5210 H   0  0  0  0  0  0  0  0  0  0  0  0
  182.2980   20.1800   49.2350 H   0  0  0  0  0  0  0  0  0  0  0  0
  180.7631   21.4448   47.3729 H   0  0  0  0  0  0  0  0  0  0  0  0
  177.9286   20.2753   45.2563 H   0  0  0  0  0  0  0  0  0  0  0  0
  179.5554   21.0788   45.2114 H   0  0  0  0  0  0  0  0  0  0  0  0
  179.7236   18.7591   46.8973 H   0  0  0  0  0  0  0  0  0  0  0  0
  178.9577   18.2834   45.3437 H   0  0  0  0  0  0  0  0  0  0  0  0
  180.5606   19.0943   45.3437 H   0  0  0  0  0  0  0  0  0  0  0  0
  1  2  1  0
  2  3  1  0
  3  4  1  0
  4  5  2  0
  5  6  1  0
  6  7  2  0
  7  8  1  0
  8  9  1  0
  9 10  1  0
 10 11  2  0
 11 12  1  0
 12 13  2  0
 13 14  1  0
 14 15  1  0
 14 16  2  0
 16 17  1  0
 17 18  2  0
 17 19  1  0
 19 20  1  0
  7 21  1  0
 21 22  2  0
 22 23  1  0
 23 24  1  0
 22  4  1  0
 19  8  2  0
 16 10  1  0
  1 25  1  0
  1 26  1  0
  1 27  1  0
  2 28  1  0
  2 29  1  0
  3 30  1  0
  3 31  1  0
  5 32  1  0
  6 33  1  0
 11 34  1  0
 12 35  1  0
 13 36  1  0
 15 37  1  0
 20 38  1  0
 21 39  1  0
 23 40  1  0
 23 41  1  0
 24 42  1  0
 24 43  1  0
 24 44  1  0
M  END
>  <meeko>  (8) 
{"is_sidechain": [false], "free_energy": -7.061, "intermolecular_energy": -8.916, "internal_energy": -0.803}

$$$$
cand_053_out
     RDKit          3D

 44 46  0  0  0  0  0  0  0  0999 V2000
  184.5170   24.8420   44.2650 C   0  0  0  0  0  0  0  0  0  0  0  0
  184.7900   23.5200   44.9650 C   0  0  0  0  0  0  0  0  0  0  0  0
  184.7250   23.6720   46.4860 C   0  0  0  0  0  0  0  0  0  0  0  0
  183.3620   23.3010   47.0290 C   0  0  0  0  0  0  0  0  0  0  0  0
  182.8890   21.9980   46.7940 C   0  0  0  0  0  0  0  0  0  0  0  0
  181.6460   21.5830   47.2770 C   0  0  0  0  0  0  0  0  0  0  0  0
  180.8420   22.4540   48.0170 C   0  0  0  0  0  0  0  0  0  0  0  0
  179.5160   22.0060   48.4930 C   0  0  0  0  0  0  0  0  0  0  0  0
  178.6150   21.7870   47.4560 O   0  0  0  0  0  0  0  0  0  0  0  0
  177.3440   21.3690   47.7570 C   0  0  0  0  0  0  0  0  0  0  0  0
  176.4700   21.1770   46.6860 C   0  0  0  0  0  0  0  0  0  0  0  0
  175.1610   20.7490   46.9230 C   0  0  0  0  0  0  0  0  0  0  0  0
  174.7290   20.5130   48.2300 C   0  0  0  0  0  0  0  0  0  0  0  0
  175.6040   20.7060   49.2960 C   0  0  0  0  0  0  0  0  0  0  0  0
  175.1140   20.4560   50.5490 O   0  0  0  0  0  0  0  0  0  0  0  0
  176.9120   21.1340   49.0580 C   0  0  0  0  0  0  0  0  0  0  0  0
  177.8630   21.3490   50.1500 C   0  0  0  0  0  0  0  0  0  0  0  0
  177.5590   21.1550   51.3250 O   0  0  0  0  0  0  0  0  0  0  0  0
  179.2240   21.8120   49.7920 C   0  0  0  0  0  0  0  0  0  0  0  0
  180.1180   21.9980   50.8310 O   0  0  0  0  0  0  0  0  0  0  0  0
  181.3090   23.7540   48.2480 C   0  0  0  0  0  0  0  0  0  0  0  0
  182.5650   24.1900   47.7770 C   0  0  0  0  0  0  0  0  0  0  0  0
  182.9780   25.6140   48.0750 C   0  0  0  0  0  0  0  0  0  0  0  0
  181.8820   26.3850   48.7960 C   0  0  0  0  0  0  0  0  0  0  0  0
  184.3546   25.6283   45.0169 H   0  0  0  0  0  0  0  0  0  0  0  0
  185.3790   25.1086   43.6359 H   0  0  0  0  0  0  0  0  0  0  0  0
  183.6199   24.7454   43.6359 H   0  0  0  0  0  0  0  0  0  0  0  0
  184.0376   22.7837   44.6461 H   0  0  0  0  0  0  0  0  0  0  0  0
  185.8019   23.1856   44.6926 H   0  0  0  0  0  0  0  0  0  0  0  0
  185.4809   23.0159   46.9422 H   0  0  0  0  0  0  0  0  0  0  0  0
  184.9166   24.7266   46.7332 H   0  0  0  0  0  0  0  0  0  0  0  0
  183.5086   21.2933   46.2199 H   0  0  0  0  0  0  0  0  0  0  0  0
  181.2964   20.5602   47.0728 H   0  0  0  0  0  0  0  0  0  0  0  0
  176.8110   21.3623   45.6568 H   0  0  0  0  0  0  0  0  0  0  0  0
  174.4707   20.5979   46.0800 H   0  0  0  0  0  0  0  0  0  0  0  0
  173.6990   20.1751   48.4171 H   0  0  0  0  0  0  0  0  0  0  0  0
  174.6780   19.6460   50.7290 H   0  0  0  0  0  0  0  0  0  0  0  0
  180.7450   21.3330   51.0330 H   0  0  0  0  0  0  0  0  0  0  0  0
  180.6779   24.4555   48.8133 H   0  0  0  0  0  0  0  0  0  0  0  0
  183.8770   25.5981   48.7086 H   0  0  0  0  0  0  0  0  0  0  0  0
  183.1756   26.1185   47.1177 H   0  0  0  0  0  0  0  0  0  0  0  0
  182.0198   26.2880   49.8830 H   0  0  0  0  0  0  0  0  0  0  0  0
  181.9337   27.4467   48.5131 H   0  0  0  0  0  0  0  0  0  0  0  0
  180.9002   25.9776   48.5131 H   0  0  0  0  0  0  0  0  0  0  0  0
  1  2  1  0
  2  3  1  0
  3  4  1  0
  4  5  2  0
  5  6  1  0
  6  7  2  0
  7  8  1  0
  8  9  1  0
  9 10  1  0
 10 11  2  0
 11 12  1  0
 12 13  2  0
 13 14  1  0
 14 15  1  0
 14 16  2  0
 16 17  1  0
 17 18  2  0
 17 19  1  0
 19 20  1  0
  7 21  1  0
 21 22  2  0
 22 23  1  0
 23 24  1  0
 22  4  1  0
 19  8  2  0
 16 10  1  0
  1 25  1  0
  1 26  1  0
  1 27  1  0
  2 28  1  0
  2 29  1  0
  3 30  1  0
  3 31  1  0
  5 32  1  0
  6 33  1  0
 11 34  1  0
 12 35  1  0
 13 36  1  0
 15 37  1  0
 20 38  1  0
 21 39  1  0
 23 40  1  0
 23 41  1  0
 24 42  1  0
 24 43  1  0
 24 44  1  0
M  END
>  <meeko>  (9) 
{"is_sidechain": [false], "free_energy": -6.884, "intermolecular_energy": -8.722, "internal_energy": -0.769}

$$$$
