cand_011_out
     RDKit          3D

 35 37  0  0  0  0  0  0  0  0999 V2000
  182.0280   15.3550   42.7800 C   0  0  0  0  0  0  0  0  0  0  0  0
  181.4620   16.4040   43.7010 C   0  0  0  0  0  0  0  0  0  0  0  0
  181.9030   17.7300   43.5800 C   0  0  0  0  0  0  0  0  0  0  0  0
  181.3970   18.7300   44.4130 C   0  0  0  0  0  0  0  0  0  0  0  0
  180.4420   18.4350   45.3910 C   0  0  0  0  0  0  0  0  0  0  0  0
  179.9070   19.5130   46.2480 C   0  0  0  0  0  0  0  0  0  0  0  0
  178.5190   19.5780   46.2350 O   0  0  0  0  0  0  0  0  0  0  0  0
  177.8930   20.5380   46.9900 C   0  0  0  0  0  0  0  0  0  0  0  0
  176.4980   20.5580   46.9590 C   0  0  0  0  0  0  0  0  0  0  0  0
  175.7980   21.5100   47.7040 C   0  0  0  0  0  0  0  0  0  0  0  0
  176.4940   22.4410   48.4790 C   0  0  0  0  0  0  0  0  0  0  0  0
  177.8860   22.4190   48.5080 C   0  0  0  0  0  0  0  0  0  0  0  0
  178.5020   23.3600   49.2860 O   0  0  0  0  0  0  0  0  0  0  0  0
  178.5850   21.4650   47.7630 C   0  0  0  0  0  0  0  0  0  0  0  0
  180.0480   21.4080   47.7650 C   0  0  0  0  0  0  0  0  0  0  0  0
  180.7310   22.1970   48.4150 O   0  0  0  0  0  0  0  0  0  0  0  0
  180.6920   20.3540   46.9490 C   0  0  0  0  0  0  0  0  0  0  0  0
  182.0740   20.3130   46.9460 O   0  0  0  0  0  0  0  0  0  0  0  0
  179.9890   17.1120   45.5010 C   0  0  0  0  0  0  0  0  0  0  0  0
  180.4860   16.0870   44.6690 C   0  0  0  0  0  0  0  0  0  0  0  0
  179.9650   14.6770   44.8400 C   0  0  0  0  0  0  0  0  0  0  0  0
  178.8270   14.6260   45.5890 F   0  0  0  0  0  0  0  0  0  0  0  0
  179.6580   14.0570   43.6650 F   0  0  0  0  0  0  0  0  0  0  0  0
  180.8580   13.8560   45.4610 F   0  0  0  0  0  0  0  0  0  0  0  0
  182.4669   14.5416   43.3765 H   0  0  0  0  0  0  0  0  0  0  0  0
  181.2248   14.9522   42.1455 H   0  0  0  0  0  0  0  0  0  0  0  0
  182.8057   15.8052   42.1455 H   0  0  0  0  0  0  0  0  0  0  0  0
  182.6562   17.9851   42.8200 H   0  0  0  0  0  0  0  0  0  0  0  0
  181.7545   19.7639   44.2983 H   0  0  0  0  0  0  0  0  0  0  0  0
  175.9502   19.8249   46.3486 H   0  0  0  0  0  0  0  0  0  0  0  0
  174.6984   21.5266   47.6804 H   0  0  0  0  0  0  0  0  0  0  0  0
  175.9429   23.1907   49.0657 H   0  0  0  0  0  0  0  0  0  0  0  0
  179.1630   23.9120   48.9170 H   0  0  0  0  0  0  0  0  0  0  0  0
  182.5360   20.0550   47.7190 H   0  0  0  0  0  0  0  0  0  0  0  0
  179.2267   16.8675   46.2554 H   0  0  0  0  0  0  0  0  0  0  0  0
  1  2  1  0
  2  3  2  0
  3  4  1  0
  4  5  2  0
  5  6  1  0
  6  7  1  0
  7  8  1  0
  8  9  2  0
  9 10  1  0
 10 11  2  0
 11 12  1  0
 12 13  1  0
 12 14  2  0
 14 15  1  0
 15 16  2  0
 15 17  1  0
 17 18  1  0
  5 19  1  0
 19 20  2  0
 20 21  1  0
 21 22  1  0
 21 23  1  0
 21 24  1  0
 20  2  1  0
 17  6  2  0
 14  8  1  0
  1 25  1  0
  1 26  1  0
  1 27  1  0
  3 28  1  0
  4 29  1  0
  9 30  1  0
 10 31  1  0
 11 32  1  0
 13 33  1  0
 18 34  1  0
 19 35  1  0
M  END
>  <meeko>  (1) 
{"is_sidechain": [false], "free_energy": -9.011, "intermolecular_energy": -10.591, "internal_energy": -0.129}

$$$$
cand_011_out
     RDKit          3D

 35 37  0  0  0  0  0  0  0  0999 V2000
  176.6690   22.3830   49.0970 C   0  0  0  0  0  0  0  0  0  0  0  0
  177.4200   21.4150   48.2230 C   0  0  0  0  0  0  0  0  0  0  0  0
  178.8170   21.5010   48.1500 C   0  0  0  0  0  0  0  0  0  0  0  0
  179.5480   20.6180   47.3530 C   0  0  0  0  0  0  0  0  0  0  0  0
  178.9040   19.6260   46.6050 C   0  0  0  0  0  0  0  0  0  0  0  0
  179.7000   18.6900   45.7830 C   0  0  0  0  0  0  0  0  0  0  0  0
  179.1980   17.3940   45.8000 O   0  0  0  0  0  0  0  0  0  0  0  0
  179.8450   16.4230   45.0770 C   0  0  0  0  0  0  0  0  0  0  0  0
  179.2990   15.1390   45.1110 C   0  0  0  0  0  0  0  0  0  0  0  0
  179.9080   14.1050   44.3970 C   0  0  0  0  0  0  0  0  0  0  0  0
  181.0640   14.3540   43.6530 C   0  0  0  0  0  0  0  0  0  0  0  0
  181.6060   15.6360   43.6210 C   0  0  0  0  0  0  0  0  0  0  0  0
  182.7380   15.8090   42.8730 O   0  0  0  0  0  0  0  0  0  0  0  0
  180.9950   16.6710   44.3340 C   0  0  0  0  0  0  0  0  0  0  0  0
  181.5330   18.0320   44.3280 C   0  0  0  0  0  0  0  0  0  0  0  0
  182.5490   18.3290   43.7030 O   0  0  0  0  0  0  0  0  0  0  0  0
  180.8060   19.0590   45.1090 C   0  0  0  0  0  0  0  0  0  0  0  0
  181.3270   20.3390   45.1090 O   0  0  0  0  0  0  0  0  0  0  0  0
  177.5080   19.5290   46.6910 C   0  0  0  0  0  0  0  0  0  0  0  0
  176.7510   20.4110   47.4900 C   0  0  0  0  0  0  0  0  0  0  0  0
  175.2460   20.2620   47.5360 C   0  0  0  0  0  0  0  0  0  0  0  0
  174.7980   19.2310   46.7650 F   0  0  0  0  0  0  0  0  0  0  0  0
  174.7550   20.0250   48.7860 F   0  0  0  0  0  0  0  0  0  0  0  0
  174.5920   21.3730   47.0940 F   0  0  0  0  0  0  0  0  0  0  0  0
  176.8552   22.1430   50.1542 H   0  0  0  0  0  0  0  0  0  0  0  0
  177.0111   23.4073   48.8878 H   0  0  0  0  0  0  0  0  0  0  0  0
  175.5918   22.3062   48.8878 H   0  0  0  0  0  0  0  0  0  0  0  0
  179.3443   22.2742   48.7281 H   0  0  0  0  0  0  0  0  0  0  0  0
  180.6440   20.7031   47.3125 H   0  0  0  0  0  0  0  0  0  0  0  0
  178.3906   14.9419   45.6992 H   0  0  0  0  0  0  0  0  0  0  0  0
  179.4771   13.0932   44.4204 H   0  0  0  0  0  0  0  0  0  0  0  0
  181.5452   13.5384   43.0933 H   0  0  0  0  0  0  0  0  0  0  0  0
  182.6970   15.7400   41.9400 H   0  0  0  0  0  0  0  0  0  0  0  0
  181.2760   20.8650   45.8830 H   0  0  0  0  0  0  0  0  0  0  0  0
  176.9895   18.7444   46.1204 H   0  0  0  0  0  0  0  0  0  0  0  0
  1  2  1  0
  2  3  2  0
  3  4  1  0
  4  5  2  0
  5  6  1  0
  6  7  1  0
  7  8  1  0
  8  9  2  0
  9 10  1  0
 10 11  2  0
 11 12  1  0
 12 13  1  0
 12 14  2  0
 14 15  1  0
 15 16  2  0
 15 17  1  0
 17 18  1  0
  5 19  1  0
 19 20  2  0
 20 21  1  0
 21 22  1  0
 21 23  1  0
 21 24  1  0
 20  2  1  0
 17  6  2  0
 14  8  1  0
  1 25  1  0
  1 26  1  0
  1 27  1  0
  3 28  1  0
  4 29  1  0
  9 30  1  0
 10 31  1  0
 11 32  1  0
 13 33  1  0
 18 34  1  0
 19 35  1  0
M  END
>  <meeko>  (2) 
{"is_sidechain": [false], "free_energy": -8.006, "intermolecular_energy": -9.534, "internal_energy": -0.006}

$$$$
cand_011_out
     RDKit          3D

 35 37  0  0  0  0  0  0  0  0999 V2000
  175.6130   22.1930   48.5610 C   0  0  0  0  0  0  0  0  0  0  0  0
  176.6050   21.3220   47.8370 C   0  0  0  0  0  0  0  0  0  0  0  0
  176.2800   19.9820   47.5810 C   0  0  0  0  0  0  0  0  0  0  0  0
  177.1730   19.1450   46.9090 C   0  0  0  0  0  0  0  0  0  0  0  0
  178.4150   19.6210   46.4760 C   0  0  0  0  0  0  0  0  0  0  0  0
  179.3360   18.7220   45.7490 C   0  0  0  0  0  0  0  0  0  0  0  0
  178.9260   17.3940   45.7720 O   0  0  0  0  0  0  0  0  0  0  0  0
  179.6940   16.4530   45.1340 C   0  0  0  0  0  0  0  0  0  0  0  0
  179.2390   15.1340   45.1690 C   0  0  0  0  0  0  0  0  0  0  0  0
  179.9740   14.1270   44.5400 C   0  0  0  0  0  0  0  0  0  0  0  0
  181.1640   14.4380   43.8780 C   0  0  0  0  0  0  0  0  0  0  0  0
  181.6150   15.7540   43.8440 C   0  0  0  0  0  0  0  0  0  0  0  0
  182.7880   15.9880   43.1790 O   0  0  0  0  0  0  0  0  0  0  0  0
  180.8790   16.7630   44.4730 C   0  0  0  0  0  0  0  0  0  0  0  0
  181.3190   18.1580   44.4620 C   0  0  0  0  0  0  0  0  0  0  0  0
  182.3580   18.5110   43.9070 O   0  0  0  0  0  0  0  0  0  0  0  0
  180.4630   19.1510   45.1500 C   0  0  0  0  0  0  0  0  0  0  0  0
  180.8910   20.4650   45.1460 O   0  0  0  0  0  0  0  0  0  0  0  0
  178.7330   20.9660   46.7160 C   0  0  0  0  0  0  0  0  0  0  0  0
  177.8450   21.8280   47.3930 C   0  0  0  0  0  0  0  0  0  0  0  0
  178.2480   23.2670   47.6310 C   0  0  0  0  0  0  0  0  0  0  0  0
  179.3920   23.6060   46.9740 F   0  0  0  0  0  0  0  0  0  0  0  0
  177.3110   24.1730   47.2290 F   0  0  0  0  0  0  0  0  0  0  0  0
  178.4760   23.5410   48.9460 F   0  0  0  0  0  0  0  0  0  0  0  0
  175.7462   22.0761   49.6466 H   0  0  0  0  0  0  0  0  0  0  0  0
  175.7766   23.2445   48.2827 H   0  0  0  0  0  0  0  0  0  0  0  0
  174.5915   21.8947   48.2827 H   0  0  0  0  0  0  0  0  0  0  0  0
  175.3094   19.5854   47.9138 H   0  0  0  0  0  0  0  0  0  0  0  0
  176.8962   18.0977   46.7176 H   0  0  0  0  0  0  0  0  0  0  0  0
  178.3027   14.8881   45.6914 H   0  0  0  0  0  0  0  0  0  0  0  0
  179.6154   13.0874   44.5659 H   0  0  0  0  0  0  0  0  0  0  0  0
  181.7436   13.6440   43.3844 H   0  0  0  0  0  0  0  0  0  0  0  0
  183.4510   15.3260   43.1530 H   0  0  0  0  0  0  0  0  0  0  0  0
  181.2280   20.8460   44.3590 H   0  0  0  0  0  0  0  0  0  0  0  0
  179.6996   21.3586   46.3673 H   0  0  0  0  0  0  0  0  0  0  0  0
  1  2  1  0
  2  3  2  0
  3  4  1  0
  4  5  2  0
  5  6  1  0
  6  7  1  0
  7  8  1  0
  8  9  2  0
  9 10  1  0
 10 11  2  0
 11 12  1  0
 12 13  1  0
 12 14  2  0
 14 15  1  0
 15 16  2  0
 15 17  1  0
 17 18  1  0
  5 19  1  0
 19 20  2  0
 20 21  1  0
 21 22  1  0
 21 23  1  0
 21 24  1  0
 20  2  1  0
 17  6  2  0
 14  8  1  0
  1 25  1  0
  1 26  1  0
  1 27  1  0
  3 28  1  0
  4 29  1  0
  9 30  1  0
 10 31  1  0
 11 32  1  0
 13 33  1  0
 18 34  1  0
 19 35  1  0
M  END
>  <meeko>  (3) 
{"is_sidechain": [false], "free_energy": -7.265, "intermolecular_energy": -8.901, "internal_energy": 0.233}

$$$$
cand_011_out
     RDKit          3D

 35 37  0  0  0  0  0  0  0  0999 V2000
  182.2600   15.8340   43.2530 C   0  0  0  0  0  0  0  0  0  0  0  0
  181.3330   16.7230   44.0380 C   0  0  0  0  0  0  0  0  0  0  0  0
  181.5310   18.1110   44.0110 C   0  0  0  0  0  0  0  0  0  0  0  0
  180.6890   18.9670   44.7230 C   0  0  0  0  0  0  0  0  0  0  0  0
  179.6280   18.4630   45.4830 C   0  0  0  0  0  0  0  0  0  0  0  0
  178.7380   19.3900   46.2130 C   0  0  0  0  0  0  0  0  0  0  0  0
  179.3650   20.5820   46.5590 O   0  0  0  0  0  0  0  0  0  0  0  0
  178.6490   21.5320   47.2430 C   0  0  0  0  0  0  0  0  0  0  0  0
  179.3120   22.7190   47.5580 C   0  0  0  0  0  0  0  0  0  0  0  0
  178.6420   23.7280   48.2530 C   0  0  0  0  0  0  0  0  0  0  0  0
  177.3100   23.5490   48.6350 C   0  0  0  0  0  0  0  0  0  0  0  0
  176.6510   22.3630   48.3190 C   0  0  0  0  0  0  0  0  0  0  0  0
  175.3490   22.2540   48.7240 O   0  0  0  0  0  0  0  0  0  0  0  0
  177.3220   21.3540   47.6220 C   0  0  0  0  0  0  0  0  0  0  0  0
  176.6670   20.0940   47.2710 C   0  0  0  0  0  0  0  0  0  0  0  0
  175.4990   19.8580   47.5780 O   0  0  0  0  0  0  0  0  0  0  0  0
  177.4630   19.0930   46.5240 C   0  0  0  0  0  0  0  0  0  0  0  0
  176.8410   17.9000   46.2080 O   0  0  0  0  0  0  0  0  0  0  0  0
  179.4190   17.0760   45.4960 C   0  0  0  0  0  0  0  0  0  0  0  0
  180.2580   16.1940   44.7830 C   0  0  0  0  0  0  0  0  0  0  0  0
  179.9880   14.7060   44.8420 C   0  0  0  0  0  0  0  0  0  0  0  0
  178.8200   14.4110   45.4790 F   0  0  0  0  0  0  0  0  0  0  0  0
  179.8980   14.1150   43.6170 F   0  0  0  0  0  0  0  0  0  0  0  0
  180.9600   14.0190   45.5060 F   0  0  0  0  0  0  0  0  0  0  0  0
  182.8761   15.2431   43.9467 H   0  0  0  0  0  0  0  0  0  0  0  0
  181.6690   15.1564   42.6193 H   0  0  0  0  0  0  0  0  0  0  0  0
  182.9123   16.4529   42.6193 H   0  0  0  0  0  0  0  0  0  0  0  0
  182.3598   18.5303   43.4217 H   0  0  0  0  0  0  0  0  0  0  0  0
  180.8621   20.0527   44.6860 H   0  0  0  0  0  0  0  0  0  0  0  0
  180.3612   22.8596   47.2591 H   0  0  0  0  0  0  0  0  0  0  0  0
  179.1634   24.6646   48.4999 H   0  0  0  0  0  0  0  0  0  0  0  0
  176.7827   24.3430   49.1842 H   0  0  0  0  0  0  0  0  0  0  0  0
  174.6780   22.7320   48.2770 H   0  0  0  0  0  0  0  0  0  0  0  0
  177.3350   17.2020   45.8260 H   0  0  0  0  0  0  0  0  0  0  0  0
  178.5798   16.6657   46.0768 H   0  0  0  0  0  0  0  0  0  0  0  0
  1  2  1  0
  2  3  2  0
  3  4  1  0
  4  5  2  0
  5  6  1  0
  6  7  1  0
  7  8  1  0
  8  9  2  0
  9 10  1  0
 10 11  2  0
 11 12  1  0
 12 13  1  0
 12 14  2  0
 14 15  1  0
 15 16  2  0
 15 17  1  0
 17 18  1  0
  5 19  1  0
 19 20  2  0
 20 21  1  0
 21 22  1  0
 21 23  1  0
 21 24  1  0
 20  2  1  0
 17  6  2  0
 14  8  1  0
  1 25  1  0
  1 26  1  0
  1 27  1  0
  3 28  1  0
  4 29  1  0
  9 30  1  0
 10 31  1  0
 11 32  1  0
 13 33  1  0
 18 34  1  0
 19 35  1  0
M  END
>  <meeko>  (4) 
{"is_sidechain": [false], "free_energy": -7.242, "intermolecular_energy": -8.759, "internal_energy": 0.118}

$$$$
cand_011_out
     RDKit          3D

 35 37  0  0  0  0  0  0  0  0999 V2000
  181.1770   13.5430   42.4350 C   0  0  0  0  0  0  0  0  0  0  0  0
  180.9130   14.8370   43.1580 C   0  0  0  0  0  0  0  0  0  0  0  0
  180.6730   14.8110   44.5400 C   0  0  0  0  0  0  0  0  0  0  0  0
  180.4290   15.9910   45.2450 C   0  0  0  0  0  0  0  0  0  0  0  0
  180.4140   17.2280   44.5920 C   0  0  0  0  0  0  0  0  0  0  0  0
  180.1710   18.4660   45.3620 C   0  0  0  0  0  0  0  0  0  0  0  0
  178.8720   18.5540   45.8490 O   0  0  0  0  0  0  0  0  0  0  0  0
  178.5130   19.6570   46.5820 C   0  0  0  0  0  0  0  0  0  0  0  0
  177.2040   19.6990   47.0640 C   0  0  0  0  0  0  0  0  0  0  0  0
  176.7740   20.7940   47.8170 C   0  0  0  0  0  0  0  0  0  0  0  0
  177.6520   21.8460   48.0880 C   0  0  0  0  0  0  0  0  0  0  0  0
  178.9580   21.8010   47.6060 C   0  0  0  0  0  0  0  0  0  0  0  0
  179.7640   22.8650   47.9070 O   0  0  0  0  0  0  0  0  0  0  0  0
  179.3880   20.7050   46.8530 C   0  0  0  0  0  0  0  0  0  0  0  0
  180.7520   20.6190   46.3280 C   0  0  0  0  0  0  0  0  0  0  0  0
  181.5810   21.5080   46.5170 O   0  0  0  0  0  0  0  0  0  0  0  0
  181.1100   19.4120   45.5500 C   0  0  0  0  0  0  0  0  0  0  0  0
  182.3960   19.3440   45.0460 O   0  0  0  0  0  0  0  0  0  0  0  0
  180.6700   17.2550   43.2130 C   0  0  0  0  0  0  0  0  0  0  0  0
  180.9190   16.0750   42.4820 C   0  0  0  0  0  0  0  0  0  0  0  0
  181.1810   16.1680   40.9940 C   0  0  0  0  0  0  0  0  0  0  0  0
  181.3850   17.4490   40.5770 F   0  0  0  0  0  0  0  0  0  0  0  0
  182.2780   15.4690   40.5850 F   0  0  0  0  0  0  0  0  0  0  0  0
  180.1460   15.6900   40.2460 F   0  0  0  0  0  0  0  0  0  0  0  0
  181.3409   12.7399   43.1686 H   0  0  0  0  0  0  0  0  0  0  0  0
  180.3115   13.2923   41.8041 H   0  0  0  0  0  0  0  0  0  0  0  0
  182.0715   13.6514   41.8041 H   0  0  0  0  0  0  0  0  0  0  0  0
  180.6771   13.8495   45.0744 H   0  0  0  0  0  0  0  0  0  0  0  0
  180.2460   15.9474   46.3288 H   0  0  0  0  0  0  0  0  0  0  0  0
  176.5119   18.8710   46.8512 H   0  0  0  0  0  0  0  0  0  0  0  0
  175.7423   20.8279   48.1972 H   0  0  0  0  0  0  0  0  0  0  0  0
  177.3127   22.7082   48.6809 H   0  0  0  0  0  0  0  0  0  0  0  0
  180.0980   23.4080   47.2200 H   0  0  0  0  0  0  0  0  0  0  0  0
  182.9240   20.1170   45.0040 H   0  0  0  0  0  0  0  0  0  0  0  0
  180.6767   18.2217   42.6882 H   0  0  0  0  0  0  0  0  0  0  0  0
  1  2  1  0
  2  3  2  0
  3  4  1  0
  4  5  2  0
  5  6  1  0
  6  7  1  0
  7  8  1  0
  8  9  2  0
  9 10  1  0
 10 11  2  0
 11 12  1  0
 12 13  1  0
 12 14  2  0
 14 15  1  0
 15 16  2  0
 15 17  1  0
 17 18  1  0
  5 19  1  0
 19 20  2  0
 20 21  1  0
 21 22  1  0
 21 23  1  0
 21 24  1  0
 20  2  1  0
 17  6  2  0
 14  8  1  0
  1 25  1  0
  1 26  1  0
  1 27  1  0
  3 28  1  0
  4 29  1  0
  9 30  1  0
 10 31  1  0
 11 32  1  0
 13 33  1  0
 18 34  1  0
 19 35  1  0
M  END
>  <meeko>  (5) 
{"is_sidechain": [false], "free_energy": -6.945, "intermolecular_energy": -7.989, "internal_energy": -0.303}

$$$$
cand_011_out
     RDKit          3D

 35 37  0  0  0  0  0  0  0  0999 V2000
  180.2580   14.2440   43.6600 C   0  0  0  0  0  0  0  0  0  0  0  0
  180.0680   15.5590   44.3690 C   0  0  0  0  0  0  0  0  0  0  0  0
  179.0790   15.6660   45.3570 C   0  0  0  0  0  0  0  0  0  0  0  0
  178.8760   16.8680   46.0380 C   0  0  0  0  0  0  0  0  0  0  0  0
  179.6520   17.9960   45.7510 C   0  0  0  0  0  0  0  0  0  0  0  0
  179.4320   19.2520   46.4980 C   0  0  0  0  0  0  0  0  0  0  0  0
  178.0890   19.5960   46.5950 O   0  0  0  0  0  0  0  0  0  0  0  0
  177.7450   20.7430   47.2640 C   0  0  0  0  0  0  0  0  0  0  0  0
  176.3850   21.0440   47.3500 C   0  0  0  0  0  0  0  0  0  0  0  0
  175.9670   22.1970   48.0170 C   0  0  0  0  0  0  0  0  0  0  0  0
  176.9090   23.0510   48.5970 C   0  0  0  0  0  0  0  0  0  0  0  0
  178.2660   22.7480   48.5100 C   0  0  0  0  0  0  0  0  0  0  0  0
  179.1330   23.6270   49.0990 O   0  0  0  0  0  0  0  0  0  0  0  0
  178.6830   21.5930   47.8430 C   0  0  0  0  0  0  0  0  0  0  0  0
  180.0990   21.2390   47.7290 C   0  0  0  0  0  0  0  0  0  0  0  0
  180.9880   21.9420   48.2060 O   0  0  0  0  0  0  0  0  0  0  0  0
  180.4360   19.9890   47.0090 C   0  0  0  0  0  0  0  0  0  0  0  0
  181.7750   19.6680   46.8940 O   0  0  0  0  0  0  0  0  0  0  0  0
  180.6530   17.8840   44.7750 C   0  0  0  0  0  0  0  0  0  0  0  0
  180.8740   16.6790   44.0750 C   0  0  0  0  0  0  0  0  0  0  0  0
  181.9640   16.6210   43.0270 C   0  0  0  0  0  0  0  0  0  0  0  0
  182.8810   17.6200   43.1680 F   0  0  0  0  0  0  0  0  0  0  0  0
  182.6800   15.4610   43.0420 F   0  0  0  0  0  0  0  0  0  0  0  0
  181.4810   16.7340   41.7570 F   0  0  0  0  0  0  0  0  0  0  0  0
  180.3741   13.4406   44.4024 H   0  0  0  0  0  0  0  0  0  0  0  0
  179.3804   14.0370   43.0299 H   0  0  0  0  0  0  0  0  0  0  0  0
  181.1583   14.2939   43.0299 H   0  0  0  0  0  0  0  0  0  0  0  0
  178.4555   14.7926   45.5986 H   0  0  0  0  0  0  0  0  0  0  0  0
  178.0954   16.9287   46.8106 H   0  0  0  0  0  0  0  0  0  0  0  0
  175.6429   20.3732   46.8925 H   0  0  0  0  0  0  0  0  0  0  0  0
  174.8950   22.4336   48.0861 H   0  0  0  0  0  0  0  0  0  0  0  0
  176.5797   23.9604   49.1210 H   0  0  0  0  0  0  0  0  0  0  0  0
  178.9180   24.5380   49.1430 H   0  0  0  0  0  0  0  0  0  0  0  0
  182.3430   19.7580   47.6340 H   0  0  0  0  0  0  0  0  0  0  0  0
  181.2819   18.7579   44.5495 H   0  0  0  0  0  0  0  0  0  0  0  0
  1  2  1  0
  2  3  2  0
  3  4  1  0
  4  5  2  0
  5  6  1  0
  6  7  1  0
  7  8  1  0
  8  9  2  0
  9 10  1  0
 10 11  2  0
 11 12  1  0
 12 13  1  0
 12 14  2  0
 14 15  1  0
 15 16  2  0
 15 17  1  0
 17 18  1  0
  5 19  1  0
 19 20  2  0
 20 21  1  0
 21 22  1  0
 21 23  1  0
 21 24  1  0
 20  2  1  0
 17  6  2  0
 14  8  1  0
  1 25  1  0
  1 26  1  0
  1 27  1  0
  3 28  1  0
  4 29  1  0
  9 30  1  0
 10 31  1  0
 11 32  1  0
 13 33  1  0
 18 34  1  0
 19 35  1  0
M  END
>  <meeko>  (6) 
{"is_sidechain": [false], "free_energy": -6.211, "intermolecular_energy": -7.434, "internal_energy": 0.005}

$$$$
