cand_023_out
     RDKit          3D

 47 50  0  0  0  0  0  0  0  0999 V2000
  175.2960   20.3800   47.3680 C   0  0  0  0  0  0  0  0  0  0  0  0
  176.7980   20.4280   47.4440 C   0  0  0  0  0  0  0  0  0  0  0  0
  177.5600   19.5610   46.6390 C   0  0  0  0  0  0  0  0  0  0  0  0
  178.9630   19.5750   46.6730 C   0  0  0  0  0  0  0  0  0  0  0  0
  179.7290   18.6300   45.8330 C   0  0  0  0  0  0  0  0  0  0  0  0
  179.2160   17.3380   45.8670 O   0  0  0  0  0  0  0  0  0  0  0  0
  179.8310   16.3600   45.1300 C   0  0  0  0  0  0  0  0  0  0  0  0
  179.2910   15.0750   45.2050 C   0  0  0  0  0  0  0  0  0  0  0  0
  179.8680   14.0330   44.4770 C   0  0  0  0  0  0  0  0  0  0  0  0
  180.9850   14.2740   43.6750 C   0  0  0  0  0  0  0  0  0  0  0  0
  181.5230   15.5560   43.6020 C   0  0  0  0  0  0  0  0  0  0  0  0
  182.6170   15.7230   42.7980 O   0  0  0  0  0  0  0  0  0  0  0  0
  180.9450   16.6000   44.3310 C   0  0  0  0  0  0  0  0  0  0  0  0
  181.4780   17.9620   44.2820 C   0  0  0  0  0  0  0  0  0  0  0  0
  182.4540   18.2540   43.5940 O   0  0  0  0  0  0  0  0  0  0  0  0
  180.7960   18.9930   45.0970 C   0  0  0  0  0  0  0  0  0  0  0  0
  181.3010   20.2800   45.0330 O   0  0  0  0  0  0  0  0  0  0  0  0
  179.5960   20.4670   47.5440 C   0  0  0  0  0  0  0  0  0  0  0  0
  178.8490   21.3350   48.3470 C   0  0  0  0  0  0  0  0  0  0  0  0
  177.4460   21.3280   48.3120 C   0  0  0  0  0  0  0  0  0  0  0  0
  176.6690   22.2030   49.1010 N   0  0  0  0  0  0  0  0  0  0  0  0
  176.8780   22.0300   50.5480 C   0  0  0  0  0  0  0  0  0  0  0  0
  175.8280   22.8460   51.3030 C   0  0  0  0  0  0  0  0  0  0  0  0
  175.8670   24.3150   50.8830 C   0  0  0  0  0  0  0  0  0  0  0  0
  175.7510   24.4530   49.3660 C   0  0  0  0  0  0  0  0  0  0  0  0
  176.7950   23.5970   48.6490 C   0  0  0  0  0  0  0  0  0  0  0  0
  174.8776   20.3666   48.3852 H   0  0  0  0  0  0  0  0  0  0  0  0
  174.9275   21.2668   46.8316 H   0  0  0  0  0  0  0  0  0  0  0  0
  174.9849   19.4715   46.8316 H   0  0  0  0  0  0  0  0  0  0  0  0
  177.0449   18.8572   45.9687 H   0  0  0  0  0  0  0  0  0  0  0  0
  178.4115   14.8836   45.8373 H   0  0  0  0  0  0  0  0  0  0  0  0
  179.4419   13.0205   44.5353 H   0  0  0  0  0  0  0  0  0  0  0  0
  181.4393   13.4524   43.1017 H   0  0  0  0  0  0  0  0  0  0  0  0
  183.4630   15.8520   43.1780 H   0  0  0  0  0  0  0  0  0  0  0  0
  181.6580   20.6030   44.2290 H   0  0  0  0  0  0  0  0  0  0  0  0
  180.6945   20.4863   47.5983 H   0  0  0  0  0  0  0  0  0  0  0  0
  179.3698   22.0348   49.0171 H   0  0  0  0  0  0  0  0  0  0  0  0
  176.7777   20.9665   50.8107 H   0  0  0  0  0  0  0  0  0  0  0  0
  177.8856   22.3758   50.8222 H   0  0  0  0  0  0  0  0  0  0  0  0
  174.8304   22.4366   51.0859 H   0  0  0  0  0  0  0  0  0  0  0  0
  176.0451   22.7843   52.3796 H   0  0  0  0  0  0  0  0  0  0  0  0
  175.0297   24.8474   51.3579 H   0  0  0  0  0  0  0  0  0  0  0  0
  176.8276   24.7457   51.2020 H   0  0  0  0  0  0  0  0  0  0  0  0
  174.7470   24.1309   49.0526 H   0  0  0  0  0  0  0  0  0  0  0  0
  175.9228   25.5062   49.0990 H   0  0  0  0  0  0  0  0  0  0  0  0
  176.6298   23.6481   47.5627 H   0  0  0  0  0  0  0  0  0  0  0  0
  177.8030   23.9715   48.8807 H   0  0  0  0  0  0  0  0  0  0  0  0
  1  2  1  0
  2  3  2  0
  3  4  1  0
  4  5  1  0
  5  6  1  0
  6  7  1  0
  7  8  2  0
  8  9  1  0
  9 10  2  0
 10 11  1  0
 11 12  1  0
 11 13  2  0
 13 14  1  0
 14 15  2  0
 14 16  1  0
 16 17  1  0
  4 18  2  0
 18 19  1  0
 19 20  2  0
 20 21  1  0
 21 22  1  0
 22 23  1  0
 23 24  1  0
 24 25  1  0
 25 26  1  0
 20  2  1  0
 26 21  1  0
 16  5  2  0
 13  7  1  0
  1 27  1  0
  1 28  1  0
  1 29  1  0
  3 30  1  0
  8 31  1  0
  9 32  1  0
 10 33  1  0
 12 34  1  0
 17 35  1  0
 18 36  1  0
 19 37  1  0
 22 38  1  0
 22 39  1  0
 23 40  1  0
 23 41  1  0
 24 42  1  0
 24 43  1  0
 25 44  1  0
 25 45  1  0
 26 46  1  0
 26 47  1  0
M  END
>  <meeko>  (1) 
{"is_sidechain": [false], "free_energy": -8.039, "intermolecular_energy": -9.449, "internal_energy": -0.443}

$$$$
cand_023_out
     RDKit          3D

 47 50  0  0  0  0  0  0  0  0999 V2000
  178.4810   24.0600   47.3710 C   0  0  0  0  0  0  0  0  0  0  0  0
  177.7500   23.0170   48.1740 C   0  0  0  0  0  0  0  0  0  0  0  0
  176.7250   23.4130   49.0520 C   0  0  0  0  0  0  0  0  0  0  0  0
  176.0130   22.4760   49.8170 C   0  0  0  0  0  0  0  0  0  0  0  0
  174.9620   22.9320   50.7500 C   0  0  0  0  0  0  0  0  0  0  0  0
  175.4700   23.3520   51.9740 O   0  0  0  0  0  0  0  0  0  0  0  0
  174.6030   23.8030   52.9340 C   0  0  0  0  0  0  0  0  0  0  0  0
  175.1550   24.2010   54.1520 C   0  0  0  0  0  0  0  0  0  0  0  0
  174.3270   24.6730   55.1720 C   0  0  0  0  0  0  0  0  0  0  0  0
  172.9460   24.7470   54.9750 C   0  0  0  0  0  0  0  0  0  0  0  0
  172.3970   24.3490   53.7590 C   0  0  0  0  0  0  0  0  0  0  0  0
  171.0380   24.4480   53.6330 O   0  0  0  0  0  0  0  0  0  0  0  0
  173.2260   23.8760   52.7380 C   0  0  0  0  0  0  0  0  0  0  0  0
  172.6910   23.4490   51.4450 C   0  0  0  0  0  0  0  0  0  0  0  0
  171.4870   23.4910   51.1940 O   0  0  0  0  0  0  0  0  0  0  0  0
  173.6530   22.9580   50.4330 C   0  0  0  0  0  0  0  0  0  0  0  0
  173.1360   22.5690   49.2100 O   0  0  0  0  0  0  0  0  0  0  0  0
  176.3570   21.1250   49.6970 C   0  0  0  0  0  0  0  0  0  0  0  0
  177.3730   20.7210   48.8250 C   0  0  0  0  0  0  0  0  0  0  0  0
  178.0840   21.6550   48.0560 C   0  0  0  0  0  0  0  0  0  0  0  0
  179.1020   21.2710   47.1580 N   0  0  0  0  0  0  0  0  0  0  0  0
  180.3470   20.8570   47.8250 C   0  0  0  0  0  0  0  0  0  0  0  0
  181.4450   20.6940   46.7730 C   0  0  0  0  0  0  0  0  0  0  0  0
  181.0200   19.7140   45.6810 C   0  0  0  0  0  0  0  0  0  0  0  0
  179.6740   20.1160   45.0800 C   0  0  0  0  0  0  0  0  0  0  0  0
  178.6130   20.2990   46.1660 C   0  0  0  0  0  0  0  0  0  0  0  0
  178.9765   24.7669   48.0527 H   0  0  0  0  0  0  0  0  0  0  0  0
  179.2358   23.5721   46.7368 H   0  0  0  0  0  0  0  0  0  0  0  0
  177.7648   24.6030   46.7368 H   0  0  0  0  0  0  0  0  0  0  0  0
  176.4759   24.4807   49.1411 H   0  0  0  0  0  0  0  0  0  0  0  0
  176.2423   24.1429   54.3085 H   0  0  0  0  0  0  0  0  0  0  0  0
  174.7625   24.9870   56.1320 H   0  0  0  0  0  0  0  0  0  0  0  0
  172.2937   25.1189   55.7789 H   0  0  0  0  0  0  0  0  0  0  0  0
  170.6060   24.0570   52.9000 H   0  0  0  0  0  0  0  0  0  0  0  0
  173.0590   21.6590   49.0030 H   0  0  0  0  0  0  0  0  0  0  0  0
  175.8224   20.3724   50.2951 H   0  0  0  0  0  0  0  0  0  0  0  0
  177.6192   19.6522   48.7404 H   0  0  0  0  0  0  0  0  0  0  0  0
  180.6466   21.6232   48.5551 H   0  0  0  0  0  0  0  0  0  0  0  0
  180.1887   19.9023   48.3480 H   0  0  0  0  0  0  0  0  0  0  0  0
  181.6528   21.6728   46.3161 H   0  0  0  0  0  0  0  0  0  0  0  0
  182.3451   20.2983   47.2662 H   0  0  0  0  0  0  0  0  0  0  0  0
  181.7812   19.7076   44.8870 H   0  0  0  0  0  0  0  0  0  0  0  0
  180.9206   18.7133   46.1267 H   0  0  0  0  0  0  0  0  0  0  0  0
  179.7942   21.0629   44.5333 H   0  0  0  0  0  0  0  0  0  0  0  0
  179.3430   19.3149   44.4028 H   0  0  0  0  0  0  0  0  0  0  0  0
  177.6825   20.6715   45.7129 H   0  0  0  0  0  0  0  0  0  0  0  0
  178.4157   19.3350   46.6576 H   0  0  0  0  0  0  0  0  0  0  0  0
  1  2  1  0
  2  3  2  0
  3  4  1  0
  4  5  1  0
  5  6  1  0
  6  7  1  0
  7  8  2  0
  8  9  1  0
  9 10  2  0
 10 11  1  0
 11 12  1  0
 11 13  2  0
 13 14  1  0
 14 15  2  0
 14 16  1  0
 16 17  1  0
  4 18  2  0
 18 19  1  0
 19 20  2  0
 20 21  1  0
 21 22  1  0
 22 23  1  0
 23 24  1  0
 24 25  1  0
 25 26  1  0
 20  2  1  0
 26 21  1  0
 16  5  2  0
 13  7  1  0
  1 27  1  0
  1 28  1  0
  1 29  1  0
  3 30  1  0
  8 31  1  0
  9 32  1  0
 10 33  1  0
 12 34  1  0
 17 35  1  0
 18 36  1  0
 19 37  1  0
 22 38  1  0
 22 39  1  0
 23 40  1  0
 23 41  1  0
 24 42  1  0
 24 43  1  0
 25 44  1  0
 25 45  1  0
 26 46  1  0
 26 47  1  0
M  END
>  <meeko>  (2) 
{"is_sidechain": [false], "free_energy": -7.86, "intermolecular_energy": -8.962, "internal_energy": -0.719}

$$$$
cand_023_out
     RDKit          3D

 47 50  0  0  0  0  0  0  0  0999 V2000
  182.7710   25.6840   48.1300 C   0  0  0  0  0  0  0  0  0  0  0  0
  182.5020   24.2150   48.3210 C   0  0  0  0  0  0  0  0  0  0  0  0
  181.1890   23.7790   48.5770 C   0  0  0  0  0  0  0  0  0  0  0  0
  180.8920   22.4190   48.7560 C   0  0  0  0  0  0  0  0  0  0  0  0
  179.5050   22.0010   49.0500 C   0  0  0  0  0  0  0  0  0  0  0  0
  178.7640   21.7430   47.9030 O   0  0  0  0  0  0  0  0  0  0  0  0
  177.4590   21.3440   48.0310 C   0  0  0  0  0  0  0  0  0  0  0  0
  176.7490   21.1100   46.8530 C   0  0  0  0  0  0  0  0  0  0  0  0
  175.4160   20.6990   46.9130 C   0  0  0  0  0  0  0  0  0  0  0  0
  174.7920   20.5220   48.1500 C   0  0  0  0  0  0  0  0  0  0  0  0
  175.5030   20.7570   49.3240 C   0  0  0  0  0  0  0  0  0  0  0  0
  174.8320   20.5650   50.5010 O   0  0  0  0  0  0  0  0  0  0  0  0
  176.8370   21.1690   49.2640 C   0  0  0  0  0  0  0  0  0  0  0  0
  177.6200   21.4260   50.4730 C   0  0  0  0  0  0  0  0  0  0  0  0
  177.1440   21.2860   51.5990 O   0  0  0  0  0  0  0  0  0  0  0  0
  179.0240   21.8640   50.3000 C   0  0  0  0  0  0  0  0  0  0  0  0
  179.7580   22.0910   51.4510 O   0  0  0  0  0  0  0  0  0  0  0  0
  181.9420   21.4960   48.6900 C   0  0  0  0  0  0  0  0  0  0  0  0
  183.2500   21.9200   48.4340 C   0  0  0  0  0  0  0  0  0  0  0  0
  183.5510   23.2780   48.2500 C   0  0  0  0  0  0  0  0  0  0  0  0
  184.8600   23.7290   47.9760 N   0  0  0  0  0  0  0  0  0  0  0  0
  185.8670   23.2100   48.9150 C   0  0  0  0  0  0  0  0  0  0  0  0
  187.1900   23.9390   48.6780 C   0  0  0  0  0  0  0  0  0  0  0  0
  187.6360   23.8110   47.2220 C   0  0  0  0  0  0  0  0  0  0  0  0
  186.5280   24.2620   46.2700 C   0  0  0  0  0  0  0  0  0  0  0  0
  185.2160   23.5340   46.5610 C   0  0  0  0  0  0  0  0  0  0  0  0
  182.8602   26.1712   49.1122 H   0  0  0  0  0  0  0  0  0  0  0  0
  183.7081   25.8153   47.5691 H   0  0  0  0  0  0  0  0  0  0  0  0
  181.9412   26.1388   47.5691 H   0  0  0  0  0  0  0  0  0  0  0  0
  180.3781   24.5197   48.6381 H   0  0  0  0  0  0  0  0  0  0  0  0
  177.2389   21.2492   45.8780 H   0  0  0  0  0  0  0  0  0  0  0  0
  174.8562   20.5142   45.9843 H   0  0  0  0  0  0  0  0  0  0  0  0
  173.7419   20.1979   48.1967 H   0  0  0  0  0  0  0  0  0  0  0  0
  175.0190   19.8150   51.0290 H   0  0  0  0  0  0  0  0  0  0  0  0
  179.3480   22.0160   52.2900 H   0  0  0  0  0  0  0  0  0  0  0  0
  181.7364   20.4260   48.8410 H   0  0  0  0  0  0  0  0  0  0  0  0
  184.0574   21.1752   48.3759 H   0  0  0  0  0  0  0  0  0  0  0  0
  185.5311   23.3817   49.9483 H   0  0  0  0  0  0  0  0  0  0  0  0
  186.0034   22.1303   48.7548 H   0  0  0  0  0  0  0  0  0  0  0  0
  187.0621   25.0039   48.9222 H   0  0  0  0  0  0  0  0  0  0  0  0
  187.9590   23.4846   49.3200 H   0  0  0  0  0  0  0  0  0  0  0  0
  188.5258   24.4376   47.0615 H   0  0  0  0  0  0  0  0  0  0  0  0
  187.8672   22.7553   47.0169 H   0  0  0  0  0  0  0  0  0  0  0  0
  186.3715   25.3442   46.3893 H   0  0  0  0  0  0  0  0  0  0  0  0
  186.8361   24.0247   45.2411 H   0  0  0  0  0  0  0  0  0  0  0  0
  184.4192   23.9412   45.9213 H   0  0  0  0  0  0  0  0  0  0  0  0
  185.3343   22.4603   46.3534 H   0  0  0  0  0  0  0  0  0  0  0  0
  1  2  1  0
  2  3  2  0
  3  4  1  0
  4  5  1  0
  5  6  1  0
  6  7  1  0
  7  8  2  0
  8  9  1  0
  9 10  2  0
 10 11  1  0
 11 12  1  0
 11 13  2  0
 13 14  1  0
 14 15  2  0
 14 16  1  0
 16 17  1  0
  4 18  2  0
 18 19  1  0
 19 20  2  0
 20 21  1  0
 21 22  1  0
 22 23  1  0
 23 24  1  0
 24 25  1  0
 25 26  1  0
 20  2  1  0
 26 21  1  0
 16  5  2  0
 13  7  1  0
  1 27  1  0
  1 28  1  0
  1 29  1  0
  3 30  1  0
  8 31  1  0
  9 32  1  0
 10 33  1  0
 12 34  1  0
 17 35  1  0
 18 36  1  0
 19 37  1  0
 22 38  1  0
 22 39  1  0
 23 40  1  0
 23 41  1  0
 24 42  1  0
 24 43  1  0
 25 44  1  0
 25 45  1  0
 26 46  1  0
 26 47  1  0
M  END
>  <meeko>  (3) 
{"is_sidechain": [false], "free_energy": -7.567, "intermolecular_energy": -8.646, "internal_energy": -0.691}

$$$$
cand_023_out
     RDKit          3D

 47 50  0  0  0  0  0  0  0  0999 V2000
  179.7930   21.6900   50.4700 C   0  0  0  0  0  0  0  0  0  0  0  0
  178.6500   22.0230   49.5490 C   0  0  0  0  0  0  0  0  0  0  0  0
  177.5010   22.6480   50.0680 C   0  0  0  0  0  0  0  0  0  0  0  0
  176.4140   22.9810   49.2460 C   0  0  0  0  0  0  0  0  0  0  0  0
  175.2130   23.6110   49.8320 C   0  0  0  0  0  0  0  0  0  0  0  0
  175.2590   25.0000   49.7970 O   0  0  0  0  0  0  0  0  0  0  0  0
  174.2060   25.7130   50.3070 C   0  0  0  0  0  0  0  0  0  0  0  0
  174.3010   27.1050   50.2630 C   0  0  0  0  0  0  0  0  0  0  0  0
  173.2610   27.8900   50.7650 C   0  0  0  0  0  0  0  0  0  0  0  0
  172.1270   27.2860   51.3110 C   0  0  0  0  0  0  0  0  0  0  0  0
  172.0350   25.8970   51.3550 C   0  0  0  0  0  0  0  0  0  0  0  0
  170.8970   25.3700   51.9020 O   0  0  0  0  0  0  0  0  0  0  0  0
  173.0760   25.1110   50.8520 C   0  0  0  0  0  0  0  0  0  0  0  0
  173.0190   23.6490   50.8780 C   0  0  0  0  0  0  0  0  0  0  0  0
  172.0510   23.0430   51.3360 O   0  0  0  0  0  0  0  0  0  0  0  0
  174.1760   22.9080   50.3270 C   0  0  0  0  0  0  0  0  0  0  0  0
  174.1050   21.5270   50.3440 O   0  0  0  0  0  0  0  0  0  0  0  0
  176.4910   22.6650   47.8850 C   0  0  0  0  0  0  0  0  0  0  0  0
  177.6290   22.0470   47.3580 C   0  0  0  0  0  0  0  0  0  0  0  0
  178.7200   21.7150   48.1770 C   0  0  0  0  0  0  0  0  0  0  0  0
  179.8860   21.1040   47.6670 N   0  0  0  0  0  0  0  0  0  0  0  0
  179.6160   20.1150   46.6110 C   0  0  0  0  0  0  0  0  0  0  0  0
  180.9050   19.3520   46.3030 C   0  0  0  0  0  0  0  0  0  0  0  0
  182.0340   20.3100   45.9250 C   0  0  0  0  0  0  0  0  0  0  0  0
  182.2190   21.3860   46.9940 C   0  0  0  0  0  0  0  0  0  0  0  0
  180.9030   22.1020   47.2960 C   0  0  0  0  0  0  0  0  0  0  0  0
  179.4622   21.7864   51.5146 H   0  0  0  0  0  0  0  0  0  0  0  0
  180.1248   20.6578   50.2842 H   0  0  0  0  0  0  0  0  0  0  0  0
  180.6273   22.3824   50.2842 H   0  0  0  0  0  0  0  0  0  0  0  0
  177.4541   22.8806   51.1421 H   0  0  0  0  0  0  0  0  0  0  0  0
  175.1939   27.5828   49.8335 H   0  0  0  0  0  0  0  0  0  0  0  0
  173.3354   28.9869   50.7302 H   0  0  0  0  0  0  0  0  0  0  0  0
  171.3082   27.9056   51.7055 H   0  0  0  0  0  0  0  0  0  0  0  0
  170.3710   24.7750   51.4060 H   0  0  0  0  0  0  0  0  0  0  0  0
  173.6800   21.0710   49.6450 H   0  0  0  0  0  0  0  0  0  0  0  0
  175.6466   22.9055   47.2223 H   0  0  0  0  0  0  0  0  0  0  0  0
  177.6703   21.8169   46.2831 H   0  0  0  0  0  0  0  0  0  0  0  0
  178.8435   19.4109   46.9538 H   0  0  0  0  0  0  0  0  0  0  0  0
  179.2610   20.6266   45.7043 H   0  0  0  0  0  0  0  0  0  0  0  0
  181.2038   18.7776   47.1923 H   0  0  0  0  0  0  0  0  0  0  0  0
  180.7183   18.6791   45.4531 H   0  0  0  0  0  0  0  0  0  0  0  0
  182.9696   19.7407   45.8217 H   0  0  0  0  0  0  0  0  0  0  0  0
  181.7748   20.8002   44.9750 H   0  0  0  0  0  0  0  0  0  0  0  0
  182.5901   20.9148   47.9160 H   0  0  0  0  0  0  0  0  0  0  0  0
  182.9392   22.1278   46.6184 H   0  0  0  0  0  0  0  0  0  0  0  0
  181.0492   22.8060   48.1285 H   0  0  0  0  0  0  0  0  0  0  0  0
  180.5704   22.6572   46.4065 H   0  0  0  0  0  0  0  0  0  0  0  0
  1  2  1  0
  2  3  2  0
  3  4  1  0
  4  5  1  0
  5  6  1  0
  6  7  1  0
  7  8  2  0
  8  9  1  0
  9 10  2  0
 10 11  1  0
 11 12  1  0
 11 13  2  0
 13 14  1  0
 14 15  2  0
 14 16  1  0
 16 17  1  0
  4 18  2  0
 18 19  1  0
 19 20  2  0
 20 21  1  0
 21 22  1  0
 22 23  1  0
 23 24  1  0
 24 25  1  0
 25 26  1  0
 20  2  1  0
 26 21  1  0
 16  5  2  0
 13  7  1  0
  1 27  1  0
  1 28  1  0
  1 29  1  0
  3 30  1  0
  8 31  1  0
  9 32  1  0
 10 33  1  0
 12 34  1  0
 17 35  1  0
 18 36  1  0
 19 37  1  0
 22 38  1  0
 22 39  1  0
 23 40  1  0
 23 41  1  0
 24 42  1  0
 24 43  1  0
 25 44  1  0
 25 45  1  0
 26 46  1  0
 26 47  1  0
M  END
>  <meeko>  (4) 
{"is_sidechain": [false], "free_energy": -7.488, "intermolecular_energy": -8.67, "internal_energy": -0.574}

$$$$
cand_023_out
     RDKit          3D

 47 50  0  0  0  0  0  0  0  0999 V2000
  176.3460   22.9890   53.0180 C   0  0  0  0  0  0  0  0  0  0  0  0
  176.3260   23.1500   51.5220 C   0  0  0  0  0  0  0  0  0  0  0  0
  177.4480   22.7580   50.7690 C   0  0  0  0  0  0  0  0  0  0  0  0
  177.4720   22.8850   49.3710 C   0  0  0  0  0  0  0  0  0  0  0  0
  178.6790   22.4880   48.6170 C   0  0  0  0  0  0  0  0  0  0  0  0
  178.5230   21.2830   47.9420 O   0  0  0  0  0  0  0  0  0  0  0  0
  179.5670   20.7970   47.1990 C   0  0  0  0  0  0  0  0  0  0  0  0
  179.3710   19.5770   46.5500 C   0  0  0  0  0  0  0  0  0  0  0  0
  180.3940   19.0280   45.7750 C   0  0  0  0  0  0  0  0  0  0  0  0
  181.6140   19.6960   45.6490 C   0  0  0  0  0  0  0  0  0  0  0  0
  181.8080   20.9130   46.2980 C   0  0  0  0  0  0  0  0  0  0  0  0
  183.0250   21.5150   46.1320 O   0  0  0  0  0  0  0  0  0  0  0  0
  180.7830   21.4630   47.0740 C   0  0  0  0  0  0  0  0  0  0  0  0
  180.9450   22.7390   47.7710 C   0  0  0  0  0  0  0  0  0  0  0  0
  181.9860   23.3910   47.7040 O   0  0  0  0  0  0  0  0  0  0  0  0
  179.8010   23.2320   48.5730 C   0  0  0  0  0  0  0  0  0  0  0  0
  179.9610   24.4450   49.2170 O   0  0  0  0  0  0  0  0  0  0  0  0
  176.3510   23.4290   48.7360 C   0  0  0  0  0  0  0  0  0  0  0  0
  175.2300   23.8190   49.4750 C   0  0  0  0  0  0  0  0  0  0  0  0
  175.2000   23.6900   50.8720 C   0  0  0  0  0  0  0  0  0  0  0  0
  174.0750   24.0630   51.6390 N   0  0  0  0  0  0  0  0  0  0  0  0
  173.8500   25.5160   51.6800 C   0  0  0  0  0  0  0  0  0  0  0  0
  172.7680   25.8230   52.7170 C   0  0  0  0  0  0  0  0  0  0  0  0
  171.4860   25.0460   52.4200 C   0  0  0  0  0  0  0  0  0  0  0  0
  171.7730   23.5510   52.2810 C   0  0  0  0  0  0  0  0  0  0  0  0
  172.8810   23.2910   51.2600 C   0  0  0  0  0  0  0  0  0  0  0  0
  176.2238   23.9730   53.4943 H   0  0  0  0  0  0  0  0  0  0  0  0
  175.5231   22.3275   53.3266 H   0  0  0  0  0  0  0  0  0  0  0  0
  177.3057   22.5488   53.3266 H   0  0  0  0  0  0  0  0  0  0  0  0
  178.3253   22.3431   51.2868 H   0  0  0  0  0  0  0  0  0  0  0  0
  178.4113   19.0486   46.6491 H   0  0  0  0  0  0  0  0  0  0  0  0
  180.2389   18.0672   45.2624 H   0  0  0  0  0  0  0  0  0  0  0  0
  182.4197   19.2620   45.0387 H   0  0  0  0  0  0  0  0  0  0  0  0
  183.4280   21.9610   46.8490 H   0  0  0  0  0  0  0  0  0  0  0  0
  180.7170   24.5960   49.7500 H   0  0  0  0  0  0  0  0  0  0  0  0
  176.3512   23.5514   47.6428 H   0  0  0  0  0  0  0  0  0  0  0  0
  174.3560   24.2344   48.9520 H   0  0  0  0  0  0  0  0  0  0  0  0
  174.7838   26.0261   51.9591 H   0  0  0  0  0  0  0  0  0  0  0  0
  173.5273   25.8703   50.6899 H   0  0  0  0  0  0  0  0  0  0  0  0
  173.1360   25.5413   53.7146 H   0  0  0  0  0  0  0  0  0  0  0  0
  172.5418   26.8988   52.6783 H   0  0  0  0  0  0  0  0  0  0  0  0
  170.7725   25.2006   53.2428 H   0  0  0  0  0  0  0  0  0  0  0  0
  171.0651   25.4123   51.4720 H   0  0  0  0  0  0  0  0  0  0  0  0
  172.0855   23.1537   53.2580 H   0  0  0  0  0  0  0  0  0  0  0  0
  170.8563   23.0522   51.9334 H   0  0  0  0  0  0  0  0  0  0  0  0
  173.1248   22.2185   51.2460 H   0  0  0  0  0  0  0  0  0  0  0  0
  172.5428   23.5984   50.2594 H   0  0  0  0  0  0  0  0  0  0  0  0
  1  2  1  0
  2  3  2  0
  3  4  1  0
  4  5  1  0
  5  6  1  0
  6  7  1  0
  7  8  2  0
  8  9  1  0
  9 10  2  0
 10 11  1  0
 11 12  1  0
 11 13  2  0
 13 14  1  0
 14 15  2  0
 14 16  1  0
 16 17  1  0
  4 18  2  0
 18 19  1  0
 19 20  2  0
 20 21  1  0
 21 22  1  0
 22 23  1  0
 23 24  1  0
 24 25  1  0
 25 26  1  0
 20  2  1  0
 26 21  1  0
 16  5  2  0
 13  7  1  0
  1 27  1  0
  1 28  1  0
  1 29  1  0
  3 30  1  0
  8 31  1  0
  9 32  1  0
 10 33  1  0
 12 34  1  0
 17 35  1  0
 18 36  1  0
 19 37  1  0
 22 38  1  0
 22 39  1  0
 23 40  1  0
 23 41  1  0
 24 42  1  0
 24 43  1  0
 25 44  1  0
 25 45  1  0
 26 46  1  0
 26 47  1  0
M  END
>  <meeko>  (5) 
{"is_sidechain": [false], "free_energy": -7.418, "intermolecular_energy": -8.474, "internal_energy": -0.688}

$$$$
cand_023_out
     RDKit          3D

 47 50  0  0  0  0  0  0  0  0999 V2000
  175.1200   26.2150   50.3710 C   0  0  0  0  0  0  0  0  0  0  0  0
  175.2080   24.7270   50.1620 C   0  0  0  0  0  0  0  0  0  0  0  0
  176.4420   24.1480   49.8150 C   0  0  0  0  0  0  0  0  0  0  0  0
  176.5710   22.7650   49.6150 C   0  0  0  0  0  0  0  0  0  0  0  0
  177.8770   22.1960   49.2240 C   0  0  0  0  0  0  0  0  0  0  0  0
  177.8950   21.7330   47.9130 O   0  0  0  0  0  0  0  0  0  0  0  0
  179.0470   21.1820   47.4180 C   0  0  0  0  0  0  0  0  0  0  0  0
  179.0150   20.7180   46.1020 C   0  0  0  0  0  0  0  0  0  0  0  0
  180.1570   20.1470   45.5360 C   0  0  0  0  0  0  0  0  0  0  0  0
  181.3300   20.0380   46.2850 C   0  0  0  0  0  0  0  0  0  0  0  0
  181.3600   20.5000   47.5990 C   0  0  0  0  0  0  0  0  0  0  0  0
  182.5410   20.3630   48.2760 O   0  0  0  0  0  0  0  0  0  0  0  0
  180.2170   21.0720   48.1650 C   0  0  0  0  0  0  0  0  0  0  0  0
  180.2050   21.5720   49.5410 C   0  0  0  0  0  0  0  0  0  0  0  0
  181.2010   21.5170   50.2610 O   0  0  0  0  0  0  0  0  0  0  0  0
  178.9420   22.1530   50.0470 C   0  0  0  0  0  0  0  0  0  0  0  0
  178.9460   22.6340   51.3450 O   0  0  0  0  0  0  0  0  0  0  0  0
  175.4310   21.9650   49.7560 C   0  0  0  0  0  0  0  0  0  0  0  0
  174.2000   22.5310   50.1040 C   0  0  0  0  0  0  0  0  0  0  0  0
  174.0680   23.9130   50.3090 C   0  0  0  0  0  0  0  0  0  0  0  0
  172.8400   24.5060   50.6740 N   0  0  0  0  0  0  0  0  0  0  0  0
  171.9420   24.7460   49.5340 C   0  0  0  0  0  0  0  0  0  0  0  0
  170.7610   25.5970   50.0010 C   0  0  0  0  0  0  0  0  0  0  0  0
  170.0410   24.9390   51.1770 C   0  0  0  0  0  0  0  0  0  0  0  0
  171.0200   24.6090   52.3030 C   0  0  0  0  0  0  0  0  0  0  0  0
  172.2010   23.7860   51.7880 C   0  0  0  0  0  0  0  0  0  0  0  0
  175.1071   26.4337   51.4490 H   0  0  0  0  0  0  0  0  0  0  0  0
  175.9909   26.7024   49.9084 H   0  0  0  0  0  0  0  0  0  0  0  0
  174.1977   26.5963   49.9084 H   0  0  0  0  0  0  0  0  0  0  0  0
  177.3251   24.7933   49.6979 H   0  0  0  0  0  0  0  0  0  0  0  0
  178.0910   20.8020   45.5111 H   0  0  0  0  0  0  0  0  0  0  0  0
  180.1321   19.7826   44.4984 H   0  0  0  0  0  0  0  0  0  0  0  0
  182.2290   19.5881   45.8385 H   0  0  0  0  0  0  0  0  0  0  0  0
  183.3220   20.7570   47.9400 H   0  0  0  0  0  0  0  0  0  0  0  0
  178.2140   23.1220   51.6650 H   0  0  0  0  0  0  0  0  0  0  0  0
  175.5039   20.8798   49.5914 H   0  0  0  0  0  0  0  0  0  0  0  0
  173.3199   21.8813   50.2190 H   0  0  0  0  0  0  0  0  0  0  0  0
  172.4878   25.2767   48.7400 H   0  0  0  0  0  0  0  0  0  0  0  0
  171.5758   23.7861   49.1409 H   0  0  0  0  0  0  0  0  0  0  0  0
  171.1310   26.5847   50.3132 H   0  0  0  0  0  0  0  0  0  0  0  0
  170.0504   25.6966   49.1673 H   0  0  0  0  0  0  0  0  0  0  0  0
  169.2723   25.6270   51.5587 H   0  0  0  0  0  0  0  0  0  0  0  0
  169.5809   24.0031   50.8271 H   0  0  0  0  0  0  0  0  0  0  0  0
  171.3983   25.5470   52.7355 H   0  0  0  0  0  0  0  0  0  0  0  0
  170.4889   24.0169   53.0628 H   0  0  0  0  0  0  0  0  0  0  0  0
  172.9299   23.6402   52.5988 H   0  0  0  0  0  0  0  0  0  0  0  0
  171.8456   22.8049   51.4401 H   0  0  0  0  0  0  0  0  0  0  0  0
  1  2  1  0
  2  3  2  0
  3  4  1  0
  4  5  1  0
  5  6  1  0
  6  7  1  0
  7  8  2  0
  8  9  1  0
  9 10  2  0
 10 11  1  0
 11 12  1  0
 11 13  2  0
 13 14  1  0
 14 15  2  0
 14 16  1  0
 16 17  1  0
  4 18  2  0
 18 19  1  0
 19 20  2  0
 20 21  1  0
 21 22  1  0
 22 23  1  0
 23 24  1  0
 24 25  1  0
 25 26  1  0
 20  2  1  0
 26 21  1  0
 16  5  2  0
 13  7  1  0
  1 27  1  0
  1 28  1  0
  1 29  1  0
  3 30  1  0
  8 31  1  0
  9 32  1  0
 10 33  1  0
 12 34  1  0
 17 35  1  0
 18 36  1  0
 19 37  1  0
 22 38  1  0
 22 39  1  0
 23 40  1  0
 23 41  1  0
 24 42  1  0
 24 43  1  0
 25 44  1  0
 25 45  1  0
 26 46  1  0
 26 47  1  0
M  END
>  <meeko>  (6) 
{"is_sidechain": [false], "free_energy": -7.406, "intermolecular_energy": -8.55, "internal_energy": -0.598}

$$$$
cand_023_out
     RDKit          3D

 47 50  0  0  0  0  0  0  0  0999 V2000
  175.7180   25.4050   50.2640 C   0  0  0  0  0  0  0  0  0  0  0  0
  175.4870   24.0680   49.6120 C   0  0  0  0  0  0  0  0  0  0  0  0
  176.5690   23.3890   49.0240 C   0  0  0  0  0  0  0  0  0  0  0  0
  176.4020   22.1380   48.4100 C   0  0  0  0  0  0  0  0  0  0  0  0
  177.5570   21.4670   47.7780 C   0  0  0  0  0  0  0  0  0  0  0  0
  178.7360   22.1940   47.8970 O   0  0  0  0  0  0  0  0  0  0  0  0
  179.8880   21.6860   47.3560 C   0  0  0  0  0  0  0  0  0  0  0  0
  181.0450   22.4560   47.4870 C   0  0  0  0  0  0  0  0  0  0  0  0
  182.2520   21.9950   46.9600 C   0  0  0  0  0  0  0  0  0  0  0  0
  182.3050   20.7650   46.3020 C   0  0  0  0  0  0  0  0  0  0  0  0
  181.1500   19.9980   46.1710 C   0  0  0  0  0  0  0  0  0  0  0  0
  181.2710   18.8040   45.5150 O   0  0  0  0  0  0  0  0  0  0  0  0
  179.9400   20.4600   46.6990 C   0  0  0  0  0  0  0  0  0  0  0  0
  178.7040   19.6860   46.5850 C   0  0  0  0  0  0  0  0  0  0  0  0
  178.6710   18.5910   46.0250 O   0  0  0  0  0  0  0  0  0  0  0  0
  177.4750   20.2670   47.1720 C   0  0  0  0  0  0  0  0  0  0  0  0
  176.3150   19.5210   47.0700 O   0  0  0  0  0  0  0  0  0  0  0  0
  175.1200   21.5790   48.3820 C   0  0  0  0  0  0  0  0  0  0  0  0
  174.0370   22.2450   48.9670 C   0  0  0  0  0  0  0  0  0  0  0  0
  174.2010   23.4940   49.5850 C   0  0  0  0  0  0  0  0  0  0  0  0
  173.1280   24.1790   50.1940 N   0  0  0  0  0  0  0  0  0  0  0  0
  172.1440   24.7010   49.2330 C   0  0  0  0  0  0  0  0  0  0  0  0
  171.1670   25.6180   49.9700 C   0  0  0  0  0  0  0  0  0  0  0  0
  170.5050   24.8900   51.1390 C   0  0  0  0  0  0  0  0  0  0  0  0
  171.5540   24.2720   52.0620 C   0  0  0  0  0  0  0  0  0  0  0  0
  172.5300   23.3900   51.2830 C   0  0  0  0  0  0  0  0  0  0  0  0
  175.6978   25.2880   51.3576 H   0  0  0  0  0  0  0  0  0  0  0  0
  176.6975   25.7991   49.9554 H   0  0  0  0  0  0  0  0  0  0  0  0
  174.9275   26.1049   49.9554 H   0  0  0  0  0  0  0  0  0  0  0  0
  177.5682   23.8484   49.0457 H   0  0  0  0  0  0  0  0  0  0  0  0
  181.0052   23.4254   48.0053 H   0  0  0  0  0  0  0  0  0  0  0  0
  183.1635   22.6020   47.0633 H   0  0  0  0  0  0  0  0  0  0  0  0
  183.2573   20.4023   45.8877 H   0  0  0  0  0  0  0  0  0  0  0  0
  180.6860   18.5920   44.8160 H   0  0  0  0  0  0  0  0  0  0  0  0
  175.4950   19.8920   47.3310 H   0  0  0  0  0  0  0  0  0  0  0  0
  174.9614   20.6055   47.8950 H   0  0  0  0  0  0  0  0  0  0  0  0
  173.0399   21.7812   48.9419 H   0  0  0  0  0  0  0  0  0  0  0  0
  172.6621   25.2697   48.4468 H   0  0  0  0  0  0  0  0  0  0  0  0
  171.5952   23.8664   48.7724 H   0  0  0  0  0  0  0  0  0  0  0  0
  171.7142   26.4915   50.3542 H   0  0  0  0  0  0  0  0  0  0  0  0
  170.3833   25.9324   49.2651 H   0  0  0  0  0  0  0  0  0  0  0  0
  169.8984   25.6066   51.7123 H   0  0  0  0  0  0  0  0  0  0  0  0
  169.8721   24.0846   50.7379 H   0  0  0  0  0  0  0  0  0  0  0  0
  172.1159   25.0783   52.5561 H   0  0  0  0  0  0  0  0  0  0  0  0
  171.0372   23.6459   52.8042 H   0  0  0  0  0  0  0  0  0  0  0  0
  173.3224   23.0329   51.9572 H   0  0  0  0  0  0  0  0  0  0  0  0
  171.9945   22.5255   50.8635 H   0  0  0  0  0  0  0  0  0  0  0  0
  1  2  1  0
  2  3  2  0
  3  4  1  0
  4  5  1  0
  5  6  1  0
  6  7  1  0
  7  8  2  0
  8  9  1  0
  9 10  2  0
 10 11  1  0
 11 12  1  0
 11 13  2  0
 13 14  1  0
 14 15  2  0
 14 16  1  0
 16 17  1  0
  4 18  2  0
 18 19  1  0
 19 20  2  0
 20 21  1  0
 21 22  1  0
 22 23  1  0
 23 24  1  0
 24 25  1  0
 25 26  1  0
 20  2  1  0
 26 21  1  0
 16  5  2  0
 13  7  1  0
  1 27  1  0
  1 28  1  0
  1 29  1  0
  3 30  1  0
  8 31  1  0
  9 32  1  0
 10 33  1  0
 12 34  1  0
 17 35  1  0
 18 36  1  0
 19 37  1  0
 22 38  1  0
 22 39  1  0
 23 40  1  0
 23 41  1  0
 24 42  1  0
 24 43  1  0
 25 44  1  0
 25 45  1  0
 26 46  1  0
 26 47  1  0
M  END
>  <meeko>  (7) 
{"is_sidechain": [false], "free_energy": -7.388, "intermolecular_energy": -9.052, "internal_energy": -0.074}

$$$$
cand_023_out
     RDKit          3D

 47 50  0  0  0  0  0  0  0  0999 V2000
  179.0840   23.9730   47.3820 C   0  0  0  0  0  0  0  0  0  0  0  0
  178.0860   23.0190   47.9830 C   0  0  0  0  0  0  0  0  0  0  0  0
  177.0110   23.5250   48.7350 C   0  0  0  0  0  0  0  0  0  0  0  0
  176.0550   22.6730   49.3100 C   0  0  0  0  0  0  0  0  0  0  0  0
  174.9540   23.2400   50.1170 C   0  0  0  0  0  0  0  0  0  0  0  0
  173.9090   23.7270   49.3400 O   0  0  0  0  0  0  0  0  0  0  0  0
  172.8200   24.2790   49.9620 C   0  0  0  0  0  0  0  0  0  0  0  0
  171.8010   24.7680   49.1430 C   0  0  0  0  0  0  0  0  0  0  0  0
  170.6640   25.3410   49.7140 C   0  0  0  0  0  0  0  0  0  0  0  0
  170.5430   25.4270   51.1020 C   0  0  0  0  0  0  0  0  0  0  0  0
  171.5620   24.9400   51.9180 C   0  0  0  0  0  0  0  0  0  0  0  0
  171.3800   25.0550   53.2690 O   0  0  0  0  0  0  0  0  0  0  0  0
  172.7010   24.3650   51.3470 C   0  0  0  0  0  0  0  0  0  0  0  0
  173.7930   23.8400   52.1670 C   0  0  0  0  0  0  0  0  0  0  0  0
  173.7580   23.8730   53.3960 O   0  0  0  0  0  0  0  0  0  0  0  0
  174.9590   23.2580   51.4640 C   0  0  0  0  0  0  0  0  0  0  0  0
  175.9790   22.7530   52.2490 O   0  0  0  0  0  0  0  0  0  0  0  0
  176.2020   21.2940   49.1290 C   0  0  0  0  0  0  0  0  0  0  0  0
  177.2660   20.7810   48.3800 C   0  0  0  0  0  0  0  0  0  0  0  0
  178.2220   21.6300   47.8010 C   0  0  0  0  0  0  0  0  0  0  0  0
  179.2970   21.1380   47.0290 N   0  0  0  0  0  0  0  0  0  0  0  0
  180.3650   20.5250   47.8340 C   0  0  0  0  0  0  0  0  0  0  0  0
  181.5690   20.2470   46.9340 C   0  0  0  0  0  0  0  0  0  0  0  0
  181.1740   19.3790   45.7400 C   0  0  0  0  0  0  0  0  0  0  0  0
  179.9950   19.9920   44.9850 C   0  0  0  0  0  0  0  0  0  0  0  0
  178.8260   20.2850   45.9260 C   0  0  0  0  0  0  0  0  0  0  0  0
  179.6262   24.4913   48.1866 H   0  0  0  0  0  0  0  0  0  0  0  0
  179.7980   23.4131   46.7602 H   0  0  0  0  0  0  0  0  0  0  0  0
  178.5568   24.7115   46.7602 H   0  0  0  0  0  0  0  0  0  0  0  0
  176.9172   24.6119   48.8757 H   0  0  0  0  0  0  0  0  0  0  0  0
  171.8941   24.7018   48.0490 H   0  0  0  0  0  0  0  0  0  0  0  0
  169.8608   25.7260   49.0685 H   0  0  0  0  0  0  0  0  0  0  0  0
  169.6455   25.8781   51.5504 H   0  0  0  0  0  0  0  0  0  0  0  0
  170.8380   25.7370   53.6120 H   0  0  0  0  0  0  0  0  0  0  0  0
  176.5810   22.1310   51.8910 H   0  0  0  0  0  0  0  0  0  0  0  0
  175.4728   20.6053   49.5807 H   0  0  0  0  0  0  0  0  0  0  0  0
  177.3551   19.6933   48.2423 H   0  0  0  0  0  0  0  0  0  0  0  0
  180.6588   21.2119   48.6414 H   0  0  0  0  0  0  0  0  0  0  0  0
  180.0048   19.5836   48.2744 H   0  0  0  0  0  0  0  0  0  0  0  0
  181.9710   21.2026   46.5662 H   0  0  0  0  0  0  0  0  0  0  0  0
  182.3277   19.7091   47.5214 H   0  0  0  0  0  0  0  0  0  0  0  0
  182.0326   19.2929   45.0579 H   0  0  0  0  0  0  0  0  0  0  0  0
  180.8760   18.3871   46.1105 H   0  0  0  0  0  0  0  0  0  0  0  0
  180.3202   20.9314   44.5140 H   0  0  0  0  0  0  0  0  0  0  0  0
  179.6572   19.2726   44.2245 H   0  0  0  0  0  0  0  0  0  0  0  0
  178.0295   20.8044   45.3731 H   0  0  0  0  0  0  0  0  0  0  0  0
  178.4306   19.3415   46.3303 H   0  0  0  0  0  0  0  0  0  0  0  0
  1  2  1  0
  2  3  2  0
  3  4  1  0
  4  5  1  0
  5  6  1  0
  6  7  1  0
  7  8  2  0
  8  9  1  0
  9 10  2  0
 10 11  1  0
 11 12  1  0
 11 13  2  0
 13 14  1  0
 14 15  2  0
 14 16  1  0
 16 17  1  0
  4 18  2  0
 18 19  1  0
 19 20  2  0
 20 21  1  0
 21 22  1  0
 22 23  1  0
 23 24  1  0
 24 25  1  0
 25 26  1  0
 20  2  1  0
 26 21  1  0
 16  5  2  0
 13  7  1  0
  1 27  1  0
  1 28  1  0
  1 29  1  0
  3 30  1  0
  8 31  1  0
  9 32  1  0
 10 33  1  0
 12 34  1  0
 17 35  1  0
 18 36  1  0
 19 37  1  0
 22 38  1  0
 22 39  1  0
 23 40  1  0
 23 41  1  0
 24 42  1  0
 24 43  1  0
 25 44  1  0
 25 45  1  0
 26 46  1  0
 26 47  1  0
M  END
>  <meeko>  (8) 
{"is_sidechain": [false], "free_energy": -7.356, "intermolecular_energy": -8.397, "internal_energy": -0.692}

$$$$
cand_023_out
     RDKit          3D

 47 50  0  0  0  0  0  0  0  0999 V2000
  171.7940   24.2730   49.0270 C   0  0  0  0  0  0  0  0  0  0  0  0
  173.0640   23.7760   49.6640 C   0  0  0  0  0  0  0  0  0  0  0  0
  173.9630   23.0050   48.9060 C   0  0  0  0  0  0  0  0  0  0  0  0
  175.1610   22.5250   49.4570 C   0  0  0  0  0  0  0  0  0  0  0  0
  176.0680   21.6940   48.6370 C   0  0  0  0  0  0  0  0  0  0  0  0
  177.3570   22.2090   48.5670 O   0  0  0  0  0  0  0  0  0  0  0  0
  178.3030   21.5350   47.8390 C   0  0  0  0  0  0  0  0  0  0  0  0
  179.5800   22.0960   47.7840 C   0  0  0  0  0  0  0  0  0  0  0  0
  180.5900   21.4590   47.0610 C   0  0  0  0  0  0  0  0  0  0  0  0
  180.3250   20.2620   46.3930 C   0  0  0  0  0  0  0  0  0  0  0  0
  179.0500   19.7050   46.4480 C   0  0  0  0  0  0  0  0  0  0  0  0
  178.8580   18.5310   45.7710 O   0  0  0  0  0  0  0  0  0  0  0  0
  178.0390   20.3430   47.1720 C   0  0  0  0  0  0  0  0  0  0  0  0
  176.6860   19.7910   47.2570 C   0  0  0  0  0  0  0  0  0  0  0  0
  176.3760   18.7380   46.7010 O   0  0  0  0  0  0  0  0  0  0  0  0
  175.6850   20.5480   48.0430 C   0  0  0  0  0  0  0  0  0  0  0  0
  174.4140   20.0100   48.1270 O   0  0  0  0  0  0  0  0  0  0  0  0
  175.4410   22.8200   50.7950 C   0  0  0  0  0  0  0  0  0  0  0  0
  174.5550   23.5890   51.5570 C   0  0  0  0  0  0  0  0  0  0  0  0
  173.3580   24.0740   51.0090 C   0  0  0  0  0  0  0  0  0  0  0  0
  172.4540   24.8640   51.7530 N   0  0  0  0  0  0  0  0  0  0  0  0
  171.9120   24.1770   52.9360 C   0  0  0  0  0  0  0  0  0  0  0  0
  170.7800   25.0200   53.5250 C   0  0  0  0  0  0  0  0  0  0  0  0
  171.2580   26.4360   53.8440 C   0  0  0  0  0  0  0  0  0  0  0  0
  171.9090   27.0820   52.6220 C   0  0  0  0  0  0  0  0  0  0  0  0
  173.0110   26.1940   52.0450 C   0  0  0  0  0  0  0  0  0  0  0  0
  171.0759   24.5540   49.8115 H   0  0  0  0  0  0  0  0  0  0  0  0
  172.0163   25.1505   48.4020 H   0  0  0  0  0  0  0  0  0  0  0  0
  171.3617   23.4777   48.4020 H   0  0  0  0  0  0  0  0  0  0  0  0
  173.7219   22.7730   47.8581 H   0  0  0  0  0  0  0  0  0  0  0  0
  179.7902   23.0390   48.3098 H   0  0  0  0  0  0  0  0  0  0  0  0
  181.5964   21.9009   47.0175 H   0  0  0  0  0  0  0  0  0  0  0  0
  181.1217   19.7600   45.8245 H   0  0  0  0  0  0  0  0  0  0  0  0
  178.2310   18.4880   45.0770 H   0  0  0  0  0  0  0  0  0  0  0  0
  173.8890   20.1660   48.8870 H   0  0  0  0  0  0  0  0  0  0  0  0
  176.3675   22.4435   51.2530 H   0  0  0  0  0  0  0  0  0  0  0  0
  174.8012   23.8175   52.6045 H   0  0  0  0  0  0  0  0  0  0  0  0
  171.5236   23.1902   52.6439 H   0  0  0  0  0  0  0  0  0  0  0  0
  172.7060   24.0445   53.6856 H   0  0  0  0  0  0  0  0  0  0  0  0
  169.9564   25.0740   52.7979 H   0  0  0  0  0  0  0  0  0  0  0  0
  170.4409   24.5469   54.4584 H   0  0  0  0  0  0  0  0  0  0  0  0
  170.3967   27.0446   54.1567 H   0  0  0  0  0  0  0  0  0  0  0  0
  172.0039   26.3809   54.6506 H   0  0  0  0  0  0  0  0  0  0  0  0
  171.1411   27.2461   51.8517 H   0  0  0  0  0  0  0  0  0  0  0  0
  172.3592   28.0364   52.9324 H   0  0  0  0  0  0  0  0  0  0  0  0
  173.3983   26.6427   51.1183 H   0  0  0  0  0  0  0  0  0  0  0  0
  173.8308   26.1009   52.7725 H   0  0  0  0  0  0  0  0  0  0  0  0
  1  2  1  0
  2  3  2  0
  3  4  1  0
  4  5  1  0
  5  6  1  0
  6  7  1  0
  7  8  2  0
  8  9  1  0
  9 10  2  0
 10 11  1  0
 11 12  1  0
 11 13  2  0
 13 14  1  0
 14 15  2  0
 14 16  1  0
 16 17  1  0
  4 18  2  0
 18 19  1  0
 19 20  2  0
 20 21  1  0
 21 22  1  0
 22 23  1  0
 23 24  1  0
 24 25  1  0
 25 26  1  0
 20  2  1  0
 26 21  1  0
 16  5  2  0
 13  7  1  0
  1 27  1  0
  1 28  1  0
  1 29  1  0
  3 30  1  0
  8 31  1  0
  9 32  1  0
 10 33  1  0
 12 34  1  0
 17 35  1  0
 18 36  1  0
 19 37  1  0
 22 38  1  0
 22 39  1  0
 23 40  1  0
 23 41  1  0
 24 42  1  0
 24 43  1  0
 25 44  1  0
 25 45  1  0
 26 46  1  0
 26 47  1  0
M  END
>  <meeko>  (9) 
{"is_sidechain": [false], "free_energy": -7.323, "intermolecular_energy": -8.536, "internal_energy": -0.514}

$$$$
