cand_020_out
     RDKit          3D

 50 53  0  0  0  0  0  0  0  0999 V2000
  175.5410   17.7870   46.2850 C   0  0  0  0  0  0  0  0  0  0  0  0
  176.6430   18.8320   46.2060 C   0  0  0  0  0  0  0  0  0  0  0  0
  176.5360   19.8570   47.3140 C   0  0  0  0  0  0  0  0  0  0  0  0
  175.2790   20.1090   47.8840 C   0  0  0  0  0  0  0  0  0  0  0  0
  175.1290   21.0600   48.8950 C   0  0  0  0  0  0  0  0  0  0  0  0
  176.2310   21.7870   49.3570 C   0  0  0  0  0  0  0  0  0  0  0  0
  176.0590   22.7690   50.4500 C   0  0  0  0  0  0  0  0  0  0  0  0
  175.6000   24.0020   49.9990 O   0  0  0  0  0  0  0  0  0  0  0  0
  175.3960   25.0060   50.9100 C   0  0  0  0  0  0  0  0  0  0  0  0
  174.9210   26.2210   50.4160 C   0  0  0  0  0  0  0  0  0  0  0  0
  174.6930   27.2870   51.2900 C   0  0  0  0  0  0  0  0  0  0  0  0
  174.9400   27.1380   52.6560 C   0  0  0  0  0  0  0  0  0  0  0  0
  175.4140   25.9230   53.1460 C   0  0  0  0  0  0  0  0  0  0  0  0
  175.6360   25.8450   54.4930 O   0  0  0  0  0  0  0  0  0  0  0  0
  175.6410   24.8570   52.2720 C   0  0  0  0  0  0  0  0  0  0  0  0
  176.1390   23.5650   52.7450 C   0  0  0  0  0  0  0  0  0  0  0  0
  176.3860   23.3580   53.9310 O   0  0  0  0  0  0  0  0  0  0  0  0
  176.3390   22.4970   51.7380 C   0  0  0  0  0  0  0  0  0  0  0  0
  176.8210   21.2850   52.1960 O   0  0  0  0  0  0  0  0  0  0  0  0
  177.4880   21.5310   48.7880 C   0  0  0  0  0  0  0  0  0  0  0  0
  177.6580   20.5830   47.7610 C   0  0  0  0  0  0  0  0  0  0  0  0
  178.9230   20.3320   47.1800 N   0  0  0  0  0  0  0  0  0  0  0  0
  179.0210   20.7890   45.7850 C   0  0  0  0  0  0  0  0  0  0  0  0
  180.3200   20.2570   45.1800 C   0  0  0  0  0  0  0  0  0  0  0  0
  181.5290   20.6800   46.0140 C   0  0  0  0  0  0  0  0  0  0  0  0
  181.3470   20.2860   47.4790 C   0  0  0  0  0  0  0  0  0  0  0  0
  180.0210   20.8080   48.0360 C   0  0  0  0  0  0  0  0  0  0  0  0
  175.3144   17.5721   47.3397 H   0  0  0  0  0  0  0  0  0  0  0  0
  174.6377   18.1682   45.7862 H   0  0  0  0  0  0  0  0  0  0  0  0
  175.8738   16.8648   45.7862 H   0  0  0  0  0  0  0  0  0  0  0  0
  177.6171   18.3268   46.2831 H   0  0  0  0  0  0  0  0  0  0  0  0
  176.5417   19.3592   45.2459 H   0  0  0  0  0  0  0  0  0  0  0  0
  174.4003   19.5500   47.5297 H   0  0  0  0  0  0  0  0  0  0  0  0
  174.1356   21.2391   49.3320 H   0  0  0  0  0  0  0  0  0  0  0  0
  174.7262   26.3397   49.3399 H   0  0  0  0  0  0  0  0  0  0  0  0
  174.3182   28.2453   50.9011 H   0  0  0  0  0  0  0  0  0  0  0  0
  174.7608   27.9777   53.3436 H   0  0  0  0  0  0  0  0  0  0  0  0
  174.9120   25.8590   55.0890 H   0  0  0  0  0  0  0  0  0  0  0  0
  177.6130   20.9310   51.8400 H   0  0  0  0  0  0  0  0  0  0  0  0
  178.3642   22.0860   49.1543 H   0  0  0  0  0  0  0  0  0  0  0  0
  178.1633   20.4088   45.2107 H   0  0  0  0  0  0  0  0  0  0  0  0
  179.0172   21.8885   45.7518 H   0  0  0  0  0  0  0  0  0  0  0  0
  180.2757   19.1585   45.1430 H   0  0  0  0  0  0  0  0  0  0  0  0
  180.4305   20.6737   44.1680 H   0  0  0  0  0  0  0  0  0  0  0  0
  182.4295   20.1876   45.6181 H   0  0  0  0  0  0  0  0  0  0  0  0
  181.6309   21.7737   45.9548 H   0  0  0  0  0  0  0  0  0  0  0  0
  181.3620   19.1890   47.5593 H   0  0  0  0  0  0  0  0  0  0  0  0
  182.1669   20.7309   48.0620 H   0  0  0  0  0  0  0  0  0  0  0  0
  179.8786   20.4345   49.0608 H   0  0  0  0  0  0  0  0  0  0  0  0
  180.0309   21.9078   48.0515 H   0  0  0  0  0  0  0  0  0  0  0  0
  1  2  1  0
  2  3  1  0
  3  4  2  0
  4  5  1  0
  5  6  2  0
  6  7  1  0
  7  8  1  0
  8  9  1  0
  9 10  2  0
 10 11  1  0
 11 12  2  0
 12 13  1  0
 13 14  1  0
 13 15  2  0
 15 16  1  0
 16 17  2  0
 16 18  1  0
 18 19  1  0
  6 20  1  0
 20 21  2  0
 21 22  1  0
 22 23  1  0
 23 24  1  0
 24 25  1  0
 25 26  1  0
 26 27  1  0
 21  3  1  0
 27 22  1  0
 18  7  2  0
 15  9  1  0
  1 28  1  0
  1 29  1  0
  1 30  1  0
  2 31  1  0
  2 32  1  0
  4 33  1  0
  5 34  1  0
 10 35  1  0
 11 36  1  0
 12 37  1  0
 14 38  1  0
 19 39  1  0
 20 40  1  0
 23 41  1  0
 23 42  1  0
 24 43  1  0
 24 44  1  0
 25 45  1  0
 25 46  1  0
 26 47  1  0
 26 48  1  0
 27 49  1  0
 27 50  1  0
M  END
>  <meeko>  (1) 
{"is_sidechain": [false], "free_energy": -8.106, "intermolecular_energy": -10.001, "internal_energy": -0.492}

$$$$
cand_020_out
     RDKit          3D

 50 53  0  0  0  0  0  0  0  0999 V2000
  175.5030   19.2820   47.1100 C   0  0  0  0  0  0  0  0  0  0  0  0
  175.9040   20.6710   46.6360 C   0  0  0  0  0  0  0  0  0  0  0  0
  177.2840   21.0590   47.1170 C   0  0  0  0  0  0  0  0  0  0  0  0
  178.4030   20.4520   46.5260 C   0  0  0  0  0  0  0  0  0  0  0  0
  179.6950   20.7660   46.9510 C   0  0  0  0  0  0  0  0  0  0  0  0
  179.9020   21.6880   47.9820 C   0  0  0  0  0  0  0  0  0  0  0  0
  181.2790   22.0300   48.3990 C   0  0  0  0  0  0  0  0  0  0  0  0
  182.0590   22.5000   47.3480 O   0  0  0  0  0  0  0  0  0  0  0  0
  183.3600   22.8540   47.5950 C   0  0  0  0  0  0  0  0  0  0  0  0
  184.1010   23.3350   46.5140 C   0  0  0  0  0  0  0  0  0  0  0  0
  185.4340   23.7120   46.6970 C   0  0  0  0  0  0  0  0  0  0  0  0
  186.0250   23.6090   47.9580 C   0  0  0  0  0  0  0  0  0  0  0  0
  185.2820   23.1290   49.0340 C   0  0  0  0  0  0  0  0  0  0  0  0
  185.9220   23.0530   50.2400 O   0  0  0  0  0  0  0  0  0  0  0  0
  183.9490   22.7520   48.8510 C   0  0  0  0  0  0  0  0  0  0  0  0
  183.1340   22.2430   49.9550 C   0  0  0  0  0  0  0  0  0  0  0  0
  183.5840   22.1170   51.0920 O   0  0  0  0  0  0  0  0  0  0  0  0
  181.7290   21.8790   49.6580 C   0  0  0  0  0  0  0  0  0  0  0  0
  180.9730   21.3880   50.7060 O   0  0  0  0  0  0  0  0  0  0  0  0
  178.7820   22.2960   48.5700 C   0  0  0  0  0  0  0  0  0  0  0  0
  177.4700   21.9860   48.1620 C   0  0  0  0  0  0  0  0  0  0  0  0
  176.3410   22.5910   48.7610 N   0  0  0  0  0  0  0  0  0  0  0  0
  175.7990   21.8170   49.8890 C   0  0  0  0  0  0  0  0  0  0  0  0
  174.4560   22.4180   50.3020 C   0  0  0  0  0  0  0  0  0  0  0  0
  174.5960   23.9030   50.6340 C   0  0  0  0  0  0  0  0  0  0  0  0
  175.2600   24.6590   49.4850 C   0  0  0  0  0  0  0  0  0  0  0  0
  176.5830   24.0070   49.0800 C   0  0  0  0  0  0  0  0  0  0  0  0
  175.4960   19.2577   48.2097 H   0  0  0  0  0  0  0  0  0  0  0  0
  174.4987   19.0412   46.7315 H   0  0  0  0  0  0  0  0  0  0  0  0
  176.2245   18.5429   46.7315 H   0  0  0  0  0  0  0  0  0  0  0  0
  175.8940   20.6872   45.5362 H   0  0  0  0  0  0  0  0  0  0  0  0
  175.1848   21.3919   47.0520 H   0  0  0  0  0  0  0  0  0  0  0  0
  178.2601   19.7196   45.7178 H   0  0  0  0  0  0  0  0  0  0  0  0
  180.5588   20.2835   46.4703 H   0  0  0  0  0  0  0  0  0  0  0  0
  183.6365   23.4170   45.5203 H   0  0  0  0  0  0  0  0  0  0  0  0
  186.0191   24.0907   45.8459 H   0  0  0  0  0  0  0  0  0  0  0  0
  187.0744   23.9061   48.1012 H   0  0  0  0  0  0  0  0  0  0  0  0
  186.8290   22.8180   50.2760 H   0  0  0  0  0  0  0  0  0  0  0  0
  180.2130   21.8550   50.9960 H   0  0  0  0  0  0  0  0  0  0  0  0
  178.9329   23.0346   49.3711 H   0  0  0  0  0  0  0  0  0  0  0  0
  175.6566   20.7698   49.5837 H   0  0  0  0  0  0  0  0  0  0  0  0
  176.4996   21.8528   50.7363 H   0  0  0  0  0  0  0  0  0  0  0  0
  173.7405   22.3008   49.4748 H   0  0  0  0  0  0  0  0  0  0  0  0
  174.0992   21.8917   51.1996 H   0  0  0  0  0  0  0  0  0  0  0  0
  173.5973   24.3272   50.8145 H   0  0  0  0  0  0  0  0  0  0  0  0
  175.2248   24.0045   51.5308 H   0  0  0  0  0  0  0  0  0  0  0  0
  174.5820   24.6613   48.6188 H   0  0  0  0  0  0  0  0  0  0  0  0
  175.4679   25.6859   49.8201 H   0  0  0  0  0  0  0  0  0  0  0  0
  176.9916   24.5195   48.1966 H   0  0  0  0  0  0  0  0  0  0  0  0
  177.3039   24.0838   49.9073 H   0  0  0  0  0  0  0  0  0  0  0  0
  1  2  1  0
  2  3  1  0
  3  4  2  0
  4  5  1  0
  5  6  2  0
  6  7  1  0
  7  8  1  0
  8  9  1  0
  9 10  2  0
 10 11  1  0
 11 12  2  0
 12 13  1  0
 13 14  1  0
 13 15  2  0
 15 16  1  0
 16 17  2  0
 16 18  1  0
 18 19  1  0
  6 20  1  0
 20 21  2  0
 21 22  1  0
 22 23  1  0
 23 24  1  0
 24 25  1  0
 25 26  1  0
 26 27  1  0
 21  3  1  0
 27 22  1  0
 18  7  2  0
 15  9  1  0
  1 28  1  0
  1 29  1  0
  1 30  1  0
  2 31  1  0
  2 32  1  0
  4 33  1  0
  5 34  1  0
 10 35  1  0
 11 36  1  0
 12 37  1  0
 14 38  1  0
 19 39  1  0
 20 40  1  0
 23 41  1  0
 23 42  1  0
 24 43  1  0
 24 44  1  0
 25 45  1  0
 25 46  1  0
 26 47  1  0
 26 48  1  0
 27 49  1  0
 27 50  1  0
M  END
>  <meeko>  (2) 
{"is_sidechain": [false], "free_energy": -7.883, "intermolecular_energy": -9.498, "internal_energy": -0.721}

$$$$
cand_020_out
     RDKit          3D

 50 53  0  0  0  0  0  0  0  0999 V2000
  181.2190   19.3600   45.5590 C   0  0  0  0  0  0  0  0  0  0  0  0
  181.4450   20.8070   45.9690 C   0  0  0  0  0  0  0  0  0  0  0  0
  180.4370   21.2710   46.9970 C   0  0  0  0  0  0  0  0  0  0  0  0
  179.1900   20.6290   47.0610 C   0  0  0  0  0  0  0  0  0  0  0  0
  178.2220   21.0360   47.9800 C   0  0  0  0  0  0  0  0  0  0  0  0
  178.4720   22.0980   48.8550 C   0  0  0  0  0  0  0  0  0  0  0  0
  177.4460   22.4950   49.8430 C   0  0  0  0  0  0  0  0  0  0  0  0
  176.3390   23.1010   49.2570 O   0  0  0  0  0  0  0  0  0  0  0  0
  175.3100   23.5190   50.0600 C   0  0  0  0  0  0  0  0  0  0  0  0
  174.2140   24.1080   49.4280 C   0  0  0  0  0  0  0  0  0  0  0  0
  173.1320   24.5580   50.1880 C   0  0  0  0  0  0  0  0  0  0  0  0
  173.1450   24.4200   51.5770 C   0  0  0  0  0  0  0  0  0  0  0  0
  174.2410   23.8320   52.2040 C   0  0  0  0  0  0  0  0  0  0  0  0
  174.1900   23.7290   53.5670 O   0  0  0  0  0  0  0  0  0  0  0  0
  175.3230   23.3810   51.4440 C   0  0  0  0  0  0  0  0  0  0  0  0
  176.4940   22.7590   52.0630 C   0  0  0  0  0  0  0  0  0  0  0  0
  176.5830   22.6080   53.2800 O   0  0  0  0  0  0  0  0  0  0  0  0
  177.5840   22.3070   51.1680 C   0  0  0  0  0  0  0  0  0  0  0  0
  178.6900   21.7310   51.7660 O   0  0  0  0  0  0  0  0  0  0  0  0
  179.7200   22.7360   48.7920 C   0  0  0  0  0  0  0  0  0  0  0  0
  180.7070   22.3470   47.8650 C   0  0  0  0  0  0  0  0  0  0  0  0
  181.9610   22.9970   47.7950 N   0  0  0  0  0  0  0  0  0  0  0  0
  181.8540   24.4650   47.7960 C   0  0  0  0  0  0  0  0  0  0  0  0
  183.2240   25.0610   47.4720 C   0  0  0  0  0  0  0  0  0  0  0  0
  184.2880   24.5570   48.4460 C   0  0  0  0  0  0  0  0  0  0  0  0
  184.2990   23.0300   48.5010 C   0  0  0  0  0  0  0  0  0  0  0  0
  182.9050   22.4730   48.7940 C   0  0  0  0  0  0  0  0  0  0  0  0
  181.1214   18.7349   46.4588 H   0  0  0  0  0  0  0  0  0  0  0  0
  180.2987   19.2879   44.9608 H   0  0  0  0  0  0  0  0  0  0  0  0
  182.0735   19.0107   44.9608 H   0  0  0  0  0  0  0  0  0  0  0  0
  182.4549   20.9015   46.3946 H   0  0  0  0  0  0  0  0  0  0  0  0
  181.3291   21.4350   45.0734 H   0  0  0  0  0  0  0  0  0  0  0  0
  178.9733   19.7945   46.3779 H   0  0  0  0  0  0  0  0  0  0  0  0
  177.2530   20.5166   48.0166 H   0  0  0  0  0  0  0  0  0  0  0  0
  174.2023   24.2176   48.3335 H   0  0  0  0  0  0  0  0  0  0  0  0
  172.2676   25.0223   49.6908 H   0  0  0  0  0  0  0  0  0  0  0  0
  172.2923   24.7746   52.1746 H   0  0  0  0  0  0  0  0  0  0  0  0
  173.7150   23.0260   53.9670 H   0  0  0  0  0  0  0  0  0  0  0  0
  178.5880   21.2210   52.5460 H   0  0  0  0  0  0  0  0  0  0  0  0
  179.9337   23.5627   49.4855 H   0  0  0  0  0  0  0  0  0  0  0  0
  181.1241   24.7827   47.0368 H   0  0  0  0  0  0  0  0  0  0  0  0
  181.5198   24.8139   48.7842 H   0  0  0  0  0  0  0  0  0  0  0  0
  183.5082   24.7730   46.4491 H   0  0  0  0  0  0  0  0  0  0  0  0
  183.1588   26.1554   47.5618 H   0  0  0  0  0  0  0  0  0  0  0  0
  185.2753   24.9124   48.1160 H   0  0  0  0  0  0  0  0  0  0  0  0
  184.0559   24.9427   49.4497 H   0  0  0  0  0  0  0  0  0  0  0  0
  184.6444   22.6393   47.5325 H   0  0  0  0  0  0  0  0  0  0  0  0
  184.9745   22.7172   49.3109 H   0  0  0  0  0  0  0  0  0  0  0  0
  182.9277   21.3746   48.7396 H   0  0  0  0  0  0  0  0  0  0  0  0
  182.5870   22.7777   49.8020 H   0  0  0  0  0  0  0  0  0  0  0  0
  1  2  1  0
  2  3  1  0
  3  4  2  0
  4  5  1  0
  5  6  2  0
  6  7  1  0
  7  8  1  0
  8  9  1  0
  9 10  2  0
 10 11  1  0
 11 12  2  0
 12 13  1  0
 13 14  1  0
 13 15  2  0
 15 16  1  0
 16 17  2  0
 16 18  1  0
 18 19  1  0
  6 20  1  0
 20 21  2  0
 21 22  1  0
 22 23  1  0
 23 24  1  0
 24 25  1  0
 25 26  1  0
 26 27  1  0
 21  3  1  0
 27 22  1  0
 18  7  2  0
 15  9  1  0
  1 28  1  0
  1 29  1  0
  1 30  1  0
  2 31  1  0
  2 32  1  0
  4 33  1  0
  5 34  1  0
 10 35  1  0
 11 36  1  0
 12 37  1  0
 14 38  1  0
 19 39  1  0
 20 40  1  0
 23 41  1  0
 23 42  1  0
 24 43  1  0
 24 44  1  0
 25 45  1  0
 25 46  1  0
 26 47  1  0
 26 48  1  0
 27 49  1  0
 27 50  1  0
M  END
>  <meeko>  (3) 
{"is_sidechain": [false], "free_energy": -7.797, "intermolecular_energy": -9.321, "internal_energy": -0.792}

$$$$
cand_020_out
     RDKit          3D

 50 53  0  0  0  0  0  0  0  0999 V2000
  174.8380   21.8140   48.9160 C   0  0  0  0  0  0  0  0  0  0  0  0
  176.2660   22.3260   48.8100 C   0  0  0  0  0  0  0  0  0  0  0  0
  177.1530   21.3790   48.0320 C   0  0  0  0  0  0  0  0  0  0  0  0
  176.5550   20.3820   47.2460 C   0  0  0  0  0  0  0  0  0  0  0  0
  177.3340   19.4750   46.5270 C   0  0  0  0  0  0  0  0  0  0  0  0
  178.7310   19.5350   46.5810 C   0  0  0  0  0  0  0  0  0  0  0  0
  179.5400   18.5840   45.7890 C   0  0  0  0  0  0  0  0  0  0  0  0
  179.0570   17.2810   45.8550 O   0  0  0  0  0  0  0  0  0  0  0  0
  179.7150   16.2950   45.1650 C   0  0  0  0  0  0  0  0  0  0  0  0
  179.1880   15.0060   45.2480 C   0  0  0  0  0  0  0  0  0  0  0  0
  179.8100   13.9540   44.5700 C   0  0  0  0  0  0  0  0  0  0  0  0
  180.9580   14.1920   43.8110 C   0  0  0  0  0  0  0  0  0  0  0  0
  181.4810   15.4800   43.7300 C   0  0  0  0  0  0  0  0  0  0  0  0
  182.6060   15.6430   42.9710 O   0  0  0  0  0  0  0  0  0  0  0  0
  180.8580   16.5320   44.4080 C   0  0  0  0  0  0  0  0  0  0  0  0
  181.3750   17.9000   44.3500 C   0  0  0  0  0  0  0  0  0  0  0  0
  182.3830   18.1870   43.7080 O   0  0  0  0  0  0  0  0  0  0  0  0
  180.6360   18.9440   45.0970 C   0  0  0  0  0  0  0  0  0  0  0  0
  181.1420   20.2300   45.0440 O   0  0  0  0  0  0  0  0  0  0  0  0
  179.3270   20.5340   47.3650 C   0  0  0  0  0  0  0  0  0  0  0  0
  178.5590   21.4530   48.1050 C   0  0  0  0  0  0  0  0  0  0  0  0
  179.1590   22.4540   48.9040 N   0  0  0  0  0  0  0  0  0  0  0  0
  179.7510   21.9280   50.1440 C   0  0  0  0  0  0  0  0  0  0  0  0
  180.1480   23.1010   51.0400 C   0  0  0  0  0  0  0  0  0  0  0  0
  181.0910   24.0570   50.3080 C   0  0  0  0  0  0  0  0  0  0  0  0
  180.4930   24.5000   48.9740 C   0  0  0  0  0  0  0  0  0  0  0  0
  180.0780   23.2980   48.1230 C   0  0  0  0  0  0  0  0  0  0  0  0
  174.5617   21.7149   49.9761 H   0  0  0  0  0  0  0  0  0  0  0  0
  174.1565   22.5238   48.4243 H   0  0  0  0  0  0  0  0  0  0  0  0
  174.7628   20.8329   48.4243 H   0  0  0  0  0  0  0  0  0  0  0  0
  176.2564   23.3015   48.3017 H   0  0  0  0  0  0  0  0  0  0  0  0
  176.6722   22.4112   49.8287 H   0  0  0  0  0  0  0  0  0  0  0  0
  175.4582   20.3148   47.1962 H   0  0  0  0  0  0  0  0  0  0  0  0
  176.8453   18.7052   45.9117 H   0  0  0  0  0  0  0  0  0  0  0  0
  178.2842   14.8179   45.8462 H   0  0  0  0  0  0  0  0  0  0  0  0
  179.3949   12.9374   44.6342 H   0  0  0  0  0  0  0  0  0  0  0  0
  181.4480   13.3637   43.2783 H   0  0  0  0  0  0  0  0  0  0  0  0
  183.4160   15.8810   43.3780 H   0  0  0  0  0  0  0  0  0  0  0  0
  180.9900   20.7620   44.2880 H   0  0  0  0  0  0  0  0  0  0  0  0
  180.4243   20.6011   47.4026 H   0  0  0  0  0  0  0  0  0  0  0  0
  179.0159   21.2974   50.6655 H   0  0  0  0  0  0  0  0  0  0  0  0
  180.6389   21.3240   49.9059 H   0  0  0  0  0  0  0  0  0  0  0  0
  179.2416   23.6483   51.3382 H   0  0  0  0  0  0  0  0  0  0  0  0
  180.6685   22.7051   51.9245 H   0  0  0  0  0  0  0  0  0  0  0  0
  181.2644   24.9429   50.9365 H   0  0  0  0  0  0  0  0  0  0  0  0
  182.0381   23.5333   50.1112 H   0  0  0  0  0  0  0  0  0  0  0  0
  179.6082   25.1241   49.1678 H   0  0  0  0  0  0  0  0  0  0  0  0
  181.2572   25.0677   48.4229 H   0  0  0  0  0  0  0  0  0  0  0  0
  179.5724   23.6484   47.2111 H   0  0  0  0  0  0  0  0  0  0  0  0
  180.9682   22.7167   47.8407 H   0  0  0  0  0  0  0  0  0  0  0  0
  1  2  1  0
  2  3  1  0
  3  4  2  0
  4  5  1  0
  5  6  2  0
  6  7  1  0
  7  8  1  0
  8  9  1  0
  9 10  2  0
 10 11  1  0
 11 12  2  0
 12 13  1  0
 13 14  1  0
 13 15  2  0
 15 16  1  0
 16 17  2  0
 16 18  1  0
 18 19  1  0
  6 20  1  0
 20 21  2  0
 21 22  1  0
 22 23  1  0
 23 24  1  0
 24 25  1  0
 25 26  1  0
 26 27  1  0
 21  3  1  0
 27 22  1  0
 18  7  2  0
 15  9  1  0
  1 28  1  0
  1 29  1  0
  1 30  1  0
  2 31  1  0
  2 32  1  0
  4 33  1  0
  5 34  1  0
 10 35  1  0
 11 36  1  0
 12 37  1  0
 14 38  1  0
 19 39  1  0
 20 40  1  0
 23 41  1  0
 23 42  1  0
 24 43  1  0
 24 44  1  0
 25 45  1  0
 25 46  1  0
 26 47  1  0
 26 48  1  0
 27 49  1  0
 27 50  1  0
M  END
>  <meeko>  (4) 
{"is_sidechain": [false], "free_energy": -7.738, "intermolecular_energy": -9.487, "internal_energy": -0.553}

$$$$
cand_020_out
     RDKit          3D

 50 53  0  0  0  0  0  0  0  0999 V2000
  181.9950   22.2900   50.2380 C   0  0  0  0  0  0  0  0  0  0  0  0
  180.9110   21.2250   50.1740 C   0  0  0  0  0  0  0  0  0  0  0  0
  179.5290   21.8270   50.0440 C   0  0  0  0  0  0  0  0  0  0  0  0
  179.0040   22.5570   51.1210 C   0  0  0  0  0  0  0  0  0  0  0  0
  177.7270   23.1150   51.0530 C   0  0  0  0  0  0  0  0  0  0  0  0
  176.9380   22.9510   49.9090 C   0  0  0  0  0  0  0  0  0  0  0  0
  175.5990   23.5740   49.8430 C   0  0  0  0  0  0  0  0  0  0  0  0
  175.6290   24.9440   50.0840 O   0  0  0  0  0  0  0  0  0  0  0  0
  174.4530   25.6480   50.0530 C   0  0  0  0  0  0  0  0  0  0  0  0
  174.5320   27.0220   50.2860 C   0  0  0  0  0  0  0  0  0  0  0  0
  173.3710   27.7980   50.2710 C   0  0  0  0  0  0  0  0  0  0  0  0
  172.1330   27.2030   50.0240 C   0  0  0  0  0  0  0  0  0  0  0  0
  172.0570   25.8320   49.7920 C   0  0  0  0  0  0  0  0  0  0  0  0
  170.8140   25.3130   49.5570 O   0  0  0  0  0  0  0  0  0  0  0  0
  173.2190   25.0540   49.8060 C   0  0  0  0  0  0  0  0  0  0  0  0
  173.1840   23.6110   49.5680 C   0  0  0  0  0  0  0  0  0  0  0  0
  172.1320   23.0140   49.3500 O   0  0  0  0  0  0  0  0  0  0  0  0
  174.4720   22.8800   49.5970 C   0  0  0  0  0  0  0  0  0  0  0  0
  174.4250   21.5150   49.3820 O   0  0  0  0  0  0  0  0  0  0  0  0
  177.4660   22.2230   48.8320 C   0  0  0  0  0  0  0  0  0  0  0  0
  178.7490   21.6450   48.8850 C   0  0  0  0  0  0  0  0  0  0  0  0
  179.2770   20.9020   47.8030 N   0  0  0  0  0  0  0  0  0  0  0  0
  178.2500   20.1680   47.0480 C   0  0  0  0  0  0  0  0  0  0  0  0
  178.9400   19.2160   46.0710 C   0  0  0  0  0  0  0  0  0  0  0  0
  179.9020   19.9720   45.1550 C   0  0  0  0  0  0  0  0  0  0  0  0
  180.8880   20.8090   45.9680 C   0  0  0  0  0  0  0  0  0  0  0  0
  180.1590   21.7220   46.9570 C   0  0  0  0  0  0  0  0  0  0  0  0
  182.2252   22.5162   51.2896 H   0  0  0  0  0  0  0  0  0  0  0  0
  182.9013   21.9214   49.7353 H   0  0  0  0  0  0  0  0  0  0  0  0
  181.6424   23.2027   49.7353 H   0  0  0  0  0  0  0  0  0  0  0  0
  181.0996   20.5786   49.3042 H   0  0  0  0  0  0  0  0  0  0  0  0
  180.9438   20.6513   51.1120 H   0  0  0  0  0  0  0  0  0  0  0  0
  179.6071   22.6912   52.0311 H   0  0  0  0  0  0  0  0  0  0  0  0
  177.3369   23.6890   51.9064 H   0  0  0  0  0  0  0  0  0  0  0  0
  175.5069   27.4927   50.4811 H   0  0  0  0  0  0  0  0  0  0  0  0
  173.4325   28.8809   50.4543 H   0  0  0  0  0  0  0  0  0  0  0  0
  171.2194   27.8155   50.0126 H   0  0  0  0  0  0  0  0  0  0  0  0
  170.4590   24.6660   50.1360 H   0  0  0  0  0  0  0  0  0  0  0  0
  174.8130   20.9290   50.0020 H   0  0  0  0  0  0  0  0  0  0  0  0
  176.8612   22.1004   47.9214 H   0  0  0  0  0  0  0  0  0  0  0  0
  177.6216   19.5921   47.7432 H   0  0  0  0  0  0  0  0  0  0  0  0
  177.6170   20.8766   46.4938 H   0  0  0  0  0  0  0  0  0  0  0  0
  179.5035   18.4624   46.6407 H   0  0  0  0  0  0  0  0  0  0  0  0
  178.1708   18.7343   45.4495 H   0  0  0  0  0  0  0  0  0  0  0  0
  180.4621   19.2478   44.5453 H   0  0  0  0  0  0  0  0  0  0  0  0
  179.3169   20.6460   44.5120 H   0  0  0  0  0  0  0  0  0  0  0  0
  181.5545   20.1354   46.5265 H   0  0  0  0  0  0  0  0  0  0  0  0
  181.4639   21.4386   45.2738 H   0  0  0  0  0  0  0  0  0  0  0  0
  180.8936   22.2446   47.5873 H   0  0  0  0  0  0  0  0  0  0  0  0
  179.5624   22.4651   46.4075 H   0  0  0  0  0  0  0  0  0  0  0  0
  1  2  1  0
  2  3  1  0
  3  4  2  0
  4  5  1  0
  5  6  2  0
  6  7  1  0
  7  8  1  0
  8  9  1  0
  9 10  2  0
 10 11  1  0
 11 12  2  0
 12 13  1  0
 13 14  1  0
 13 15  2  0
 15 16  1  0
 16 17  2  0
 16 18  1  0
 18 19  1  0
  6 20  1  0
 20 21  2  0
 21 22  1  0
 22 23  1  0
 23 24  1  0
 24 25  1  0
 25 26  1  0
 26 27  1  0
 21  3  1  0
 27 22  1  0
 18  7  2  0
 15  9  1  0
  1 28  1  0
  1 29  1  0
  1 30  1  0
  2 31  1  0
  2 32  1  0
  4 33  1  0
  5 34  1  0
 10 35  1  0
 11 36  1  0
 12 37  1  0
 14 38  1  0
 19 39  1  0
 20 40  1  0
 23 41  1  0
 23 42  1  0
 24 43  1  0
 24 44  1  0
 25 45  1  0
 25 46  1  0
 26 47  1  0
 26 48  1  0
 27 49  1  0
 27 50  1  0
M  END
>  <meeko>  (5) 
{"is_sidechain": [false], "free_energy": -7.645, "intermolecular_energy": -9.307, "internal_energy": -0.618}

$$$$
cand_020_out
     RDKit          3D

 50 53  0  0  0  0  0  0  0  0999 V2000
  175.4650   25.1590   53.6540 C   0  0  0  0  0  0  0  0  0  0  0  0
  174.8960   23.8210   53.2080 C   0  0  0  0  0  0  0  0  0  0  0  0
  175.6720   23.2310   52.0510 C   0  0  0  0  0  0  0  0  0  0  0  0
  176.8500   22.5170   52.3190 C   0  0  0  0  0  0  0  0  0  0  0  0
  177.6090   21.9720   51.2830 C   0  0  0  0  0  0  0  0  0  0  0  0
  177.2140   22.1320   49.9500 C   0  0  0  0  0  0  0  0  0  0  0  0
  178.0140   21.5220   48.8670 C   0  0  0  0  0  0  0  0  0  0  0  0
  179.2940   22.0560   48.7750 O   0  0  0  0  0  0  0  0  0  0  0  0
  180.1440   21.5800   47.8110 C   0  0  0  0  0  0  0  0  0  0  0  0
  181.4240   22.1350   47.7660 C   0  0  0  0  0  0  0  0  0  0  0  0
  182.3400   21.6960   46.8060 C   0  0  0  0  0  0  0  0  0  0  0  0
  181.9760   20.7030   45.8930 C   0  0  0  0  0  0  0  0  0  0  0  0
  180.6980   20.1520   45.9420 C   0  0  0  0  0  0  0  0  0  0  0  0
  180.4080   19.1850   45.0180 O   0  0  0  0  0  0  0  0  0  0  0  0
  179.7820   20.5910   46.9020 C   0  0  0  0  0  0  0  0  0  0  0  0
  178.4300   20.0380   46.9870 C   0  0  0  0  0  0  0  0  0  0  0  0
  178.0340   19.1670   46.2150 O   0  0  0  0  0  0  0  0  0  0  0  0
  177.5390   20.5660   48.0460 C   0  0  0  0  0  0  0  0  0  0  0  0
  176.2610   20.0450   48.1090 O   0  0  0  0  0  0  0  0  0  0  0  0
  176.0340   22.8440   49.6840 C   0  0  0  0  0  0  0  0  0  0  0  0
  175.2600   23.4090   50.7150 C   0  0  0  0  0  0  0  0  0  0  0  0
  174.0770   24.1350   50.4460 N   0  0  0  0  0  0  0  0  0  0  0  0
  174.3280   25.5370   50.0750 C   0  0  0  0  0  0  0  0  0  0  0  0
  172.9970   26.2880   50.0470 C   0  0  0  0  0  0  0  0  0  0  0  0
  172.0010   25.6090   49.1070 C   0  0  0  0  0  0  0  0  0  0  0  0
  171.8440   24.1290   49.4530 C   0  0  0  0  0  0  0  0  0  0  0  0
  173.2000   23.4220   49.5030 C   0  0  0  0  0  0  0  0  0  0  0  0
  175.4832   25.2017   54.7530 H   0  0  0  0  0  0  0  0  0  0  0  0
  176.4882   25.2700   53.2658 H   0  0  0  0  0  0  0  0  0  0  0  0
  174.8352   25.9730   53.2658 H   0  0  0  0  0  0  0  0  0  0  0  0
  174.9331   23.1196   54.0546 H   0  0  0  0  0  0  0  0  0  0  0  0
  173.8615   23.9870   52.8730 H   0  0  0  0  0  0  0  0  0  0  0  0
  177.1795   22.3852   53.3602 H   0  0  0  0  0  0  0  0  0  0  0  0
  178.5263   21.4114   51.5160 H   0  0  0  0  0  0  0  0  0  0  0  0
  181.7112   22.9165   48.4848 H   0  0  0  0  0  0  0  0  0  0  0  0
  183.3489   22.1329   46.7692 H   0  0  0  0  0  0  0  0  0  0  0  0
  182.6970   20.3574   45.1375 H   0  0  0  0  0  0  0  0  0  0  0  0
  180.6660   19.2980   44.1240 H   0  0  0  0  0  0  0  0  0  0  0  0
  176.0960   19.1690   47.8170 H   0  0  0  0  0  0  0  0  0  0  0  0
  175.7051   22.9637   48.6412 H   0  0  0  0  0  0  0  0  0  0  0  0
  174.9978   26.0003   50.8144 H   0  0  0  0  0  0  0  0  0  0  0  0
  174.8014   25.5809   49.0831 H   0  0  0  0  0  0  0  0  0  0  0  0
  172.5752   26.3092   51.0627 H   0  0  0  0  0  0  0  0  0  0  0  0
  173.1802   27.3096   49.6827 H   0  0  0  0  0  0  0  0  0  0  0  0
  171.0238   26.1056   49.1986 H   0  0  0  0  0  0  0  0  0  0  0  0
  172.3792   25.6902   48.0773 H   0  0  0  0  0  0  0  0  0  0  0  0
  171.3575   24.0405   50.4356 H   0  0  0  0  0  0  0  0  0  0  0  0
  171.2333   23.6530   48.6716 H   0  0  0  0  0  0  0  0  0  0  0  0
  173.0626   22.3839   49.8398 H   0  0  0  0  0  0  0  0  0  0  0  0
  173.6550   23.4190   48.5015 H   0  0  0  0  0  0  0  0  0  0  0  0
  1  2  1  0
  2  3  1  0
  3  4  2  0
  4  5  1  0
  5  6  2  0
  6  7  1  0
  7  8  1  0
  8  9  1  0
  9 10  2  0
 10 11  1  0
 11 12  2  0
 12 13  1  0
 13 14  1  0
 13 15  2  0
 15 16  1  0
 16 17  2  0
 16 18  1  0
 18 19  1  0
  6 20  1  0
 20 21  2  0
 21 22  1  0
 22 23  1  0
 23 24  1  0
 24 25  1  0
 25 26  1  0
 26 27  1  0
 21  3  1  0
 27 22  1  0
 18  7  2  0
 15  9  1  0
  1 28  1  0
  1 29  1  0
  1 30  1  0
  2 31  1  0
  2 32  1  0
  4 33  1  0
  5 34  1  0
 10 35  1  0
 11 36  1  0
 12 37  1  0
 14 38  1  0
 19 39  1  0
 20 40  1  0
 23 41  1  0
 23 42  1  0
 24 43  1  0
 24 44  1  0
 25 45  1  0
 25 46  1  0
 26 47  1  0
 26 48  1  0
 27 49  1  0
 27 50  1  0
M  END
>  <meeko>  (6) 
{"is_sidechain": [false], "free_energy": -7.487, "intermolecular_energy": -8.919, "internal_energy": -0.811}

$$$$
cand_020_out
     RDKit          3D

 50 53  0  0  0  0  0  0  0  0999 V2000
  177.8750   19.2900   46.5170 C   0  0  0  0  0  0  0  0  0  0  0  0
  177.3440   20.6820   46.2070 C   0  0  0  0  0  0  0  0  0  0  0  0
  176.5970   21.2790   47.3790 C   0  0  0  0  0  0  0  0  0  0  0  0
  175.2360   20.9760   47.5400 C   0  0  0  0  0  0  0  0  0  0  0  0
  174.5020   21.5200   48.5950 C   0  0  0  0  0  0  0  0  0  0  0  0
  175.1070   22.3860   49.5120 C   0  0  0  0  0  0  0  0  0  0  0  0
  174.3210   22.9290   50.6410 C   0  0  0  0  0  0  0  0  0  0  0  0
  175.1090   23.2530   51.7400 O   0  0  0  0  0  0  0  0  0  0  0  0
  174.5070   23.7670   52.8590 C   0  0  0  0  0  0  0  0  0  0  0  0
  175.3370   24.0910   53.9330 C   0  0  0  0  0  0  0  0  0  0  0  0
  174.7880   24.6180   55.1040 C   0  0  0  0  0  0  0  0  0  0  0  0
  173.4100   24.8200   55.2020 C   0  0  0  0  0  0  0  0  0  0  0  0
  172.5840   24.4960   54.1290 C   0  0  0  0  0  0  0  0  0  0  0  0
  171.2440   24.7180   54.2910 O   0  0  0  0  0  0  0  0  0  0  0  0
  173.1330   23.9690   52.9560 C   0  0  0  0  0  0  0  0  0  0  0  0
  172.3020   23.6150   51.8060 C   0  0  0  0  0  0  0  0  0  0  0  0
  171.0810   23.7580   51.8180 O   0  0  0  0  0  0  0  0  0  0  0  0
  172.9830   23.0720   50.6080 C   0  0  0  0  0  0  0  0  0  0  0  0
  172.1850   22.7300   49.5330 O   0  0  0  0  0  0  0  0  0  0  0  0
  176.4680   22.6860   49.3500 C   0  0  0  0  0  0  0  0  0  0  0  0
  177.2240   22.1550   48.2870 C   0  0  0  0  0  0  0  0  0  0  0  0
  178.5930   22.4650   48.1180 N   0  0  0  0  0  0  0  0  0  0  0  0
  178.8720   23.9090   48.1750 C   0  0  0  0  0  0  0  0  0  0  0  0
  180.3170   24.1520   47.7410 C   0  0  0  0  0  0  0  0  0  0  0  0
  181.2920   23.3400   48.5940 C   0  0  0  0  0  0  0  0  0  0  0  0
  180.9110   21.8600   48.6000 C   0  0  0  0  0  0  0  0  0  0  0  0
  179.4490   21.6630   49.0070 C   0  0  0  0  0  0  0  0  0  0  0  0
  177.9276   19.1520   47.6070 H   0  0  0  0  0  0  0  0  0  0  0  0
  177.2014   18.5358   46.0840 H   0  0  0  0  0  0  0  0  0  0  0  0
  178.8798   19.1760   46.0840 H   0  0  0  0  0  0  0  0  0  0  0  0
  178.1911   21.3370   45.9552 H   0  0  0  0  0  0  0  0  0  0  0  0
  176.6416   20.5973   45.3647 H   0  0  0  0  0  0  0  0  0  0  0  0
  174.7417   20.3012   46.8256 H   0  0  0  0  0  0  0  0  0  0  0  0
  173.4377   21.2654   48.7065 H   0  0  0  0  0  0  0  0  0  0  0  0
  176.4227   23.9314   53.8573 H   0  0  0  0  0  0  0  0  0  0  0  0
  175.4422   24.8743   55.9504 H   0  0  0  0  0  0  0  0  0  0  0  0
  172.9779   25.2342   56.1249 H   0  0  0  0  0  0  0  0  0  0  0  0
  170.6670   24.6620   53.5550 H   0  0  0  0  0  0  0  0  0  0  0  0
  171.3780   23.1820   49.3850 H   0  0  0  0  0  0  0  0  0  0  0  0
  176.9581   23.3544   50.0732 H   0  0  0  0  0  0  0  0  0  0  0  0
  178.1886   24.4440   47.4991 H   0  0  0  0  0  0  0  0  0  0  0  0
  178.7244   24.2767   49.2012 H   0  0  0  0  0  0  0  0  0  0  0  0
  180.4300   23.8572   46.6873 H   0  0  0  0  0  0  0  0  0  0  0  0
  180.5457   25.2202   47.8703 H   0  0  0  0  0  0  0  0  0  0  0  0
  182.3066   23.4488   48.1831 H   0  0  0  0  0  0  0  0  0  0  0  0
  181.2527   23.7168   49.6267 H   0  0  0  0  0  0  0  0  0  0  0  0
  181.0607   21.4475   47.5913 H   0  0  0  0  0  0  0  0  0  0  0  0
  181.5477   21.3409   49.3316 H   0  0  0  0  0  0  0  0  0  0  0  0
  179.1810   20.6000   48.9170 H   0  0  0  0  0  0  0  0  0  0  0  0
  179.3065   21.9837   50.0495 H   0  0  0  0  0  0  0  0  0  0  0  0
  1  2  1  0
  2  3  1  0
  3  4  2  0
  4  5  1  0
  5  6  2  0
  6  7  1  0
  7  8  1  0
  8  9  1  0
  9 10  2  0
 10 11  1  0
 11 12  2  0
 12 13  1  0
 13 14  1  0
 13 15  2  0
 15 16  1  0
 16 17  2  0
 16 18  1  0
 18 19  1  0
  6 20  1  0
 20 21  2  0
 21 22  1  0
 22 23  1  0
 23 24  1  0
 24 25  1  0
 25 26  1  0
 26 27  1  0
 21  3  1  0
 27 22  1  0
 18  7  2  0
 15  9  1  0
  1 28  1  0
  1 29  1  0
  1 30  1  0
  2 31  1  0
  2 32  1  0
  4 33  1  0
  5 34  1  0
 10 35  1  0
 11 36  1  0
 12 37  1  0
 14 38  1  0
 19 39  1  0
 20 40  1  0
 23 41  1  0
 23 42  1  0
 24 43  1  0
 24 44  1  0
 25 45  1  0
 25 46  1  0
 26 47  1  0
 26 48  1  0
 27 49  1  0
 27 50  1  0
M  END
>  <meeko>  (7) 
{"is_sidechain": [false], "free_energy": -7.406, "intermolecular_energy": -9.247, "internal_energy": -0.383}

$$$$
cand_020_out
     RDKit          3D

 50 53  0  0  0  0  0  0  0  0999 V2000
  185.8210   24.3590   49.9350 C   0  0  0  0  0  0  0  0  0  0  0  0
  185.5190   22.9790   49.3720 C   0  0  0  0  0  0  0  0  0  0  0  0
  184.0350   22.6840   49.3560 C   0  0  0  0  0  0  0  0  0  0  0  0
  183.4050   22.3190   50.5550 C   0  0  0  0  0  0  0  0  0  0  0  0
  182.0420   22.0190   50.5850 C   0  0  0  0  0  0  0  0  0  0  0  0
  181.2760   22.0700   49.4150 C   0  0  0  0  0  0  0  0  0  0  0  0
  179.8270   21.7790   49.4710 C   0  0  0  0  0  0  0  0  0  0  0  0
  179.2920   21.4630   48.2260 O   0  0  0  0  0  0  0  0  0  0  0  0
  177.9560   21.1710   48.1340 C   0  0  0  0  0  0  0  0  0  0  0  0
  177.4650   20.8450   46.8690 C   0  0  0  0  0  0  0  0  0  0  0  0
  176.1130   20.5390   46.7050 C   0  0  0  0  0  0  0  0  0  0  0  0
  175.2510   20.5570   47.8040 C   0  0  0  0  0  0  0  0  0  0  0  0
  175.7440   20.8820   49.0650 C   0  0  0  0  0  0  0  0  0  0  0  0
  174.8470   20.8820   50.0970 O   0  0  0  0  0  0  0  0  0  0  0  0
  177.0980   21.1880   49.2300 C   0  0  0  0  0  0  0  0  0  0  0  0
  177.6570   21.5350   50.5370 C   0  0  0  0  0  0  0  0  0  0  0  0
  176.9620   21.5790   51.5500 O   0  0  0  0  0  0  0  0  0  0  0  0
  179.1060   21.8350   50.6060 C   0  0  0  0  0  0  0  0  0  0  0  0
  179.6190   22.1730   51.8440 O   0  0  0  0  0  0  0  0  0  0  0  0
  181.9080   22.4390   48.2180 C   0  0  0  0  0  0  0  0  0  0  0  0
  183.2830   22.7350   48.1660 C   0  0  0  0  0  0  0  0  0  0  0  0
  183.9220   23.0970   46.9570 N   0  0  0  0  0  0  0  0  0  0  0  0
  183.5550   22.2310   45.8250 C   0  0  0  0  0  0  0  0  0  0  0  0
  184.4730   22.5450   44.6440 C   0  0  0  0  0  0  0  0  0  0  0  0
  184.4140   24.0280   44.2800 C   0  0  0  0  0  0  0  0  0  0  0  0
  184.6950   24.9020   45.5020 C   0  0  0  0  0  0  0  0  0  0  0  0
  183.7800   24.5340   46.6710 C   0  0  0  0  0  0  0  0  0  0  0  0
  185.8117   24.3167   51.0341 H   0  0  0  0  0  0  0  0  0  0  0  0
  186.8122   24.6873   49.5890 H   0  0  0  0  0  0  0  0  0  0  0  0
  185.0575   25.0713   49.5890 H   0  0  0  0  0  0  0  0  0  0  0  0
  185.9029   22.9239   48.3426 H   0  0  0  0  0  0  0  0  0  0  0  0
  186.0057   22.2347   50.0194 H   0  0  0  0  0  0  0  0  0  0  0  0
  183.9926   22.2685   51.4835 H   0  0  0  0  0  0  0  0  0  0  0  0
  181.5660   21.7401   51.5366 H   0  0  0  0  0  0  0  0  0  0  0  0
  178.1424   20.8292   46.0025 H   0  0  0  0  0  0  0  0  0  0  0  0
  175.7254   20.2831   45.7079 H   0  0  0  0  0  0  0  0  0  0  0  0
  174.1859   20.3151   47.6736 H   0  0  0  0  0  0  0  0  0  0  0  0
  174.7830   20.1370   50.6630 H   0  0  0  0  0  0  0  0  0  0  0  0
  180.3960   21.7550   52.1600 H   0  0  0  0  0  0  0  0  0  0  0  0
  181.3126   22.4986   47.2950 H   0  0  0  0  0  0  0  0  0  0  0  0
  183.6724   21.1761   46.1138 H   0  0  0  0  0  0  0  0  0  0  0  0
  182.5076   22.4118   45.5415 H   0  0  0  0  0  0  0  0  0  0  0  0
  185.5067   22.2820   44.9127 H   0  0  0  0  0  0  0  0  0  0  0  0
  184.1380   21.9587   43.7757 H   0  0  0  0  0  0  0  0  0  0  0  0
  185.1665   24.2389   43.5059 H   0  0  0  0  0  0  0  0  0  0  0  0
  183.4047   24.2584   43.9082 H   0  0  0  0  0  0  0  0  0  0  0  0
  185.7421   24.7627   45.8090 H   0  0  0  0  0  0  0  0  0  0  0  0
  184.5054   25.9507   45.2296 H   0  0  0  0  0  0  0  0  0  0  0  0
  184.0644   25.1167   47.5596 H   0  0  0  0  0  0  0  0  0  0  0  0
  182.7354   24.7596   46.4105 H   0  0  0  0  0  0  0  0  0  0  0  0
  1  2  1  0
  2  3  1  0
  3  4  2  0
  4  5  1  0
  5  6  2  0
  6  7  1  0
  7  8  1  0
  8  9  1  0
  9 10  2  0
 10 11  1  0
 11 12  2  0
 12 13  1  0
 13 14  1  0
 13 15  2  0
 15 16  1  0
 16 17  2  0
 16 18  1  0
 18 19  1  0
  6 20  1  0
 20 21  2  0
 21 22  1  0
 22 23  1  0
 23 24  1  0
 24 25  1  0
 25 26  1  0
 26 27  1  0
 21  3  1  0
 27 22  1  0
 18  7  2  0
 15  9  1  0
  1 28  1  0
  1 29  1  0
  1 30  1  0
  2 31  1  0
  2 32  1  0
  4 33  1  0
  5 34  1  0
 10 35  1  0
 11 36  1  0
 12 37  1  0
 14 38  1  0
 19 39  1  0
 20 40  1  0
 23 41  1  0
 23 42  1  0
 24 43  1  0
 24 44  1  0
 25 45  1  0
 25 46  1  0
 26 47  1  0
 26 48  1  0
 27 49  1  0
 27 50  1  0
M  END
>  <meeko>  (8) 
{"is_sidechain": [false], "free_energy": -7.325, "intermolecular_energy": -9.226, "internal_energy": -0.304}

$$$$
cand_020_out
     RDKit          3D

 50 53  0  0  0  0  0  0  0  0999 V2000
  171.9950   24.2650   49.2920 C   0  0  0  0  0  0  0  0  0  0  0  0
  172.5900   23.3370   50.3400 C   0  0  0  0  0  0  0  0  0  0  0  0
  174.0360   23.0030   50.0470 C   0  0  0  0  0  0  0  0  0  0  0  0
  174.3370   22.2200   48.9220 C   0  0  0  0  0  0  0  0  0  0  0  0
  175.6550   21.8710   48.6240 C   0  0  0  0  0  0  0  0  0  0  0  0
  176.7060   22.2910   49.4470 C   0  0  0  0  0  0  0  0  0  0  0  0
  178.0990   21.9370   49.0990 C   0  0  0  0  0  0  0  0  0  0  0  0
  178.2370   21.5310   47.7760 O   0  0  0  0  0  0  0  0  0  0  0  0
  179.4790   21.1730   47.3200 C   0  0  0  0  0  0  0  0  0  0  0  0
  179.5750   20.7870   45.9820 C   0  0  0  0  0  0  0  0  0  0  0  0
  180.8110   20.4080   45.4530 C   0  0  0  0  0  0  0  0  0  0  0  0
  181.9510   20.4160   46.2600 C   0  0  0  0  0  0  0  0  0  0  0  0
  181.8520   20.8020   47.5940 C   0  0  0  0  0  0  0  0  0  0  0  0
  183.0060   20.7860   48.3280 O   0  0  0  0  0  0  0  0  0  0  0  0
  180.6150   21.1810   48.1230 C   0  0  0  0  0  0  0  0  0  0  0  0
  180.4680   21.5930   49.5200 C   0  0  0  0  0  0  0  0  0  0  0  0
  181.4220   21.6200   50.2940 O   0  0  0  0  0  0  0  0  0  0  0  0
  179.1150   21.9850   49.9800 C   0  0  0  0  0  0  0  0  0  0  0  0
  178.9870   22.3600   51.3040 O   0  0  0  0  0  0  0  0  0  0  0  0
  176.4030   23.0760   50.5700 C   0  0  0  0  0  0  0  0  0  0  0  0
  175.0800   23.4310   50.8930 C   0  0  0  0  0  0  0  0  0  0  0  0
  174.7740   24.2140   52.0300 N   0  0  0  0  0  0  0  0  0  0  0  0
  175.4040   23.7160   53.2630 C   0  0  0  0  0  0  0  0  0  0  0  0
  174.8210   24.4720   54.4570 C   0  0  0  0  0  0  0  0  0  0  0  0
  174.9920   25.9820   54.2880 C   0  0  0  0  0  0  0  0  0  0  0  0
  174.4230   26.4500   52.9490 C   0  0  0  0  0  0  0  0  0  0  0  0
  175.0060   25.6460   51.7850 C   0  0  0  0  0  0  0  0  0  0  0  0
  171.4659   25.0902   49.7910 H   0  0  0  0  0  0  0  0  0  0  0  0
  172.8005   24.6727   48.6635 H   0  0  0  0  0  0  0  0  0  0  0  0
  171.2883   23.7032   48.6635 H   0  0  0  0  0  0  0  0  0  0  0  0
  172.5311   23.8274   51.3229 H   0  0  0  0  0  0  0  0  0  0  0  0
  172.0158   22.3988   50.3278 H   0  0  0  0  0  0  0  0  0  0  0  0
  173.5232   21.8767   48.2663 H   0  0  0  0  0  0  0  0  0  0  0  0
  175.8696   21.2605   47.7345 H   0  0  0  0  0  0  0  0  0  0  0  0
  178.6783   20.7813   45.3449 H   0  0  0  0  0  0  0  0  0  0  0  0
  180.8867   20.1027   44.3989 H   0  0  0  0  0  0  0  0  0  0  0  0
  182.9242   20.1182   45.8428 H   0  0  0  0  0  0  0  0  0  0  0  0
  183.8270   20.6220   47.9070 H   0  0  0  0  0  0  0  0  0  0  0  0
  179.6190   22.9330   51.6930 H   0  0  0  0  0  0  0  0  0  0  0  0
  177.2226   23.4237   51.2160 H   0  0  0  0  0  0  0  0  0  0  0  0
  175.2018   22.6403   53.3725 H   0  0  0  0  0  0  0  0  0  0  0  0
  176.4915   23.8747   53.2163 H   0  0  0  0  0  0  0  0  0  0  0  0
  173.7493   24.2389   54.5415 H   0  0  0  0  0  0  0  0  0  0  0  0
  175.3571   24.1587   55.3650 H   0  0  0  0  0  0  0  0  0  0  0  0
  174.4637   26.4976   55.1035 H   0  0  0  0  0  0  0  0  0  0  0  0
  176.0659   26.2188   54.3150 H   0  0  0  0  0  0  0  0  0  0  0  0
  173.3304   26.3233   52.9602 H   0  0  0  0  0  0  0  0  0  0  0  0
  174.6910   27.5076   52.8088 H   0  0  0  0  0  0  0  0  0  0  0  0
  174.5142   25.9444   50.8474 H   0  0  0  0  0  0  0  0  0  0  0  0
  176.0857   25.8394   51.7029 H   0  0  0  0  0  0  0  0  0  0  0  0
  1  2  1  0
  2  3  1  0
  3  4  2  0
  4  5  1  0
  5  6  2  0
  6  7  1  0
  7  8  1  0
  8  9  1  0
  9 10  2  0
 10 11  1  0
 11 12  2  0
 12 13  1  0
 13 14  1  0
 13 15  2  0
 15 16  1  0
 16 17  2  0
 16 18  1  0
 18 19  1  0
  6 20  1  0
 20 21  2  0
 21 22  1  0
 22 23  1  0
 23 24  1  0
 24 25  1  0
 25 26  1  0
 26 27  1  0
 21  3  1  0
 27 22  1  0
 18  7  2  0
 15  9  1  0
  1 28  1  0
  1 29  1  0
  1 30  1  0
  2 31  1  0
  2 32  1  0
  4 33  1  0
  5 34  1  0
 10 35  1  0
 11 36  1  0
 12 37  1  0
 14 38  1  0
 19 39  1  0
 20 40  1  0
 23 41  1  0
 23 42  1  0
 24 43  1  0
 24 44  1  0
 25 45  1  0
 25 46  1  0
 26 47  1  0
 26 48  1  0
 27 49  1  0
 27 50  1  0
M  END
>  <meeko>  (9) 
{"is_sidechain": [false], "free_energy": -7.324, "intermolecular_energy": -9.17, "internal_energy": -0.36}

$$$$
