cand_013_out
     RDKit          3D

 50 53  0  0  0  0  0  0  0  0999 V2000
  175.0390   25.0980   51.6190 C   0  0  0  0  0  0  0  0  0  0  0  0
  176.0240   24.3150   50.8750 N   0  0  0  0  0  0  0  0  0  0  0  0
  175.9660   22.8900   51.2790 C   0  0  0  0  0  0  0  0  0  0  0  0
  176.9530   22.0070   50.4780 C   0  0  0  0  0  0  0  0  0  0  0  0
  176.6870   22.1440   49.0270 N   0  0  0  0  0  0  0  0  0  0  0  0
  177.4530   21.2690   48.2380 C   0  0  0  0  0  0  0  0  0  0  0  0
  178.8490   21.3800   48.1440 C   0  0  0  0  0  0  0  0  0  0  0  0
  179.5960   20.4980   47.3600 C   0  0  0  0  0  0  0  0  0  0  0  0
  178.9710   19.4700   46.6490 C   0  0  0  0  0  0  0  0  0  0  0  0
  179.7330   18.5390   45.7910 C   0  0  0  0  0  0  0  0  0  0  0  0
  179.2240   17.2450   45.8120 O   0  0  0  0  0  0  0  0  0  0  0  0
  179.8410   16.2770   45.0610 C   0  0  0  0  0  0  0  0  0  0  0  0
  179.2900   14.9960   45.1040 C   0  0  0  0  0  0  0  0  0  0  0  0
  179.8700   13.9640   44.3610 C   0  0  0  0  0  0  0  0  0  0  0  0
  180.9980   14.2130   43.5780 C   0  0  0  0  0  0  0  0  0  0  0  0
  181.5450   15.4930   43.5370 C   0  0  0  0  0  0  0  0  0  0  0  0
  182.6510   15.6670   42.7510 O   0  0  0  0  0  0  0  0  0  0  0  0
  180.9650   16.5250   44.2800 C   0  0  0  0  0  0  0  0  0  0  0  0
  181.5100   17.8840   44.2660 C   0  0  0  0  0  0  0  0  0  0  0  0
  182.5040   18.1810   43.6080 O   0  0  0  0  0  0  0  0  0  0  0  0
  180.8170   18.9070   45.0830 C   0  0  0  0  0  0  0  0  0  0  0  0
  181.3480   20.1830   45.0750 O   0  0  0  0  0  0  0  0  0  0  0  0
  177.5760   19.3600   46.7350 C   0  0  0  0  0  0  0  0  0  0  0  0
  176.8100   20.2450   47.5240 C   0  0  0  0  0  0  0  0  0  0  0  0
  175.3100   20.0840   47.5880 C   0  0  0  0  0  0  0  0  0  0  0  0
  174.8700   18.9760   46.9130 F   0  0  0  0  0  0  0  0  0  0  0  0
  174.6230   21.1240   47.0320 F   0  0  0  0  0  0  0  0  0  0  0  0
  174.8280   19.9330   48.8550 F   0  0  0  0  0  0  0  0  0  0  0  0
  176.7640   23.5590   48.5910 C   0  0  0  0  0  0  0  0  0  0  0  0
  175.7780   24.4180   49.4180 C   0  0  0  0  0  0  0  0  0  0  0  0
  175.2051   24.9659   52.6983 H   0  0  0  0  0  0  0  0  0  0  0  0
  175.1442   26.1617   51.3593 H   0  0  0  0  0  0  0  0  0  0  0  0
  174.0264   24.7556   51.3593 H   0  0  0  0  0  0  0  0  0  0  0  0
  176.9490   24.6880   51.0890 H   0  0  0  0  0  0  0  0  0  0  0  0
  176.2140   22.8159   52.3481 H   0  0  0  0  0  0  0  0  0  0  0  0
  174.9487   22.5253   51.0740 H   0  0  0  0  0  0  0  0  0  0  0  0
  177.9839   22.3258   50.6917 H   0  0  0  0  0  0  0  0  0  0  0  0
  176.8207   20.9557   50.7733 H   0  0  0  0  0  0  0  0  0  0  0  0
  179.3650   22.1775   48.6988 H   0  0  0  0  0  0  0  0  0  0  0  0
  180.6883   20.6138   47.3015 H   0  0  0  0  0  0  0  0  0  0  0  0
  178.4011   14.7987   45.7212 H   0  0  0  0  0  0  0  0  0  0  0  0
  179.4365   12.9535   44.3935 H   0  0  0  0  0  0  0  0  0  0  0  0
  181.4542   13.3998   42.9944 H   0  0  0  0  0  0  0  0  0  0  0  0
  183.0250   16.5220   42.6520 H   0  0  0  0  0  0  0  0  0  0  0  0
  180.8700   20.8880   44.6860 H   0  0  0  0  0  0  0  0  0  0  0  0
  177.0654   18.5638   46.1734 H   0  0  0  0  0  0  0  0  0  0  0  0
  177.7878   23.9320   48.7414 H   0  0  0  0  0  0  0  0  0  0  0  0
  176.4975   23.6253   47.5258 H   0  0  0  0  0  0  0  0  0  0  0  0
  175.8860   25.4699   49.1150 H   0  0  0  0  0  0  0  0  0  0  0  0
  174.7621   24.0444   49.2222 H   0  0  0  0  0  0  0  0  0  0  0  0
  1  2  1  0
  2  3  1  0
  3  4  1  0
  4  5  1  0
  5  6  1  0
  6  7  2  0
  7  8  1  0
  8  9  2  0
  9 10  1  0
 10 11  1  0
 11 12  1  0
 12 13  2  0
 13 14  1  0
 14 15  2  0
 15 16  1  0
 16 17  1  0
 16 18  2  0
 18 19  1  0
 19 20  2  0
 19 21  1  0
 21 22  1  0
  9 23  1  0
 23 24  2  0
 24 25  1  0
 25 26  1  0
 25 27  1  0
 25 28  1  0
  5 29  1  0
 29 30  1  0
 30  2  1  0
 24  6  1  0
 21 10  2  0
 18 12  1  0
  1 31  1  0
  1 32  1  0
  1 33  1  0
  2 34  1  0
  3 35  1  0
  3 36  1  0
  4 37  1  0
  4 38  1  0
  7 39  1  0
  8 40  1  0
 13 41  1  0
 14 42  1  0
 15 43  1  0
 17 44  1  0
 22 45  1  0
 23 46  1  0
 29 47  1  0
 29 48  1  0
 30 49  1  0
 30 50  1  0
M  CHG  1   2   1
M  END
>  <meeko>  (1) 
{"is_sidechain": [false], "free_energy": -8.831, "intermolecular_energy": -10.896, "internal_energy": -0.343}

$$$$
cand_013_out
     RDKit          3D

 50 53  0  0  0  0  0  0  0  0999 V2000
  174.0460   24.9520   50.9770 C   0  0  0  0  0  0  0  0  0  0  0  0
  174.6010   24.0410   49.9780 N   0  0  0  0  0  0  0  0  0  0  0  0
  175.9070   24.5410   49.4880 C   0  0  0  0  0  0  0  0  0  0  0  0
  176.5640   23.5810   48.4680 C   0  0  0  0  0  0  0  0  0  0  0  0
  176.7190   22.2350   49.0690 N   0  0  0  0  0  0  0  0  0  0  0  0
  177.4310   21.3420   48.2520 C   0  0  0  0  0  0  0  0  0  0  0  0
  176.8140   20.6310   47.2120 C   0  0  0  0  0  0  0  0  0  0  0  0
  177.5390   19.7500   46.4050 C   0  0  0  0  0  0  0  0  0  0  0  0
  178.9080   19.5580   46.6080 C   0  0  0  0  0  0  0  0  0  0  0  0
  179.6940   18.6130   45.7880 C   0  0  0  0  0  0  0  0  0  0  0  0
  179.1950   17.3160   45.8310 O   0  0  0  0  0  0  0  0  0  0  0  0
  179.8340   16.3350   45.1160 C   0  0  0  0  0  0  0  0  0  0  0  0
  179.2920   15.0510   45.1790 C   0  0  0  0  0  0  0  0  0  0  0  0
  179.8940   14.0060   44.4740 C   0  0  0  0  0  0  0  0  0  0  0  0
  181.0360   14.2450   43.7080 C   0  0  0  0  0  0  0  0  0  0  0  0
  181.5740   15.5280   43.6460 C   0  0  0  0  0  0  0  0  0  0  0  0
  182.6940   15.6920   42.8770 O   0  0  0  0  0  0  0  0  0  0  0  0
  180.9720   16.5730   44.3520 C   0  0  0  0  0  0  0  0  0  0  0  0
  181.5060   17.9350   44.3150 C   0  0  0  0  0  0  0  0  0  0  0  0
  182.5110   18.2240   43.6690 O   0  0  0  0  0  0  0  0  0  0  0  0
  180.7890   18.9730   45.0920 C   0  0  0  0  0  0  0  0  0  0  0  0
  181.3110   20.2520   45.0640 O   0  0  0  0  0  0  0  0  0  0  0  0
  179.5270   20.2610   47.6520 C   0  0  0  0  0  0  0  0  0  0  0  0
  178.8050   21.1540   48.4740 C   0  0  0  0  0  0  0  0  0  0  0  0
  179.5170   21.8920   49.5810 C   0  0  0  0  0  0  0  0  0  0  0  0
  180.7840   21.4210   49.8000 F   0  0  0  0  0  0  0  0  0  0  0  0
  178.8960   21.7930   50.7930 F   0  0  0  0  0  0  0  0  0  0  0  0
  179.6790   23.2250   49.3370 F   0  0  0  0  0  0  0  0  0  0  0  0
  175.4200   21.7010   49.5450 C   0  0  0  0  0  0  0  0  0  0  0  0
  174.7830   22.6870   50.5510 C   0  0  0  0  0  0  0  0  0  0  0  0
  174.2756   24.5751   51.9846 H   0  0  0  0  0  0  0  0  0  0  0  0
  174.4894   25.9505   50.8492 H   0  0  0  0  0  0  0  0  0  0  0  0
  172.9553   25.0160   50.8492 H   0  0  0  0  0  0  0  0  0  0  0  0
  173.9450   23.9920   49.1980 H   0  0  0  0  0  0  0  0  0  0  0  0
  175.7523   25.5170   49.0048 H   0  0  0  0  0  0  0  0  0  0  0  0
  176.5806   24.6207   50.3539 H   0  0  0  0  0  0  0  0  0  0  0  0
  175.9288   23.5097   47.5728 H   0  0  0  0  0  0  0  0  0  0  0  0
  177.5549   23.9701   48.1910 H   0  0  0  0  0  0  0  0  0  0  0  0
  175.7384   20.7696   47.0281 H   0  0  0  0  0  0  0  0  0  0  0  0
  177.0262   19.2016   45.6011 H   0  0  0  0  0  0  0  0  0  0  0  0
  178.3922   14.8618   45.7828 H   0  0  0  0  0  0  0  0  0  0  0  0
  179.4674   12.9933   44.5226 H   0  0  0  0  0  0  0  0  0  0  0  0
  181.5103   13.4214   43.1542 H   0  0  0  0  0  0  0  0  0  0  0  0
  183.3930   15.0690   42.9290 H   0  0  0  0  0  0  0  0  0  0  0  0
  181.4090   20.7010   44.2470 H   0  0  0  0  0  0  0  0  0  0  0  0
  180.6015   20.1131   47.8351 H   0  0  0  0  0  0  0  0  0  0  0  0
  174.7442   21.5674   48.6874 H   0  0  0  0  0  0  0  0  0  0  0  0
  175.5860   20.7336   50.0416 H   0  0  0  0  0  0  0  0  0  0  0  0
  173.8002   22.2967   50.8538 H   0  0  0  0  0  0  0  0  0  0  0  0
  175.4642   22.7757   51.4102 H   0  0  0  0  0  0  0  0  0  0  0  0
  1  2  1  0
  2  3  1  0
  3  4  1  0
  4  5  1  0
  5  6  1  0
  6  7  2  0
  7  8  1  0
  8  9  2  0
  9 10  1  0
 10 11  1  0
 11 12  1  0
 12 13  2  0
 13 14  1  0
 14 15  2  0
 15 16  1  0
 16 17  1  0
 16 18  2  0
 18 19  1  0
 19 20  2  0
 19 21  1  0
 21 22  1  0
  9 23  1  0
 23 24  2  0
 24 25  1  0
 25 26  1  0
 25 27  1  0
 25 28  1  0
  5 29  1  0
 29 30  1  0
 30  2  1  0
 24  6  1  0
 21 10  2  0
 18 12  1  0
  1 31  1  0
  1 32  1  0
  1 33  1  0
  2 34  1  0
  3 35  1  0
  3 36  1  0
  4 37  1  0
  4 38  1  0
  7 39  1  0
  8 40  1  0
 13 41  1  0
 14 42  1  0
 15 43  1  0
 17 44  1  0
 22 45  1  0
 23 46  1  0
 29 47  1  0
 29 48  1  0
 30 49  1  0
 30 50  1  0
M  CHG  1   2   1
M  END
>  <meeko>  (2) 
{"is_sidechain": [false], "free_energy": -8.168, "intermolecular_energy": -9.944, "internal_energy": -0.477}

$$$$
cand_013_out
     RDKit          3D

 50 53  0  0  0  0  0  0  0  0999 V2000
  170.6460   27.4270   54.9140 C   0  0  0  0  0  0  0  0  0  0  0  0
  171.6700   26.5760   54.3130 N   0  0  0  0  0  0  0  0  0  0  0  0
  171.0910   25.2730   53.9080 C   0  0  0  0  0  0  0  0  0  0  0  0
  172.1260   24.3560   53.2140 C   0  0  0  0  0  0  0  0  0  0  0  0
  172.7070   25.0500   52.0410 N   0  0  0  0  0  0  0  0  0  0  0  0
  173.5560   24.2310   51.2780 C   0  0  0  0  0  0  0  0  0  0  0  0
  174.7080   23.6410   51.8210 C   0  0  0  0  0  0  0  0  0  0  0  0
  175.5390   22.8250   51.0490 C   0  0  0  0  0  0  0  0  0  0  0  0
  175.2390   22.5660   49.7090 C   0  0  0  0  0  0  0  0  0  0  0  0
  176.1140   21.7290   48.8610 C   0  0  0  0  0  0  0  0  0  0  0  0
  177.3840   22.2710   48.6950 O   0  0  0  0  0  0  0  0  0  0  0  0
  178.2970   21.5960   47.9260 C   0  0  0  0  0  0  0  0  0  0  0  0
  179.5620   22.1700   47.7960 C   0  0  0  0  0  0  0  0  0  0  0  0
  180.5400   21.5340   47.0260 C   0  0  0  0  0  0  0  0  0  0  0  0
  180.2520   20.3260   46.3880 C   0  0  0  0  0  0  0  0  0  0  0  0
  178.9890   19.7550   46.5210 C   0  0  0  0  0  0  0  0  0  0  0  0
  178.7750   18.5720   45.8690 O   0  0  0  0  0  0  0  0  0  0  0  0
  178.0120   20.3920   47.2900 C   0  0  0  0  0  0  0  0  0  0  0  0
  176.6720   19.8260   47.4540 C   0  0  0  0  0  0  0  0  0  0  0  0
  176.3400   18.7710   46.9200 O   0  0  0  0  0  0  0  0  0  0  0  0
  175.7100   20.5750   48.2960 C   0  0  0  0  0  0  0  0  0  0  0  0
  174.4430   20.0410   48.4310 O   0  0  0  0  0  0  0  0  0  0  0  0
  174.0940   23.1600   49.1600 C   0  0  0  0  0  0  0  0  0  0  0  0
  173.2470   23.9860   49.9290 C   0  0  0  0  0  0  0  0  0  0  0  0
  172.0220   24.5990   49.2950 C   0  0  0  0  0  0  0  0  0  0  0  0
  171.8010   24.1400   48.0240 F   0  0  0  0  0  0  0  0  0  0  0  0
  172.0920   25.9560   49.1670 F   0  0  0  0  0  0  0  0  0  0  0  0
  170.8640   24.3320   49.9670 F   0  0  0  0  0  0  0  0  0  0  0  0
  173.3160   26.3460   52.4230 C   0  0  0  0  0  0  0  0  0  0  0  0
  172.2630   27.2350   53.1260 C   0  0  0  0  0  0  0  0  0  0  0  0
  170.7171   27.3679   56.0101 H   0  0  0  0  0  0  0  0  0  0  0  0
  170.7989   28.4677   54.5922 H   0  0  0  0  0  0  0  0  0  0  0  0
  169.6508   27.0862   54.5922 H   0  0  0  0  0  0  0  0  0  0  0  0
  172.3980   26.4190   55.0110 H   0  0  0  0  0  0  0  0  0  0  0  0
  170.7114   24.7614   54.8048 H   0  0  0  0  0  0  0  0  0  0  0  0
  170.2854   25.4745   53.1866 H   0  0  0  0  0  0  0  0  0  0  0  0
  172.9278   24.1073   53.9249 H   0  0  0  0  0  0  0  0  0  0  0  0
  171.6271   23.4345   52.8795 H   0  0  0  0  0  0  0  0  0  0  0  0
  174.9617   23.8247   52.8755 H   0  0  0  0  0  0  0  0  0  0  0  0
  176.4387   22.3819   51.5008 H   0  0  0  0  0  0  0  0  0  0  0  0
  179.7894   23.1216   48.2987 H   0  0  0  0  0  0  0  0  0  0  0  0
  181.5376   21.9857   46.9226 H   0  0  0  0  0  0  0  0  0  0  0  0
  181.0215   19.8262   45.7813 H   0  0  0  0  0  0  0  0  0  0  0  0
  178.7810   18.5460   44.9310 H   0  0  0  0  0  0  0  0  0  0  0  0
  174.2310   19.5220   49.1820 H   0  0  0  0  0  0  0  0  0  0  0  0
  173.8497   22.9776   48.1031 H   0  0  0  0  0  0  0  0  0  0  0  0
  174.1574   26.1659   53.1083 H   0  0  0  0  0  0  0  0  0  0  0  0
  173.6765   26.8577   51.5184 H   0  0  0  0  0  0  0  0  0  0  0  0
  172.7465   28.1699   53.4456 H   0  0  0  0  0  0  0  0  0  0  0  0
  171.4519   27.4260   52.4080 H   0  0  0  0  0  0  0  0  0  0  0  0
  1  2  1  0
  2  3  1  0
  3  4  1  0
  4  5  1  0
  5  6  1  0
  6  7  2  0
  7  8  1  0
  8  9  2  0
  9 10  1  0
 10 11  1  0
 11 12  1  0
 12 13  2  0
 13 14  1  0
 14 15  2  0
 15 16  1  0
 16 17  1  0
 16 18  2  0
 18 19  1  0
 19 20  2  0
 19 21  1  0
 21 22  1  0
  9 23  1  0
 23 24  2  0
 24 25  1  0
 25 26  1  0
 25 27  1  0
 25 28  1  0
  5 29  1  0
 29 30  1  0
 30  2  1  0
 24  6  1  0
 21 10  2  0
 18 12  1  0
  1 31  1  0
  1 32  1  0
  1 33  1  0
  2 34  1  0
  3 35  1  0
  3 36  1  0
  4 37  1  0
  4 38  1  0
  7 39  1  0
  8 40  1  0
 13 41  1  0
 14 42  1  0
 15 43  1  0
 17 44  1  0
 22 45  1  0
 23 46  1  0
 29 47  1  0
 29 48  1  0
 30 49  1  0
 30 50  1  0
M  CHG  1   2   1
M  END
>  <meeko>  (3) 
{"is_sidechain": [false], "free_energy": -7.73, "intermolecular_energy": -9.263, "internal_energy": -0.617}

$$$$
cand_013_out
     RDKit          3D

 50 53  0  0  0  0  0  0  0  0999 V2000
  187.6750   27.4150   47.4560 C   0  0  0  0  0  0  0  0  0  0  0  0
  186.3000   26.9210   47.4880 N   0  0  0  0  0  0  0  0  0  0  0  0
  186.2320   25.5370   46.9630 C   0  0  0  0  0  0  0  0  0  0  0  0
  184.8040   24.9480   47.0280 C   0  0  0  0  0  0  0  0  0  0  0  0
  184.3030   24.9960   48.4220 N   0  0  0  0  0  0  0  0  0  0  0  0
  183.0640   24.3550   48.5880 C   0  0  0  0  0  0  0  0  0  0  0  0
  181.9090   24.7820   47.9150 C   0  0  0  0  0  0  0  0  0  0  0  0
  180.6850   24.1290   48.0880 C   0  0  0  0  0  0  0  0  0  0  0  0
  180.5800   23.0220   48.9340 C   0  0  0  0  0  0  0  0  0  0  0  0
  179.2940   22.3290   49.1560 C   0  0  0  0  0  0  0  0  0  0  0  0
  178.8390   21.6580   48.0260 O   0  0  0  0  0  0  0  0  0  0  0  0
  177.6520   20.9740   48.0920 C   0  0  0  0  0  0  0  0  0  0  0  0
  177.2410   20.3060   46.9380 C   0  0  0  0  0  0  0  0  0  0  0  0
  176.0410   19.5900   46.9390 C   0  0  0  0  0  0  0  0  0  0  0  0
  175.2540   19.5440   48.0910 C   0  0  0  0  0  0  0  0  0  0  0  0
  175.6680   20.2110   49.2410 C   0  0  0  0  0  0  0  0  0  0  0  0
  174.8480   20.1250   50.3330 O   0  0  0  0  0  0  0  0  0  0  0  0
  176.8680   20.9270   49.2400 C   0  0  0  0  0  0  0  0  0  0  0  0
  177.3380   21.6430   50.4270 C   0  0  0  0  0  0  0  0  0  0  0  0
  176.6990   21.6550   51.4760 O   0  0  0  0  0  0  0  0  0  0  0  0
  178.6270   22.3660   50.3250 C   0  0  0  0  0  0  0  0  0  0  0  0
  179.0540   23.0520   51.4460 O   0  0  0  0  0  0  0  0  0  0  0  0
  181.7300   22.5970   49.6140 C   0  0  0  0  0  0  0  0  0  0  0  0
  182.9720   23.2480   49.4490 C   0  0  0  0  0  0  0  0  0  0  0  0
  184.1830   22.7510   50.1980 C   0  0  0  0  0  0  0  0  0  0  0  0
  183.8770   21.7700   51.1030 F   0  0  0  0  0  0  0  0  0  0  0  0
  184.8080   23.7170   50.9340 F   0  0  0  0  0  0  0  0  0  0  0  0
  185.1370   22.1970   49.3950 F   0  0  0  0  0  0  0  0  0  0  0  0
  184.3360   26.3760   48.9650 C   0  0  0  0  0  0  0  0  0  0  0  0
  185.7720   26.9420   48.8730 C   0  0  0  0  0  0  0  0  0  0  0  0
  188.0414   27.5466   48.4848 H   0  0  0  0  0  0  0  0  0  0  0  0
  188.3130   26.6899   46.9296 H   0  0  0  0  0  0  0  0  0  0  0  0
  187.7056   28.3804   46.9296 H   0  0  0  0  0  0  0  0  0  0  0  0
  185.7330   27.5330   46.9010 H   0  0  0  0  0  0  0  0  0  0  0  0
  186.5645   25.5408   45.9145 H   0  0  0  0  0  0  0  0  0  0  0  0
  186.8811   24.9092   47.5912 H   0  0  0  0  0  0  0  0  0  0  0  0
  184.1370   25.5355   46.3800 H   0  0  0  0  0  0  0  0  0  0  0  0
  184.8269   23.9026   46.6866 H   0  0  0  0  0  0  0  0  0  0  0  0
  181.9678   25.6472   47.2383 H   0  0  0  0  0  0  0  0  0  0  0  0
  179.7949   24.4907   47.5523 H   0  0  0  0  0  0  0  0  0  0  0  0
  177.8602   20.3429   46.0296 H   0  0  0  0  0  0  0  0  0  0  0  0
  175.7160   19.0618   46.0305 H   0  0  0  0  0  0  0  0  0  0  0  0
  174.3085   18.9818   48.0903 H   0  0  0  0  0  0  0  0  0  0  0  0
  174.8290   19.3380   50.8430 H   0  0  0  0  0  0  0  0  0  0  0  0
  179.7390   22.6990   51.9790 H   0  0  0  0  0  0  0  0  0  0  0  0
  181.6630   21.7344   50.2933 H   0  0  0  0  0  0  0  0  0  0  0  0
  183.6544   27.0136   48.3830 H   0  0  0  0  0  0  0  0  0  0  0  0
  184.0196   26.3590   50.0184 H   0  0  0  0  0  0  0  0  0  0  0  0
  185.7658   27.9814   49.2330 H   0  0  0  0  0  0  0  0  0  0  0  0
  186.4235   26.3057   49.4900 H   0  0  0  0  0  0  0  0  0  0  0  0
  1  2  1  0
  2  3  1  0
  3  4  1  0
  4  5  1  0
  5  6  1  0
  6  7  2  0
  7  8  1  0
  8  9  2  0
  9 10  1  0
 10 11  1  0
 11 12  1  0
 12 13  2  0
 13 14  1  0
 14 15  2  0
 15 16  1  0
 16 17  1  0
 16 18  2  0
 18 19  1  0
 19 20  2  0
 19 21  1  0
 21 22  1  0
  9 23  1  0
 23 24  2  0
 24 25  1  0
 25 26  1  0
 25 27  1  0
 25 28  1  0
  5 29  1  0
 29 30  1  0
 30  2  1  0
 24  6  1  0
 21 10  2  0
 18 12  1  0
  1 31  1  0
  1 32  1  0
  1 33  1  0
  2 34  1  0
  3 35  1  0
  3 36  1  0
  4 37  1  0
  4 38  1  0
  7 39  1  0
  8 40  1  0
 13 41  1  0
 14 42  1  0
 15 43  1  0
 17 44  1  0
 22 45  1  0
 23 46  1  0
 29 47  1  0
 29 48  1  0
 30 49  1  0
 30 50  1  0
M  CHG  1   2   1
M  END
>  <meeko>  (4) 
{"is_sidechain": [false], "free_energy": -7.546, "intermolecular_energy": -9.0, "internal_energy": -0.653}

$$$$
cand_013_out
     RDKit          3D

 50 53  0  0  0  0  0  0  0  0999 V2000
  169.9300   27.4740   53.8430 C   0  0  0  0  0  0  0  0  0  0  0  0
  170.6240   26.7000   52.8170 N   0  0  0  0  0  0  0  0  0  0  0  0
  172.0220   27.1690   52.6690 C   0  0  0  0  0  0  0  0  0  0  0  0
  172.8180   26.3420   51.6310 C   0  0  0  0  0  0  0  0  0  0  0  0
  172.7910   24.9070   52.0030 N   0  0  0  0  0  0  0  0  0  0  0  0
  173.6050   24.1070   51.1840 C   0  0  0  0  0  0  0  0  0  0  0  0
  173.2590   23.8040   49.8590 C   0  0  0  0  0  0  0  0  0  0  0  0
  174.0830   23.0110   49.0560 C   0  0  0  0  0  0  0  0  0  0  0  0
  175.2870   22.5020   49.5530 C   0  0  0  0  0  0  0  0  0  0  0  0
  176.1650   21.6390   48.7350 C   0  0  0  0  0  0  0  0  0  0  0  0
  177.4500   22.1510   48.5990 O   0  0  0  0  0  0  0  0  0  0  0  0
  178.3690   21.4500   47.8600 C   0  0  0  0  0  0  0  0  0  0  0  0
  179.6490   21.9960   47.7590 C   0  0  0  0  0  0  0  0  0  0  0  0
  180.6320   21.3320   47.0210 C   0  0  0  0  0  0  0  0  0  0  0  0
  180.3350   20.1260   46.3840 C   0  0  0  0  0  0  0  0  0  0  0  0
  179.0570   19.5840   46.4870 C   0  0  0  0  0  0  0  0  0  0  0  0
  178.8330   18.4000   45.8390 O   0  0  0  0  0  0  0  0  0  0  0  0
  178.0730   20.2480   47.2260 C   0  0  0  0  0  0  0  0  0  0  0  0
  176.7170   19.7130   47.3580 C   0  0  0  0  0  0  0  0  0  0  0  0
  176.3760   18.6610   46.8220 O   0  0  0  0  0  0  0  0  0  0  0  0
  175.7510   20.4900   48.1680 C   0  0  0  0  0  0  0  0  0  0  0  0
  174.4690   19.9850   48.2730 O   0  0  0  0  0  0  0  0  0  0  0  0
  175.6320   22.7960   50.8790 C   0  0  0  0  0  0  0  0  0  0  0  0
  174.8080   23.5960   51.7000 C   0  0  0  0  0  0  0  0  0  0  0  0
  175.2260   23.8900   53.1200 C   0  0  0  0  0  0  0  0  0  0  0  0
  176.2770   23.1140   53.5310 F   0  0  0  0  0  0  0  0  0  0  0  0
  174.2440   23.6580   54.0400 F   0  0  0  0  0  0  0  0  0  0  0  0
  175.6450   25.1740   53.3150 F   0  0  0  0  0  0  0  0  0  0  0  0
  171.4020   24.4050   52.1340 C   0  0  0  0  0  0  0  0  0  0  0  0
  170.6290   25.2600   53.1660 C   0  0  0  0  0  0  0  0  0  0  0  0
  170.2421   27.1259   54.8387 H   0  0  0  0  0  0  0  0  0  0  0  0
  170.1813   28.5391   53.7315 H   0  0  0  0  0  0  0  0  0  0  0  0
  168.8439   27.3399   53.7315 H   0  0  0  0  0  0  0  0  0  0  0  0
  170.1290   26.8320   51.9350 H   0  0  0  0  0  0  0  0  0  0  0  0
  172.0090   28.2207   52.3470 H   0  0  0  0  0  0  0  0  0  0  0  0
  172.5192   27.0503   53.6430 H   0  0  0  0  0  0  0  0  0  0  0  0
  172.3644   26.4700   50.6371 H   0  0  0  0  0  0  0  0  0  0  0  0
  173.8607   26.6919   51.6111 H   0  0  0  0  0  0  0  0  0  0  0  0
  172.3200   24.1986   49.4435 H   0  0  0  0  0  0  0  0  0  0  0  0
  173.7816   22.7848   48.0226 H   0  0  0  0  0  0  0  0  0  0  0  0
  179.8836   22.9471   48.2593 H   0  0  0  0  0  0  0  0  0  0  0  0
  181.6420   21.7604   46.9418 H   0  0  0  0  0  0  0  0  0  0  0  0
  181.1093   19.6050   45.8018 H   0  0  0  0  0  0  0  0  0  0  0  0
  179.5450   17.8100   45.6810 H   0  0  0  0  0  0  0  0  0  0  0  0
  174.0550   19.5970   47.5280 H   0  0  0  0  0  0  0  0  0  0  0  0
  176.5690   22.3930   51.2908 H   0  0  0  0  0  0  0  0  0  0  0  0
  170.8981   24.4670   51.1582 H   0  0  0  0  0  0  0  0  0  0  0  0
  171.4251   23.3592   52.4744 H   0  0  0  0  0  0  0  0  0  0  0  0
  169.5892   24.9040   53.2114 H   0  0  0  0  0  0  0  0  0  0  0  0
  171.1351   25.1522   54.1367 H   0  0  0  0  0  0  0  0  0  0  0  0
  1  2  1  0
  2  3  1  0
  3  4  1  0
  4  5  1  0
  5  6  1  0
  6  7  2  0
  7  8  1  0
  8  9  2  0
  9 10  1  0
 10 11  1  0
 11 12  1  0
 12 13  2  0
 13 14  1  0
 14 15  2  0
 15 16  1  0
 16 17  1  0
 16 18  2  0
 18 19  1  0
 19 20  2  0
 19 21  1  0
 21 22  1  0
  9 23  1  0
 23 24  2  0
 24 25  1  0
 25 26  1  0
 25 27  1  0
 25 28  1  0
  5 29  1  0
 29 30  1  0
 30  2  1  0
 24  6  1  0
 21 10  2  0
 18 12  1  0
  1 31  1  0
  1 32  1  0
  1 33  1  0
  2 34  1  0
  3 35  1  0
  3 36  1  0
  4 37  1  0
  4 38  1  0
  7 39  1  0
  8 40  1  0
 13 41  1  0
 14 42  1  0
 15 43  1  0
 17 44  1  0
 22 45  1  0
 23 46  1  0
 29 47  1  0
 29 48  1  0
 30 49  1  0
 30 50  1  0
M  CHG  1   2   1
M  END
>  <meeko>  (5) 
{"is_sidechain": [false], "free_energy": -7.523, "intermolecular_energy": -9.078, "internal_energy": -0.548}

$$$$
cand_013_out
     RDKit          3D

 50 53  0  0  0  0  0  0  0  0999 V2000
  172.2170   26.0320   55.0840 C   0  0  0  0  0  0  0  0  0  0  0  0
  173.4480   25.7110   54.3670 N   0  0  0  0  0  0  0  0  0  0  0  0
  173.7040   24.2520   54.4000 C   0  0  0  0  0  0  0  0  0  0  0  0
  174.9690   23.8530   53.6040 C   0  0  0  0  0  0  0  0  0  0  0  0
  174.8530   24.3260   52.2040 N   0  0  0  0  0  0  0  0  0  0  0  0
  175.9040   23.8850   51.3820 C   0  0  0  0  0  0  0  0  0  0  0  0
  177.2470   23.9780   51.7760 C   0  0  0  0  0  0  0  0  0  0  0  0
  178.2800   23.5300   50.9480 C   0  0  0  0  0  0  0  0  0  0  0  0
  178.0000   22.9650   49.7010 C   0  0  0  0  0  0  0  0  0  0  0  0
  179.0720   22.5070   48.7930 C   0  0  0  0  0  0  0  0  0  0  0  0
  178.7600   21.3170   48.1450 O   0  0  0  0  0  0  0  0  0  0  0  0
  179.6720   20.7770   47.2750 C   0  0  0  0  0  0  0  0  0  0  0  0
  179.3120   19.5890   46.6380 C   0  0  0  0  0  0  0  0  0  0  0  0
  180.1960   18.9860   45.7390 C   0  0  0  0  0  0  0  0  0  0  0  0
  181.4360   19.5700   45.4780 C   0  0  0  0  0  0  0  0  0  0  0  0
  181.7920   20.7560   46.1150 C   0  0  0  0  0  0  0  0  0  0  0  0
  183.0230   21.2730   45.8140 O   0  0  0  0  0  0  0  0  0  0  0  0
  180.9090   21.3590   47.0140 C   0  0  0  0  0  0  0  0  0  0  0  0
  181.2450   22.6050   47.7050 C   0  0  0  0  0  0  0  0  0  0  0  0
  182.3180   23.1760   47.5340 O   0  0  0  0  0  0  0  0  0  0  0  0
  180.2350   23.1660   48.6330 C   0  0  0  0  0  0  0  0  0  0  0  0
  180.5690   24.3340   49.2930 O   0  0  0  0  0  0  0  0  0  0  0  0
  176.6590   22.8770   49.3000 C   0  0  0  0  0  0  0  0  0  0  0  0
  175.6070   23.3270   50.1270 C   0  0  0  0  0  0  0  0  0  0  0  0
  174.1790   23.2060   49.6550 C   0  0  0  0  0  0  0  0  0  0  0  0
  174.0470   22.3570   48.5880 F   0  0  0  0  0  0  0  0  0  0  0  0
  173.6410   24.3860   49.2270 F   0  0  0  0  0  0  0  0  0  0  0  0
  173.3280   22.7110   50.5990 F   0  0  0  0  0  0  0  0  0  0  0  0
  174.6220   25.7890   52.1410 C   0  0  0  0  0  0  0  0  0  0  0  0
  173.3600   26.1570   52.9560 C   0  0  0  0  0  0  0  0  0  0  0  0
  172.4006   25.9841   56.1675 H   0  0  0  0  0  0  0  0  0  0  0  0
  171.8882   27.0459   54.8123 H   0  0  0  0  0  0  0  0  0  0  0  0
  171.4349   25.3078   54.8123 H   0  0  0  0  0  0  0  0  0  0  0  0
  174.2170   26.1990   54.8280 H   0  0  0  0  0  0  0  0  0  0  0  0
  173.8334   23.9404   55.4470 H   0  0  0  0  0  0  0  0  0  0  0  0
  172.8435   23.7516   53.9318 H   0  0  0  0  0  0  0  0  0  0  0  0
  175.8536   24.3101   54.0715 H   0  0  0  0  0  0  0  0  0  0  0  0
  175.0703   22.7577   53.6094 H   0  0  0  0  0  0  0  0  0  0  0  0
  177.4921   24.4123   52.7565 H   0  0  0  0  0  0  0  0  0  0  0  0
  179.3241   23.6231   51.2814 H   0  0  0  0  0  0  0  0  0  0  0  0
  178.3345   19.1280   46.8429 H   0  0  0  0  0  0  0  0  0  0  0  0
  179.9136   18.0492   45.2363 H   0  0  0  0  0  0  0  0  0  0  0  0
  182.1311   19.0944   44.7704 H   0  0  0  0  0  0  0  0  0  0  0  0
  183.0940   22.1450   45.4750 H   0  0  0  0  0  0  0  0  0  0  0  0
  180.2130   25.1520   49.0060 H   0  0  0  0  0  0  0  0  0  0  0  0
  176.4208   22.4464   48.3162 H   0  0  0  0  0  0  0  0  0  0  0  0
  175.4930   26.3144   52.5598 H   0  0  0  0  0  0  0  0  0  0  0  0
  174.4767   26.0884   51.0925 H   0  0  0  0  0  0  0  0  0  0  0  0
  173.2343   27.2496   52.9382 H   0  0  0  0  0  0  0  0  0  0  0  0
  172.5024   25.6448   52.4954 H   0  0  0  0  0  0  0  0  0  0  0  0
  1  2  1  0
  2  3  1  0
  3  4  1  0
  4  5  1  0
  5  6  1  0
  6  7  2  0
  7  8  1  0
  8  9  2  0
  9 10  1  0
 10 11  1  0
 11 12  1  0
 12 13  2  0
 13 14  1  0
 14 15  2  0
 15 16  1  0
 16 17  1  0
 16 18  2  0
 18 19  1  0
 19 20  2  0
 19 21  1  0
 21 22  1  0
  9 23  1  0
 23 24  2  0
 24 25  1  0
 25 26  1  0
 25 27  1  0
 25 28  1  0
  5 29  1  0
 29 30  1  0
 30  2  1  0
 24  6  1  0
 21 10  2  0
 18 12  1  0
  1 31  1  0
  1 32  1  0
  1 33  1  0
  2 34  1  0
  3 35  1  0
  3 36  1  0
  4 37  1  0
  4 38  1  0
  7 39  1  0
  8 40  1  0
 13 41  1  0
 14 42  1  0
 15 43  1  0
 17 44  1  0
 22 45  1  0
 23 46  1  0
 29 47  1  0
 29 48  1  0
 30 49  1  0
 30 50  1  0
M  CHG  1   2   1
M  END
>  <meeko>  (6) 
{"is_sidechain": [false], "free_energy": -7.403, "intermolecular_energy": -9.178, "internal_energy": -0.299}

$$$$
cand_013_out
     RDKit          3D

 50 53  0  0  0  0  0  0  0  0999 V2000
  169.9360   25.9910   52.1930 C   0  0  0  0  0  0  0  0  0  0  0  0
  170.7700   25.0710   51.4210 N   0  0  0  0  0  0  0  0  0  0  0  0
  171.5160   25.8040   50.3710 C   0  0  0  0  0  0  0  0  0  0  0  0
  172.4590   24.8820   49.5620 C   0  0  0  0  0  0  0  0  0  0  0  0
  173.3980   24.1930   50.4780 N   0  0  0  0  0  0  0  0  0  0  0  0
  174.3760   23.4410   49.8060 C   0  0  0  0  0  0  0  0  0  0  0  0
  174.0470   22.3260   49.0200 C   0  0  0  0  0  0  0  0  0  0  0  0
  175.0320   21.5920   48.3530 C   0  0  0  0  0  0  0  0  0  0  0  0
  176.3790   21.9550   48.4460 C   0  0  0  0  0  0  0  0  0  0  0  0
  177.4440   21.1810   47.7750 C   0  0  0  0  0  0  0  0  0  0  0  0
  178.6570   21.8590   47.7290 O   0  0  0  0  0  0  0  0  0  0  0  0
  179.7320   21.2550   47.1290 C   0  0  0  0  0  0  0  0  0  0  0  0
  180.9320   21.9670   47.1160 C   0  0  0  0  0  0  0  0  0  0  0  0
  182.0660   21.4090   46.5200 C   0  0  0  0  0  0  0  0  0  0  0  0
  181.9990   20.1420   45.9370 C   0  0  0  0  0  0  0  0  0  0  0  0
  180.8000   19.4350   45.9520 C   0  0  0  0  0  0  0  0  0  0  0  0
  180.8040   18.2000   45.3630 O   0  0  0  0  0  0  0  0  0  0  0  0
  179.6660   19.9930   46.5480 C   0  0  0  0  0  0  0  0  0  0  0  0
  178.3870   19.2830   46.5840 C   0  0  0  0  0  0  0  0  0  0  0  0
  178.2460   18.1680   46.0870 O   0  0  0  0  0  0  0  0  0  0  0  0
  177.2470   19.9590   47.2460 C   0  0  0  0  0  0  0  0  0  0  0  0
  176.0390   19.2870   47.2600 O   0  0  0  0  0  0  0  0  0  0  0  0
  176.7110   23.0630   49.2380 C   0  0  0  0  0  0  0  0  0  0  0  0
  175.7260   23.8130   49.9160 C   0  0  0  0  0  0  0  0  0  0  0  0
  176.1330   25.0020   50.7520 C   0  0  0  0  0  0  0  0  0  0  0  0
  175.5230   26.1610   50.3520 F   0  0  0  0  0  0  0  0  0  0  0  0
  177.4690   25.2780   50.6980 F   0  0  0  0  0  0  0  0  0  0  0  0
  175.8150   24.8800   52.0730 F   0  0  0  0  0  0  0  0  0  0  0  0
  172.6760   23.4320   51.5250 C   0  0  0  0  0  0  0  0  0  0  0  0
  171.7330   24.3760   52.3070 C   0  0  0  0  0  0  0  0  0  0  0  0
  170.0946   25.8160   53.2673 H   0  0  0  0  0  0  0  0  0  0  0  0
  170.2084   27.0278   51.9462 H   0  0  0  0  0  0  0  0  0  0  0  0
  168.8776   25.8213   51.9462 H   0  0  0  0  0  0  0  0  0  0  0  0
  170.1570   24.3840   50.9830 H   0  0  0  0  0  0  0  0  0  0  0  0
  170.7935   26.2633   49.6803 H   0  0  0  0  0  0  0  0  0  0  0  0
  172.1369   26.5628   50.8697 H   0  0  0  0  0  0  0  0  0  0  0  0
  171.8615   24.1333   49.0212 H   0  0  0  0  0  0  0  0  0  0  0  0
  173.0317   25.4888   48.8452 H   0  0  0  0  0  0  0  0  0  0  0  0
  172.9934   22.0237   48.9270 H   0  0  0  0  0  0  0  0  0  0  0  0
  174.7443   20.7193   47.7484 H   0  0  0  0  0  0  0  0  0  0  0  0
  180.9852   22.9657   47.5741 H   0  0  0  0  0  0  0  0  0  0  0  0
  183.0129   21.9687   46.5101 H   0  0  0  0  0  0  0  0  0  0  0  0
  182.8916   19.7036   45.4669 H   0  0  0  0  0  0  0  0  0  0  0  0
  180.5550   18.1090   44.4630 H   0  0  0  0  0  0  0  0  0  0  0  0
  175.3030   19.6360   46.7960 H   0  0  0  0  0  0  0  0  0  0  0  0
  177.7670   23.3557   49.3336 H   0  0  0  0  0  0  0  0  0  0  0  0
  172.0838   22.6342   51.0529 H   0  0  0  0  0  0  0  0  0  0  0  0
  173.4057   22.9919   52.2206 H   0  0  0  0  0  0  0  0  0  0  0  0
  171.1712   23.7834   53.0440 H   0  0  0  0  0  0  0  0  0  0  0  0
  172.3535   25.1419   52.7953 H   0  0  0  0  0  0  0  0  0  0  0  0
  1  2  1  0
  2  3  1  0
  3  4  1  0
  4  5  1  0
  5  6  1  0
  6  7  2  0
  7  8  1  0
  8  9  2  0
  9 10  1  0
 10 11  1  0
 11 12  1  0
 12 13  2  0
 13 14  1  0
 14 15  2  0
 15 16  1  0
 16 17  1  0
 16 18  2  0
 18 19  1  0
 19 20  2  0
 19 21  1  0
 21 22  1  0
  9 23  1  0
 23 24  2  0
 24 25  1  0
 25 26  1  0
 25 27  1  0
 25 28  1  0
  5 29  1  0
 29 30  1  0
 30  2  1  0
 24  6  1  0
 21 10  2  0
 18 12  1  0
  1 31  1  0
  1 32  1  0
  1 33  1  0
  2 34  1  0
  3 35  1  0
  3 36  1  0
  4 37  1  0
  4 38  1  0
  7 39  1  0
  8 40  1  0
 13 41  1  0
 14 42  1  0
 15 43  1  0
 17 44  1  0
 22 45  1  0
 23 46  1  0
 29 47  1  0
 29 48  1  0
 30 49  1  0
 30 50  1  0
M  CHG  1   2   1
M  END
>  <meeko>  (7) 
{"is_sidechain": [false], "free_energy": -7.325, "intermolecular_energy": -9.259, "internal_energy": -0.122}

$$$$
cand_013_out
     RDKit          3D

 50 53  0  0  0  0  0  0  0  0999 V2000
  170.7280   26.4590   54.5330 C   0  0  0  0  0  0  0  0  0  0  0  0
  172.0700   26.0750   54.1010 N   0  0  0  0  0  0  0  0  0  0  0  0
  172.2680   24.6150   54.2560 C   0  0  0  0  0  0  0  0  0  0  0  0
  173.6570   24.1490   53.7580 C   0  0  0  0  0  0  0  0  0  0  0  0
  173.8450   24.5500   52.3430 N   0  0  0  0  0  0  0  0  0  0  0  0
  175.0280   24.0450   51.7780 C   0  0  0  0  0  0  0  0  0  0  0  0
  176.2720   24.1780   52.4120 C   0  0  0  0  0  0  0  0  0  0  0  0
  177.4390   23.6650   51.8380 C   0  0  0  0  0  0  0  0  0  0  0  0
  177.3950   22.9940   50.6120 C   0  0  0  0  0  0  0  0  0  0  0  0
  178.6160   22.4660   49.9680 C   0  0  0  0  0  0  0  0  0  0  0  0
  178.3780   21.9520   48.6980 O   0  0  0  0  0  0  0  0  0  0  0  0
  179.4260   21.4240   47.9890 C   0  0  0  0  0  0  0  0  0  0  0  0
  179.1430   20.9310   46.7150 C   0  0  0  0  0  0  0  0  0  0  0  0
  180.1660   20.3800   45.9390 C   0  0  0  0  0  0  0  0  0  0  0  0
  181.4690   20.3210   46.4370 C   0  0  0  0  0  0  0  0  0  0  0  0
  181.7480   20.8150   47.7080 C   0  0  0  0  0  0  0  0  0  0  0  0
  183.0450   20.7260   48.1350 O   0  0  0  0  0  0  0  0  0  0  0  0
  180.7250   21.3660   48.4840 C   0  0  0  0  0  0  0  0  0  0  0  0
  180.9750   21.8950   49.8260 C   0  0  0  0  0  0  0  0  0  0  0  0
  182.0920   21.8740   50.3370 O   0  0  0  0  0  0  0  0  0  0  0  0
  179.8230   22.4640   50.5640 C   0  0  0  0  0  0  0  0  0  0  0  0
  180.0670   22.9460   51.8360 O   0  0  0  0  0  0  0  0  0  0  0  0
  176.1550   22.8670   49.9720 C   0  0  0  0  0  0  0  0  0  0  0  0
  174.9700   23.3800   50.5410 C   0  0  0  0  0  0  0  0  0  0  0  0
  173.6570   23.2130   49.8160 C   0  0  0  0  0  0  0  0  0  0  0  0
  173.7270   22.2910   48.8060 F   0  0  0  0  0  0  0  0  0  0  0  0
  173.2140   24.3550   49.2130 F   0  0  0  0  0  0  0  0  0  0  0  0
  172.6400   22.7770   50.6140 F   0  0  0  0  0  0  0  0  0  0  0  0
  173.6770   26.0120   52.1650 C   0  0  0  0  0  0  0  0  0  0  0  0
  172.2870   26.4480   52.6840 C   0  0  0  0  0  0  0  0  0  0  0  0
  170.6860   26.4710   55.6321 H   0  0  0  0  0  0  0  0  0  0  0  0
  170.4909   27.4610   54.1460 H   0  0  0  0  0  0  0  0  0  0  0  0
  169.9968   25.7340   54.1460 H   0  0  0  0  0  0  0  0  0  0  0  0
  172.7420   26.5710   54.6880 H   0  0  0  0  0  0  0  0  0  0  0  0
  172.1702   24.3569   55.3208 H   0  0  0  0  0  0  0  0  0  0  0  0
  171.5066   24.1078   53.6452 H   0  0  0  0  0  0  0  0  0  0  0  0
  174.4405   24.6122   54.3758 H   0  0  0  0  0  0  0  0  0  0  0  0
  173.7216   23.0537   53.8362 H   0  0  0  0  0  0  0  0  0  0  0  0
  176.3306   24.6964   53.3804 H   0  0  0  0  0  0  0  0  0  0  0  0
  178.4013   23.7905   52.3559 H   0  0  0  0  0  0  0  0  0  0  0  0
  178.1165   20.9760   46.3222 H   0  0  0  0  0  0  0  0  0  0  0  0
  179.9444   19.9920   44.9339 H   0  0  0  0  0  0  0  0  0  0  0  0
  182.2733   19.8851   45.8262 H   0  0  0  0  0  0  0  0  0  0  0  0
  183.2700   20.9870   49.0070 H   0  0  0  0  0  0  0  0  0  0  0  0
  180.9320   22.9090   52.1940 H   0  0  0  0  0  0  0  0  0  0  0  0
  176.1039   22.3539   49.0004 H   0  0  0  0  0  0  0  0  0  0  0  0
  174.4595   26.5406   52.7292 H   0  0  0  0  0  0  0  0  0  0  0  0
  173.7588   26.2589   51.0962 H   0  0  0  0  0  0  0  0  0  0  0  0
  172.2015   27.5406   52.5894 H   0  0  0  0  0  0  0  0  0  0  0  0
  171.5266   25.9301   52.0810 H   0  0  0  0  0  0  0  0  0  0  0  0
  1  2  1  0
  2  3  1  0
  3  4  1  0
  4  5  1  0
  5  6  1  0
  6  7  2  0
  7  8  1  0
  8  9  2  0
  9 10  1  0
 10 11  1  0
 11 12  1  0
 12 13  2  0
 13 14  1  0
 14 15  2  0
 15 16  1  0
 16 17  1  0
 16 18  2  0
 18 19  1  0
 19 20  2  0
 19 21  1  0
 21 22  1  0
  9 23  1  0
 23 24  2  0
 24 25  1  0
 25 26  1  0
 25 27  1  0
 25 28  1  0
  5 29  1  0
 29 30  1  0
 30  2  1  0
 24  6  1  0
 21 10  2  0
 18 12  1  0
  1 31  1  0
  1 32  1  0
  1 33  1  0
  2 34  1  0
  3 35  1  0
  3 36  1  0
  4 37  1  0
  4 38  1  0
  7 39  1  0
  8 40  1  0
 13 41  1  0
 14 42  1  0
 15 43  1  0
 17 44  1  0
 22 45  1  0
 23 46  1  0
 29 47  1  0
 29 48  1  0
 30 49  1  0
 30 50  1  0
M  CHG  1   2   1
M  END
>  <meeko>  (8) 
{"is_sidechain": [false], "free_energy": -7.153, "intermolecular_energy": -9.113, "internal_energy": -0.056}

$$$$
