cand_003_out
     RDKit          3D

 35 37  0  0  0  0  0  0  0  0999 V2000
  180.0250   14.3040   44.8100 C   0  0  0  0  0  0  0  0  0  0  0  0
  180.3970   15.7280   44.4910 C   0  0  0  0  0  0  0  0  0  0  0  0
  179.9820   16.7550   45.3600 C   0  0  0  0  0  0  0  0  0  0  0  0
  180.3110   18.0980   45.1200 C   0  0  0  0  0  0  0  0  0  0  0  0
  179.8320   19.1480   46.0440 C   0  0  0  0  0  0  0  0  0  0  0  0
  178.4580   19.1030   46.2500 O   0  0  0  0  0  0  0  0  0  0  0  0
  177.8830   20.0230   47.0880 C   0  0  0  0  0  0  0  0  0  0  0  0
  176.5000   19.9510   47.2560 C   0  0  0  0  0  0  0  0  0  0  0  0
  175.8510   20.8580   48.0970 C   0  0  0  0  0  0  0  0  0  0  0  0
  176.5850   21.8360   48.7710 C   0  0  0  0  0  0  0  0  0  0  0  0
  177.9660   21.9050   48.6040 C   0  0  0  0  0  0  0  0  0  0  0  0
  178.6230   22.8860   49.2940 O   0  0  0  0  0  0  0  0  0  0  0  0
  178.6140   20.9990   47.7600 C   0  0  0  0  0  0  0  0  0  0  0  0
  180.0620   21.0370   47.5560 C   0  0  0  0  0  0  0  0  0  0  0  0
  180.7780   21.8630   48.1200 O   0  0  0  0  0  0  0  0  0  0  0  0
  180.6520   20.0360   46.6370 C   0  0  0  0  0  0  0  0  0  0  0  0
  182.0230   20.0730   46.4610 O   0  0  0  0  0  0  0  0  0  0  0  0
  181.0550   18.4080   43.9770 C   0  0  0  0  0  0  0  0  0  0  0  0
  181.4760   17.3990   43.1060 C   0  0  0  0  0  0  0  0  0  0  0  0
  181.1600   16.0520   43.3490 C   0  0  0  0  0  0  0  0  0  0  0  0
  181.6360   14.9880   42.3830 C   0  0  0  0  0  0  0  0  0  0  0  0
  181.4170   15.3200   41.0800 F   0  0  0  0  0  0  0  0  0  0  0  0
  181.0280   13.7800   42.5600 F   0  0  0  0  0  0  0  0  0  0  0  0
  182.9730   14.7420   42.4880 F   0  0  0  0  0  0  0  0  0  0  0  0
  179.9899   14.1698   45.9012 H   0  0  0  0  0  0  0  0  0  0  0  0
  179.0377   14.0780   44.3809 H   0  0  0  0  0  0  0  0  0  0  0  0
  180.7756   13.6240   44.3809 H   0  0  0  0  0  0  0  0  0  0  0  0
  179.3857   16.4987   46.2481 H   0  0  0  0  0  0  0  0  0  0  0  0
  175.9208   19.1803   46.7264 H   0  0  0  0  0  0  0  0  0  0  0  0
  174.7603   20.8017   48.2285 H   0  0  0  0  0  0  0  0  0  0  0  0
  176.0736   22.5506   49.4326 H   0  0  0  0  0  0  0  0  0  0  0  0
  179.4890   23.1380   49.0400 H   0  0  0  0  0  0  0  0  0  0  0  0
  182.4870   20.8790   46.5660 H   0  0  0  0  0  0  0  0  0  0  0  0
  181.3113   19.4558   43.7614 H   0  0  0  0  0  0  0  0  0  0  0  0
  182.0646   17.6642   42.2154 H   0  0  0  0  0  0  0  0  0  0  0  0
  1  2  1  0
  2  3  2  0
  3  4  1  0
  4  5  1  0
  5  6  1  0
  6  7  1  0
  7  8  2  0
  8  9  1  0
  9 10  2  0
 10 11  1  0
 11 12  1  0
 11 13  2  0
 13 14  1  0
 14 15  2  0
 14 16  1  0
 16 17  1  0
  4 18  2  0
 18 19  1  0
 19 20  2  0
 20 21  1  0
 21 22  1  0
 21 23  1  0
 21 24  1  0
 20  2  1  0
 16  5  2  0
 13  7  1  0
  1 25  1  0
  1 26  1  0
  1 27  1  0
  3 28  1  0
  8 29  1  0
  9 30  1  0
 10 31  1  0
 12 32  1  0
 17 33  1  0
 18 34  1  0
 19 35  1  0
M  END
>  <meeko>  (1) 
{"is_sidechain": [false], "free_energy": -9.212, "intermolecular_energy": -10.828, "internal_energy": 0.223}

$$$$
cand_003_out
     RDKit          3D

 35 37  0  0  0  0  0  0  0  0999 V2000
  174.8330   19.8680   47.2700 C   0  0  0  0  0  0  0  0  0  0  0  0
  176.3140   20.1260   47.3480 C   0  0  0  0  0  0  0  0  0  0  0  0
  177.1890   19.3230   46.5900 C   0  0  0  0  0  0  0  0  0  0  0  0
  178.5770   19.5250   46.6140 C   0  0  0  0  0  0  0  0  0  0  0  0
  179.4620   18.6430   45.8240 C   0  0  0  0  0  0  0  0  0  0  0  0
  179.0330   17.3210   45.8070 O   0  0  0  0  0  0  0  0  0  0  0  0
  179.7650   16.3950   45.1080 C   0  0  0  0  0  0  0  0  0  0  0  0
  179.3060   15.0780   45.1290 C   0  0  0  0  0  0  0  0  0  0  0  0
  180.0040   14.0860   44.4370 C   0  0  0  0  0  0  0  0  0  0  0  0
  181.1590   14.4110   43.7230 C   0  0  0  0  0  0  0  0  0  0  0  0
  181.6140   15.7270   43.7020 C   0  0  0  0  0  0  0  0  0  0  0  0
  182.7500   15.9760   42.9820 O   0  0  0  0  0  0  0  0  0  0  0  0
  180.9160   16.7190   44.3970 C   0  0  0  0  0  0  0  0  0  0  0  0
  181.3610   18.1130   44.4010 C   0  0  0  0  0  0  0  0  0  0  0  0
  182.3630   18.4800   43.7900 O   0  0  0  0  0  0  0  0  0  0  0  0
  180.5550   19.0870   45.1740 C   0  0  0  0  0  0  0  0  0  0  0  0
  180.9750   20.4040   45.1600 O   0  0  0  0  0  0  0  0  0  0  0  0
  179.0890   20.5430   47.4260 C   0  0  0  0  0  0  0  0  0  0  0  0
  178.2340   21.3490   48.1820 C   0  0  0  0  0  0  0  0  0  0  0  0
  176.8420   21.1580   48.1520 C   0  0  0  0  0  0  0  0  0  0  0  0
  175.9480   22.0530   48.9840 C   0  0  0  0  0  0  0  0  0  0  0  0
  175.3240   21.3860   49.9950 F   0  0  0  0  0  0  0  0  0  0  0  0
  174.9510   22.6460   48.2660 F   0  0  0  0  0  0  0  0  0  0  0  0
  176.6300   23.0760   49.5730 F   0  0  0  0  0  0  0  0  0  0  0  0
  174.4193   19.7959   48.2867 H   0  0  0  0  0  0  0  0  0  0  0  0
  174.3446   20.6946   46.7332 H   0  0  0  0  0  0  0  0  0  0  0  0
  174.6529   18.9249   46.7332 H   0  0  0  0  0  0  0  0  0  0  0  0
  176.7740   18.5188   45.9647 H   0  0  0  0  0  0  0  0  0  0  0  0
  178.3953   14.8211   45.6900 H   0  0  0  0  0  0  0  0  0  0  0  0
  179.6433   13.0470   44.4545 H   0  0  0  0  0  0  0  0  0  0  0  0
  181.7084   13.6291   43.1782 H   0  0  0  0  0  0  0  0  0  0  0  0
  182.7210   15.9760   42.0450 H   0  0  0  0  0  0  0  0  0  0  0  0
  180.4780   21.0580   45.6100 H   0  0  0  0  0  0  0  0  0  0  0  0
  180.1753   20.7104   47.4696 H   0  0  0  0  0  0  0  0  0  0  0  0
  178.6573   22.1460   48.8109 H   0  0  0  0  0  0  0  0  0  0  0  0
  1  2  1  0
  2  3  2  0
  3  4  1  0
  4  5  1  0
  5  6  1  0
  6  7  1  0
  7  8  2  0
  8  9  1  0
  9 10  2  0
 10 11  1  0
 11 12  1  0
 11 13  2  0
 13 14  1  0
 14 15  2  0
 14 16  1  0
 16 17  1  0
  4 18  2  0
 18 19  1  0
 19 20  2  0
 20 21  1  0
 21 22  1  0
 21 23  1  0
 21 24  1  0
 20  2  1  0
 16  5  2  0
 13  7  1  0
  1 25  1  0
  1 26  1  0
  1 27  1  0
  3 28  1  0
  8 29  1  0
  9 30  1  0
 10 31  1  0
 12 32  1  0
 17 33  1  0
 18 34  1  0
 19 35  1  0
M  END
>  <meeko>  (2) 
{"is_sidechain": [false], "free_energy": -7.897, "intermolecular_energy": -9.017, "internal_energy": -0.041}

$$$$
cand_003_out
     RDKit          3D

 35 37  0  0  0  0  0  0  0  0999 V2000
  179.3670   14.8050   45.2270 C   0  0  0  0  0  0  0  0  0  0  0  0
  179.6910   16.2710   45.1220 C   0  0  0  0  0  0  0  0  0  0  0  0
  178.8800   17.2010   45.7990 C   0  0  0  0  0  0  0  0  0  0  0  0
  179.1410   18.5790   45.7480 C   0  0  0  0  0  0  0  0  0  0  0  0
  178.2490   19.5240   46.4520 C   0  0  0  0  0  0  0  0  0  0  0  0
  178.9030   20.6780   46.8680 O   0  0  0  0  0  0  0  0  0  0  0  0
  178.1890   21.6410   47.5350 C   0  0  0  0  0  0  0  0  0  0  0  0
  178.8870   22.7760   47.9470 C   0  0  0  0  0  0  0  0  0  0  0  0
  178.2200   23.7960   48.6300 C   0  0  0  0  0  0  0  0  0  0  0  0
  176.8550   23.6800   48.9000 C   0  0  0  0  0  0  0  0  0  0  0  0
  176.1600   22.5460   48.4870 C   0  0  0  0  0  0  0  0  0  0  0  0
  174.8250   22.4980   48.7830 O   0  0  0  0  0  0  0  0  0  0  0  0
  176.8290   21.5260   47.8050 C   0  0  0  0  0  0  0  0  0  0  0  0
  176.1360   20.3180   47.3550 C   0  0  0  0  0  0  0  0  0  0  0  0
  174.9340   20.1450   47.5480 O   0  0  0  0  0  0  0  0  0  0  0  0
  176.9370   19.2920   46.6460 C   0  0  0  0  0  0  0  0  0  0  0  0
  176.2710   18.1610   46.2120 O   0  0  0  0  0  0  0  0  0  0  0  0
  180.2290   19.0230   44.9880 C   0  0  0  0  0  0  0  0  0  0  0  0
  181.0450   18.1120   44.3120 C   0  0  0  0  0  0  0  0  0  0  0  0
  180.7940   16.7300   44.3700 C   0  0  0  0  0  0  0  0  0  0  0  0
  181.7010   15.7740   43.6250 C   0  0  0  0  0  0  0  0  0  0  0  0
  181.1220   15.2600   42.5050 F   0  0  0  0  0  0  0  0  0  0  0  0
  182.0830   14.6960   44.3680 F   0  0  0  0  0  0  0  0  0  0  0  0
  182.8600   16.3630   43.2130 F   0  0  0  0  0  0  0  0  0  0  0  0
  179.3037   14.5185   46.2871 H   0  0  0  0  0  0  0  0  0  0  0  0
  178.4033   14.6063   44.7353 H   0  0  0  0  0  0  0  0  0  0  0  0
  180.1572   14.2187   44.7353 H   0  0  0  0  0  0  0  0  0  0  0  0
  178.0206   16.8389   46.3823 H   0  0  0  0  0  0  0  0  0  0  0  0
  179.9623   22.8680   47.7342 H   0  0  0  0  0  0  0  0  0  0  0  0
  178.7705   24.6911   48.9553 H   0  0  0  0  0  0  0  0  0  0  0  0
  176.3295   24.4828   49.4379 H   0  0  0  0  0  0  0  0  0  0  0  0
  174.4900   21.8090   49.3230 H   0  0  0  0  0  0  0  0  0  0  0  0
  176.1730   17.9990   45.2950 H   0  0  0  0  0  0  0  0  0  0  0  0
  180.4440   20.0998   44.9221 H   0  0  0  0  0  0  0  0  0  0  0  0
  181.8981   18.4825   43.7246 H   0  0  0  0  0  0  0  0  0  0  0  0
  1  2  1  0
  2  3  2  0
  3  4  1  0
  4  5  1  0
  5  6  1  0
  6  7  1  0
  7  8  2  0
  8  9  1  0
  9 10  2  0
 10 11  1  0
 11 12  1  0
 11 13  2  0
 13 14  1  0
 14 15  2  0
 14 16  1  0
 16 17  1  0
  4 18  2  0
 18 19  1  0
 19 20  2  0
 20 21  1  0
 21 22  1  0
 21 23  1  0
 21 24  1  0
 20  2  1  0
 16  5  2  0
 13  7  1  0
  1 25  1  0
  1 26  1  0
  1 27  1  0
  3 28  1  0
  8 29  1  0
  9 30  1  0
 10 31  1  0
 12 32  1  0
 17 33  1  0
 18 34  1  0
 19 35  1  0
M  END
>  <meeko>  (3) 
{"is_sidechain": [false], "free_energy": -7.112, "intermolecular_energy": -8.312, "internal_energy": 0.177}

$$$$
