cand_055_out
     RDKit          3D

 41 43  0  0  0  0  0  0  0  0999 V2000
  181.2320   15.3480   40.4410 C   0  0  0  0  0  0  0  0  0  0  0  0
  181.2100   14.4660   41.6790 C   0  0  0  0  0  0  0  0  0  0  0  0
  182.1030   15.0330   42.7840 C   0  0  0  0  0  0  0  0  0  0  0  0
  181.3530   16.0010   43.6720 C   0  0  0  0  0  0  0  0  0  0  0  0
  181.6220   17.3730   43.5400 C   0  0  0  0  0  0  0  0  0  0  0  0
  180.9690   18.3150   44.3380 C   0  0  0  0  0  0  0  0  0  0  0  0
  180.0240   17.9130   45.2860 C   0  0  0  0  0  0  0  0  0  0  0  0
  179.3350   18.8880   46.1600 C   0  0  0  0  0  0  0  0  0  0  0  0
  177.9520   18.7420   46.1460 O   0  0  0  0  0  0  0  0  0  0  0  0
  177.1890   19.5820   46.9140 C   0  0  0  0  0  0  0  0  0  0  0  0
  175.8060   19.3910   46.8820 C   0  0  0  0  0  0  0  0  0  0  0  0
  174.9710   20.2140   47.6390 C   0  0  0  0  0  0  0  0  0  0  0  0
  175.5160   21.2290   48.4280 C   0  0  0  0  0  0  0  0  0  0  0  0
  176.8960   21.4170   48.4590 C   0  0  0  0  0  0  0  0  0  0  0  0
  177.3630   22.4300   49.2520 O   0  0  0  0  0  0  0  0  0  0  0  0
  177.7310   20.5930   47.7010 C   0  0  0  0  0  0  0  0  0  0  0  0
  179.1860   20.7580   47.7050 C   0  0  0  0  0  0  0  0  0  0  0  0
  179.7400   21.6320   48.3680 O   0  0  0  0  0  0  0  0  0  0  0  0
  179.9830   19.8270   46.8720 C   0  0  0  0  0  0  0  0  0  0  0  0
  181.3550   20.0010   46.8740 O   0  0  0  0  0  0  0  0  0  0  0  0
  179.7650   16.5420   45.4280 C   0  0  0  0  0  0  0  0  0  0  0  0
  180.4200   15.5780   44.6380 C   0  0  0  0  0  0  0  0  0  0  0  0
  180.0790   14.1260   44.8340 C   0  0  0  0  0  0  0  0  0  0  0  0
  181.2583   16.4050   40.7443 H   0  0  0  0  0  0  0  0  0  0  0  0
  182.1246   15.1162   39.8415 H   0  0  0  0  0  0  0  0  0  0  0  0
  180.3289   15.1610   39.8415 H   0  0  0  0  0  0  0  0  0  0  0  0
  180.1775   14.3989   42.0524 H   0  0  0  0  0  0  0  0  0  0  0  0
  181.5904   13.4716   41.4025 H   0  0  0  0  0  0  0  0  0  0  0  0
  182.4780   14.2023   43.3999 H   0  0  0  0  0  0  0  0  0  0  0  0
  182.9314   15.5779   42.3078 H   0  0  0  0  0  0  0  0  0  0  0  0
  182.3587   17.7111   42.7963 H   0  0  0  0  0  0  0  0  0  0  0  0
  181.2007   19.3837   44.2192 H   0  0  0  0  0  0  0  0  0  0  0  0
  175.3750   18.5923   46.2605 H   0  0  0  0  0  0  0  0  0  0  0  0
  173.8817   20.0629   47.6141 H   0  0  0  0  0  0  0  0  0  0  0  0
  174.8575   21.8784   49.0235 H   0  0  0  0  0  0  0  0  0  0  0  0
  177.9770   22.2450   49.9350 H   0  0  0  0  0  0  0  0  0  0  0  0
  181.8750   19.6280   46.1900 H   0  0  0  0  0  0  0  0  0  0  0  0
  179.0303   16.2109   46.1768 H   0  0  0  0  0  0  0  0  0  0  0  0
  180.0268   13.9036   45.9100 H   0  0  0  0  0  0  0  0  0  0  0  0
  179.1061   13.9117   44.3676 H   0  0  0  0  0  0  0  0  0  0  0  0
  180.8548   13.5010   44.3676 H   0  0  0  0  0  0  0  0  0  0  0  0
  1  2  1  0
  2  3  1  0
  3  4  1  0
  4  5  2  0
  5  6  1  0
  6  7  2  0
  7  8  1  0
  8  9  1  0
  9 10  1  0
 10 11  2  0
 11 12  1  0
 12 13  2  0
 13 14  1  0
 14 15  1  0
 14 16  2  0
 16 17  1  0
 17 18  2  0
 17 19  1  0
 19 20  1  0
  7 21  1  0
 21 22  2  0
 22 23  1  0
 22  4  1  0
 19  8  2  0
 16 10  1  0
  1 24  1  0
  1 25  1  0
  1 26  1  0
  2 27  1  0
  2 28  1  0
  3 29  1  0
  3 30  1  0
  5 31  1  0
  6 32  1  0
 11 33  1  0
 12 34  1  0
 13 35  1  0
 15 36  1  0
 20 37  1  0
 21 38  1  0
 23 39  1  0
 23 40  1  0
 23 41  1  0
M  END
>  <meeko>  (1) 
{"is_sidechain": [false], "free_energy": -8.436, "intermolecular_energy": -10.408, "internal_energy": -0.231}

$$$$
cand_055_out
     RDKit          3D

 41 43  0  0  0  0  0  0  0  0999 V2000
  180.8610   14.7830   40.2000 C   0  0  0  0  0  0  0  0  0  0  0  0
  181.8000   14.7580   41.3950 C   0  0  0  0  0  0  0  0  0  0  0  0
  181.0540   14.4040   42.6830 C   0  0  0  0  0  0  0  0  0  0  0  0
  180.8060   15.6240   43.5420 C   0  0  0  0  0  0  0  0  0  0  0  0
  181.3810   16.8440   43.1500 C   0  0  0  0  0  0  0  0  0  0  0  0
  181.1960   18.0040   43.9080 C   0  0  0  0  0  0  0  0  0  0  0  0
  180.4270   17.9780   45.0740 C   0  0  0  0  0  0  0  0  0  0  0  0
  180.2350   19.1850   45.9070 C   0  0  0  0  0  0  0  0  0  0  0  0
  181.4210   19.8700   46.1460 O   0  0  0  0  0  0  0  0  0  0  0  0
  181.3860   21.0110   46.9060 C   0  0  0  0  0  0  0  0  0  0  0  0
  182.5970   21.6740   47.1090 C   0  0  0  0  0  0  0  0  0  0  0  0
  182.6320   22.8410   47.8750 C   0  0  0  0  0  0  0  0  0  0  0  0
  181.4580   23.3440   48.4400 C   0  0  0  0  0  0  0  0  0  0  0  0
  180.2510   22.6800   48.2350 C   0  0  0  0  0  0  0  0  0  0  0  0
  179.1400   23.2250   48.8180 O   0  0  0  0  0  0  0  0  0  0  0  0
  180.2160   21.5120   47.4680 C   0  0  0  0  0  0  0  0  0  0  0  0
  178.9690   20.7840   47.2300 C   0  0  0  0  0  0  0  0  0  0  0  0
  177.8970   21.1590   47.6980 O   0  0  0  0  0  0  0  0  0  0  0  0
  179.0390   19.5610   46.3960 C   0  0  0  0  0  0  0  0  0  0  0  0
  177.8560   18.8740   46.1890 O   0  0  0  0  0  0  0  0  0  0  0  0
  179.8650   16.7560   45.4740 C   0  0  0  0  0  0  0  0  0  0  0  0
  180.0470   15.5770   44.7280 C   0  0  0  0  0  0  0  0  0  0  0  0
  179.4000   14.3070   45.2080 C   0  0  0  0  0  0  0  0  0  0  0  0
  179.8194   14.8107   40.5526 H   0  0  0  0  0  0  0  0  0  0  0  0
  181.0659   15.6760   39.5913 H   0  0  0  0  0  0  0  0  0  0  0  0
  181.0181   13.8804   39.5913 H   0  0  0  0  0  0  0  0  0  0  0  0
  182.5847   14.0078   41.2180 H   0  0  0  0  0  0  0  0  0  0  0  0
  182.2379   15.7602   41.5125 H   0  0  0  0  0  0  0  0  0  0  0  0
  180.0867   13.9504   42.4210 H   0  0  0  0  0  0  0  0  0  0  0  0
  181.6771   13.7025   43.2572 H   0  0  0  0  0  0  0  0  0  0  0  0
  181.9862   16.8874   42.2325 H   0  0  0  0  0  0  0  0  0  0  0  0
  181.6606   18.9466   43.5831 H   0  0  0  0  0  0  0  0  0  0  0  0
  183.5228   21.2779   46.6662 H   0  0  0  0  0  0  0  0  0  0  0  0
  183.5860   23.3651   48.0337 H   0  0  0  0  0  0  0  0  0  0  0  0
  181.4865   24.2621   49.0452 H   0  0  0  0  0  0  0  0  0  0  0  0
  179.0010   23.1320   49.7400 H   0  0  0  0  0  0  0  0  0  0  0  0
  177.2470   18.7680   46.8920 H   0  0  0  0  0  0  0  0  0  0  0  0
  179.2659   16.7188   46.3958 H   0  0  0  0  0  0  0  0  0  0  0  0
  179.3925   14.2923   46.3079 H   0  0  0  0  0  0  0  0  0  0  0  0
  178.3669   14.2576   44.8336 H   0  0  0  0  0  0  0  0  0  0  0  0
  179.9674   13.4422   44.8336 H   0  0  0  0  0  0  0  0  0  0  0  0
  1  2  1  0
  2  3  1  0
  3  4  1  0
  4  5  2  0
  5  6  1  0
  6  7  2  0
  7  8  1  0
  8  9  1  0
  9 10  1  0
 10 11  2  0
 11 12  1  0
 12 13  2  0
 13 14  1  0
 14 15  1  0
 14 16  2  0
 16 17  1  0
 17 18  2  0
 17 19  1  0
 19 20  1  0
  7 21  1  0
 21 22  2  0
 22 23  1  0
 22  4  1  0
 19  8  2  0
 16 10  1  0
  1 24  1  0
  1 25  1  0
  1 26  1  0
  2 27  1  0
  2 28  1  0
  3 29  1  0
  3 30  1  0
  5 31  1  0
  6 32  1  0
 11 33  1  0
 12 34  1  0
 13 35  1  0
 15 36  1  0
 20 37  1  0
 21 38  1  0
 23 39  1  0
 23 40  1  0
 23 41  1  0
M  END
>  <meeko>  (2) 
{"is_sidechain": [false], "free_energy": -7.695, "intermolecular_energy": -9.478, "internal_energy": -0.247}

$$$$
cand_055_out
     RDKit          3D

 41 43  0  0  0  0  0  0  0  0999 V2000
  179.6230   19.1660   46.1940 C   0  0  0  0  0  0  0  0  0  0  0  0
  179.1460   20.4890   46.7700 C   0  0  0  0  0  0  0  0  0  0  0  0
  177.7400   20.8380   46.2760 C   0  0  0  0  0  0  0  0  0  0  0  0
  176.8600   21.3440   47.3970 C   0  0  0  0  0  0  0  0  0  0  0  0
  176.9620   22.6940   47.7680 C   0  0  0  0  0  0  0  0  0  0  0  0
  176.1820   23.2180   48.8020 C   0  0  0  0  0  0  0  0  0  0  0  0
  175.2750   22.4080   49.4910 C   0  0  0  0  0  0  0  0  0  0  0  0
  174.4550   22.9300   50.6050 C   0  0  0  0  0  0  0  0  0  0  0  0
  175.2070   23.2280   51.7360 O   0  0  0  0  0  0  0  0  0  0  0  0
  174.5710   23.7220   52.8450 C   0  0  0  0  0  0  0  0  0  0  0  0
  175.3660   24.0200   53.9530 C   0  0  0  0  0  0  0  0  0  0  0  0
  174.7810   24.5250   55.1160 C   0  0  0  0  0  0  0  0  0  0  0  0
  173.4010   24.7300   55.1720 C   0  0  0  0  0  0  0  0  0  0  0  0
  172.6090   24.4320   54.0660 C   0  0  0  0  0  0  0  0  0  0  0  0
  171.2650   24.6550   54.1900 O   0  0  0  0  0  0  0  0  0  0  0  0
  173.1960   23.9270   52.9020 C   0  0  0  0  0  0  0  0  0  0  0  0
  172.4000   23.6000   51.7180 C   0  0  0  0  0  0  0  0  0  0  0  0
  171.1800   23.7470   51.6920 O   0  0  0  0  0  0  0  0  0  0  0  0
  173.1190   23.0780   50.5320 C   0  0  0  0  0  0  0  0  0  0  0  0
  172.3550   22.7610   49.4230 O   0  0  0  0  0  0  0  0  0  0  0  0
  175.1830   21.0550   49.1300 C   0  0  0  0  0  0  0  0  0  0  0  0
  175.9660   20.5090   48.0960 C   0  0  0  0  0  0  0  0  0  0  0  0
  175.8020   19.0540   47.7520 C   0  0  0  0  0  0  0  0  0  0  0  0
  179.8714   18.4770   47.0147 H   0  0  0  0  0  0  0  0  0  0  0  0
  178.8265   18.7271   45.5752 H   0  0  0  0  0  0  0  0  0  0  0  0
  180.5163   19.3363   45.5752 H   0  0  0  0  0  0  0  0  0  0  0  0
  179.1323   20.4174   47.8676 H   0  0  0  0  0  0  0  0  0  0  0  0
  179.8356   21.2796   46.4392 H   0  0  0  0  0  0  0  0  0  0  0  0
  177.8172   21.6180   45.5043 H   0  0  0  0  0  0  0  0  0  0  0  0
  177.2837   19.9233   45.8696 H   0  0  0  0  0  0  0  0  0  0  0  0
  177.6672   23.3497   47.2362 H   0  0  0  0  0  0  0  0  0  0  0  0
  176.2827   24.2784   49.0765 H   0  0  0  0  0  0  0  0  0  0  0  0
  176.4530   23.8571   53.9100 H   0  0  0  0  0  0  0  0  0  0  0  0
  175.4077   24.7615   55.9885 H   0  0  0  0  0  0  0  0  0  0  0  0
  172.9400   25.1264   56.0887 H   0  0  0  0  0  0  0  0  0  0  0  0
  170.7860   25.0330   53.4790 H   0  0  0  0  0  0  0  0  0  0  0  0
  172.0380   21.8880   49.3080 H   0  0  0  0  0  0  0  0  0  0  0  0
  174.4799   20.4037   49.6698 H   0  0  0  0  0  0  0  0  0  0  0  0
  175.7355   18.4636   48.6777 H   0  0  0  0  0  0  0  0  0  0  0  0
  174.8828   18.9177   47.1633 H   0  0  0  0  0  0  0  0  0  0  0  0
  176.6678   18.7166   47.1633 H   0  0  0  0  0  0  0  0  0  0  0  0
  1  2  1  0
  2  3  1  0
  3  4  1  0
  4  5  2  0
  5  6  1  0
  6  7  2  0
  7  8  1  0
  8  9  1  0
  9 10  1  0
 10 11  2  0
 11 12  1  0
 12 13  2  0
 13 14  1  0
 14 15  1  0
 14 16  2  0
 16 17  1  0
 17 18  2  0
 17 19  1  0
 19 20  1  0
  7 21  1  0
 21 22  2  0
 22 23  1  0
 22  4  1  0
 19  8  2  0
 16 10  1  0
  1 24  1  0
  1 25  1  0
  1 26  1  0
  2 27  1  0
  2 28  1  0
  3 29  1  0
  3 30  1  0
  5 31  1  0
  6 32  1  0
 11 33  1  0
 12 34  1  0
 13 35  1  0
 15 36  1  0
 20 37  1  0
 21 38  1  0
 23 39  1  0
 23 40  1  0
 23 41  1  0
M  END
>  <meeko>  (3) 
{"is_sidechain": [false], "free_energy": -7.594, "intermolecular_energy": -9.054, "internal_energy": -0.547}

$$$$
cand_055_out
     RDKit          3D

 41 43  0  0  0  0  0  0  0  0999 V2000
  175.5730   19.6150   48.8160 C   0  0  0  0  0  0  0  0  0  0  0  0
  175.8610   19.2400   47.3710 C   0  0  0  0  0  0  0  0  0  0  0  0
  176.3520   20.4460   46.5690 C   0  0  0  0  0  0  0  0  0  0  0  0
  177.7220   20.9020   47.0200 C   0  0  0  0  0  0  0  0  0  0  0  0
  178.8090   20.0310   46.8380 C   0  0  0  0  0  0  0  0  0  0  0  0
  180.0960   20.3920   47.2440 C   0  0  0  0  0  0  0  0  0  0  0  0
  180.3340   21.6340   47.8370 C   0  0  0  0  0  0  0  0  0  0  0  0
  181.6830   22.0320   48.2970 C   0  0  0  0  0  0  0  0  0  0  0  0
  182.4800   22.5260   47.2700 O   0  0  0  0  0  0  0  0  0  0  0  0
  183.7570   22.9320   47.5590 C   0  0  0  0  0  0  0  0  0  0  0  0
  184.5160   23.4350   46.5010 C   0  0  0  0  0  0  0  0  0  0  0  0
  185.8260   23.8640   46.7260 C   0  0  0  0  0  0  0  0  0  0  0  0
  186.3770   23.7900   48.0070 C   0  0  0  0  0  0  0  0  0  0  0  0
  185.6160   23.2880   49.0610 C   0  0  0  0  0  0  0  0  0  0  0  0
  186.2170   23.2430   50.2890 O   0  0  0  0  0  0  0  0  0  0  0  0
  184.3050   22.8590   48.8350 C   0  0  0  0  0  0  0  0  0  0  0  0
  183.4730   22.3250   49.9140 C   0  0  0  0  0  0  0  0  0  0  0  0
  183.8880   22.2220   51.0670 O   0  0  0  0  0  0  0  0  0  0  0  0
  182.0940   21.9050   49.5720 C   0  0  0  0  0  0  0  0  0  0  0  0
  181.3220   21.3900   50.5970 O   0  0  0  0  0  0  0  0  0  0  0  0
  179.2460   22.4990   48.0330 C   0  0  0  0  0  0  0  0  0  0  0  0
  177.9410   22.1490   47.6370 C   0  0  0  0  0  0  0  0  0  0  0  0
  176.8270   23.1330   47.8620 C   0  0  0  0  0  0  0  0  0  0  0  0
  176.1039   18.9237   49.4870 H   0  0  0  0  0  0  0  0  0  0  0  0
  175.9157   20.6434   49.0032 H   0  0  0  0  0  0  0  0  0  0  0  0
  174.4910   19.5493   49.0032 H   0  0  0  0  0  0  0  0  0  0  0  0
  176.6345   18.4582   47.3515 H   0  0  0  0  0  0  0  0  0  0  0  0
  174.9280   18.8774   46.9148 H   0  0  0  0  0  0  0  0  0  0  0  0
  176.4012   20.1699   45.5054 H   0  0  0  0  0  0  0  0  0  0  0  0
  175.6462   21.2740   46.7309 H   0  0  0  0  0  0  0  0  0  0  0  0
  178.6443   19.0499   46.3687 H   0  0  0  0  0  0  0  0  0  0  0  0
  180.9305   19.6910   47.0952 H   0  0  0  0  0  0  0  0  0  0  0  0
  184.0830   23.4934   45.4915 H   0  0  0  0  0  0  0  0  0  0  0  0
  186.4246   24.2608   45.8928 H   0  0  0  0  0  0  0  0  0  0  0  0
  187.4091   24.1271   48.1837 H   0  0  0  0  0  0  0  0  0  0  0  0
  187.1270   23.4490   50.3730 H   0  0  0  0  0  0  0  0  0  0  0  0
  180.4020   21.2670   50.4730 H   0  0  0  0  0  0  0  0  0  0  0  0
  179.4175   23.4760   48.5085 H   0  0  0  0  0  0  0  0  0  0  0  0
  176.6716   23.2702   48.9423 H   0  0  0  0  0  0  0  0  0  0  0  0
  177.0917   24.0975   47.4042 H   0  0  0  0  0  0  0  0  0  0  0  0
  175.9025   22.7512   47.4042 H   0  0  0  0  0  0  0  0  0  0  0  0
  1  2  1  0
  2  3  1  0
  3  4  1  0
  4  5  2  0
  5  6  1  0
  6  7  2  0
  7  8  1  0
  8  9  1  0
  9 10  1  0
 10 11  2  0
 11 12  1  0
 12 13  2  0
 13 14  1  0
 14 15  1  0
 14 16  2  0
 16 17  1  0
 17 18  2  0
 17 19  1  0
 19 20  1  0
  7 21  1  0
 21 22  2  0
 22 23  1  0
 22  4  1  0
 19  8  2  0
 16 10  1  0
  1 24  1  0
  1 25  1  0
  1 26  1  0
  2 27  1  0
  2 28  1  0
  3 29  1  0
  3 30  1  0
  5 31  1  0
  6 32  1  0
 11 33  1  0
 12 34  1  0
 13 35  1  0
 15 36  1  0
 20 37  1  0
 21 38  1  0
 23 39  1  0
 23 40  1  0
 23 41  1  0
M  END
>  <meeko>  (4) 
{"is_sidechain": [false], "free_energy": -7.515, "intermolecular_energy": -8.776, "internal_energy": -0.727}

$$$$
cand_055_out
     RDKit          3D

 41 43  0  0  0  0  0  0  0  0999 V2000
  181.2440   17.6970   43.9730 C   0  0  0  0  0  0  0  0  0  0  0  0
  180.5180   18.2550   45.1860 C   0  0  0  0  0  0  0  0  0  0  0  0
  180.4270   19.7810   45.1290 C   0  0  0  0  0  0  0  0  0  0  0  0
  179.6040   20.3380   46.2690 C   0  0  0  0  0  0  0  0  0  0  0  0
  178.2670   19.9250   46.3900 C   0  0  0  0  0  0  0  0  0  0  0  0
  177.4530   20.4120   47.4160 C   0  0  0  0  0  0  0  0  0  0  0  0
  177.9530   21.3210   48.3510 C   0  0  0  0  0  0  0  0  0  0  0  0
  177.1070   21.8710   49.4330 C   0  0  0  0  0  0  0  0  0  0  0  0
  175.9090   22.3990   48.9650 O   0  0  0  0  0  0  0  0  0  0  0  0
  175.0270   22.9420   49.8630 C   0  0  0  0  0  0  0  0  0  0  0  0
  173.8310   23.4470   49.3520 C   0  0  0  0  0  0  0  0  0  0  0  0
  172.8900   24.0160   50.2130 C   0  0  0  0  0  0  0  0  0  0  0  0
  173.1460   24.0820   51.5840 C   0  0  0  0  0  0  0  0  0  0  0  0
  174.3400   23.5770   52.0920 C   0  0  0  0  0  0  0  0  0  0  0  0
  174.5260   23.6740   53.4440 O   0  0  0  0  0  0  0  0  0  0  0  0
  175.2810   23.0070   51.2300 C   0  0  0  0  0  0  0  0  0  0  0  0
  176.5480   22.4650   51.7220 C   0  0  0  0  0  0  0  0  0  0  0  0
  176.8480   22.4920   52.9140 O   0  0  0  0  0  0  0  0  0  0  0  0
  177.4740   21.8760   50.7270 C   0  0  0  0  0  0  0  0  0  0  0  0
  178.6740   21.3790   51.2030 O   0  0  0  0  0  0  0  0  0  0  0  0
  179.2840   21.7460   48.2220 C   0  0  0  0  0  0  0  0  0  0  0  0
  180.1160   21.2720   47.1900 C   0  0  0  0  0  0  0  0  0  0  0  0
  181.5380   21.7580   47.1230 C   0  0  0  0  0  0  0  0  0  0  0  0
  182.0754   17.0580   44.3052 H   0  0  0  0  0  0  0  0  0  0  0  0
  180.5437   17.1025   43.3679 H   0  0  0  0  0  0  0  0  0  0  0  0
  181.6383   18.5267   43.3679 H   0  0  0  0  0  0  0  0  0  0  0  0
  179.5011   17.8368   45.2181 H   0  0  0  0  0  0  0  0  0  0  0  0
  181.0838   17.9754   46.0870 H   0  0  0  0  0  0  0  0  0  0  0  0
  181.4423   20.2005   45.1848 H   0  0  0  0  0  0  0  0  0  0  0  0
  179.9355   20.0590   44.1850 H   0  0  0  0  0  0  0  0  0  0  0  0
  177.8543   19.2071   45.6659 H   0  0  0  0  0  0  0  0  0  0  0  0
  176.4080   20.0761   47.4880 H   0  0  0  0  0  0  0  0  0  0  0  0
  173.6293   23.3970   48.2718 H   0  0  0  0  0  0  0  0  0  0  0  0
  171.9462   24.4126   49.8106 H   0  0  0  0  0  0  0  0  0  0  0  0
  172.4056   24.5322   52.2616 H   0  0  0  0  0  0  0  0  0  0  0  0
  173.8990   24.1280   53.9710 H   0  0  0  0  0  0  0  0  0  0  0  0
  178.6780   20.6630   51.8070 H   0  0  0  0  0  0  0  0  0  0  0  0
  179.6880   22.4686   48.9463 H   0  0  0  0  0  0  0  0  0  0  0  0
  181.9283   21.8914   48.1427 H   0  0  0  0  0  0  0  0  0  0  0  0
  182.1532   21.0191   46.5886 H   0  0  0  0  0  0  0  0  0  0  0  0
  181.5723   22.7189   46.5886 H   0  0  0  0  0  0  0  0  0  0  0  0
  1  2  1  0
  2  3  1  0
  3  4  1  0
  4  5  2  0
  5  6  1  0
  6  7  2  0
  7  8  1  0
  8  9  1  0
  9 10  1  0
 10 11  2  0
 11 12  1  0
 12 13  2  0
 13 14  1  0
 14 15  1  0
 14 16  2  0
 16 17  1  0
 17 18  2  0
 17 19  1  0
 19 20  1  0
  7 21  1  0
 21 22  2  0
 22 23  1  0
 22  4  1  0
 19  8  2  0
 16 10  1  0
  1 24  1  0
  1 25  1  0
  1 26  1  0
  2 27  1  0
  2 28  1  0
  3 29  1  0
  3 30  1  0
  5 31  1  0
  6 32  1  0
 11 33  1  0
 12 34  1  0
 13 35  1  0
 15 36  1  0
 20 37  1  0
 21 38  1  0
 23 39  1  0
 23 40  1  0
 23 41  1  0
M  END
>  <meeko>  (5) 
{"is_sidechain": [false], "free_energy": -7.351, "intermolecular_energy": -9.013, "internal_energy": -0.287}

$$$$
cand_055_out
     RDKit          3D

 41 43  0  0  0  0  0  0  0  0999 V2000
  181.9210   19.9610   45.5340 C   0  0  0  0  0  0  0  0  0  0  0  0
  180.5900   19.3280   45.9040 C   0  0  0  0  0  0  0  0  0  0  0  0
  179.4140   20.1670   45.4010 C   0  0  0  0  0  0  0  0  0  0  0  0
  178.6220   20.7660   46.5420 C   0  0  0  0  0  0  0  0  0  0  0  0
  179.1140   21.9290   47.1570 C   0  0  0  0  0  0  0  0  0  0  0  0
  178.4320   22.5240   48.2220 C   0  0  0  0  0  0  0  0  0  0  0  0
  177.2390   21.9750   48.6990 C   0  0  0  0  0  0  0  0  0  0  0  0
  176.5100   22.5710   49.8400 C   0  0  0  0  0  0  0  0  0  0  0  0
  175.4230   23.3420   49.4440 O   0  0  0  0  0  0  0  0  0  0  0  0
  174.6580   23.9530   50.4030 C   0  0  0  0  0  0  0  0  0  0  0  0
  173.5680   24.7060   49.9610 C   0  0  0  0  0  0  0  0  0  0  0  0
  172.7490   25.3560   50.8860 C   0  0  0  0  0  0  0  0  0  0  0  0
  173.0190   25.2550   52.2530 C   0  0  0  0  0  0  0  0  0  0  0  0
  174.1060   24.5030   52.6910 C   0  0  0  0  0  0  0  0  0  0  0  0
  174.3140   24.4470   54.0420 O   0  0  0  0  0  0  0  0  0  0  0  0
  174.9260   23.8520   51.7640 C   0  0  0  0  0  0  0  0  0  0  0  0
  176.0780   23.0530   52.1830 C   0  0  0  0  0  0  0  0  0  0  0  0
  176.3840   22.9220   53.3660 O   0  0  0  0  0  0  0  0  0  0  0  0
  176.8790   22.3970   51.1230 C   0  0  0  0  0  0  0  0  0  0  0  0
  177.9730   21.6550   51.5300 O   0  0  0  0  0  0  0  0  0  0  0  0
  176.7550   20.8050   48.0950 C   0  0  0  0  0  0  0  0  0  0  0  0
  177.4320   20.1880   47.0260 C   0  0  0  0  0  0  0  0  0  0  0  0
  176.8460   18.9450   46.4170 C   0  0  0  0  0  0  0  0  0  0  0  0
  182.4702   20.2222   46.4506 H   0  0  0  0  0  0  0  0  0  0  0  0
  182.5139   19.2484   44.9418 H   0  0  0  0  0  0  0  0  0  0  0  0
  181.7424   20.8706   44.9418 H   0  0  0  0  0  0  0  0  0  0  0  0
  180.5330   18.3258   45.4541 H   0  0  0  0  0  0  0  0  0  0  0  0
  180.5283   19.2677   47.0006 H   0  0  0  0  0  0  0  0  0  0  0  0
  179.8014   20.9810   44.7706 H   0  0  0  0  0  0  0  0  0  0  0  0
  178.7442   19.5081   44.8290 H   0  0  0  0  0  0  0  0  0  0  0  0
  180.0504   22.3784   46.7949 H   0  0  0  0  0  0  0  0  0  0  0  0
  178.8384   23.4332   48.6891 H   0  0  0  0  0  0  0  0  0  0  0  0
  173.3550   24.7868   48.8849 H   0  0  0  0  0  0  0  0  0  0  0  0
  171.8900   25.9485   50.5381 H   0  0  0  0  0  0  0  0  0  0  0  0
  172.3744   25.7684   52.9816 H   0  0  0  0  0  0  0  0  0  0  0  0
  174.0240   25.1490   54.5900 H   0  0  0  0  0  0  0  0  0  0  0  0
  178.5340   21.2610   50.8920 H   0  0  0  0  0  0  0  0  0  0  0  0
  175.8214   20.3576   48.4667 H   0  0  0  0  0  0  0  0  0  0  0  0
  176.5239   18.2617   47.2166 H   0  0  0  0  0  0  0  0  0  0  0  0
  175.9802   19.2148   45.7944 H   0  0  0  0  0  0  0  0  0  0  0  0
  177.6050   18.4488   45.7944 H   0  0  0  0  0  0  0  0  0  0  0  0
  1  2  1  0
  2  3  1  0
  3  4  1  0
  4  5  2  0
  5  6  1  0
  6  7  2  0
  7  8  1  0
  8  9  1  0
  9 10  1  0
 10 11  2  0
 11 12  1  0
 12 13  2  0
 13 14  1  0
 14 15  1  0
 14 16  2  0
 16 17  1  0
 17 18  2  0
 17 19  1  0
 19 20  1  0
  7 21  1  0
 21 22  2  0
 22 23  1  0
 22  4  1  0
 19  8  2  0
 16 10  1  0
  1 24  1  0
  1 25  1  0
  1 26  1  0
  2 27  1  0
  2 28  1  0
  3 29  1  0
  3 30  1  0
  5 31  1  0
  6 32  1  0
 11 33  1  0
 12 34  1  0
 13 35  1  0
 15 36  1  0
 20 37  1  0
 21 38  1  0
 23 39  1  0
 23 40  1  0
 23 41  1  0
M  END
>  <meeko>  (6) 
{"is_sidechain": [false], "free_energy": -7.302, "intermolecular_energy": -8.65, "internal_energy": -0.591}

$$$$
cand_055_out
     RDKit          3D

 41 43  0  0  0  0  0  0  0  0999 V2000
  171.4400   25.9290   49.2560 C   0  0  0  0  0  0  0  0  0  0  0  0
  171.8930   24.5350   48.8530 C   0  0  0  0  0  0  0  0  0  0  0  0
  172.5710   23.8100   50.0180 C   0  0  0  0  0  0  0  0  0  0  0  0
  173.9840   23.3920   49.6740 C   0  0  0  0  0  0  0  0  0  0  0  0
  174.1980   22.0860   49.2050 C   0  0  0  0  0  0  0  0  0  0  0  0
  175.4810   21.6390   48.8800 C   0  0  0  0  0  0  0  0  0  0  0  0
  176.5850   22.4860   49.0110 C   0  0  0  0  0  0  0  0  0  0  0  0
  177.9570   22.0300   48.6970 C   0  0  0  0  0  0  0  0  0  0  0  0
  178.0830   21.5500   47.3980 O   0  0  0  0  0  0  0  0  0  0  0  0
  179.3040   21.0960   46.9750 C   0  0  0  0  0  0  0  0  0  0  0  0
  179.3890   20.6360   45.6590 C   0  0  0  0  0  0  0  0  0  0  0  0
  180.6040   20.1580   45.1650 C   0  0  0  0  0  0  0  0  0  0  0  0
  181.7340   20.1360   45.9860 C   0  0  0  0  0  0  0  0  0  0  0  0
  181.6470   20.5960   47.2980 C   0  0  0  0  0  0  0  0  0  0  0  0
  182.7910   20.5460   48.0460 O   0  0  0  0  0  0  0  0  0  0  0  0
  180.4310   21.0750   47.7910 C   0  0  0  0  0  0  0  0  0  0  0  0
  180.2960   21.5660   49.1640 C   0  0  0  0  0  0  0  0  0  0  0  0
  181.2430   21.5730   49.9480 O   0  0  0  0  0  0  0  0  0  0  0  0
  178.9650   22.0600   49.5870 C   0  0  0  0  0  0  0  0  0  0  0  0
  178.8480   22.5090   50.8900 O   0  0  0  0  0  0  0  0  0  0  0  0
  176.3740   23.7860   49.4940 C   0  0  0  0  0  0  0  0  0  0  0  0
  175.0890   24.2510   49.8330 C   0  0  0  0  0  0  0  0  0  0  0  0
  174.9350   25.6620   50.3280 C   0  0  0  0  0  0  0  0  0  0  0  0
  171.4157   26.0038   50.3532 H   0  0  0  0  0  0  0  0  0  0  0  0
  172.1424   26.6736   48.8532 H   0  0  0  0  0  0  0  0  0  0  0  0
  170.4341   26.1184   48.8532 H   0  0  0  0  0  0  0  0  0  0  0  0
  171.0169   23.9532   48.5305 H   0  0  0  0  0  0  0  0  0  0  0  0
  172.6209   24.6306   48.0339 H   0  0  0  0  0  0  0  0  0  0  0  0
  172.6006   24.4832   50.8875 H   0  0  0  0  0  0  0  0  0  0  0  0
  171.9905   22.9024   50.2401 H   0  0  0  0  0  0  0  0  0  0  0  0
  173.3422   21.4043   49.0917 H   0  0  0  0  0  0  0  0  0  0  0  0
  175.6238   20.6103   48.5174 H   0  0  0  0  0  0  0  0  0  0  0  0
  178.4993   20.6504   45.0123 H   0  0  0  0  0  0  0  0  0  0  0  0
  180.6717   19.7981   44.1277 H   0  0  0  0  0  0  0  0  0  0  0  0
  182.6904   19.7563   45.5973 H   0  0  0  0  0  0  0  0  0  0  0  0
  182.7370   20.4950   48.9810 H   0  0  0  0  0  0  0  0  0  0  0  0
  179.2640   22.0410   51.5860 H   0  0  0  0  0  0  0  0  0  0  0  0
  177.2354   24.4600   49.6110 H   0  0  0  0  0  0  0  0  0  0  0  0
  174.9345   25.6667   51.4280 H   0  0  0  0  0  0  0  0  0  0  0  0
  175.7717   26.2734   49.9591 H   0  0  0  0  0  0  0  0  0  0  0  0
  173.9861   26.0785   49.9591 H   0  0  0  0  0  0  0  0  0  0  0  0
  1  2  1  0
  2  3  1  0
  3  4  1  0
  4  5  2  0
  5  6  1  0
  6  7  2  0
  7  8  1  0
  8  9  1  0
  9 10  1  0
 10 11  2  0
 11 12  1  0
 12 13  2  0
 13 14  1  0
 14 15  1  0
 14 16  2  0
 16 17  1  0
 17 18  2  0
 17 19  1  0
 19 20  1  0
  7 21  1  0
 21 22  2  0
 22 23  1  0
 22  4  1  0
 19  8  2  0
 16 10  1  0
  1 24  1  0
  1 25  1  0
  1 26  1  0
  2 27  1  0
  2 28  1  0
  3 29  1  0
  3 30  1  0
  5 31  1  0
  6 32  1  0
 11 33  1  0
 12 34  1  0
 13 35  1  0
 15 36  1  0
 20 37  1  0
 21 38  1  0
 23 39  1  0
 23 40  1  0
 23 41  1  0
M  END
>  <meeko>  (7) 
{"is_sidechain": [false], "free_energy": -7.262, "intermolecular_energy": -8.829, "internal_energy": -0.362}

$$$$
cand_055_out
     RDKit          3D

 41 43  0  0  0  0  0  0  0  0999 V2000
  184.4870   24.9170   44.2920 C   0  0  0  0  0  0  0  0  0  0  0  0
  184.7610   23.5680   44.9360 C   0  0  0  0  0  0  0  0  0  0  0  0
  184.7180   23.6600   46.4630 C   0  0  0  0  0  0  0  0  0  0  0  0
  183.3710   23.2450   47.0130 C   0  0  0  0  0  0  0  0  0  0  0  0
  182.9430   21.9240   46.8040 C   0  0  0  0  0  0  0  0  0  0  0  0
  181.7050   21.4840   47.2800 C   0  0  0  0  0  0  0  0  0  0  0  0
  180.8630   22.3510   47.9820 C   0  0  0  0  0  0  0  0  0  0  0  0
  179.5380   21.9190   48.4760 C   0  0  0  0  0  0  0  0  0  0  0  0
  178.6250   21.6980   47.4510 O   0  0  0  0  0  0  0  0  0  0  0  0
  177.3550   21.2920   47.7690 C   0  0  0  0  0  0  0  0  0  0  0  0
  176.4760   21.0690   46.7070 C   0  0  0  0  0  0  0  0  0  0  0  0
  175.1670   20.6550   46.9620 C   0  0  0  0  0  0  0  0  0  0  0  0
  174.7350   20.4670   48.2770 C   0  0  0  0  0  0  0  0  0  0  0  0
  175.6150   20.6900   49.3340 C   0  0  0  0  0  0  0  0  0  0  0  0
  175.1270   20.4880   50.5960 O   0  0  0  0  0  0  0  0  0  0  0  0
  176.9250   21.1030   49.0780 C   0  0  0  0  0  0  0  0  0  0  0  0
  177.8800   21.3500   50.1600 C   0  0  0  0  0  0  0  0  0  0  0  0
  177.5730   21.2120   51.3420 O   0  0  0  0  0  0  0  0  0  0  0  0
  179.2470   21.7770   49.7830 C   0  0  0  0  0  0  0  0  0  0  0  0
  180.1370   22.0190   50.8140 O   0  0  0  0  0  0  0  0  0  0  0  0
  181.2840   23.6750   48.1780 C   0  0  0  0  0  0  0  0  0  0  0  0
  182.5240   24.1370   47.6990 C   0  0  0  0  0  0  0  0  0  0  0  0
  182.9170   25.5650   47.9610 C   0  0  0  0  0  0  0  0  0  0  0  0
  184.3334   25.6731   45.0760 H   0  0  0  0  0  0  0  0  0  0  0  0
  185.3448   25.2059   43.6669 H   0  0  0  0  0  0  0  0  0  0  0  0
  183.5845   24.8484   43.6669 H   0  0  0  0  0  0  0  0  0  0  0  0
  183.9996   22.8492   44.5991 H   0  0  0  0  0  0  0  0  0  0  0  0
  185.7672   23.2392   44.6369 H   0  0  0  0  0  0  0  0  0  0  0  0
  185.4922   23.0000   46.8814 H   0  0  0  0  0  0  0  0  0  0  0  0
  184.8956   24.7076   46.7476 H   0  0  0  0  0  0  0  0  0  0  0  0
  183.5924   21.2246   46.2570 H   0  0  0  0  0  0  0  0  0  0  0  0
  181.3902   20.4454   47.1005 H   0  0  0  0  0  0  0  0  0  0  0  0
  176.8143   21.2193   45.6711 H   0  0  0  0  0  0  0  0  0  0  0  0
  174.4748   20.4766   46.1259 H   0  0  0  0  0  0  0  0  0  0  0  0
  173.7029   20.1438   48.4775 H   0  0  0  0  0  0  0  0  0  0  0  0
  175.5190   20.9270   51.3250 H   0  0  0  0  0  0  0  0  0  0  0  0
  180.0050   22.7510   51.3830 H   0  0  0  0  0  0  0  0  0  0  0  0
  180.6271   24.3707   48.7207 H   0  0  0  0  0  0  0  0  0  0  0  0
  182.9649   25.7389   49.0461 H   0  0  0  0  0  0  0  0  0  0  0  0
  183.9027   25.7619   47.5143 H   0  0  0  0  0  0  0  0  0  0  0  0
  182.1708   26.2385   47.5143 H   0  0  0  0  0  0  0  0  0  0  0  0
  1  2  1  0
  2  3  1  0
  3  4  1  0
  4  5  2  0
  5  6  1  0
  6  7  2  0
  7  8  1  0
  8  9  1  0
  9 10  1  0
 10 11  2  0
 11 12  1  0
 12 13  2  0
 13 14  1  0
 14 15  1  0
 14 16  2  0
 16 17  1  0
 17 18  2  0
 17 19  1  0
 19 20  1  0
  7 21  1  0
 21 22  2  0
 22 23  1  0
 22  4  1  0
 19  8  2  0
 16 10  1  0
  1 24  1  0
  1 25  1  0
  1 26  1  0
  2 27  1  0
  2 28  1  0
  3 29  1  0
  3 30  1  0
  5 31  1  0
  6 32  1  0
 11 33  1  0
 12 34  1  0
 13 35  1  0
 15 36  1  0
 20 37  1  0
 21 38  1  0
 23 39  1  0
 23 40  1  0
 23 41  1  0
M  END
>  <meeko>  (8) 
{"is_sidechain": [false], "free_energy": -7.224, "intermolecular_energy": -8.537, "internal_energy": -0.607}

$$$$
cand_055_out
     RDKit          3D

 41 43  0  0  0  0  0  0  0  0999 V2000
  171.0470   23.3950   52.7890 C   0  0  0  0  0  0  0  0  0  0  0  0
  172.0800   24.4810   53.0430 C   0  0  0  0  0  0  0  0  0  0  0  0
  172.5170   25.1500   51.7380 C   0  0  0  0  0  0  0  0  0  0  0  0
  173.4090   24.2480   50.9140 C   0  0  0  0  0  0  0  0  0  0  0  0
  174.6190   23.8110   51.4780 C   0  0  0  0  0  0  0  0  0  0  0  0
  175.4900   22.9840   50.7630 C   0  0  0  0  0  0  0  0  0  0  0  0
  175.1730   22.5680   49.4670 C   0  0  0  0  0  0  0  0  0  0  0  0
  176.0870   21.7130   48.6790 C   0  0  0  0  0  0  0  0  0  0  0  0
  177.3540   22.2680   48.5320 O   0  0  0  0  0  0  0  0  0  0  0  0
  178.3020   21.5790   47.8220 C   0  0  0  0  0  0  0  0  0  0  0  0
  179.5630   22.1670   47.7120 C   0  0  0  0  0  0  0  0  0  0  0  0
  180.5750   21.5180   47.0010 C   0  0  0  0  0  0  0  0  0  0  0  0
  180.3250   20.2830   46.3980 C   0  0  0  0  0  0  0  0  0  0  0  0
  179.0660   19.6980   46.5110 C   0  0  0  0  0  0  0  0  0  0  0  0
  178.8900   18.4890   45.8960 O   0  0  0  0  0  0  0  0  0  0  0  0
  178.0550   20.3480   47.2230 C   0  0  0  0  0  0  0  0  0  0  0  0
  176.7180   19.7680   47.3640 C   0  0  0  0  0  0  0  0  0  0  0  0
  176.4200   18.6890   46.8580 O   0  0  0  0  0  0  0  0  0  0  0  0
  175.7190   20.5340   48.1460 C   0  0  0  0  0  0  0  0  0  0  0  0
  174.4550   19.9820   48.2620 O   0  0  0  0  0  0  0  0  0  0  0  0
  173.9720   23.0170   48.8980 C   0  0  0  0  0  0  0  0  0  0  0  0
  173.0870   23.8560   49.6010 C   0  0  0  0  0  0  0  0  0  0  0  0
  171.8090   24.2830   48.9330 C   0  0  0  0  0  0  0  0  0  0  0  0
  170.6784   23.0075   53.7503 H   0  0  0  0  0  0  0  0  0  0  0  0
  170.2068   23.8148   52.2165 H   0  0  0  0  0  0  0  0  0  0  0  0
  171.5083   22.5768   52.2165 H   0  0  0  0  0  0  0  0  0  0  0  0
  171.6439   25.2419   53.7070 H   0  0  0  0  0  0  0  0  0  0  0  0
  172.9629   24.0180   53.5080 H   0  0  0  0  0  0  0  0  0  0  0  0
  171.6221   25.3997   51.1491 H   0  0  0  0  0  0  0  0  0  0  0  0
  173.0885   26.0547   51.9929 H   0  0  0  0  0  0  0  0  0  0  0  0
  174.8852   24.1245   52.4982 H   0  0  0  0  0  0  0  0  0  0  0  0
  176.4336   22.6576   51.2246 H   0  0  0  0  0  0  0  0  0  0  0  0
  179.7596   23.1406   48.1848 H   0  0  0  0  0  0  0  0  0  0  0  0
  181.5697   21.9798   46.9158 H   0  0  0  0  0  0  0  0  0  0  0  0
  181.1209   19.7735   45.8350 H   0  0  0  0  0  0  0  0  0  0  0  0
  178.1760   17.9360   46.1460 H   0  0  0  0  0  0  0  0  0  0  0  0
  174.3580   19.0780   48.4850 H   0  0  0  0  0  0  0  0  0  0  0  0
  173.7149   22.7051   47.8750 H   0  0  0  0  0  0  0  0  0  0  0  0
  171.0605   24.5331   49.6993 H   0  0  0  0  0  0  0  0  0  0  0  0
  172.0005   25.1660   48.3055 H   0  0  0  0  0  0  0  0  0  0  0  0
  171.4313   23.4623   48.3055 H   0  0  0  0  0  0  0  0  0  0  0  0
  1  2  1  0
  2  3  1  0
  3  4  1  0
  4  5  2  0
  5  6  1  0
  6  7  2  0
  7  8  1  0
  8  9  1  0
  9 10  1  0
 10 11  2  0
 11 12  1  0
 12 13  2  0
 13 14  1  0
 14 15  1  0
 14 16  2  0
 16 17  1  0
 17 18  2  0
 17 19  1  0
 19 20  1  0
  7 21  1  0
 21 22  2  0
 22 23  1  0
 22  4  1  0
 19  8  2  0
 16 10  1  0
  1 24  1  0
  1 25  1  0
  1 26  1  0
  2 27  1  0
  2 28  1  0
  3 29  1  0
  3 30  1  0
  5 31  1  0
  6 32  1  0
 11 33  1  0
 12 34  1  0
 13 35  1  0
 15 36  1  0
 20 37  1  0
 21 38  1  0
 23 39  1  0
 23 40  1  0
 23 41  1  0
M  END
>  <meeko>  (9) 
{"is_sidechain": [false], "free_energy": -7.047, "intermolecular_energy": -8.387, "internal_energy": -0.539}

$$$$
