cand_044_out
     RDKit          3D

 41 43  0  0  0  0  0  0  0  0999 V2000
  181.3410   15.5030   40.2920 C   0  0  0  0  0  0  0  0  0  0  0  0
  180.8480   14.8230   41.5600 C   0  0  0  0  0  0  0  0  0  0  0  0
  181.7800   15.1010   42.7410 C   0  0  0  0  0  0  0  0  0  0  0  0
  181.2420   16.1950   43.6380 C   0  0  0  0  0  0  0  0  0  0  0  0
  181.6730   17.5120   43.4110 C   0  0  0  0  0  0  0  0  0  0  0  0
  181.2290   18.5650   44.2140 C   0  0  0  0  0  0  0  0  0  0  0  0
  180.3500   18.3320   45.2750 C   0  0  0  0  0  0  0  0  0  0  0  0
  179.8440   19.4310   46.1250 C   0  0  0  0  0  0  0  0  0  0  0  0
  178.4560   19.5140   46.1310 O   0  0  0  0  0  0  0  0  0  0  0  0
  177.8530   20.4880   46.8850 C   0  0  0  0  0  0  0  0  0  0  0  0
  176.4590   20.5410   46.8540 C   0  0  0  0  0  0  0  0  0  0  0  0
  175.7820   21.5080   47.5990 C   0  0  0  0  0  0  0  0  0  0  0  0
  176.4970   22.4220   48.3750 C   0  0  0  0  0  0  0  0  0  0  0  0
  177.8890   22.3670   48.4050 C   0  0  0  0  0  0  0  0  0  0  0  0
  178.5270   23.2910   49.1860 O   0  0  0  0  0  0  0  0  0  0  0  0
  178.5650   21.3990   47.6590 C   0  0  0  0  0  0  0  0  0  0  0  0
  180.0260   21.3050   47.6620 C   0  0  0  0  0  0  0  0  0  0  0  0
  180.7260   22.0690   48.3250 O   0  0  0  0  0  0  0  0  0  0  0  0
  180.6470   20.2470   46.8330 C   0  0  0  0  0  0  0  0  0  0  0  0
  182.0270   20.1580   46.8570 O   0  0  0  0  0  0  0  0  0  0  0  0
  179.9140   17.0170   45.5010 C   0  0  0  0  0  0  0  0  0  0  0  0
  180.3530   15.9400   44.7030 C   0  0  0  0  0  0  0  0  0  0  0  0
  179.8280   14.5540   44.9990 C   0  0  0  0  0  0  0  0  0  0  0  0
  179.1300   14.0100   43.9630 F   0  0  0  0  0  0  0  0  0  0  0  0
  180.8080   13.6490   45.2870 F   0  0  0  0  0  0  0  0  0  0  0  0
  181.9674   16.3669   40.5590 H   0  0  0  0  0  0  0  0  0  0  0  0
  181.9333   14.7898   39.7000 H   0  0  0  0  0  0  0  0  0  0  0  0
  180.4790   15.8441   39.7000 H   0  0  0  0  0  0  0  0  0  0  0  0
  179.8430   15.2000   41.8007 H   0  0  0  0  0  0  0  0  0  0  0  0
  180.8260   13.7373   41.3845 H   0  0  0  0  0  0  0  0  0  0  0  0
  181.8910   14.1794   43.3312 H   0  0  0  0  0  0  0  0  0  0  0  0
  182.7488   15.4338   42.3402 H   0  0  0  0  0  0  0  0  0  0  0  0
  182.3720   17.7178   42.5870 H   0  0  0  0  0  0  0  0  0  0  0  0
  181.5750   19.5888   44.0090 H   0  0  0  0  0  0  0  0  0  0  0  0
  175.8941   19.8215   46.2431 H   0  0  0  0  0  0  0  0  0  0  0  0
  174.6831   21.5499   47.5746 H   0  0  0  0  0  0  0  0  0  0  0  0
  175.9627   23.1839   48.9615 H   0  0  0  0  0  0  0  0  0  0  0  0
  179.3220   23.0620   49.6270 H   0  0  0  0  0  0  0  0  0  0  0  0
  182.5400   20.6680   46.2630 H   0  0  0  0  0  0  0  0  0  0  0  0
  179.2103   16.8210   46.3234 H   0  0  0  0  0  0  0  0  0  0  0  0
  179.1802   14.7242   45.8716 H   0  0  0  0  0  0  0  0  0  0  0  0
  1  2  1  0
  2  3  1  0
  3  4  1  0
  4  5  2  0
  5  6  1  0
  6  7  2  0
  7  8  1  0
  8  9  1  0
  9 10  1  0
 10 11  2  0
 11 12  1  0
 12 13  2  0
 13 14  1  0
 14 15  1  0
 14 16  2  0
 16 17  1  0
 17 18  2  0
 17 19  1  0
 19 20  1  0
  7 21  1  0
 21 22  2  0
 22 23  1  0
 23 24  1  0
 23 25  1  0
 22  4  1  0
 19  8  2  0
 16 10  1  0
  1 26  1  0
  1 27  1  0
  1 28  1  0
  2 29  1  0
  2 30  1  0
  3 31  1  0
  3 32  1  0
  5 33  1  0
  6 34  1  0
 11 35  1  0
 12 36  1  0
 13 37  1  0
 15 38  1  0
 20 39  1  0
 21 40  1  0
 23 41  1  0
M  END
>  <meeko>  (1) 
{"is_sidechain": [false], "free_energy": -9.012, "intermolecular_energy": -11.646, "internal_energy": -0.499}

$$$$
cand_044_out
     RDKit          3D

 41 43  0  0  0  0  0  0  0  0999 V2000
  181.4610   14.3210   41.6510 C   0  0  0  0  0  0  0  0  0  0  0  0
  181.4770   15.8000   42.0030 C   0  0  0  0  0  0  0  0  0  0  0  0
  181.9520   16.0270   43.4390 C   0  0  0  0  0  0  0  0  0  0  0  0
  180.9940   16.9030   44.2180 C   0  0  0  0  0  0  0  0  0  0  0  0
  181.1380   18.2970   44.1180 C   0  0  0  0  0  0  0  0  0  0  0  0
  180.2980   19.1610   44.8240 C   0  0  0  0  0  0  0  0  0  0  0  0
  179.2980   18.6580   45.6610 C   0  0  0  0  0  0  0  0  0  0  0  0
  178.3790   19.5500   46.4010 C   0  0  0  0  0  0  0  0  0  0  0  0
  178.9820   20.7410   46.7940 O   0  0  0  0  0  0  0  0  0  0  0  0
  178.2400   21.6630   47.4860 C   0  0  0  0  0  0  0  0  0  0  0  0
  178.8880   22.8390   47.8680 C   0  0  0  0  0  0  0  0  0  0  0  0
  178.1900   23.8210   48.5740 C   0  0  0  0  0  0  0  0  0  0  0  0
  176.8460   23.6280   48.8980 C   0  0  0  0  0  0  0  0  0  0  0  0
  176.2020   22.4530   48.5150 C   0  0  0  0  0  0  0  0  0  0  0  0
  174.8840   22.3290   48.8630 O   0  0  0  0  0  0  0  0  0  0  0  0
  176.9010   21.4720   47.8080 C   0  0  0  0  0  0  0  0  0  0  0  0
  176.2620   20.2250   47.3850 C   0  0  0  0  0  0  0  0  0  0  0  0
  175.0810   19.9840   47.6270 O   0  0  0  0  0  0  0  0  0  0  0  0
  177.0920   19.2460   46.6460 C   0  0  0  0  0  0  0  0  0  0  0  0
  176.4730   18.0780   46.2380 O   0  0  0  0  0  0  0  0  0  0  0  0
  179.1500   17.2660   45.7580 C   0  0  0  0  0  0  0  0  0  0  0  0
  179.9890   16.3770   45.0550 C   0  0  0  0  0  0  0  0  0  0  0  0
  179.7580   14.8900   45.2000 C   0  0  0  0  0  0  0  0  0  0  0  0
  179.2370   14.3150   44.0800 F   0  0  0  0  0  0  0  0  0  0  0  0
  180.8950   14.1850   45.4720 F   0  0  0  0  0  0  0  0  0  0  0  0
  181.4545   13.7242   42.5750 H   0  0  0  0  0  0  0  0  0  0  0  0
  180.5603   14.0941   41.0617 H   0  0  0  0  0  0  0  0  0  0  0  0
  182.3565   14.0746   41.0617 H   0  0  0  0  0  0  0  0  0  0  0  0
  182.1559   16.3244   41.3144 H   0  0  0  0  0  0  0  0  0  0  0  0
  180.4519   16.1885   41.9120 H   0  0  0  0  0  0  0  0  0  0  0  0
  182.0349   15.0535   43.9444 H   0  0  0  0  0  0  0  0  0  0  0  0
  182.9257   16.5372   43.3996 H   0  0  0  0  0  0  0  0  0  0  0  0
  181.9252   18.7147   43.4731 H   0  0  0  0  0  0  0  0  0  0  0  0
  180.4247   20.2487   44.7203 H   0  0  0  0  0  0  0  0  0  0  0  0
  179.9471   22.9919   47.6132 H   0  0  0  0  0  0  0  0  0  0  0  0
  178.7000   24.7479   48.8752 H   0  0  0  0  0  0  0  0  0  0  0  0
  176.2965   24.4016   49.4544 H   0  0  0  0  0  0  0  0  0  0  0  0
  174.6000   21.5910   49.3660 H   0  0  0  0  0  0  0  0  0  0  0  0
  176.6150   17.7500   45.3730 H   0  0  0  0  0  0  0  0  0  0  0  0
  178.3568   16.8566   46.4008 H   0  0  0  0  0  0  0  0  0  0  0  0
  179.0516   14.8371   46.0415 H   0  0  0  0  0  0  0  0  0  0  0  0
  1  2  1  0
  2  3  1  0
  3  4  1  0
  4  5  2  0
  5  6  1  0
  6  7  2  0
  7  8  1  0
  8  9  1  0
  9 10  1  0
 10 11  2  0
 11 12  1  0
 12 13  2  0
 13 14  1  0
 14 15  1  0
 14 16  2  0
 16 17  1  0
 17 18  2  0
 17 19  1  0
 19 20  1  0
  7 21  1  0
 21 22  2  0
 22 23  1  0
 23 24  1  0
 23 25  1  0
 22  4  1  0
 19  8  2  0
 16 10  1  0
  1 26  1  0
  1 27  1  0
  1 28  1  0
  2 29  1  0
  2 30  1  0
  3 31  1  0
  3 32  1  0
  5 33  1  0
  6 34  1  0
 11 35  1  0
 12 36  1  0
 13 37  1  0
 15 38  1  0
 20 39  1  0
 21 40  1  0
 23 41  1  0
M  END
>  <meeko>  (2) 
{"is_sidechain": [false], "free_energy": -7.824, "intermolecular_energy": -10.264, "internal_energy": -0.345}

$$$$
cand_044_out
     RDKit          3D

 41 43  0  0  0  0  0  0  0  0999 V2000
  177.8220   24.0080   47.4940 C   0  0  0  0  0  0  0  0  0  0  0  0
  176.6850   23.7520   48.4710 C   0  0  0  0  0  0  0  0  0  0  0  0
  176.8260   22.3870   49.1480 C   0  0  0  0  0  0  0  0  0  0  0  0
  177.5600   21.3960   48.2710 C   0  0  0  0  0  0  0  0  0  0  0  0
  178.9620   21.3570   48.3410 C   0  0  0  0  0  0  0  0  0  0  0  0
  179.7000   20.4780   47.5450 C   0  0  0  0  0  0  0  0  0  0  0  0
  179.0600   19.6200   46.6470 C   0  0  0  0  0  0  0  0  0  0  0  0
  179.8150   18.6610   45.8110 C   0  0  0  0  0  0  0  0  0  0  0  0
  179.2560   17.3880   45.8110 O   0  0  0  0  0  0  0  0  0  0  0  0
  179.8540   16.4010   45.0710 C   0  0  0  0  0  0  0  0  0  0  0  0
  179.2650   15.1360   45.1080 C   0  0  0  0  0  0  0  0  0  0  0  0
  179.8240   14.0860   44.3760 C   0  0  0  0  0  0  0  0  0  0  0  0
  180.9690   14.3000   43.6070 C   0  0  0  0  0  0  0  0  0  0  0  0
  181.5540   15.5640   43.5710 C   0  0  0  0  0  0  0  0  0  0  0  0
  182.6740   15.7050   42.7970 O   0  0  0  0  0  0  0  0  0  0  0  0
  180.9950   16.6130   44.3040 C   0  0  0  0  0  0  0  0  0  0  0  0
  181.5770   17.9570   44.2930 C   0  0  0  0  0  0  0  0  0  0  0  0
  182.5810   18.2260   43.6360 O   0  0  0  0  0  0  0  0  0  0  0  0
  180.9120   18.9990   45.1080 C   0  0  0  0  0  0  0  0  0  0  0  0
  181.4620   20.2670   45.0780 O   0  0  0  0  0  0  0  0  0  0  0  0
  177.6590   19.6530   46.5790 C   0  0  0  0  0  0  0  0  0  0  0  0
  176.8950   20.5350   47.3720 C   0  0  0  0  0  0  0  0  0  0  0  0
  175.3890   20.5030   47.2530 C   0  0  0  0  0  0  0  0  0  0  0  0
  174.9080   21.3260   46.2800 F   0  0  0  0  0  0  0  0  0  0  0  0
  174.8920   19.2660   46.9570 F   0  0  0  0  0  0  0  0  0  0  0  0
  178.7461   24.2161   48.0532 H   0  0  0  0  0  0  0  0  0  0  0  0
  177.9684   23.1203   46.8611 H   0  0  0  0  0  0  0  0  0  0  0  0
  177.5739   24.8728   46.8611 H   0  0  0  0  0  0  0  0  0  0  0  0
  176.6927   24.5363   49.2422 H   0  0  0  0  0  0  0  0  0  0  0  0
  175.7384   23.7640   47.9108 H   0  0  0  0  0  0  0  0  0  0  0  0
  177.3840   22.5119   50.0877 H   0  0  0  0  0  0  0  0  0  0  0  0
  175.8162   21.9935   49.3361 H   0  0  0  0  0  0  0  0  0  0  0  0
  179.4878   22.0300   49.0343 H   0  0  0  0  0  0  0  0  0  0  0  0
  180.7969   20.4611   47.6260 H   0  0  0  0  0  0  0  0  0  0  0  0
  178.3620   14.9663   45.7128 H   0  0  0  0  0  0  0  0  0  0  0  0
  179.3611   13.0886   44.4056 H   0  0  0  0  0  0  0  0  0  0  0  0
  181.4085   13.4726   43.0307 H   0  0  0  0  0  0  0  0  0  0  0  0
  183.2910   15.0010   42.7330 H   0  0  0  0  0  0  0  0  0  0  0  0
  180.9760   20.9800   44.7140 H   0  0  0  0  0  0  0  0  0  0  0  0
  177.1415   18.9717   45.8876 H   0  0  0  0  0  0  0  0  0  0  0  0
  175.0618   20.8313   48.2506 H   0  0  0  0  0  0  0  0  0  0  0  0
  1  2  1  0
  2  3  1  0
  3  4  1  0
  4  5  2  0
  5  6  1  0
  6  7  2  0
  7  8  1  0
  8  9  1  0
  9 10  1  0
 10 11  2  0
 11 12  1  0
 12 13  2  0
 13 14  1  0
 14 15  1  0
 14 16  2  0
 16 17  1  0
 17 18  2  0
 17 19  1  0
 19 20  1  0
  7 21  1  0
 21 22  2  0
 22 23  1  0
 23 24  1  0
 23 25  1  0
 22  4  1  0
 19  8  2  0
 16 10  1  0
  1 26  1  0
  1 27  1  0
  1 28  1  0
  2 29  1  0
  2 30  1  0
  3 31  1  0
  3 32  1  0
  5 33  1  0
  6 34  1  0
 11 35  1  0
 12 36  1  0
 13 37  1  0
 15 38  1  0
 20 39  1  0
 21 40  1  0
 23 41  1  0
M  END
>  <meeko>  (3) 
{"is_sidechain": [false], "free_energy": -7.527, "intermolecular_energy": -10.021, "internal_energy": -0.205}

$$$$
cand_044_out
     RDKit          3D

 41 43  0  0  0  0  0  0  0  0999 V2000
  176.1540   20.6660   50.3180 C   0  0  0  0  0  0  0  0  0  0  0  0
  175.2030   21.6000   49.5860 C   0  0  0  0  0  0  0  0  0  0  0  0
  175.9020   22.3110   48.4260 C   0  0  0  0  0  0  0  0  0  0  0  0
  176.8660   21.3960   47.7010 C   0  0  0  0  0  0  0  0  0  0  0  0
  176.4070   20.1280   47.3060 C   0  0  0  0  0  0  0  0  0  0  0  0
  177.2500   19.2290   46.6490 C   0  0  0  0  0  0  0  0  0  0  0  0
  178.5790   19.5640   46.3780 C   0  0  0  0  0  0  0  0  0  0  0  0
  179.4860   18.6410   45.6620 C   0  0  0  0  0  0  0  0  0  0  0  0
  179.0500   17.3200   45.6980 O   0  0  0  0  0  0  0  0  0  0  0  0
  179.7960   16.3590   45.0670 C   0  0  0  0  0  0  0  0  0  0  0  0
  179.3270   15.0460   45.1360 C   0  0  0  0  0  0  0  0  0  0  0  0
  180.0390   14.0180   44.5150 C   0  0  0  0  0  0  0  0  0  0  0  0
  181.2190   14.3010   43.8240 C   0  0  0  0  0  0  0  0  0  0  0  0
  181.6850   15.6130   43.7570 C   0  0  0  0  0  0  0  0  0  0  0  0
  182.8460   15.8200   43.0640 O   0  0  0  0  0  0  0  0  0  0  0  0
  180.9720   16.6400   44.3790 C   0  0  0  0  0  0  0  0  0  0  0  0
  181.4260   18.0310   44.3310 C   0  0  0  0  0  0  0  0  0  0  0  0
  182.4510   18.3620   43.7380 O   0  0  0  0  0  0  0  0  0  0  0  0
  180.6010   19.0450   45.0270 C   0  0  0  0  0  0  0  0  0  0  0  0
  181.0310   20.3580   44.9620 O   0  0  0  0  0  0  0  0  0  0  0  0
  179.0370   20.8320   46.7670 C   0  0  0  0  0  0  0  0  0  0  0  0
  178.2030   21.7540   47.4330 C   0  0  0  0  0  0  0  0  0  0  0  0
  178.7650   23.1060   47.8080 C   0  0  0  0  0  0  0  0  0  0  0  0
  178.1960   24.1350   47.1190 F   0  0  0  0  0  0  0  0  0  0  0  0
  178.6000   23.4200   49.1260 F   0  0  0  0  0  0  0  0  0  0  0  0
  176.0271   20.7906   51.4035 H   0  0  0  0  0  0  0  0  0  0  0  0
  175.9321   19.6251   50.0400 H   0  0  0  0  0  0  0  0  0  0  0  0
  177.1907   20.9067   50.0400 H   0  0  0  0  0  0  0  0  0  0  0  0
  174.3597   21.0145   49.1910 H   0  0  0  0  0  0  0  0  0  0  0  0
  174.8502   22.3617   50.2969 H   0  0  0  0  0  0  0  0  0  0  0  0
  175.1408   22.6619   47.7136 H   0  0  0  0  0  0  0  0  0  0  0  0
  176.4768   23.1530   48.8392 H   0  0  0  0  0  0  0  0  0  0  0  0
  175.3670   19.8388   47.5177 H   0  0  0  0  0  0  0  0  0  0  0  0
  176.8633   18.2462   46.3415 H   0  0  0  0  0  0  0  0  0  0  0  0
  178.3972   14.8215   45.6792 H   0  0  0  0  0  0  0  0  0  0  0  0
  179.6698   12.9833   44.5702 H   0  0  0  0  0  0  0  0  0  0  0  0
  181.7791   13.4910   43.3340 H   0  0  0  0  0  0  0  0  0  0  0  0
  183.3140   16.6270   43.1650 H   0  0  0  0  0  0  0  0  0  0  0  0
  181.8010   20.6220   45.4240 H   0  0  0  0  0  0  0  0  0  0  0  0
  180.0767   21.1152   46.5461 H   0  0  0  0  0  0  0  0  0  0  0  0
  179.8313   22.9999   47.5597 H   0  0  0  0  0  0  0  0  0  0  0  0
  1  2  1  0
  2  3  1  0
  3  4  1  0
  4  5  2  0
  5  6  1  0
  6  7  2  0
  7  8  1  0
  8  9  1  0
  9 10  1  0
 10 11  2  0
 11 12  1  0
 12 13  2  0
 13 14  1  0
 14 15  1  0
 14 16  2  0
 16 17  1  0
 17 18  2  0
 17 19  1  0
 19 20  1  0
  7 21  1  0
 21 22  2  0
 22 23  1  0
 23 24  1  0
 23 25  1  0
 22  4  1  0
 19  8  2  0
 16 10  1  0
  1 26  1  0
  1 27  1  0
  1 28  1  0
  2 29  1  0
  2 30  1  0
  3 31  1  0
  3 32  1  0
  5 33  1  0
  6 34  1  0
 11 35  1  0
 12 36  1  0
 13 37  1  0
 15 38  1  0
 20 39  1  0
 21 40  1  0
 23 41  1  0
M  END
>  <meeko>  (4) 
{"is_sidechain": [false], "free_energy": -6.689, "intermolecular_energy": -9.361, "internal_energy": 0.218}

$$$$
