cand_043_out
     RDKit          3D

 44 46  0  0  0  0  0  0  0  0999 V2000
  179.2450   15.1520   45.4440 C   0  0  0  0  0  0  0  0  0  0  0  0
  179.9350   16.4110   44.9860 C   0  0  0  0  0  0  0  0  0  0  0  0
  179.7250   17.5470   45.8070 C   0  0  0  0  0  0  0  0  0  0  0  0
  180.2950   18.7940   45.5300 C   0  0  0  0  0  0  0  0  0  0  0  0
  180.0110   19.9530   46.4030 C   0  0  0  0  0  0  0  0  0  0  0  0
  178.6730   20.3290   46.3840 O   0  0  0  0  0  0  0  0  0  0  0  0
  178.2720   21.3930   47.1500 C   0  0  0  0  0  0  0  0  0  0  0  0
  176.9230   21.7450   47.0890 C   0  0  0  0  0  0  0  0  0  0  0  0
  176.4480   22.8180   47.8470 C   0  0  0  0  0  0  0  0  0  0  0  0
  177.3210   23.5390   48.6640 C   0  0  0  0  0  0  0  0  0  0  0  0
  178.6670   23.1850   48.7230 C   0  0  0  0  0  0  0  0  0  0  0  0
  179.4660   23.9330   49.5440 O   0  0  0  0  0  0  0  0  0  0  0  0
  179.1420   22.1120   47.9640 C   0  0  0  0  0  0  0  0  0  0  0  0
  180.5480   21.7080   47.9970 C   0  0  0  0  0  0  0  0  0  0  0  0
  181.3750   22.2890   48.6970 O   0  0  0  0  0  0  0  0  0  0  0  0
  180.9520   20.5620   47.1500 C   0  0  0  0  0  0  0  0  0  0  0  0
  182.2800   20.1820   47.1980 O   0  0  0  0  0  0  0  0  0  0  0  0
  181.0850   18.9010   44.3920 C   0  0  0  0  0  0  0  0  0  0  0  0
  181.3190   17.7860   43.5770 C   0  0  0  0  0  0  0  0  0  0  0  0
  180.7770   16.5070   43.8490 C   0  0  0  0  0  0  0  0  0  0  0  0
  181.1040   15.3340   42.8850 C   0  0  0  0  0  0  0  0  0  0  0  0
  180.5800   15.5670   41.4500 C   0  0  0  0  0  0  0  0  0  0  0  0
  180.4700   13.9820   43.3250 C   0  0  0  0  0  0  0  0  0  0  0  0
  182.6300   15.1100   42.8590 C   0  0  0  0  0  0  0  0  0  0  0  0
  179.2286   15.1221   46.5435 H   0  0  0  0  0  0  0  0  0  0  0  0
  178.2137   15.1391   45.0614 H   0  0  0  0  0  0  0  0  0  0  0  0
  179.7890   14.2758   45.0614 H   0  0  0  0  0  0  0  0  0  0  0  0
  179.0881   17.4439   46.6979 H   0  0  0  0  0  0  0  0  0  0  0  0
  176.2346   21.1783   46.4449 H   0  0  0  0  0  0  0  0  0  0  0  0
  175.3846   23.0953   47.8001 H   0  0  0  0  0  0  0  0  0  0  0  0
  176.9468   24.3846   49.2597 H   0  0  0  0  0  0  0  0  0  0  0  0
  179.4770   24.8670   49.4630 H   0  0  0  0  0  0  0  0  0  0  0  0
  182.9410   20.8160   47.3920 H   0  0  0  0  0  0  0  0  0  0  0  0
  181.5313   19.8712   44.1284 H   0  0  0  0  0  0  0  0  0  0  0  0
  181.9521   17.9099   42.6860 H   0  0  0  0  0  0  0  0  0  0  0  0
  179.5757   16.0136   41.4944 H   0  0  0  0  0  0  0  0  0  0  0  0
  181.2606   16.2473   40.9171 H   0  0  0  0  0  0  0  0  0  0  0  0
  180.5307   14.6060   40.9171 H   0  0  0  0  0  0  0  0  0  0  0  0
  180.4451   13.9290   44.4234 H   0  0  0  0  0  0  0  0  0  0  0  0
  179.4453   13.9122   42.9312 H   0  0  0  0  0  0  0  0  0  0  0  0
  181.0716   13.1495   42.9312 H   0  0  0  0  0  0  0  0  0  0  0  0
  183.0100   15.0542   43.8898 H   0  0  0  0  0  0  0  0  0  0  0  0
  182.8536   14.1694   42.3343 H   0  0  0  0  0  0  0  0  0  0  0  0
  183.1145   15.9466   42.3343 H   0  0  0  0  0  0  0  0  0  0  0  0
  1  2  1  0
  2  3  2  0
  3  4  1  0
  4  5  1  0
  5  6  1  0
  6  7  1  0
  7  8  2  0
  8  9  1  0
  9 10  2  0
 10 11  1  0
 11 12  1  0
 11 13  2  0
 13 14  1  0
 14 15  2  0
 14 16  1  0
 16 17  1  0
  4 18  2  0
 18 19  1  0
 19 20  2  0
 20 21  1  0
 21 22  1  0
 21 23  1  0
 21 24  1  0
 20  2  1  0
 16  5  2  0
 13  7  1  0
  1 25  1  0
  1 26  1  0
  1 27  1  0
  3 28  1  0
  8 29  1  0
  9 30  1  0
 10 31  1  0
 12 32  1  0
 17 33  1  0
 18 34  1  0
 19 35  1  0
 22 36  1  0
 22 37  1  0
 22 38  1  0
 23 39  1  0
 23 40  1  0
 23 41  1  0
 24 42  1  0
 24 43  1  0
 24 44  1  0
M  END
>  <meeko>  (1) 
{"is_sidechain": [false], "free_energy": -8.68, "intermolecular_energy": -10.202, "internal_energy": 0.368}

$$$$
cand_043_out
     RDKit          3D

 44 46  0  0  0  0  0  0  0  0999 V2000
  174.9540   19.7240   47.1750 C   0  0  0  0  0  0  0  0  0  0  0  0
  176.4110   20.0950   47.2810 C   0  0  0  0  0  0  0  0  0  0  0  0
  177.2970   19.2840   46.5290 C   0  0  0  0  0  0  0  0  0  0  0  0
  178.6800   19.4940   46.5110 C   0  0  0  0  0  0  0  0  0  0  0  0
  179.5590   18.5930   45.7360 C   0  0  0  0  0  0  0  0  0  0  0  0
  179.1130   17.2760   45.7290 O   0  0  0  0  0  0  0  0  0  0  0  0
  179.8370   16.3340   45.0460 C   0  0  0  0  0  0  0  0  0  0  0  0
  179.3610   15.0230   45.0780 C   0  0  0  0  0  0  0  0  0  0  0  0
  180.0510   14.0140   44.4010 C   0  0  0  0  0  0  0  0  0  0  0  0
  181.2150   14.3160   43.6930 C   0  0  0  0  0  0  0  0  0  0  0  0
  181.6890   15.6260   43.6620 C   0  0  0  0  0  0  0  0  0  0  0  0
  182.8350   15.8520   42.9510 O   0  0  0  0  0  0  0  0  0  0  0  0
  180.9990   16.6340   44.3410 C   0  0  0  0  0  0  0  0  0  0  0  0
  181.4620   18.0230   44.3350 C   0  0  0  0  0  0  0  0  0  0  0  0
  182.4740   18.3680   43.7290 O   0  0  0  0  0  0  0  0  0  0  0  0
  180.6630   19.0150   45.0910 C   0  0  0  0  0  0  0  0  0  0  0  0
  181.1030   20.3250   45.0670 O   0  0  0  0  0  0  0  0  0  0  0  0
  179.1810   20.5380   47.2780 C   0  0  0  0  0  0  0  0  0  0  0  0
  178.3210   21.3610   48.0150 C   0  0  0  0  0  0  0  0  0  0  0  0
  176.9170   21.1890   48.0300 C   0  0  0  0  0  0  0  0  0  0  0  0
  176.0500   22.1620   48.8750 C   0  0  0  0  0  0  0  0  0  0  0  0
  175.6080   21.5580   50.2270 C   0  0  0  0  0  0  0  0  0  0  0  0
  174.7250   22.5740   48.1710 C   0  0  0  0  0  0  0  0  0  0  0  0
  176.8390   23.4660   49.1140 C   0  0  0  0  0  0  0  0  0  0  0  0
  174.5289   19.6158   48.1837 H   0  0  0  0  0  0  0  0  0  0  0  0
  174.4133   20.5131   46.6320 H   0  0  0  0  0  0  0  0  0  0  0  0
  174.8565   18.7724   46.6320 H   0  0  0  0  0  0  0  0  0  0  0  0
  176.8807   18.4564   45.9358 H   0  0  0  0  0  0  0  0  0  0  0  0
  178.4434   14.7839   45.6356 H   0  0  0  0  0  0  0  0  0  0  0  0
  179.6761   12.9802   44.4262 H   0  0  0  0  0  0  0  0  0  0  0  0
  181.7575   13.5212   43.1602 H   0  0  0  0  0  0  0  0  0  0  0  0
  183.2930   16.6630   43.0460 H   0  0  0  0  0  0  0  0  0  0  0  0
  181.9690   20.5330   45.3580 H   0  0  0  0  0  0  0  0  0  0  0  0
  180.2654   20.7202   47.3067 H   0  0  0  0  0  0  0  0  0  0  0  0
  178.7566   22.1780   48.6090 H   0  0  0  0  0  0  0  0  0  0  0  0
  176.0390   22.1469   51.0501 H   0  0  0  0  0  0  0  0  0  0  0  0
  174.5104   21.5790   50.2966 H   0  0  0  0  0  0  0  0  0  0  0  0
  175.9600   20.5182   50.2966 H   0  0  0  0  0  0  0  0  0  0  0  0
  173.9647   22.8104   48.9300 H   0  0  0  0  0  0  0  0  0  0  0  0
  174.9035   23.4591   47.5427 H   0  0  0  0  0  0  0  0  0  0  0  0
  174.3701   21.7438   47.5427 H   0  0  0  0  0  0  0  0  0  0  0  0
  176.9434   23.6385   50.1954 H   0  0  0  0  0  0  0  0  0  0  0  0
  177.8365   23.3797   48.6585 H   0  0  0  0  0  0  0  0  0  0  0  0
  176.2997   24.3096   48.6585 H   0  0  0  0  0  0  0  0  0  0  0  0
  1  2  1  0
  2  3  2  0
  3  4  1  0
  4  5  1  0
  5  6  1  0
  6  7  1  0
  7  8  2  0
  8  9  1  0
  9 10  2  0
 10 11  1  0
 11 12  1  0
 11 13  2  0
 13 14  1  0
 14 15  2  0
 14 16  1  0
 16 17  1  0
  4 18  2  0
 18 19  1  0
 19 20  2  0
 20 21  1  0
 21 22  1  0
 21 23  1  0
 21 24  1  0
 20  2  1  0
 16  5  2  0
 13  7  1  0
  1 25  1  0
  1 26  1  0
  1 27  1  0
  3 28  1  0
  8 29  1  0
  9 30  1  0
 10 31  1  0
 12 32  1  0
 17 33  1  0
 18 34  1  0
 19 35  1  0
 22 36  1  0
 22 37  1  0
 22 38  1  0
 23 39  1  0
 23 40  1  0
 23 41  1  0
 24 42  1  0
 24 43  1  0
 24 44  1  0
M  END
>  <meeko>  (2) 
{"is_sidechain": [false], "free_energy": -6.974, "intermolecular_energy": -8.035, "internal_energy": 0.207}

$$$$
cand_043_out
     RDKit          3D

 44 46  0  0  0  0  0  0  0  0999 V2000
  182.6150   17.7880   43.1110 C   0  0  0  0  0  0  0  0  0  0  0  0
  181.4440   17.6200   44.0440 C   0  0  0  0  0  0  0  0  0  0  0  0
  181.1400   18.7520   44.8410 C   0  0  0  0  0  0  0  0  0  0  0  0
  180.0830   18.7680   45.7560 C   0  0  0  0  0  0  0  0  0  0  0  0
  179.8340   19.9660   46.5860 C   0  0  0  0  0  0  0  0  0  0  0  0
  178.4950   20.3390   46.6090 O   0  0  0  0  0  0  0  0  0  0  0  0
  178.1250   21.4380   47.3420 C   0  0  0  0  0  0  0  0  0  0  0  0
  176.7740   21.7850   47.3240 C   0  0  0  0  0  0  0  0  0  0  0  0
  176.3300   22.8920   48.0510 C   0  0  0  0  0  0  0  0  0  0  0  0
  177.2350   23.6510   48.7940 C   0  0  0  0  0  0  0  0  0  0  0  0
  178.5830   23.3020   48.8100 C   0  0  0  0  0  0  0  0  0  0  0  0
  179.4160   24.0890   49.5580 O   0  0  0  0  0  0  0  0  0  0  0  0
  179.0280   22.1950   48.0810 C   0  0  0  0  0  0  0  0  0  0  0  0
  180.4350   21.7950   48.0700 C   0  0  0  0  0  0  0  0  0  0  0  0
  181.2910   22.4080   48.7050 O   0  0  0  0  0  0  0  0  0  0  0  0
  180.8050   20.6110   47.2610 C   0  0  0  0  0  0  0  0  0  0  0  0
  182.1350   20.2340   47.2680 O   0  0  0  0  0  0  0  0  0  0  0  0
  179.3220   17.6120   45.8800 C   0  0  0  0  0  0  0  0  0  0  0  0
  179.5960   16.4880   45.0900 C   0  0  0  0  0  0  0  0  0  0  0  0
  180.6410   16.4540   44.1370 C   0  0  0  0  0  0  0  0  0  0  0  0
  180.8570   15.1600   43.3060 C   0  0  0  0  0  0  0  0  0  0  0  0
  182.3500   14.8090   43.1110 C   0  0  0  0  0  0  0  0  0  0  0  0
  180.2790   15.2510   41.8640 C   0  0  0  0  0  0  0  0  0  0  0  0
  180.1270   13.9880   43.9940 C   0  0  0  0  0  0  0  0  0  0  0  0
  183.5357   17.9201   43.6983 H   0  0  0  0  0  0  0  0  0  0  0  0
  182.7097   16.8942   42.4768 H   0  0  0  0  0  0  0  0  0  0  0  0
  182.4546   18.6723   42.4768 H   0  0  0  0  0  0  0  0  0  0  0  0
  181.7606   19.6541   44.7354 H   0  0  0  0  0  0  0  0  0  0  0  0
  176.0596   21.1879   46.7383 H   0  0  0  0  0  0  0  0  0  0  0  0
  175.2648   23.1660   48.0378 H   0  0  0  0  0  0  0  0  0  0  0  0
  176.8844   24.5229   49.3657 H   0  0  0  0  0  0  0  0  0  0  0  0
  179.4610   23.9730   50.4870 H   0  0  0  0  0  0  0  0  0  0  0  0
  182.4480   19.6110   46.6430 H   0  0  0  0  0  0  0  0  0  0  0  0
  178.4961   17.5791   46.6058 H   0  0  0  0  0  0  0  0  0  0  0  0
  178.9707   15.5919   45.2163 H   0  0  0  0  0  0  0  0  0  0  0  0
  182.8314   14.6958   44.0936 H   0  0  0  0  0  0  0  0  0  0  0  0
  182.4349   13.8664   42.5503 H   0  0  0  0  0  0  0  0  0  0  0  0
  182.8460   15.6150   42.5503 H   0  0  0  0  0  0  0  0  0  0  0  0
  179.1935   15.4219   41.9142 H   0  0  0  0  0  0  0  0  0  0  0  0
  180.7572   16.0849   41.3293 H   0  0  0  0  0  0  0  0  0  0  0  0
  180.4778   14.3105   41.3293 H   0  0  0  0  0  0  0  0  0  0  0  0
  180.1980   14.1020   45.0858 H   0  0  0  0  0  0  0  0  0  0  0  0
  179.0689   13.9880   43.6934 H   0  0  0  0  0  0  0  0  0  0  0  0
  180.5936   13.0383   43.6934 H   0  0  0  0  0  0  0  0  0  0  0  0
  1  2  1  0
  2  3  2  0
  3  4  1  0
  4  5  1  0
  5  6  1  0
  6  7  1  0
  7  8  2  0
  8  9  1  0
  9 10  2  0
 10 11  1  0
 11 12  1  0
 11 13  2  0
 13 14  1  0
 14 15  2  0
 14 16  1  0
 16 17  1  0
  4 18  2  0
 18 19  1  0
 19 20  2  0
 20 21  1  0
 21 22  1  0
 21 23  1  0
 21 24  1  0
 20  2  1  0
 16  5  2  0
 13  7  1  0
  1 25  1  0
  1 26  1  0
  1 27  1  0
  3 28  1  0
  8 29  1  0
  9 30  1  0
 10 31  1  0
 12 32  1  0
 17 33  1  0
 18 34  1  0
 19 35  1  0
 22 36  1  0
 22 37  1  0
 22 38  1  0
 23 39  1  0
 23 40  1  0
 23 41  1  0
 24 42  1  0
 24 43  1  0
 24 44  1  0
M  END
>  <meeko>  (3) 
{"is_sidechain": [false], "free_energy": -6.917, "intermolecular_energy": -7.935, "internal_energy": 0.174}

$$$$
cand_043_out
     RDKit          3D

 44 46  0  0  0  0  0  0  0  0999 V2000
  185.2990   24.3720   47.5990 C   0  0  0  0  0  0  0  0  0  0  0  0
  184.7970   23.4390   46.5270 C   0  0  0  0  0  0  0  0  0  0  0  0
  183.5180   22.8770   46.7680 C   0  0  0  0  0  0  0  0  0  0  0  0
  182.9020   21.9950   45.8740 C   0  0  0  0  0  0  0  0  0  0  0  0
  181.5820   21.4120   46.1950 C   0  0  0  0  0  0  0  0  0  0  0  0
  180.7580   22.2900   46.8890 O   0  0  0  0  0  0  0  0  0  0  0  0
  179.5020   21.8750   47.2510 C   0  0  0  0  0  0  0  0  0  0  0  0
  178.7150   22.7840   47.9600 C   0  0  0  0  0  0  0  0  0  0  0  0
  177.4240   22.4250   48.3570 C   0  0  0  0  0  0  0  0  0  0  0  0
  176.9220   21.1610   48.0470 C   0  0  0  0  0  0  0  0  0  0  0  0
  177.7100   20.2560   47.3400 C   0  0  0  0  0  0  0  0  0  0  0  0
  177.1560   19.0340   47.0690 O   0  0  0  0  0  0  0  0  0  0  0  0
  179.0010   20.6140   46.9430 C   0  0  0  0  0  0  0  0  0  0  0  0
  179.8620   19.6940   46.1990 C   0  0  0  0  0  0  0  0  0  0  0  0
  179.4890   18.5660   45.8830 O   0  0  0  0  0  0  0  0  0  0  0  0
  181.2170   20.1670   45.8320 C   0  0  0  0  0  0  0  0  0  0  0  0
  182.0170   19.2940   45.1190 O   0  0  0  0  0  0  0  0  0  0  0  0
  183.5960   21.6640   44.7170 C   0  0  0  0  0  0  0  0  0  0  0  0
  184.8530   22.2210   44.4530 C   0  0  0  0  0  0  0  0  0  0  0  0
  185.4880   23.1360   45.3250 C   0  0  0  0  0  0  0  0  0  0  0  0
  186.8800   23.7040   44.9360 C   0  0  0  0  0  0  0  0  0  0  0  0
  186.9030   25.2470   44.8590 C   0  0  0  0  0  0  0  0  0  0  0  0
  187.3680   23.2290   43.5370 C   0  0  0  0  0  0  0  0  0  0  0  0
  187.9300   23.2110   45.9540 C   0  0  0  0  0  0  0  0  0  0  0  0
  185.0716   23.9494   48.5888 H   0  0  0  0  0  0  0  0  0  0  0  0
  186.3868   24.4982   47.4953 H   0  0  0  0  0  0  0  0  0  0  0  0
  184.8049   25.3493   47.4953 H   0  0  0  0  0  0  0  0  0  0  0  0
  182.9892   23.1451   47.6945 H   0  0  0  0  0  0  0  0  0  0  0  0
  179.1101   23.7808   48.2057 H   0  0  0  0  0  0  0  0  0  0  0  0
  176.8024   23.1407   48.9151 H   0  0  0  0  0  0  0  0  0  0  0  0
  175.9058   20.8796   48.3603 H   0  0  0  0  0  0  0  0  0  0  0  0
  177.6950   18.3360   46.7520 H   0  0  0  0  0  0  0  0  0  0  0  0
  182.9010   19.1440   45.3890 H   0  0  0  0  0  0  0  0  0  0  0  0
  183.1531   20.9566   44.0005 H   0  0  0  0  0  0  0  0  0  0  0  0
  185.3702   21.9341   43.5255 H   0  0  0  0  0  0  0  0  0  0  0  0
  186.9092   25.6648   45.8765 H   0  0  0  0  0  0  0  0  0  0  0  0
  187.8061   25.5739   44.3228 H   0  0  0  0  0  0  0  0  0  0  0  0
  186.0100   25.6007   44.3228 H   0  0  0  0  0  0  0  0  0  0  0  0
  188.1512   22.4667   43.6612 H   0  0  0  0  0  0  0  0  0  0  0  0
  186.5224   22.7987   42.9804 H   0  0  0  0  0  0  0  0  0  0  0  0
  187.7754   24.0859   42.9804 H   0  0  0  0  0  0  0  0  0  0  0  0
  187.5602   23.3846   46.9753 H   0  0  0  0  0  0  0  0  0  0  0  0
  188.1073   22.1355   45.8061 H   0  0  0  0  0  0  0  0  0  0  0  0
  188.8708   23.7615   45.8061 H   0  0  0  0  0  0  0  0  0  0  0  0
  1  2  1  0
  2  3  2  0
  3  4  1  0
  4  5  1  0
  5  6  1  0
  6  7  1  0
  7  8  2  0
  8  9  1  0
  9 10  2  0
 10 11  1  0
 11 12  1  0
 11 13  2  0
 13 14  1  0
 14 15  2  0
 14 16  1  0
 16 17  1  0
  4 18  2  0
 18 19  1  0
 19 20  2  0
 20 21  1  0
 21 22  1  0
 21 23  1  0
 21 24  1  0
 20  2  1  0
 16  5  2  0
 13  7  1  0
  1 25  1  0
  1 26  1  0
  1 27  1  0
  3 28  1  0
  8 29  1  0
  9 30  1  0
 10 31  1  0
 12 32  1  0
 17 33  1  0
 18 34  1  0
 19 35  1  0
 22 36  1  0
 22 37  1  0
 22 38  1  0
 23 39  1  0
 23 40  1  0
 23 41  1  0
 24 42  1  0
 24 43  1  0
 24 44  1  0
M  END
>  <meeko>  (4) 
{"is_sidechain": [false], "free_energy": -5.77, "intermolecular_energy": -6.596, "internal_energy": 0.182}

$$$$
