cand_039_out
     RDKit          3D

 41 43  0  0  0  0  0  0  0  0999 V2000
  181.2720   14.7710   41.2120 C   0  0  0  0  0  0  0  0  0  0  0  0
  182.0160   14.8560   42.5370 C   0  0  0  0  0  0  0  0  0  0  0  0
  181.3760   15.8470   43.4820 C   0  0  0  0  0  0  0  0  0  0  0  0
  181.5550   17.2170   43.2230 C   0  0  0  0  0  0  0  0  0  0  0  0
  180.9860   18.1880   44.0490 C   0  0  0  0  0  0  0  0  0  0  0  0
  180.2230   17.8220   45.1610 C   0  0  0  0  0  0  0  0  0  0  0  0
  179.6100   18.8650   46.0120 C   0  0  0  0  0  0  0  0  0  0  0  0
  178.2200   18.8240   45.9980 O   0  0  0  0  0  0  0  0  0  0  0  0
  177.5220   19.7370   46.7460 C   0  0  0  0  0  0  0  0  0  0  0  0
  176.1300   19.6500   46.7160 C   0  0  0  0  0  0  0  0  0  0  0  0
  175.3600   20.5520   47.4540 C   0  0  0  0  0  0  0  0  0  0  0  0
  175.9810   21.5400   48.2200 C   0  0  0  0  0  0  0  0  0  0  0  0
  177.3700   21.6250   48.2480 C   0  0  0  0  0  0  0  0  0  0  0  0
  177.9130   22.6160   49.0190 O   0  0  0  0  0  0  0  0  0  0  0  0
  178.1410   20.7220   47.5110 C   0  0  0  0  0  0  0  0  0  0  0  0
  179.6030   20.7760   47.5120 C   0  0  0  0  0  0  0  0  0  0  0  0
  180.2220   21.6220   48.1560 O   0  0  0  0  0  0  0  0  0  0  0  0
  180.3280   19.7690   46.7040 C   0  0  0  0  0  0  0  0  0  0  0  0
  181.7080   19.8380   46.7020 O   0  0  0  0  0  0  0  0  0  0  0  0
  180.0280   16.4560   45.4100 C   0  0  0  0  0  0  0  0  0  0  0  0
  180.5890   15.4600   44.5850 C   0  0  0  0  0  0  0  0  0  0  0  0
  180.3410   14.0140   44.9520 C   0  0  0  0  0  0  0  0  0  0  0  0
  178.8720   13.6390   44.8170 C   0  0  0  0  0  0  0  0  0  0  0  0
  180.1957   14.6480   41.4031 H   0  0  0  0  0  0  0  0  0  0  0  0
  181.4393   15.6941   40.6377 H   0  0  0  0  0  0  0  0  0  0  0  0
  181.6432   13.9094   40.6377 H   0  0  0  0  0  0  0  0  0  0  0  0
  182.0148   13.8627   43.0095 H   0  0  0  0  0  0  0  0  0  0  0  0
  183.0414   15.1964   42.3302 H   0  0  0  0  0  0  0  0  0  0  0  0
  182.1536   17.5293   42.3546 H   0  0  0  0  0  0  0  0  0  0  0  0
  181.1400   19.2532   43.8219 H   0  0  0  0  0  0  0  0  0  0  0  0
  175.6396   18.8723   46.1121 H   0  0  0  0  0  0  0  0  0  0  0  0
  174.2624   20.4836   47.4315 H   0  0  0  0  0  0  0  0  0  0  0  0
  175.3737   22.2501   48.8005 H   0  0  0  0  0  0  0  0  0  0  0  0
  178.2730   23.3810   48.6130 H   0  0  0  0  0  0  0  0  0  0  0  0
  182.1540   20.2870   46.0110 H   0  0  0  0  0  0  0  0  0  0  0  0
  179.4193   16.1526   46.2746 H   0  0  0  0  0  0  0  0  0  0  0  0
  180.9350   13.3710   44.2859 H   0  0  0  0  0  0  0  0  0  0  0  0
  180.6339   13.8736   46.0029 H   0  0  0  0  0  0  0  0  0  0  0  0
  178.4290   13.5259   45.8175 H   0  0  0  0  0  0  0  0  0  0  0  0
  178.3405   14.4303   44.2680 H   0  0  0  0  0  0  0  0  0  0  0  0
  178.7848   12.6898   44.2680 H   0  0  0  0  0  0  0  0  0  0  0  0
  1  2  1  0
  2  3  1  0
  3  4  2  0
  4  5  1  0
  5  6  2  0
  6  7  1  0
  7  8  1  0
  8  9  1  0
  9 10  2  0
 10 11  1  0
 11 12  2  0
 12 13  1  0
 13 14  1  0
 13 15  2  0
 15 16  1  0
 16 17  2  0
 16 18  1  0
 18 19  1  0
  6 20  1  0
 20 21  2  0
 21 22  1  0
 22 23  1  0
 21  3  1  0
 18  7  2  0
 15  9  1  0
  1 24  1  0
  1 25  1  0
  1 26  1  0
  2 27  1  0
  2 28  1  0
  4 29  1  0
  5 30  1  0
 10 31  1  0
 11 32  1  0
 12 33  1  0
 14 34  1  0
 19 35  1  0
 20 36  1  0
 22 37  1  0
 22 38  1  0
 23 39  1  0
 23 40  1  0
 23 41  1  0
M  END
>  <meeko>  (1) 
{"is_sidechain": [false], "free_energy": -7.928, "intermolecular_energy": -9.782, "internal_energy": -0.543}

$$$$
cand_039_out
     RDKit          3D

 41 43  0  0  0  0  0  0  0  0999 V2000
  181.1110   14.8700   40.5220 C   0  0  0  0  0  0  0  0  0  0  0  0
  181.1840   14.3930   41.9660 C   0  0  0  0  0  0  0  0  0  0  0  0
  180.9850   15.5260   42.9460 C   0  0  0  0  0  0  0  0  0  0  0  0
  181.1590   16.8410   42.4790 C   0  0  0  0  0  0  0  0  0  0  0  0
  180.9830   17.9370   43.3270 C   0  0  0  0  0  0  0  0  0  0  0  0
  180.6330   17.7540   44.6670 C   0  0  0  0  0  0  0  0  0  0  0  0
  180.4300   18.9270   45.5440 C   0  0  0  0  0  0  0  0  0  0  0  0
  181.5730   19.7090   45.6720 O   0  0  0  0  0  0  0  0  0  0  0  0
  181.5240   20.8310   46.4590 C   0  0  0  0  0  0  0  0  0  0  0  0
  182.6880   21.5950   46.5460 C   0  0  0  0  0  0  0  0  0  0  0  0
  182.7070   22.7490   47.3330 C   0  0  0  0  0  0  0  0  0  0  0  0
  181.5630   23.1390   48.0310 C   0  0  0  0  0  0  0  0  0  0  0  0
  180.4020   22.3750   47.9430 C   0  0  0  0  0  0  0  0  0  0  0  0
  179.3180   22.8130   48.6520 O   0  0  0  0  0  0  0  0  0  0  0  0
  180.3830   21.2200   47.1550 C   0  0  0  0  0  0  0  0  0  0  0  0
  179.1850   20.3890   47.0340 C   0  0  0  0  0  0  0  0  0  0  0  0
  178.1420   20.6630   47.6240 O   0  0  0  0  0  0  0  0  0  0  0  0
  179.2670   19.1900   46.1680 C   0  0  0  0  0  0  0  0  0  0  0  0
  178.1330   18.4060   46.0720 O   0  0  0  0  0  0  0  0  0  0  0  0
  180.4410   16.4440   45.1290 C   0  0  0  0  0  0  0  0  0  0  0  0
  180.6070   15.3250   44.2880 C   0  0  0  0  0  0  0  0  0  0  0  0
  180.4010   13.9520   44.8880 C   0  0  0  0  0  0  0  0  0  0  0  0
  178.9270   13.6440   45.1080 C   0  0  0  0  0  0  0  0  0  0  0  0
  180.9446   15.9572   40.5029 H   0  0  0  0  0  0  0  0  0  0  0  0
  182.0556   14.6346   40.0099 H   0  0  0  0  0  0  0  0  0  0  0  0
  180.2800   14.3628   40.0099 H   0  0  0  0  0  0  0  0  0  0  0  0
  180.4006   13.6386   42.1311 H   0  0  0  0  0  0  0  0  0  0  0  0
  182.1852   13.9695   42.1342 H   0  0  0  0  0  0  0  0  0  0  0  0
  181.4383   17.0093   41.4285 H   0  0  0  0  0  0  0  0  0  0  0  0
  181.1216   18.9555   42.9353 H   0  0  0  0  0  0  0  0  0  0  0  0
  183.5899   21.2891   45.9955 H   0  0  0  0  0  0  0  0  0  0  0  0
  183.6249   23.3512   47.4027 H   0  0  0  0  0  0  0  0  0  0  0  0
  181.5784   24.0484   48.6496 H   0  0  0  0  0  0  0  0  0  0  0  0
  178.8480   23.5730   48.3680 H   0  0  0  0  0  0  0  0  0  0  0  0
  178.1600   17.5080   46.3390 H   0  0  0  0  0  0  0  0  0  0  0  0
  180.1524   16.2849   46.1785 H   0  0  0  0  0  0  0  0  0  0  0  0
  180.8238   13.1991   44.2066 H   0  0  0  0  0  0  0  0  0  0  0  0
  180.9038   13.9285   45.8661 H   0  0  0  0  0  0  0  0  0  0  0  0
  178.7186   13.6005   46.1872 H   0  0  0  0  0  0  0  0  0  0  0  0
  178.3148   14.4336   44.6479 H   0  0  0  0  0  0  0  0  0  0  0  0
  178.6822   12.6753   44.6479 H   0  0  0  0  0  0  0  0  0  0  0  0
  1  2  1  0
  2  3  1  0
  3  4  2  0
  4  5  1  0
  5  6  2  0
  6  7  1  0
  7  8  1  0
  8  9  1  0
  9 10  2  0
 10 11  1  0
 11 12  2  0
 12 13  1  0
 13 14  1  0
 13 15  2  0
 15 16  1  0
 16 17  2  0
 16 18  1  0
 18 19  1  0
  6 20  1  0
 20 21  2  0
 21 22  1  0
 22 23  1  0
 21  3  1  0
 18  7  2  0
 15  9  1  0
  1 24  1  0
  1 25  1  0
  1 26  1  0
  2 27  1  0
  2 28  1  0
  4 29  1  0
  5 30  1  0
 10 31  1  0
 11 32  1  0
 12 33  1  0
 14 34  1  0
 19 35  1  0
 20 36  1  0
 22 37  1  0
 22 38  1  0
 23 39  1  0
 23 40  1  0
 23 41  1  0
M  END
>  <meeko>  (2) 
{"is_sidechain": [false], "free_energy": -7.495, "intermolecular_energy": -9.33, "internal_energy": -0.461}

$$$$
cand_039_out
     RDKit          3D

 41 43  0  0  0  0  0  0  0  0999 V2000
  181.0650   19.4160   45.9070 C   0  0  0  0  0  0  0  0  0  0  0  0
  179.8210   20.1410   45.4150 C   0  0  0  0  0  0  0  0  0  0  0  0
  178.9860   20.6700   46.5580 C   0  0  0  0  0  0  0  0  0  0  0  0
  179.4820   21.7640   47.2870 C   0  0  0  0  0  0  0  0  0  0  0  0
  178.7590   22.3100   48.3500 C   0  0  0  0  0  0  0  0  0  0  0  0
  177.5220   21.7770   48.7210 C   0  0  0  0  0  0  0  0  0  0  0  0
  176.7620   22.3810   49.8370 C   0  0  0  0  0  0  0  0  0  0  0  0
  175.6690   23.1230   49.4050 O   0  0  0  0  0  0  0  0  0  0  0  0
  174.8750   23.7400   50.3380 C   0  0  0  0  0  0  0  0  0  0  0  0
  173.7790   24.4600   49.8610 C   0  0  0  0  0  0  0  0  0  0  0  0
  172.9320   25.1140   50.7590 C   0  0  0  0  0  0  0  0  0  0  0  0
  173.1800   25.0480   52.1310 C   0  0  0  0  0  0  0  0  0  0  0  0
  174.2740   24.3290   52.6040 C   0  0  0  0  0  0  0  0  0  0  0  0
  174.4590   24.3050   53.9590 O   0  0  0  0  0  0  0  0  0  0  0  0
  175.1220   23.6730   51.7060 C   0  0  0  0  0  0  0  0  0  0  0  0
  176.2820   22.9070   52.1610 C   0  0  0  0  0  0  0  0  0  0  0  0
  176.5700   22.8080   53.3520 O   0  0  0  0  0  0  0  0  0  0  0  0
  177.1120   22.2430   51.1290 C   0  0  0  0  0  0  0  0  0  0  0  0
  178.2140   21.5330   51.5690 O   0  0  0  0  0  0  0  0  0  0  0  0
  177.0180   20.6970   47.9840 C   0  0  0  0  0  0  0  0  0  0  0  0
  177.7290   20.1350   46.9030 C   0  0  0  0  0  0  0  0  0  0  0  0
  177.1100   18.9560   46.1860 C   0  0  0  0  0  0  0  0  0  0  0  0
  175.7820   18.5480   46.8070 C   0  0  0  0  0  0  0  0  0  0  0  0
  181.0750   19.4101   47.0069 H   0  0  0  0  0  0  0  0  0  0  0  0
  181.0574   18.3809   45.5349 H   0  0  0  0  0  0  0  0  0  0  0  0
  181.9619   19.9328   45.5349 H   0  0  0  0  0  0  0  0  0  0  0  0
  180.1292   20.9846   44.7800 H   0  0  0  0  0  0  0  0  0  0  0  0
  179.2089   19.4219   44.8509 H   0  0  0  0  0  0  0  0  0  0  0  0
  180.4559   22.1977   47.0160 H   0  0  0  0  0  0  0  0  0  0  0  0
  179.1682   23.1694   48.9013 H   0  0  0  0  0  0  0  0  0  0  0  0
  173.5824   24.5125   48.7800 H   0  0  0  0  0  0  0  0  0  0  0  0
  172.0679   25.6821   50.3841 H   0  0  0  0  0  0  0  0  0  0  0  0
  172.5122   25.5632   52.8371 H   0  0  0  0  0  0  0  0  0  0  0  0
  174.4940   25.1070   54.4410 H   0  0  0  0  0  0  0  0  0  0  0  0
  179.0560   21.9420   51.5930 H   0  0  0  0  0  0  0  0  0  0  0  0
  176.0393   20.2751   48.2564 H   0  0  0  0  0  0  0  0  0  0  0  0
  176.9418   19.2281   45.1335 H   0  0  0  0  0  0  0  0  0  0  0  0
  177.8015   18.1046   46.2697 H   0  0  0  0  0  0  0  0  0  0  0  0
  175.8666   18.5740   47.9034 H   0  0  0  0  0  0  0  0  0  0  0  0
  174.9960   19.2461   46.4832 H   0  0  0  0  0  0  0  0  0  0  0  0
  175.5235   17.5290   46.4832 H   0  0  0  0  0  0  0  0  0  0  0  0
  1  2  1  0
  2  3  1  0
  3  4  2  0
  4  5  1  0
  5  6  2  0
  6  7  1  0
  7  8  1  0
  8  9  1  0
  9 10  2  0
 10 11  1  0
 11 12  2  0
 12 13  1  0
 13 14  1  0
 13 15  2  0
 15 16  1  0
 16 17  2  0
 16 18  1  0
 18 19  1  0
  6 20  1  0
 20 21  2  0
 21 22  1  0
 22 23  1  0
 21  3  1  0
 18  7  2  0
 15  9  1  0
  1 24  1  0
  1 25  1  0
  1 26  1  0
  2 27  1  0
  2 28  1  0
  4 29  1  0
  5 30  1  0
 10 31  1  0
 11 32  1  0
 12 33  1  0
 14 34  1  0
 19 35  1  0
 20 36  1  0
 22 37  1  0
 22 38  1  0
 23 39  1  0
 23 40  1  0
 23 41  1  0
M  END
>  <meeko>  (3) 
{"is_sidechain": [false], "free_energy": -7.237, "intermolecular_energy": -8.896, "internal_energy": -0.577}

$$$$
cand_039_out
     RDKit          3D

 41 43  0  0  0  0  0  0  0  0999 V2000
  178.9210   20.0950   46.9440 C   0  0  0  0  0  0  0  0  0  0  0  0
  177.7400   20.8800   46.3900 C   0  0  0  0  0  0  0  0  0  0  0  0
  176.8960   21.4830   47.4890 C   0  0  0  0  0  0  0  0  0  0  0  0
  175.9350   20.6650   48.1080 C   0  0  0  0  0  0  0  0  0  0  0  0
  175.1260   21.1530   49.1360 C   0  0  0  0  0  0  0  0  0  0  0  0
  175.2490   22.4740   49.5750 C   0  0  0  0  0  0  0  0  0  0  0  0
  174.3980   22.9670   50.6800 C   0  0  0  0  0  0  0  0  0  0  0  0
  175.1310   23.3340   51.8020 O   0  0  0  0  0  0  0  0  0  0  0  0
  174.4650   23.8100   52.9030 C   0  0  0  0  0  0  0  0  0  0  0  0
  175.2400   24.1810   54.0010 C   0  0  0  0  0  0  0  0  0  0  0  0
  174.6240   24.6720   55.1550 C   0  0  0  0  0  0  0  0  0  0  0  0
  173.2340   24.7900   55.2100 C   0  0  0  0  0  0  0  0  0  0  0  0
  172.4620   24.4180   54.1130 C   0  0  0  0  0  0  0  0  0  0  0  0
  171.1070   24.5600   54.2330 O   0  0  0  0  0  0  0  0  0  0  0  0
  173.0790   23.9290   52.9570 C   0  0  0  0  0  0  0  0  0  0  0  0
  172.3060   23.5270   51.7820 C   0  0  0  0  0  0  0  0  0  0  0  0
  171.0780   23.5950   51.7570 O   0  0  0  0  0  0  0  0  0  0  0  0
  173.0550   23.0280   50.6060 C   0  0  0  0  0  0  0  0  0  0  0  0
  172.3140   22.6390   49.5060 O   0  0  0  0  0  0  0  0  0  0  0  0
  176.2190   23.2860   48.9710 C   0  0  0  0  0  0  0  0  0  0  0  0
  177.0500   22.8100   47.9360 C   0  0  0  0  0  0  0  0  0  0  0  0
  178.0490   23.7720   47.3320 C   0  0  0  0  0  0  0  0  0  0  0  0
  179.3610   23.7860   48.1040 C   0  0  0  0  0  0  0  0  0  0  0  0
  178.8911   20.1148   48.0434 H   0  0  0  0  0  0  0  0  0  0  0  0
  178.8654   19.0535   46.5944 H   0  0  0  0  0  0  0  0  0  0  0  0
  179.8598   20.5495   46.5944 H   0  0  0  0  0  0  0  0  0  0  0  0
  178.1205   21.6894   45.7496 H   0  0  0  0  0  0  0  0  0  0  0  0
  177.1077   20.1846   45.8185 H   0  0  0  0  0  0  0  0  0  0  0  0
  175.8183   19.6225   47.7768 H   0  0  0  0  0  0  0  0  0  0  0  0
  174.3839   20.4905   49.6054 H   0  0  0  0  0  0  0  0  0  0  0  0
  176.3352   24.0873   53.9588 H   0  0  0  0  0  0  0  0  0  0  0  0
  175.2350   24.9659   56.0212 H   0  0  0  0  0  0  0  0  0  0  0  0
  172.7495   25.1764   56.1189 H   0  0  0  0  0  0  0  0  0  0  0  0
  170.7490   25.0440   54.9510 H   0  0  0  0  0  0  0  0  0  0  0  0
  172.1890   21.7280   49.3240 H   0  0  0  0  0  0  0  0  0  0  0  0
  176.3353   24.3245   49.3144 H   0  0  0  0  0  0  0  0  0  0  0  0
  178.2505   23.4702   46.2936 H   0  0  0  0  0  0  0  0  0  0  0  0
  177.6175   24.7830   47.3742 H   0  0  0  0  0  0  0  0  0  0  0  0
  179.1511   23.7838   49.1838 H   0  0  0  0  0  0  0  0  0  0  0  0
  179.9495   22.8941   47.8430 H   0  0  0  0  0  0  0  0  0  0  0  0
  179.9304   24.6903   47.8430 H   0  0  0  0  0  0  0  0  0  0  0  0
  1  2  1  0
  2  3  1  0
  3  4  2  0
  4  5  1  0
  5  6  2  0
  6  7  1  0
  7  8  1  0
  8  9  1  0
  9 10  2  0
 10 11  1  0
 11 12  2  0
 12 13  1  0
 13 14  1  0
 13 15  2  0
 15 16  1  0
 16 17  2  0
 16 18  1  0
 18 19  1  0
  6 20  1  0
 20 21  2  0
 21 22  1  0
 22 23  1  0
 21  3  1  0
 18  7  2  0
 15  9  1  0
  1 24  1  0
  1 25  1  0
  1 26  1  0
  2 27  1  0
  2 28  1  0
  4 29  1  0
  5 30  1  0
 10 31  1  0
 11 32  1  0
 12 33  1  0
 14 34  1  0
 19 35  1  0
 20 36  1  0
 22 37  1  0
 22 38  1  0
 23 39  1  0
 23 40  1  0
 23 41  1  0
M  END
>  <meeko>  (4) 
{"is_sidechain": [false], "free_energy": -7.215, "intermolecular_energy": -8.872, "internal_energy": -0.574}

$$$$
cand_039_out
     RDKit          3D

 41 43  0  0  0  0  0  0  0  0999 V2000
  179.1580   20.7540   46.8390 C   0  0  0  0  0  0  0  0  0  0  0  0
  177.6920   20.8100   46.4330 C   0  0  0  0  0  0  0  0  0  0  0  0
  176.8110   21.2870   47.5640 C   0  0  0  0  0  0  0  0  0  0  0  0
  176.8020   22.6620   47.8590 C   0  0  0  0  0  0  0  0  0  0  0  0
  176.0060   23.1750   48.8850 C   0  0  0  0  0  0  0  0  0  0  0  0
  175.1970   22.3310   49.6520 C   0  0  0  0  0  0  0  0  0  0  0  0
  174.3450   22.8950   50.7200 C   0  0  0  0  0  0  0  0  0  0  0  0
  175.0620   23.2300   51.8630 O   0  0  0  0  0  0  0  0  0  0  0  0
  174.3930   23.7650   52.9340 C   0  0  0  0  0  0  0  0  0  0  0  0
  175.1550   24.1000   54.0530 C   0  0  0  0  0  0  0  0  0  0  0  0
  174.5340   24.6470   55.1790 C   0  0  0  0  0  0  0  0  0  0  0  0
  173.1540   24.8580   55.1840 C   0  0  0  0  0  0  0  0  0  0  0  0
  172.3960   24.5230   54.0660 C   0  0  0  0  0  0  0  0  0  0  0  0
  171.0510   24.7550   54.1380 O   0  0  0  0  0  0  0  0  0  0  0  0
  173.0180   23.9760   52.9390 C   0  0  0  0  0  0  0  0  0  0  0  0
  172.2590   23.6090   51.7430 C   0  0  0  0  0  0  0  0  0  0  0  0
  171.0400   23.7580   51.6740 O   0  0  0  0  0  0  0  0  0  0  0  0
  173.0130   23.0440   50.5990 C   0  0  0  0  0  0  0  0  0  0  0  0
  172.2840   22.6890   49.4800 O   0  0  0  0  0  0  0  0  0  0  0  0
  175.1920   20.9630   49.3470 C   0  0  0  0  0  0  0  0  0  0  0  0
  175.9830   20.4260   48.3110 C   0  0  0  0  0  0  0  0  0  0  0  0
  175.9250   18.9330   48.0780 C   0  0  0  0  0  0  0  0  0  0  0  0
  175.1680   18.5860   46.8040 C   0  0  0  0  0  0  0  0  0  0  0  0
  179.2347   20.7511   47.9363 H   0  0  0  0  0  0  0  0  0  0  0  0
  179.6151   19.8377   46.4370 H   0  0  0  0  0  0  0  0  0  0  0  0
  179.6836   21.6327   46.4370 H   0  0  0  0  0  0  0  0  0  0  0  0
  177.5846   21.5003   45.5834 H   0  0  0  0  0  0  0  0  0  0  0  0
  177.3751   19.7925   46.1604 H   0  0  0  0  0  0  0  0  0  0  0  0
  177.4329   23.3451   47.2713 H   0  0  0  0  0  0  0  0  0  0  0  0
  176.0154   24.2553   49.0922 H   0  0  0  0  0  0  0  0  0  0  0  0
  176.2424   23.9340   54.0492 H   0  0  0  0  0  0  0  0  0  0  0  0
  175.1333   24.9117   56.0626 H   0  0  0  0  0  0  0  0  0  0  0  0
  172.6662   25.2887   56.0709 H   0  0  0  0  0  0  0  0  0  0  0  0
  170.6230   25.2440   53.4620 H   0  0  0  0  0  0  0  0  0  0  0  0
  171.4440   22.2850   49.5760 H   0  0  0  0  0  0  0  0  0  0  0  0
  174.5515   20.2880   49.9337 H   0  0  0  0  0  0  0  0  0  0  0  0
  176.9514   18.5454   47.9985 H   0  0  0  0  0  0  0  0  0  0  0  0
  175.3930   18.4763   48.9256 H   0  0  0  0  0  0  0  0  0  0  0  0
  174.1965   18.1407   47.0645 H   0  0  0  0  0  0  0  0  0  0  0  0
  175.0059   19.4997   46.2134 H   0  0  0  0  0  0  0  0  0  0  0  0
  175.7545   17.8668   46.2134 H   0  0  0  0  0  0  0  0  0  0  0  0
  1  2  1  0
  2  3  1  0
  3  4  2  0
  4  5  1  0
  5  6  2  0
  6  7  1  0
  7  8  1  0
  8  9  1  0
  9 10  2  0
 10 11  1  0
 11 12  2  0
 12 13  1  0
 13 14  1  0
 13 15  2  0
 15 16  1  0
 16 17  2  0
 16 18  1  0
 18 19  1  0
  6 20  1  0
 20 21  2  0
 21 22  1  0
 22 23  1  0
 21  3  1  0
 18  7  2  0
 15  9  1  0
  1 24  1  0
  1 25  1  0
  1 26  1  0
  2 27  1  0
  2 28  1  0
  4 29  1  0
  5 30  1  0
 10 31  1  0
 11 32  1  0
 12 33  1  0
 14 34  1  0
 19 35  1  0
 20 36  1  0
 22 37  1  0
 22 38  1  0
 23 39  1  0
 23 40  1  0
 23 41  1  0
M  END
>  <meeko>  (5) 
{"is_sidechain": [false], "free_energy": -7.169, "intermolecular_energy": -8.923, "internal_energy": -0.465}

$$$$
cand_039_out
     RDKit          3D

 41 43  0  0  0  0  0  0  0  0999 V2000
  175.4820   17.8920   46.4350 C   0  0  0  0  0  0  0  0  0  0  0  0
  176.6450   18.8730   46.3820 C   0  0  0  0  0  0  0  0  0  0  0  0
  176.5340   19.9390   47.4470 C   0  0  0  0  0  0  0  0  0  0  0  0
  175.4540   19.8660   48.3450 C   0  0  0  0  0  0  0  0  0  0  0  0
  175.2930   20.8120   49.3590 C   0  0  0  0  0  0  0  0  0  0  0  0
  176.2030   21.8630   49.5050 C   0  0  0  0  0  0  0  0  0  0  0  0
  176.0280   22.8440   50.5980 C   0  0  0  0  0  0  0  0  0  0  0  0
  175.5760   24.0790   50.1480 O   0  0  0  0  0  0  0  0  0  0  0  0
  175.3700   25.0830   51.0600 C   0  0  0  0  0  0  0  0  0  0  0  0
  174.9010   26.3000   50.5660 C   0  0  0  0  0  0  0  0  0  0  0  0
  174.6730   27.3650   51.4420 C   0  0  0  0  0  0  0  0  0  0  0  0
  174.9150   27.2120   52.8080 C   0  0  0  0  0  0  0  0  0  0  0  0
  175.3830   25.9960   53.2980 C   0  0  0  0  0  0  0  0  0  0  0  0
  175.5980   25.9140   54.6460 O   0  0  0  0  0  0  0  0  0  0  0  0
  175.6100   24.9300   52.4220 C   0  0  0  0  0  0  0  0  0  0  0  0
  176.1020   23.6360   52.8950 C   0  0  0  0  0  0  0  0  0  0  0  0
  176.3440   23.4260   54.0820 O   0  0  0  0  0  0  0  0  0  0  0  0
  176.3020   22.5690   51.8870 C   0  0  0  0  0  0  0  0  0  0  0  0
  176.7800   21.3550   52.3430 O   0  0  0  0  0  0  0  0  0  0  0  0
  177.2890   21.9280   48.6220 C   0  0  0  0  0  0  0  0  0  0  0  0
  177.4730   20.9780   47.5960 C   0  0  0  0  0  0  0  0  0  0  0  0
  178.6640   21.1490   46.6790 C   0  0  0  0  0  0  0  0  0  0  0  0
  179.8900   20.4130   47.1990 C   0  0  0  0  0  0  0  0  0  0  0  0
  175.2295   17.6790   47.4842 H   0  0  0  0  0  0  0  0  0  0  0  0
  174.6090   18.3306   45.9295 H   0  0  0  0  0  0  0  0  0  0  0  0
  175.7672   16.9576   45.9295 H   0  0  0  0  0  0  0  0  0  0  0  0
  177.5839   18.3193   46.5300 H   0  0  0  0  0  0  0  0  0  0  0  0
  176.6269   19.3694   45.4006 H   0  0  0  0  0  0  0  0  0  0  0  0
  174.7236   19.0494   48.2467 H   0  0  0  0  0  0  0  0  0  0  0  0
  174.4413   20.7295   50.0502 H   0  0  0  0  0  0  0  0  0  0  0  0
  174.7110   26.4214   49.4894 H   0  0  0  0  0  0  0  0  0  0  0  0
  174.3023   28.3253   51.0542 H   0  0  0  0  0  0  0  0  0  0  0  0
  174.7362   28.0511   53.4964 H   0  0  0  0  0  0  0  0  0  0  0  0
  176.1160   26.5640   55.0780 H   0  0  0  0  0  0  0  0  0  0  0  0
  176.6850   20.5860   51.8160 H   0  0  0  0  0  0  0  0  0  0  0  0
  178.0190   22.7434   48.7322 H   0  0  0  0  0  0  0  0  0  0  0  0
  178.4072   20.7542   45.6849 H   0  0  0  0  0  0  0  0  0  0  0  0
  178.9052   22.2211   46.6294 H   0  0  0  0  0  0  0  0  0  0  0  0
  179.8816   20.4181   48.2990 H   0  0  0  0  0  0  0  0  0  0  0  0
  179.8751   19.3744   46.8370 H   0  0  0  0  0  0  0  0  0  0  0  0
  180.7997   20.9145   46.8370 H   0  0  0  0  0  0  0  0  0  0  0  0
  1  2  1  0
  2  3  1  0
  3  4  2  0
  4  5  1  0
  5  6  2  0
  6  7  1  0
  7  8  1  0
  8  9  1  0
  9 10  2  0
 10 11  1  0
 11 12  2  0
 12 13  1  0
 13 14  1  0
 13 15  2  0
 15 16  1  0
 16 17  2  0
 16 18  1  0
 18 19  1  0
  6 20  1  0
 20 21  2  0
 21 22  1  0
 22 23  1  0
 21  3  1  0
 18  7  2  0
 15  9  1  0
  1 24  1  0
  1 25  1  0
  1 26  1  0
  2 27  1  0
  2 28  1  0
  4 29  1  0
  5 30  1  0
 10 31  1  0
 11 32  1  0
 12 33  1  0
 14 34  1  0
 19 35  1  0
 20 36  1  0
 22 37  1  0
 22 38  1  0
 23 39  1  0
 23 40  1  0
 23 41  1  0
M  END
>  <meeko>  (6) 
{"is_sidechain": [false], "free_energy": -7.167, "intermolecular_energy": -8.816, "internal_energy": -0.57}

$$$$
cand_039_out
     RDKit          3D

 41 43  0  0  0  0  0  0  0  0999 V2000
  180.4550   18.5760   45.4460 C   0  0  0  0  0  0  0  0  0  0  0  0
  180.1160   20.0380   45.1920 C   0  0  0  0  0  0  0  0  0  0  0  0
  179.3480   20.6480   46.3420 C   0  0  0  0  0  0  0  0  0  0  0  0
  177.9840   20.3310   46.4660 C   0  0  0  0  0  0  0  0  0  0  0  0
  177.2140   20.8520   47.5090 C   0  0  0  0  0  0  0  0  0  0  0  0
  177.7810   21.7080   48.4560 C   0  0  0  0  0  0  0  0  0  0  0  0
  176.9550   22.2330   49.5650 C   0  0  0  0  0  0  0  0  0  0  0  0
  175.8160   22.8940   49.1230 O   0  0  0  0  0  0  0  0  0  0  0  0
  174.9580   23.4310   50.0490 C   0  0  0  0  0  0  0  0  0  0  0  0
  173.8190   24.0720   49.5620 C   0  0  0  0  0  0  0  0  0  0  0  0
  172.9060   24.6430   50.4520 C   0  0  0  0  0  0  0  0  0  0  0  0
  173.1330   24.5720   51.8280 C   0  0  0  0  0  0  0  0  0  0  0  0
  174.2710   23.9320   52.3120 C   0  0  0  0  0  0  0  0  0  0  0  0
  174.4320   23.9000   53.6700 O   0  0  0  0  0  0  0  0  0  0  0  0
  175.1840   23.3600   51.4210 C   0  0  0  0  0  0  0  0  0  0  0  0
  176.3920   22.6790   51.8870 C   0  0  0  0  0  0  0  0  0  0  0  0
  176.6650   22.5820   53.0820 O   0  0  0  0  0  0  0  0  0  0  0  0
  177.2910   22.1000   50.8620 C   0  0  0  0  0  0  0  0  0  0  0  0
  178.4360   21.4700   51.3130 O   0  0  0  0  0  0  0  0  0  0  0  0
  179.1460   22.0100   48.3440 C   0  0  0  0  0  0  0  0  0  0  0  0
  179.9410   21.4900   47.3030 C   0  0  0  0  0  0  0  0  0  0  0  0
  181.3970   21.8960   47.2550 C   0  0  0  0  0  0  0  0  0  0  0  0
  182.2690   20.9870   48.1100 C   0  0  0  0  0  0  0  0  0  0  0  0
  180.4976   18.3924   46.5297 H   0  0  0  0  0  0  0  0  0  0  0  0
  179.6813   17.9366   44.9959 H   0  0  0  0  0  0  0  0  0  0  0  0
  181.4311   18.3424   44.9959 H   0  0  0  0  0  0  0  0  0  0  0  0
  181.0509   20.6003   45.0511 H   0  0  0  0  0  0  0  0  0  0  0  0
  179.4823   20.0894   44.2943 H   0  0  0  0  0  0  0  0  0  0  0  0
  177.5151   19.6617   45.7297 H   0  0  0  0  0  0  0  0  0  0  0  0
  176.1496   20.5851   47.5852 H   0  0  0  0  0  0  0  0  0  0  0  0
  173.6398   24.1279   48.4781 H   0  0  0  0  0  0  0  0  0  0  0  0
  172.0077   25.1489   50.0686 H   0  0  0  0  0  0  0  0  0  0  0  0
  172.4137   25.0211   52.5287 H   0  0  0  0  0  0  0  0  0  0  0  0
  174.8950   23.1900   54.0700 H   0  0  0  0  0  0  0  0  0  0  0  0
  178.3940   20.5860   51.6210 H   0  0  0  0  0  0  0  0  0  0  0  0
  179.6095   22.6719   49.0903 H   0  0  0  0  0  0  0  0  0  0  0  0
  181.7459   21.8459   46.2130 H   0  0  0  0  0  0  0  0  0  0  0  0
  181.4788   22.9185   47.6522 H   0  0  0  0  0  0  0  0  0  0  0  0
  182.0758   21.1884   49.1740 H   0  0  0  0  0  0  0  0  0  0  0  0
  182.0325   19.9362   47.8869 H   0  0  0  0  0  0  0  0  0  0  0  0
  183.3288   21.1797   47.8869 H   0  0  0  0  0  0  0  0  0  0  0  0
  1  2  1  0
  2  3  1  0
  3  4  2  0
  4  5  1  0
  5  6  2  0
  6  7  1  0
  7  8  1  0
  8  9  1  0
  9 10  2  0
 10 11  1  0
 11 12  2  0
 12 13  1  0
 13 14  1  0
 13 15  2  0
 15 16  1  0
 16 17  2  0
 16 18  1  0
 18 19  1  0
  6 20  1  0
 20 21  2  0
 21 22  1  0
 22 23  1  0
 21  3  1  0
 18  7  2  0
 15  9  1  0
  1 24  1  0
  1 25  1  0
  1 26  1  0
  2 27  1  0
  2 28  1  0
  4 29  1  0
  5 30  1  0
 10 31  1  0
 11 32  1  0
 12 33  1  0
 14 34  1  0
 19 35  1  0
 20 36  1  0
 22 37  1  0
 22 38  1  0
 23 39  1  0
 23 40  1  0
 23 41  1  0
M  END
>  <meeko>  (7) 
{"is_sidechain": [false], "free_energy": -7.118, "intermolecular_energy": -8.843, "internal_energy": -0.483}

$$$$
cand_039_out
     RDKit          3D

 41 43  0  0  0  0  0  0  0  0999 V2000
  176.1640   20.9900   46.6500 C   0  0  0  0  0  0  0  0  0  0  0  0
  177.3070   20.1580   46.0850 C   0  0  0  0  0  0  0  0  0  0  0  0
  178.6500   20.6230   46.5970 C   0  0  0  0  0  0  0  0  0  0  0  0
  178.7190   21.8780   47.2270 C   0  0  0  0  0  0  0  0  0  0  0  0
  179.9260   22.3670   47.7310 C   0  0  0  0  0  0  0  0  0  0  0  0
  181.1020   21.6200   47.6180 C   0  0  0  0  0  0  0  0  0  0  0  0
  182.3670   22.1460   48.1770 C   0  0  0  0  0  0  0  0  0  0  0  0
  183.0950   22.8900   47.2570 O   0  0  0  0  0  0  0  0  0  0  0  0
  184.2920   23.4370   47.6440 C   0  0  0  0  0  0  0  0  0  0  0  0
  184.9820   24.1890   46.6940 C   0  0  0  0  0  0  0  0  0  0  0  0
  186.2080   24.7720   47.0240 C   0  0  0  0  0  0  0  0  0  0  0  0
  186.7430   24.6030   48.3020 C   0  0  0  0  0  0  0  0  0  0  0  0
  186.0520   23.8510   49.2490 C   0  0  0  0  0  0  0  0  0  0  0  0
  186.6320   23.7250   50.4810 O   0  0  0  0  0  0  0  0  0  0  0  0
  184.8240   23.2690   48.9190 C   0  0  0  0  0  0  0  0  0  0  0  0
  184.0660   22.4720   49.8840 C   0  0  0  0  0  0  0  0  0  0  0  0
  184.4740   22.2710   51.0260 O   0  0  0  0  0  0  0  0  0  0  0  0
  182.7720   21.9040   49.4370 C   0  0  0  0  0  0  0  0  0  0  0  0
  182.0710   21.1420   50.3530 O   0  0  0  0  0  0  0  0  0  0  0  0
  181.0320   20.3610   47.0060 C   0  0  0  0  0  0  0  0  0  0  0  0
  179.8220   19.8470   46.4960 C   0  0  0  0  0  0  0  0  0  0  0  0
  179.8550   18.4890   45.8310 C   0  0  0  0  0  0  0  0  0  0  0  0
  180.9280   18.4100   44.7540 C   0  0  0  0  0  0  0  0  0  0  0  0
  176.1999   20.9639   47.7491 H   0  0  0  0  0  0  0  0  0  0  0  0
  176.2617   22.0298   46.3046 H   0  0  0  0  0  0  0  0  0  0  0  0
  175.2046   20.5775   46.3046 H   0  0  0  0  0  0  0  0  0  0  0  0
  177.1598   19.1075   46.3763 H   0  0  0  0  0  0  0  0  0  0  0  0
  177.3020   20.2710   44.9908 H   0  0  0  0  0  0  0  0  0  0  0  0
  177.8068   22.4849   47.3245 H   0  0  0  0  0  0  0  0  0  0  0  0
  179.9516   23.3508   48.2223 H   0  0  0  0  0  0  0  0  0  0  0  0
  184.5617   24.3230   45.6863 H   0  0  0  0  0  0  0  0  0  0  0  0
  186.7528   25.3655   46.2750 H   0  0  0  0  0  0  0  0  0  0  0  0
  187.7083   25.0627   48.5607 H   0  0  0  0  0  0  0  0  0  0  0  0
  187.5370   23.9370   50.5960 H   0  0  0  0  0  0  0  0  0  0  0  0
  182.5260   20.7040   51.0440 H   0  0  0  0  0  0  0  0  0  0  0  0
  181.9471   19.7566   46.9211 H   0  0  0  0  0  0  0  0  0  0  0  0
  180.0604   17.7241   46.5944 H   0  0  0  0  0  0  0  0  0  0  0  0
  178.8790   18.3199   45.3527 H   0  0  0  0  0  0  0  0  0  0  0  0
  181.9182   18.3371   45.2276 H   0  0  0  0  0  0  0  0  0  0  0  0
  180.7546   17.5222   44.1281 H   0  0  0  0  0  0  0  0  0  0  0  0
  180.8865   19.3136   44.1281 H   0  0  0  0  0  0  0  0  0  0  0  0
  1  2  1  0
  2  3  1  0
  3  4  2  0
  4  5  1  0
  5  6  2  0
  6  7  1  0
  7  8  1  0
  8  9  1  0
  9 10  2  0
 10 11  1  0
 11 12  2  0
 12 13  1  0
 13 14  1  0
 13 15  2  0
 15 16  1  0
 16 17  2  0
 16 18  1  0
 18 19  1  0
  6 20  1  0
 20 21  2  0
 21 22  1  0
 22 23  1  0
 21  3  1  0
 18  7  2  0
 15  9  1  0
  1 24  1  0
  1 25  1  0
  1 26  1  0
  2 27  1  0
  2 28  1  0
  4 29  1  0
  5 30  1  0
 10 31  1  0
 11 32  1  0
 12 33  1  0
 14 34  1  0
 19 35  1  0
 20 36  1  0
 22 37  1  0
 22 38  1  0
 23 39  1  0
 23 40  1  0
 23 41  1  0
M  END
>  <meeko>  (8) 
{"is_sidechain": [false], "free_energy": -7.102, "intermolecular_energy": -8.675, "internal_energy": -0.63}

$$$$
cand_039_out
     RDKit          3D

 41 43  0  0  0  0  0  0  0  0999 V2000
  175.9230   18.8800   47.1290 C   0  0  0  0  0  0  0  0  0  0  0  0
  176.6100   19.8350   46.1630 C   0  0  0  0  0  0  0  0  0  0  0  0
  177.8850   20.4020   46.7410 C   0  0  0  0  0  0  0  0  0  0  0  0
  179.0730   19.6730   46.5610 C   0  0  0  0  0  0  0  0  0  0  0  0
  180.2910   20.1410   47.0610 C   0  0  0  0  0  0  0  0  0  0  0  0
  180.3580   21.3500   47.7590 C   0  0  0  0  0  0  0  0  0  0  0  0
  181.6590   21.8400   48.2630 C   0  0  0  0  0  0  0  0  0  0  0  0
  182.4620   22.3680   47.2580 O   0  0  0  0  0  0  0  0  0  0  0  0
  183.6990   22.8600   47.5870 C   0  0  0  0  0  0  0  0  0  0  0  0
  184.4650   23.3950   46.5510 C   0  0  0  0  0  0  0  0  0  0  0  0
  185.7360   23.9100   46.8180 C   0  0  0  0  0  0  0  0  0  0  0  0
  186.2400   23.8900   48.1200 C   0  0  0  0  0  0  0  0  0  0  0  0
  185.4740   23.3560   49.1520 C   0  0  0  0  0  0  0  0  0  0  0  0
  186.0270   23.3680   50.4020 O   0  0  0  0  0  0  0  0  0  0  0  0
  184.2010   22.8410   48.8850 C   0  0  0  0  0  0  0  0  0  0  0  0
  183.3640   22.2700   49.9400 C   0  0  0  0  0  0  0  0  0  0  0  0
  183.7410   22.2110   51.1090 O   0  0  0  0  0  0  0  0  0  0  0  0
  182.0290   21.7580   49.5540 C   0  0  0  0  0  0  0  0  0  0  0  0
  181.2520   21.2090   50.5570 O   0  0  0  0  0  0  0  0  0  0  0  0
  179.1770   22.0870   47.9230 C   0  0  0  0  0  0  0  0  0  0  0  0
  177.9400   21.6350   47.4210 C   0  0  0  0  0  0  0  0  0  0  0  0
  176.7190   22.4920   47.6720 C   0  0  0  0  0  0  0  0  0  0  0  0
  177.0660   23.7690   48.4240 C   0  0  0  0  0  0  0  0  0  0  0  0
  176.1419   19.1842   48.1632 H   0  0  0  0  0  0  0  0  0  0  0  0
  174.8363   18.9073   46.9609 H   0  0  0  0  0  0  0  0  0  0  0  0
  176.2944   17.8583   46.9609 H   0  0  0  0  0  0  0  0  0  0  0  0
  176.8502   19.2920   45.2370 H   0  0  0  0  0  0  0  0  0  0  0  0
  175.9239   20.6719   45.9660 H   0  0  0  0  0  0  0  0  0  0  0  0
  179.0435   18.7174   46.0170 H   0  0  0  0  0  0  0  0  0  0  0  0
  181.2065   19.5518   46.9036 H   0  0  0  0  0  0  0  0  0  0  0  0
  184.0687   23.4113   45.5250 H   0  0  0  0  0  0  0  0  0  0  0  0
  186.3404   24.3318   46.0014 H   0  0  0  0  0  0  0  0  0  0  0  0
  187.2408   24.2956   48.3297 H   0  0  0  0  0  0  0  0  0  0  0  0
  185.6570   23.9070   51.0740 H   0  0  0  0  0  0  0  0  0  0  0  0
  181.6590   20.7710   51.2780 H   0  0  0  0  0  0  0  0  0  0  0  0
  179.2168   23.0465   48.4594 H   0  0  0  0  0  0  0  0  0  0  0  0
  176.2680   22.7601   46.7052 H   0  0  0  0  0  0  0  0  0  0  0  0
  176.0174   21.9126   48.2901 H   0  0  0  0  0  0  0  0  0  0  0  0
  177.0152   23.5822   49.5068 H   0  0  0  0  0  0  0  0  0  0  0  0
  178.0835   24.0884   48.1543 H   0  0  0  0  0  0  0  0  0  0  0  0
  176.3501   24.5594   48.1543 H   0  0  0  0  0  0  0  0  0  0  0  0
  1  2  1  0
  2  3  1  0
  3  4  2  0
  4  5  1  0
  5  6  2  0
  6  7  1  0
  7  8  1  0
  8  9  1  0
  9 10  2  0
 10 11  1  0
 11 12  2  0
 12 13  1  0
 13 14  1  0
 13 15  2  0
 15 16  1  0
 16 17  2  0
 16 18  1  0
 18 19  1  0
  6 20  1  0
 20 21  2  0
 21 22  1  0
 22 23  1  0
 21  3  1  0
 18  7  2  0
 15  9  1  0
  1 24  1  0
  1 25  1  0
  1 26  1  0
  2 27  1  0
  2 28  1  0
  4 29  1  0
  5 30  1  0
 10 31  1  0
 11 32  1  0
 12 33  1  0
 14 34  1  0
 19 35  1  0
 20 36  1  0
 22 37  1  0
 22 38  1  0
 23 39  1  0
 23 40  1  0
 23 41  1  0
M  END
>  <meeko>  (9) 
{"is_sidechain": [false], "free_energy": -7.081, "intermolecular_energy": -8.659, "internal_energy": -0.621}

$$$$
