cand_012_out
     RDKit          3D

 40 42  0  0  0  0  0  0  0  0999 V2000
  176.8110   23.6180   48.5830 C   0  0  0  0  0  0  0  0  0  0  0  0
  176.7280   22.2250   49.0290 N   0  0  0  0  0  0  0  0  0  0  0  0
  176.9820   22.0380   50.4620 C   0  0  0  0  0  0  0  0  0  0  0  0
  177.4820   21.3380   48.2380 C   0  0  0  0  0  0  0  0  0  0  0  0
  178.8810   21.4220   48.1610 C   0  0  0  0  0  0  0  0  0  0  0  0
  179.6220   20.5290   47.3790 C   0  0  0  0  0  0  0  0  0  0  0  0
  178.9850   19.5180   46.6560 C   0  0  0  0  0  0  0  0  0  0  0  0
  179.7390   18.5770   45.8000 C   0  0  0  0  0  0  0  0  0  0  0  0
  179.2340   17.2830   45.8450 O   0  0  0  0  0  0  0  0  0  0  0  0
  179.8420   16.3060   45.0980 C   0  0  0  0  0  0  0  0  0  0  0  0
  179.2940   15.0250   45.1640 C   0  0  0  0  0  0  0  0  0  0  0  0
  179.8670   13.9840   44.4290 C   0  0  0  0  0  0  0  0  0  0  0  0
  180.9860   14.2260   43.6290 C   0  0  0  0  0  0  0  0  0  0  0  0
  181.5300   15.5060   43.5660 C   0  0  0  0  0  0  0  0  0  0  0  0
  182.6260   15.6710   42.7640 O   0  0  0  0  0  0  0  0  0  0  0  0
  180.9570   16.5460   44.3010 C   0  0  0  0  0  0  0  0  0  0  0  0
  181.4980   17.9060   44.2640 C   0  0  0  0  0  0  0  0  0  0  0  0
  182.4840   18.1960   43.5890 O   0  0  0  0  0  0  0  0  0  0  0  0
  180.8140   18.9380   45.0750 C   0  0  0  0  0  0  0  0  0  0  0  0
  181.3420   20.2160   45.0450 O   0  0  0  0  0  0  0  0  0  0  0  0
  177.5870   19.4350   46.7240 C   0  0  0  0  0  0  0  0  0  0  0  0
  176.8270   20.3280   47.5100 C   0  0  0  0  0  0  0  0  0  0  0  0
  175.3250   20.1940   47.5510 C   0  0  0  0  0  0  0  0  0  0  0  0
  174.8290   19.9560   48.7990 F   0  0  0  0  0  0  0  0  0  0  0  0
  174.8690   19.1480   46.7910 F   0  0  0  0  0  0  0  0  0  0  0  0
  174.6620   21.2850   47.0700 F   0  0  0  0  0  0  0  0  0  0  0  0
  176.8506   24.2818   49.4592 H   0  0  0  0  0  0  0  0  0  0  0  0
  177.7189   23.7556   47.9774 H   0  0  0  0  0  0  0  0  0  0  0  0
  175.9258   23.8625   47.9774 H   0  0  0  0  0  0  0  0  0  0  0  0
  176.2298   22.5918   51.0430 H   0  0  0  0  0  0  0  0  0  0  0  0
  176.9208   20.9678   50.7086 H   0  0  0  0  0  0  0  0  0  0  0  0
  177.9858   22.4143   50.7086 H   0  0  0  0  0  0  0  0  0  0  0  0
  179.4056   22.2059   48.7270 H   0  0  0  0  0  0  0  0  0  0  0  0
  180.7169   20.6242   47.3333 H   0  0  0  0  0  0  0  0  0  0  0  0
  178.4123   14.8347   45.7936 H   0  0  0  0  0  0  0  0  0  0  0  0
  179.4365   12.9731   44.4805 H   0  0  0  0  0  0  0  0  0  0  0  0
  181.4367   13.4067   43.0497 H   0  0  0  0  0  0  0  0  0  0  0  0
  182.5730   15.4700   41.8500 H   0  0  0  0  0  0  0  0  0  0  0  0
  180.7890   20.9550   45.2090 H   0  0  0  0  0  0  0  0  0  0  0  0
  177.0686   18.6532   46.1495 H   0  0  0  0  0  0  0  0  0  0  0  0
  1  2  1  0
  2  3  1  0
  2  4  1  0
  4  5  2  0
  5  6  1  0
  6  7  2  0
  7  8  1  0
  8  9  1  0
  9 10  1  0
 10 11  2  0
 11 12  1  0
 12 13  2  0
 13 14  1  0
 14 15  1  0
 14 16  2  0
 16 17  1  0
 17 18  2  0
 17 19  1  0
 19 20  1  0
  7 21  1  0
 21 22  2  0
 22 23  1  0
 23 24  1  0
 23 25  1  0
 23 26  1  0
 22  4  1  0
 19  8  2  0
 16 10  1  0
  1 27  1  0
  1 28  1  0
  1 29  1  0
  3 30  1  0
  3 31  1  0
  3 32  1  0
  5 33  1  0
  6 34  1  0
 11 35  1  0
 12 36  1  0
 13 37  1  0
 15 38  1  0
 20 39  1  0
 21 40  1  0
M  END
>  <meeko>  (1) 
{"is_sidechain": [false], "free_energy": -8.034, "intermolecular_energy": -9.912, "internal_energy": -0.234}

$$$$
cand_012_out
     RDKit          3D

 40 42  0  0  0  0  0  0  0  0999 V2000
  182.8030   15.1490   42.6930 C   0  0  0  0  0  0  0  0  0  0  0  0
  181.3460   15.2750   42.7910 N   0  0  0  0  0  0  0  0  0  0  0  0
  180.6630   15.3570   41.4960 C   0  0  0  0  0  0  0  0  0  0  0  0
  180.9310   16.2890   43.6750 C   0  0  0  0  0  0  0  0  0  0  0  0
  181.2970   17.6310   43.4860 C   0  0  0  0  0  0  0  0  0  0  0  0
  180.8710   18.6320   44.3650 C   0  0  0  0  0  0  0  0  0  0  0  0
  180.0560   18.3230   45.4560 C   0  0  0  0  0  0  0  0  0  0  0  0
  179.6130   19.3550   46.4170 C   0  0  0  0  0  0  0  0  0  0  0  0
  178.2350   19.5440   46.4090 O   0  0  0  0  0  0  0  0  0  0  0  0
  177.6880   20.4780   47.2520 C   0  0  0  0  0  0  0  0  0  0  0  0
  176.3010   20.6250   47.2180 C   0  0  0  0  0  0  0  0  0  0  0  0
  175.6800   21.5590   48.0520 C   0  0  0  0  0  0  0  0  0  0  0  0
  176.4460   22.3440   48.9160 C   0  0  0  0  0  0  0  0  0  0  0  0
  177.8300   22.1950   48.9460 C   0  0  0  0  0  0  0  0  0  0  0  0
  178.5190   22.9960   49.8150 O   0  0  0  0  0  0  0  0  0  0  0  0
  178.4500   21.2600   48.1140 C   0  0  0  0  0  0  0  0  0  0  0  0
  179.9020   21.0710   48.1130 C   0  0  0  0  0  0  0  0  0  0  0  0
  180.6450   21.7280   48.8410 O   0  0  0  0  0  0  0  0  0  0  0  0
  180.4600   20.0510   47.1970 C   0  0  0  0  0  0  0  0  0  0  0  0
  181.8340   19.8910   47.1930 O   0  0  0  0  0  0  0  0  0  0  0  0
  179.6940   16.9820   45.6530 C   0  0  0  0  0  0  0  0  0  0  0  0
  180.1160   15.9620   44.7740 C   0  0  0  0  0  0  0  0  0  0  0  0
  179.6950   14.5350   45.0290 C   0  0  0  0  0  0  0  0  0  0  0  0
  178.9880   13.9800   44.0030 F   0  0  0  0  0  0  0  0  0  0  0  0
  178.8750   14.4160   46.1200 F   0  0  0  0  0  0  0  0  0  0  0  0
  180.7370   13.6920   45.2860 F   0  0  0  0  0  0  0  0  0  0  0  0
  183.2366   15.1115   43.7033 H   0  0  0  0  0  0  0  0  0  0  0  0
  183.0556   14.2257   42.1511 H   0  0  0  0  0  0  0  0  0  0  0  0
  183.2103   16.0153   42.1511 H   0  0  0  0  0  0  0  0  0  0  0  0
  179.5829   15.4867   41.6587 H   0  0  0  0  0  0  0  0  0  0  0  0
  181.0540   16.2147   40.9289 H   0  0  0  0  0  0  0  0  0  0  0  0
  180.8398   14.4312   40.9289 H   0  0  0  0  0  0  0  0  0  0  0  0
  181.9318   17.9008   42.6291 H   0  0  0  0  0  0  0  0  0  0  0  0
  181.1812   19.6736   44.1951 H   0  0  0  0  0  0  0  0  0  0  0  0
  175.6976   20.0073   46.5365 H   0  0  0  0  0  0  0  0  0  0  0  0
  174.5865   21.6758   48.0276 H   0  0  0  0  0  0  0  0  0  0  0  0
  175.9568   23.0791   49.5720 H   0  0  0  0  0  0  0  0  0  0  0  0
  179.4490   23.0780   49.7400 H   0  0  0  0  0  0  0  0  0  0  0  0
  182.3460   20.2270   47.9020 H   0  0  0  0  0  0  0  0  0  0  0  0
  179.0644   16.7187   46.5157 H   0  0  0  0  0  0  0  0  0  0  0  0
  1  2  1  0
  2  3  1  0
  2  4  1  0
  4  5  2  0
  5  6  1  0
  6  7  2  0
  7  8  1  0
  8  9  1  0
  9 10  1  0
 10 11  2  0
 11 12  1  0
 12 13  2  0
 13 14  1  0
 14 15  1  0
 14 16  2  0
 16 17  1  0
 17 18  2  0
 17 19  1  0
 19 20  1  0
  7 21  1  0
 21 22  2  0
 22 23  1  0
 23 24  1  0
 23 25  1  0
 23 26  1  0
 22  4  1  0
 19  8  2  0
 16 10  1  0
  1 27  1  0
  1 28  1  0
  1 29  1  0
  3 30  1  0
  3 31  1  0
  3 32  1  0
  5 33  1  0
  6 34  1  0
 11 35  1  0
 12 36  1  0
 13 37  1  0
 15 38  1  0
 20 39  1  0
 21 40  1  0
M  END
>  <meeko>  (2) 
{"is_sidechain": [false], "free_energy": -7.549, "intermolecular_energy": -9.046, "internal_energy": -0.502}

$$$$
cand_012_out
     RDKit          3D

 40 42  0  0  0  0  0  0  0  0999 V2000
  173.4160   26.3710   52.4620 C   0  0  0  0  0  0  0  0  0  0  0  0
  172.7900   25.1010   52.0860 N   0  0  0  0  0  0  0  0  0  0  0  0
  172.1870   24.3740   53.2090 C   0  0  0  0  0  0  0  0  0  0  0  0
  173.6220   24.2750   51.3070 C   0  0  0  0  0  0  0  0  0  0  0  0
  174.7820   23.6850   51.8350 C   0  0  0  0  0  0  0  0  0  0  0  0
  175.5970   22.8590   51.0540 C   0  0  0  0  0  0  0  0  0  0  0  0
  175.2720   22.5890   49.7230 C   0  0  0  0  0  0  0  0  0  0  0  0
  176.1290   21.7420   48.8660 C   0  0  0  0  0  0  0  0  0  0  0  0
  177.4030   22.2690   48.6860 O   0  0  0  0  0  0  0  0  0  0  0  0
  178.3010   21.5840   47.9090 C   0  0  0  0  0  0  0  0  0  0  0  0
  179.5710   22.1440   47.7660 C   0  0  0  0  0  0  0  0  0  0  0  0
  180.5330   21.4970   46.9860 C   0  0  0  0  0  0  0  0  0  0  0  0
  180.2240   20.2920   46.3510 C   0  0  0  0  0  0  0  0  0  0  0  0
  178.9560   19.7370   46.4950 C   0  0  0  0  0  0  0  0  0  0  0  0
  178.7210   18.5560   45.8450 O   0  0  0  0  0  0  0  0  0  0  0  0
  177.9950   20.3830   47.2760 C   0  0  0  0  0  0  0  0  0  0  0  0
  176.6490   19.8340   47.4530 C   0  0  0  0  0  0  0  0  0  0  0  0
  176.3000   18.7820   46.9220 O   0  0  0  0  0  0  0  0  0  0  0  0
  175.7060   20.5940   48.3040 C   0  0  0  0  0  0  0  0  0  0  0  0
  174.4330   20.0750   48.4530 O   0  0  0  0  0  0  0  0  0  0  0  0
  174.1190   23.1820   49.1900 C   0  0  0  0  0  0  0  0  0  0  0  0
  173.2860   24.0180   49.9660 C   0  0  0  0  0  0  0  0  0  0  0  0
  172.0550   24.6290   49.3450 C   0  0  0  0  0  0  0  0  0  0  0  0
  170.9060   24.3710   50.0340 F   0  0  0  0  0  0  0  0  0  0  0  0
  171.8130   24.1580   48.0810 F   0  0  0  0  0  0  0  0  0  0  0  0
  172.1260   25.9840   49.2000 F   0  0  0  0  0  0  0  0  0  0  0  0
  173.4550   26.4501   53.5585 H   0  0  0  0  0  0  0  0  0  0  0  0
  174.4371   26.4112   52.0549 H   0  0  0  0  0  0  0  0  0  0  0  0
  172.8259   27.2053   52.0549 H   0  0  0  0  0  0  0  0  0  0  0  0
  172.5430   24.8032   54.1572 H   0  0  0  0  0  0  0  0  0  0  0  0
  171.0917   24.4603   53.1558 H   0  0  0  0  0  0  0  0  0  0  0  0
  172.4743   23.3135   53.1558 H   0  0  0  0  0  0  0  0  0  0  0  0
  175.0550   23.8762   52.8833 H   0  0  0  0  0  0  0  0  0  0  0  0
  176.5038   22.4173   51.4930 H   0  0  0  0  0  0  0  0  0  0  0  0
  179.8144   23.0929   48.2663 H   0  0  0  0  0  0  0  0  0  0  0  0
  181.5346   21.9371   46.8720 H   0  0  0  0  0  0  0  0  0  0  0  0
  180.9819   19.7824   45.7379 H   0  0  0  0  0  0  0  0  0  0  0  0
  177.8710   18.3730   45.4980 H   0  0  0  0  0  0  0  0  0  0  0  0
  173.7350   20.3830   47.9080 H   0  0  0  0  0  0  0  0  0  0  0  0
  173.8559   22.9911   48.1391 H   0  0  0  0  0  0  0  0  0  0  0  0
  1  2  1  0
  2  3  1  0
  2  4  1  0
  4  5  2  0
  5  6  1  0
  6  7  2  0
  7  8  1  0
  8  9  1  0
  9 10  1  0
 10 11  2  0
 11 12  1  0
 12 13  2  0
 13 14  1  0
 14 15  1  0
 14 16  2  0
 16 17  1  0
 17 18  2  0
 17 19  1  0
 19 20  1  0
  7 21  1  0
 21 22  2  0
 22 23  1  0
 23 24  1  0
 23 25  1  0
 23 26  1  0
 22  4  1  0
 19  8  2  0
 16 10  1  0
  1 27  1  0
  1 28  1  0
  1 29  1  0
  3 30  1  0
  3 31  1  0
  3 32  1  0
  5 33  1  0
  6 34  1  0
 11 35  1  0
 12 36  1  0
 13 37  1  0
 15 38  1  0
 20 39  1  0
 21 40  1  0
M  END
>  <meeko>  (3) 
{"is_sidechain": [false], "free_energy": -7.406, "intermolecular_energy": -8.902, "internal_energy": -0.47}

$$$$
cand_012_out
     RDKit          3D

 40 42  0  0  0  0  0  0  0  0999 V2000
  169.9300   24.5430   52.2660 C   0  0  0  0  0  0  0  0  0  0  0  0
  171.2390   25.2030   52.2710 N   0  0  0  0  0  0  0  0  0  0  0  0
  171.1790   26.6530   52.0570 C   0  0  0  0  0  0  0  0  0  0  0  0
  172.1810   24.5820   51.4290 C   0  0  0  0  0  0  0  0  0  0  0  0
  171.9800   24.4770   50.0440 C   0  0  0  0  0  0  0  0  0  0  0  0
  172.9270   23.8660   49.2160 C   0  0  0  0  0  0  0  0  0  0  0  0
  174.1120   23.3500   49.7470 C   0  0  0  0  0  0  0  0  0  0  0  0
  175.1190   22.6760   48.9010 C   0  0  0  0  0  0  0  0  0  0  0  0
  174.7550   21.3780   48.5580 O   0  0  0  0  0  0  0  0  0  0  0  0
  175.6030   20.6350   47.7770 C   0  0  0  0  0  0  0  0  0  0  0  0
  175.1920   19.3430   47.4480 C   0  0  0  0  0  0  0  0  0  0  0  0
  176.0090   18.5340   46.6550 C   0  0  0  0  0  0  0  0  0  0  0  0
  177.2350   19.0160   46.1920 C   0  0  0  0  0  0  0  0  0  0  0  0
  177.6410   20.3060   46.5220 C   0  0  0  0  0  0  0  0  0  0  0  0
  178.8530   20.7150   46.0350 O   0  0  0  0  0  0  0  0  0  0  0  0
  176.8240   21.1160   47.3140 C   0  0  0  0  0  0  0  0  0  0  0  0
  177.2140   22.4770   47.6850 C   0  0  0  0  0  0  0  0  0  0  0  0
  178.2790   22.9710   47.3220 O   0  0  0  0  0  0  0  0  0  0  0  0
  176.2740   23.2550   48.5240 C   0  0  0  0  0  0  0  0  0  0  0  0
  176.6580   24.5340   48.8820 O   0  0  0  0  0  0  0  0  0  0  0  0
  174.3140   23.4470   51.1310 C   0  0  0  0  0  0  0  0  0  0  0  0
  173.3660   24.0610   51.9790 C   0  0  0  0  0  0  0  0  0  0  0  0
  173.6330   24.1420   53.4620 C   0  0  0  0  0  0  0  0  0  0  0  0
  173.8730   25.4090   53.9080 F   0  0  0  0  0  0  0  0  0  0  0  0
  174.7410   23.4270   53.8370 F   0  0  0  0  0  0  0  0  0  0  0  0
  172.6230   23.6430   54.2310 F   0  0  0  0  0  0  0  0  0  0  0  0
  169.5994   24.3763   53.3018 H   0  0  0  0  0  0  0  0  0  0  0  0
  169.1998   25.1807   51.7462 H   0  0  0  0  0  0  0  0  0  0  0  0
  170.0085   23.5767   51.7462 H   0  0  0  0  0  0  0  0  0  0  0  0
  171.1577   27.1666   53.0295 H   0  0  0  0  0  0  0  0  0  0  0  0
  172.0645   26.9770   51.4905 H   0  0  0  0  0  0  0  0  0  0  0  0
  170.2698   26.9027   51.4905 H   0  0  0  0  0  0  0  0  0  0  0  0
  171.0590   24.8835   49.6008 H   0  0  0  0  0  0  0  0  0  0  0  0
  172.7370   23.7908   48.1351 H   0  0  0  0  0  0  0  0  0  0  0  0
  174.2265   18.9622   47.8124 H   0  0  0  0  0  0  0  0  0  0  0  0
  175.6860   17.5152   46.3947 H   0  0  0  0  0  0  0  0  0  0  0  0
  177.8783   18.3780   45.5681 H   0  0  0  0  0  0  0  0  0  0  0  0
  179.6230   20.2110   46.2130 H   0  0  0  0  0  0  0  0  0  0  0  0
  176.1150   25.0440   49.4500 H   0  0  0  0  0  0  0  0  0  0  0  0
  175.2351   23.0340   51.5680 H   0  0  0  0  0  0  0  0  0  0  0  0
  1  2  1  0
  2  3  1  0
  2  4  1  0
  4  5  2  0
  5  6  1  0
  6  7  2  0
  7  8  1  0
  8  9  1  0
  9 10  1  0
 10 11  2  0
 11 12  1  0
 12 13  2  0
 13 14  1  0
 14 15  1  0
 14 16  2  0
 16 17  1  0
 17 18  2  0
 17 19  1  0
 19 20  1  0
  7 21  1  0
 21 22  2  0
 22 23  1  0
 23 24  1  0
 23 25  1  0
 23 26  1  0
 22  4  1  0
 19  8  2  0
 16 10  1  0
  1 27  1  0
  1 28  1  0
  1 29  1  0
  3 30  1  0
  3 31  1  0
  3 32  1  0
  5 33  1  0
  6 34  1  0
 11 35  1  0
 12 36  1  0
 13 37  1  0
 15 38  1  0
 20 39  1  0
 21 40  1  0
M  END
>  <meeko>  (4) 
{"is_sidechain": [false], "free_energy": -7.363, "intermolecular_energy": -8.73, "internal_energy": -0.589}

$$$$
cand_012_out
     RDKit          3D

 40 42  0  0  0  0  0  0  0  0999 V2000
  185.3820   23.3730   46.7600 C   0  0  0  0  0  0  0  0  0  0  0  0
  184.9770   23.5550   48.1570 N   0  0  0  0  0  0  0  0  0  0  0  0
  185.9270   23.0080   49.1320 C   0  0  0  0  0  0  0  0  0  0  0  0
  183.6570   23.1430   48.4160 C   0  0  0  0  0  0  0  0  0  0  0  0
  183.3500   21.8170   48.7630 C   0  0  0  0  0  0  0  0  0  0  0  0
  182.0350   21.4210   49.0270 C   0  0  0  0  0  0  0  0  0  0  0  0
  180.9860   22.3400   48.9610 C   0  0  0  0  0  0  0  0  0  0  0  0
  179.5830   21.9440   49.2090 C   0  0  0  0  0  0  0  0  0  0  0  0
  178.8730   21.7100   48.0370 O   0  0  0  0  0  0  0  0  0  0  0  0
  177.5560   21.3380   48.1220 C   0  0  0  0  0  0  0  0  0  0  0  0
  176.8850   21.1020   46.9210 C   0  0  0  0  0  0  0  0  0  0  0  0
  175.5420   20.7200   46.9380 C   0  0  0  0  0  0  0  0  0  0  0  0
  174.8700   20.5750   48.1530 C   0  0  0  0  0  0  0  0  0  0  0  0
  175.5420   20.8120   49.3490 C   0  0  0  0  0  0  0  0  0  0  0  0
  174.8230   20.6520   50.5030 O   0  0  0  0  0  0  0  0  0  0  0  0
  176.8860   21.1930   49.3330 C   0  0  0  0  0  0  0  0  0  0  0  0
  177.6290   21.4520   50.5670 C   0  0  0  0  0  0  0  0  0  0  0  0
  177.1060   21.3520   51.6760 O   0  0  0  0  0  0  0  0  0  0  0  0
  179.0510   21.8450   50.4410 C   0  0  0  0  0  0  0  0  0  0  0  0
  179.7400   22.1030   51.6120 O   0  0  0  0  0  0  0  0  0  0  0  0
  181.2870   23.6640   48.6090 C   0  0  0  0  0  0  0  0  0  0  0  0
  182.6100   24.0790   48.3400 C   0  0  0  0  0  0  0  0  0  0  0  0
  182.8800   25.5150   47.9670 C   0  0  0  0  0  0  0  0  0  0  0  0
  183.9130   26.0770   48.6600 F   0  0  0  0  0  0  0  0  0  0  0  0
  181.8100   26.3340   48.2160 F   0  0  0  0  0  0  0  0  0  0  0  0
  183.1540   25.6980   46.6430 F   0  0  0  0  0  0  0  0  0  0  0  0
  186.3848   22.9223   46.7247 H   0  0  0  0  0  0  0  0  0  0  0  0
  184.6644   22.7108   46.2535 H   0  0  0  0  0  0  0  0  0  0  0  0
  185.4007   24.3493   46.2535 H   0  0  0  0  0  0  0  0  0  0  0  0
  185.5671   23.2152   50.1506 H   0  0  0  0  0  0  0  0  0  0  0  0
  186.0149   21.9210   48.9882 H   0  0  0  0  0  0  0  0  0  0  0  0
  186.9112   23.4777   48.9882 H   0  0  0  0  0  0  0  0  0  0  0  0
  184.1599   21.0755   48.8284 H   0  0  0  0  0  0  0  0  0  0  0  0
  181.8248   20.3737   49.2896 H   0  0  0  0  0  0  0  0  0  0  0  0
  177.4132   21.2167   45.9629 H   0  0  0  0  0  0  0  0  0  0  0  0
  175.0125   20.5330   45.9921 H   0  0  0  0  0  0  0  0  0  0  0  0
  173.8120   20.2742   48.1654 H   0  0  0  0  0  0  0  0  0  0  0  0
  174.5830   21.4010   51.0130 H   0  0  0  0  0  0  0  0  0  0  0  0
  180.6770   22.1240   51.6090 H   0  0  0  0  0  0  0  0  0  0  0  0
  180.4711   24.3986   48.5406 H   0  0  0  0  0  0  0  0  0  0  0  0
  1  2  1  0
  2  3  1  0
  2  4  1  0
  4  5  2  0
  5  6  1  0
  6  7  2  0
  7  8  1  0
  8  9  1  0
  9 10  1  0
 10 11  2  0
 11 12  1  0
 12 13  2  0
 13 14  1  0
 14 15  1  0
 14 16  2  0
 16 17  1  0
 17 18  2  0
 17 19  1  0
 19 20  1  0
  7 21  1  0
 21 22  2  0
 22 23  1  0
 23 24  1  0
 23 25  1  0
 23 26  1  0
 22  4  1  0
 19  8  2  0
 16 10  1  0
  1 27  1  0
  1 28  1  0
  1 29  1  0
  3 30  1  0
  3 31  1  0
  3 32  1  0
  5 33  1  0
  6 34  1  0
 11 35  1  0
 12 36  1  0
 13 37  1  0
 15 38  1  0
 20 39  1  0
 21 40  1  0
M  END
>  <meeko>  (5) 
{"is_sidechain": [false], "free_energy": -7.299, "intermolecular_energy": -8.78, "internal_energy": -0.46}

$$$$
cand_012_out
     RDKit          3D

 40 42  0  0  0  0  0  0  0  0999 V2000
  172.1290   23.4630   51.2810 C   0  0  0  0  0  0  0  0  0  0  0  0
  172.7310   24.1020   50.1070 N   0  0  0  0  0  0  0  0  0  0  0  0
  171.8420   24.1750   48.9420 C   0  0  0  0  0  0  0  0  0  0  0  0
  173.9970   23.5820   49.7760 C   0  0  0  0  0  0  0  0  0  0  0  0
  174.1480   22.3090   49.2040 C   0  0  0  0  0  0  0  0  0  0  0  0
  175.4100   21.8070   48.8700 C   0  0  0  0  0  0  0  0  0  0  0  0
  176.5610   22.5670   49.0890 C   0  0  0  0  0  0  0  0  0  0  0  0
  177.9090   22.0520   48.7710 C   0  0  0  0  0  0  0  0  0  0  0  0
  178.0030   21.5440   47.4800 O   0  0  0  0  0  0  0  0  0  0  0  0
  179.2010   21.0290   47.0540 C   0  0  0  0  0  0  0  0  0  0  0  0
  179.2520   20.5410   45.7480 C   0  0  0  0  0  0  0  0  0  0  0  0
  180.4420   20.0030   45.2520 C   0  0  0  0  0  0  0  0  0  0  0  0
  181.5780   19.9530   46.0620 C   0  0  0  0  0  0  0  0  0  0  0  0
  181.5230   20.4400   47.3650 C   0  0  0  0  0  0  0  0  0  0  0  0
  182.6730   20.3600   48.1030 O   0  0  0  0  0  0  0  0  0  0  0  0
  180.3340   20.9800   47.8600 C   0  0  0  0  0  0  0  0  0  0  0  0
  180.2330   21.5020   49.2240 C   0  0  0  0  0  0  0  0  0  0  0  0
  181.1870   21.4870   50.0000 O   0  0  0  0  0  0  0  0  0  0  0  0
  178.9280   22.0570   49.6510 C   0  0  0  0  0  0  0  0  0  0  0  0
  178.8390   22.5340   50.9460 O   0  0  0  0  0  0  0  0  0  0  0  0
  176.4150   23.8370   49.6660 C   0  0  0  0  0  0  0  0  0  0  0  0
  175.1480   24.3570   50.0080 C   0  0  0  0  0  0  0  0  0  0  0  0
  175.0460   25.7300   50.6240 C   0  0  0  0  0  0  0  0  0  0  0  0
  174.3490   26.6230   49.8640 F   0  0  0  0  0  0  0  0  0  0  0  0
  176.2710   26.3160   50.8100 F   0  0  0  0  0  0  0  0  0  0  0  0
  174.4690   25.7370   51.8600 F   0  0  0  0  0  0  0  0  0  0  0  0
  172.5480   23.9077   52.1957 H   0  0  0  0  0  0  0  0  0  0  0  0
  171.0399   23.6168   51.2641 H   0  0  0  0  0  0  0  0  0  0  0  0
  172.3474   22.3850   51.2641 H   0  0  0  0  0  0  0  0  0  0  0  0
  170.7992   24.2606   49.2814 H   0  0  0  0  0  0  0  0  0  0  0  0
  172.1037   25.0547   48.3356 H   0  0  0  0  0  0  0  0  0  0  0  0
  171.9567   23.2644   48.3356 H   0  0  0  0  0  0  0  0  0  0  0  0
  173.2559   21.6939   49.0147 H   0  0  0  0  0  0  0  0  0  0  0  0
  175.4969   20.8026   48.4300 H   0  0  0  0  0  0  0  0  0  0  0  0
  178.3568   20.5798   45.1100 H   0  0  0  0  0  0  0  0  0  0  0  0
  180.4840   19.6184   44.2223 H   0  0  0  0  0  0  0  0  0  0  0  0
  182.5150   19.5295   45.6713 H   0  0  0  0  0  0  0  0  0  0  0  0
  182.6630   19.9400   48.9410 H   0  0  0  0  0  0  0  0  0  0  0  0
  179.5120   23.0890   51.2870 H   0  0  0  0  0  0  0  0  0  0  0  0
  177.3120   24.4442   49.8572 H   0  0  0  0  0  0  0  0  0  0  0  0
  1  2  1  0
  2  3  1  0
  2  4  1  0
  4  5  2  0
  5  6  1  0
  6  7  2  0
  7  8  1  0
  8  9  1  0
  9 10  1  0
 10 11  2  0
 11 12  1  0
 12 13  2  0
 13 14  1  0
 14 15  1  0
 14 16  2  0
 16 17  1  0
 17 18  2  0
 17 19  1  0
 19 20  1  0
  7 21  1  0
 21 22  2  0
 22 23  1  0
 23 24  1  0
 23 25  1  0
 23 26  1  0
 22  4  1  0
 19  8  2  0
 16 10  1  0
  1 27  1  0
  1 28  1  0
  1 29  1  0
  3 30  1  0
  3 31  1  0
  3 32  1  0
  5 33  1  0
  6 34  1  0
 11 35  1  0
 12 36  1  0
 13 37  1  0
 15 38  1  0
 20 39  1  0
 21 40  1  0
M  END
>  <meeko>  (6) 
{"is_sidechain": [false], "free_energy": -7.292, "intermolecular_energy": -8.902, "internal_energy": -0.329}

$$$$
cand_012_out
     RDKit          3D

 40 42  0  0  0  0  0  0  0  0999 V2000
  171.1930   24.2470   52.2990 C   0  0  0  0  0  0  0  0  0  0  0  0
  172.4750   24.8960   52.0100 N   0  0  0  0  0  0  0  0  0  0  0  0
  172.3510   26.2710   51.5140 C   0  0  0  0  0  0  0  0  0  0  0  0
  173.3280   24.1180   51.2060 C   0  0  0  0  0  0  0  0  0  0  0  0
  172.9920   23.7750   49.8870 C   0  0  0  0  0  0  0  0  0  0  0  0
  173.8520   23.0080   49.0930 C   0  0  0  0  0  0  0  0  0  0  0  0
  175.0800   22.5680   49.5920 C   0  0  0  0  0  0  0  0  0  0  0  0
  175.9970   21.7340   48.7860 C   0  0  0  0  0  0  0  0  0  0  0  0
  177.2610   22.2960   48.6520 O   0  0  0  0  0  0  0  0  0  0  0  0
  178.2120   21.6270   47.9240 C   0  0  0  0  0  0  0  0  0  0  0  0
  179.4700   22.2220   47.8270 C   0  0  0  0  0  0  0  0  0  0  0  0
  180.4830   21.5930   47.0990 C   0  0  0  0  0  0  0  0  0  0  0  0
  180.2370   20.3710   46.4700 C   0  0  0  0  0  0  0  0  0  0  0  0
  178.9800   19.7800   46.5690 C   0  0  0  0  0  0  0  0  0  0  0  0
  178.8090   18.5830   45.9280 O   0  0  0  0  0  0  0  0  0  0  0  0
  177.9680   20.4090   47.2980 C   0  0  0  0  0  0  0  0  0  0  0  0
  176.6330   19.8230   47.4270 C   0  0  0  0  0  0  0  0  0  0  0  0
  176.3370   18.7530   46.8970 O   0  0  0  0  0  0  0  0  0  0  0  0
  175.6320   20.5660   48.2250 C   0  0  0  0  0  0  0  0  0  0  0  0
  174.3690   20.0120   48.3270 O   0  0  0  0  0  0  0  0  0  0  0  0
  175.4160   22.9020   50.9120 C   0  0  0  0  0  0  0  0  0  0  0  0
  174.5590   23.6760   51.7240 C   0  0  0  0  0  0  0  0  0  0  0  0
  174.9690   24.0100   53.1370 C   0  0  0  0  0  0  0  0  0  0  0  0
  175.2710   25.3270   53.3230 F   0  0  0  0  0  0  0  0  0  0  0  0
  176.0960   23.3370   53.5310 F   0  0  0  0  0  0  0  0  0  0  0  0
  174.0310   23.6890   54.0730 F   0  0  0  0  0  0  0  0  0  0  0  0
  171.0547   24.1770   53.3880 H   0  0  0  0  0  0  0  0  0  0  0  0
  170.3754   24.8398   51.8629 H   0  0  0  0  0  0  0  0  0  0  0  0
  171.1867   23.2371   51.8629 H   0  0  0  0  0  0  0  0  0  0  0  0
  172.2885   26.9639   52.3660 H   0  0  0  0  0  0  0  0  0  0  0  0
  173.2303   26.5207   50.9020 H   0  0  0  0  0  0  0  0  0  0  0  0
  171.4412   26.3594   50.9020 H   0  0  0  0  0  0  0  0  0  0  0  0
  172.0333   24.1160   49.4690 H   0  0  0  0  0  0  0  0  0  0  0  0
  173.5578   22.7490   48.0652 H   0  0  0  0  0  0  0  0  0  0  0  0
  179.6640   23.1846   48.3228 H   0  0  0  0  0  0  0  0  0  0  0  0
  181.4755   22.0610   47.0213 H   0  0  0  0  0  0  0  0  0  0  0  0
  181.0349   19.8759   45.8971 H   0  0  0  0  0  0  0  0  0  0  0  0
  178.3820   18.5550   45.0940 H   0  0  0  0  0  0  0  0  0  0  0  0
  173.6120   20.5350   48.1490 H   0  0  0  0  0  0  0  0  0  0  0  0
  176.3730   22.5514   51.3257 H   0  0  0  0  0  0  0  0  0  0  0  0
  1  2  1  0
  2  3  1  0
  2  4  1  0
  4  5  2  0
  5  6  1  0
  6  7  2  0
  7  8  1  0
  8  9  1  0
  9 10  1  0
 10 11  2  0
 11 12  1  0
 12 13  2  0
 13 14  1  0
 14 15  1  0
 14 16  2  0
 16 17  1  0
 17 18  2  0
 17 19  1  0
 19 20  1  0
  7 21  1  0
 21 22  2  0
 22 23  1  0
 23 24  1  0
 23 25  1  0
 23 26  1  0
 22  4  1  0
 19  8  2  0
 16 10  1  0
  1 27  1  0
  1 28  1  0
  1 29  1  0
  3 30  1  0
  3 31  1  0
  3 32  1  0
  5 33  1  0
  6 34  1  0
 11 35  1  0
 12 36  1  0
 13 37  1  0
 15 38  1  0
 20 39  1  0
 21 40  1  0
M  END
>  <meeko>  (7) 
{"is_sidechain": [false], "free_energy": -7.253, "intermolecular_energy": -8.767, "internal_energy": -0.415}

$$$$
cand_012_out
     RDKit          3D

 40 42  0  0  0  0  0  0  0  0999 V2000
  175.9600   28.6370   51.4540 C   0  0  0  0  0  0  0  0  0  0  0  0
  175.0640   27.5440   51.8400 N   0  0  0  0  0  0  0  0  0  0  0  0
  174.9850   27.3160   53.2870 C   0  0  0  0  0  0  0  0  0  0  0  0
  175.2960   26.3520   51.1280 C   0  0  0  0  0  0  0  0  0  0  0  0
  176.5200   25.6700   51.2070 C   0  0  0  0  0  0  0  0  0  0  0  0
  176.7370   24.4810   50.5030 C   0  0  0  0  0  0  0  0  0  0  0  0
  175.7320   23.9320   49.7030 C   0  0  0  0  0  0  0  0  0  0  0  0
  175.9410   22.6920   48.9260 C   0  0  0  0  0  0  0  0  0  0  0  0
  177.2280   22.5890   48.4110 O   0  0  0  0  0  0  0  0  0  0  0  0
  177.5580   21.4860   47.6640 C   0  0  0  0  0  0  0  0  0  0  0  0
  178.8630   21.4190   47.1770 C   0  0  0  0  0  0  0  0  0  0  0  0
  179.2630   20.3220   46.4090 C   0  0  0  0  0  0  0  0  0  0  0  0
  178.3590   19.2960   46.1300 C   0  0  0  0  0  0  0  0  0  0  0  0
  177.0570   19.3670   46.6180 C   0  0  0  0  0  0  0  0  0  0  0  0
  176.2230   18.3270   46.3060 O   0  0  0  0  0  0  0  0  0  0  0  0
  176.6570   20.4630   47.3860 C   0  0  0  0  0  0  0  0  0  0  0  0
  175.2980   20.5770   47.9170 C   0  0  0  0  0  0  0  0  0  0  0  0
  174.4430   19.7180   47.7100 O   0  0  0  0  0  0  0  0  0  0  0  0
  174.9760   21.7760   48.7240 C   0  0  0  0  0  0  0  0  0  0  0  0
  173.6850   21.8820   49.2090 O   0  0  0  0  0  0  0  0  0  0  0  0
  174.5090   24.6150   49.6160 C   0  0  0  0  0  0  0  0  0  0  0  0
  174.2760   25.8150   50.3220 C   0  0  0  0  0  0  0  0  0  0  0  0
  172.9420   26.5080   50.1960 C   0  0  0  0  0  0  0  0  0  0  0  0
  173.0350   27.8070   49.7870 F   0  0  0  0  0  0  0  0  0  0  0  0
  172.2650   26.5670   51.3850 F   0  0  0  0  0  0  0  0  0  0  0  0
  172.0800   25.8900   49.3380 F   0  0  0  0  0  0  0  0  0  0  0  0
  176.3575   29.1219   52.3578 H   0  0  0  0  0  0  0  0  0  0  0  0
  176.7922   28.2355   50.8572 H   0  0  0  0  0  0  0  0  0  0  0  0
  175.4031   29.3743   50.8572 H   0  0  0  0  0  0  0  0  0  0  0  0
  175.3001   28.2256   53.8193 H   0  0  0  0  0  0  0  0  0  0  0  0
  173.9492   27.0697   53.5634 H   0  0  0  0  0  0  0  0  0  0  0  0
  175.6465   26.4817   53.5634 H   0  0  0  0  0  0  0  0  0  0  0  0
  177.3251   26.0788   51.8353 H   0  0  0  0  0  0  0  0  0  0  0  0
  177.7095   23.9728   50.5801 H   0  0  0  0  0  0  0  0  0  0  0  0
  179.5758   22.2275   47.3968 H   0  0  0  0  0  0  0  0  0  0  0  0
  180.2919   20.2672   46.0238 H   0  0  0  0  0  0  0  0  0  0  0  0
  178.6746   18.4328   45.5256 H   0  0  0  0  0  0  0  0  0  0  0  0
  176.0430   17.6640   46.9430 H   0  0  0  0  0  0  0  0  0  0  0  0
  173.2260   21.1140   49.4890 H   0  0  0  0  0  0  0  0  0  0  0  0
  173.7106   24.2042   48.9806 H   0  0  0  0  0  0  0  0  0  0  0  0
  1  2  1  0
  2  3  1  0
  2  4  1  0
  4  5  2  0
  5  6  1  0
  6  7  2  0
  7  8  1  0
  8  9  1  0
  9 10  1  0
 10 11  2  0
 11 12  1  0
 12 13  2  0
 13 14  1  0
 14 15  1  0
 14 16  2  0
 16 17  1  0
 17 18  2  0
 17 19  1  0
 19 20  1  0
  7 21  1  0
 21 22  2  0
 22 23  1  0
 23 24  1  0
 23 25  1  0
 23 26  1  0
 22  4  1  0
 19  8  2  0
 16 10  1  0
  1 27  1  0
  1 28  1  0
  1 29  1  0
  3 30  1  0
  3 31  1  0
  3 32  1  0
  5 33  1  0
  6 34  1  0
 11 35  1  0
 12 36  1  0
 13 37  1  0
 15 38  1  0
 20 39  1  0
 21 40  1  0
M  END
>  <meeko>  (8) 
{"is_sidechain": [false], "free_energy": -7.129, "intermolecular_energy": -8.892, "internal_energy": -0.138}

$$$$
cand_012_out
     RDKit          3D

 40 42  0  0  0  0  0  0  0  0999 V2000
  173.9520   27.9290   52.7430 C   0  0  0  0  0  0  0  0  0  0  0  0
  173.2370   26.6610   52.5710 N   0  0  0  0  0  0  0  0  0  0  0  0
  172.8340   26.0240   53.8300 C   0  0  0  0  0  0  0  0  0  0  0  0
  173.8920   25.7610   51.7090 C   0  0  0  0  0  0  0  0  0  0  0  0
  175.0760   25.1070   52.0820 C   0  0  0  0  0  0  0  0  0  0  0  0
  175.7140   24.2090   51.2210 C   0  0  0  0  0  0  0  0  0  0  0  0
  175.1800   23.9290   49.9610 C   0  0  0  0  0  0  0  0  0  0  0  0
  175.8460   23.0040   49.0190 C   0  0  0  0  0  0  0  0  0  0  0  0
  175.1530   21.8100   48.8530 O   0  0  0  0  0  0  0  0  0  0  0  0
  175.6630   20.8590   48.0070 C   0  0  0  0  0  0  0  0  0  0  0  0
  174.9280   19.6810   47.8630 C   0  0  0  0  0  0  0  0  0  0  0  0
  175.3920   18.6710   47.0160 C   0  0  0  0  0  0  0  0  0  0  0  0
  176.5890   18.8390   46.3170 C   0  0  0  0  0  0  0  0  0  0  0  0
  177.3190   20.0150   46.4640 C   0  0  0  0  0  0  0  0  0  0  0  0
  178.4820   20.1130   45.7490 O   0  0  0  0  0  0  0  0  0  0  0  0
  176.8550   21.0250   47.3090 C   0  0  0  0  0  0  0  0  0  0  0  0
  177.5920   22.2760   47.4930 C   0  0  0  0  0  0  0  0  0  0  0  0
  178.6560   22.4960   46.9170 O   0  0  0  0  0  0  0  0  0  0  0  0
  177.0120   23.2860   48.4070 C   0  0  0  0  0  0  0  0  0  0  0  0
  177.7240   24.4580   48.5860 O   0  0  0  0  0  0  0  0  0  0  0  0
  174.0010   24.5850   49.5810 C   0  0  0  0  0  0  0  0  0  0  0  0
  173.3460   25.4940   50.4400 C   0  0  0  0  0  0  0  0  0  0  0  0
  172.0780   26.1720   49.9840 C   0  0  0  0  0  0  0  0  0  0  0  0
  171.0430   26.0490   50.8640 F   0  0  0  0  0  0  0  0  0  0  0  0
  171.5980   25.6530   48.8090 F   0  0  0  0  0  0  0  0  0  0  0  0
  172.2240   27.5050   49.7380 F   0  0  0  0  0  0  0  0  0  0  0  0
  174.0711   28.1402   53.8160 H   0  0  0  0  0  0  0  0  0  0  0  0
  174.9431   27.8580   52.2711 H   0  0  0  0  0  0  0  0  0  0  0  0
  173.3784   28.7403   52.2711 H   0  0  0  0  0  0  0  0  0  0  0  0
  173.2090   26.6168   54.6773 H   0  0  0  0  0  0  0  0  0  0  0  0
  171.7364   25.9690   53.8782 H   0  0  0  0  0  0  0  0  0  0  0  0
  173.2544   25.0087   53.8782 H   0  0  0  0  0  0  0  0  0  0  0  0
  175.5114   25.3049   53.0726 H   0  0  0  0  0  0  0  0  0  0  0  0
  176.6457   23.7182   51.5390 H   0  0  0  0  0  0  0  0  0  0  0  0
  173.9858   19.5481   48.4149 H   0  0  0  0  0  0  0  0  0  0  0  0
  174.8136   17.7426   46.8998 H   0  0  0  0  0  0  0  0  0  0  0  0
  176.9545   18.0433   45.6512 H   0  0  0  0  0  0  0  0  0  0  0  0
  178.8120   19.3680   45.2860 H   0  0  0  0  0  0  0  0  0  0  0  0
  178.0060   24.9530   47.8410 H   0  0  0  0  0  0  0  0  0  0  0  0
  173.5746   24.3862   48.5867 H   0  0  0  0  0  0  0  0  0  0  0  0
  1  2  1  0
  2  3  1  0
  2  4  1  0
  4  5  2  0
  5  6  1  0
  6  7  2  0
  7  8  1  0
  8  9  1  0
  9 10  1  0
 10 11  2  0
 11 12  1  0
 12 13  2  0
 13 14  1  0
 14 15  1  0
 14 16  2  0
 16 17  1  0
 17 18  2  0
 17 19  1  0
 19 20  1  0
  7 21  1  0
 21 22  2  0
 22 23  1  0
 23 24  1  0
 23 25  1  0
 23 26  1  0
 22  4  1  0
 19  8  2  0
 16 10  1  0
  1 27  1  0
  1 28  1  0
  1 29  1  0
  3 30  1  0
  3 31  1  0
  3 32  1  0
  5 33  1  0
  6 34  1  0
 11 35  1  0
 12 36  1  0
 13 37  1  0
 15 38  1  0
 20 39  1  0
 21 40  1  0
M  END
>  <meeko>  (9) 
{"is_sidechain": [false], "free_energy": -7.119, "intermolecular_energy": -8.478, "internal_energy": -0.54}

$$$$
