cand_041_out
     RDKit          3D

 47 49  0  0  0  0  0  0  0  0999 V2000
  176.4330   18.2910   46.2130 C   0  0  0  0  0  0  0  0  0  0  0  0
  176.3510   19.3850   47.2410 C   0  0  0  0  0  0  0  0  0  0  0  0
  175.2590   19.4120   48.1210 C   0  0  0  0  0  0  0  0  0  0  0  0
  175.1430   20.4060   49.0950 C   0  0  0  0  0  0  0  0  0  0  0  0
  176.1150   21.4040   49.2170 C   0  0  0  0  0  0  0  0  0  0  0  0
  175.9850   22.4360   50.2680 C   0  0  0  0  0  0  0  0  0  0  0  0
  175.4650   23.6330   49.7900 O   0  0  0  0  0  0  0  0  0  0  0  0
  175.2920   24.6770   50.6620 C   0  0  0  0  0  0  0  0  0  0  0  0
  174.7530   25.8540   50.1430 C   0  0  0  0  0  0  0  0  0  0  0  0
  174.5530   26.9570   50.9770 C   0  0  0  0  0  0  0  0  0  0  0  0
  174.8930   26.8810   52.3290 C   0  0  0  0  0  0  0  0  0  0  0  0
  175.4300   25.7060   52.8460 C   0  0  0  0  0  0  0  0  0  0  0  0
  175.7410   25.7010   54.1780 O   0  0  0  0  0  0  0  0  0  0  0  0
  175.6300   24.6030   52.0100 C   0  0  0  0  0  0  0  0  0  0  0  0
  176.1930   23.3480   52.5120 C   0  0  0  0  0  0  0  0  0  0  0  0
  176.5220   23.2060   53.6880 O   0  0  0  0  0  0  0  0  0  0  0  0
  176.3560   22.2360   51.5470 C   0  0  0  0  0  0  0  0  0  0  0  0
  176.9000   21.0600   52.0300 O   0  0  0  0  0  0  0  0  0  0  0  0
  177.2170   21.3670   48.3520 C   0  0  0  0  0  0  0  0  0  0  0  0
  177.3520   20.3710   47.3650 C   0  0  0  0  0  0  0  0  0  0  0  0
  178.5600   20.4240   46.4510 C   0  0  0  0  0  0  0  0  0  0  0  0
  179.8750   20.3950   47.2500 C   0  0  0  0  0  0  0  0  0  0  0  0
  180.9460   19.6220   46.5870 N   0  0  0  0  0  0  0  0  0  0  0  0
  181.9360   20.4950   45.9520 C   0  0  0  0  0  0  0  0  0  0  0  0
  180.3630   18.7270   45.5830 C   0  0  0  0  0  0  0  0  0  0  0  0
  176.5060   17.3171   46.7191 H   0  0  0  0  0  0  0  0  0  0  0  0
  175.5309   18.3106   45.5839 H   0  0  0  0  0  0  0  0  0  0  0  0
  177.3221   18.4449   45.5839 H   0  0  0  0  0  0  0  0  0  0  0  0
  174.4815   18.6378   48.0426 H   0  0  0  0  0  0  0  0  0  0  0  0
  174.2774   20.4039   49.7738 H   0  0  0  0  0  0  0  0  0  0  0  0
  174.4855   25.9139   49.0777 H   0  0  0  0  0  0  0  0  0  0  0  0
  174.1276   27.8854   50.5683 H   0  0  0  0  0  0  0  0  0  0  0  0
  174.7364   27.7497   52.9853 H   0  0  0  0  0  0  0  0  0  0  0  0
  175.1470   25.3230   54.7950 H   0  0  0  0  0  0  0  0  0  0  0  0
  177.7560   20.7930   51.7580 H   0  0  0  0  0  0  0  0  0  0  0  0
  177.9975   22.1364   48.4463 H   0  0  0  0  0  0  0  0  0  0  0  0
  178.5341   19.5573   45.7741 H   0  0  0  0  0  0  0  0  0  0  0  0
  178.5220   21.3658   45.8839 H   0  0  0  0  0  0  0  0  0  0  0  0
  180.2239   21.4294   47.3855 H   0  0  0  0  0  0  0  0  0  0  0  0
  179.6622   19.8998   48.2089 H   0  0  0  0  0  0  0  0  0  0  0  0
  181.4250   19.0780   47.3050 H   0  0  0  0  0  0  0  0  0  0  0  0
  182.5210   21.0109   46.7276 H   0  0  0  0  0  0  0  0  0  0  0  0
  182.6093   19.8912   45.3258 H   0  0  0  0  0  0  0  0  0  0  0  0
  181.4212   21.2385   45.3258 H   0  0  0  0  0  0  0  0  0  0  0  0
  179.8295   17.9080   46.0875 H   0  0  0  0  0  0  0  0  0  0  0  0
  179.6585   19.2909   44.9540 H   0  0  0  0  0  0  0  0  0  0  0  0
  181.1636   18.3105   44.9540 H   0  0  0  0  0  0  0  0  0  0  0  0
  1  2  1  0
  2  3  2  0
  3  4  1  0
  4  5  2  0
  5  6  1  0
  6  7  1  0
  7  8  1  0
  8  9  2  0
  9 10  1  0
 10 11  2  0
 11 12  1  0
 12 13  1  0
 12 14  2  0
 14 15  1  0
 15 16  2  0
 15 17  1  0
 17 18  1  0
  5 19  1  0
 19 20  2  0
 20 21  1  0
 21 22  1  0
 22 23  1  0
 23 24  1  0
 23 25  1  0
 20  2  1  0
 17  6  2  0
 14  8  1  0
  1 26  1  0
  1 27  1  0
  1 28  1  0
  3 29  1  0
  4 30  1  0
  9 31  1  0
 10 32  1  0
 11 33  1  0
 13 34  1  0
 18 35  1  0
 19 36  1  0
 21 37  1  0
 21 38  1  0
 22 39  1  0
 22 40  1  0
 23 41  1  0
 24 42  1  0
 24 43  1  0
 24 44  1  0
 25 45  1  0
 25 46  1  0
 25 47  1  0
M  CHG  1  23   1
M  END
>  <meeko>  (1) 
{"is_sidechain": [false], "free_energy": -7.224, "intermolecular_energy": -9.335, "internal_energy": -0.561}

$$$$
cand_041_out
     RDKit          3D

 47 49  0  0  0  0  0  0  0  0999 V2000
  177.0160   19.7440   46.1850 C   0  0  0  0  0  0  0  0  0  0  0  0
  178.2890   20.3270   46.7360 C   0  0  0  0  0  0  0  0  0  0  0  0
  179.4960   19.6440   46.5280 C   0  0  0  0  0  0  0  0  0  0  0  0
  180.7020   20.1500   47.0170 C   0  0  0  0  0  0  0  0  0  0  0  0
  180.7370   21.3520   47.7300 C   0  0  0  0  0  0  0  0  0  0  0  0
  182.0270   21.8810   48.2210 C   0  0  0  0  0  0  0  0  0  0  0  0
  182.7510   22.5420   47.2360 O   0  0  0  0  0  0  0  0  0  0  0  0
  183.9700   23.0830   47.5570 C   0  0  0  0  0  0  0  0  0  0  0  0
  184.6550   23.7510   46.5410 C   0  0  0  0  0  0  0  0  0  0  0  0
  185.9020   24.3230   46.8010 C   0  0  0  0  0  0  0  0  0  0  0  0
  186.4640   24.2250   48.0750 C   0  0  0  0  0  0  0  0  0  0  0  0
  185.7800   23.5590   49.0870 C   0  0  0  0  0  0  0  0  0  0  0  0
  186.3880   23.5000   50.3110 O   0  0  0  0  0  0  0  0  0  0  0  0
  184.5310   22.9870   48.8270 C   0  0  0  0  0  0  0  0  0  0  0  0
  183.7780   22.2770   49.8610 C   0  0  0  0  0  0  0  0  0  0  0  0
  184.2080   22.1440   51.0050 O   0  0  0  0  0  0  0  0  0  0  0  0
  182.4600   21.7150   49.4860 C   0  0  0  0  0  0  0  0  0  0  0  0
  181.7630   21.0350   50.4680 O   0  0  0  0  0  0  0  0  0  0  0  0
  179.5340   22.0450   47.9210 C   0  0  0  0  0  0  0  0  0  0  0  0
  178.3080   21.5520   47.4330 C   0  0  0  0  0  0  0  0  0  0  0  0
  177.0510   22.3510   47.7120 C   0  0  0  0  0  0  0  0  0  0  0  0
  176.7320   22.3970   49.2170 C   0  0  0  0  0  0  0  0  0  0  0  0
  176.7340   21.0660   49.8580 N   0  0  0  0  0  0  0  0  0  0  0  0
  175.4670   20.3600   49.6560 C   0  0  0  0  0  0  0  0  0  0  0  0
  176.9940   21.2070   51.2940 C   0  0  0  0  0  0  0  0  0  0  0  0
  176.3605   19.4438   47.0158 H   0  0  0  0  0  0  0  0  0  0  0  0
  176.5045   20.4976   45.5682 H   0  0  0  0  0  0  0  0  0  0  0  0
  177.2524   18.8644   45.5682 H   0  0  0  0  0  0  0  0  0  0  0  0
  179.4926   18.6953   45.9712 H   0  0  0  0  0  0  0  0  0  0  0  0
  181.6357   19.5963   46.8391 H   0  0  0  0  0  0  0  0  0  0  0  0
  184.2131   23.8268   45.5365 H   0  0  0  0  0  0  0  0  0  0  0  0
  186.4419   24.8512   46.0013 H   0  0  0  0  0  0  0  0  0  0  0  0
  187.4472   24.6741   48.2787 H   0  0  0  0  0  0  0  0  0  0  0  0
  187.2630   23.1740   50.3840 H   0  0  0  0  0  0  0  0  0  0  0  0
  181.7980   20.1000   50.5060 H   0  0  0  0  0  0  0  0  0  0  0  0
  179.5475   22.9999   48.4669 H   0  0  0  0  0  0  0  0  0  0  0  0
  177.1922   23.3784   47.3453 H   0  0  0  0  0  0  0  0  0  0  0  0
  176.2109   21.8623   47.1968 H   0  0  0  0  0  0  0  0  0  0  0  0
  177.4862   23.0246   49.7143 H   0  0  0  0  0  0  0  0  0  0  0  0
  175.7163   22.8062   49.3213 H   0  0  0  0  0  0  0  0  0  0  0  0
  177.4720   20.5130   49.4210 H   0  0  0  0  0  0  0  0  0  0  0  0
  175.0248   20.1136   50.6326 H   0  0  0  0  0  0  0  0  0  0  0  0
  174.7751   21.0026   49.0918 H   0  0  0  0  0  0  0  0  0  0  0  0
  175.6494   19.4335   49.0918 H   0  0  0  0  0  0  0  0  0  0  0  0
  176.1661   20.7580   51.8623 H   0  0  0  0  0  0  0  0  0  0  0  0
  177.9336   20.6948   51.5485 H   0  0  0  0  0  0  0  0  0  0  0  0
  177.0773   22.2739   51.5485 H   0  0  0  0  0  0  0  0  0  0  0  0
  1  2  1  0
  2  3  2  0
  3  4  1  0
  4  5  2  0
  5  6  1  0
  6  7  1  0
  7  8  1  0
  8  9  2  0
  9 10  1  0
 10 11  2  0
 11 12  1  0
 12 13  1  0
 12 14  2  0
 14 15  1  0
 15 16  2  0
 15 17  1  0
 17 18  1  0
  5 19  1  0
 19 20  2  0
 20 21  1  0
 21 22  1  0
 22 23  1  0
 23 24  1  0
 23 25  1  0
 20  2  1  0
 17  6  2  0
 14  8  1  0
  1 26  1  0
  1 27  1  0
  1 28  1  0
  3 29  1  0
  4 30  1  0
  9 31  1  0
 10 32  1  0
 11 33  1  0
 13 34  1  0
 18 35  1  0
 19 36  1  0
 21 37  1  0
 21 38  1  0
 22 39  1  0
 22 40  1  0
 23 41  1  0
 24 42  1  0
 24 43  1  0
 24 44  1  0
 25 45  1  0
 25 46  1  0
 25 47  1  0
M  CHG  1  23   1
M  END
>  <meeko>  (2) 
{"is_sidechain": [false], "free_energy": -7.065, "intermolecular_energy": -8.982, "internal_energy": -0.709}

$$$$
cand_041_out
     RDKit          3D

 47 49  0  0  0  0  0  0  0  0999 V2000
  180.2020   19.4110   45.3420 C   0  0  0  0  0  0  0  0  0  0  0  0
  179.4000   20.0620   46.4350 C   0  0  0  0  0  0  0  0  0  0  0  0
  178.0660   19.6740   46.6230 C   0  0  0  0  0  0  0  0  0  0  0  0
  177.2840   20.2480   47.6280 C   0  0  0  0  0  0  0  0  0  0  0  0
  177.8130   21.2290   48.4730 C   0  0  0  0  0  0  0  0  0  0  0  0
  176.9760   21.8090   49.5440 C   0  0  0  0  0  0  0  0  0  0  0  0
  175.7620   22.3000   49.0770 O   0  0  0  0  0  0  0  0  0  0  0  0
  174.8880   22.8680   49.9680 C   0  0  0  0  0  0  0  0  0  0  0  0
  173.6760   23.3330   49.4570 C   0  0  0  0  0  0  0  0  0  0  0  0
  172.7410   23.9240   50.3110 C   0  0  0  0  0  0  0  0  0  0  0  0
  173.0190   24.0490   51.6730 C   0  0  0  0  0  0  0  0  0  0  0  0
  174.2290   23.5830   52.1800 C   0  0  0  0  0  0  0  0  0  0  0  0
  174.4360   23.7380   53.5240 O   0  0  0  0  0  0  0  0  0  0  0  0
  175.1640   22.9920   51.3260 C   0  0  0  0  0  0  0  0  0  0  0  0
  176.4480   22.4900   51.8180 C   0  0  0  0  0  0  0  0  0  0  0  0
  176.7680   22.5690   53.0020 O   0  0  0  0  0  0  0  0  0  0  0  0
  177.3650   21.8730   50.8320 C   0  0  0  0  0  0  0  0  0  0  0  0
  178.5800   21.4130   51.3060 O   0  0  0  0  0  0  0  0  0  0  0  0
  179.1530   21.6030   48.2980 C   0  0  0  0  0  0  0  0  0  0  0  0
  179.9570   21.0330   47.2910 C   0  0  0  0  0  0  0  0  0  0  0  0
  181.3860   21.5190   47.1530 C   0  0  0  0  0  0  0  0  0  0  0  0
  182.3400   20.7400   48.0750 C   0  0  0  0  0  0  0  0  0  0  0  0
  183.2000   21.6130   48.9010 N   0  0  0  0  0  0  0  0  0  0  0  0
  182.5100   22.0750   50.1070 C   0  0  0  0  0  0  0  0  0  0  0  0
  183.6370   22.7690   48.1120 C   0  0  0  0  0  0  0  0  0  0  0  0
  180.9827   18.7772   45.7879 H   0  0  0  0  0  0  0  0  0  0  0  0
  179.5389   18.7925   44.7193 H   0  0  0  0  0  0  0  0  0  0  0  0
  180.6710   20.1871   44.7193 H   0  0  0  0  0  0  0  0  0  0  0  0
  177.6283   18.9055   45.9689 H   0  0  0  0  0  0  0  0  0  0  0  0
  176.2404   19.9249   47.7563 H   0  0  0  0  0  0  0  0  0  0  0  0
  173.4567   23.2346   48.3836 H   0  0  0  0  0  0  0  0  0  0  0  0
  171.7850   24.2911   49.9094 H   0  0  0  0  0  0  0  0  0  0  0  0
  172.2832   24.5150   52.3449 H   0  0  0  0  0  0  0  0  0  0  0  0
  173.7170   23.9400   54.0880 H   0  0  0  0  0  0  0  0  0  0  0  0
  178.7150   20.4960   51.4390 H   0  0  0  0  0  0  0  0  0  0  0  0
  179.5883   22.3618   48.9648 H   0  0  0  0  0  0  0  0  0  0  0  0
  181.7093   21.3858   46.1101 H   0  0  0  0  0  0  0  0  0  0  0  0
  181.4182   22.5800   47.4415 H   0  0  0  0  0  0  0  0  0  0  0  0
  181.7388   20.1078   48.7450 H   0  0  0  0  0  0  0  0  0  0  0  0
  183.0040   20.1468   47.4291 H   0  0  0  0  0  0  0  0  0  0  0  0
  184.0080   21.0640   49.1940 H   0  0  0  0  0  0  0  0  0  0  0  0
  183.0470   21.7155   50.9971 H   0  0  0  0  0  0  0  0  0  0  0  0
  182.4820   23.1746   50.1149 H   0  0  0  0  0  0  0  0  0  0  0  0
  181.4826   21.6820   50.1149 H   0  0  0  0  0  0  0  0  0  0  0  0
  183.9436   23.5801   48.7888 H   0  0  0  0  0  0  0  0  0  0  0  0
  184.4877   22.4795   47.4776 H   0  0  0  0  0  0  0  0  0  0  0  0
  182.8075   23.1147   47.4776 H   0  0  0  0  0  0  0  0  0  0  0  0
  1  2  1  0
  2  3  2  0
  3  4  1  0
  4  5  2  0
  5  6  1  0
  6  7  1  0
  7  8  1  0
  8  9  2  0
  9 10  1  0
 10 11  2  0
 11 12  1  0
 12 13  1  0
 12 14  2  0
 14 15  1  0
 15 16  2  0
 15 17  1  0
 17 18  1  0
  5 19  1  0
 19 20  2  0
 20 21  1  0
 21 22  1  0
 22 23  1  0
 23 24  1  0
 23 25  1  0
 20  2  1  0
 17  6  2  0
 14  8  1  0
  1 26  1  0
  1 27  1  0
  1 28  1  0
  3 29  1  0
  4 30  1  0
  9 31  1  0
 10 32  1  0
 11 33  1  0
 13 34  1  0
 18 35  1  0
 19 36  1  0
 21 37  1  0
 21 38  1  0
 22 39  1  0
 22 40  1  0
 23 41  1  0
 24 42  1  0
 24 43  1  0
 24 44  1  0
 25 45  1  0
 25 46  1  0
 25 47  1  0
M  CHG  1  23   1
M  END
>  <meeko>  (3) 
{"is_sidechain": [false], "free_energy": -7.056, "intermolecular_energy": -9.287, "internal_energy": -0.393}

$$$$
cand_041_out
     RDKit          3D

 47 49  0  0  0  0  0  0  0  0999 V2000
  176.5520   19.0900   46.2520 C   0  0  0  0  0  0  0  0  0  0  0  0
  177.6580   19.8630   46.9160 C   0  0  0  0  0  0  0  0  0  0  0  0
  178.9750   19.6890   46.4670 C   0  0  0  0  0  0  0  0  0  0  0  0
  180.0330   20.3890   47.0500 C   0  0  0  0  0  0  0  0  0  0  0  0
  179.8060   21.2820   48.1020 C   0  0  0  0  0  0  0  0  0  0  0  0
  180.9370   22.0290   48.6920 C   0  0  0  0  0  0  0  0  0  0  0  0
  181.1250   23.2770   48.1090 O   0  0  0  0  0  0  0  0  0  0  0  0
  182.1430   24.0760   48.5630 C   0  0  0  0  0  0  0  0  0  0  0  0
  182.2840   25.3260   47.9600 C   0  0  0  0  0  0  0  0  0  0  0  0
  183.3020   26.1880   48.3740 C   0  0  0  0  0  0  0  0  0  0  0  0
  184.1780   25.7990   49.3900 C   0  0  0  0  0  0  0  0  0  0  0  0
  184.0350   24.5520   49.9900 C   0  0  0  0  0  0  0  0  0  0  0  0
  184.9270   24.2350   50.9770 O   0  0  0  0  0  0  0  0  0  0  0  0
  183.0160   23.6900   49.5760 C   0  0  0  0  0  0  0  0  0  0  0  0
  182.8300   22.3690   50.1800 C   0  0  0  0  0  0  0  0  0  0  0  0
  183.5640   21.9530   51.0740 O   0  0  0  0  0  0  0  0  0  0  0  0
  181.7150   21.5350   49.6750 C   0  0  0  0  0  0  0  0  0  0  0  0
  181.5570   20.2850   50.2450 O   0  0  0  0  0  0  0  0  0  0  0  0
  178.4880   21.4720   48.5390 C   0  0  0  0  0  0  0  0  0  0  0  0
  177.4080   20.7760   47.9600 C   0  0  0  0  0  0  0  0  0  0  0  0
  176.0180   21.0190   48.5150 C   0  0  0  0  0  0  0  0  0  0  0  0
  175.9240   20.6230   49.9990 C   0  0  0  0  0  0  0  0  0  0  0  0
  175.5350   21.7420   50.8810 N   0  0  0  0  0  0  0  0  0  0  0  0
  174.9890   22.8700   50.1240 C   0  0  0  0  0  0  0  0  0  0  0  0
  176.6940   22.1860   51.6600 C   0  0  0  0  0  0  0  0  0  0  0  0
  175.9070   18.6392   47.0206 H   0  0  0  0  0  0  0  0  0  0  0  0
  175.9555   19.7689   45.6248 H   0  0  0  0  0  0  0  0  0  0  0  0
  176.9845   18.2965   45.6248 H   0  0  0  0  0  0  0  0  0  0  0  0
  179.1778   18.9899   45.6423 H   0  0  0  0  0  0  0  0  0  0  0  0
  181.0567   20.2364   46.6776 H   0  0  0  0  0  0  0  0  0  0  0  0
  181.5944   25.6323   47.1596 H   0  0  0  0  0  0  0  0  0  0  0  0
  183.4140   27.1741   47.8995 H   0  0  0  0  0  0  0  0  0  0  0  0
  184.9800   26.4779   49.7154 H   0  0  0  0  0  0  0  0  0  0  0  0
  185.8390   24.1620   50.7790 H   0  0  0  0  0  0  0  0  0  0  0  0
  181.0610   20.1880   51.0320 H   0  0  0  0  0  0  0  0  0  0  0  0
  178.2914   22.1828   49.3551 H   0  0  0  0  0  0  0  0  0  0  0  0
  175.7750   22.0871   48.4144 H   0  0  0  0  0  0  0  0  0  0  0  0
  175.3076   20.3997   47.9477 H   0  0  0  0  0  0  0  0  0  0  0  0
  175.1756   19.8232   50.0997 H   0  0  0  0  0  0  0  0  0  0  0  0
  176.9265   20.2960   50.3121 H   0  0  0  0  0  0  0  0  0  0  0  0
  174.8030   21.4030   51.5060 H   0  0  0  0  0  0  0  0  0  0  0  0
  174.6186   23.6351   50.8221 H   0  0  0  0  0  0  0  0  0  0  0  0
  175.7775   23.3025   49.4906 H   0  0  0  0  0  0  0  0  0  0  0  0
  174.1607   22.5199   49.4906 H   0  0  0  0  0  0  0  0  0  0  0  0
  176.4692   22.0999   52.7333 H   0  0  0  0  0  0  0  0  0  0  0  0
  177.5627   21.5570   51.4157 H   0  0  0  0  0  0  0  0  0  0  0  0
  176.9201   23.2344   51.4157 H   0  0  0  0  0  0  0  0  0  0  0  0
  1  2  1  0
  2  3  2  0
  3  4  1  0
  4  5  2  0
  5  6  1  0
  6  7  1  0
  7  8  1  0
  8  9  2  0
  9 10  1  0
 10 11  2  0
 11 12  1  0
 12 13  1  0
 12 14  2  0
 14 15  1  0
 15 16  2  0
 15 17  1  0
 17 18  1  0
  5 19  1  0
 19 20  2  0
 20 21  1  0
 21 22  1  0
 22 23  1  0
 23 24  1  0
 23 25  1  0
 20  2  1  0
 17  6  2  0
 14  8  1  0
  1 26  1  0
  1 27  1  0
  1 28  1  0
  3 29  1  0
  4 30  1  0
  9 31  1  0
 10 32  1  0
 11 33  1  0
 13 34  1  0
 18 35  1  0
 19 36  1  0
 21 37  1  0
 21 38  1  0
 22 39  1  0
 22 40  1  0
 23 41  1  0
 24 42  1  0
 24 43  1  0
 24 44  1  0
 25 45  1  0
 25 46  1  0
 25 47  1  0
M  CHG  1  23   1
M  END
>  <meeko>  (4) 
{"is_sidechain": [false], "free_energy": -7.004, "intermolecular_energy": -8.911, "internal_energy": -0.7}

$$$$
cand_041_out
     RDKit          3D

 47 49  0  0  0  0  0  0  0  0999 V2000
  177.5050   20.7630   46.1950 C   0  0  0  0  0  0  0  0  0  0  0  0
  176.7170   21.3680   47.3240 C   0  0  0  0  0  0  0  0  0  0  0  0
  175.6330   20.6550   47.8560 C   0  0  0  0  0  0  0  0  0  0  0  0
  174.8760   21.1750   48.9080 C   0  0  0  0  0  0  0  0  0  0  0  0
  175.1780   22.4250   49.4560 C   0  0  0  0  0  0  0  0  0  0  0  0
  174.3770   22.9490   50.5830 C   0  0  0  0  0  0  0  0  0  0  0  0
  175.1420   23.2150   51.7130 O   0  0  0  0  0  0  0  0  0  0  0  0
  174.5230   23.7060   52.8340 C   0  0  0  0  0  0  0  0  0  0  0  0
  175.3310   23.9730   53.9390 C   0  0  0  0  0  0  0  0  0  0  0  0
  174.7630   24.4730   55.1130 C   0  0  0  0  0  0  0  0  0  0  0  0
  173.3880   24.7050   55.1810 C   0  0  0  0  0  0  0  0  0  0  0  0
  172.5830   24.4380   54.0780 C   0  0  0  0  0  0  0  0  0  0  0  0
  171.2450   24.6880   54.2130 O   0  0  0  0  0  0  0  0  0  0  0  0
  173.1520   23.9390   52.9030 C   0  0  0  0  0  0  0  0  0  0  0  0
  172.3430   23.6440   51.7190 C   0  0  0  0  0  0  0  0  0  0  0  0
  171.1260   23.8160   51.7030 O   0  0  0  0  0  0  0  0  0  0  0  0
  173.0430   23.1250   50.5210 C   0  0  0  0  0  0  0  0  0  0  0  0
  172.2670   22.8390   49.4140 O   0  0  0  0  0  0  0  0  0  0  0  0
  176.2740   23.1300   48.9390 C   0  0  0  0  0  0  0  0  0  0  0  0
  177.0500   22.6200   47.8800 C   0  0  0  0  0  0  0  0  0  0  0  0
  178.1980   23.4630   47.3610 C   0  0  0  0  0  0  0  0  0  0  0  0
  179.3900   23.4580   48.3350 C   0  0  0  0  0  0  0  0  0  0  0  0
  179.7490   22.1080   48.8140 N   0  0  0  0  0  0  0  0  0  0  0  0
  180.1500   22.1170   50.2230 C   0  0  0  0  0  0  0  0  0  0  0  0
  180.8380   21.5640   47.9970 C   0  0  0  0  0  0  0  0  0  0  0  0
  178.3147   20.1414   46.6048 H   0  0  0  0  0  0  0  0  0  0  0  0
  176.8414   20.1402   45.5772 H   0  0  0  0  0  0  0  0  0  0  0  0
  177.9353   21.5650   45.5772 H   0  0  0  0  0  0  0  0  0  0  0  0
  175.3749   19.6707   47.4381 H   0  0  0  0  0  0  0  0  0  0  0  0
  174.0326   20.5944   49.3100 H   0  0  0  0  0  0  0  0  0  0  0  0
  176.4144   23.7900   53.8860 H   0  0  0  0  0  0  0  0  0  0  0  0
  175.3997   24.6842   55.9848 H   0  0  0  0  0  0  0  0  0  0  0  0
  172.9413   25.0986   56.1060 H   0  0  0  0  0  0  0  0  0  0  0  0
  170.8530   24.6910   55.0630 H   0  0  0  0  0  0  0  0  0  0  0  0
  172.6620   22.4810   48.6440 H   0  0  0  0  0  0  0  0  0  0  0  0
  176.5347   24.1071   49.3718 H   0  0  0  0  0  0  0  0  0  0  0  0
  178.5272   23.0600   46.3918 H   0  0  0  0  0  0  0  0  0  0  0  0
  177.8440   24.4991   47.2557 H   0  0  0  0  0  0  0  0  0  0  0  0
  180.2619   23.8893   47.8215 H   0  0  0  0  0  0  0  0  0  0  0  0
  179.0932   24.0471   49.2152 H   0  0  0  0  0  0  0  0  0  0  0  0
  178.9200   21.5180   48.7300 H   0  0  0  0  0  0  0  0  0  0  0  0
  179.2531   22.0969   50.8596 H   0  0  0  0  0  0  0  0  0  0  0  0
  180.7691   21.2325   50.4337 H   0  0  0  0  0  0  0  0  0  0  0  0
  180.7288   23.0284   50.4337 H   0  0  0  0  0  0  0  0  0  0  0  0
  181.6274   21.1697   48.6538 H   0  0  0  0  0  0  0  0  0  0  0  0
  180.4505   20.7536   47.3621 H   0  0  0  0  0  0  0  0  0  0  0  0
  181.2532   22.3606   47.3621 H   0  0  0  0  0  0  0  0  0  0  0  0
  1  2  1  0
  2  3  2  0
  3  4  1  0
  4  5  2  0
  5  6  1  0
  6  7  1  0
  7  8  1  0
  8  9  2  0
  9 10  1  0
 10 11  2  0
 11 12  1  0
 12 13  1  0
 12 14  2  0
 14 15  1  0
 15 16  2  0
 15 17  1  0
 17 18  1  0
  5 19  1  0
 19 20  2  0
 20 21  1  0
 21 22  1  0
 22 23  1  0
 23 24  1  0
 23 25  1  0
 20  2  1  0
 17  6  2  0
 14  8  1  0
  1 26  1  0
  1 27  1  0
  1 28  1  0
  3 29  1  0
  4 30  1  0
  9 31  1  0
 10 32  1  0
 11 33  1  0
 13 34  1  0
 18 35  1  0
 19 36  1  0
 21 37  1  0
 21 38  1  0
 22 39  1  0
 22 40  1  0
 23 41  1  0
 24 42  1  0
 24 43  1  0
 24 44  1  0
 25 45  1  0
 25 46  1  0
 25 47  1  0
M  CHG  1  23   1
M  END
>  <meeko>  (5) 
{"is_sidechain": [false], "free_energy": -6.93, "intermolecular_energy": -9.008, "internal_energy": -0.508}

$$$$
cand_041_out
     RDKit          3D

 47 49  0  0  0  0  0  0  0  0999 V2000
  171.8340   24.5210   49.4400 C   0  0  0  0  0  0  0  0  0  0  0  0
  173.2750   24.1050   49.5590 C   0  0  0  0  0  0  0  0  0  0  0  0
  173.6220   22.7720   49.2920 C   0  0  0  0  0  0  0  0  0  0  0  0
  174.9470   22.3410   49.3840 C   0  0  0  0  0  0  0  0  0  0  0  0
  175.9630   23.2290   49.7490 C   0  0  0  0  0  0  0  0  0  0  0  0
  177.3630   22.7580   49.8210 C   0  0  0  0  0  0  0  0  0  0  0  0
  177.7530   22.0460   48.6930 O   0  0  0  0  0  0  0  0  0  0  0  0
  179.0300   21.5500   48.6300 C   0  0  0  0  0  0  0  0  0  0  0  0
  179.3830   20.8550   47.4720 C   0  0  0  0  0  0  0  0  0  0  0  0
  180.6680   20.3220   47.3440 C   0  0  0  0  0  0  0  0  0  0  0  0
  181.5980   20.4840   48.3730 C   0  0  0  0  0  0  0  0  0  0  0  0
  181.2440   21.1780   49.5260 C   0  0  0  0  0  0  0  0  0  0  0  0
  182.2030   21.2990   50.4940 O   0  0  0  0  0  0  0  0  0  0  0  0
  179.9580   21.7110   49.6540 C   0  0  0  0  0  0  0  0  0  0  0  0
  179.5440   22.4470   50.8500 C   0  0  0  0  0  0  0  0  0  0  0  0
  180.3030   22.6260   51.8000 O   0  0  0  0  0  0  0  0  0  0  0  0
  178.1620   22.9800   50.8830 C   0  0  0  0  0  0  0  0  0  0  0  0
  177.7790   23.6620   52.0220 O   0  0  0  0  0  0  0  0  0  0  0  0
  175.6210   24.5660   49.9970 C   0  0  0  0  0  0  0  0  0  0  0  0
  174.2900   25.0190   49.9060 C   0  0  0  0  0  0  0  0  0  0  0  0
  174.0040   26.4730   50.2210 C   0  0  0  0  0  0  0  0  0  0  0  0
  174.1410   26.7640   51.7260 C   0  0  0  0  0  0  0  0  0  0  0  0
  172.8510   27.0470   52.3880 N   0  0  0  0  0  0  0  0  0  0  0  0
  172.2610   25.8410   52.9730 C   0  0  0  0  0  0  0  0  0  0  0  0
  171.9160   27.6340   51.4230 C   0  0  0  0  0  0  0  0  0  0  0  0
  171.4040   24.6451   50.4448 H   0  0  0  0  0  0  0  0  0  0  0  0
  171.7713   25.4739   48.8941 H   0  0  0  0  0  0  0  0  0  0  0  0
  171.2731   23.7481   48.8941 H   0  0  0  0  0  0  0  0  0  0  0  0
  172.8381   22.0553   49.0058 H   0  0  0  0  0  0  0  0  0  0  0  0
  175.1940   21.2913   49.1669 H   0  0  0  0  0  0  0  0  0  0  0  0
  178.6504   20.7272   46.6614 H   0  0  0  0  0  0  0  0  0  0  0  0
  180.9474   19.7743   46.4319 H   0  0  0  0  0  0  0  0  0  0  0  0
  182.6094   20.0634   48.2722 H   0  0  0  0  0  0  0  0  0  0  0  0
  181.9540   21.3560   51.3950 H   0  0  0  0  0  0  0  0  0  0  0  0
  177.4130   24.5220   51.9530 H   0  0  0  0  0  0  0  0  0  0  0  0
  176.4124   25.2797   50.2697 H   0  0  0  0  0  0  0  0  0  0  0  0
  174.7157   27.1045   49.6690 H   0  0  0  0  0  0  0  0  0  0  0  0
  172.9689   26.6930   49.9208 H   0  0  0  0  0  0  0  0  0  0  0  0
  174.5969   25.8880   52.2106 H   0  0  0  0  0  0  0  0  0  0  0  0
  174.7630   27.6655   51.8274 H   0  0  0  0  0  0  0  0  0  0  0  0
  173.0300   27.7060   53.1470 H   0  0  0  0  0  0  0  0  0  0  0  0
  172.2953   25.9112   54.0702 H   0  0  0  0  0  0  0  0  0  0  0  0
  171.2155   25.7477   52.6441 H   0  0  0  0  0  0  0  0  0  0  0  0
  172.8290   24.9583   52.6441 H   0  0  0  0  0  0  0  0  0  0  0  0
  171.1041   28.1437   51.9625 H   0  0  0  0  0  0  0  0  0  0  0  0
  172.4488   28.3600   50.7913 H   0  0  0  0  0  0  0  0  0  0  0  0
  171.4937   26.8387   50.7913 H   0  0  0  0  0  0  0  0  0  0  0  0
  1  2  1  0
  2  3  2  0
  3  4  1  0
  4  5  2  0
  5  6  1  0
  6  7  1  0
  7  8  1  0
  8  9  2  0
  9 10  1  0
 10 11  2  0
 11 12  1  0
 12 13  1  0
 12 14  2  0
 14 15  1  0
 15 16  2  0
 15 17  1  0
 17 18  1  0
  5 19  1  0
 19 20  2  0
 20 21  1  0
 21 22  1  0
 22 23  1  0
 23 24  1  0
 23 25  1  0
 20  2  1  0
 17  6  2  0
 14  8  1  0
  1 26  1  0
  1 27  1  0
  1 28  1  0
  3 29  1  0
  4 30  1  0
  9 31  1  0
 10 32  1  0
 11 33  1  0
 13 34  1  0
 18 35  1  0
 19 36  1  0
 21 37  1  0
 21 38  1  0
 22 39  1  0
 22 40  1  0
 23 41  1  0
 24 42  1  0
 24 43  1  0
 24 44  1  0
 25 45  1  0
 25 46  1  0
 25 47  1  0
M  CHG  1  23   1
M  END
>  <meeko>  (6) 
{"is_sidechain": [false], "free_energy": -6.892, "intermolecular_energy": -8.975, "internal_energy": -0.493}

$$$$
cand_041_out
     RDKit          3D

 47 49  0  0  0  0  0  0  0  0999 V2000
  180.7640   21.2200   49.9790 C   0  0  0  0  0  0  0  0  0  0  0  0
  179.3960   21.8350   49.8680 C   0  0  0  0  0  0  0  0  0  0  0  0
  178.6190   21.9770   51.0270 C   0  0  0  0  0  0  0  0  0  0  0  0
  177.3450   22.5470   50.9730 C   0  0  0  0  0  0  0  0  0  0  0  0
  176.8100   22.9890   49.7590 C   0  0  0  0  0  0  0  0  0  0  0  0
  175.4680   23.6090   49.7270 C   0  0  0  0  0  0  0  0  0  0  0  0
  175.4930   24.9690   50.0120 O   0  0  0  0  0  0  0  0  0  0  0  0
  174.3140   25.6690   50.0170 C   0  0  0  0  0  0  0  0  0  0  0  0
  174.3880   27.0350   50.2930 C   0  0  0  0  0  0  0  0  0  0  0  0
  173.2230   27.8050   50.3140 C   0  0  0  0  0  0  0  0  0  0  0  0
  171.9850   27.2090   50.0610 C   0  0  0  0  0  0  0  0  0  0  0  0
  171.9140   25.8470   49.7860 C   0  0  0  0  0  0  0  0  0  0  0  0
  170.6710   25.3290   49.5480 O   0  0  0  0  0  0  0  0  0  0  0  0
  173.0800   25.0770   49.7640 C   0  0  0  0  0  0  0  0  0  0  0  0
  173.0500   23.6410   49.4790 C   0  0  0  0  0  0  0  0  0  0  0  0
  171.9990   23.0440   49.2530 O   0  0  0  0  0  0  0  0  0  0  0  0
  174.3420   22.9170   49.4710 C   0  0  0  0  0  0  0  0  0  0  0  0
  174.2990   21.5590   49.2130 O   0  0  0  0  0  0  0  0  0  0  0  0
  177.5940   22.8660   48.6040 C   0  0  0  0  0  0  0  0  0  0  0  0
  178.8820   22.2960   48.6400 C   0  0  0  0  0  0  0  0  0  0  0  0
  179.6490   22.1730   47.3380 C   0  0  0  0  0  0  0  0  0  0  0  0
  178.9170   21.2640   46.3340 C   0  0  0  0  0  0  0  0  0  0  0  0
  178.7260   19.8840   46.8250 N   0  0  0  0  0  0  0  0  0  0  0  0
  179.5190   18.9180   46.0610 C   0  0  0  0  0  0  0  0  0  0  0  0
  177.3070   19.5240   46.7510 C   0  0  0  0  0  0  0  0  0  0  0  0
  181.0277   21.1015   51.0403 H   0  0  0  0  0  0  0  0  0  0  0  0
  180.7642   20.2352   49.4889 H   0  0  0  0  0  0  0  0  0  0  0  0
  181.5007   21.8735   49.4889 H   0  0  0  0  0  0  0  0  0  0  0  0
  179.0189   21.6344   51.9928 H   0  0  0  0  0  0  0  0  0  0  0  0
  176.7557   22.6494   51.8962 H   0  0  0  0  0  0  0  0  0  0  0  0
  175.3623   27.5045   50.4937 H   0  0  0  0  0  0  0  0  0  0  0  0
  173.2803   28.8821   50.5300 H   0  0  0  0  0  0  0  0  0  0  0  0
  171.0677   27.8157   50.0792 H   0  0  0  0  0  0  0  0  0  0  0  0
  170.1020   25.1280   50.2640 H   0  0  0  0  0  0  0  0  0  0  0  0
  173.4910   21.0920   49.2940 H   0  0  0  0  0  0  0  0  0  0  0  0
  177.1933   23.2238   47.6441 H   0  0  0  0  0  0  0  0  0  0  0  0
  179.7645   23.1735   46.8956 H   0  0  0  0  0  0  0  0  0  0  0  0
  180.6296   21.7252   47.5568 H   0  0  0  0  0  0  0  0  0  0  0  0
  177.9289   21.6998   46.1248 H   0  0  0  0  0  0  0  0  0  0  0  0
  179.5439   21.2045   45.4321 H   0  0  0  0  0  0  0  0  0  0  0  0
  179.0450   19.8530   47.7940 H   0  0  0  0  0  0  0  0  0  0  0  0
  180.0607   18.2581   46.7546 H   0  0  0  0  0  0  0  0  0  0  0  0
  178.8517   18.3154   45.4273 H   0  0  0  0  0  0  0  0  0  0  0  0
  180.2401   19.4551   45.4273 H   0  0  0  0  0  0  0  0  0  0  0  0
  176.9013   19.4211   47.7683 H   0  0  0  0  0  0  0  0  0  0  0  0
  176.7566   20.3109   46.2146 H   0  0  0  0  0  0  0  0  0  0  0  0
  177.1983   18.5698   46.2146 H   0  0  0  0  0  0  0  0  0  0  0  0
  1  2  1  0
  2  3  2  0
  3  4  1  0
  4  5  2  0
  5  6  1  0
  6  7  1  0
  7  8  1  0
  8  9  2  0
  9 10  1  0
 10 11  2  0
 11 12  1  0
 12 13  1  0
 12 14  2  0
 14 15  1  0
 15 16  2  0
 15 17  1  0
 17 18  1  0
  5 19  1  0
 19 20  2  0
 20 21  1  0
 21 22  1  0
 22 23  1  0
 23 24  1  0
 23 25  1  0
 20  2  1  0
 17  6  2  0
 14  8  1  0
  1 26  1  0
  1 27  1  0
  1 28  1  0
  3 29  1  0
  4 30  1  0
  9 31  1  0
 10 32  1  0
 11 33  1  0
 13 34  1  0
 18 35  1  0
 19 36  1  0
 21 37  1  0
 21 38  1  0
 22 39  1  0
 22 40  1  0
 23 41  1  0
 24 42  1  0
 24 43  1  0
 24 44  1  0
 25 45  1  0
 25 46  1  0
 25 47  1  0
M  CHG  1  23   1
M  END
>  <meeko>  (7) 
{"is_sidechain": [false], "free_energy": -6.867, "intermolecular_energy": -8.731, "internal_energy": -0.704}

$$$$
cand_041_out
     RDKit          3D

 47 49  0  0  0  0  0  0  0  0999 V2000
  177.4510   19.8320   45.8810 C   0  0  0  0  0  0  0  0  0  0  0  0
  178.7390   20.3610   46.4490 C   0  0  0  0  0  0  0  0  0  0  0  0
  178.7440   21.6240   47.0610 C   0  0  0  0  0  0  0  0  0  0  0  0
  179.9150   22.1530   47.6070 C   0  0  0  0  0  0  0  0  0  0  0  0
  181.1160   21.4380   47.5550 C   0  0  0  0  0  0  0  0  0  0  0  0
  182.3400   22.0080   48.1570 C   0  0  0  0  0  0  0  0  0  0  0  0
  183.0950   22.7460   47.2520 O   0  0  0  0  0  0  0  0  0  0  0  0
  184.2600   23.3300   47.6800 C   0  0  0  0  0  0  0  0  0  0  0  0
  184.9770   24.0740   46.7430 C   0  0  0  0  0  0  0  0  0  0  0  0
  186.1730   24.6950   47.1140 C   0  0  0  0  0  0  0  0  0  0  0  0
  186.6500   24.5690   48.4200 C   0  0  0  0  0  0  0  0  0  0  0  0
  185.9330   23.8270   49.3530 C   0  0  0  0  0  0  0  0  0  0  0  0
  186.4570   23.7450   50.6140 O   0  0  0  0  0  0  0  0  0  0  0  0
  184.7360   23.2070   48.9820 C   0  0  0  0  0  0  0  0  0  0  0  0
  183.9510   22.4170   49.9320 C   0  0  0  0  0  0  0  0  0  0  0  0
  184.3080   22.2550   51.0970 O   0  0  0  0  0  0  0  0  0  0  0  0
  182.6920   21.8080   49.4410 C   0  0  0  0  0  0  0  0  0  0  0  0
  181.9660   21.0530   50.3440 O   0  0  0  0  0  0  0  0  0  0  0  0
  181.1070   20.1680   46.9620 C   0  0  0  0  0  0  0  0  0  0  0  0
  179.9340   19.6170   46.4080 C   0  0  0  0  0  0  0  0  0  0  0  0
  180.0220   18.2500   45.7580 C   0  0  0  0  0  0  0  0  0  0  0  0
  180.8040   18.3020   44.4340 C   0  0  0  0  0  0  0  0  0  0  0  0
  181.2040   16.9700   43.9370 N   0  0  0  0  0  0  0  0  0  0  0  0
  181.0490   16.8590   42.4850 C   0  0  0  0  0  0  0  0  0  0  0  0
  180.4040   15.9330   44.5970 C   0  0  0  0  0  0  0  0  0  0  0  0
  176.7746   19.5542   46.7028 H   0  0  0  0  0  0  0  0  0  0  0  0
  176.9769   20.6082   45.2624 H   0  0  0  0  0  0  0  0  0  0  0  0
  177.6594   18.9466   45.2624 H   0  0  0  0  0  0  0  0  0  0  0  0
  177.8117   22.2056   47.1112 H   0  0  0  0  0  0  0  0  0  0  0  0
  179.8928   23.1440   48.0838 H   0  0  0  0  0  0  0  0  0  0  0  0
  184.6018   24.1719   45.7136 H   0  0  0  0  0  0  0  0  0  0  0  0
  186.7387   25.2833   46.3765 H   0  0  0  0  0  0  0  0  0  0  0  0
  187.5923   25.0562   48.7111 H   0  0  0  0  0  0  0  0  0  0  0  0
  185.9160   23.9170   51.3580 H   0  0  0  0  0  0  0  0  0  0  0  0
  182.0800   20.1240   50.3760 H   0  0  0  0  0  0  0  0  0  0  0  0
  182.0399   19.5861   46.9281 H   0  0  0  0  0  0  0  0  0  0  0  0
  180.5311   17.5594   46.4464 H   0  0  0  0  0  0  0  0  0  0  0  0
  179.0001   17.9057   45.5408 H   0  0  0  0  0  0  0  0  0  0  0  0
  180.1708   18.7823   43.6735 H   0  0  0  0  0  0  0  0  0  0  0  0
  181.7274   18.8687   44.6240 H   0  0  0  0  0  0  0  0  0  0  0  0
  182.1920   16.8410   44.1560 H   0  0  0  0  0  0  0  0  0  0  0  0
  180.1742   16.2325   42.2565 H   0  0  0  0  0  0  0  0  0  0  0  0
  180.9053   17.8608   42.0539 H   0  0  0  0  0  0  0  0  0  0  0  0
  181.9511   16.4003   42.0539 H   0  0  0  0  0  0  0  0  0  0  0  0
  180.4891   16.0433   45.6881 H   0  0  0  0  0  0  0  0  0  0  0  0
  179.3503   16.0376   44.2989 H   0  0  0  0  0  0  0  0  0  0  0  0
  180.7726   14.9404   44.2989 H   0  0  0  0  0  0  0  0  0  0  0  0
  1  2  1  0
  2  3  2  0
  3  4  1  0
  4  5  2  0
  5  6  1  0
  6  7  1  0
  7  8  1  0
  8  9  2  0
  9 10  1  0
 10 11  2  0
 11 12  1  0
 12 13  1  0
 12 14  2  0
 14 15  1  0
 15 16  2  0
 15 17  1  0
 17 18  1  0
  5 19  1  0
 19 20  2  0
 20 21  1  0
 21 22  1  0
 22 23  1  0
 23 24  1  0
 23 25  1  0
 20  2  1  0
 17  6  2  0
 14  8  1  0
  1 26  1  0
  1 27  1  0
  1 28  1  0
  3 29  1  0
  4 30  1  0
  9 31  1  0
 10 32  1  0
 11 33  1  0
 13 34  1  0
 18 35  1  0
 19 36  1  0
 21 37  1  0
 21 38  1  0
 22 39  1  0
 22 40  1  0
 23 41  1  0
 24 42  1  0
 24 43  1  0
 24 44  1  0
 25 45  1  0
 25 46  1  0
 25 47  1  0
M  CHG  1  23   1
M  END
>  <meeko>  (8) 
{"is_sidechain": [false], "free_energy": -6.787, "intermolecular_energy": -8.781, "internal_energy": -0.55}

$$$$
cand_041_out
     RDKit          3D

 47 49  0  0  0  0  0  0  0  0999 V2000
  175.2000   27.5570   52.0180 C   0  0  0  0  0  0  0  0  0  0  0  0
  175.3640   26.3160   51.1850 C   0  0  0  0  0  0  0  0  0  0  0  0
  176.5630   25.5930   51.2690 C   0  0  0  0  0  0  0  0  0  0  0  0
  176.7580   24.4330   50.5170 C   0  0  0  0  0  0  0  0  0  0  0  0
  175.7610   23.9620   49.6570 C   0  0  0  0  0  0  0  0  0  0  0  0
  175.9790   22.7190   48.8860 C   0  0  0  0  0  0  0  0  0  0  0  0
  177.2560   22.6360   48.3440 O   0  0  0  0  0  0  0  0  0  0  0  0
  177.5920   21.5320   47.6020 C   0  0  0  0  0  0  0  0  0  0  0  0
  178.8890   21.4830   47.0910 C   0  0  0  0  0  0  0  0  0  0  0  0
  179.2960   20.3870   46.3260 C   0  0  0  0  0  0  0  0  0  0  0  0
  178.4040   19.3430   46.0720 C   0  0  0  0  0  0  0  0  0  0  0  0
  177.1110   19.3930   46.5830 C   0  0  0  0  0  0  0  0  0  0  0  0
  176.2910   18.3370   46.2960 O   0  0  0  0  0  0  0  0  0  0  0  0
  176.7050   20.4900   47.3500 C   0  0  0  0  0  0  0  0  0  0  0  0
  175.3550   20.5840   47.9060 C   0  0  0  0  0  0  0  0  0  0  0  0
  174.5120   19.7080   47.7210 O   0  0  0  0  0  0  0  0  0  0  0  0
  175.0270   21.7830   48.7110 C   0  0  0  0  0  0  0  0  0  0  0  0
  173.7440   21.8660   49.2210 O   0  0  0  0  0  0  0  0  0  0  0  0
  174.5550   24.6720   49.5870 C   0  0  0  0  0  0  0  0  0  0  0  0
  174.3390   25.8430   50.3400 C   0  0  0  0  0  0  0  0  0  0  0  0
  173.0170   26.5660   50.1800 C   0  0  0  0  0  0  0  0  0  0  0  0
  171.8250   25.6020   50.3150 C   0  0  0  0  0  0  0  0  0  0  0  0
  171.5850   25.1570   51.7030 N   0  0  0  0  0  0  0  0  0  0  0  0
  171.8330   23.7230   51.8680 C   0  0  0  0  0  0  0  0  0  0  0  0
  170.2060   25.4660   52.0920 C   0  0  0  0  0  0  0  0  0  0  0  0
  175.2353   27.2900   53.0845 H   0  0  0  0  0  0  0  0  0  0  0  0
  176.0128   28.2621   51.7894 H   0  0  0  0  0  0  0  0  0  0  0  0
  174.2320   28.0268   51.7894 H   0  0  0  0  0  0  0  0  0  0  0  0
  177.3621   25.9454   51.9378 H   0  0  0  0  0  0  0  0  0  0  0  0
  177.7069   23.8832   50.6020 H   0  0  0  0  0  0  0  0  0  0  0  0
  179.5907   22.3064   47.2901 H   0  0  0  0  0  0  0  0  0  0  0  0
  180.3190   20.3465   45.9238 H   0  0  0  0  0  0  0  0  0  0  0  0
  178.7237   18.4811   45.4679 H   0  0  0  0  0  0  0  0  0  0  0  0
  176.5640   17.6860   45.6820 H   0  0  0  0  0  0  0  0  0  0  0  0
  173.5610   21.5490   50.0830 H   0  0  0  0  0  0  0  0  0  0  0  0
  173.7555   24.3053   48.9265 H   0  0  0  0  0  0  0  0  0  0  0  0
  172.9383   27.3421   50.9556 H   0  0  0  0  0  0  0  0  0  0  0  0
  172.9875   27.0114   49.1746 H   0  0  0  0  0  0  0  0  0  0  0  0
  170.9210   26.1122   49.9511 H   0  0  0  0  0  0  0  0  0  0  0  0
  172.0633   24.7059   49.7232 H   0  0  0  0  0  0  0  0  0  0  0  0
  172.2390   25.6580   52.3060 H   0  0  0  0  0  0  0  0  0  0  0  0
  171.8752   23.4791   52.9398 H   0  0  0  0  0  0  0  0  0  0  0  0
  171.0200   23.1534   51.3941 H   0  0  0  0  0  0  0  0  0  0  0  0
  172.7900   23.4595   51.3941 H   0  0  0  0  0  0  0  0  0  0  0  0
  170.1296   25.4831   53.1892 H   0  0  0  0  0  0  0  0  0  0  0  0
  169.9231   26.4498   51.6894 H   0  0  0  0  0  0  0  0  0  0  0  0
  169.5304   24.6970   51.6894 H   0  0  0  0  0  0  0  0  0  0  0  0
  1  2  1  0
  2  3  2  0
  3  4  1  0
  4  5  2  0
  5  6  1  0
  6  7  1  0
  7  8  1  0
  8  9  2  0
  9 10  1  0
 10 11  2  0
 11 12  1  0
 12 13  1  0
 12 14  2  0
 14 15  1  0
 15 16  2  0
 15 17  1  0
 17 18  1  0
  5 19  1  0
 19 20  2  0
 20 21  1  0
 21 22  1  0
 22 23  1  0
 23 24  1  0
 23 25  1  0
 20  2  1  0
 17  6  2  0
 14  8  1  0
  1 26  1  0
  1 27  1  0
  1 28  1  0
  3 29  1  0
  4 30  1  0
  9 31  1  0
 10 32  1  0
 11 33  1  0
 13 34  1  0
 18 35  1  0
 19 36  1  0
 21 37  1  0
 21 38  1  0
 22 39  1  0
 22 40  1  0
 23 41  1  0
 24 42  1  0
 24 43  1  0
 24 44  1  0
 25 45  1  0
 25 46  1  0
 25 47  1  0
M  CHG  1  23   1
M  END
>  <meeko>  (9) 
{"is_sidechain": [false], "free_energy": -6.593, "intermolecular_energy": -8.809, "internal_energy": -0.272}

$$$$
