cand_015_out
     RDKit          3D

 36 38  0  0  0  0  0  0  0  0999 V2000
  181.0800   14.4890   41.6190 C   0  0  0  0  0  0  0  0  0  0  0  0
  181.7900   15.1690   42.5250 C   0  0  0  0  0  0  0  0  0  0  0  0
  183.1060   14.8800   42.6420 F   0  0  0  0  0  0  0  0  0  0  0  0
  181.2340   16.1890   43.4310 C   0  0  0  0  0  0  0  0  0  0  0  0
  181.4860   17.5500   43.1830 C   0  0  0  0  0  0  0  0  0  0  0  0
  180.9970   18.5450   44.0360 C   0  0  0  0  0  0  0  0  0  0  0  0
  180.2410   18.2110   45.1620 C   0  0  0  0  0  0  0  0  0  0  0  0
  179.7390   19.2400   46.0970 C   0  0  0  0  0  0  0  0  0  0  0  0
  178.3560   19.2190   46.2320 O   0  0  0  0  0  0  0  0  0  0  0  0
  177.7580   20.1240   47.0710 C   0  0  0  0  0  0  0  0  0  0  0  0
  176.3680   20.0570   47.1880 C   0  0  0  0  0  0  0  0  0  0  0  0
  175.6950   20.9520   48.0230 C   0  0  0  0  0  0  0  0  0  0  0  0
  176.4110   21.9120   48.7410 C   0  0  0  0  0  0  0  0  0  0  0  0
  177.7970   21.9760   48.6230 C   0  0  0  0  0  0  0  0  0  0  0  0
  178.4350   22.9400   49.3540 O   0  0  0  0  0  0  0  0  0  0  0  0
  178.4690   21.0800   47.7870 C   0  0  0  0  0  0  0  0  0  0  0  0
  179.9250   21.1140   47.6340 C   0  0  0  0  0  0  0  0  0  0  0  0
  180.6240   21.9340   48.2260 O   0  0  0  0  0  0  0  0  0  0  0  0
  180.5410   20.1160   46.7290 C   0  0  0  0  0  0  0  0  0  0  0  0
  181.9160   20.1650   46.5810 O   0  0  0  0  0  0  0  0  0  0  0  0
  180.0020   16.8530   45.4230 C   0  0  0  0  0  0  0  0  0  0  0  0
  180.4790   15.8380   44.5690 C   0  0  0  0  0  0  0  0  0  0  0  0
  180.1800   14.4040   44.9190 C   0  0  0  0  0  0  0  0  0  0  0  0
  180.0068   14.6951   41.4938 H   0  0  0  0  0  0  0  0  0  0  0  0
  181.5691   13.7234   40.9988 H   0  0  0  0  0  0  0  0  0  0  0  0
  182.0786   17.8375   42.3020 H   0  0  0  0  0  0  0  0  0  0  0  0
  181.2101   19.6018   43.8177 H   0  0  0  0  0  0  0  0  0  0  0  0
  175.8037   19.3003   46.6232 H   0  0  0  0  0  0  0  0  0  0  0  0
  174.6001   20.9005   48.1150 H   0  0  0  0  0  0  0  0  0  0  0  0
  175.8810   22.6166   49.3988 H   0  0  0  0  0  0  0  0  0  0  0  0
  178.6310   23.7700   48.9650 H   0  0  0  0  0  0  0  0  0  0  0  0
  182.4690   20.1240   47.3360 H   0  0  0  0  0  0  0  0  0  0  0  0
  179.4270   16.5731   46.3180 H   0  0  0  0  0  0  0  0  0  0  0  0
  180.1564   14.2908   46.0129 H   0  0  0  0  0  0  0  0  0  0  0  0
  179.2034   14.1202   44.4999 H   0  0  0  0  0  0  0  0  0  0  0  0
  180.9618   13.7536   44.4999 H   0  0  0  0  0  0  0  0  0  0  0  0
  1  2  2  0
  2  3  1  0
  2  4  1  0
  4  5  2  0
  5  6  1  0
  6  7  2  0
  7  8  1  0
  8  9  1  0
  9 10  1  0
 10 11  2  0
 11 12  1  0
 12 13  2  0
 13 14  1  0
 14 15  1  0
 14 16  2  0
 16 17  1  0
 17 18  2  0
 17 19  1  0
 19 20  1  0
  7 21  1  0
 21 22  2  0
 22 23  1  0
 22  4  1  0
 19  8  2  0
 16 10  1  0
  1 24  1  0
  1 25  1  0
  5 26  1  0
  6 27  1  0
 11 28  1  0
 12 29  1  0
 13 30  1  0
 15 31  1  0
 20 32  1  0
 21 33  1  0
 23 34  1  0
 23 35  1  0
 23 36  1  0
M  END
>  <meeko>  (1) 
{"is_sidechain": [false], "free_energy": -8.629, "intermolecular_energy": -10.143, "internal_energy": -0.262}

$$$$
cand_015_out
     RDKit          3D

 36 38  0  0  0  0  0  0  0  0999 V2000
  176.6760   23.8300   48.7800 C   0  0  0  0  0  0  0  0  0  0  0  0
  176.5250   22.5050   48.8780 C   0  0  0  0  0  0  0  0  0  0  0  0
  175.6260   22.0360   49.7730 F   0  0  0  0  0  0  0  0  0  0  0  0
  177.2950   21.5150   48.1050 C   0  0  0  0  0  0  0  0  0  0  0  0
  178.6870   21.4300   48.2780 C   0  0  0  0  0  0  0  0  0  0  0  0
  179.4550   20.5210   47.5410 C   0  0  0  0  0  0  0  0  0  0  0  0
  178.8550   19.6710   46.6090 C   0  0  0  0  0  0  0  0  0  0  0  0
  179.6460   18.7240   45.7950 C   0  0  0  0  0  0  0  0  0  0  0  0
  179.1360   17.4310   45.8220 O   0  0  0  0  0  0  0  0  0  0  0  0
  179.7770   16.4510   45.1080 C   0  0  0  0  0  0  0  0  0  0  0  0
  179.2220   15.1710   45.1510 C   0  0  0  0  0  0  0  0  0  0  0  0
  179.8260   14.1260   44.4480 C   0  0  0  0  0  0  0  0  0  0  0  0
  180.9830   14.3600   43.7030 C   0  0  0  0  0  0  0  0  0  0  0  0
  181.5350   15.6390   43.6620 C   0  0  0  0  0  0  0  0  0  0  0  0
  182.6680   15.7990   42.9130 O   0  0  0  0  0  0  0  0  0  0  0  0
  180.9290   16.6840   44.3650 C   0  0  0  0  0  0  0  0  0  0  0  0
  181.4760   18.0420   44.3480 C   0  0  0  0  0  0  0  0  0  0  0  0
  182.4950   18.3260   43.7220 O   0  0  0  0  0  0  0  0  0  0  0  0
  180.7550   19.0790   45.1210 C   0  0  0  0  0  0  0  0  0  0  0  0
  181.2870   20.3560   45.1090 O   0  0  0  0  0  0  0  0  0  0  0  0
  177.4670   19.7660   46.4200 C   0  0  0  0  0  0  0  0  0  0  0  0
  176.6780   20.6680   47.1610 C   0  0  0  0  0  0  0  0  0  0  0  0
  175.1950   20.7090   46.8990 C   0  0  0  0  0  0  0  0  0  0  0  0
  177.3974   24.2498   48.0636 H   0  0  0  0  0  0  0  0  0  0  0  0
  176.0788   24.5001   49.4158 H   0  0  0  0  0  0  0  0  0  0  0  0
  179.1820   22.0898   49.0058 H   0  0  0  0  0  0  0  0  0  0  0  0
  180.5429   20.4755   47.6975 H   0  0  0  0  0  0  0  0  0  0  0  0
  178.3102   14.9855   45.7377 H   0  0  0  0  0  0  0  0  0  0  0  0
  179.3892   13.1170   44.4815 H   0  0  0  0  0  0  0  0  0  0  0  0
  181.4581   13.5366   43.1495 H   0  0  0  0  0  0  0  0  0  0  0  0
  183.3090   15.1160   42.8810 H   0  0  0  0  0  0  0  0  0  0  0  0
  182.1600   20.5030   45.4160 H   0  0  0  0  0  0  0  0  0  0  0  0
  176.9827   19.1191   45.6737 H   0  0  0  0  0  0  0  0  0  0  0  0
  174.6538   20.7240   47.8565 H   0  0  0  0  0  0  0  0  0  0  0  0
  174.9490   21.6143   46.3246 H   0  0  0  0  0  0  0  0  0  0  0  0
  174.8994   19.8187   46.3246 H   0  0  0  0  0  0  0  0  0  0  0  0
  1  2  2  0
  2  3  1  0
  2  4  1  0
  4  5  2  0
  5  6  1  0
  6  7  2  0
  7  8  1  0
  8  9  1  0
  9 10  1  0
 10 11  2  0
 11 12  1  0
 12 13  2  0
 13 14  1  0
 14 15  1  0
 14 16  2  0
 16 17  1  0
 17 18  2  0
 17 19  1  0
 19 20  1  0
  7 21  1  0
 21 22  2  0
 22 23  1  0
 22  4  1  0
 19  8  2  0
 16 10  1  0
  1 24  1  0
  1 25  1  0
  5 26  1  0
  6 27  1  0
 11 28  1  0
 12 29  1  0
 13 30  1  0
 15 31  1  0
 20 32  1  0
 21 33  1  0
 23 34  1  0
 23 35  1  0
 23 36  1  0
M  END
>  <meeko>  (2) 
{"is_sidechain": [false], "free_energy": -7.715, "intermolecular_energy": -9.049, "internal_energy": -0.281}

$$$$
cand_015_out
     RDKit          3D

 36 38  0  0  0  0  0  0  0  0999 V2000
  181.2070   14.5030   41.8080 C   0  0  0  0  0  0  0  0  0  0  0  0
  180.7250   14.4980   43.0550 C   0  0  0  0  0  0  0  0  0  0  0  0
  180.3810   13.3070   43.5950 F   0  0  0  0  0  0  0  0  0  0  0  0
  180.5070   15.7040   43.8720 C   0  0  0  0  0  0  0  0  0  0  0  0
  179.7000   15.6280   45.0210 C   0  0  0  0  0  0  0  0  0  0  0  0
  179.4490   16.7580   45.8070 C   0  0  0  0  0  0  0  0  0  0  0  0
  179.9950   17.9980   45.4680 C   0  0  0  0  0  0  0  0  0  0  0  0
  179.7200   19.2140   46.2640 C   0  0  0  0  0  0  0  0  0  0  0  0
  178.3730   19.5560   46.2790 O   0  0  0  0  0  0  0  0  0  0  0  0
  177.9800   20.6660   46.9820 C   0  0  0  0  0  0  0  0  0  0  0  0
  176.6160   20.9650   46.9820 C   0  0  0  0  0  0  0  0  0  0  0  0
  176.1480   22.0830   47.6770 C   0  0  0  0  0  0  0  0  0  0  0  0
  177.0420   22.9020   48.3690 C   0  0  0  0  0  0  0  0  0  0  0  0
  178.4020   22.6020   48.3670 C   0  0  0  0  0  0  0  0  0  0  0  0
  179.2220   23.4450   49.0650 O   0  0  0  0  0  0  0  0  0  0  0  0
  178.8700   21.4820   47.6720 C   0  0  0  0  0  0  0  0  0  0  0  0
  180.2900   21.1310   47.6450 C   0  0  0  0  0  0  0  0  0  0  0  0
  181.1400   21.8060   48.2230 O   0  0  0  0  0  0  0  0  0  0  0  0
  180.6810   19.9210   46.8850 C   0  0  0  0  0  0  0  0  0  0  0  0
  182.0280   19.6060   46.8540 O   0  0  0  0  0  0  0  0  0  0  0  0
  180.7860   18.0820   44.3120 C   0  0  0  0  0  0  0  0  0  0  0  0
  181.0580   16.9520   43.5150 C   0  0  0  0  0  0  0  0  0  0  0  0
  181.9160   17.1260   42.2900 C   0  0  0  0  0  0  0  0  0  0  0  0
  181.4978   15.4524   41.3346 H   0  0  0  0  0  0  0  0  0  0  0  0
  181.3128   13.5578   41.2554 H   0  0  0  0  0  0  0  0  0  0  0  0
  179.2578   14.6623   45.3072 H   0  0  0  0  0  0  0  0  0  0  0  0
  178.8149   16.6688   46.7014 H   0  0  0  0  0  0  0  0  0  0  0  0
  175.9110   20.3212   46.4356 H   0  0  0  0  0  0  0  0  0  0  0  0
  175.0734   22.3183   47.6789 H   0  0  0  0  0  0  0  0  0  0  0  0
  176.6729   23.7828   48.9149 H   0  0  0  0  0  0  0  0  0  0  0  0
  180.1440   23.4450   48.8990 H   0  0  0  0  0  0  0  0  0  0  0  0
  182.5240   19.5910   47.6490 H   0  0  0  0  0  0  0  0  0  0  0  0
  181.2051   19.0562   44.0200 H   0  0  0  0  0  0  0  0  0  0  0  0
  182.9519   17.3361   42.5947 H   0  0  0  0  0  0  0  0  0  0  0  0
  181.8900   16.2043   41.6902 H   0  0  0  0  0  0  0  0  0  0  0  0
  181.5330   17.9648   41.6902 H   0  0  0  0  0  0  0  0  0  0  0  0
  1  2  2  0
  2  3  1  0
  2  4  1  0
  4  5  2  0
  5  6  1  0
  6  7  2  0
  7  8  1  0
  8  9  1  0
  9 10  1  0
 10 11  2  0
 11 12  1  0
 12 13  2  0
 13 14  1  0
 14 15  1  0
 14 16  2  0
 16 17  1  0
 17 18  2  0
 17 19  1  0
 19 20  1  0
  7 21  1  0
 21 22  2  0
 22 23  1  0
 22  4  1  0
 19  8  2  0
 16 10  1  0
  1 24  1  0
  1 25  1  0
  5 26  1  0
  6 27  1  0
 11 28  1  0
 12 29  1  0
 13 30  1  0
 15 31  1  0
 20 32  1  0
 21 33  1  0
 23 34  1  0
 23 35  1  0
 23 36  1  0
M  END
>  <meeko>  (3) 
{"is_sidechain": [false], "free_energy": -6.708, "intermolecular_energy": -8.684, "internal_energy": 0.537}

$$$$
cand_015_out
     RDKit          3D

 36 38  0  0  0  0  0  0  0  0999 V2000
  181.8950   15.6260   42.2980 C   0  0  0  0  0  0  0  0  0  0  0  0
  181.7100   15.6860   43.6210 C   0  0  0  0  0  0  0  0  0  0  0  0
  182.3490   14.7770   44.3900 F   0  0  0  0  0  0  0  0  0  0  0  0
  180.8280   16.6520   44.2990 C   0  0  0  0  0  0  0  0  0  0  0  0
  181.0830   18.0300   44.1760 C   0  0  0  0  0  0  0  0  0  0  0  0
  180.2840   18.9760   44.8280 C   0  0  0  0  0  0  0  0  0  0  0  0
  179.2070   18.5740   45.6220 C   0  0  0  0  0  0  0  0  0  0  0  0
  178.3660   19.5510   46.3460 C   0  0  0  0  0  0  0  0  0  0  0  0
  179.0730   20.6770   46.7520 O   0  0  0  0  0  0  0  0  0  0  0  0
  178.4120   21.6640   47.4360 C   0  0  0  0  0  0  0  0  0  0  0  0
  179.1580   22.7830   47.8120 C   0  0  0  0  0  0  0  0  0  0  0  0
  178.5460   23.8250   48.5140 C   0  0  0  0  0  0  0  0  0  0  0  0
  177.1900   23.7480   48.8380 C   0  0  0  0  0  0  0  0  0  0  0  0
  176.4480   22.6310   48.4610 C   0  0  0  0  0  0  0  0  0  0  0  0
  175.1260   22.6200   48.8110 O   0  0  0  0  0  0  0  0  0  0  0  0
  177.0610   21.5890   47.7590 C   0  0  0  0  0  0  0  0  0  0  0  0
  176.3180   20.3980   47.3440 C   0  0  0  0  0  0  0  0  0  0  0  0
  175.1240   20.2530   47.5990 O   0  0  0  0  0  0  0  0  0  0  0  0
  177.0590   19.3550   46.5990 C   0  0  0  0  0  0  0  0  0  0  0  0
  176.3510   18.2270   46.2230 O   0  0  0  0  0  0  0  0  0  0  0  0
  178.9600   17.2000   45.7610 C   0  0  0  0  0  0  0  0  0  0  0  0
  179.7490   16.2340   45.1050 C   0  0  0  0  0  0  0  0  0  0  0  0
  179.4190   14.7780   45.3060 C   0  0  0  0  0  0  0  0  0  0  0  0
  181.3918   16.3488   41.6389 H   0  0  0  0  0  0  0  0  0  0  0  0
  182.5504   14.8538   41.8687 H   0  0  0  0  0  0  0  0  0  0  0  0
  181.9257   18.3701   43.5561 H   0  0  0  0  0  0  0  0  0  0  0  0
  180.5062   20.0473   44.7142 H   0  0  0  0  0  0  0  0  0  0  0  0
  180.2260   22.8442   47.5560 H   0  0  0  0  0  0  0  0  0  0  0  0
  179.1330   24.7065   48.8115 H   0  0  0  0  0  0  0  0  0  0  0  0
  176.7083   24.5684   49.3903 H   0  0  0  0  0  0  0  0  0  0  0  0
  174.8230   22.0390   49.4810 H   0  0  0  0  0  0  0  0  0  0  0  0
  176.3180   17.9740   45.3220 H   0  0  0  0  0  0  0  0  0  0  0  0
  178.1280   16.8677   46.3993 H   0  0  0  0  0  0  0  0  0  0  0  0
  179.3693   14.5586   46.3827 H   0  0  0  0  0  0  0  0  0  0  0  0
  178.4475   14.5546   44.8410 H   0  0  0  0  0  0  0  0  0  0  0  0
  180.1993   14.1576   44.8410 H   0  0  0  0  0  0  0  0  0  0  0  0
  1  2  2  0
  2  3  1  0
  2  4  1  0
  4  5  2  0
  5  6  1  0
  6  7  2  0
  7  8  1  0
  8  9  1  0
  9 10  1  0
 10 11  2  0
 11 12  1  0
 12 13  2  0
 13 14  1  0
 14 15  1  0
 14 16  2  0
 16 17  1  0
 17 18  2  0
 17 19  1  0
 19 20  1  0
  7 21  1  0
 21 22  2  0
 22 23  1  0
 22  4  1  0
 19  8  2  0
 16 10  1  0
  1 24  1  0
  1 25  1  0
  5 26  1  0
  6 27  1  0
 11 28  1  0
 12 29  1  0
 13 30  1  0
 15 31  1  0
 20 32  1  0
 21 33  1  0
 23 34  1  0
 23 35  1  0
 23 36  1  0
M  END
>  <meeko>  (4) 
{"is_sidechain": [false], "free_energy": -6.449, "intermolecular_energy": -7.85, "internal_energy": 0.009}

$$$$
cand_015_out
     RDKit          3D

 36 38  0  0  0  0  0  0  0  0999 V2000
  180.6980   15.0820   42.3560 C   0  0  0  0  0  0  0  0  0  0  0  0
  181.1990   15.4350   43.5440 C   0  0  0  0  0  0  0  0  0  0  0  0
  182.2110   14.6940   44.0490 F   0  0  0  0  0  0  0  0  0  0  0  0
  180.7030   16.5560   44.3620 C   0  0  0  0  0  0  0  0  0  0  0  0
  179.5240   16.3990   45.1120 C   0  0  0  0  0  0  0  0  0  0  0  0
  179.0080   17.4500   45.8790 C   0  0  0  0  0  0  0  0  0  0  0  0
  179.6530   18.6880   45.9180 C   0  0  0  0  0  0  0  0  0  0  0  0
  179.1120   19.8240   46.6950 C   0  0  0  0  0  0  0  0  0  0  0  0
  177.7290   19.7820   46.8220 O   0  0  0  0  0  0  0  0  0  0  0  0
  177.0960   20.7780   47.5210 C   0  0  0  0  0  0  0  0  0  0  0  0
  175.7080   20.6880   47.6350 C   0  0  0  0  0  0  0  0  0  0  0  0
  175.0010   21.6710   48.3330 C   0  0  0  0  0  0  0  0  0  0  0  0
  175.6820   22.7430   48.9140 C   0  0  0  0  0  0  0  0  0  0  0  0
  177.0670   22.8290   48.7980 C   0  0  0  0  0  0  0  0  0  0  0  0
  177.6710   23.9040   49.3910 O   0  0  0  0  0  0  0  0  0  0  0  0
  177.7740   21.8450   48.1010 C   0  0  0  0  0  0  0  0  0  0  0  0
  179.2290   21.8980   47.9570 C   0  0  0  0  0  0  0  0  0  0  0  0
  179.8990   22.8130   48.4330 O   0  0  0  0  0  0  0  0  0  0  0  0
  179.8820   20.8020   47.2040 C   0  0  0  0  0  0  0  0  0  0  0  0
  181.2570   20.8690   47.0620 O   0  0  0  0  0  0  0  0  0  0  0  0
  180.8200   18.8540   45.1570 C   0  0  0  0  0  0  0  0  0  0  0  0
  181.3590   17.8040   44.3870 C   0  0  0  0  0  0  0  0  0  0  0  0
  182.6150   18.0630   43.5970 C   0  0  0  0  0  0  0  0  0  0  0  0
  179.8741   15.6605   41.9127 H   0  0  0  0  0  0  0  0  0  0  0  0
  181.1096   14.2130   41.8218 H   0  0  0  0  0  0  0  0  0  0  0  0
  178.9979   15.4331   45.0957 H   0  0  0  0  0  0  0  0  0  0  0  0
  178.0845   17.2992   46.4573 H   0  0  0  0  0  0  0  0  0  0  0  0
  175.1712   19.8446   47.1762 H   0  0  0  0  0  0  0  0  0  0  0  0
  173.9071   21.6003   48.4248 H   0  0  0  0  0  0  0  0  0  0  0  0
  175.1256   23.5176   49.4620 H   0  0  0  0  0  0  0  0  0  0  0  0
  178.3470   23.7710   50.0260 H   0  0  0  0  0  0  0  0  0  0  0  0
  181.6320   21.0940   46.2330 H   0  0  0  0  0  0  0  0  0  0  0  0
  181.3278   19.8298   45.1615 H   0  0  0  0  0  0  0  0  0  0  0  0
  183.4535   18.2359   44.2877 H   0  0  0  0  0  0  0  0  0  0  0  0
  182.8358   17.1915   42.9632 H   0  0  0  0  0  0  0  0  0  0  0  0
  182.4730   18.9508   42.9632 H   0  0  0  0  0  0  0  0  0  0  0  0
  1  2  2  0
  2  3  1  0
  2  4  1  0
  4  5  2  0
  5  6  1  0
  6  7  2  0
  7  8  1  0
  8  9  1  0
  9 10  1  0
 10 11  2  0
 11 12  1  0
 12 13  2  0
 13 14  1  0
 14 15  1  0
 14 16  2  0
 16 17  1  0
 17 18  2  0
 17 19  1  0
 19 20  1  0
  7 21  1  0
 21 22  2  0
 22 23  1  0
 22  4  1  0
 19  8  2  0
 16 10  1  0
  1 24  1  0
  1 25  1  0
  5 26  1  0
  6 27  1  0
 11 28  1  0
 12 29  1  0
 13 30  1  0
 15 31  1  0
 20 32  1  0
 21 33  1  0
 23 34  1  0
 23 35  1  0
 23 36  1  0
M  END
>  <meeko>  (5) 
{"is_sidechain": [false], "free_energy": -6.272, "intermolecular_energy": -7.577, "internal_energy": -0.057}

$$$$
