cand_007_out
     RDKit          3D

 35 37  0  0  0  0  0  0  0  0999 V2000
  180.7110   21.9740   48.1200 O   0  0  0  0  0  0  0  0  0  0  0  0
  179.9860   21.1500   47.5660 C   0  0  0  0  0  0  0  0  0  0  0  0
  180.5650   20.1380   46.6520 C   0  0  0  0  0  0  0  0  0  0  0  0
  181.9320   20.1820   46.4490 O   0  0  0  0  0  0  0  0  0  0  0  0
  179.7370   19.2550   46.0630 C   0  0  0  0  0  0  0  0  0  0  0  0
  180.2000   18.2120   45.1240 C   0  0  0  0  0  0  0  0  0  0  0  0
  180.8880   18.5310   43.9490 C   0  0  0  0  0  0  0  0  0  0  0  0
  181.3340   17.5270   43.0860 C   0  0  0  0  0  0  0  0  0  0  0  0
  181.1080   16.1710   43.3780 C   0  0  0  0  0  0  0  0  0  0  0  0
  181.6040   15.1070   42.4240 C   0  0  0  0  0  0  0  0  0  0  0  0
  181.4970   15.4930   41.1220 F   0  0  0  0  0  0  0  0  0  0  0  0
  182.9190   14.8080   42.6150 F   0  0  0  0  0  0  0  0  0  0  0  0
  180.9360   13.9250   42.5190 F   0  0  0  0  0  0  0  0  0  0  0  0
  180.4280   15.8320   44.5680 C   0  0  0  0  0  0  0  0  0  0  0  0
  180.1530   14.3920   44.9390 C   0  0  0  0  0  0  0  0  0  0  0  0
  181.2240   13.7670   45.5060 F   0  0  0  0  0  0  0  0  0  0  0  0
  179.9830   16.8590   45.4240 C   0  0  0  0  0  0  0  0  0  0  0  0
  178.3600   19.2390   46.2540 O   0  0  0  0  0  0  0  0  0  0  0  0
  177.7970   20.1600   47.1000 C   0  0  0  0  0  0  0  0  0  0  0  0
  176.4120   20.1010   47.2680 C   0  0  0  0  0  0  0  0  0  0  0  0
  175.7750   21.0100   48.1150 C   0  0  0  0  0  0  0  0  0  0  0  0
  176.5200   21.9770   48.7910 C   0  0  0  0  0  0  0  0  0  0  0  0
  177.9010   22.0340   48.6220 C   0  0  0  0  0  0  0  0  0  0  0  0
  178.5690   23.0070   49.3140 O   0  0  0  0  0  0  0  0  0  0  0  0
  178.5380   21.1240   47.7740 C   0  0  0  0  0  0  0  0  0  0  0  0
  182.3710   19.4540   46.0520 H   0  0  0  0  0  0  0  0  0  0  0  0
  181.0803   19.5853   43.7013 H   0  0  0  0  0  0  0  0  0  0  0  0
  181.8695   17.8016   42.1652 H   0  0  0  0  0  0  0  0  0  0  0  0
  179.3169   14.3691   45.6535 H   0  0  0  0  0  0  0  0  0  0  0  0
  179.9177   13.8551   44.0082 H   0  0  0  0  0  0  0  0  0  0  0  0
  179.4524   16.5932   46.3502 H   0  0  0  0  0  0  0  0  0  0  0  0
  175.8240   19.3399   46.7341 H   0  0  0  0  0  0  0  0  0  0  0  0
  174.6842   20.9638   48.2496 H   0  0  0  0  0  0  0  0  0  0  0  0
  176.0168   22.6936   49.4568 H   0  0  0  0  0  0  0  0  0  0  0  0
  179.4170   23.2840   49.0320 H   0  0  0  0  0  0  0  0  0  0  0  0
  1  2  2  0
  2  3  1  0
  3  4  1  0
  3  5  2  0
  5  6  1  0
  6  7  2  0
  7  8  1  0
  8  9  2  0
  9 10  1  0
 10 11  1  0
 10 12  1  0
 10 13  1  0
  9 14  1  0
 14 15  1  0
 15 16  1  0
 14 17  2  0
  5 18  1  0
 18 19  1  0
 19 20  2  0
 20 21  1  0
 21 22  2  0
 22 23  1  0
 23 24  1  0
 23 25  2  0
 25  2  1  0
 17  6  1  0
 25 19  1  0
  4 26  1  0
  7 27  1  0
  8 28  1  0
 15 29  1  0
 15 30  1  0
 17 31  1  0
 20 32  1  0
 21 33  1  0
 22 34  1  0
 24 35  1  0
M  END
>  <meeko>  (1) 
{"is_sidechain": [false], "free_energy": -9.006, "intermolecular_energy": -11.112, "internal_energy": -0.016}

$$$$
cand_007_out
     RDKit          3D

 35 37  0  0  0  0  0  0  0  0999 V2000
  181.2020   21.8880   48.2670 O   0  0  0  0  0  0  0  0  0  0  0  0
  180.3470   21.2350   47.6730 C   0  0  0  0  0  0  0  0  0  0  0  0
  180.7260   20.0200   46.9150 C   0  0  0  0  0  0  0  0  0  0  0  0
  182.0660   19.6780   46.9000 O   0  0  0  0  0  0  0  0  0  0  0  0
  179.7590   19.3340   46.2760 C   0  0  0  0  0  0  0  0  0  0  0  0
  180.0210   18.1170   45.4790 C   0  0  0  0  0  0  0  0  0  0  0  0
  179.4980   16.8710   45.8420 C   0  0  0  0  0  0  0  0  0  0  0  0
  179.7420   15.7380   45.0620 C   0  0  0  0  0  0  0  0  0  0  0  0
  180.5130   15.8200   43.8910 C   0  0  0  0  0  0  0  0  0  0  0  0
  180.7590   14.5750   43.0680 C   0  0  0  0  0  0  0  0  0  0  0  0
  180.3650   13.4430   43.7160 F   0  0  0  0  0  0  0  0  0  0  0  0
  180.0740   14.5850   41.8910 F   0  0  0  0  0  0  0  0  0  0  0  0
  182.0650   14.3800   42.7370 F   0  0  0  0  0  0  0  0  0  0  0  0
  181.0360   17.0730   43.5020 C   0  0  0  0  0  0  0  0  0  0  0  0
  181.8740   17.2270   42.2540 C   0  0  0  0  0  0  0  0  0  0  0  0
  181.1480   17.1430   41.1020 F   0  0  0  0  0  0  0  0  0  0  0  0
  180.7820   18.2030   44.3030 C   0  0  0  0  0  0  0  0  0  0  0  0
  178.4190   19.7030   46.2760 O   0  0  0  0  0  0  0  0  0  0  0  0
  178.0380   20.8200   46.9740 C   0  0  0  0  0  0  0  0  0  0  0  0
  176.6820   21.1480   46.9530 C   0  0  0  0  0  0  0  0  0  0  0  0
  176.2270   22.2730   47.6430 C   0  0  0  0  0  0  0  0  0  0  0  0
  177.1270   23.0710   48.3510 C   0  0  0  0  0  0  0  0  0  0  0  0
  178.4800   22.7420   48.3710 C   0  0  0  0  0  0  0  0  0  0  0  0
  179.3060   23.5670   49.0840 O   0  0  0  0  0  0  0  0  0  0  0  0
  178.9350   21.6150   47.6800 C   0  0  0  0  0  0  0  0  0  0  0  0
  182.6150   19.9640   46.1970 H   0  0  0  0  0  0  0  0  0  0  0  0
  178.8873   16.7825   46.7526 H   0  0  0  0  0  0  0  0  0  0  0  0
  179.3243   14.7679   45.3694 H   0  0  0  0  0  0  0  0  0  0  0  0
  182.3680   18.2094   42.2844 H   0  0  0  0  0  0  0  0  0  0  0  0
  182.5978   16.3988   42.2437 H   0  0  0  0  0  0  0  0  0  0  0  0
  181.1905   19.1781   43.9991 H   0  0  0  0  0  0  0  0  0  0  0  0
  175.9724   20.5209   46.3934 H   0  0  0  0  0  0  0  0  0  0  0  0
  175.1578   22.5309   47.6287 H   0  0  0  0  0  0  0  0  0  0  0  0
  176.7680   23.9586   48.8925 H   0  0  0  0  0  0  0  0  0  0  0  0
  179.4330   23.4230   50.0000 H   0  0  0  0  0  0  0  0  0  0  0  0
  1  2  2  0
  2  3  1  0
  3  4  1  0
  3  5  2  0
  5  6  1  0
  6  7  2  0
  7  8  1  0
  8  9  2  0
  9 10  1  0
 10 11  1  0
 10 12  1  0
 10 13  1  0
  9 14  1  0
 14 15  1  0
 15 16  1  0
 14 17  2  0
  5 18  1  0
 18 19  1  0
 19 20  2  0
 20 21  1  0
 21 22  2  0
 22 23  1  0
 23 24  1  0
 23 25  2  0
 25  2  1  0
 17  6  1  0
 25 19  1  0
  4 26  1  0
  7 27  1  0
  8 28  1  0
 15 29  1  0
 15 30  1  0
 17 31  1  0
 20 32  1  0
 21 33  1  0
 22 34  1  0
 24 35  1  0
M  END
>  <meeko>  (2) 
{"is_sidechain": [false], "free_energy": -7.703, "intermolecular_energy": -9.152, "internal_energy": -0.367}

$$$$
cand_007_out
     RDKit          3D

 35 37  0  0  0  0  0  0  0  0999 V2000
  182.6220   18.2200   43.6720 O   0  0  0  0  0  0  0  0  0  0  0  0
  181.5980   17.9390   44.2910 C   0  0  0  0  0  0  0  0  0  0  0  0
  180.8840   18.9780   45.0700 C   0  0  0  0  0  0  0  0  0  0  0  0
  181.4300   20.2490   45.0740 O   0  0  0  0  0  0  0  0  0  0  0  0
  179.7670   18.6290   45.7350 C   0  0  0  0  0  0  0  0  0  0  0  0
  178.9820   19.5760   46.5540 C   0  0  0  0  0  0  0  0  0  0  0  0
  179.5960   20.5680   47.3260 C   0  0  0  0  0  0  0  0  0  0  0  0
  178.8320   21.4650   48.0760 C   0  0  0  0  0  0  0  0  0  0  0  0
  177.4290   21.4000   48.0710 C   0  0  0  0  0  0  0  0  0  0  0  0
  176.6310   22.3870   48.8930 C   0  0  0  0  0  0  0  0  0  0  0  0
  176.0200   21.7960   49.9580 F   0  0  0  0  0  0  0  0  0  0  0  0
  177.4060   23.3780   49.4140 F   0  0  0  0  0  0  0  0  0  0  0  0
  175.6430   23.0150   48.1980 F   0  0  0  0  0  0  0  0  0  0  0  0
  176.7930   20.4140   47.2850 C   0  0  0  0  0  0  0  0  0  0  0  0
  175.2880   20.2910   47.2370 C   0  0  0  0  0  0  0  0  0  0  0  0
  174.7650   19.6440   48.3190 F   0  0  0  0  0  0  0  0  0  0  0  0
  177.5800   19.5160   46.5380 C   0  0  0  0  0  0  0  0  0  0  0  0
  179.2420   17.3410   45.7450 O   0  0  0  0  0  0  0  0  0  0  0  0
  179.8790   16.3600   45.0290 C   0  0  0  0  0  0  0  0  0  0  0  0
  179.3120   15.0850   45.0610 C   0  0  0  0  0  0  0  0  0  0  0  0
  179.9090   14.0400   44.3530 C   0  0  0  0  0  0  0  0  0  0  0  0
  181.0720   14.2690   43.6160 C   0  0  0  0  0  0  0  0  0  0  0  0
  181.6360   15.5420   43.5860 C   0  0  0  0  0  0  0  0  0  0  0  0
  182.7760   15.6960   42.8450 O   0  0  0  0  0  0  0  0  0  0  0  0
  181.0380   16.5880   44.2940 C   0  0  0  0  0  0  0  0  0  0  0  0
  181.4380   20.7530   45.8640 H   0  0  0  0  0  0  0  0  0  0  0  0
  180.6933   20.6424   47.3425 H   0  0  0  0  0  0  0  0  0  0  0  0
  179.3366   22.2338   48.6796 H   0  0  0  0  0  0  0  0  0  0  0  0
  174.8562   21.3017   47.1921 H   0  0  0  0  0  0  0  0  0  0  0  0
  175.0378   19.6939   46.3477 H   0  0  0  0  0  0  0  0  0  0  0  0
  177.0832   18.7483   45.9266 H   0  0  0  0  0  0  0  0  0  0  0  0
  178.3964   14.9037   45.6430 H   0  0  0  0  0  0  0  0  0  0  0  0
  179.4622   13.0351   44.3761 H   0  0  0  0  0  0  0  0  0  0  0  0
  181.5425   13.4450   43.0596 H   0  0  0  0  0  0  0  0  0  0  0  0
  183.1800   16.5370   42.7760 H   0  0  0  0  0  0  0  0  0  0  0  0
  1  2  2  0
  2  3  1  0
  3  4  1  0
  3  5  2  0
  5  6  1  0
  6  7  2  0
  7  8  1  0
  8  9  2  0
  9 10  1  0
 10 11  1  0
 10 12  1  0
 10 13  1  0
  9 14  1  0
 14 15  1  0
 15 16  1  0
 14 17  2  0
  5 18  1  0
 18 19  1  0
 19 20  2  0
 20 21  1  0
 21 22  2  0
 22 23  1  0
 23 24  1  0
 23 25  2  0
 25  2  1  0
 17  6  1  0
 25 19  1  0
  4 26  1  0
  7 27  1  0
  8 28  1  0
 15 29  1  0
 15 30  1  0
 17 31  1  0
 20 32  1  0
 21 33  1  0
 22 34  1  0
 24 35  1  0
M  END
>  <meeko>  (3) 
{"is_sidechain": [false], "free_energy": -7.564, "intermolecular_energy": -9.224, "internal_energy": -0.124}

$$$$
cand_007_out
     RDKit          3D

 35 37  0  0  0  0  0  0  0  0999 V2000
  182.3150   18.4430   43.7730 O   0  0  0  0  0  0  0  0  0  0  0  0
  181.2940   18.0930   44.3610 C   0  0  0  0  0  0  0  0  0  0  0  0
  180.4450   19.0930   45.0500 C   0  0  0  0  0  0  0  0  0  0  0  0
  180.8640   20.4100   45.0100 O   0  0  0  0  0  0  0  0  0  0  0  0
  179.3360   18.6680   45.6830 C   0  0  0  0  0  0  0  0  0  0  0  0
  178.4230   19.5720   46.4140 C   0  0  0  0  0  0  0  0  0  0  0  0
  177.0660   19.2750   46.5760 C   0  0  0  0  0  0  0  0  0  0  0  0
  176.2260   20.1350   47.2880 C   0  0  0  0  0  0  0  0  0  0  0  0
  176.7230   21.3160   47.8650 C   0  0  0  0  0  0  0  0  0  0  0  0
  175.7880   22.2260   48.6310 C   0  0  0  0  0  0  0  0  0  0  0  0
  176.0010   23.5410   48.3470 F   0  0  0  0  0  0  0  0  0  0  0  0
  174.4780   21.9910   48.3390 F   0  0  0  0  0  0  0  0  0  0  0  0
  175.8930   22.1140   49.9840 F   0  0  0  0  0  0  0  0  0  0  0  0
  178.0940   21.6220   47.7240 C   0  0  0  0  0  0  0  0  0  0  0  0
  178.6890   22.8770   48.3190 C   0  0  0  0  0  0  0  0  0  0  0  0
  178.7800   23.9070   47.4290 F   0  0  0  0  0  0  0  0  0  0  0  0
  178.9240   20.7440   46.9990 C   0  0  0  0  0  0  0  0  0  0  0  0
  178.9390   17.3360   45.7400 O   0  0  0  0  0  0  0  0  0  0  0  0
  179.7020   16.3890   45.1060 C   0  0  0  0  0  0  0  0  0  0  0  0
  179.2610   15.0670   45.1820 C   0  0  0  0  0  0  0  0  0  0  0  0
  179.9910   14.0530   44.5590 C   0  0  0  0  0  0  0  0  0  0  0  0
  181.1610   14.3600   43.8630 C   0  0  0  0  0  0  0  0  0  0  0  0
  181.5990   15.6800   43.7890 C   0  0  0  0  0  0  0  0  0  0  0  0
  182.7540   15.9090   43.0920 O   0  0  0  0  0  0  0  0  0  0  0  0
  180.8680   16.6940   44.4120 C   0  0  0  0  0  0  0  0  0  0  0  0
  181.7150   20.6410   45.3280 H   0  0  0  0  0  0  0  0  0  0  0  0
  176.6552   18.3535   46.1377 H   0  0  0  0  0  0  0  0  0  0  0  0
  175.1607   19.8841   47.3984 H   0  0  0  0  0  0  0  0  0  0  0  0
  178.0571   23.1977   49.1604 H   0  0  0  0  0  0  0  0  0  0  0  0
  179.7127   22.6318   48.6384 H   0  0  0  0  0  0  0  0  0  0  0  0
  179.9919   20.9839   46.8891 H   0  0  0  0  0  0  0  0  0  0  0  0
  178.3397   14.8244   45.7319 H   0  0  0  0  0  0  0  0  0  0  0  0
  179.6435   13.0109   44.6168 H   0  0  0  0  0  0  0  0  0  0  0  0
  181.7365   13.5605   43.3735 H   0  0  0  0  0  0  0  0  0  0  0  0
  183.1700   16.7460   43.1370 H   0  0  0  0  0  0  0  0  0  0  0  0
  1  2  2  0
  2  3  1  0
  3  4  1  0
  3  5  2  0
  5  6  1  0
  6  7  2  0
  7  8  1  0
  8  9  2  0
  9 10  1  0
 10 11  1  0
 10 12  1  0
 10 13  1  0
  9 14  1  0
 14 15  1  0
 15 16  1  0
 14 17  2  0
  5 18  1  0
 18 19  1  0
 19 20  2  0
 20 21  1  0
 21 22  2  0
 22 23  1  0
 23 24  1  0
 23 25  2  0
 25  2  1  0
 17  6  1  0
 25 19  1  0
  4 26  1  0
  7 27  1  0
  8 28  1  0
 15 29  1  0
 15 30  1  0
 17 31  1  0
 20 32  1  0
 21 33  1  0
 22 34  1  0
 24 35  1  0
M  END
>  <meeko>  (4) 
{"is_sidechain": [false], "free_energy": -7.22, "intermolecular_energy": -9.102, "internal_energy": 0.178}

$$$$
cand_007_out
     RDKit          3D

 35 37  0  0  0  0  0  0  0  0999 V2000
  174.9940   20.0740   47.5940 O   0  0  0  0  0  0  0  0  0  0  0  0
  176.1860   20.2650   47.3600 C   0  0  0  0  0  0  0  0  0  0  0  0
  176.9740   19.2570   46.6150 C   0  0  0  0  0  0  0  0  0  0  0  0
  176.3150   18.1070   46.2190 O   0  0  0  0  0  0  0  0  0  0  0  0
  178.2770   19.5040   46.3810 C   0  0  0  0  0  0  0  0  0  0  0  0
  179.1630   18.5660   45.6610 C   0  0  0  0  0  0  0  0  0  0  0  0
  180.2450   19.0150   44.8950 C   0  0  0  0  0  0  0  0  0  0  0  0
  181.0810   18.1080   44.2390 C   0  0  0  0  0  0  0  0  0  0  0  0
  180.8630   16.7240   44.3360 C   0  0  0  0  0  0  0  0  0  0  0  0
  181.7870   15.7680   43.6140 C   0  0  0  0  0  0  0  0  0  0  0  0
  181.2320   15.2790   42.4700 F   0  0  0  0  0  0  0  0  0  0  0  0
  182.9550   16.3590   43.2360 F   0  0  0  0  0  0  0  0  0  0  0  0
  182.1420   14.6800   44.3510 F   0  0  0  0  0  0  0  0  0  0  0  0
  179.7850   16.2540   45.1180 C   0  0  0  0  0  0  0  0  0  0  0  0
  179.4960   14.7780   45.2600 C   0  0  0  0  0  0  0  0  0  0  0  0
  179.0680   14.1970   44.1020 F   0  0  0  0  0  0  0  0  0  0  0  0
  178.9500   17.1840   45.7680 C   0  0  0  0  0  0  0  0  0  0  0  0
  178.9360   20.6520   46.8070 O   0  0  0  0  0  0  0  0  0  0  0  0
  178.2290   21.6060   47.4950 C   0  0  0  0  0  0  0  0  0  0  0  0
  178.9290   22.7450   47.8960 C   0  0  0  0  0  0  0  0  0  0  0  0
  178.2700   23.7550   48.6000 C   0  0  0  0  0  0  0  0  0  0  0  0
  176.9140   23.6250   48.9040 C   0  0  0  0  0  0  0  0  0  0  0  0
  176.2180   22.4870   48.5030 C   0  0  0  0  0  0  0  0  0  0  0  0
  174.8920   22.4250   48.8350 O   0  0  0  0  0  0  0  0  0  0  0  0
  176.8780   21.4770   47.7980 C   0  0  0  0  0  0  0  0  0  0  0  0
  176.2490   17.8940   45.3090 H   0  0  0  0  0  0  0  0  0  0  0  0
  180.4393   20.0942   44.8085 H   0  0  0  0  0  0  0  0  0  0  0  0
  181.9222   18.4834   43.6378 H   0  0  0  0  0  0  0  0  0  0  0  0
  180.4170   14.2718   45.5847 H   0  0  0  0  0  0  0  0  0  0  0  0
  178.6843   14.6747   45.9952 H   0  0  0  0  0  0  0  0  0  0  0  0
  178.1094   16.8168   46.3750 H   0  0  0  0  0  0  0  0  0  0  0  0
  179.9981   22.8469   47.6579 H   0  0  0  0  0  0  0  0  0  0  0  0
  178.8201   24.6539   48.9153 H   0  0  0  0  0  0  0  0  0  0  0  0
  176.3955   24.4203   49.4596 H   0  0  0  0  0  0  0  0  0  0  0  0
  174.4480   23.1930   49.1330 H   0  0  0  0  0  0  0  0  0  0  0  0
  1  2  2  0
  2  3  1  0
  3  4  1  0
  3  5  2  0
  5  6  1  0
  6  7  2  0
  7  8  1  0
  8  9  2  0
  9 10  1  0
 10 11  1  0
 10 12  1  0
 10 13  1  0
  9 14  1  0
 14 15  1  0
 15 16  1  0
 14 17  2  0
  5 18  1  0
 18 19  1  0
 19 20  2  0
 20 21  1  0
 21 22  2  0
 22 23  1  0
 23 24  1  0
 23 25  2  0
 25  2  1  0
 17  6  1  0
 25 19  1  0
  4 26  1  0
  7 27  1  0
  8 28  1  0
 15 29  1  0
 15 30  1  0
 17 31  1  0
 20 32  1  0
 21 33  1  0
 22 34  1  0
 24 35  1  0
M  END
>  <meeko>  (5) 
{"is_sidechain": [false], "free_energy": -6.902, "intermolecular_energy": -8.631, "internal_energy": 0.099}

$$$$
