cand_042_out
     RDKit          3D

 38 40  0  0  0  0  0  0  0  0999 V2000
  181.3320   14.8960   41.3330 C   0  0  0  0  0  0  0  0  0  0  0  0
  181.9530   14.9240   42.7210 C   0  0  0  0  0  0  0  0  0  0  0  0
  181.2710   15.9250   43.6270 C   0  0  0  0  0  0  0  0  0  0  0  0
  181.6090   17.2810   43.4970 C   0  0  0  0  0  0  0  0  0  0  0  0
  181.0220   18.2520   44.3120 C   0  0  0  0  0  0  0  0  0  0  0  0
  180.0750   17.8960   45.2750 C   0  0  0  0  0  0  0  0  0  0  0  0
  179.4550   18.8990   46.1670 C   0  0  0  0  0  0  0  0  0  0  0  0
  178.0660   18.8340   46.1710 O   0  0  0  0  0  0  0  0  0  0  0  0
  177.3630   19.7100   46.9570 C   0  0  0  0  0  0  0  0  0  0  0  0
  175.9720   19.6000   46.9410 C   0  0  0  0  0  0  0  0  0  0  0  0
  175.1960   20.4630   47.7180 C   0  0  0  0  0  0  0  0  0  0  0  0
  175.8100   21.4360   48.5100 C   0  0  0  0  0  0  0  0  0  0  0  0
  177.1980   21.5420   48.5240 C   0  0  0  0  0  0  0  0  0  0  0  0
  177.7340   22.5170   49.3210 O   0  0  0  0  0  0  0  0  0  0  0  0
  177.9750   20.6790   47.7470 C   0  0  0  0  0  0  0  0  0  0  0  0
  179.4360   20.7580   47.7330 C   0  0  0  0  0  0  0  0  0  0  0  0
  180.0490   21.5920   48.3980 O   0  0  0  0  0  0  0  0  0  0  0  0
  180.1660   19.7910   46.8820 C   0  0  0  0  0  0  0  0  0  0  0  0
  181.5460   19.8840   46.8670 O   0  0  0  0  0  0  0  0  0  0  0  0
  179.7470   16.5380   45.4160 C   0  0  0  0  0  0  0  0  0  0  0  0
  180.3360   15.5460   44.6090 C   0  0  0  0  0  0  0  0  0  0  0  0
  179.9230   14.1130   44.8050 C   0  0  0  0  0  0  0  0  0  0  0  0
  180.2367   14.8466   41.4223 H   0  0  0  0  0  0  0  0  0  0  0  0
  181.6146   15.8078   40.7864 H   0  0  0  0  0  0  0  0  0  0  0  0
  181.6955   14.0133   40.7864 H   0  0  0  0  0  0  0  0  0  0  0  0
  181.8666   13.9231   43.1690 H   0  0  0  0  0  0  0  0  0  0  0  0
  183.0062   15.2234   42.6159 H   0  0  0  0  0  0  0  0  0  0  0  0
  182.3482   17.5842   42.7410 H   0  0  0  0  0  0  0  0  0  0  0  0
  181.3085   19.3075   44.1941 H   0  0  0  0  0  0  0  0  0  0  0  0
  175.4873   18.8345   46.3172 H   0  0  0  0  0  0  0  0  0  0  0  0
  174.0995   20.3763   47.7062 H   0  0  0  0  0  0  0  0  0  0  0  0
  175.1986   22.1165   49.1208 H   0  0  0  0  0  0  0  0  0  0  0  0
  177.7630   23.4040   49.0200 H   0  0  0  0  0  0  0  0  0  0  0  0
  181.9710   20.4550   46.2590 H   0  0  0  0  0  0  0  0  0  0  0  0
  179.0103   16.2413   46.1771 H   0  0  0  0  0  0  0  0  0  0  0  0
  179.8598   13.8935   45.8810 H   0  0  0  0  0  0  0  0  0  0  0  0
  178.9406   13.9475   44.3387 H   0  0  0  0  0  0  0  0  0  0  0  0
  180.6666   13.4500   44.3387 H   0  0  0  0  0  0  0  0  0  0  0  0
  1  2  1  0
  2  3  1  0
  3  4  2  0
  4  5  1  0
  5  6  2  0
  6  7  1  0
  7  8  1  0
  8  9  1  0
  9 10  2  0
 10 11  1  0
 11 12  2  0
 12 13  1  0
 13 14  1  0
 13 15  2  0
 15 16  1  0
 16 17  2  0
 16 18  1  0
 18 19  1  0
  6 20  1  0
 20 21  2  0
 21 22  1  0
 21  3  1  0
 18  7  2  0
 15  9  1  0
  1 23  1  0
  1 24  1  0
  1 25  1  0
  2 26  1  0
  2 27  1  0
  4 28  1  0
  5 29  1  0
 10 30  1  0
 11 31  1  0
 12 32  1  0
 14 33  1  0
 19 34  1  0
 20 35  1  0
 22 36  1  0
 22 37  1  0
 22 38  1  0
M  END
>  <meeko>  (1) 
{"is_sidechain": [false], "free_energy": -8.053, "intermolecular_energy": -9.465, "internal_energy": -0.233}

$$$$
cand_042_out
     RDKit          3D

 38 40  0  0  0  0  0  0  0  0999 V2000
  181.0770   14.8960   40.9270 C   0  0  0  0  0  0  0  0  0  0  0  0
  181.1880   14.4360   42.3730 C   0  0  0  0  0  0  0  0  0  0  0  0
  180.8870   15.5530   43.3470 C   0  0  0  0  0  0  0  0  0  0  0  0
  181.3710   16.8390   43.0580 C   0  0  0  0  0  0  0  0  0  0  0  0
  181.1350   17.9090   43.9240 C   0  0  0  0  0  0  0  0  0  0  0  0
  180.4040   17.7260   45.1010 C   0  0  0  0  0  0  0  0  0  0  0  0
  180.1590   18.8350   46.0480 C   0  0  0  0  0  0  0  0  0  0  0  0
  181.3320   19.3650   46.5730 O   0  0  0  0  0  0  0  0  0  0  0  0
  181.2490   20.4020   47.4670 C   0  0  0  0  0  0  0  0  0  0  0  0
  182.4510   20.9130   47.9580 C   0  0  0  0  0  0  0  0  0  0  0  0
  182.4370   21.9690   48.8720 C   0  0  0  0  0  0  0  0  0  0  0  0
  181.2230   22.5130   49.2960 C   0  0  0  0  0  0  0  0  0  0  0  0
  180.0250   22.0010   48.8040 C   0  0  0  0  0  0  0  0  0  0  0  0
  178.8720   22.5790   49.2610 O   0  0  0  0  0  0  0  0  0  0  0  0
  180.0380   20.9450   47.8880 C   0  0  0  0  0  0  0  0  0  0  0  0
  178.8030   20.3780   47.3470 C   0  0  0  0  0  0  0  0  0  0  0  0
  177.6950   20.7980   47.6770 O   0  0  0  0  0  0  0  0  0  0  0  0
  178.9270   19.2660   46.3770 C   0  0  0  0  0  0  0  0  0  0  0  0
  177.7520   18.7300   45.8820 O   0  0  0  0  0  0  0  0  0  0  0  0
  179.9330   16.4360   45.3980 C   0  0  0  0  0  0  0  0  0  0  0  0
  180.1690   15.3460   44.5410 C   0  0  0  0  0  0  0  0  0  0  0  0
  179.6190   13.9970   44.9150 C   0  0  0  0  0  0  0  0  0  0  0  0
  180.8190   15.9650   40.9011 H   0  0  0  0  0  0  0  0  0  0  0  0
  182.0389   14.7385   40.4172 H   0  0  0  0  0  0  0  0  0  0  0  0
  180.2928   14.3171   40.4172 H   0  0  0  0  0  0  0  0  0  0  0  0
  180.4739   13.6163   42.5408 H   0  0  0  0  0  0  0  0  0  0  0  0
  182.2224   14.1039   42.5457 H   0  0  0  0  0  0  0  0  0  0  0  0
  181.9452   17.0064   42.1348 H   0  0  0  0  0  0  0  0  0  0  0  0
  181.5285   18.9061   43.6771 H   0  0  0  0  0  0  0  0  0  0  0  0
  183.4082   20.4848   47.6257 H   0  0  0  0  0  0  0  0  0  0  0  0
  183.3843   22.3729   49.2586 H   0  0  0  0  0  0  0  0  0  0  0  0
  181.2129   23.3439   50.0168 H   0  0  0  0  0  0  0  0  0  0  0  0
  178.8140   22.8660   50.1510 H   0  0  0  0  0  0  0  0  0  0  0  0
  177.1530   19.2710   45.4090 H   0  0  0  0  0  0  0  0  0  0  0  0
  179.3644   16.2742   46.3256 H   0  0  0  0  0  0  0  0  0  0  0  0
  179.5823   13.9069   46.0107 H   0  0  0  0  0  0  0  0  0  0  0  0
  178.6046   13.8878   44.5039 H   0  0  0  0  0  0  0  0  0  0  0  0
  180.2679   13.2096   44.5039 H   0  0  0  0  0  0  0  0  0  0  0  0
  1  2  1  0
  2  3  1  0
  3  4  2  0
  4  5  1  0
  5  6  2  0
  6  7  1  0
  7  8  1  0
  8  9  1  0
  9 10  2  0
 10 11  1  0
 11 12  2  0
 12 13  1  0
 13 14  1  0
 13 15  2  0
 15 16  1  0
 16 17  2  0
 16 18  1  0
 18 19  1  0
  6 20  1  0
 20 21  2  0
 21 22  1  0
 21  3  1  0
 18  7  2  0
 15  9  1  0
  1 23  1  0
  1 24  1  0
  1 25  1  0
  2 26  1  0
  2 27  1  0
  4 28  1  0
  5 29  1  0
 10 30  1  0
 11 31  1  0
 12 32  1  0
 14 33  1  0
 19 34  1  0
 20 35  1  0
 22 36  1  0
 22 37  1  0
 22 38  1  0
M  END
>  <meeko>  (2) 
{"is_sidechain": [false], "free_energy": -7.611, "intermolecular_energy": -8.863, "internal_energy": -0.316}

$$$$
cand_042_out
     RDKit          3D

 38 40  0  0  0  0  0  0  0  0999 V2000
  179.1610   20.4610   46.8290 C   0  0  0  0  0  0  0  0  0  0  0  0
  177.7660   20.8080   46.3320 C   0  0  0  0  0  0  0  0  0  0  0  0
  176.8780   21.3150   47.4470 C   0  0  0  0  0  0  0  0  0  0  0  0
  176.9910   22.6600   47.8320 C   0  0  0  0  0  0  0  0  0  0  0  0
  176.2060   23.1840   48.8620 C   0  0  0  0  0  0  0  0  0  0  0  0
  175.2810   22.3800   49.5320 C   0  0  0  0  0  0  0  0  0  0  0  0
  174.4540   22.9010   50.6420 C   0  0  0  0  0  0  0  0  0  0  0  0
  175.2030   23.2350   51.7640 O   0  0  0  0  0  0  0  0  0  0  0  0
  174.5590   23.7310   52.8670 C   0  0  0  0  0  0  0  0  0  0  0  0
  175.3520   24.0670   53.9660 C   0  0  0  0  0  0  0  0  0  0  0  0
  174.7590   24.5770   55.1230 C   0  0  0  0  0  0  0  0  0  0  0  0
  173.3740   24.7510   55.1820 C   0  0  0  0  0  0  0  0  0  0  0  0
  172.5860   24.4160   54.0840 C   0  0  0  0  0  0  0  0  0  0  0  0
  171.2380   24.6100   54.2100 O   0  0  0  0  0  0  0  0  0  0  0  0
  173.1800   23.9060   52.9260 C   0  0  0  0  0  0  0  0  0  0  0  0
  172.3880   23.5410   51.7510 C   0  0  0  0  0  0  0  0  0  0  0  0
  171.1640   23.6580   51.7290 O   0  0  0  0  0  0  0  0  0  0  0  0
  173.1140   23.0170   50.5720 C   0  0  0  0  0  0  0  0  0  0  0  0
  172.3540   22.6640   49.4720 O   0  0  0  0  0  0  0  0  0  0  0  0
  175.1780   21.0300   49.1580 C   0  0  0  0  0  0  0  0  0  0  0  0
  175.9670   20.4840   48.1290 C   0  0  0  0  0  0  0  0  0  0  0  0
  175.7900   19.0340   47.7700 C   0  0  0  0  0  0  0  0  0  0  0  0
  179.1684   20.4592   47.9290 H   0  0  0  0  0  0  0  0  0  0  0  0
  179.4449   19.4649   46.4587 H   0  0  0  0  0  0  0  0  0  0  0  0
  179.8785   21.2080   46.4587 H   0  0  0  0  0  0  0  0  0  0  0  0
  177.8475   21.5876   45.5603 H   0  0  0  0  0  0  0  0  0  0  0  0
  177.3122   19.8922   45.9254 H   0  0  0  0  0  0  0  0  0  0  0  0
  177.7096   23.3123   47.3142 H   0  0  0  0  0  0  0  0  0  0  0  0
  176.3175   24.2403   49.1482 H   0  0  0  0  0  0  0  0  0  0  0  0
  176.4425   23.9302   53.9206 H   0  0  0  0  0  0  0  0  0  0  0  0
  175.3832   24.8421   55.9891 H   0  0  0  0  0  0  0  0  0  0  0  0
  172.9071   25.1517   56.0938 H   0  0  0  0  0  0  0  0  0  0  0  0
  170.6400   23.9520   53.9150 H   0  0  0  0  0  0  0  0  0  0  0  0
  172.5260   23.0530   48.6390 H   0  0  0  0  0  0  0  0  0  0  0  0
  174.4611   20.3822   49.6838 H   0  0  0  0  0  0  0  0  0  0  0  0
  175.7169   18.4349   48.6896 H   0  0  0  0  0  0  0  0  0  0  0  0
  174.8703   18.9122   47.1789 H   0  0  0  0  0  0  0  0  0  0  0  0
  176.6534   18.6946   47.1789 H   0  0  0  0  0  0  0  0  0  0  0  0
  1  2  1  0
  2  3  1  0
  3  4  2  0
  4  5  1  0
  5  6  2  0
  6  7  1  0
  7  8  1  0
  8  9  1  0
  9 10  2  0
 10 11  1  0
 11 12  2  0
 12 13  1  0
 13 14  1  0
 13 15  2  0
 15 16  1  0
 16 17  2  0
 16 18  1  0
 18 19  1  0
  6 20  1  0
 20 21  2  0
 21 22  1  0
 21  3  1  0
 18  7  2  0
 15  9  1  0
  1 23  1  0
  1 24  1  0
  1 25  1  0
  2 26  1  0
  2 27  1  0
  4 28  1  0
  5 29  1  0
 10 30  1  0
 11 31  1  0
 12 32  1  0
 14 33  1  0
 19 34  1  0
 20 35  1  0
 22 36  1  0
 22 37  1  0
 22 38  1  0
M  END
>  <meeko>  (3) 
{"is_sidechain": [false], "free_energy": -7.399, "intermolecular_energy": -8.549, "internal_energy": -0.381}

$$$$
cand_042_out
     RDKit          3D

 38 40  0  0  0  0  0  0  0  0999 V2000
  171.7650   24.3800   48.6410 C   0  0  0  0  0  0  0  0  0  0  0  0
  172.5190   23.9730   49.8980 C   0  0  0  0  0  0  0  0  0  0  0  0
  173.9270   23.5150   49.5900 C   0  0  0  0  0  0  0  0  0  0  0  0
  174.1220   22.1910   49.1680 C   0  0  0  0  0  0  0  0  0  0  0  0
  175.4000   21.7070   48.8780 C   0  0  0  0  0  0  0  0  0  0  0  0
  176.5200   22.5350   48.9970 C   0  0  0  0  0  0  0  0  0  0  0  0
  177.8860   22.0430   48.7210 C   0  0  0  0  0  0  0  0  0  0  0  0
  178.0270   21.5280   47.4370 O   0  0  0  0  0  0  0  0  0  0  0  0
  179.2460   21.0360   47.0490 C   0  0  0  0  0  0  0  0  0  0  0  0
  179.3450   20.5420   45.7480 C   0  0  0  0  0  0  0  0  0  0  0  0
  180.5590   20.0260   45.2890 C   0  0  0  0  0  0  0  0  0  0  0  0
  181.6730   20.0020   46.1310 C   0  0  0  0  0  0  0  0  0  0  0  0
  181.5710   20.4970   47.4290 C   0  0  0  0  0  0  0  0  0  0  0  0
  182.7000   20.4420   48.2000 O   0  0  0  0  0  0  0  0  0  0  0  0
  180.3560   21.0140   47.8880 C   0  0  0  0  0  0  0  0  0  0  0  0
  180.2070   21.5420   49.2440 C   0  0  0  0  0  0  0  0  0  0  0  0
  181.1390   21.5490   50.0460 O   0  0  0  0  0  0  0  0  0  0  0  0
  178.8800   22.0750   49.6290 C   0  0  0  0  0  0  0  0  0  0  0  0
  178.7470   22.5600   50.9170 O   0  0  0  0  0  0  0  0  0  0  0  0
  176.3270   23.8550   49.4340 C   0  0  0  0  0  0  0  0  0  0  0  0
  175.0480   24.3560   49.7370 C   0  0  0  0  0  0  0  0  0  0  0  0
  174.9160   25.7870   50.1820 C   0  0  0  0  0  0  0  0  0  0  0  0
  170.8292   24.8851   48.9222 H   0  0  0  0  0  0  0  0  0  0  0  0
  172.3869   25.0649   48.0460 H   0  0  0  0  0  0  0  0  0  0  0  0
  171.5337   23.4842   48.0460 H   0  0  0  0  0  0  0  0  0  0  0  0
  172.5670   24.8359   50.5785 H   0  0  0  0  0  0  0  0  0  0  0  0
  171.9812   23.1319   50.3598 H   0  0  0  0  0  0  0  0  0  0  0  0
  173.2542   21.5231   49.0638 H   0  0  0  0  0  0  0  0  0  0  0  0
  175.5262   20.6638   48.5527 H   0  0  0  0  0  0  0  0  0  0  0  0
  178.4679   20.5589   45.0844 H   0  0  0  0  0  0  0  0  0  0  0  0
  180.6378   19.6379   44.2628 H   0  0  0  0  0  0  0  0  0  0  0  0
  182.6284   19.5933   45.7701 H   0  0  0  0  0  0  0  0  0  0  0  0
  182.8290   21.0680   48.8850 H   0  0  0  0  0  0  0  0  0  0  0  0
  178.0330   23.1250   51.1340 H   0  0  0  0  0  0  0  0  0  0  0  0
  177.1998   24.5156   49.5424 H   0  0  0  0  0  0  0  0  0  0  0  0
  174.9120   25.8303   51.2811 H   0  0  0  0  0  0  0  0  0  0  0  0
  175.7641   26.3710   49.7951 H   0  0  0  0  0  0  0  0  0  0  0  0
  173.9754   26.2060   49.7951 H   0  0  0  0  0  0  0  0  0  0  0  0
  1  2  1  0
  2  3  1  0
  3  4  2  0
  4  5  1  0
  5  6  2  0
  6  7  1  0
  7  8  1  0
  8  9  1  0
  9 10  2  0
 10 11  1  0
 11 12  2  0
 12 13  1  0
 13 14  1  0
 13 15  2  0
 15 16  1  0
 16 17  2  0
 16 18  1  0
 18 19  1  0
  6 20  1  0
 20 21  2  0
 21 22  1  0
 21  3  1  0
 18  7  2  0
 15  9  1  0
  1 23  1  0
  1 24  1  0
  1 25  1  0
  2 26  1  0
  2 27  1  0
  4 28  1  0
  5 29  1  0
 10 30  1  0
 11 31  1  0
 12 32  1  0
 14 33  1  0
 19 34  1  0
 20 35  1  0
 22 36  1  0
 22 37  1  0
 22 38  1  0
M  END
>  <meeko>  (4) 
{"is_sidechain": [false], "free_energy": -7.39, "intermolecular_energy": -8.652, "internal_energy": -0.266}

$$$$
cand_042_out
     RDKit          3D

 38 40  0  0  0  0  0  0  0  0999 V2000
  176.9400   23.8220   48.4810 C   0  0  0  0  0  0  0  0  0  0  0  0
  176.6400   22.3960   48.9180 C   0  0  0  0  0  0  0  0  0  0  0  0
  177.3940   21.3800   48.0890 C   0  0  0  0  0  0  0  0  0  0  0  0
  178.7950   21.3520   48.1800 C   0  0  0  0  0  0  0  0  0  0  0  0
  179.5470   20.4430   47.4330 C   0  0  0  0  0  0  0  0  0  0  0  0
  178.9210   19.5320   46.5770 C   0  0  0  0  0  0  0  0  0  0  0  0
  179.6940   18.5760   45.7560 C   0  0  0  0  0  0  0  0  0  0  0  0
  179.2000   17.2790   45.8290 O   0  0  0  0  0  0  0  0  0  0  0  0
  179.8240   16.2900   45.1140 C   0  0  0  0  0  0  0  0  0  0  0  0
  179.2860   15.0060   45.2050 C   0  0  0  0  0  0  0  0  0  0  0  0
  179.8750   13.9520   44.5020 C   0  0  0  0  0  0  0  0  0  0  0  0
  181.0020   14.1810   43.7100 C   0  0  0  0  0  0  0  0  0  0  0  0
  181.5360   15.4640   43.6210 C   0  0  0  0  0  0  0  0  0  0  0  0
  182.6410   15.6190   42.8290 O   0  0  0  0  0  0  0  0  0  0  0  0
  180.9460   16.5190   44.3230 C   0  0  0  0  0  0  0  0  0  0  0  0
  181.4770   17.8810   44.2570 C   0  0  0  0  0  0  0  0  0  0  0  0
  182.4690   18.1610   43.5880 O   0  0  0  0  0  0  0  0  0  0  0  0
  180.7730   18.9280   45.0330 C   0  0  0  0  0  0  0  0  0  0  0  0
  181.2910   20.2090   44.9730 O   0  0  0  0  0  0  0  0  0  0  0  0
  177.5210   19.5710   46.4740 C   0  0  0  0  0  0  0  0  0  0  0  0
  176.7480   20.4850   47.2140 C   0  0  0  0  0  0  0  0  0  0  0  0
  175.2520   20.4550   47.0670 C   0  0  0  0  0  0  0  0  0  0  0  0
  177.0736   24.4572   49.3691 H   0  0  0  0  0  0  0  0  0  0  0  0
  177.8605   23.8350   47.8790 H   0  0  0  0  0  0  0  0  0  0  0  0
  176.1027   24.2048   47.8790 H   0  0  0  0  0  0  0  0  0  0  0  0
  176.9295   22.2792   49.9728 H   0  0  0  0  0  0  0  0  0  0  0  0
  175.5636   22.2169   48.7793 H   0  0  0  0  0  0  0  0  0  0  0  0
  179.3081   22.0572   48.8503 H   0  0  0  0  0  0  0  0  0  0  0  0
  180.6436   20.4437   47.5190 H   0  0  0  0  0  0  0  0  0  0  0  0
  178.3990   14.8236   45.8296 H   0  0  0  0  0  0  0  0  0  0  0  0
  179.4501   12.9398   44.5726 H   0  0  0  0  0  0  0  0  0  0  0  0
  181.4665   13.3505   43.1581 H   0  0  0  0  0  0  0  0  0  0  0  0
  183.4980   15.5440   43.2000 H   0  0  0  0  0  0  0  0  0  0  0  0
  181.4580   20.6080   44.1430 H   0  0  0  0  0  0  0  0  0  0  0  0
  177.0147   18.8678   45.7963 H   0  0  0  0  0  0  0  0  0  0  0  0
  174.7858   20.4457   48.0633 H   0  0  0  0  0  0  0  0  0  0  0  0
  174.9198   21.3467   46.5151 H   0  0  0  0  0  0  0  0  0  0  0  0
  174.9559   19.5507   46.5151 H   0  0  0  0  0  0  0  0  0  0  0  0
  1  2  1  0
  2  3  1  0
  3  4  2  0
  4  5  1  0
  5  6  2  0
  6  7  1  0
  7  8  1  0
  8  9  1  0
  9 10  2  0
 10 11  1  0
 11 12  2  0
 12 13  1  0
 13 14  1  0
 13 15  2  0
 15 16  1  0
 16 17  2  0
 16 18  1  0
 18 19  1  0
  6 20  1  0
 20 21  2  0
 21 22  1  0
 21  3  1  0
 18  7  2  0
 15  9  1  0
  1 23  1  0
  1 24  1  0
  1 25  1  0
  2 26  1  0
  2 27  1  0
  4 28  1  0
  5 29  1  0
 10 30  1  0
 11 31  1  0
 12 32  1  0
 14 33  1  0
 19 34  1  0
 20 35  1  0
 22 36  1  0
 22 37  1  0
 22 38  1  0
M  END
>  <meeko>  (5) 
{"is_sidechain": [false], "free_energy": -7.288, "intermolecular_energy": -8.613, "internal_energy": -0.186}

$$$$
cand_042_out
     RDKit          3D

 38 40  0  0  0  0  0  0  0  0999 V2000
  180.3530   18.4710   45.4390 C   0  0  0  0  0  0  0  0  0  0  0  0
  180.2390   19.9840   45.3370 C   0  0  0  0  0  0  0  0  0  0  0  0
  179.4450   20.5710   46.4830 C   0  0  0  0  0  0  0  0  0  0  0  0
  178.0960   20.2050   46.6170 C   0  0  0  0  0  0  0  0  0  0  0  0
  177.3090   20.7210   47.6490 C   0  0  0  0  0  0  0  0  0  0  0  0
  177.8480   21.6130   48.5790 C   0  0  0  0  0  0  0  0  0  0  0  0
  177.0310   22.1940   49.6660 C   0  0  0  0  0  0  0  0  0  0  0  0
  175.9500   22.9310   49.1970 O   0  0  0  0  0  0  0  0  0  0  0  0
  175.1100   23.5250   50.1010 C   0  0  0  0  0  0  0  0  0  0  0  0
  174.0300   24.2430   49.5860 C   0  0  0  0  0  0  0  0  0  0  0  0
  173.1350   24.8740   50.4530 C   0  0  0  0  0  0  0  0  0  0  0  0
  173.3200   24.7890   51.8340 C   0  0  0  0  0  0  0  0  0  0  0  0
  174.3990   24.0720   52.3460 C   0  0  0  0  0  0  0  0  0  0  0  0
  174.5220   24.0300   53.7080 O   0  0  0  0  0  0  0  0  0  0  0  0
  175.2940   23.4390   51.4780 C   0  0  0  0  0  0  0  0  0  0  0  0
  176.4390   22.6770   51.9740 C   0  0  0  0  0  0  0  0  0  0  0  0
  176.6740   22.5620   53.1760 O   0  0  0  0  0  0  0  0  0  0  0  0
  177.3230   22.0380   50.9710 C   0  0  0  0  0  0  0  0  0  0  0  0
  178.4090   21.3310   51.4520 O   0  0  0  0  0  0  0  0  0  0  0  0
  179.1920   21.9920   48.4360 C   0  0  0  0  0  0  0  0  0  0  0  0
  179.9980   21.4880   47.3980 C   0  0  0  0  0  0  0  0  0  0  0  0
  181.4350   21.9250   47.3170 C   0  0  0  0  0  0  0  0  0  0  0  0
  180.3753   18.1756   46.4983 H   0  0  0  0  0  0  0  0  0  0  0  0
  179.4875   18.0040   44.9462 H   0  0  0  0  0  0  0  0  0  0  0  0
  181.2787   18.1390   44.9462 H   0  0  0  0  0  0  0  0  0  0  0  0
  181.2498   20.4177   45.3464 H   0  0  0  0  0  0  0  0  0  0  0  0
  179.7123   20.2227   44.4013 H   0  0  0  0  0  0  0  0  0  0  0  0
  177.6521   19.5008   45.8979 H   0  0  0  0  0  0  0  0  0  0  0  0
  176.2536   20.4218   47.7303 H   0  0  0  0  0  0  0  0  0  0  0  0
  173.8836   24.3120   48.4980 H   0  0  0  0  0  0  0  0  0  0  0  0
  172.2829   25.4389   50.0469 H   0  0  0  0  0  0  0  0  0  0  0  0
  172.6154   25.2870   52.5163 H   0  0  0  0  0  0  0  0  0  0  0  0
  175.3620   23.8910   54.0980 H   0  0  0  0  0  0  0  0  0  0  0  0
  178.5740   21.2930   52.3720 H   0  0  0  0  0  0  0  0  0  0  0  0
  179.6271   22.7021   49.1546 H   0  0  0  0  0  0  0  0  0  0  0  0
  181.8387   22.0478   48.3328 H   0  0  0  0  0  0  0  0  0  0  0  0
  182.0199   21.1641   46.7795 H   0  0  0  0  0  0  0  0  0  0  0  0
  181.4973   22.8827   46.7795 H   0  0  0  0  0  0  0  0  0  0  0  0
  1  2  1  0
  2  3  1  0
  3  4  2  0
  4  5  1  0
  5  6  2  0
  6  7  1  0
  7  8  1  0
  8  9  1  0
  9 10  2  0
 10 11  1  0
 11 12  2  0
 12 13  1  0
 13 14  1  0
 13 15  2  0
 15 16  1  0
 16 17  2  0
 16 18  1  0
 18 19  1  0
  6 20  1  0
 20 21  2  0
 21 22  1  0
 21  3  1  0
 18  7  2  0
 15  9  1  0
  1 23  1  0
  1 24  1  0
  1 25  1  0
  2 26  1  0
  2 27  1  0
  4 28  1  0
  5 29  1  0
 10 30  1  0
 11 31  1  0
 12 32  1  0
 14 33  1  0
 19 34  1  0
 20 35  1  0
 22 36  1  0
 22 37  1  0
 22 38  1  0
M  END
>  <meeko>  (6) 
{"is_sidechain": [false], "free_energy": -7.236, "intermolecular_energy": -8.426, "internal_energy": -0.312}

$$$$
cand_042_out
     RDKit          3D

 38 40  0  0  0  0  0  0  0  0999 V2000
  175.8910   19.1040   47.2700 C   0  0  0  0  0  0  0  0  0  0  0  0
  176.5500   20.0600   46.2870 C   0  0  0  0  0  0  0  0  0  0  0  0
  177.8740   20.5780   46.8010 C   0  0  0  0  0  0  0  0  0  0  0  0
  179.0140   19.7730   46.6410 C   0  0  0  0  0  0  0  0  0  0  0  0
  180.2630   20.1920   47.1050 C   0  0  0  0  0  0  0  0  0  0  0  0
  180.4110   21.4300   47.7350 C   0  0  0  0  0  0  0  0  0  0  0  0
  181.7160   21.8890   48.2570 C   0  0  0  0  0  0  0  0  0  0  0  0
  182.5310   22.4330   47.2710 O   0  0  0  0  0  0  0  0  0  0  0  0
  183.7730   22.8980   47.6190 C   0  0  0  0  0  0  0  0  0  0  0  0
  184.5520   23.4490   46.6010 C   0  0  0  0  0  0  0  0  0  0  0  0
  185.8270   23.9410   46.8870 C   0  0  0  0  0  0  0  0  0  0  0  0
  186.3250   23.8800   48.1910 C   0  0  0  0  0  0  0  0  0  0  0  0
  185.5450   23.3300   49.2050 C   0  0  0  0  0  0  0  0  0  0  0  0
  186.0930   23.3010   50.4580 O   0  0  0  0  0  0  0  0  0  0  0  0
  184.2680   22.8390   48.9190 C   0  0  0  0  0  0  0  0  0  0  0  0
  183.4170   22.2530   49.9540 C   0  0  0  0  0  0  0  0  0  0  0  0
  183.7870   22.1580   51.1230 O   0  0  0  0  0  0  0  0  0  0  0  0
  182.0780   21.7690   49.5480 C   0  0  0  0  0  0  0  0  0  0  0  0
  181.2880   21.2060   50.5330 O   0  0  0  0  0  0  0  0  0  0  0  0
  179.2690   22.2290   47.9090 C   0  0  0  0  0  0  0  0  0  0  0  0
  178.0020   21.8190   47.4560 C   0  0  0  0  0  0  0  0  0  0  0  0
  176.8270   22.7350   47.6600 C   0  0  0  0  0  0  0  0  0  0  0  0
  176.1125   19.4253   48.2984 H   0  0  0  0  0  0  0  0  0  0  0  0
  174.8025   19.1075   47.1112 H   0  0  0  0  0  0  0  0  0  0  0  0
  176.2815   18.0880   47.1112 H   0  0  0  0  0  0  0  0  0  0  0  0
  176.7201   19.5314   45.3375 H   0  0  0  0  0  0  0  0  0  0  0  0
  175.8792   20.9208   46.1489 H   0  0  0  0  0  0  0  0  0  0  0  0
  178.9216   18.7969   46.1423 H   0  0  0  0  0  0  0  0  0  0  0  0
  181.1393   19.5403   46.9730 H   0  0  0  0  0  0  0  0  0  0  0  0
  184.1618   23.4958   45.5736 H   0  0  0  0  0  0  0  0  0  0  0  0
  186.4402   24.3772   46.0847 H   0  0  0  0  0  0  0  0  0  0  0  0
  187.3304   24.2654   48.4160 H   0  0  0  0  0  0  0  0  0  0  0  0
  185.6200   23.6560   51.1850 H   0  0  0  0  0  0  0  0  0  0  0  0
  180.9240   21.7440   51.2070 H   0  0  0  0  0  0  0  0  0  0  0  0
  179.3681   23.2016   48.4131 H   0  0  0  0  0  0  0  0  0  0  0  0
  176.6515   22.8718   48.7372 H   0  0  0  0  0  0  0  0  0  0  0  0
  177.0372   23.7099   47.1960 H   0  0  0  0  0  0  0  0  0  0  0  0
  175.9328   22.2933   47.1960 H   0  0  0  0  0  0  0  0  0  0  0  0
  1  2  1  0
  2  3  1  0
  3  4  2  0
  4  5  1  0
  5  6  2  0
  6  7  1  0
  7  8  1  0
  8  9  1  0
  9 10  2  0
 10 11  1  0
 11 12  2  0
 12 13  1  0
 13 14  1  0
 13 15  2  0
 15 16  1  0
 16 17  2  0
 16 18  1  0
 18 19  1  0
  6 20  1  0
 20 21  2  0
 21 22  1  0
 21  3  1  0
 18  7  2  0
 15  9  1  0
  1 23  1  0
  1 24  1  0
  1 25  1  0
  2 26  1  0
  2 27  1  0
  4 28  1  0
  5 29  1  0
 10 30  1  0
 11 31  1  0
 12 32  1  0
 14 33  1  0
 19 34  1  0
 20 35  1  0
 22 36  1  0
 22 37  1  0
 22 38  1  0
M  END
>  <meeko>  (7) 
{"is_sidechain": [false], "free_energy": -7.146, "intermolecular_energy": -8.165, "internal_energy": -0.467}

$$$$
cand_042_out
     RDKit          3D

 38 40  0  0  0  0  0  0  0  0999 V2000
  186.0310   22.9270   49.1220 C   0  0  0  0  0  0  0  0  0  0  0  0
  185.1180   23.2980   47.9630 C   0  0  0  0  0  0  0  0  0  0  0  0
  183.6700   22.9750   48.2560 C   0  0  0  0  0  0  0  0  0  0  0  0
  183.3670   21.7330   48.8350 C   0  0  0  0  0  0  0  0  0  0  0  0
  182.0480   21.3730   49.1200 C   0  0  0  0  0  0  0  0  0  0  0  0
  180.9940   22.2460   48.8390 C   0  0  0  0  0  0  0  0  0  0  0  0
  179.5860   21.8820   49.1070 C   0  0  0  0  0  0  0  0  0  0  0  0
  178.8750   21.5840   47.9510 O   0  0  0  0  0  0  0  0  0  0  0  0
  177.5560   21.2290   48.0560 C   0  0  0  0  0  0  0  0  0  0  0  0
  176.8840   20.9240   46.8710 C   0  0  0  0  0  0  0  0  0  0  0  0
  175.5370   20.5570   46.9080 C   0  0  0  0  0  0  0  0  0  0  0  0
  174.8610   20.4950   48.1290 C   0  0  0  0  0  0  0  0  0  0  0  0
  175.5340   20.7990   49.3100 C   0  0  0  0  0  0  0  0  0  0  0  0
  174.8120   20.7200   50.4690 O   0  0  0  0  0  0  0  0  0  0  0  0
  176.8820   21.1660   49.2730 C   0  0  0  0  0  0  0  0  0  0  0  0
  177.6250   21.4940   50.4890 C   0  0  0  0  0  0  0  0  0  0  0  0
  177.0980   21.4700   51.6000 O   0  0  0  0  0  0  0  0  0  0  0  0
  179.0520   21.8640   50.3420 C   0  0  0  0  0  0  0  0  0  0  0  0
  179.7400   22.1840   51.4980 O   0  0  0  0  0  0  0  0  0  0  0  0
  181.2950   23.4830   48.2450 C   0  0  0  0  0  0  0  0  0  0  0  0
  182.6180   23.8580   47.9440 C   0  0  0  0  0  0  0  0  0  0  0  0
  182.8660   25.2060   47.3250 C   0  0  0  0  0  0  0  0  0  0  0  0
  185.5191   23.1350   50.0731 H   0  0  0  0  0  0  0  0  0  0  0  0
  186.2789   21.8568   49.0654 H   0  0  0  0  0  0  0  0  0  0  0  0
  186.9551   23.5209   49.0654 H   0  0  0  0  0  0  0  0  0  0  0  0
  185.2091   24.3772   47.7706 H   0  0  0  0  0  0  0  0  0  0  0  0
  185.4264   22.7098   47.0861 H   0  0  0  0  0  0  0  0  0  0  0  0
  184.1817   21.0316   49.0682 H   0  0  0  0  0  0  0  0  0  0  0  0
  181.8368   20.3919   49.5704 H   0  0  0  0  0  0  0  0  0  0  0  0
  177.4150   20.9727   45.9089 H   0  0  0  0  0  0  0  0  0  0  0  0
  175.0075   20.3164   45.9743 H   0  0  0  0  0  0  0  0  0  0  0  0
  173.7998   20.2068   48.1577 H   0  0  0  0  0  0  0  0  0  0  0  0
  174.9190   19.9830   51.0380 H   0  0  0  0  0  0  0  0  0  0  0  0
  179.7860   23.0730   51.7850 H   0  0  0  0  0  0  0  0  0  0  0  0
  180.4750   24.1771   48.0088 H   0  0  0  0  0  0  0  0  0  0  0  0
  183.0037   25.9545   48.1193 H   0  0  0  0  0  0  0  0  0  0  0  0
  183.7712   25.1622   46.7015 H   0  0  0  0  0  0  0  0  0  0  0  0
  182.0045   25.4873   46.7015 H   0  0  0  0  0  0  0  0  0  0  0  0
  1  2  1  0
  2  3  1  0
  3  4  2  0
  4  5  1  0
  5  6  2  0
  6  7  1  0
  7  8  1  0
  8  9  1  0
  9 10  2  0
 10 11  1  0
 11 12  2  0
 12 13  1  0
 13 14  1  0
 13 15  2  0
 15 16  1  0
 16 17  2  0
 16 18  1  0
 18 19  1  0
  6 20  1  0
 20 21  2  0
 21 22  1  0
 21  3  1  0
 18  7  2  0
 15  9  1  0
  1 23  1  0
  1 24  1  0
  1 25  1  0
  2 26  1  0
  2 27  1  0
  4 28  1  0
  5 29  1  0
 10 30  1  0
 11 31  1  0
 12 32  1  0
 14 33  1  0
 19 34  1  0
 20 35  1  0
 22 36  1  0
 22 37  1  0
 22 38  1  0
M  END
>  <meeko>  (8) 
{"is_sidechain": [false], "free_energy": -7.107, "intermolecular_energy": -8.151, "internal_energy": -0.435}

$$$$
cand_042_out
     RDKit          3D

 38 40  0  0  0  0  0  0  0  0999 V2000
  179.4030   20.3820   45.8140 C   0  0  0  0  0  0  0  0  0  0  0  0
  178.1240   19.6500   46.1900 C   0  0  0  0  0  0  0  0  0  0  0  0
  177.2580   20.4660   47.1240 C   0  0  0  0  0  0  0  0  0  0  0  0
  177.6910   21.7520   47.4830 C   0  0  0  0  0  0  0  0  0  0  0  0
  176.9410   22.5500   48.3500 C   0  0  0  0  0  0  0  0  0  0  0  0
  175.7330   22.0870   48.8790 C   0  0  0  0  0  0  0  0  0  0  0  0
  174.9300   22.8990   49.8180 C   0  0  0  0  0  0  0  0  0  0  0  0
  173.9340   23.6320   49.1830 O   0  0  0  0  0  0  0  0  0  0  0  0
  173.1150   24.4300   49.9380 C   0  0  0  0  0  0  0  0  0  0  0  0
  172.1190   25.1360   49.2620 C   0  0  0  0  0  0  0  0  0  0  0  0
  171.2510   25.9690   49.9710 C   0  0  0  0  0  0  0  0  0  0  0  0
  171.3780   26.0960   51.3560 C   0  0  0  0  0  0  0  0  0  0  0  0
  172.3720   25.3900   52.0290 C   0  0  0  0  0  0  0  0  0  0  0  0
  172.4410   25.5610   53.3840 O   0  0  0  0  0  0  0  0  0  0  0  0
  173.2400   24.5560   51.3190 C   0  0  0  0  0  0  0  0  0  0  0  0
  174.2980   23.7970   51.9860 C   0  0  0  0  0  0  0  0  0  0  0  0
  174.4780   23.8620   53.2010 O   0  0  0  0  0  0  0  0  0  0  0  0
  175.1590   22.9360   51.1440 C   0  0  0  0  0  0  0  0  0  0  0  0
  176.1640   22.2340   51.7840 O   0  0  0  0  0  0  0  0  0  0  0  0
  175.3070   20.7940   48.5330 C   0  0  0  0  0  0  0  0  0  0  0  0
  176.0550   19.9750   47.6670 C   0  0  0  0  0  0  0  0  0  0  0  0
  175.5270   18.6080   47.3260 C   0  0  0  0  0  0  0  0  0  0  0  0
  179.9339   20.6858   46.7282 H   0  0  0  0  0  0  0  0  0  0  0  0
  180.0462   19.7153   45.2209 H   0  0  0  0  0  0  0  0  0  0  0  0
  179.1540   21.2743   45.2209 H   0  0  0  0  0  0  0  0  0  0  0  0
  177.5545   19.4363   45.2735 H   0  0  0  0  0  0  0  0  0  0  0  0
  178.4039   18.7219   46.7099 H   0  0  0  0  0  0  0  0  0  0  0  0
  178.6368   22.1378   47.0747 H   0  0  0  0  0  0  0  0  0  0  0  0
  177.3046   23.5527   48.6191 H   0  0  0  0  0  0  0  0  0  0  0  0
  172.0177   25.0364   48.1712 H   0  0  0  0  0  0  0  0  0  0  0  0
  170.4663   26.5258   49.4380 H   0  0  0  0  0  0  0  0  0  0  0  0
  170.6942   26.7524   51.9142 H   0  0  0  0  0  0  0  0  0  0  0  0
  171.7090   25.9150   53.8500 H   0  0  0  0  0  0  0  0  0  0  0  0
  177.0360   22.2490   51.4450 H   0  0  0  0  0  0  0  0  0  0  0  0
  174.3637   20.4115   48.9500 H   0  0  0  0  0  0  0  0  0  0  0  0
  175.3136   18.0556   48.2530 H   0  0  0  0  0  0  0  0  0  0  0  0
  174.6028   18.7081   46.7378 H   0  0  0  0  0  0  0  0  0  0  0  0
  176.2785   18.0609   46.7378 H   0  0  0  0  0  0  0  0  0  0  0  0
  1  2  1  0
  2  3  1  0
  3  4  2  0
  4  5  1  0
  5  6  2  0
  6  7  1  0
  7  8  1  0
  8  9  1  0
  9 10  2  0
 10 11  1  0
 11 12  2  0
 12 13  1  0
 13 14  1  0
 13 15  2  0
 15 16  1  0
 16 17  2  0
 16 18  1  0
 18 19  1  0
  6 20  1  0
 20 21  2  0
 21 22  1  0
 21  3  1  0
 18  7  2  0
 15  9  1  0
  1 23  1  0
  1 24  1  0
  1 25  1  0
  2 26  1  0
  2 27  1  0
  4 28  1  0
  5 29  1  0
 10 30  1  0
 11 31  1  0
 12 32  1  0
 14 33  1  0
 19 34  1  0
 20 35  1  0
 22 36  1  0
 22 37  1  0
 22 38  1  0
M  END
>  <meeko>  (9) 
{"is_sidechain": [false], "free_energy": -6.947, "intermolecular_energy": -7.944, "internal_energy": -0.454}

$$$$
