cand_038_out
     RDKit          3D

 47 49  0  0  0  0  0  0  0  0999 V2000
  180.7350   14.0560   45.5480 C   0  0  0  0  0  0  0  0  0  0  0  0
  179.6230   15.0500   45.2310 C   0  0  0  0  0  0  0  0  0  0  0  0
  180.1600   16.3860   44.7600 C   0  0  0  0  0  0  0  0  0  0  0  0
  179.8810   17.4680   45.6390 C   0  0  0  0  0  0  0  0  0  0  0  0
  180.3050   18.7760   45.3930 C   0  0  0  0  0  0  0  0  0  0  0  0
  179.9870   19.8930   46.3060 C   0  0  0  0  0  0  0  0  0  0  0  0
  178.6350   20.2210   46.3090 O   0  0  0  0  0  0  0  0  0  0  0  0
  178.2030   21.2420   47.1140 C   0  0  0  0  0  0  0  0  0  0  0  0
  176.8370   21.5280   47.0970 C   0  0  0  0  0  0  0  0  0  0  0  0
  176.3300   22.5570   47.8920 C   0  0  0  0  0  0  0  0  0  0  0  0
  177.1880   23.3020   48.7050 C   0  0  0  0  0  0  0  0  0  0  0  0
  178.5500   23.0150   48.7200 C   0  0  0  0  0  0  0  0  0  0  0  0
  179.3340   23.7830   49.5380 O   0  0  0  0  0  0  0  0  0  0  0  0
  179.0570   21.9840   47.9240 C   0  0  0  0  0  0  0  0  0  0  0  0
  180.4820   21.6500   47.9110 C   0  0  0  0  0  0  0  0  0  0  0  0
  181.3010   22.2640   48.5930 O   0  0  0  0  0  0  0  0  0  0  0  0
  180.9160   20.5350   47.0390 C   0  0  0  0  0  0  0  0  0  0  0  0
  182.2670   20.2370   47.0240 O   0  0  0  0  0  0  0  0  0  0  0  0
  181.0100   19.0100   44.2180 C   0  0  0  0  0  0  0  0  0  0  0  0
  181.2950   17.9610   43.3340 C   0  0  0  0  0  0  0  0  0  0  0  0
  180.8940   16.6220   43.5670 C   0  0  0  0  0  0  0  0  0  0  0  0
  181.2530   15.5420   42.5080 C   0  0  0  0  0  0  0  0  0  0  0  0
  180.2900   14.3180   42.5140 C   0  0  0  0  0  0  0  0  0  0  0  0
  181.1740   16.0890   41.0650 C   0  0  0  0  0  0  0  0  0  0  0  0
  182.6540   14.9650   42.8010 C   0  0  0  0  0  0  0  0  0  0  0  0
  180.8416   13.9607   46.6387 H   0  0  0  0  0  0  0  0  0  0  0  0
  180.4842   13.0755   45.1170 H   0  0  0  0  0  0  0  0  0  0  0  0
  181.6813   14.4147   45.1170 H   0  0  0  0  0  0  0  0  0  0  0  0
  178.9856   14.6269   44.4406 H   0  0  0  0  0  0  0  0  0  0  0  0
  179.0548   15.2242   46.1566 H   0  0  0  0  0  0  0  0  0  0  0  0
  179.3052   17.2660   46.5542 H   0  0  0  0  0  0  0  0  0  0  0  0
  176.1602   20.9426   46.4572 H   0  0  0  0  0  0  0  0  0  0  0  0
  175.2533   22.7818   47.8785 H   0  0  0  0  0  0  0  0  0  0  0  0
  176.7883   24.1131   49.3315 H   0  0  0  0  0  0  0  0  0  0  0  0
  180.2620   23.7970   49.4180 H   0  0  0  0  0  0  0  0  0  0  0  0
  182.5600   19.4080   46.6980 H   0  0  0  0  0  0  0  0  0  0  0  0
  181.3476   20.0294   43.9797 H   0  0  0  0  0  0  0  0  0  0  0  0
  181.8566   18.1876   42.4157 H   0  0  0  0  0  0  0  0  0  0  0  0
  180.0657   14.0330   43.5525 H   0  0  0  0  0  0  0  0  0  0  0  0
  179.3562   14.5836   41.9969 H   0  0  0  0  0  0  0  0  0  0  0  0
  180.7679   13.4729   41.9969 H   0  0  0  0  0  0  0  0  0  0  0  0
  181.0168   17.1773   41.0935 H   0  0  0  0  0  0  0  0  0  0  0  0
  182.1134   15.8679   40.5371 H   0  0  0  0  0  0  0  0  0  0  0  0
  180.3356   15.6111   40.5371 H   0  0  0  0  0  0  0  0  0  0  0  0
  182.8048   14.9029   43.8888 H   0  0  0  0  0  0  0  0  0  0  0  0
  182.7359   13.9599   42.3615 H   0  0  0  0  0  0  0  0  0  0  0  0
  183.4199   15.6209   42.3615 H   0  0  0  0  0  0  0  0  0  0  0  0
  1  2  1  0
  2  3  1  0
  3  4  2  0
  4  5  1  0
  5  6  1  0
  6  7  1  0
  7  8  1  0
  8  9  2  0
  9 10  1  0
 10 11  2  0
 11 12  1  0
 12 13  1  0
 12 14  2  0
 14 15  1  0
 15 16  2  0
 15 17  1  0
 17 18  1  0
  5 19  2  0
 19 20  1  0
 20 21  2  0
 21 22  1  0
 22 23  1  0
 22 24  1  0
 22 25  1  0
 21  3  1  0
 17  6  2  0
 14  8  1  0
  1 26  1  0
  1 27  1  0
  1 28  1  0
  2 29  1  0
  2 30  1  0
  4 31  1  0
  9 32  1  0
 10 33  1  0
 11 34  1  0
 13 35  1  0
 18 36  1  0
 19 37  1  0
 20 38  1  0
 23 39  1  0
 23 40  1  0
 23 41  1  0
 24 42  1  0
 24 43  1  0
 24 44  1  0
 25 45  1  0
 25 46  1  0
 25 47  1  0
M  END
>  <meeko>  (1) 
{"is_sidechain": [false], "free_energy": -7.635, "intermolecular_energy": -9.421, "internal_energy": 0.467}

$$$$
cand_038_out
     RDKit          3D

 47 49  0  0  0  0  0  0  0  0999 V2000
  175.0380   18.2570   46.8080 C   0  0  0  0  0  0  0  0  0  0  0  0
  175.2690   19.6810   47.3040 C   0  0  0  0  0  0  0  0  0  0  0  0
  176.7350   20.0640   47.2950 C   0  0  0  0  0  0  0  0  0  0  0  0
  177.5580   19.1980   46.5230 C   0  0  0  0  0  0  0  0  0  0  0  0
  178.9330   19.3900   46.3760 C   0  0  0  0  0  0  0  0  0  0  0  0
  179.7780   18.4680   45.5880 C   0  0  0  0  0  0  0  0  0  0  0  0
  179.2810   17.1690   45.5610 O   0  0  0  0  0  0  0  0  0  0  0  0
  179.9680   16.2110   44.8630 C   0  0  0  0  0  0  0  0  0  0  0  0
  179.4260   14.9250   44.8500 C   0  0  0  0  0  0  0  0  0  0  0  0
  180.0770   13.9000   44.1600 C   0  0  0  0  0  0  0  0  0  0  0  0
  181.2700   14.1610   43.4830 C   0  0  0  0  0  0  0  0  0  0  0  0
  181.8100   15.4450   43.4970 C   0  0  0  0  0  0  0  0  0  0  0  0
  182.9810   15.6300   42.8150 O   0  0  0  0  0  0  0  0  0  0  0  0
  181.1570   16.4690   44.1880 C   0  0  0  0  0  0  0  0  0  0  0  0
  181.6900   17.8320   44.2290 C   0  0  0  0  0  0  0  0  0  0  0  0
  182.7380   18.1380   43.6640 O   0  0  0  0  0  0  0  0  0  0  0  0
  180.9180   18.8470   44.9810 C   0  0  0  0  0  0  0  0  0  0  0  0
  181.4380   20.1290   45.0240 O   0  0  0  0  0  0  0  0  0  0  0  0
  179.5050   20.4690   47.0400 C   0  0  0  0  0  0  0  0  0  0  0  0
  178.7160   21.3340   47.8100 C   0  0  0  0  0  0  0  0  0  0  0  0
  177.3170   21.1750   47.9620 C   0  0  0  0  0  0  0  0  0  0  0  0
  176.5440   22.1880   48.8530 C   0  0  0  0  0  0  0  0  0  0  0  0
  175.2110   22.6860   48.2200 C   0  0  0  0  0  0  0  0  0  0  0  0
  176.1240   21.5740   50.2070 C   0  0  0  0  0  0  0  0  0  0  0  0
  177.3980   23.4570   49.0660 C   0  0  0  0  0  0  0  0  0  0  0  0
  174.9285   17.5819   47.6695 H   0  0  0  0  0  0  0  0  0  0  0  0
  174.1229   18.2250   46.1984 H   0  0  0  0  0  0  0  0  0  0  0  0
  175.8960   17.9373   46.1984 H   0  0  0  0  0  0  0  0  0  0  0  0
  174.7182   20.3758   46.6529 H   0  0  0  0  0  0  0  0  0  0  0  0
  174.9138   19.7363   48.3436 H   0  0  0  0  0  0  0  0  0  0  0  0
  177.0904   18.3390   46.0195 H   0  0  0  0  0  0  0  0  0  0  0  0
  178.4862   14.7187   45.3831 H   0  0  0  0  0  0  0  0  0  0  0  0
  179.6496   12.8865   44.1499 H   0  0  0  0  0  0  0  0  0  0  0  0
  181.7827   13.3538   42.9394 H   0  0  0  0  0  0  0  0  0  0  0  0
  182.9620   15.8790   41.9120 H   0  0  0  0  0  0  0  0  0  0  0  0
  182.3440   20.2730   44.8310 H   0  0  0  0  0  0  0  0  0  0  0  0
  180.5878   20.6456   46.9602 H   0  0  0  0  0  0  0  0  0  0  0  0
  179.2063   22.1761   48.3204 H   0  0  0  0  0  0  0  0  0  0  0  0
  174.5023   22.9508   49.0185 H   0  0  0  0  0  0  0  0  0  0  0  0
  175.4089   23.5708   47.5972 H   0  0  0  0  0  0  0  0  0  0  0  0
  174.7803   21.8881   47.5972 H   0  0  0  0  0  0  0  0  0  0  0  0
  176.5375   22.1785   51.0277 H   0  0  0  0  0  0  0  0  0  0  0  0
  175.0264   21.5603   50.2787 H   0  0  0  0  0  0  0  0  0  0  0  0
  176.5090   20.5461   50.2787 H   0  0  0  0  0  0  0  0  0  0  0  0
  177.5209   23.6396   50.1438 H   0  0  0  0  0  0  0  0  0  0  0  0
  178.3858   23.3162   48.6030 H   0  0  0  0  0  0  0  0  0  0  0  0
  176.8956   24.3191   48.6030 H   0  0  0  0  0  0  0  0  0  0  0  0
  1  2  1  0
  2  3  1  0
  3  4  2  0
  4  5  1  0
  5  6  1  0
  6  7  1  0
  7  8  1  0
  8  9  2  0
  9 10  1  0
 10 11  2  0
 11 12  1  0
 12 13  1  0
 12 14  2  0
 14 15  1  0
 15 16  2  0
 15 17  1  0
 17 18  1  0
  5 19  2  0
 19 20  1  0
 20 21  2  0
 21 22  1  0
 22 23  1  0
 22 24  1  0
 22 25  1  0
 21  3  1  0
 17  6  2  0
 14  8  1  0
  1 26  1  0
  1 27  1  0
  1 28  1  0
  2 29  1  0
  2 30  1  0
  4 31  1  0
  9 32  1  0
 10 33  1  0
 11 34  1  0
 13 35  1  0
 18 36  1  0
 19 37  1  0
 20 38  1  0
 23 39  1  0
 23 40  1  0
 23 41  1  0
 24 42  1  0
 24 43  1  0
 24 44  1  0
 25 45  1  0
 25 46  1  0
 25 47  1  0
M  END
>  <meeko>  (2) 
{"is_sidechain": [false], "free_energy": -6.94, "intermolecular_energy": -8.133, "internal_energy": 0.037}

$$$$
cand_038_out
     RDKit          3D

 47 49  0  0  0  0  0  0  0  0999 V2000
  178.8160   23.6840   47.3470 C   0  0  0  0  0  0  0  0  0  0  0  0
  178.8000   22.5440   48.3600 C   0  0  0  0  0  0  0  0  0  0  0  0
  178.1500   21.2910   47.8080 C   0  0  0  0  0  0  0  0  0  0  0  0
  179.0250   20.4690   47.0470 C   0  0  0  0  0  0  0  0  0  0  0  0
  178.6220   19.2640   46.4670 C   0  0  0  0  0  0  0  0  0  0  0  0
  179.5380   18.4320   45.6600 C   0  0  0  0  0  0  0  0  0  0  0  0
  179.1380   17.1020   45.5870 O   0  0  0  0  0  0  0  0  0  0  0  0
  179.8990   16.2190   44.8670 C   0  0  0  0  0  0  0  0  0  0  0  0
  179.4520   14.8970   44.8090 C   0  0  0  0  0  0  0  0  0  0  0  0
  180.1820   13.9460   44.0940 C   0  0  0  0  0  0  0  0  0  0  0  0
  181.3590   14.3140   43.4370 C   0  0  0  0  0  0  0  0  0  0  0  0
  181.8030   15.6330   43.4980 C   0  0  0  0  0  0  0  0  0  0  0  0
  182.9630   15.9240   42.8340 O   0  0  0  0  0  0  0  0  0  0  0  0
  181.0720   16.5840   44.2130 C   0  0  0  0  0  0  0  0  0  0  0  0
  181.5030   17.9810   44.3020 C   0  0  0  0  0  0  0  0  0  0  0  0
  182.5310   18.3800   43.7580 O   0  0  0  0  0  0  0  0  0  0  0  0
  180.6530   18.9130   45.0770 C   0  0  0  0  0  0  0  0  0  0  0  0
  181.0770   20.2260   45.1650 O   0  0  0  0  0  0  0  0  0  0  0  0
  177.2960   18.8830   46.6380 C   0  0  0  0  0  0  0  0  0  0  0  0
  176.4130   19.6780   47.3810 C   0  0  0  0  0  0  0  0  0  0  0  0
  176.7990   20.8940   47.9950 C   0  0  0  0  0  0  0  0  0  0  0  0
  175.7300   21.7020   48.7840 C   0  0  0  0  0  0  0  0  0  0  0  0
  176.0380   23.2260   48.8720 C   0  0  0  0  0  0  0  0  0  0  0  0
  174.3350   21.6260   48.1240 C   0  0  0  0  0  0  0  0  0  0  0  0
  175.6740   21.2090   50.2460 C   0  0  0  0  0  0  0  0  0  0  0  0
  178.8295   24.6468   47.8787 H   0  0  0  0  0  0  0  0  0  0  0  0
  179.7131   23.6011   46.7158 H   0  0  0  0  0  0  0  0  0  0  0  0
  177.9170   23.6263   46.7158 H   0  0  0  0  0  0  0  0  0  0  0  0
  179.8364   22.3088   48.6439 H   0  0  0  0  0  0  0  0  0  0  0  0
  178.2100   22.8740   49.2277 H   0  0  0  0  0  0  0  0  0  0  0  0
  180.0660   20.7965   46.9087 H   0  0  0  0  0  0  0  0  0  0  0  0
  178.5259   14.6056   45.3261 H   0  0  0  0  0  0  0  0  0  0  0  0
  179.8300   12.9049   44.0477 H   0  0  0  0  0  0  0  0  0  0  0  0
  181.9334   13.5642   42.8732 H   0  0  0  0  0  0  0  0  0  0  0  0
  183.1580   15.4980   42.0230 H   0  0  0  0  0  0  0  0  0  0  0  0
  180.8580   20.7390   45.9180 H   0  0  0  0  0  0  0  0  0  0  0  0
  176.9360   17.9474   46.1852 H   0  0  0  0  0  0  0  0  0  0  0  0
  175.3716   19.3417   47.4924 H   0  0  0  0  0  0  0  0  0  0  0  0
  176.0989   23.5274   49.9282 H   0  0  0  0  0  0  0  0  0  0  0  0
  176.9967   23.4356   48.3750 H   0  0  0  0  0  0  0  0  0  0  0  0
  175.2360   23.7915   48.3750 H   0  0  0  0  0  0  0  0  0  0  0  0
  173.5616   21.5839   48.9051 H   0  0  0  0  0  0  0  0  0  0  0  0
  174.1763   22.5168   47.4985 H   0  0  0  0  0  0  0  0  0  0  0  0
  174.2740   20.7232   47.4985 H   0  0  0  0  0  0  0  0  0  0  0  0
  175.7715   22.0677   50.9265 H   0  0  0  0  0  0  0  0  0  0  0  0
  174.7129   20.7054   50.4266 H   0  0  0  0  0  0  0  0  0  0  0  0
  176.4977   20.5026   50.4266 H   0  0  0  0  0  0  0  0  0  0  0  0
  1  2  1  0
  2  3  1  0
  3  4  2  0
  4  5  1  0
  5  6  1  0
  6  7  1  0
  7  8  1  0
  8  9  2  0
  9 10  1  0
 10 11  2  0
 11 12  1  0
 12 13  1  0
 12 14  2  0
 14 15  1  0
 15 16  2  0
 15 17  1  0
 17 18  1  0
  5 19  2  0
 19 20  1  0
 20 21  2  0
 21 22  1  0
 22 23  1  0
 22 24  1  0
 22 25  1  0
 21  3  1  0
 17  6  2  0
 14  8  1  0
  1 26  1  0
  1 27  1  0
  1 28  1  0
  2 29  1  0
  2 30  1  0
  4 31  1  0
  9 32  1  0
 10 33  1  0
 11 34  1  0
 13 35  1  0
 18 36  1  0
 19 37  1  0
 20 38  1  0
 23 39  1  0
 23 40  1  0
 23 41  1  0
 24 42  1  0
 24 43  1  0
 24 44  1  0
 25 45  1  0
 25 46  1  0
 25 47  1  0
M  END
>  <meeko>  (3) 
{"is_sidechain": [false], "free_energy": -6.671, "intermolecular_energy": -8.379, "internal_energy": 0.615}

$$$$
cand_038_out
     RDKit          3D

 47 49  0  0  0  0  0  0  0  0999 V2000
  181.0620   17.4980   41.0250 C   0  0  0  0  0  0  0  0  0  0  0  0
  181.8660   17.7010   42.3050 C   0  0  0  0  0  0  0  0  0  0  0  0
  181.0540   17.4050   43.5490 C   0  0  0  0  0  0  0  0  0  0  0  0
  180.7970   18.5450   44.3600 C   0  0  0  0  0  0  0  0  0  0  0  0
  180.0530   18.4850   45.5400 C   0  0  0  0  0  0  0  0  0  0  0  0
  179.8130   19.6750   46.3830 C   0  0  0  0  0  0  0  0  0  0  0  0
  178.4780   20.0650   46.3980 O   0  0  0  0  0  0  0  0  0  0  0  0
  178.1160   21.1570   47.1430 C   0  0  0  0  0  0  0  0  0  0  0  0
  176.7640   21.5050   47.1410 C   0  0  0  0  0  0  0  0  0  0  0  0
  176.3270   22.6090   47.8770 C   0  0  0  0  0  0  0  0  0  0  0  0
  177.2410   23.3650   48.6140 C   0  0  0  0  0  0  0  0  0  0  0  0
  178.5900   23.0170   48.6130 C   0  0  0  0  0  0  0  0  0  0  0  0
  179.4300   23.8010   49.3550 O   0  0  0  0  0  0  0  0  0  0  0  0
  179.0250   21.9120   47.8770 C   0  0  0  0  0  0  0  0  0  0  0  0
  180.4330   21.5110   47.8490 C   0  0  0  0  0  0  0  0  0  0  0  0
  181.2980   22.1310   48.4650 O   0  0  0  0  0  0  0  0  0  0  0  0
  180.7910   20.3210   47.0450 C   0  0  0  0  0  0  0  0  0  0  0  0
  182.1260   19.9590   47.0150 O   0  0  0  0  0  0  0  0  0  0  0  0
  179.5710   17.2410   45.9310 C   0  0  0  0  0  0  0  0  0  0  0  0
  179.8140   16.1020   45.1510 C   0  0  0  0  0  0  0  0  0  0  0  0
  180.5490   16.1360   43.9410 C   0  0  0  0  0  0  0  0  0  0  0  0
  180.7700   14.8080   43.1660 C   0  0  0  0  0  0  0  0  0  0  0  0
  179.9790   14.7270   41.8270 C   0  0  0  0  0  0  0  0  0  0  0  0
  182.2470   14.6090   42.7550 C   0  0  0  0  0  0  0  0  0  0  0  0
  180.2700   13.6170   44.0120 C   0  0  0  0  0  0  0  0  0  0  0  0
  180.0248   17.2361   41.2812 H   0  0  0  0  0  0  0  0  0  0  0  0
  181.0708   18.4266   40.4353 H   0  0  0  0  0  0  0  0  0  0  0  0
  181.5105   16.6849   40.4353 H   0  0  0  0  0  0  0  0  0  0  0  0
  182.7382   17.0310   42.2845 H   0  0  0  0  0  0  0  0  0  0  0  0
  182.1705   18.7572   42.3463 H   0  0  0  0  0  0  0  0  0  0  0  0
  181.2025   19.5173   44.0434 H   0  0  0  0  0  0  0  0  0  0  0  0
  176.0434   20.9104   46.5603 H   0  0  0  0  0  0  0  0  0  0  0  0
  175.2617   22.8831   47.8760 H   0  0  0  0  0  0  0  0  0  0  0  0
  176.8965   24.2337   49.1943 H   0  0  0  0  0  0  0  0  0  0  0  0
  179.3210   24.7310   49.3590 H   0  0  0  0  0  0  0  0  0  0  0  0
  182.7080   20.2620   47.6850 H   0  0  0  0  0  0  0  0  0  0  0  0
  178.9928   17.1496   46.8623 H   0  0  0  0  0  0  0  0  0  0  0  0
  179.4150   15.1363   45.4949 H   0  0  0  0  0  0  0  0  0  0  0  0
  178.9057   14.6171   42.0413 H   0  0  0  0  0  0  0  0  0  0  0  0
  180.1448   15.6468   41.2470 H   0  0  0  0  0  0  0  0  0  0  0  0
  180.3278   13.8599   41.2470 H   0  0  0  0  0  0  0  0  0  0  0  0
  182.8705   14.5250   43.6573 H   0  0  0  0  0  0  0  0  0  0  0  0
  182.3408   13.6901   42.1576 H   0  0  0  0  0  0  0  0  0  0  0  0
  182.5806   15.4703   42.1576 H   0  0  0  0  0  0  0  0  0  0  0  0
  180.3712   13.8581   45.0805 H   0  0  0  0  0  0  0  0  0  0  0  0
  179.2132   13.4199   43.7791 H   0  0  0  0  0  0  0  0  0  0  0  0
  180.8694   12.7246   43.7791 H   0  0  0  0  0  0  0  0  0  0  0  0
  1  2  1  0
  2  3  1  0
  3  4  2  0
  4  5  1  0
  5  6  1  0
  6  7  1  0
  7  8  1  0
  8  9  2  0
  9 10  1  0
 10 11  2  0
 11 12  1  0
 12 13  1  0
 12 14  2  0
 14 15  1  0
 15 16  2  0
 15 17  1  0
 17 18  1  0
  5 19  2  0
 19 20  1  0
 20 21  2  0
 21 22  1  0
 22 23  1  0
 22 24  1  0
 22 25  1  0
 21  3  1  0
 17  6  2  0
 14  8  1  0
  1 26  1  0
  1 27  1  0
  1 28  1  0
  2 29  1  0
  2 30  1  0
  4 31  1  0
  9 32  1  0
 10 33  1  0
 11 34  1  0
 13 35  1  0
 18 36  1  0
 19 37  1  0
 20 38  1  0
 23 39  1  0
 23 40  1  0
 23 41  1  0
 24 42  1  0
 24 43  1  0
 24 44  1  0
 25 45  1  0
 25 46  1  0
 25 47  1  0
M  END
>  <meeko>  (4) 
{"is_sidechain": [false], "free_energy": -5.763, "intermolecular_energy": -6.766, "internal_energy": 0.122}

$$$$
cand_038_out
     RDKit          3D

 47 49  0  0  0  0  0  0  0  0999 V2000
  186.8030   21.3220   43.3940 C   0  0  0  0  0  0  0  0  0  0  0  0
  185.7410   22.4090   43.2720 C   0  0  0  0  0  0  0  0  0  0  0  0
  185.0090   22.6500   44.5770 C   0  0  0  0  0  0  0  0  0  0  0  0
  183.8050   21.9060   44.7130 C   0  0  0  0  0  0  0  0  0  0  0  0
  182.9940   21.9750   45.8490 C   0  0  0  0  0  0  0  0  0  0  0  0
  181.7340   21.2120   45.9660 C   0  0  0  0  0  0  0  0  0  0  0  0
  180.7240   21.9300   46.5960 O   0  0  0  0  0  0  0  0  0  0  0  0
  179.5000   21.3400   46.7700 C   0  0  0  0  0  0  0  0  0  0  0  0
  178.5110   22.1020   47.3940 C   0  0  0  0  0  0  0  0  0  0  0  0
  177.2410   21.5600   47.6040 C   0  0  0  0  0  0  0  0  0  0  0  0
  176.9600   20.2560   47.1910 C   0  0  0  0  0  0  0  0  0  0  0  0
  177.9480   19.4960   46.5690 C   0  0  0  0  0  0  0  0  0  0  0  0
  177.6060   18.2270   46.1920 O   0  0  0  0  0  0  0  0  0  0  0  0
  179.2180   20.0400   46.3590 C   0  0  0  0  0  0  0  0  0  0  0  0
  180.2850   19.2770   45.7100 C   0  0  0  0  0  0  0  0  0  0  0  0
  180.1180   18.1210   45.3250 O   0  0  0  0  0  0  0  0  0  0  0  0
  181.5930   19.9470   45.5260 C   0  0  0  0  0  0  0  0  0  0  0  0
  182.5980   19.2110   44.9240 O   0  0  0  0  0  0  0  0  0  0  0  0
  183.3910   22.8320   46.8680 C   0  0  0  0  0  0  0  0  0  0  0  0
  184.5720   23.5790   46.7550 C   0  0  0  0  0  0  0  0  0  0  0  0
  185.4230   23.5150   45.6250 C   0  0  0  0  0  0  0  0  0  0  0  0
  186.7000   24.4000   45.6020 C   0  0  0  0  0  0  0  0  0  0  0  0
  187.0330   24.9800   44.1960 C   0  0  0  0  0  0  0  0  0  0  0  0
  186.5670   25.6420   46.5130 C   0  0  0  0  0  0  0  0  0  0  0  0
  187.9300   23.5560   46.0010 C   0  0  0  0  0  0  0  0  0  0  0  0
  187.0004   21.1199   44.4571 H   0  0  0  0  0  0  0  0  0  0  0  0
  186.4450   20.4032   42.9065 H   0  0  0  0  0  0  0  0  0  0  0  0
  187.7298   21.6585   42.9065 H   0  0  0  0  0  0  0  0  0  0  0  0
  186.2278   23.3454   42.9618 H   0  0  0  0  0  0  0  0  0  0  0  0
  185.0018   22.0741   42.5295 H   0  0  0  0  0  0  0  0  0  0  0  0
  183.4983   21.2469   43.8875 H   0  0  0  0  0  0  0  0  0  0  0  0
  178.7317   23.1290   47.7203 H   0  0  0  0  0  0  0  0  0  0  0  0
  176.4614   22.1609   48.0952 H   0  0  0  0  0  0  0  0  0  0  0  0
  175.9597   19.8294   47.3566 H   0  0  0  0  0  0  0  0  0  0  0  0
  178.0730   17.8020   45.5000 H   0  0  0  0  0  0  0  0  0  0  0  0
  183.4810   19.2870   45.2290 H   0  0  0  0  0  0  0  0  0  0  0  0
  182.7723   22.9254   47.7727 H   0  0  0  0  0  0  0  0  0  0  0  0
  184.8508   24.2466   47.5836 H   0  0  0  0  0  0  0  0  0  0  0  0
  187.5777   25.9288   44.3104 H   0  0  0  0  0  0  0  0  0  0  0  0
  187.6572   24.2633   43.6421 H   0  0  0  0  0  0  0  0  0  0  0  0
  186.0994   25.1577   43.6421 H   0  0  0  0  0  0  0  0  0  0  0  0
  186.6005   25.3289   47.5670 H   0  0  0  0  0  0  0  0  0  0  0  0
  187.3960   26.3360   46.3101 H   0  0  0  0  0  0  0  0  0  0  0  0
  185.6099   26.1448   46.3101 H   0  0  0  0  0  0  0  0  0  0  0  0
  188.0011   23.5072   47.0976 H   0  0  0  0  0  0  0  0  0  0  0  0
  187.8244   22.5392   45.5948 H   0  0  0  0  0  0  0  0  0  0  0  0
  188.8407   24.0203   45.5948 H   0  0  0  0  0  0  0  0  0  0  0  0
  1  2  1  0
  2  3  1  0
  3  4  2  0
  4  5  1  0
  5  6  1  0
  6  7  1  0
  7  8  1  0
  8  9  2  0
  9 10  1  0
 10 11  2  0
 11 12  1  0
 12 13  1  0
 12 14  2  0
 14 15  1  0
 15 16  2  0
 15 17  1  0
 17 18  1  0
  5 19  2  0
 19 20  1  0
 20 21  2  0
 21 22  1  0
 22 23  1  0
 22 24  1  0
 22 25  1  0
 21  3  1  0
 17  6  2  0
 14  8  1  0
  1 26  1  0
  1 27  1  0
  1 28  1  0
  2 29  1  0
  2 30  1  0
  4 31  1  0
  9 32  1  0
 10 33  1  0
 11 34  1  0
 13 35  1  0
 18 36  1  0
 19 37  1  0
 20 38  1  0
 23 39  1  0
 23 40  1  0
 23 41  1  0
 24 42  1  0
 24 43  1  0
 24 44  1  0
 25 45  1  0
 25 46  1  0
 25 47  1  0
M  END
>  <meeko>  (5) 
{"is_sidechain": [false], "free_energy": -5.76, "intermolecular_energy": -6.551, "internal_energy": -0.089}

$$$$
cand_038_out
     RDKit          3D

 47 49  0  0  0  0  0  0  0  0999 V2000
  184.9220   25.6450   47.7120 C   0  0  0  0  0  0  0  0  0  0  0  0
  185.4540   24.2160   47.7170 C   0  0  0  0  0  0  0  0  0  0  0  0
  184.8580   23.3740   46.6070 C   0  0  0  0  0  0  0  0  0  0  0  0
  183.5610   22.8660   46.8950 C   0  0  0  0  0  0  0  0  0  0  0  0
  182.8360   22.0820   45.9950 C   0  0  0  0  0  0  0  0  0  0  0  0
  181.4980   21.5440   46.3180 C   0  0  0  0  0  0  0  0  0  0  0  0
  180.6810   22.4720   46.9550 O   0  0  0  0  0  0  0  0  0  0  0  0
  179.4110   22.1030   47.3110 C   0  0  0  0  0  0  0  0  0  0  0  0
  178.6200   23.0700   47.9350 C   0  0  0  0  0  0  0  0  0  0  0  0
  177.3170   22.7600   48.3260 C   0  0  0  0  0  0  0  0  0  0  0  0
  176.8020   21.4820   48.0930 C   0  0  0  0  0  0  0  0  0  0  0  0
  177.5920   20.5180   47.4720 C   0  0  0  0  0  0  0  0  0  0  0  0
  177.0260   19.2880   47.2760 O   0  0  0  0  0  0  0  0  0  0  0  0
  178.8970   20.8310   47.0810 C   0  0  0  0  0  0  0  0  0  0  0  0
  179.7600   19.8480   46.4240 C   0  0  0  0  0  0  0  0  0  0  0  0
  179.3820   18.7010   46.1930 O   0  0  0  0  0  0  0  0  0  0  0  0
  181.1240   20.2810   46.0420 C   0  0  0  0  0  0  0  0  0  0  0  0
  181.9360   19.3390   45.4350 O   0  0  0  0  0  0  0  0  0  0  0  0
  183.4380   21.7810   44.7790 C   0  0  0  0  0  0  0  0  0  0  0  0
  184.7160   22.2660   44.4740 C   0  0  0  0  0  0  0  0  0  0  0  0
  185.4670   23.0780   45.3590 C   0  0  0  0  0  0  0  0  0  0  0  0
  186.8820   23.5480   44.9200 C   0  0  0  0  0  0  0  0  0  0  0  0
  187.3510   22.9360   43.5670 C   0  0  0  0  0  0  0  0  0  0  0  0
  186.9490   25.0760   44.6990 C   0  0  0  0  0  0  0  0  0  0  0  0
  187.9300   23.0970   45.9610 C   0  0  0  0  0  0  0  0  0  0  0  0
  184.7929   25.9918   48.7479 H   0  0  0  0  0  0  0  0  0  0  0  0
  185.6364   26.3004   47.1923 H   0  0  0  0  0  0  0  0  0  0  0  0
  183.9530   25.6737   47.1923 H   0  0  0  0  0  0  0  0  0  0  0  0
  186.5463   24.2452   47.5906 H   0  0  0  0  0  0  0  0  0  0  0  0
  185.1714   23.7562   48.6755 H   0  0  0  0  0  0  0  0  0  0  0  0
  183.1090   23.1011   47.8699 H   0  0  0  0  0  0  0  0  0  0  0  0
  179.0243   24.0764   48.1183 H   0  0  0  0  0  0  0  0  0  0  0  0
  176.6947   23.5221   48.8180 H   0  0  0  0  0  0  0  0  0  0  0  0
  175.7742   21.2379   48.3997 H   0  0  0  0  0  0  0  0  0  0  0  0
  177.2510   18.7850   46.5190 H   0  0  0  0  0  0  0  0  0  0  0  0
  182.5710   18.8730   45.9410 H   0  0  0  0  0  0  0  0  0  0  0  0
  182.9049   21.1551   44.0482 H   0  0  0  0  0  0  0  0  0  0  0  0
  185.1575   22.0040   43.5011 H   0  0  0  0  0  0  0  0  0  0  0  0
  188.0095   22.0767   43.7619 H   0  0  0  0  0  0  0  0  0  0  0  0
  186.4745   22.6032   42.9917 H   0  0  0  0  0  0  0  0  0  0  0  0
  187.9003   23.6958   42.9917 H   0  0  0  0  0  0  0  0  0  0  0  0
  186.9714   25.5867   45.6730 H   0  0  0  0  0  0  0  0  0  0  0  0
  187.8589   25.3251   44.1333 H   0  0  0  0  0  0  0  0  0  0  0  0
  186.0644   25.4038   44.1333 H   0  0  0  0  0  0  0  0  0  0  0  0
  187.5367   23.2663   46.9742 H   0  0  0  0  0  0  0  0  0  0  0  0
  188.1448   22.0268   45.8251 H   0  0  0  0  0  0  0  0  0  0  0  0
  188.8549   23.6768   45.8251 H   0  0  0  0  0  0  0  0  0  0  0  0
  1  2  1  0
  2  3  1  0
  3  4  2  0
  4  5  1  0
  5  6  1  0
  6  7  1  0
  7  8  1  0
  8  9  2  0
  9 10  1  0
 10 11  2  0
 11 12  1  0
 12 13  1  0
 12 14  2  0
 14 15  1  0
 15 16  2  0
 15 17  1  0
 17 18  1  0
  5 19  2  0
 19 20  1  0
 20 21  2  0
 21 22  1  0
 22 23  1  0
 22 24  1  0
 22 25  1  0
 21  3  1  0
 17  6  2  0
 14  8  1  0
  1 26  1  0
  1 27  1  0
  1 28  1  0
  2 29  1  0
  2 30  1  0
  4 31  1  0
  9 32  1  0
 10 33  1  0
 11 34  1  0
 13 35  1  0
 18 36  1  0
 19 37  1  0
 20 38  1  0
 23 39  1  0
 23 40  1  0
 23 41  1  0
 24 42  1  0
 24 43  1  0
 24 44  1  0
 25 45  1  0
 25 46  1  0
 25 47  1  0
M  END
>  <meeko>  (6) 
{"is_sidechain": [false], "free_energy": -5.702, "intermolecular_energy": -6.341, "internal_energy": -0.227}

$$$$
cand_038_out
     RDKit          3D

 47 49  0  0  0  0  0  0  0  0999 V2000
  181.7610   27.5780   51.5580 C   0  0  0  0  0  0  0  0  0  0  0  0
  183.2040   27.8320   51.9820 C   0  0  0  0  0  0  0  0  0  0  0  0
  184.0960   26.6310   51.7420 C   0  0  0  0  0  0  0  0  0  0  0  0
  184.4070   26.4020   50.3740 C   0  0  0  0  0  0  0  0  0  0  0  0
  185.2270   25.3550   49.9460 C   0  0  0  0  0  0  0  0  0  0  0  0
  185.5220   25.1180   48.5180 C   0  0  0  0  0  0  0  0  0  0  0  0
  184.6950   24.1570   47.9470 O   0  0  0  0  0  0  0  0  0  0  0  0
  184.8610   23.8400   46.6250 C   0  0  0  0  0  0  0  0  0  0  0  0
  183.9990   22.8810   46.0890 C   0  0  0  0  0  0  0  0  0  0  0  0
  184.1160   22.5090   44.7490 C   0  0  0  0  0  0  0  0  0  0  0  0
  185.0940   23.0960   43.9420 C   0  0  0  0  0  0  0  0  0  0  0  0
  185.9530   24.0510   44.4780 C   0  0  0  0  0  0  0  0  0  0  0  0
  186.8880   24.5840   43.6340 O   0  0  0  0  0  0  0  0  0  0  0  0
  185.8350   24.4230   45.8200 C   0  0  0  0  0  0  0  0  0  0  0  0
  186.7170   25.4230   46.4230 C   0  0  0  0  0  0  0  0  0  0  0  0
  187.6070   25.9780   45.7810 O   0  0  0  0  0  0  0  0  0  0  0  0
  186.5050   25.7520   47.8510 C   0  0  0  0  0  0  0  0  0  0  0  0
  187.3530   26.6890   48.4140 O   0  0  0  0  0  0  0  0  0  0  0  0
  185.7320   24.5000   50.9180 C   0  0  0  0  0  0  0  0  0  0  0  0
  185.4370   24.7030   52.2730 C   0  0  0  0  0  0  0  0  0  0  0  0
  184.6240   25.7660   52.7370 C   0  0  0  0  0  0  0  0  0  0  0  0
  184.3520   25.8850   54.2620 C   0  0  0  0  0  0  0  0  0  0  0  0
  184.5730   27.3190   54.8260 C   0  0  0  0  0  0  0  0  0  0  0  0
  182.8870   25.5490   54.6230 C   0  0  0  0  0  0  0  0  0  0  0  0
  185.3310   24.9800   55.0420 C   0  0  0  0  0  0  0  0  0  0  0  0
  181.1302   27.4670   52.4523 H   0  0  0  0  0  0  0  0  0  0  0  0
  181.4004   28.4265   50.9580 H   0  0  0  0  0  0  0  0  0  0  0  0
  181.7118   26.6574   50.9580 H   0  0  0  0  0  0  0  0  0  0  0  0
  183.5964   28.6840   51.4074 H   0  0  0  0  0  0  0  0  0  0  0  0
  183.2047   28.0400   53.0621 H   0  0  0  0  0  0  0  0  0  0  0  0
  183.9829   27.0796   49.6184 H   0  0  0  0  0  0  0  0  0  0  0  0
  183.2279   22.4189   46.7229 H   0  0  0  0  0  0  0  0  0  0  0  0
  183.4374   21.7527   44.3276 H   0  0  0  0  0  0  0  0  0  0  0  0
  185.1848   22.8040   42.8854 H   0  0  0  0  0  0  0  0  0  0  0  0
  187.7480   24.7800   43.9500 H   0  0  0  0  0  0  0  0  0  0  0  0
  188.0020   27.1100   47.8850 H   0  0  0  0  0  0  0  0  0  0  0  0
  186.3701   23.6548   50.6208 H   0  0  0  0  0  0  0  0  0  0  0  0
  185.8567   24.0037   53.0111 H   0  0  0  0  0  0  0  0  0  0  0  0
  184.5678   27.2854   55.9255 H   0  0  0  0  0  0  0  0  0  0  0  0
  185.5413   27.7057   54.4755 H   0  0  0  0  0  0  0  0  0  0  0  0
  183.7660   27.9792   54.4755 H   0  0  0  0  0  0  0  0  0  0  0  0
  182.7756   25.5234   55.7170 H   0  0  0  0  0  0  0  0  0  0  0  0
  182.2207   26.3176   54.2044 H   0  0  0  0  0  0  0  0  0  0  0  0
  182.6222   24.5668   54.2044 H   0  0  0  0  0  0  0  0  0  0  0  0
  185.1788   25.1207   56.1223 H   0  0  0  0  0  0  0  0  0  0  0  0
  185.1460   23.9279   54.7796 H   0  0  0  0  0  0  0  0  0  0  0  0
  186.3653   25.2469   54.7796 H   0  0  0  0  0  0  0  0  0  0  0  0
  1  2  1  0
  2  3  1  0
  3  4  2  0
  4  5  1  0
  5  6  1  0
  6  7  1  0
  7  8  1  0
  8  9  2  0
  9 10  1  0
 10 11  2  0
 11 12  1  0
 12 13  1  0
 12 14  2  0
 14 15  1  0
 15 16  2  0
 15 17  1  0
 17 18  1  0
  5 19  2  0
 19 20  1  0
 20 21  2  0
 21 22  1  0
 22 23  1  0
 22 24  1  0
 22 25  1  0
 21  3  1  0
 17  6  2  0
 14  8  1  0
  1 26  1  0
  1 27  1  0
  1 28  1  0
  2 29  1  0
  2 30  1  0
  4 31  1  0
  9 32  1  0
 10 33  1  0
 11 34  1  0
 13 35  1  0
 18 36  1  0
 19 37  1  0
 20 38  1  0
 23 39  1  0
 23 40  1  0
 23 41  1  0
 24 42  1  0
 24 43  1  0
 24 44  1  0
 25 45  1  0
 25 46  1  0
 25 47  1  0
M  END
>  <meeko>  (7) 
{"is_sidechain": [false], "free_energy": -5.186, "intermolecular_energy": -5.325, "internal_energy": -0.608}

$$$$
cand_038_out
     RDKit          3D

 47 49  0  0  0  0  0  0  0  0999 V2000
  178.2720   23.7760   47.3690 C   0  0  0  0  0  0  0  0  0  0  0  0
  178.8390   22.5380   48.0560 C   0  0  0  0  0  0  0  0  0  0  0  0
  179.7660   21.7510   47.1520 C   0  0  0  0  0  0  0  0  0  0  0  0
  181.0540   22.3310   46.9920 C   0  0  0  0  0  0  0  0  0  0  0  0
  182.0570   21.7500   46.2120 C   0  0  0  0  0  0  0  0  0  0  0  0
  183.3840   22.3770   46.0390 C   0  0  0  0  0  0  0  0  0  0  0  0
  183.9530   22.1030   44.8000 O   0  0  0  0  0  0  0  0  0  0  0  0
  185.1860   22.6250   44.5070 C   0  0  0  0  0  0  0  0  0  0  0  0
  185.7130   22.3380   43.2470 C   0  0  0  0  0  0  0  0  0  0  0  0
  186.9660   22.8360   42.8850 C   0  0  0  0  0  0  0  0  0  0  0  0
  187.6930   23.6220   43.7820 C   0  0  0  0  0  0  0  0  0  0  0  0
  187.1650   23.9070   45.0390 C   0  0  0  0  0  0  0  0  0  0  0  0
  187.9300   24.6810   45.8690 O   0  0  0  0  0  0  0  0  0  0  0  0
  185.9110   23.4080   45.4000 C   0  0  0  0  0  0  0  0  0  0  0  0
  185.3200   23.6840   46.7110 C   0  0  0  0  0  0  0  0  0  0  0  0
  185.9010   24.3600   47.5570 O   0  0  0  0  0  0  0  0  0  0  0  0
  183.9820   23.1150   46.9930 C   0  0  0  0  0  0  0  0  0  0  0  0
  183.4390   23.3710   48.2390 O   0  0  0  0  0  0  0  0  0  0  0  0
  181.7510   20.5650   45.5550 C   0  0  0  0  0  0  0  0  0  0  0  0
  180.4870   19.9750   45.6930 C   0  0  0  0  0  0  0  0  0  0  0  0
  179.4580   20.5310   46.4920 C   0  0  0  0  0  0  0  0  0  0  0  0
  178.0890   19.7980   46.5600 C   0  0  0  0  0  0  0  0  0  0  0  0
  177.4270   19.8410   47.9690 C   0  0  0  0  0  0  0  0  0  0  0  0
  177.0390   20.4320   45.6190 C   0  0  0  0  0  0  0  0  0  0  0  0
  178.2800   18.3000   46.2400 C   0  0  0  0  0  0  0  0  0  0  0  0
  177.9412   24.4984   48.1298 H   0  0  0  0  0  0  0  0  0  0  0  0
  179.0495   24.2353   46.7409 H   0  0  0  0  0  0  0  0  0  0  0  0
  177.4164   23.4873   46.7409 H   0  0  0  0  0  0  0  0  0  0  0  0
  179.3996   22.8542   48.9480 H   0  0  0  0  0  0  0  0  0  0  0  0
  177.9947   21.8850   48.3219 H   0  0  0  0  0  0  0  0  0  0  0  0
  181.2706   23.2795   47.5052 H   0  0  0  0  0  0  0  0  0  0  0  0
  185.1413   21.7196   42.5393 H   0  0  0  0  0  0  0  0  0  0  0  0
  187.3813   22.6091   41.8920 H   0  0  0  0  0  0  0  0  0  0  0  0
  188.6800   24.0149   43.4965 H   0  0  0  0  0  0  0  0  0  0  0  0
  188.6570   25.1600   45.5240 H   0  0  0  0  0  0  0  0  0  0  0  0
  183.4480   24.2430   48.5830 H   0  0  0  0  0  0  0  0  0  0  0  0
  182.5091   20.0842   44.9193 H   0  0  0  0  0  0  0  0  0  0  0  0
  180.2848   19.0366   45.1558 H   0  0  0  0  0  0  0  0  0  0  0  0
  178.2075   19.7903   48.7425 H   0  0  0  0  0  0  0  0  0  0  0  0
  176.8612   20.7778   48.0799 H   0  0  0  0  0  0  0  0  0  0  0  0
  176.7448   18.9853   48.0799 H   0  0  0  0  0  0  0  0  0  0  0  0
  176.2496   20.9087   46.2187 H   0  0  0  0  0  0  0  0  0  0  0  0
  177.5244   21.1881   44.9844 H   0  0  0  0  0  0  0  0  0  0  0  0
  176.5959   19.6504   44.9844 H   0  0  0  0  0  0  0  0  0  0  0  0
  178.3526   17.7309   47.1786 H   0  0  0  0  0  0  0  0  0  0  0  0
  177.4208   17.9372   45.6567 H   0  0  0  0  0  0  0  0  0  0  0  0
  179.2027   18.1644   45.6567 H   0  0  0  0  0  0  0  0  0  0  0  0
  1  2  1  0
  2  3  1  0
  3  4  2  0
  4  5  1  0
  5  6  1  0
  6  7  1  0
  7  8  1  0
  8  9  2  0
  9 10  1  0
 10 11  2  0
 11 12  1  0
 12 13  1  0
 12 14  2  0
 14 15  1  0
 15 16  2  0
 15 17  1  0
 17 18  1  0
  5 19  2  0
 19 20  1  0
 20 21  2  0
 21 22  1  0
 22 23  1  0
 22 24  1  0
 22 25  1  0
 21  3  1  0
 17  6  2  0
 14  8  1  0
  1 26  1  0
  1 27  1  0
  1 28  1  0
  2 29  1  0
  2 30  1  0
  4 31  1  0
  9 32  1  0
 10 33  1  0
 11 34  1  0
 13 35  1  0
 18 36  1  0
 19 37  1  0
 20 38  1  0
 23 39  1  0
 23 40  1  0
 23 41  1  0
 24 42  1  0
 24 43  1  0
 24 44  1  0
 25 45  1  0
 25 46  1  0
 25 47  1  0
M  END
>  <meeko>  (8) 
{"is_sidechain": [false], "free_energy": -5.173, "intermolecular_energy": -5.849, "internal_energy": -0.068}

$$$$
cand_038_out
     RDKit          3D

 47 49  0  0  0  0  0  0  0  0999 V2000
  172.7010   24.0970   54.2750 C   0  0  0  0  0  0  0  0  0  0  0  0
  173.6010   25.1750   53.6790 C   0  0  0  0  0  0  0  0  0  0  0  0
  173.4650   25.2720   52.1730 C   0  0  0  0  0  0  0  0  0  0  0  0
  174.3460   24.4190   51.4540 C   0  0  0  0  0  0  0  0  0  0  0  0
  174.3650   24.3490   50.0590 C   0  0  0  0  0  0  0  0  0  0  0  0
  175.3020   23.4730   49.3260 C   0  0  0  0  0  0  0  0  0  0  0  0
  174.6950   22.3200   48.8400 O   0  0  0  0  0  0  0  0  0  0  0  0
  175.4520   21.4180   48.1380 C   0  0  0  0  0  0  0  0  0  0  0  0
  174.7990   20.2820   47.6570 C   0  0  0  0  0  0  0  0  0  0  0  0
  175.5120   19.3210   46.9360 C   0  0  0  0  0  0  0  0  0  0  0  0
  176.8770   19.4960   46.6960 C   0  0  0  0  0  0  0  0  0  0  0  0
  177.5260   20.6300   47.1780 C   0  0  0  0  0  0  0  0  0  0  0  0
  178.8630   20.7370   46.9090 O   0  0  0  0  0  0  0  0  0  0  0  0
  176.8120   21.5900   47.8990 C   0  0  0  0  0  0  0  0  0  0  0  0
  177.4550   22.7960   48.4230 C   0  0  0  0  0  0  0  0  0  0  0  0
  178.6540   23.0180   48.2610 O   0  0  0  0  0  0  0  0  0  0  0  0
  176.6080   23.7570   49.1670 C   0  0  0  0  0  0  0  0  0  0  0  0
  177.2300   24.8860   49.6690 O   0  0  0  0  0  0  0  0  0  0  0  0
  173.4900   25.1760   49.3650 C   0  0  0  0  0  0  0  0  0  0  0  0
  172.6150   26.0290   50.0510 C   0  0  0  0  0  0  0  0  0  0  0  0
  172.5610   26.1070   51.4640 C   0  0  0  0  0  0  0  0  0  0  0  0
  171.5600   27.1000   52.1180 C   0  0  0  0  0  0  0  0  0  0  0  0
  172.0890   27.7440   53.4330 C   0  0  0  0  0  0  0  0  0  0  0  0
  171.2430   28.3010   51.1980 C   0  0  0  0  0  0  0  0  0  0  0  0
  170.2670   26.3560   52.5150 C   0  0  0  0  0  0  0  0  0  0  0  0
  172.7444   24.1489   55.3729 H   0  0  0  0  0  0  0  0  0  0  0  0
  171.6654   24.2580   53.9409 H   0  0  0  0  0  0  0  0  0  0  0  0
  173.0443   23.1068   53.9409 H   0  0  0  0  0  0  0  0  0  0  0  0
  173.3310   26.1452   54.1215 H   0  0  0  0  0  0  0  0  0  0  0  0
  174.6431   24.9053   53.9054 H   0  0  0  0  0  0  0  0  0  0  0  0
  175.0439   23.7858   52.0215 H   0  0  0  0  0  0  0  0  0  0  0  0
  173.7241   20.1436   47.8454 H   0  0  0  0  0  0  0  0  0  0  0  0
  174.9979   18.4255   46.5568 H   0  0  0  0  0  0  0  0  0  0  0  0
  177.4381   18.7397   46.1275 H   0  0  0  0  0  0  0  0  0  0  0  0
  179.3670   21.4180   47.3070 H   0  0  0  0  0  0  0  0  0  0  0  0
  176.8070   25.7200   49.6080 H   0  0  0  0  0  0  0  0  0  0  0  0
  173.4842   25.1609   48.2651 H   0  0  0  0  0  0  0  0  0  0  0  0
  171.9384   26.6679   49.4645 H   0  0  0  0  0  0  0  0  0  0  0  0
  171.6576   27.2188   54.2979 H   0  0  0  0  0  0  0  0  0  0  0  0
  173.1856   27.6640   53.4651 H   0  0  0  0  0  0  0  0  0  0  0  0
  171.7976   28.8042   53.4651 H   0  0  0  0  0  0  0  0  0  0  0  0
  171.0103   29.1827   51.8132 H   0  0  0  0  0  0  0  0  0  0  0  0
  172.1150   28.5167   50.5631 H   0  0  0  0  0  0  0  0  0  0  0  0
  170.3782   28.0583   50.5631 H   0  0  0  0  0  0  0  0  0  0  0  0
  170.1911   26.3123   53.6115 H   0  0  0  0  0  0  0  0  0  0  0  0
  169.3964   26.8912   52.1082 H   0  0  0  0  0  0  0  0  0  0  0  0
  170.2922   25.3343   52.1082 H   0  0  0  0  0  0  0  0  0  0  0  0
  1  2  1  0
  2  3  1  0
  3  4  2  0
  4  5  1  0
  5  6  1  0
  6  7  1  0
  7  8  1  0
  8  9  2  0
  9 10  1  0
 10 11  2  0
 11 12  1  0
 12 13  1  0
 12 14  2  0
 14 15  1  0
 15 16  2  0
 15 17  1  0
 17 18  1  0
  5 19  2  0
 19 20  1  0
 20 21  2  0
 21 22  1  0
 22 23  1  0
 22 24  1  0
 22 25  1  0
 21  3  1  0
 17  6  2  0
 14  8  1  0
  1 26  1  0
  1 27  1  0
  1 28  1  0
  2 29  1  0
  2 30  1  0
  4 31  1  0
  9 32  1  0
 10 33  1  0
 11 34  1  0
 13 35  1  0
 18 36  1  0
 19 37  1  0
 20 38  1  0
 23 39  1  0
 23 40  1  0
 23 41  1  0
 24 42  1  0
 24 43  1  0
 24 44  1  0
 25 45  1  0
 25 46  1  0
 25 47  1  0
M  END
>  <meeko>  (9) 
{"is_sidechain": [false], "free_energy": -5.132, "intermolecular_energy": -5.432, "internal_energy": -0.434}

$$$$
