cand_013_out
     RDKit          3D

 50 53  0  0  0  0  0  0  0  0999 V2000
  174.3830   24.7430   50.9400 C   0  0  0  0  0  0  0  0  0  0  0  0
  175.4370   23.9050   50.3740 N   0  0  0  0  0  0  0  0  0  0  0  0
  175.0250   22.4810   50.3730 C   0  0  0  0  0  0  0  0  0  0  0  0
  176.0870   21.5570   49.7300 C   0  0  0  0  0  0  0  0  0  0  0  0
  176.3800   22.0110   48.3500 N   0  0  0  0  0  0  0  0  0  0  0  0
  177.2360   21.1430   47.6520 C   0  0  0  0  0  0  0  0  0  0  0  0
  178.6110   21.3920   47.5290 C   0  0  0  0  0  0  0  0  0  0  0  0
  179.4490   20.5140   46.8350 C   0  0  0  0  0  0  0  0  0  0  0  0
  178.9370   19.3540   46.2480 C   0  0  0  0  0  0  0  0  0  0  0  0
  179.7940   18.4220   45.4850 C   0  0  0  0  0  0  0  0  0  0  0  0
  179.2870   17.1280   45.4500 O   0  0  0  0  0  0  0  0  0  0  0  0
  179.9870   16.1590   44.7770 C   0  0  0  0  0  0  0  0  0  0  0  0
  179.4360   14.8780   44.7580 C   0  0  0  0  0  0  0  0  0  0  0  0
  180.0990   13.8440   44.0900 C   0  0  0  0  0  0  0  0  0  0  0  0
  181.3100   14.0930   43.4440 C   0  0  0  0  0  0  0  0  0  0  0  0
  181.8580   15.3730   43.4640 C   0  0  0  0  0  0  0  0  0  0  0  0
  183.0480   15.5470   42.8110 O   0  0  0  0  0  0  0  0  0  0  0  0
  181.1950   16.4060   44.1320 C   0  0  0  0  0  0  0  0  0  0  0  0
  181.7370   17.7650   44.1790 C   0  0  0  0  0  0  0  0  0  0  0  0
  182.8000   18.0620   43.6410 O   0  0  0  0  0  0  0  0  0  0  0  0
  180.9530   18.7900   44.9080 C   0  0  0  0  0  0  0  0  0  0  0  0
  181.4810   20.0660   44.9600 O   0  0  0  0  0  0  0  0  0  0  0  0
  177.5620   19.1060   46.3620 C   0  0  0  0  0  0  0  0  0  0  0  0
  176.7060   19.9840   47.0600 C   0  0  0  0  0  0  0  0  0  0  0  0
  175.2320   19.6710   47.1600 C   0  0  0  0  0  0  0  0  0  0  0  0
  174.8600   18.6280   46.3550 F   0  0  0  0  0  0  0  0  0  0  0  0
  174.4250   20.7050   46.7810 F   0  0  0  0  0  0  0  0  0  0  0  0
  174.8320   19.3050   48.4120 F   0  0  0  0  0  0  0  0  0  0  0  0
  176.8190   23.4270   48.3250 C   0  0  0  0  0  0  0  0  0  0  0  0
  175.7450   24.3220   48.9860 C   0  0  0  0  0  0  0  0  0  0  0  0
  174.4330   24.7033   52.0381 H   0  0  0  0  0  0  0  0  0  0  0  0
  174.5201   25.7814   50.6040 H   0  0  0  0  0  0  0  0  0  0  0  0
  173.4022   24.3754   50.6040 H   0  0  0  0  0  0  0  0  0  0  0  0
  176.2700   24.0140   50.9520 H   0  0  0  0  0  0  0  0  0  0  0  0
  174.8614   22.1604   51.4125 H   0  0  0  0  0  0  0  0  0  0  0  0
  174.1053   22.3997   49.7751 H   0  0  0  0  0  0  0  0  0  0  0  0
  177.0094   21.5895   50.3284 H   0  0  0  0  0  0  0  0  0  0  0  0
  175.7008   20.5275   49.6987 H   0  0  0  0  0  0  0  0  0  0  0  0
  179.0383   22.2959   47.9876 H   0  0  0  0  0  0  0  0  0  0  0  0
  180.5225   20.7388   46.7502 H   0  0  0  0  0  0  0  0  0  0  0  0
  178.4813   14.6814   45.2678 H   0  0  0  0  0  0  0  0  0  0  0  0
  179.6653   12.8333   44.0739 H   0  0  0  0  0  0  0  0  0  0  0  0
  181.8316   13.2790   42.9193 H   0  0  0  0  0  0  0  0  0  0  0  0
  183.0960   16.1180   42.0690 H   0  0  0  0  0  0  0  0  0  0  0  0
  181.4930   20.5360   45.7700 H   0  0  0  0  0  0  0  0  0  0  0  0
  177.1396   18.2039   45.8954 H   0  0  0  0  0  0  0  0  0  0  0  0
  177.7657   23.5253   48.8765 H   0  0  0  0  0  0  0  0  0  0  0  0
  176.9624   23.7436   47.2814 H   0  0  0  0  0  0  0  0  0  0  0  0
  176.1108   25.3593   49.0019 H   0  0  0  0  0  0  0  0  0  0  0  0
  174.8216   24.2287   48.3955 H   0  0  0  0  0  0  0  0  0  0  0  0
  1  2  1  0
  2  3  1  0
  3  4  1  0
  4  5  1  0
  5  6  1  0
  6  7  2  0
  7  8  1  0
  8  9  2  0
  9 10  1  0
 10 11  1  0
 11 12  1  0
 12 13  2  0
 13 14  1  0
 14 15  2  0
 15 16  1  0
 16 17  1  0
 16 18  2  0
 18 19  1  0
 19 20  2  0
 19 21  1  0
 21 22  1  0
  9 23  1  0
 23 24  2  0
 24 25  1  0
 25 26  1  0
 25 27  1  0
 25 28  1  0
  5 29  1  0
 29 30  1  0
 30  2  1  0
 24  6  1  0
 21 10  2  0
 18 12  1  0
  1 31  1  0
  1 32  1  0
  1 33  1  0
  2 34  1  0
  3 35  1  0
  3 36  1  0
  4 37  1  0
  4 38  1  0
  7 39  1  0
  8 40  1  0
 13 41  1  0
 14 42  1  0
 15 43  1  0
 17 44  1  0
 22 45  1  0
 23 46  1  0
 29 47  1  0
 29 48  1  0
 30 49  1  0
 30 50  1  0
M  CHG  1   2   1
M  END
>  <meeko>  (1) 
{"is_sidechain": [false], "free_energy": -5.775, "intermolecular_energy": -7.126, "internal_energy": 0.228}

$$$$
cand_013_out
     RDKit          3D

 50 53  0  0  0  0  0  0  0  0999 V2000
  180.9650   19.3180   45.3890 C   0  0  0  0  0  0  0  0  0  0  0  0
  180.1220   20.3740   45.9450 N   0  0  0  0  0  0  0  0  0  0  0  0
  178.7000   20.1410   45.6000 C   0  0  0  0  0  0  0  0  0  0  0  0
  177.7590   21.2030   46.2150 C   0  0  0  0  0  0  0  0  0  0  0  0
  177.9340   21.2390   47.6870 N   0  0  0  0  0  0  0  0  0  0  0  0
  177.0160   22.0850   48.3320 C   0  0  0  0  0  0  0  0  0  0  0  0
  177.2140   23.4710   48.4200 C   0  0  0  0  0  0  0  0  0  0  0  0
  176.2880   24.2980   49.0610 C   0  0  0  0  0  0  0  0  0  0  0  0
  175.1290   23.7640   49.6300 C   0  0  0  0  0  0  0  0  0  0  0  0
  174.1460   24.6100   50.3380 C   0  0  0  0  0  0  0  0  0  0  0  0
  174.4760   24.8210   51.6730 O   0  0  0  0  0  0  0  0  0  0  0  0
  173.6450   25.5880   52.4490 C   0  0  0  0  0  0  0  0  0  0  0  0
  174.0220   25.7820   53.7780 C   0  0  0  0  0  0  0  0  0  0  0  0
  173.2190   26.5540   54.6230 C   0  0  0  0  0  0  0  0  0  0  0  0
  172.0430   27.1280   54.1390 C   0  0  0  0  0  0  0  0  0  0  0  0
  171.6710   26.9330   52.8120 C   0  0  0  0  0  0  0  0  0  0  0  0
  170.5060   27.5240   52.4030 O   0  0  0  0  0  0  0  0  0  0  0  0
  172.4730   26.1620   51.9670 C   0  0  0  0  0  0  0  0  0  0  0  0
  172.1170   25.9310   50.5660 C   0  0  0  0  0  0  0  0  0  0  0  0
  171.0950   26.3970   50.0680 O   0  0  0  0  0  0  0  0  0  0  0  0
  173.0390   25.1040   49.7530 C   0  0  0  0  0  0  0  0  0  0  0  0
  172.6860   24.8780   48.4360 O   0  0  0  0  0  0  0  0  0  0  0  0
  174.9310   22.3780   49.5520 C   0  0  0  0  0  0  0  0  0  0  0  0
  175.8590   21.5320   48.9070 C   0  0  0  0  0  0  0  0  0  0  0  0
  175.6000   20.0470   48.8430 C   0  0  0  0  0  0  0  0  0  0  0  0
  175.1890   19.5320   50.0440 F   0  0  0  0  0  0  0  0  0  0  0  0
  176.7010   19.3120   48.5110 F   0  0  0  0  0  0  0  0  0  0  0  0
  174.6190   19.6970   47.9620 F   0  0  0  0  0  0  0  0  0  0  0  0
  179.3450   21.4970   48.0600 C   0  0  0  0  0  0  0  0  0  0  0  0
  180.2620   20.4290   47.4200 C   0  0  0  0  0  0  0  0  0  0  0  0
  181.4228   18.7446   46.2085 H   0  0  0  0  0  0  0  0  0  0  0  0
  180.3515   18.6469   44.7699 H   0  0  0  0  0  0  0  0  0  0  0  0
  181.7554   19.7675   44.7699 H   0  0  0  0  0  0  0  0  0  0  0  0
  180.4250   21.2620   45.5450 H   0  0  0  0  0  0  0  0  0  0  0  0
  178.5938   20.1673   44.5055 H   0  0  0  0  0  0  0  0  0  0  0  0
  178.4127   19.1620   46.0112 H   0  0  0  0  0  0  0  0  0  0  0  0
  177.9993   22.1907   45.7947 H   0  0  0  0  0  0  0  0  0  0  0  0
  176.7163   20.9432   45.9801 H   0  0  0  0  0  0  0  0  0  0  0  0
  178.1165   23.9157   47.9754 H   0  0  0  0  0  0  0  0  0  0  0  0
  176.4734   25.3808   49.1183 H   0  0  0  0  0  0  0  0  0  0  0  0
  174.9486   25.3288   54.1601 H   0  0  0  0  0  0  0  0  0  0  0  0
  173.5148   26.7091   55.6711 H   0  0  0  0  0  0  0  0  0  0  0  0
  171.4109   27.7336   54.8050 H   0  0  0  0  0  0  0  0  0  0  0  0
  169.7280   27.4310   52.9180 H   0  0  0  0  0  0  0  0  0  0  0  0
  171.8260   25.0990   48.1370 H   0  0  0  0  0  0  0  0  0  0  0  0
  174.0298   21.9389   50.0048 H   0  0  0  0  0  0  0  0  0  0  0  0
  179.6407   22.4940   47.7013 H   0  0  0  0  0  0  0  0  0  0  0  0
  179.4446   21.4511   49.1545 H   0  0  0  0  0  0  0  0  0  0  0  0
  181.3072   20.6670   47.6670 H   0  0  0  0  0  0  0  0  0  0  0  0
  179.9660   19.4487   47.8217 H   0  0  0  0  0  0  0  0  0  0  0  0
  1  2  1  0
  2  3  1  0
  3  4  1  0
  4  5  1  0
  5  6  1  0
  6  7  2  0
  7  8  1  0
  8  9  2  0
  9 10  1  0
 10 11  1  0
 11 12  1  0
 12 13  2  0
 13 14  1  0
 14 15  2  0
 15 16  1  0
 16 17  1  0
 16 18  2  0
 18 19  1  0
 19 20  2  0
 19 21  1  0
 21 22  1  0
  9 23  1  0
 23 24  2  0
 24 25  1  0
 25 26  1  0
 25 27  1  0
 25 28  1  0
  5 29  1  0
 29 30  1  0
 30  2  1  0
 24  6  1  0
 21 10  2  0
 18 12  1  0
  1 31  1  0
  1 32  1  0
  1 33  1  0
  2 34  1  0
  3 35  1  0
  3 36  1  0
  4 37  1  0
  4 38  1  0
  7 39  1  0
  8 40  1  0
 13 41  1  0
 14 42  1  0
 15 43  1  0
 17 44  1  0
 22 45  1  0
 23 46  1  0
 29 47  1  0
 29 48  1  0
 30 49  1  0
 30 50  1  0
M  CHG  1   2   1
M  END
>  <meeko>  (2) 
{"is_sidechain": [false], "free_energy": -5.2, "intermolecular_energy": -5.935, "internal_energy": -0.252}

$$$$
cand_013_out
     RDKit          3D

 50 53  0  0  0  0  0  0  0  0999 V2000
  187.2080   25.6710   55.1570 C   0  0  0  0  0  0  0  0  0  0  0  0
  187.2020   25.0780   53.8220 N   0  0  0  0  0  0  0  0  0  0  0  0
  185.8120   24.8540   53.3590 C   0  0  0  0  0  0  0  0  0  0  0  0
  185.7510   24.2790   51.9240 C   0  0  0  0  0  0  0  0  0  0  0  0
  186.4690   25.1780   50.9900 N   0  0  0  0  0  0  0  0  0  0  0  0
  186.3430   24.7930   49.6440 C   0  0  0  0  0  0  0  0  0  0  0  0
  186.8820   23.5920   49.1600 C   0  0  0  0  0  0  0  0  0  0  0  0
  186.7430   23.2220   47.8190 C   0  0  0  0  0  0  0  0  0  0  0  0
  186.0510   24.0400   46.9220 C   0  0  0  0  0  0  0  0  0  0  0  0
  185.9110   23.6870   45.4930 C   0  0  0  0  0  0  0  0  0  0  0  0
  186.8940   22.8060   45.0560 O   0  0  0  0  0  0  0  0  0  0  0  0
  186.8850   22.3980   43.7460 C   0  0  0  0  0  0  0  0  0  0  0  0
  187.8830   21.5050   43.3540 C   0  0  0  0  0  0  0  0  0  0  0  0
  187.9300   21.0500   42.0340 C   0  0  0  0  0  0  0  0  0  0  0  0
  186.9810   21.4880   41.1080 C   0  0  0  0  0  0  0  0  0  0  0  0
  185.9860   22.3780   41.5030 C   0  0  0  0  0  0  0  0  0  0  0  0
  185.0890   22.7670   40.5450 O   0  0  0  0  0  0  0  0  0  0  0  0
  185.9390   22.8340   42.8230 C   0  0  0  0  0  0  0  0  0  0  0  0
  184.9110   23.7710   43.2790 C   0  0  0  0  0  0  0  0  0  0  0  0
  184.0460   24.2070   42.5230 O   0  0  0  0  0  0  0  0  0  0  0  0
  184.9450   24.1860   44.7000 C   0  0  0  0  0  0  0  0  0  0  0  0
  183.9800   25.0840   45.1160 O   0  0  0  0  0  0  0  0  0  0  0  0
  185.5170   25.2440   47.4010 C   0  0  0  0  0  0  0  0  0  0  0  0
  185.6510   25.6290   48.7520 C   0  0  0  0  0  0  0  0  0  0  0  0
  185.0540   26.9330   49.2220 C   0  0  0  0  0  0  0  0  0  0  0  0
  184.9220   26.9920   50.5830 F   0  0  0  0  0  0  0  0  0  0  0  0
  183.7980   27.1660   48.7420 F   0  0  0  0  0  0  0  0  0  0  0  0
  185.8020   28.0280   48.8980 F   0  0  0  0  0  0  0  0  0  0  0  0
  187.8710   25.3980   51.4170 C   0  0  0  0  0  0  0  0  0  0  0  0
  187.9000   25.9600   52.8570 C   0  0  0  0  0  0  0  0  0  0  0  0
  187.1999   24.8721   55.9131 H   0  0  0  0  0  0  0  0  0  0  0  0
  188.1124   26.2846   55.2816 H   0  0  0  0  0  0  0  0  0  0  0  0
  186.3162   26.3028   55.2816 H   0  0  0  0  0  0  0  0  0  0  0  0
  187.6880   24.1830   53.8740 H   0  0  0  0  0  0  0  0  0  0  0  0
  185.3218   24.1463   54.0437 H   0  0  0  0  0  0  0  0  0  0  0  0
  185.3013   25.8283   53.3507 H   0  0  0  0  0  0  0  0  0  0  0  0
  186.2225   23.2853   51.9088 H   0  0  0  0  0  0  0  0  0  0  0  0
  184.6997   24.1963   51.6111 H   0  0  0  0  0  0  0  0  0  0  0  0
  187.4247   22.9282   49.8490 H   0  0  0  0  0  0  0  0  0  0  0  0
  187.1828   22.2774   47.4664 H   0  0  0  0  0  0  0  0  0  0  0  0
  188.6312   21.1600   44.0828 H   0  0  0  0  0  0  0  0  0  0  0  0
  188.7158   20.3456   41.7236 H   0  0  0  0  0  0  0  0  0  0  0  0
  187.0196   21.1305   40.0684 H   0  0  0  0  0  0  0  0  0  0  0  0
  184.3090   23.2240   40.7930 H   0  0  0  0  0  0  0  0  0  0  0  0
  184.0900   26.0000   44.9530 H   0  0  0  0  0  0  0  0  0  0  0  0
  184.9796   25.9059   46.7060 H   0  0  0  0  0  0  0  0  0  0  0  0
  188.4156   24.4427   51.3872 H   0  0  0  0  0  0  0  0  0  0  0  0
  188.3480   26.1191   50.7369 H   0  0  0  0  0  0  0  0  0  0  0  0
  188.9481   26.0693   53.1725 H   0  0  0  0  0  0  0  0  0  0  0  0
  187.3782   26.9283   52.8496 H   0  0  0  0  0  0  0  0  0  0  0  0
  1  2  1  0
  2  3  1  0
  3  4  1  0
  4  5  1  0
  5  6  1  0
  6  7  2  0
  7  8  1  0
  8  9  2  0
  9 10  1  0
 10 11  1  0
 11 12  1  0
 12 13  2  0
 13 14  1  0
 14 15  2  0
 15 16  1  0
 16 17  1  0
 16 18  2  0
 18 19  1  0
 19 20  2  0
 19 21  1  0
 21 22  1  0
  9 23  1  0
 23 24  2  0
 24 25  1  0
 25 26  1  0
 25 27  1  0
 25 28  1  0
  5 29  1  0
 29 30  1  0
 30  2  1  0
 24  6  1  0
 21 10  2  0
 18 12  1  0
  1 31  1  0
  1 32  1  0
  1 33  1  0
  2 34  1  0
  3 35  1  0
  3 36  1  0
  4 37  1  0
  4 38  1  0
  7 39  1  0
  8 40  1  0
 13 41  1  0
 14 42  1  0
 15 43  1  0
 17 44  1  0
 22 45  1  0
 23 46  1  0
 29 47  1  0
 29 48  1  0
 30 49  1  0
 30 50  1  0
M  CHG  1   2   1
M  END
>  <meeko>  (3) 
{"is_sidechain": [false], "free_energy": -4.936, "intermolecular_energy": -6.201, "internal_energy": 0.339}

$$$$
cand_013_out
     RDKit          3D

 50 53  0  0  0  0  0  0  0  0999 V2000
  180.3030   18.5860   45.3810 C   0  0  0  0  0  0  0  0  0  0  0  0
  179.2430   19.1480   46.2140 N   0  0  0  0  0  0  0  0  0  0  0  0
  179.8180   20.0040   47.2790 C   0  0  0  0  0  0  0  0  0  0  0  0
  178.7310   20.6690   48.1560 C   0  0  0  0  0  0  0  0  0  0  0  0
  177.8070   21.4550   47.3040 N   0  0  0  0  0  0  0  0  0  0  0  0
  176.8720   22.2000   48.0410 C   0  0  0  0  0  0  0  0  0  0  0  0
  175.5780   21.7220   48.3000 C   0  0  0  0  0  0  0  0  0  0  0  0
  174.6610   22.4740   49.0400 C   0  0  0  0  0  0  0  0  0  0  0  0
  175.0130   23.7260   49.5520 C   0  0  0  0  0  0  0  0  0  0  0  0
  174.0560   24.5540   50.3150 C   0  0  0  0  0  0  0  0  0  0  0  0
  174.4240   24.7160   51.6460 O   0  0  0  0  0  0  0  0  0  0  0  0
  173.6200   25.4620   52.4700 C   0  0  0  0  0  0  0  0  0  0  0  0
  174.0330   25.6080   53.7950 C   0  0  0  0  0  0  0  0  0  0  0  0
  173.2590   26.3550   54.6870 C   0  0  0  0  0  0  0  0  0  0  0  0
  172.0750   26.9530   54.2550 C   0  0  0  0  0  0  0  0  0  0  0  0
  171.6650   26.8060   52.9330 C   0  0  0  0  0  0  0  0  0  0  0  0
  170.4940   27.4180   52.5760 O   0  0  0  0  0  0  0  0  0  0  0  0
  172.4390   26.0590   52.0400 C   0  0  0  0  0  0  0  0  0  0  0  0
  172.0440   25.8790   50.6430 C   0  0  0  0  0  0  0  0  0  0  0  0
  171.0120   26.3680   50.1890 O   0  0  0  0  0  0  0  0  0  0  0  0
  172.9370   25.0740   49.7770 C   0  0  0  0  0  0  0  0  0  0  0  0
  172.5470   24.8960   48.4630 O   0  0  0  0  0  0  0  0  0  0  0  0
  176.3020   24.2090   49.2890 C   0  0  0  0  0  0  0  0  0  0  0  0
  177.2370   23.4600   48.5430 C   0  0  0  0  0  0  0  0  0  0  0  0
  178.6150   24.0210   48.2900 C   0  0  0  0  0  0  0  0  0  0  0  0
  179.6080   23.2370   48.8150 F   0  0  0  0  0  0  0  0  0  0  0  0
  178.8170   25.2520   48.8440 F   0  0  0  0  0  0  0  0  0  0  0  0
  178.9280   24.1360   46.9660 F   0  0  0  0  0  0  0  0  0  0  0  0
  177.1980   20.6150   46.2440 C   0  0  0  0  0  0  0  0  0  0  0  0
  178.3080   19.9540   45.3950 C   0  0  0  0  0  0  0  0  0  0  0  0
  181.0917   18.1679   46.0238 H   0  0  0  0  0  0  0  0  0  0  0  0
  179.8871   17.7899   44.7459 H   0  0  0  0  0  0  0  0  0  0  0  0
  180.7285   19.3770   44.7459 H   0  0  0  0  0  0  0  0  0  0  0  0
  178.7360   18.3730   46.6420 H   0  0  0  0  0  0  0  0  0  0  0  0
  180.4595   19.3837   47.9222 H   0  0  0  0  0  0  0  0  0  0  0  0
  180.3902   20.8064   46.7904 H   0  0  0  0  0  0  0  0  0  0  0  0
  178.1640   19.8903   48.6872 H   0  0  0  0  0  0  0  0  0  0  0  0
  179.2123   21.3396   48.8831 H   0  0  0  0  0  0  0  0  0  0  0  0
  175.2797   20.7364   47.9131 H   0  0  0  0  0  0  0  0  0  0  0  0
  173.6516   22.0762   49.2213 H   0  0  0  0  0  0  0  0  0  0  0  0
  174.9660   25.1360   54.1366 H   0  0  0  0  0  0  0  0  0  0  0  0
  173.5839   26.4717   55.7314 H   0  0  0  0  0  0  0  0  0  0  0  0
  171.4661   27.5400   54.9583 H   0  0  0  0  0  0  0  0  0  0  0  0
  170.2090   27.3990   51.6830 H   0  0  0  0  0  0  0  0  0  0  0  0
  172.3210   25.6370   47.9370 H   0  0  0  0  0  0  0  0  0  0  0  0
  176.5925   25.1976   49.6740 H   0  0  0  0  0  0  0  0  0  0  0  0
  176.5794   19.8330   46.7085 H   0  0  0  0  0  0  0  0  0  0  0  0
  176.5731   21.2465   45.5954 H   0  0  0  0  0  0  0  0  0  0  0  0
  177.8375   19.2978   44.6480 H   0  0  0  0  0  0  0  0  0  0  0  0
  178.8882   20.7578   44.9182 H   0  0  0  0  0  0  0  0  0  0  0  0
  1  2  1  0
  2  3  1  0
  3  4  1  0
  4  5  1  0
  5  6  1  0
  6  7  2  0
  7  8  1  0
  8  9  2  0
  9 10  1  0
 10 11  1  0
 11 12  1  0
 12 13  2  0
 13 14  1  0
 14 15  2  0
 15 16  1  0
 16 17  1  0
 16 18  2  0
 18 19  1  0
 19 20  2  0
 19 21  1  0
 21 22  1  0
  9 23  1  0
 23 24  2  0
 24 25  1  0
 25 26  1  0
 25 27  1  0
 25 28  1  0
  5 29  1  0
 29 30  1  0
 30  2  1  0
 24  6  1  0
 21 10  2  0
 18 12  1  0
  1 31  1  0
  1 32  1  0
  1 33  1  0
  2 34  1  0
  3 35  1  0
  3 36  1  0
  4 37  1  0
  4 38  1  0
  7 39  1  0
  8 40  1  0
 13 41  1  0
 14 42  1  0
 15 43  1  0
 17 44  1  0
 22 45  1  0
 23 46  1  0
 29 47  1  0
 29 48  1  0
 30 49  1  0
 30 50  1  0
M  CHG  1   2   1
M  END
>  <meeko>  (4) 
{"is_sidechain": [false], "free_energy": -4.376, "intermolecular_energy": -5.038, "internal_energy": -0.134}

$$$$
cand_013_out
     RDKit          3D

 50 53  0  0  0  0  0  0  0  0999 V2000
  181.0690   19.3190   45.1960 C   0  0  0  0  0  0  0  0  0  0  0  0
  180.2890   20.3800   45.8300 N   0  0  0  0  0  0  0  0  0  0  0  0
  178.8610   20.2740   45.4490 C   0  0  0  0  0  0  0  0  0  0  0  0
  177.9820   21.3420   46.1410 C   0  0  0  0  0  0  0  0  0  0  0  0
  178.1330   21.2430   47.6130 N   0  0  0  0  0  0  0  0  0  0  0  0
  177.2630   22.0910   48.3170 C   0  0  0  0  0  0  0  0  0  0  0  0
  177.5530   23.4480   48.5270 C   0  0  0  0  0  0  0  0  0  0  0  0
  176.6740   24.2790   49.2260 C   0  0  0  0  0  0  0  0  0  0  0  0
  175.4690   23.7810   49.7300 C   0  0  0  0  0  0  0  0  0  0  0  0
  174.5330   24.6300   50.4960 C   0  0  0  0  0  0  0  0  0  0  0  0
  173.3670   24.9160   49.7940 O   0  0  0  0  0  0  0  0  0  0  0  0
  172.4110   25.6990   50.3880 C   0  0  0  0  0  0  0  0  0  0  0  0
  171.2520   25.9510   49.6530 C   0  0  0  0  0  0  0  0  0  0  0  0
  170.2380   26.7420   50.2000 C   0  0  0  0  0  0  0  0  0  0  0  0
  170.3850   27.2810   51.4790 C   0  0  0  0  0  0  0  0  0  0  0  0
  171.5420   27.0280   52.2100 C   0  0  0  0  0  0  0  0  0  0  0  0
  171.6200   27.5880   53.4570 O   0  0  0  0  0  0  0  0  0  0  0  0
  172.5550   26.2370   51.6630 C   0  0  0  0  0  0  0  0  0  0  0  0
  173.7880   25.9480   52.3980 C   0  0  0  0  0  0  0  0  0  0  0  0
  173.9940   26.3900   53.5250 O   0  0  0  0  0  0  0  0  0  0  0  0
  174.7970   25.0920   51.7320 C   0  0  0  0  0  0  0  0  0  0  0  0
  175.9640   24.8380   52.4270 O   0  0  0  0  0  0  0  0  0  0  0  0
  175.1790   22.4240   49.5290 C   0  0  0  0  0  0  0  0  0  0  0  0
  176.0600   21.5740   48.8250 C   0  0  0  0  0  0  0  0  0  0  0  0
  175.7010   20.1210   48.6300 C   0  0  0  0  0  0  0  0  0  0  0  0
  175.1420   19.5610   49.7470 F   0  0  0  0  0  0  0  0  0  0  0  0
  176.7730   19.3250   48.3430 F   0  0  0  0  0  0  0  0  0  0  0  0
  174.7850   19.9100   47.6400 F   0  0  0  0  0  0  0  0  0  0  0  0
  179.5520   21.3720   48.0230 C   0  0  0  0  0  0  0  0  0  0  0  0
  180.4060   20.3010   47.3050 C   0  0  0  0  0  0  0  0  0  0  0  0
  181.5312   18.6903   45.9714 H   0  0  0  0  0  0  0  0  0  0  0  0
  180.4078   18.7021   44.5697 H   0  0  0  0  0  0  0  0  0  0  0  0
  181.8551   19.7660   44.5697 H   0  0  0  0  0  0  0  0  0  0  0  0
  180.6580   21.2760   45.5100 H   0  0  0  0  0  0  0  0  0  0  0  0
  178.7764   20.3996   44.3595 H   0  0  0  0  0  0  0  0  0  0  0  0
  178.5017   19.2856   45.7715 H   0  0  0  0  0  0  0  0  0  0  0  0
  178.2947   22.3429   45.8087 H   0  0  0  0  0  0  0  0  0  0  0  0
  176.9286   21.1735   45.8727 H   0  0  0  0  0  0  0  0  0  0  0  0
  178.4913   23.8657   48.1333 H   0  0  0  0  0  0  0  0  0  0  0  0
  176.9330   25.3367   49.3815 H   0  0  0  0  0  0  0  0  0  0  0  0
  171.1366   25.5276   48.6443 H   0  0  0  0  0  0  0  0  0  0  0  0
  169.3233   26.9400   49.6220 H   0  0  0  0  0  0  0  0  0  0  0  0
  169.5875   27.9049   51.9087 H   0  0  0  0  0  0  0  0  0  0  0  0
  171.0150   27.3300   54.1250 H   0  0  0  0  0  0  0  0  0  0  0  0
  176.7080   25.3970   52.3150 H   0  0  0  0  0  0  0  0  0  0  0  0
  174.2415   22.0110   49.9298 H   0  0  0  0  0  0  0  0  0  0  0  0
  179.9201   22.3730   47.7536 H   0  0  0  0  0  0  0  0  0  0  0  0
  179.6295   21.2280   49.1108 H   0  0  0  0  0  0  0  0  0  0  0  0
  181.4603   20.4448   47.5838 H   0  0  0  0  0  0  0  0  0  0  0  0
  180.0371   19.3131   47.6180 H   0  0  0  0  0  0  0  0  0  0  0  0
  1  2  1  0
  2  3  1  0
  3  4  1  0
  4  5  1  0
  5  6  1  0
  6  7  2  0
  7  8  1  0
  8  9  2  0
  9 10  1  0
 10 11  1  0
 11 12  1  0
 12 13  2  0
 13 14  1  0
 14 15  2  0
 15 16  1  0
 16 17  1  0
 16 18  2  0
 18 19  1  0
 19 20  2  0
 19 21  1  0
 21 22  1  0
  9 23  1  0
 23 24  2  0
 24 25  1  0
 25 26  1  0
 25 27  1  0
 25 28  1  0
  5 29  1  0
 29 30  1  0
 30  2  1  0
 24  6  1  0
 21 10  2  0
 18 12  1  0
  1 31  1  0
  1 32  1  0
  1 33  1  0
  2 34  1  0
  3 35  1  0
  3 36  1  0
  4 37  1  0
  4 38  1  0
  7 39  1  0
  8 40  1  0
 13 41  1  0
 14 42  1  0
 15 43  1  0
 17 44  1  0
 22 45  1  0
 23 46  1  0
 29 47  1  0
 29 48  1  0
 30 49  1  0
 30 50  1  0
M  CHG  1   2   1
M  END
>  <meeko>  (5) 
{"is_sidechain": [false], "free_energy": -4.245, "intermolecular_energy": -4.746, "internal_energy": -0.263}

$$$$
cand_013_out
     RDKit          3D

 50 53  0  0  0  0  0  0  0  0999 V2000
  174.2830   24.5810   50.6010 C   0  0  0  0  0  0  0  0  0  0  0  0
  174.8080   23.6100   49.6440 N   0  0  0  0  0  0  0  0  0  0  0  0
  175.9810   24.1670   48.9300 C   0  0  0  0  0  0  0  0  0  0  0  0
  176.6100   23.1550   47.9430 C   0  0  0  0  0  0  0  0  0  0  0  0
  176.9850   21.9150   48.6640 N   0  0  0  0  0  0  0  0  0  0  0  0
  177.6860   20.9990   47.8630 C   0  0  0  0  0  0  0  0  0  0  0  0
  177.0920   19.8200   47.3870 C   0  0  0  0  0  0  0  0  0  0  0  0
  177.8030   18.9220   46.5860 C   0  0  0  0  0  0  0  0  0  0  0  0
  179.1290   19.1790   46.2290 C   0  0  0  0  0  0  0  0  0  0  0  0
  179.9130   18.2340   45.4060 C   0  0  0  0  0  0  0  0  0  0  0  0
  179.3500   16.9640   45.3580 O   0  0  0  0  0  0  0  0  0  0  0  0
  179.9790   15.9860   44.6300 C   0  0  0  0  0  0  0  0  0  0  0  0
  179.3720   14.7300   44.6010 C   0  0  0  0  0  0  0  0  0  0  0  0
  179.9610   13.6890   43.8780 C   0  0  0  0  0  0  0  0  0  0  0  0
  181.1550   13.9050   43.1870 C   0  0  0  0  0  0  0  0  0  0  0  0
  181.7570   15.1600   43.2170 C   0  0  0  0  0  0  0  0  0  0  0  0
  182.9250   15.3030   42.5190 O   0  0  0  0  0  0  0  0  0  0  0  0
  181.1680   16.2010   43.9410 C   0  0  0  0  0  0  0  0  0  0  0  0
  181.7690   17.5340   44.0000 C   0  0  0  0  0  0  0  0  0  0  0  0
  182.8210   17.8010   43.4240 O   0  0  0  0  0  0  0  0  0  0  0  0
  181.0610   18.5690   44.7880 C   0  0  0  0  0  0  0  0  0  0  0  0
  181.6450   19.8200   44.8510 O   0  0  0  0  0  0  0  0  0  0  0  0
  179.7280   20.3520   46.7090 C   0  0  0  0  0  0  0  0  0  0  0  0
  179.0210   21.2670   47.5190 C   0  0  0  0  0  0  0  0  0  0  0  0
  179.7070   22.5200   48.0070 C   0  0  0  0  0  0  0  0  0  0  0  0
  181.0620   22.3630   48.1330 F   0  0  0  0  0  0  0  0  0  0  0  0
  179.2900   22.9280   49.2410 F   0  0  0  0  0  0  0  0  0  0  0  0
  179.5570   23.5890   47.1730 F   0  0  0  0  0  0  0  0  0  0  0  0
  175.8220   21.3230   49.3680 C   0  0  0  0  0  0  0  0  0  0  0  0
  175.2070   22.3620   50.3350 C   0  0  0  0  0  0  0  0  0  0  0  0
  174.4744   24.2271   51.6248 H   0  0  0  0  0  0  0  0  0  0  0  0
  174.7797   25.5507   50.4494 H   0  0  0  0  0  0  0  0  0  0  0  0
  173.1996   24.6963   50.4494 H   0  0  0  0  0  0  0  0  0  0  0  0
  174.0710   23.4030   48.9700 H   0  0  0  0  0  0  0  0  0  0  0  0
  175.6616   25.0565   48.3672 H   0  0  0  0  0  0  0  0  0  0  0  0
  176.7429   24.4166   49.6832 H   0  0  0  0  0  0  0  0  0  0  0  0
  175.8817   22.9129   47.1550 H   0  0  0  0  0  0  0  0  0  0  0  0
  177.5101   23.5991   47.4929 H   0  0  0  0  0  0  0  0  0  0  0  0
  176.0470   19.5984   47.6493 H   0  0  0  0  0  0  0  0  0  0  0  0
  177.3131   18.0027   46.2328 H   0  0  0  0  0  0  0  0  0  0  0  0
  178.4319   14.5595   45.1460 H   0  0  0  0  0  0  0  0  0  0  0  0
  179.4834   12.6984   43.8533 H   0  0  0  0  0  0  0  0  0  0  0  0
  181.6193   13.0848   42.6198 H   0  0  0  0  0  0  0  0  0  0  0  0
  183.3640   14.5460   42.1810 H   0  0  0  0  0  0  0  0  0  0  0  0
  181.3370   20.4510   45.4720 H   0  0  0  0  0  0  0  0  0  0  0  0
  180.7752   20.5649   46.4480 H   0  0  0  0  0  0  0  0  0  0  0  0
  175.0651   21.0189   48.6300 H   0  0  0  0  0  0  0  0  0  0  0  0
  176.1546   20.4460   49.9427 H   0  0  0  0  0  0  0  0  0  0  0  0
  174.3177   21.9207   50.8086 H   0  0  0  0  0  0  0  0  0  0  0  0
  175.9736   22.6216   51.0799 H   0  0  0  0  0  0  0  0  0  0  0  0
  1  2  1  0
  2  3  1  0
  3  4  1  0
  4  5  1  0
  5  6  1  0
  6  7  2  0
  7  8  1  0
  8  9  2  0
  9 10  1  0
 10 11  1  0
 11 12  1  0
 12 13  2  0
 13 14  1  0
 14 15  2  0
 15 16  1  0
 16 17  1  0
 16 18  2  0
 18 19  1  0
 19 20  2  0
 19 21  1  0
 21 22  1  0
  9 23  1  0
 23 24  2  0
 24 25  1  0
 25 26  1  0
 25 27  1  0
 25 28  1  0
  5 29  1  0
 29 30  1  0
 30  2  1  0
 24  6  1  0
 21 10  2  0
 18 12  1  0
  1 31  1  0
  1 32  1  0
  1 33  1  0
  2 34  1  0
  3 35  1  0
  3 36  1  0
  4 37  1  0
  4 38  1  0
  7 39  1  0
  8 40  1  0
 13 41  1  0
 14 42  1  0
 15 43  1  0
 17 44  1  0
 22 45  1  0
 23 46  1  0
 29 47  1  0
 29 48  1  0
 30 49  1  0
 30 50  1  0
M  CHG  1   2   1
M  END
>  <meeko>  (6) 
{"is_sidechain": [false], "free_energy": -4.139, "intermolecular_energy": -5.582, "internal_energy": 0.703}

$$$$
cand_013_out
     RDKit          3D

 50 53  0  0  0  0  0  0  0  0999 V2000
  174.8100   18.4630   47.1450 C   0  0  0  0  0  0  0  0  0  0  0  0
  175.9040   19.4170   46.9790 N   0  0  0  0  0  0  0  0  0  0  0  0
  176.7820   19.4150   48.1730 C   0  0  0  0  0  0  0  0  0  0  0  0
  177.9900   20.3690   48.0230 C   0  0  0  0  0  0  0  0  0  0  0  0
  178.7660   20.0130   46.8110 N   0  0  0  0  0  0  0  0  0  0  0  0
  179.9550   20.7480   46.6790 C   0  0  0  0  0  0  0  0  0  0  0  0
  180.1590   21.9620   47.3520 C   0  0  0  0  0  0  0  0  0  0  0  0
  181.3510   22.6780   47.2140 C   0  0  0  0  0  0  0  0  0  0  0  0
  182.3820   22.1970   46.4020 C   0  0  0  0  0  0  0  0  0  0  0  0
  183.6420   22.9460   46.2160 C   0  0  0  0  0  0  0  0  0  0  0  0
  184.1730   23.4170   47.4120 O   0  0  0  0  0  0  0  0  0  0  0  0
  185.3420   24.1340   47.3830 C   0  0  0  0  0  0  0  0  0  0  0  0
  185.8440   24.5760   48.6080 C   0  0  0  0  0  0  0  0  0  0  0  0
  187.0310   25.3120   48.6480 C   0  0  0  0  0  0  0  0  0  0  0  0
  187.7140   25.6050   47.4670 C   0  0  0  0  0  0  0  0  0  0  0  0
  187.2110   25.1610   46.2470 C   0  0  0  0  0  0  0  0  0  0  0  0
  187.9300   25.4840   45.1280 O   0  0  0  0  0  0  0  0  0  0  0  0
  186.0230   24.4250   46.2060 C   0  0  0  0  0  0  0  0  0  0  0  0
  185.4600   23.9420   44.9440 C   0  0  0  0  0  0  0  0  0  0  0  0
  185.9980   24.1640   43.8630 O   0  0  0  0  0  0  0  0  0  0  0  0
  184.2000   23.1650   45.0110 C   0  0  0  0  0  0  0  0  0  0  0  0
  183.6680   22.7270   43.8130 O   0  0  0  0  0  0  0  0  0  0  0  0
  182.1790   20.9880   45.7220 C   0  0  0  0  0  0  0  0  0  0  0  0
  180.9800   20.2560   45.8540 C   0  0  0  0  0  0  0  0  0  0  0  0
  180.8110   18.9560   45.1050 C   0  0  0  0  0  0  0  0  0  0  0  0
  182.0010   18.4470   44.6580 F   0  0  0  0  0  0  0  0  0  0  0  0
  180.0380   19.0650   43.9850 F   0  0  0  0  0  0  0  0  0  0  0  0
  180.2650   17.9560   45.8570 F   0  0  0  0  0  0  0  0  0  0  0  0
  177.9160   20.0330   45.5970 C   0  0  0  0  0  0  0  0  0  0  0  0
  176.7110   19.0810   45.7830 C   0  0  0  0  0  0  0  0  0  0  0  0
  174.6242   18.3010   48.2170 H   0  0  0  0  0  0  0  0  0  0  0  0
  173.9007   18.8618   46.6715 H   0  0  0  0  0  0  0  0  0  0  0  0
  175.0813   17.5079   46.6715 H   0  0  0  0  0  0  0  0  0  0  0  0
  175.4970   20.3450   46.8620 H   0  0  0  0  0  0  0  0  0  0  0  0
  176.1909   19.7293   49.0458 H   0  0  0  0  0  0  0  0  0  0  0  0
  177.1755   18.3952   48.2962 H   0  0  0  0  0  0  0  0  0  0  0  0
  177.6286   21.4041   47.9338 H   0  0  0  0  0  0  0  0  0  0  0  0
  178.6370   20.2763   48.9077 H   0  0  0  0  0  0  0  0  0  0  0  0
  179.3645   22.3582   48.0015 H   0  0  0  0  0  0  0  0  0  0  0  0
  181.4793   23.6300   47.7499 H   0  0  0  0  0  0  0  0  0  0  0  0
  185.3065   24.3455   49.5396 H   0  0  0  0  0  0  0  0  0  0  0  0
  187.4280   25.6612   49.6126 H   0  0  0  0  0  0  0  0  0  0  0  0
  188.6478   26.1855   47.4998 H   0  0  0  0  0  0  0  0  0  0  0  0
  187.7390   25.0630   44.3120 H   0  0  0  0  0  0  0  0  0  0  0  0
  182.9980   23.2250   43.3870 H   0  0  0  0  0  0  0  0  0  0  0  0
  182.9747   20.6002   45.0689 H   0  0  0  0  0  0  0  0  0  0  0  0
  177.5497   21.0558   45.4249 H   0  0  0  0  0  0  0  0  0  0  0  0
  178.5103   19.7009   44.7330 H   0  0  0  0  0  0  0  0  0  0  0  0
  176.0679   19.1474   44.8931 H   0  0  0  0  0  0  0  0  0  0  0  0
  177.1060   18.0636   45.9204 H   0  0  0  0  0  0  0  0  0  0  0  0
  1  2  1  0
  2  3  1  0
  3  4  1  0
  4  5  1  0
  5  6  1  0
  6  7  2  0
  7  8  1  0
  8  9  2  0
  9 10  1  0
 10 11  1  0
 11 12  1  0
 12 13  2  0
 13 14  1  0
 14 15  2  0
 15 16  1  0
 16 17  1  0
 16 18  2  0
 18 19  1  0
 19 20  2  0
 19 21  1  0
 21 22  1  0
  9 23  1  0
 23 24  2  0
 24 25  1  0
 25 26  1  0
 25 27  1  0
 25 28  1  0
  5 29  1  0
 29 30  1  0
 30  2  1  0
 24  6  1  0
 21 10  2  0
 18 12  1  0
  1 31  1  0
  1 32  1  0
  1 33  1  0
  2 34  1  0
  3 35  1  0
  3 36  1  0
  4 37  1  0
  4 38  1  0
  7 39  1  0
  8 40  1  0
 13 41  1  0
 14 42  1  0
 15 43  1  0
 17 44  1  0
 22 45  1  0
 23 46  1  0
 29 47  1  0
 29 48  1  0
 30 49  1  0
 30 50  1  0
M  CHG  1   2   1
M  END
>  <meeko>  (7) 
{"is_sidechain": [false], "free_energy": -3.797, "intermolecular_energy": -4.838, "internal_energy": 0.381}

$$$$
cand_013_out
     RDKit          3D

 50 53  0  0  0  0  0  0  0  0999 V2000
  174.8100   17.7520   46.4730 C   0  0  0  0  0  0  0  0  0  0  0  0
  176.0440   18.4040   46.0420 N   0  0  0  0  0  0  0  0  0  0  0  0
  176.0910   19.8030   46.5290 C   0  0  0  0  0  0  0  0  0  0  0  0
  177.4070   20.5200   46.1460 C   0  0  0  0  0  0  0  0  0  0  0  0
  178.5670   19.7540   46.6610 N   0  0  0  0  0  0  0  0  0  0  0  0
  179.7930   20.4120   46.4710 C   0  0  0  0  0  0  0  0  0  0  0  0
  180.7910   19.8980   45.6300 C   0  0  0  0  0  0  0  0  0  0  0  0
  182.0040   20.5680   45.4480 C   0  0  0  0  0  0  0  0  0  0  0  0
  182.2540   21.7800   46.0960 C   0  0  0  0  0  0  0  0  0  0  0  0
  183.5370   22.4970   45.9430 C   0  0  0  0  0  0  0  0  0  0  0  0
  184.1090   22.3190   44.6880 O   0  0  0  0  0  0  0  0  0  0  0  0
  185.3070   22.9270   44.4130 C   0  0  0  0  0  0  0  0  0  0  0  0
  185.8380   22.7310   43.1370 C   0  0  0  0  0  0  0  0  0  0  0  0
  187.0560   23.3230   42.7920 C   0  0  0  0  0  0  0  0  0  0  0  0
  187.7400   24.1090   43.7200 C   0  0  0  0  0  0  0  0  0  0  0  0
  187.2070   24.3040   44.9910 C   0  0  0  0  0  0  0  0  0  0  0  0
  187.9300   25.0850   45.8520 O   0  0  0  0  0  0  0  0  0  0  0  0
  185.9890   23.7120   45.3370 C   0  0  0  0  0  0  0  0  0  0  0  0
  185.3950   23.8900   46.6630 C   0  0  0  0  0  0  0  0  0  0  0  0
  185.9390   24.5620   47.5360 O   0  0  0  0  0  0  0  0  0  0  0  0
  184.0980   23.2260   46.9260 C   0  0  0  0  0  0  0  0  0  0  0  0
  183.5530   23.3870   48.1860 O   0  0  0  0  0  0  0  0  0  0  0  0
  181.2620   22.2940   46.9430 C   0  0  0  0  0  0  0  0  0  0  0  0
  180.0330   21.6260   47.1360 C   0  0  0  0  0  0  0  0  0  0  0  0
  178.9940   22.2210   48.0540 C   0  0  0  0  0  0  0  0  0  0  0  0
  179.4980   23.2210   48.8430 F   0  0  0  0  0  0  0  0  0  0  0  0
  178.4590   21.3230   48.9330 F   0  0  0  0  0  0  0  0  0  0  0  0
  177.9440   22.7940   47.3980 F   0  0  0  0  0  0  0  0  0  0  0  0
  178.5580   18.3560   46.1670 C   0  0  0  0  0  0  0  0  0  0  0  0
  177.2260   17.6710   46.5530 C   0  0  0  0  0  0  0  0  0  0  0  0
  174.7708   17.7313   47.5721 H   0  0  0  0  0  0  0  0  0  0  0  0
  173.9454   18.3110   46.0857 H   0  0  0  0  0  0  0  0  0  0  0  0
  174.7845   16.7227   46.0857 H   0  0  0  0  0  0  0  0  0  0  0  0
  176.0610   18.4020   45.0220 H   0  0  0  0  0  0  0  0  0  0  0  0
  175.2473   20.3572   46.0919 H   0  0  0  0  0  0  0  0  0  0  0  0
  176.0323   19.7766   47.6271 H   0  0  0  0  0  0  0  0  0  0  0  0
  177.4763   20.5946   45.0507 H   0  0  0  0  0  0  0  0  0  0  0  0
  177.4128   21.5272   46.5883 H   0  0  0  0  0  0  0  0  0  0  0  0
  180.6154   18.9485   45.1031 H   0  0  0  0  0  0  0  0  0  0  0  0
  182.7702   20.1362   44.7873 H   0  0  0  0  0  0  0  0  0  0  0  0
  185.2989   22.1120   42.4047 H   0  0  0  0  0  0  0  0  0  0  0  0
  187.4762   23.1691   41.7871 H   0  0  0  0  0  0  0  0  0  0  0  0
  188.6990   24.5739   43.4476 H   0  0  0  0  0  0  0  0  0  0  0  0
  187.9370   24.8890   46.7680 H   0  0  0  0  0  0  0  0  0  0  0  0
  182.9420   24.0790   48.3480 H   0  0  0  0  0  0  0  0  0  0  0  0
  181.4457   23.2416   47.4705 H   0  0  0  0  0  0  0  0  0  0  0  0
  178.6650   18.3551   45.0722 H   0  0  0  0  0  0  0  0  0  0  0  0
  179.3943   17.8052   46.6222 H   0  0  0  0  0  0  0  0  0  0  0  0
  177.2182   16.6535   46.1352 H   0  0  0  0  0  0  0  0  0  0  0  0
  177.1625   17.6569   47.6511 H   0  0  0  0  0  0  0  0  0  0  0  0
  1  2  1  0
  2  3  1  0
  3  4  1  0
  4  5  1  0
  5  6  1  0
  6  7  2  0
  7  8  1  0
  8  9  2  0
  9 10  1  0
 10 11  1  0
 11 12  1  0
 12 13  2  0
 13 14  1  0
 14 15  2  0
 15 16  1  0
 16 17  1  0
 16 18  2  0
 18 19  1  0
 19 20  2  0
 19 21  1  0
 21 22  1  0
  9 23  1  0
 23 24  2  0
 24 25  1  0
 25 26  1  0
 25 27  1  0
 25 28  1  0
  5 29  1  0
 29 30  1  0
 30  2  1  0
 24  6  1  0
 21 10  2  0
 18 12  1  0
  1 31  1  0
  1 32  1  0
  1 33  1  0
  2 34  1  0
  3 35  1  0
  3 36  1  0
  4 37  1  0
  4 38  1  0
  7 39  1  0
  8 40  1  0
 13 41  1  0
 14 42  1  0
 15 43  1  0
 17 44  1  0
 22 45  1  0
 23 46  1  0
 29 47  1  0
 29 48  1  0
 30 49  1  0
 30 50  1  0
M  CHG  1   2   1
M  END
>  <meeko>  (8) 
{"is_sidechain": [false], "free_energy": -3.739, "intermolecular_energy": -5.29, "internal_energy": 0.905}

$$$$
cand_013_out
     RDKit          3D

 50 53  0  0  0  0  0  0  0  0999 V2000
  175.1740   17.7580   46.3410 C   0  0  0  0  0  0  0  0  0  0  0  0
  176.3840   18.4780   45.9490 N   0  0  0  0  0  0  0  0  0  0  0  0
  176.3500   19.8680   46.4620 C   0  0  0  0  0  0  0  0  0  0  0  0
  177.6370   20.6570   46.1220 C   0  0  0  0  0  0  0  0  0  0  0  0
  178.8220   19.9400   46.6510 N   0  0  0  0  0  0  0  0  0  0  0  0
  180.0180   20.6610   46.5000 C   0  0  0  0  0  0  0  0  0  0  0  0
  181.0660   20.2030   45.6880 C   0  0  0  0  0  0  0  0  0  0  0  0
  182.2480   20.9350   45.5450 C   0  0  0  0  0  0  0  0  0  0  0  0
  182.4150   22.1550   46.2060 C   0  0  0  0  0  0  0  0  0  0  0  0
  183.6640   22.9380   46.0950 C   0  0  0  0  0  0  0  0  0  0  0  0
  184.1360   23.3790   47.3270 O   0  0  0  0  0  0  0  0  0  0  0  0
  185.2880   24.1220   47.3680 C   0  0  0  0  0  0  0  0  0  0  0  0
  185.7310   24.5340   48.6250 C   0  0  0  0  0  0  0  0  0  0  0  0
  186.8980   25.2940   48.7380 C   0  0  0  0  0  0  0  0  0  0  0  0
  187.6200   25.6410   47.5940 C   0  0  0  0  0  0  0  0  0  0  0  0
  187.1760   25.2280   46.3410 C   0  0  0  0  0  0  0  0  0  0  0  0
  187.9300   25.6050   45.2630 O   0  0  0  0  0  0  0  0  0  0  0  0
  186.0080   24.4680   46.2290 C   0  0  0  0  0  0  0  0  0  0  0  0
  185.5060   24.0160   44.9310 C   0  0  0  0  0  0  0  0  0  0  0  0
  186.0810   24.2860   43.8790 O   0  0  0  0  0  0  0  0  0  0  0  0
  184.2640   23.2090   44.9210 C   0  0  0  0  0  0  0  0  0  0  0  0
  183.7890   22.8000   43.6890 O   0  0  0  0  0  0  0  0  0  0  0  0
  181.3730   22.6120   47.0250 C   0  0  0  0  0  0  0  0  0  0  0  0
  180.1750   21.8820   47.1780 C   0  0  0  0  0  0  0  0  0  0  0  0
  179.0790   22.4170   48.0670 C   0  0  0  0  0  0  0  0  0  0  0  0
  179.5250   23.3850   48.9280 F   0  0  0  0  0  0  0  0  0  0  0  0
  178.5150   21.4710   48.8720 F   0  0  0  0  0  0  0  0  0  0  0  0
  178.0560   23.0060   47.3830 F   0  0  0  0  0  0  0  0  0  0  0  0
  178.8930   18.5520   46.1330 C   0  0  0  0  0  0  0  0  0  0  0  0
  177.5890   17.7950   46.4760 C   0  0  0  0  0  0  0  0  0  0  0  0
  175.1095   17.7196   47.4384 H   0  0  0  0  0  0  0  0  0  0  0  0
  174.2916   18.2781   45.9398 H   0  0  0  0  0  0  0  0  0  0  0  0
  175.2102   16.7344   45.9398 H   0  0  0  0  0  0  0  0  0  0  0  0
  176.4240   18.4960   44.9300 H   0  0  0  0  0  0  0  0  0  0  0  0
  175.4894   20.3877   46.0157 H   0  0  0  0  0  0  0  0  0  0  0  0
  176.2685   19.8178   47.5578 H   0  0  0  0  0  0  0  0  0  0  0  0
  177.7272   20.7550   45.0301 H   0  0  0  0  0  0  0  0  0  0  0  0
  177.5823   21.6551   46.5812 H   0  0  0  0  0  0  0  0  0  0  0  0
  180.9553   19.2483   45.1529 H   0  0  0  0  0  0  0  0  0  0  0  0
  183.0548   20.5470   44.9059 H   0  0  0  0  0  0  0  0  0  0  0  0
  185.1623   24.2609   49.5261 H   0  0  0  0  0  0  0  0  0  0  0  0
  187.2483   25.6192   49.7287 H   0  0  0  0  0  0  0  0  0  0  0  0
  188.5384   26.2399   47.6830 H   0  0  0  0  0  0  0  0  0  0  0  0
  187.6190   26.2740   44.6850 H   0  0  0  0  0  0  0  0  0  0  0  0
  183.8200   23.3840   42.9570 H   0  0  0  0  0  0  0  0  0  0  0  0
  181.4923   23.5644   47.5623 H   0  0  0  0  0  0  0  0  0  0  0  0
  179.0241   18.5764   45.0411 H   0  0  0  0  0  0  0  0  0  0  0  0
  179.7451   18.0349   46.5983 H   0  0  0  0  0  0  0  0  0  0  0  0
  177.6416   16.7859   46.0414 H   0  0  0  0  0  0  0  0  0  0  0  0
  177.5011   17.7578   47.5719 H   0  0  0  0  0  0  0  0  0  0  0  0
  1  2  1  0
  2  3  1  0
  3  4  1  0
  4  5  1  0
  5  6  1  0
  6  7  2  0
  7  8  1  0
  8  9  2  0
  9 10  1  0
 10 11  1  0
 11 12  1  0
 12 13  2  0
 13 14  1  0
 14 15  2  0
 15 16  1  0
 16 17  1  0
 16 18  2  0
 18 19  1  0
 19 20  2  0
 19 21  1  0
 21 22  1  0
  9 23  1  0
 23 24  2  0
 24 25  1  0
 25 26  1  0
 25 27  1  0
 25 28  1  0
  5 29  1  0
 29 30  1  0
 30  2  1  0
 24  6  1  0
 21 10  2  0
 18 12  1  0
  1 31  1  0
  1 32  1  0
  1 33  1  0
  2 34  1  0
  3 35  1  0
  3 36  1  0
  4 37  1  0
  4 38  1  0
  7 39  1  0
  8 40  1  0
 13 41  1  0
 14 42  1  0
 15 43  1  0
 17 44  1  0
 22 45  1  0
 23 46  1  0
 29 47  1  0
 29 48  1  0
 30 49  1  0
 30 50  1  0
M  CHG  1   2   1
M  END
>  <meeko>  (9) 
{"is_sidechain": [false], "free_energy": -3.732, "intermolecular_energy": -5.077, "internal_energy": 0.7}

$$$$
