cand_055_out
     RDKit          3D

 41 43  0  0  0  0  0  0  0  0999 V2000
  181.2360   15.4160   40.3370 C   0  0  0  0  0  0  0  0  0  0  0  0
  180.9650   14.6090   41.5970 C   0  0  0  0  0  0  0  0  0  0  0  0
  181.9220   15.0000   42.7250 C   0  0  0  0  0  0  0  0  0  0  0  0
  181.3350   16.0740   43.6150 C   0  0  0  0  0  0  0  0  0  0  0  0
  181.7380   17.4030   43.4100 C   0  0  0  0  0  0  0  0  0  0  0  0
  181.2390   18.4380   44.2050 C   0  0  0  0  0  0  0  0  0  0  0  0
  180.3190   18.1730   45.2230 C   0  0  0  0  0  0  0  0  0  0  0  0
  179.7930   19.2460   46.0950 C   0  0  0  0  0  0  0  0  0  0  0  0
  178.4040   19.3160   46.0870 O   0  0  0  0  0  0  0  0  0  0  0  0
  177.7830   20.2680   46.8530 C   0  0  0  0  0  0  0  0  0  0  0  0
  176.3880   20.2930   46.8260 C   0  0  0  0  0  0  0  0  0  0  0  0
  175.6930   21.2390   47.5830 C   0  0  0  0  0  0  0  0  0  0  0  0
  176.3930   22.1600   48.3650 C   0  0  0  0  0  0  0  0  0  0  0  0
  177.7850   22.1320   48.3910 C   0  0  0  0  0  0  0  0  0  0  0  0
  178.4060   23.0640   49.1770 O   0  0  0  0  0  0  0  0  0  0  0  0
  178.4790   21.1850   47.6340 C   0  0  0  0  0  0  0  0  0  0  0  0
  179.9420   21.1230   47.6320 C   0  0  0  0  0  0  0  0  0  0  0  0
  180.6270   21.9030   48.2890 O   0  0  0  0  0  0  0  0  0  0  0  0
  180.5820   20.0770   46.8010 C   0  0  0  0  0  0  0  0  0  0  0  0
  181.9640   20.0350   46.7980 O   0  0  0  0  0  0  0  0  0  0  0  0
  179.9270   16.8430   45.4380 C   0  0  0  0  0  0  0  0  0  0  0  0
  180.4260   15.7870   44.6520 C   0  0  0  0  0  0  0  0  0  0  0  0
  179.9480   14.3890   44.9280 C   0  0  0  0  0  0  0  0  0  0  0  0
  181.5749   16.4252   40.6138 H   0  0  0  0  0  0  0  0  0  0  0  0
  182.0160   14.9174   39.7429 H   0  0  0  0  0  0  0  0  0  0  0  0
  180.3131   15.4892   39.7429 H   0  0  0  0  0  0  0  0  0  0  0  0
  179.9311   14.7927   41.9246 H   0  0  0  0  0  0  0  0  0  0  0  0
  181.1171   13.5443   41.3664 H   0  0  0  0  0  0  0  0  0  0  0  0
  182.1355   14.1099   43.3350 H   0  0  0  0  0  0  0  0  0  0  0  0
  182.8410   15.3983   42.2702 H   0  0  0  0  0  0  0  0  0  0  0  0
  182.4580   17.6332   42.6109 H   0  0  0  0  0  0  0  0  0  0  0  0
  181.5734   19.4709   44.0280 H   0  0  0  0  0  0  0  0  0  0  0  0
  175.8362   19.5684   46.2091 H   0  0  0  0  0  0  0  0  0  0  0  0
  174.5933   21.2585   47.5631 H   0  0  0  0  0  0  0  0  0  0  0  0
  175.8458   22.9064   48.9595 H   0  0  0  0  0  0  0  0  0  0  0  0
  179.3420   23.0990   49.2100 H   0  0  0  0  0  0  0  0  0  0  0  0
  182.4430   20.4570   46.1120 H   0  0  0  0  0  0  0  0  0  0  0  0
  179.2106   16.6195   46.2422 H   0  0  0  0  0  0  0  0  0  0  0  0
  179.8930   14.2282   46.0148 H   0  0  0  0  0  0  0  0  0  0  0  0
  178.9507   14.2484   44.4856 H   0  0  0  0  0  0  0  0  0  0  0  0
  180.6504   13.6673   44.4856 H   0  0  0  0  0  0  0  0  0  0  0  0
  1  2  1  0
  2  3  1  0
  3  4  1  0
  4  5  2  0
  5  6  1  0
  6  7  2  0
  7  8  1  0
  8  9  1  0
  9 10  1  0
 10 11  2  0
 11 12  1  0
 12 13  2  0
 13 14  1  0
 14 15  1  0
 14 16  2  0
 16 17  1  0
 17 18  2  0
 17 19  1  0
 19 20  1  0
  7 21  1  0
 21 22  2  0
 22 23  1  0
 22  4  1  0
 19  8  2  0
 16 10  1  0
  1 24  1  0
  1 25  1  0
  1 26  1  0
  2 27  1  0
  2 28  1  0
  3 29  1  0
  3 30  1  0
  5 31  1  0
  6 32  1  0
 11 33  1  0
 12 34  1  0
 13 35  1  0
 15 36  1  0
 20 37  1  0
 21 38  1  0
 23 39  1  0
 23 40  1  0
 23 41  1  0
M  END
>  <meeko>  (1) 
{"is_sidechain": [false], "free_energy": -8.807, "intermolecular_energy": -10.866, "internal_energy": -0.341}

$$$$
cand_055_out
     RDKit          3D

 41 43  0  0  0  0  0  0  0  0999 V2000
  177.7730   24.0920   47.3850 C   0  0  0  0  0  0  0  0  0  0  0  0
  177.3510   23.8130   48.8180 C   0  0  0  0  0  0  0  0  0  0  0  0
  176.7640   22.4080   48.9630 C   0  0  0  0  0  0  0  0  0  0  0  0
  177.5070   21.3980   48.1170 C   0  0  0  0  0  0  0  0  0  0  0  0
  178.9010   21.3010   48.2630 C   0  0  0  0  0  0  0  0  0  0  0  0
  179.6430   20.3950   47.5030 C   0  0  0  0  0  0  0  0  0  0  0  0
  179.0140   19.5560   46.5790 C   0  0  0  0  0  0  0  0  0  0  0  0
  179.7790   18.6050   45.7440 C   0  0  0  0  0  0  0  0  0  0  0  0
  179.2550   17.3170   45.7740 O   0  0  0  0  0  0  0  0  0  0  0  0
  179.8690   16.3340   45.0430 C   0  0  0  0  0  0  0  0  0  0  0  0
  179.3000   15.0600   45.0910 C   0  0  0  0  0  0  0  0  0  0  0  0
  179.8770   14.0120   44.3700 C   0  0  0  0  0  0  0  0  0  0  0  0
  181.0220   14.2370   43.6030 C   0  0  0  0  0  0  0  0  0  0  0  0
  181.5860   15.5090   43.5560 C   0  0  0  0  0  0  0  0  0  0  0  0
  182.7070   15.6590   42.7860 O   0  0  0  0  0  0  0  0  0  0  0  0
  181.0080   16.5570   44.2770 C   0  0  0  0  0  0  0  0  0  0  0  0
  181.5710   17.9090   44.2560 C   0  0  0  0  0  0  0  0  0  0  0  0
  182.5800   18.1840   43.6100 O   0  0  0  0  0  0  0  0  0  0  0  0
  180.8780   18.9510   45.0490 C   0  0  0  0  0  0  0  0  0  0  0  0
  181.4260   20.2210   45.0310 O   0  0  0  0  0  0  0  0  0  0  0  0
  177.6240   19.6630   46.4210 C   0  0  0  0  0  0  0  0  0  0  0  0
  176.8610   20.5760   47.1730 C   0  0  0  0  0  0  0  0  0  0  0  0
  175.3730   20.6230   46.9630 C   0  0  0  0  0  0  0  0  0  0  0  0
  178.6906   24.6987   47.3845 H   0  0  0  0  0  0  0  0  0  0  0  0
  177.9623   23.1404   46.8666 H   0  0  0  0  0  0  0  0  0  0  0  0
  176.9716   24.6389   46.8666 H   0  0  0  0  0  0  0  0  0  0  0  0
  178.2294   23.9034   49.4739 H   0  0  0  0  0  0  0  0  0  0  0  0
  176.5772   24.5424   49.0995 H   0  0  0  0  0  0  0  0  0  0  0  0
  176.8266   22.1033   50.0181 H   0  0  0  0  0  0  0  0  0  0  0  0
  175.7190   22.4374   48.6209 H   0  0  0  0  0  0  0  0  0  0  0  0
  179.4158   21.9491   48.9875 H   0  0  0  0  0  0  0  0  0  0  0  0
  180.7340   20.3409   47.6328 H   0  0  0  0  0  0  0  0  0  0  0  0
  178.3986   14.8818   45.6957 H   0  0  0  0  0  0  0  0  0  0  0  0
  179.4288   13.0081   44.4064 H   0  0  0  0  0  0  0  0  0  0  0  0
  181.4774   13.4109   43.0371 H   0  0  0  0  0  0  0  0  0  0  0  0
  182.8950   16.4870   42.3880 H   0  0  0  0  0  0  0  0  0  0  0  0
  181.9810   20.5010   45.7320 H   0  0  0  0  0  0  0  0  0  0  0  0
  177.1170   19.0161   45.6899 H   0  0  0  0  0  0  0  0  0  0  0  0
  174.8653   20.6390   47.9387 H   0  0  0  0  0  0  0  0  0  0  0  0
  175.1109   21.5299   46.3983 H   0  0  0  0  0  0  0  0  0  0  0  0
  175.0541   19.7345   46.3983 H   0  0  0  0  0  0  0  0  0  0  0  0
  1  2  1  0
  2  3  1  0
  3  4  1  0
  4  5  2  0
  5  6  1  0
  6  7  2  0
  7  8  1  0
  8  9  1  0
  9 10  1  0
 10 11  2  0
 11 12  1  0
 12 13  2  0
 13 14  1  0
 14 15  1  0
 14 16  2  0
 16 17  1  0
 17 18  2  0
 17 19  1  0
 19 20  1  0
  7 21  1  0
 21 22  2  0
 22 23  1  0
 22  4  1  0
 19  8  2  0
 16 10  1  0
  1 24  1  0
  1 25  1  0
  1 26  1  0
  2 27  1  0
  2 28  1  0
  3 29  1  0
  3 30  1  0
  5 31  1  0
  6 32  1  0
 11 33  1  0
 12 34  1  0
 13 35  1  0
 15 36  1  0
 20 37  1  0
 21 38  1  0
 23 39  1  0
 23 40  1  0
 23 41  1  0
M  END
>  <meeko>  (2) 
{"is_sidechain": [false], "free_energy": -7.159, "intermolecular_energy": -9.063, "internal_energy": -0.111}

$$$$
cand_055_out
     RDKit          3D

 41 43  0  0  0  0  0  0  0  0999 V2000
  181.2520   14.3620   41.7980 C   0  0  0  0  0  0  0  0  0  0  0  0
  181.5580   15.8220   42.0920 C   0  0  0  0  0  0  0  0  0  0  0  0
  181.9600   16.0250   43.5550 C   0  0  0  0  0  0  0  0  0  0  0  0
  180.9710   16.8990   44.2930 C   0  0  0  0  0  0  0  0  0  0  0  0
  181.1190   18.2930   44.2070 C   0  0  0  0  0  0  0  0  0  0  0  0
  180.2430   19.1530   44.8750 C   0  0  0  0  0  0  0  0  0  0  0  0
  179.1920   18.6440   45.6420 C   0  0  0  0  0  0  0  0  0  0  0  0
  178.2650   19.5310   46.3780 C   0  0  0  0  0  0  0  0  0  0  0  0
  178.8740   20.6990   46.8230 O   0  0  0  0  0  0  0  0  0  0  0  0
  178.1280   21.6120   47.5210 C   0  0  0  0  0  0  0  0  0  0  0  0
  178.7760   22.7770   47.9360 C   0  0  0  0  0  0  0  0  0  0  0  0
  178.0730   23.7480   48.6530 C   0  0  0  0  0  0  0  0  0  0  0  0
  176.7240   23.5540   48.9570 C   0  0  0  0  0  0  0  0  0  0  0  0
  176.0800   22.3910   48.5410 C   0  0  0  0  0  0  0  0  0  0  0  0
  174.7590   22.2650   48.8740 O   0  0  0  0  0  0  0  0  0  0  0  0
  176.7830   21.4210   47.8230 C   0  0  0  0  0  0  0  0  0  0  0  0
  176.1440   20.1850   47.3690 C   0  0  0  0  0  0  0  0  0  0  0  0
  174.9630   19.9390   47.6030 O   0  0  0  0  0  0  0  0  0  0  0  0
  176.9760   19.2230   46.6080 C   0  0  0  0  0  0  0  0  0  0  0  0
  176.3640   18.0530   46.1950 O   0  0  0  0  0  0  0  0  0  0  0  0
  179.0530   17.2510   45.7410 C   0  0  0  0  0  0  0  0  0  0  0  0
  179.9300   16.3700   45.0810 C   0  0  0  0  0  0  0  0  0  0  0  0
  179.7100   14.8890   45.2180 C   0  0  0  0  0  0  0  0  0  0  0  0
  181.1371   13.8136   42.7446 H   0  0  0  0  0  0  0  0  0  0  0  0
  180.3197   14.2923   41.2183 H   0  0  0  0  0  0  0  0  0  0  0  0
  182.0778   13.9238   41.2183 H   0  0  0  0  0  0  0  0  0  0  0  0
  182.3841   16.1518   41.4448 H   0  0  0  0  0  0  0  0  0  0  0  0
  180.6501   16.4119   41.8975 H   0  0  0  0  0  0  0  0  0  0  0  0
  182.0074   15.0441   44.0506 H   0  0  0  0  0  0  0  0  0  0  0  0
  182.9394   16.5254   43.5742 H   0  0  0  0  0  0  0  0  0  0  0  0
  181.9371   18.7145   43.6045 H   0  0  0  0  0  0  0  0  0  0  0  0
  180.3824   20.2413   44.7961 H   0  0  0  0  0  0  0  0  0  0  0  0
  179.8391   22.9300   47.6986 H   0  0  0  0  0  0  0  0  0  0  0  0
  178.5828   24.6668   48.9786 H   0  0  0  0  0  0  0  0  0  0  0  0
  176.1712   24.3178   49.5236 H   0  0  0  0  0  0  0  0  0  0  0  0
  174.3230   21.4440   48.7580 H   0  0  0  0  0  0  0  0  0  0  0  0
  176.8580   17.2590   46.1450 H   0  0  0  0  0  0  0  0  0  0  0  0
  178.2367   16.8366   46.3508 H   0  0  0  0  0  0  0  0  0  0  0  0
  179.6702   14.6213   46.2842 H   0  0  0  0  0  0  0  0  0  0  0  0
  178.7610   14.6130   44.7350 H   0  0  0  0  0  0  0  0  0  0  0  0
  180.5378   14.3491   44.7350 H   0  0  0  0  0  0  0  0  0  0  0  0
  1  2  1  0
  2  3  1  0
  3  4  1  0
  4  5  2  0
  5  6  1  0
  6  7  2  0
  7  8  1  0
  8  9  1  0
  9 10  1  0
 10 11  2  0
 11 12  1  0
 12 13  2  0
 13 14  1  0
 14 15  1  0
 14 16  2  0
 16 17  1  0
 17 18  2  0
 17 19  1  0
 19 20  1  0
  7 21  1  0
 21 22  2  0
 22 23  1  0
 22  4  1  0
 19  8  2  0
 16 10  1  0
  1 24  1  0
  1 25  1  0
  1 26  1  0
  2 27  1  0
  2 28  1  0
  3 29  1  0
  3 30  1  0
  5 31  1  0
  6 32  1  0
 11 33  1  0
 12 34  1  0
 13 35  1  0
 15 36  1  0
 20 37  1  0
 21 38  1  0
 23 39  1  0
 23 40  1  0
 23 41  1  0
M  END
>  <meeko>  (3) 
{"is_sidechain": [false], "free_energy": -7.114, "intermolecular_energy": -8.954, "internal_energy": -0.164}

$$$$
cand_055_out
     RDKit          3D

 41 43  0  0  0  0  0  0  0  0999 V2000
  181.2150   14.7620   41.2900 C   0  0  0  0  0  0  0  0  0  0  0  0
  180.5570   14.5140   42.6380 C   0  0  0  0  0  0  0  0  0  0  0  0
  181.4290   15.0260   43.7860 C   0  0  0  0  0  0  0  0  0  0  0  0
  180.8360   16.2560   44.4370 C   0  0  0  0  0  0  0  0  0  0  0  0
  179.6790   16.1050   45.2190 C   0  0  0  0  0  0  0  0  0  0  0  0
  179.0790   17.2050   45.8380 C   0  0  0  0  0  0  0  0  0  0  0  0
  179.6220   18.4850   45.6970 C   0  0  0  0  0  0  0  0  0  0  0  0
  178.9940   19.6700   46.3210 C   0  0  0  0  0  0  0  0  0  0  0  0
  177.6850   19.4360   46.7260 O   0  0  0  0  0  0  0  0  0  0  0  0
  176.9830   20.4530   47.3220 C   0  0  0  0  0  0  0  0  0  0  0  0
  175.6770   20.1700   47.7260 C   0  0  0  0  0  0  0  0  0  0  0  0
  174.9070   21.1610   48.3370 C   0  0  0  0  0  0  0  0  0  0  0  0
  175.4410   22.4350   48.5440 C   0  0  0  0  0  0  0  0  0  0  0  0
  176.7450   22.7140   48.1410 C   0  0  0  0  0  0  0  0  0  0  0  0
  177.2050   23.9810   48.3720 O   0  0  0  0  0  0  0  0  0  0  0  0
  177.5150   21.7210   47.5290 C   0  0  0  0  0  0  0  0  0  0  0  0
  178.8890   21.9730   47.0900 C   0  0  0  0  0  0  0  0  0  0  0  0
  179.4260   23.0700   47.2310 O   0  0  0  0  0  0  0  0  0  0  0  0
  179.6230   20.8520   46.4590 C   0  0  0  0  0  0  0  0  0  0  0  0
  180.9150   21.1050   46.0360 O   0  0  0  0  0  0  0  0  0  0  0  0
  180.7690   18.6390   44.9040 C   0  0  0  0  0  0  0  0  0  0  0  0
  181.3820   17.5430   44.2670 C   0  0  0  0  0  0  0  0  0  0  0  0
  182.6190   17.7810   43.4460 C   0  0  0  0  0  0  0  0  0  0  0  0
  182.2341   15.1461   41.4446 H   0  0  0  0  0  0  0  0  0  0  0  0
  181.2602   13.8192   40.7251 H   0  0  0  0  0  0  0  0  0  0  0  0
  180.6267   15.5001   40.7251 H   0  0  0  0  0  0  0  0  0  0  0  0
  179.5881   15.0342   42.6647 H   0  0  0  0  0  0  0  0  0  0  0  0
  180.4207   13.4297   42.7631 H   0  0  0  0  0  0  0  0  0  0  0  0
  181.5230   14.2331   44.5426 H   0  0  0  0  0  0  0  0  0  0  0  0
  182.4119   15.2978   43.3736 H   0  0  0  0  0  0  0  0  0  0  0  0
  179.2382   15.1052   45.3462 H   0  0  0  0  0  0  0  0  0  0  0  0
  178.1708   17.0620   46.4419 H   0  0  0  0  0  0  0  0  0  0  0  0
  175.2553   19.1672   47.5630 H   0  0  0  0  0  0  0  0  0  0  0  0
  173.8781   20.9383   48.6560 H   0  0  0  0  0  0  0  0  0  0  0  0
  174.8333   23.2161   49.0241 H   0  0  0  0  0  0  0  0  0  0  0  0
  178.1230   24.1340   48.4800 H   0  0  0  0  0  0  0  0  0  0  0  0
  181.0650   21.6580   45.2950 H   0  0  0  0  0  0  0  0  0  0  0  0
  181.2009   19.6426   44.7765 H   0  0  0  0  0  0  0  0  0  0  0  0
  183.4767   17.9460   44.1146 H   0  0  0  0  0  0  0  0  0  0  0  0
  182.8123   16.9036   42.8114 H   0  0  0  0  0  0  0  0  0  0  0  0
  182.4729   18.6675   42.8114 H   0  0  0  0  0  0  0  0  0  0  0  0
  1  2  1  0
  2  3  1  0
  3  4  1  0
  4  5  2  0
  5  6  1  0
  6  7  2  0
  7  8  1  0
  8  9  1  0
  9 10  1  0
 10 11  2  0
 11 12  1  0
 12 13  2  0
 13 14  1  0
 14 15  1  0
 14 16  2  0
 16 17  1  0
 17 18  2  0
 17 19  1  0
 19 20  1  0
  7 21  1  0
 21 22  2  0
 22 23  1  0
 22  4  1  0
 19  8  2  0
 16 10  1  0
  1 24  1  0
  1 25  1  0
  1 26  1  0
  2 27  1  0
  2 28  1  0
  3 29  1  0
  3 30  1  0
  5 31  1  0
  6 32  1  0
 11 33  1  0
 12 34  1  0
 13 35  1  0
 15 36  1  0
 20 37  1  0
 21 38  1  0
 23 39  1  0
 23 40  1  0
 23 41  1  0
M  END
>  <meeko>  (4) 
{"is_sidechain": [false], "free_energy": -6.496, "intermolecular_energy": -8.338, "internal_energy": -0.018}

$$$$
