cand_037_out
     RDKit          3D

 35 37  0  0  0  0  0  0  0  0999 V2000
  179.8930   14.3750   44.8490 C   0  0  0  0  0  0  0  0  0  0  0  0
  180.3930   15.7740   44.6150 C   0  0  0  0  0  0  0  0  0  0  0  0
  179.9080   16.8160   45.4270 C   0  0  0  0  0  0  0  0  0  0  0  0
  180.3330   18.1420   45.2560 C   0  0  0  0  0  0  0  0  0  0  0  0
  179.7820   19.2090   46.1180 C   0  0  0  0  0  0  0  0  0  0  0  0
  178.3920   19.2240   46.1380 O   0  0  0  0  0  0  0  0  0  0  0  0
  177.7490   20.1650   46.9000 C   0  0  0  0  0  0  0  0  0  0  0  0
  176.3530   20.1520   46.8790 C   0  0  0  0  0  0  0  0  0  0  0  0
  175.6370   21.0830   47.6340 C   0  0  0  0  0  0  0  0  0  0  0  0
  176.3150   22.0250   48.4110 C   0  0  0  0  0  0  0  0  0  0  0  0
  177.7070   22.0360   48.4310 C   0  0  0  0  0  0  0  0  0  0  0  0
  178.3070   22.9850   49.2130 O   0  0  0  0  0  0  0  0  0  0  0  0
  178.4240   21.1050   47.6740 C   0  0  0  0  0  0  0  0  0  0  0  0
  179.8880   21.0810   47.6660 C   0  0  0  0  0  0  0  0  0  0  0  0
  180.5550   21.8730   48.3280 O   0  0  0  0  0  0  0  0  0  0  0  0
  180.5520   20.0590   46.8240 C   0  0  0  0  0  0  0  0  0  0  0  0
  181.9340   20.0370   46.8350 O   0  0  0  0  0  0  0  0  0  0  0  0
  181.2460   18.4200   44.2340 C   0  0  0  0  0  0  0  0  0  0  0  0
  181.7300   17.3980   43.4120 C   0  0  0  0  0  0  0  0  0  0  0  0
  181.3040   16.0720   43.5820 C   0  0  0  0  0  0  0  0  0  0  0  0
  181.8680   15.0010   42.6820 C   0  0  0  0  0  0  0  0  0  0  0  0
  180.9810   14.5580   41.7460 F   0  0  0  0  0  0  0  0  0  0  0  0
  179.8254   14.1859   45.9305 H   0  0  0  0  0  0  0  0  0  0  0  0
  178.8982   14.2602   44.3938 H   0  0  0  0  0  0  0  0  0  0  0  0
  180.5897   13.6557   44.3938 H   0  0  0  0  0  0  0  0  0  0  0  0
  179.1771   16.5849   46.2159 H   0  0  0  0  0  0  0  0  0  0  0  0
  175.8181   19.4095   46.2686 H   0  0  0  0  0  0  0  0  0  0  0  0
  174.5372   21.0746   47.6168 H   0  0  0  0  0  0  0  0  0  0  0  0
  175.7499   22.7572   49.0064 H   0  0  0  0  0  0  0  0  0  0  0  0
  178.4290   22.8280   50.1280 H   0  0  0  0  0  0  0  0  0  0  0  0
  182.4140   20.4400   46.1380 H   0  0  0  0  0  0  0  0  0  0  0  0
  181.5870   19.4537   44.0752 H   0  0  0  0  0  0  0  0  0  0  0  0
  182.4554   17.6369   42.6204 H   0  0  0  0  0  0  0  0  0  0  0  0
  182.7478   15.4093   42.1630 H   0  0  0  0  0  0  0  0  0  0  0  0
  182.1232   14.1419   43.3199 H   0  0  0  0  0  0  0  0  0  0  0  0
  1  2  1  0
  2  3  2  0
  3  4  1  0
  4  5  1  0
  5  6  1  0
  6  7  1  0
  7  8  2  0
  8  9  1  0
  9 10  2  0
 10 11  1  0
 11 12  1  0
 11 13  2  0
 13 14  1  0
 14 15  2  0
 14 16  1  0
 16 17  1  0
  4 18  2  0
 18 19  1  0
 19 20  2  0
 20 21  1  0
 21 22  1  0
 20  2  1  0
 16  5  2  0
 13  7  1  0
  1 23  1  0
  1 24  1  0
  1 25  1  0
  3 26  1  0
  8 27  1  0
  9 28  1  0
 10 29  1  0
 12 30  1  0
 17 31  1  0
 18 32  1  0
 19 33  1  0
 21 34  1  0
 21 35  1  0
M  END
>  <meeko>  (1) 
{"is_sidechain": [false], "free_energy": -8.218, "intermolecular_energy": -9.659, "internal_energy": -0.242}

$$$$
cand_037_out
     RDKit          3D

 35 37  0  0  0  0  0  0  0  0999 V2000
  179.5500   15.2830   45.1950 C   0  0  0  0  0  0  0  0  0  0  0  0
  180.0600   16.6960   45.0960 C   0  0  0  0  0  0  0  0  0  0  0  0
  179.4470   17.6970   45.8720 C   0  0  0  0  0  0  0  0  0  0  0  0
  179.8740   19.0320   45.8220 C   0  0  0  0  0  0  0  0  0  0  0  0
  179.1890   20.0570   46.6390 C   0  0  0  0  0  0  0  0  0  0  0  0
  177.8190   19.8410   46.7380 O   0  0  0  0  0  0  0  0  0  0  0  0
  177.0610   20.7180   47.4700 C   0  0  0  0  0  0  0  0  0  0  0  0
  175.6880   20.4720   47.5310 C   0  0  0  0  0  0  0  0  0  0  0  0
  174.8590   21.3260   48.2600 C   0  0  0  0  0  0  0  0  0  0  0  0
  175.4010   22.4250   48.9290 C   0  0  0  0  0  0  0  0  0  0  0  0
  176.7710   22.6690   48.8680 C   0  0  0  0  0  0  0  0  0  0  0  0
  177.2350   23.7620   49.5470 O   0  0  0  0  0  0  0  0  0  0  0  0
  177.6000   21.8150   48.1360 C   0  0  0  0  0  0  0  0  0  0  0  0
  179.0450   22.0340   48.0450 C   0  0  0  0  0  0  0  0  0  0  0  0
  179.5970   22.9750   48.6110 O   0  0  0  0  0  0  0  0  0  0  0  0
  179.8340   21.0750   47.2380 C   0  0  0  0  0  0  0  0  0  0  0  0
  181.1990   21.2840   47.1710 O   0  0  0  0  0  0  0  0  0  0  0  0
  180.9220   19.3620   44.9560 C   0  0  0  0  0  0  0  0  0  0  0  0
  181.5340   18.3810   44.1710 C   0  0  0  0  0  0  0  0  0  0  0  0
  181.1070   17.0450   44.2200 C   0  0  0  0  0  0  0  0  0  0  0  0
  181.8100   16.0190   43.3680 C   0  0  0  0  0  0  0  0  0  0  0  0
  181.1330   15.7070   42.2260 F   0  0  0  0  0  0  0  0  0  0  0  0
  179.4489   15.0030   46.2540 H   0  0  0  0  0  0  0  0  0  0  0  0
  178.5694   15.2117   44.7017 H   0  0  0  0  0  0  0  0  0  0  0  0
  180.2590   14.6019   44.7017 H   0  0  0  0  0  0  0  0  0  0  0  0
  178.6119   17.4257   46.5345 H   0  0  0  0  0  0  0  0  0  0  0  0
  175.2600   19.6059   47.0050 H   0  0  0  0  0  0  0  0  0  0  0  0
  173.7771   21.1329   48.3075 H   0  0  0  0  0  0  0  0  0  0  0  0
  174.7469   23.0974   49.5036 H   0  0  0  0  0  0  0  0  0  0  0  0
  177.0630   23.8520   50.4630 H   0  0  0  0  0  0  0  0  0  0  0  0
  181.7030   21.3450   47.9590 H   0  0  0  0  0  0  0  0  0  0  0  0
  181.2679   20.4043   44.8923 H   0  0  0  0  0  0  0  0  0  0  0  0
  182.3632   18.6603   43.5044 H   0  0  0  0  0  0  0  0  0  0  0  0
  182.7982   16.4144   43.0904 H   0  0  0  0  0  0  0  0  0  0  0  0
  181.8831   15.0973   43.9640 H   0  0  0  0  0  0  0  0  0  0  0  0
  1  2  1  0
  2  3  2  0
  3  4  1  0
  4  5  1  0
  5  6  1  0
  6  7  1  0
  7  8  2  0
  8  9  1  0
  9 10  2  0
 10 11  1  0
 11 12  1  0
 11 13  2  0
 13 14  1  0
 14 15  2  0
 14 16  1  0
 16 17  1  0
  4 18  2  0
 18 19  1  0
 19 20  2  0
 20 21  1  0
 21 22  1  0
 20  2  1  0
 16  5  2  0
 13  7  1  0
  1 23  1  0
  1 24  1  0
  1 25  1  0
  3 26  1  0
  8 27  1  0
  9 28  1  0
 10 29  1  0
 12 30  1  0
 17 31  1  0
 18 32  1  0
 19 33  1  0
 21 34  1  0
 21 35  1  0
M  END
>  <meeko>  (2) 
{"is_sidechain": [false], "free_energy": -7.399, "intermolecular_energy": -8.865, "internal_energy": -0.073}

$$$$
cand_037_out
     RDKit          3D

 35 37  0  0  0  0  0  0  0  0999 V2000
  175.1670   20.3590   47.1840 C   0  0  0  0  0  0  0  0  0  0  0  0
  176.6620   20.4760   47.2980 C   0  0  0  0  0  0  0  0  0  0  0  0
  177.4740   19.6120   46.5390 C   0  0  0  0  0  0  0  0  0  0  0  0
  178.8740   19.6700   46.6050 C   0  0  0  0  0  0  0  0  0  0  0  0
  179.6880   18.7310   45.8050 C   0  0  0  0  0  0  0  0  0  0  0  0
  179.1730   17.4390   45.7980 O   0  0  0  0  0  0  0  0  0  0  0  0
  179.8310   16.4660   45.0920 C   0  0  0  0  0  0  0  0  0  0  0  0
  179.2860   15.1800   45.1250 C   0  0  0  0  0  0  0  0  0  0  0  0
  179.9070   14.1440   44.4260 C   0  0  0  0  0  0  0  0  0  0  0  0
  181.0710   14.3900   43.6950 C   0  0  0  0  0  0  0  0  0  0  0  0
  181.6120   15.6720   43.6630 C   0  0  0  0  0  0  0  0  0  0  0  0
  182.7520   15.8430   42.9270 O   0  0  0  0  0  0  0  0  0  0  0  0
  180.9920   16.7100   44.3640 C   0  0  0  0  0  0  0  0  0  0  0  0
  181.5280   18.0720   44.3570 C   0  0  0  0  0  0  0  0  0  0  0  0
  182.5420   18.3700   43.7320 O   0  0  0  0  0  0  0  0  0  0  0  0
  180.7980   19.0990   45.1390 C   0  0  0  0  0  0  0  0  0  0  0  0
  181.3050   20.3850   45.1140 O   0  0  0  0  0  0  0  0  0  0  0  0
  179.4600   20.6010   47.4680 C   0  0  0  0  0  0  0  0  0  0  0  0
  178.6680   21.4580   48.2380 C   0  0  0  0  0  0  0  0  0  0  0  0
  177.2670   21.4000   48.1730 C   0  0  0  0  0  0  0  0  0  0  0  0
  176.4560   22.3580   49.0080 C   0  0  0  0  0  0  0  0  0  0  0  0
  176.2910   23.5790   48.4240 F   0  0  0  0  0  0  0  0  0  0  0  0
  174.7241   20.3243   48.1903 H   0  0  0  0  0  0  0  0  0  0  0  0
  174.7716   21.2289   46.6391 H   0  0  0  0  0  0  0  0  0  0  0  0
  174.9118   19.4381   46.6391 H   0  0  0  0  0  0  0  0  0  0  0  0
  176.9986   18.8728   45.8775 H   0  0  0  0  0  0  0  0  0  0  0  0
  178.3693   14.9845   45.7007 H   0  0  0  0  0  0  0  0  0  0  0  0
  179.4785   13.1312   44.4509 H   0  0  0  0  0  0  0  0  0  0  0  0
  181.5596   13.5720   43.1454 H   0  0  0  0  0  0  0  0  0  0  0  0
  183.2160   16.6570   42.9640 H   0  0  0  0  0  0  0  0  0  0  0  0
  182.2320   20.5220   45.0910 H   0  0  0  0  0  0  0  0  0  0  0  0
  180.5559   20.6598   47.5419 H   0  0  0  0  0  0  0  0  0  0  0  0
  179.1498   22.1885   48.9046 H   0  0  0  0  0  0  0  0  0  0  0  0
  175.4632   21.9166   49.1798 H   0  0  0  0  0  0  0  0  0  0  0  0
  177.0075   22.5184   49.9461 H   0  0  0  0  0  0  0  0  0  0  0  0
  1  2  1  0
  2  3  2  0
  3  4  1  0
  4  5  1  0
  5  6  1  0
  6  7  1  0
  7  8  2  0
  8  9  1  0
  9 10  2  0
 10 11  1  0
 11 12  1  0
 11 13  2  0
 13 14  1  0
 14 15  2  0
 14 16  1  0
 16 17  1  0
  4 18  2  0
 18 19  1  0
 19 20  2  0
 20 21  1  0
 21 22  1  0
 20  2  1  0
 16  5  2  0
 13  7  1  0
  1 23  1  0
  1 24  1  0
  1 25  1  0
  3 26  1  0
  8 27  1  0
  9 28  1  0
 10 29  1  0
 12 30  1  0
 17 31  1  0
 18 32  1  0
 19 33  1  0
 21 34  1  0
 21 35  1  0
M  END
>  <meeko>  (3) 
{"is_sidechain": [false], "free_energy": -7.255, "intermolecular_energy": -8.646, "internal_energy": -0.123}

$$$$
cand_037_out
     RDKit          3D

 35 37  0  0  0  0  0  0  0  0999 V2000
  179.7340   15.1100   45.2060 C   0  0  0  0  0  0  0  0  0  0  0  0
  179.9620   16.5930   45.1010 C   0  0  0  0  0  0  0  0  0  0  0  0
  179.1150   17.4660   45.8090 C   0  0  0  0  0  0  0  0  0  0  0  0
  179.2740   18.8580   45.7490 C   0  0  0  0  0  0  0  0  0  0  0  0
  178.3490   19.7390   46.4930 C   0  0  0  0  0  0  0  0  0  0  0  0
  178.9520   20.9140   46.9260 O   0  0  0  0  0  0  0  0  0  0  0  0
  178.2050   21.8230   47.6290 C   0  0  0  0  0  0  0  0  0  0  0  0
  178.8550   22.9830   48.0580 C   0  0  0  0  0  0  0  0  0  0  0  0
  178.1510   23.9490   48.7770 C   0  0  0  0  0  0  0  0  0  0  0  0
  176.7980   23.7600   49.0690 C   0  0  0  0  0  0  0  0  0  0  0  0
  176.1520   22.6040   48.6400 C   0  0  0  0  0  0  0  0  0  0  0  0
  174.8270   22.4820   48.9590 O   0  0  0  0  0  0  0  0  0  0  0  0
  176.8570   21.6340   47.9210 C   0  0  0  0  0  0  0  0  0  0  0  0
  176.2160   20.4050   47.4520 C   0  0  0  0  0  0  0  0  0  0  0  0
  175.0290   20.1680   47.6620 O   0  0  0  0  0  0  0  0  0  0  0  0
  177.0540   19.4380   46.7040 C   0  0  0  0  0  0  0  0  0  0  0  0
  176.4350   18.2860   46.2540 O   0  0  0  0  0  0  0  0  0  0  0  0
  180.2930   19.3750   44.9420 C   0  0  0  0  0  0  0  0  0  0  0  0
  181.1360   18.5230   44.2240 C   0  0  0  0  0  0  0  0  0  0  0  0
  180.9760   17.1300   44.2830 C   0  0  0  0  0  0  0  0  0  0  0  0
  181.9230   16.2510   43.5050 C   0  0  0  0  0  0  0  0  0  0  0  0
  181.4300   15.8630   42.2940 F   0  0  0  0  0  0  0  0  0  0  0  0
  179.6894   14.8200   46.2662 H   0  0  0  0  0  0  0  0  0  0  0  0
  178.7852   14.8492   44.7143 H   0  0  0  0  0  0  0  0  0  0  0  0
  180.5606   14.5762   44.7143 H   0  0  0  0  0  0  0  0  0  0  0  0
  178.3070   17.0454   46.4256 H   0  0  0  0  0  0  0  0  0  0  0  0
  179.9202   23.1342   47.8291 H   0  0  0  0  0  0  0  0  0  0  0  0
  178.6627   24.8622   49.1150 H   0  0  0  0  0  0  0  0  0  0  0  0
  176.2446   24.5227   49.6365 H   0  0  0  0  0  0  0  0  0  0  0  0
  174.5760   22.1380   49.7930 H   0  0  0  0  0  0  0  0  0  0  0  0
  176.4180   17.5220   46.7960 H   0  0  0  0  0  0  0  0  0  0  0  0
  180.4321   20.4639   44.8720 H   0  0  0  0  0  0  0  0  0  0  0  0
  181.9371   18.9505   43.6032 H   0  0  0  0  0  0  0  0  0  0  0  0
  182.8579   16.8065   43.3392 H   0  0  0  0  0  0  0  0  0  0  0  0
  182.0814   15.3387   44.0987 H   0  0  0  0  0  0  0  0  0  0  0  0
  1  2  1  0
  2  3  2  0
  3  4  1  0
  4  5  1  0
  5  6  1  0
  6  7  1  0
  7  8  2  0
  8  9  1  0
  9 10  2  0
 10 11  1  0
 11 12  1  0
 11 13  2  0
 13 14  1  0
 14 15  2  0
 14 16  1  0
 16 17  1  0
  4 18  2  0
 18 19  1  0
 19 20  2  0
 20 21  1  0
 21 22  1  0
 20  2  1  0
 16  5  2  0
 13  7  1  0
  1 23  1  0
  1 24  1  0
  1 25  1  0
  3 26  1  0
  8 27  1  0
  9 28  1  0
 10 29  1  0
 12 30  1  0
 17 31  1  0
 18 32  1  0
 19 33  1  0
 21 34  1  0
 21 35  1  0
M  END
>  <meeko>  (4) 
{"is_sidechain": [false], "free_energy": -6.519, "intermolecular_energy": -7.961, "internal_energy": 0.057}

$$$$
