cand_014_out
     RDKit          3D

 35 37  0  0  0  0  0  0  0  0999 V2000
  181.9660   15.2230   42.6930 C   0  0  0  0  0  0  0  0  0  0  0  0
  181.3540   16.2500   43.6060 C   0  0  0  0  0  0  0  0  0  0  0  0
  181.7190   17.5960   43.4560 C   0  0  0  0  0  0  0  0  0  0  0  0
  181.1840   18.5810   44.2900 C   0  0  0  0  0  0  0  0  0  0  0  0
  180.2690   18.2490   45.2940 C   0  0  0  0  0  0  0  0  0  0  0  0
  179.7290   19.3030   46.1770 C   0  0  0  0  0  0  0  0  0  0  0  0
  178.3410   19.2900   46.2500 O   0  0  0  0  0  0  0  0  0  0  0  0
  177.7120   20.2220   47.0350 C   0  0  0  0  0  0  0  0  0  0  0  0
  176.3170   20.1860   47.0680 C   0  0  0  0  0  0  0  0  0  0  0  0
  175.6140   21.1040   47.8490 C   0  0  0  0  0  0  0  0  0  0  0  0
  176.3040   22.0590   48.5990 C   0  0  0  0  0  0  0  0  0  0  0  0
  177.6950   22.0940   48.5650 C   0  0  0  0  0  0  0  0  0  0  0  0
  178.3080   23.0540   49.3230 O   0  0  0  0  0  0  0  0  0  0  0  0
  178.3990   21.1750   47.7820 C   0  0  0  0  0  0  0  0  0  0  0  0
  179.8610   21.1770   47.7190 C   0  0  0  0  0  0  0  0  0  0  0  0
  180.5410   21.9790   48.3560 O   0  0  0  0  0  0  0  0  0  0  0  0
  180.5110   20.1660   46.8520 C   0  0  0  0  0  0  0  0  0  0  0  0
  181.8920   20.1670   46.8090 O   0  0  0  0  0  0  0  0  0  0  0  0
  179.9210   16.9010   45.4580 C   0  0  0  0  0  0  0  0  0  0  0  0
  180.4550   15.8920   44.6320 C   0  0  0  0  0  0  0  0  0  0  0  0
  180.0170   14.4610   44.8470 C   0  0  0  0  0  0  0  0  0  0  0  0
  180.9800   13.6760   45.4080 F   0  0  0  0  0  0  0  0  0  0  0  0
  179.6660   13.8280   43.6920 F   0  0  0  0  0  0  0  0  0  0  0  0
  182.4374   14.4320   43.2947 H   0  0  0  0  0  0  0  0  0  0  0  0
  181.1825   14.7833   42.0583 H   0  0  0  0  0  0  0  0  0  0  0  0
  182.7256   15.7028   42.0583 H   0  0  0  0  0  0  0  0  0  0  0  0
  182.4359   17.8798   42.6714 H   0  0  0  0  0  0  0  0  0  0  0  0
  181.4861   19.6301   44.1553 H   0  0  0  0  0  0  0  0  0  0  0  0
  175.7720   19.4341   46.4784 H   0  0  0  0  0  0  0  0  0  0  0  0
  174.5147   21.0755   47.8740 H   0  0  0  0  0  0  0  0  0  0  0  0
  175.7493   22.7819   49.2152 H   0  0  0  0  0  0  0  0  0  0  0  0
  177.9360   23.3090   50.1450 H   0  0  0  0  0  0  0  0  0  0  0  0
  182.3470   20.8420   46.3440 H   0  0  0  0  0  0  0  0  0  0  0  0
  179.2125   16.6236   46.2524 H   0  0  0  0  0  0  0  0  0  0  0  0
  179.1550   14.5704   45.5216 H   0  0  0  0  0  0  0  0  0  0  0  0
  1  2  1  0
  2  3  2  0
  3  4  1  0
  4  5  2  0
  5  6  1  0
  6  7  1  0
  7  8  1  0
  8  9  2  0
  9 10  1  0
 10 11  2  0
 11 12  1  0
 12 13  1  0
 12 14  2  0
 14 15  1  0
 15 16  2  0
 15 17  1  0
 17 18  1  0
  5 19  1  0
 19 20  2  0
 20 21  1  0
 21 22  1  0
 21 23  1  0
 20  2  1  0
 17  6  2  0
 14  8  1  0
  1 24  1  0
  1 25  1  0
  1 26  1  0
  3 27  1  0
  4 28  1  0
  9 29  1  0
 10 30  1  0
 11 31  1  0
 13 32  1  0
 18 33  1  0
 19 34  1  0
 21 35  1  0
M  END
>  <meeko>  (1) 
{"is_sidechain": [false], "free_energy": -8.799, "intermolecular_energy": -10.342, "internal_energy": -0.046}

$$$$
cand_014_out
     RDKit          3D

 35 37  0  0  0  0  0  0  0  0999 V2000
  176.6610   22.5350   48.9990 C   0  0  0  0  0  0  0  0  0  0  0  0
  177.4040   21.5160   48.1790 C   0  0  0  0  0  0  0  0  0  0  0  0
  178.7960   21.6300   48.0500 C   0  0  0  0  0  0  0  0  0  0  0  0
  179.5230   20.7120   47.2890 C   0  0  0  0  0  0  0  0  0  0  0  0
  178.8800   19.6550   46.6370 C   0  0  0  0  0  0  0  0  0  0  0  0
  179.6660   18.7050   45.8220 C   0  0  0  0  0  0  0  0  0  0  0  0
  179.1440   17.4180   45.8370 O   0  0  0  0  0  0  0  0  0  0  0  0
  179.7820   16.4370   45.1220 C   0  0  0  0  0  0  0  0  0  0  0  0
  179.2360   15.1540   45.1770 C   0  0  0  0  0  0  0  0  0  0  0  0
  179.8350   14.1100   44.4690 C   0  0  0  0  0  0  0  0  0  0  0  0
  180.9800   14.3480   43.7060 C   0  0  0  0  0  0  0  0  0  0  0  0
  181.5230   15.6290   43.6520 C   0  0  0  0  0  0  0  0  0  0  0  0
  182.6440   15.7920   42.8850 O   0  0  0  0  0  0  0  0  0  0  0  0
  180.9240   16.6730   44.3600 C   0  0  0  0  0  0  0  0  0  0  0  0
  181.4630   18.0330   44.3310 C   0  0  0  0  0  0  0  0  0  0  0  0
  182.4610   18.3250   43.6760 O   0  0  0  0  0  0  0  0  0  0  0  0
  180.7580   19.0670   45.1240 C   0  0  0  0  0  0  0  0  0  0  0  0
  181.2660   20.3520   45.0790 O   0  0  0  0  0  0  0  0  0  0  0  0
  177.4860   19.5530   46.7470 C   0  0  0  0  0  0  0  0  0  0  0  0
  176.7340   20.4740   47.5040 C   0  0  0  0  0  0  0  0  0  0  0  0
  175.2370   20.2900   47.6030 C   0  0  0  0  0  0  0  0  0  0  0  0
  174.8260   19.8180   48.8150 F   0  0  0  0  0  0  0  0  0  0  0  0
  174.7420   19.4110   46.6880 F   0  0  0  0  0  0  0  0  0  0  0  0
  176.8130   22.3266   50.0683 H   0  0  0  0  0  0  0  0  0  0  0  0
  177.0391   23.5409   48.7641 H   0  0  0  0  0  0  0  0  0  0  0  0
  175.5876   22.4826   48.7641 H   0  0  0  0  0  0  0  0  0  0  0  0
  179.3221   22.4535   48.5550 H   0  0  0  0  0  0  0  0  0  0  0  0
  180.6140   20.8216   47.2014 H   0  0  0  0  0  0  0  0  0  0  0  0
  178.3341   14.9651   45.7778 H   0  0  0  0  0  0  0  0  0  0  0  0
  179.4043   13.0988   44.5124 H   0  0  0  0  0  0  0  0  0  0  0  0
  181.4520   13.5253   43.1488 H   0  0  0  0  0  0  0  0  0  0  0  0
  182.5610   15.9770   41.9690 H   0  0  0  0  0  0  0  0  0  0  0  0
  180.7490   21.0490   44.7280 H   0  0  0  0  0  0  0  0  0  0  0  0
  176.9660   18.7334   46.2294 H   0  0  0  0  0  0  0  0  0  0  0  0
  174.8563   21.3068   47.4262 H   0  0  0  0  0  0  0  0  0  0  0  0
  1  2  1  0
  2  3  2  0
  3  4  1  0
  4  5  2  0
  5  6  1  0
  6  7  1  0
  7  8  1  0
  8  9  2  0
  9 10  1  0
 10 11  2  0
 11 12  1  0
 12 13  1  0
 12 14  2  0
 14 15  1  0
 15 16  2  0
 15 17  1  0
 17 18  1  0
  5 19  1  0
 19 20  2  0
 20 21  1  0
 21 22  1  0
 21 23  1  0
 20  2  1  0
 17  6  2  0
 14  8  1  0
  1 24  1  0
  1 25  1  0
  1 26  1  0
  3 27  1  0
  4 28  1  0
  9 29  1  0
 10 30  1  0
 11 31  1  0
 13 32  1  0
 18 33  1  0
 19 34  1  0
 21 35  1  0
M  END
>  <meeko>  (2) 
{"is_sidechain": [false], "free_energy": -7.738, "intermolecular_energy": -9.096, "internal_energy": -0.045}

$$$$
cand_014_out
     RDKit          3D

 35 37  0  0  0  0  0  0  0  0999 V2000
  181.1540   13.6450   42.2960 C   0  0  0  0  0  0  0  0  0  0  0  0
  180.9270   14.9260   43.0510 C   0  0  0  0  0  0  0  0  0  0  0  0
  180.5230   14.8630   44.3930 C   0  0  0  0  0  0  0  0  0  0  0  0
  180.2900   16.0280   45.1280 C   0  0  0  0  0  0  0  0  0  0  0  0
  180.4560   17.2870   44.5430 C   0  0  0  0  0  0  0  0  0  0  0  0
  180.1870   18.5070   45.3330 C   0  0  0  0  0  0  0  0  0  0  0  0
  178.8970   18.5460   45.8480 O   0  0  0  0  0  0  0  0  0  0  0  0
  178.5170   19.6290   46.5990 C   0  0  0  0  0  0  0  0  0  0  0  0
  177.2080   19.6370   47.0820 C   0  0  0  0  0  0  0  0  0  0  0  0
  176.7580   20.7080   47.8560 C   0  0  0  0  0  0  0  0  0  0  0  0
  177.6150   21.7710   48.1470 C   0  0  0  0  0  0  0  0  0  0  0  0
  178.9200   21.7610   47.6630 C   0  0  0  0  0  0  0  0  0  0  0  0
  179.7070   22.8330   47.9860 O   0  0  0  0  0  0  0  0  0  0  0  0
  179.3710   20.6890   46.8890 C   0  0  0  0  0  0  0  0  0  0  0  0
  180.7350   20.6390   46.3610 C   0  0  0  0  0  0  0  0  0  0  0  0
  181.5520   21.5310   46.5800 O   0  0  0  0  0  0  0  0  0  0  0  0
  181.1110   19.4630   45.5430 C   0  0  0  0  0  0  0  0  0  0  0  0
  182.4050   19.4180   45.0610 O   0  0  0  0  0  0  0  0  0  0  0  0
  180.8380   17.3510   43.1960 C   0  0  0  0  0  0  0  0  0  0  0  0
  181.0700   16.1880   42.4360 C   0  0  0  0  0  0  0  0  0  0  0  0
  181.5060   16.3280   40.9950 C   0  0  0  0  0  0  0  0  0  0  0  0
  181.4820   17.6150   40.5430 F   0  0  0  0  0  0  0  0  0  0  0  0
  180.7240   15.6280   40.1270 F   0  0  0  0  0  0  0  0  0  0  0  0
  181.3002   12.8202   43.0089 H   0  0  0  0  0  0  0  0  0  0  0  0
  180.2796   13.4323   41.6635 H   0  0  0  0  0  0  0  0  0  0  0  0
  182.0483   13.7457   41.6635 H   0  0  0  0  0  0  0  0  0  0  0  0
  180.3878   13.8826   44.8732 H   0  0  0  0  0  0  0  0  0  0  0  0
  179.9724   15.9540   46.1786 H   0  0  0  0  0  0  0  0  0  0  0  0
  176.5315   18.8004   46.8531 H   0  0  0  0  0  0  0  0  0  0  0  0
  175.7262   20.7144   48.2373 H   0  0  0  0  0  0  0  0  0  0  0  0
  177.2598   22.6144   48.7573 H   0  0  0  0  0  0  0  0  0  0  0  0
  180.3870   22.7390   48.6250 H   0  0  0  0  0  0  0  0  0  0  0  0
  182.9200   20.2000   45.0220 H   0  0  0  0  0  0  0  0  0  0  0  0
  180.9598   18.3351   42.7199 H   0  0  0  0  0  0  0  0  0  0  0  0
  182.5332   15.9349   41.0132 H   0  0  0  0  0  0  0  0  0  0  0  0
  1  2  1  0
  2  3  2  0
  3  4  1  0
  4  5  2  0
  5  6  1  0
  6  7  1  0
  7  8  1  0
  8  9  2  0
  9 10  1  0
 10 11  2  0
 11 12  1  0
 12 13  1  0
 12 14  2  0
 14 15  1  0
 15 16  2  0
 15 17  1  0
 17 18  1  0
  5 19  1  0
 19 20  2  0
 20 21  1  0
 21 22  1  0
 21 23  1  0
 20  2  1  0
 17  6  2  0
 14  8  1  0
  1 24  1  0
  1 25  1  0
  1 26  1  0
  3 27  1  0
  4 28  1  0
  9 29  1  0
 10 30  1  0
 11 31  1  0
 13 32  1  0
 18 33  1  0
 19 34  1  0
 21 35  1  0
M  END
>  <meeko>  (3) 
{"is_sidechain": [false], "free_energy": -7.525, "intermolecular_energy": -8.67, "internal_energy": -0.221}

$$$$
cand_014_out
     RDKit          3D

 35 37  0  0  0  0  0  0  0  0999 V2000
  180.6070   13.7470   43.4890 C   0  0  0  0  0  0  0  0  0  0  0  0
  180.4240   15.1190   44.0800 C   0  0  0  0  0  0  0  0  0  0  0  0
  179.5630   15.2780   45.1760 C   0  0  0  0  0  0  0  0  0  0  0  0
  179.3550   16.5350   45.7470 C   0  0  0  0  0  0  0  0  0  0  0  0
  180.0020   17.6670   45.2410 C   0  0  0  0  0  0  0  0  0  0  0  0
  179.7540   18.9910   45.8490 C   0  0  0  0  0  0  0  0  0  0  0  0
  178.4140   19.2110   46.1390 O   0  0  0  0  0  0  0  0  0  0  0  0
  178.0470   20.4060   46.7050 C   0  0  0  0  0  0  0  0  0  0  0  0
  176.6890   20.5950   46.9640 C   0  0  0  0  0  0  0  0  0  0  0  0
  176.2490   21.7870   47.5420 C   0  0  0  0  0  0  0  0  0  0  0  0
  177.1660   22.7910   47.8610 C   0  0  0  0  0  0  0  0  0  0  0  0
  178.5200   22.6010   47.6010 C   0  0  0  0  0  0  0  0  0  0  0  0
  179.3630   23.6240   47.9380 O   0  0  0  0  0  0  0  0  0  0  0  0
  178.9600   21.4080   47.0220 C   0  0  0  0  0  0  0  0  0  0  0  0
  180.3750   21.1680   46.7330 C   0  0  0  0  0  0  0  0  0  0  0  0
  181.2440   21.9980   46.9910 O   0  0  0  0  0  0  0  0  0  0  0  0
  180.7370   19.8730   46.1100 C   0  0  0  0  0  0  0  0  0  0  0  0
  182.0760   19.6500   45.8530 O   0  0  0  0  0  0  0  0  0  0  0  0
  180.8450   17.5120   44.1310 C   0  0  0  0  0  0  0  0  0  0  0  0
  181.0620   16.2530   43.5360 C   0  0  0  0  0  0  0  0  0  0  0  0
  182.0040   16.1520   42.3580 C   0  0  0  0  0  0  0  0  0  0  0  0
  181.3680   15.9470   41.1700 F   0  0  0  0  0  0  0  0  0  0  0  0
  182.8950   15.1280   42.4700 F   0  0  0  0  0  0  0  0  0  0  0  0
  180.7054   13.0091   44.2988 H   0  0  0  0  0  0  0  0  0  0  0  0
  179.7344   13.4958   42.8681 H   0  0  0  0  0  0  0  0  0  0  0  0
  181.5149   13.7333   42.8681 H   0  0  0  0  0  0  0  0  0  0  0  0
  179.0449   14.4009   45.5910 H   0  0  0  0  0  0  0  0  0  0  0  0
  178.6742   16.6362   46.6050 H   0  0  0  0  0  0  0  0  0  0  0  0
  175.9657   19.8052   46.7129 H   0  0  0  0  0  0  0  0  0  0  0  0
  175.1785   21.9358   47.7465 H   0  0  0  0  0  0  0  0  0  0  0  0
  176.8188   23.7300   48.3168 H   0  0  0  0  0  0  0  0  0  0  0  0
  179.9060   24.0190   47.2840 H   0  0  0  0  0  0  0  0  0  0  0  0
  182.5380   20.2030   45.2540 H   0  0  0  0  0  0  0  0  0  0  0  0
  181.3499   18.3959   43.7140 H   0  0  0  0  0  0  0  0  0  0  0  0
  182.5125   17.1273   42.3698 H   0  0  0  0  0  0  0  0  0  0  0  0
  1  2  1  0
  2  3  2  0
  3  4  1  0
  4  5  2  0
  5  6  1  0
  6  7  1  0
  7  8  1  0
  8  9  2  0
  9 10  1  0
 10 11  2  0
 11 12  1  0
 12 13  1  0
 12 14  2  0
 14 15  1  0
 15 16  2  0
 15 17  1  0
 17 18  1  0
  5 19  1  0
 19 20  2  0
 20 21  1  0
 21 22  1  0
 21 23  1  0
 20  2  1  0
 17  6  2  0
 14  8  1  0
  1 24  1  0
  1 25  1  0
  1 26  1  0
  3 27  1  0
  4 28  1  0
  9 29  1  0
 10 30  1  0
 11 31  1  0
 13 32  1  0
 18 33  1  0
 19 34  1  0
 21 35  1  0
M  END
>  <meeko>  (4) 
{"is_sidechain": [false], "free_energy": -7.371, "intermolecular_energy": -8.722, "internal_energy": 0.012}

$$$$
cand_014_out
     RDKit          3D

 35 37  0  0  0  0  0  0  0  0999 V2000
  182.1430   15.8220   43.3360 C   0  0  0  0  0  0  0  0  0  0  0  0
  181.1810   16.7020   44.0850 C   0  0  0  0  0  0  0  0  0  0  0  0
  181.3260   18.0950   44.0020 C   0  0  0  0  0  0  0  0  0  0  0  0
  180.4620   18.9480   44.6910 C   0  0  0  0  0  0  0  0  0  0  0  0
  179.4270   18.4350   45.4800 C   0  0  0  0  0  0  0  0  0  0  0  0
  178.5340   19.3540   46.2140 C   0  0  0  0  0  0  0  0  0  0  0  0
  179.1390   20.5670   46.5220 O   0  0  0  0  0  0  0  0  0  0  0  0
  178.4190   21.5110   47.2080 C   0  0  0  0  0  0  0  0  0  0  0  0
  179.0690   22.7070   47.5120 C   0  0  0  0  0  0  0  0  0  0  0  0
  178.3910   23.7120   48.2050 C   0  0  0  0  0  0  0  0  0  0  0  0
  177.0640   23.5210   48.5950 C   0  0  0  0  0  0  0  0  0  0  0  0
  176.4170   22.3270   48.2900 C   0  0  0  0  0  0  0  0  0  0  0  0
  175.1170   22.2060   48.7000 O   0  0  0  0  0  0  0  0  0  0  0  0
  177.0950   21.3220   47.5960 C   0  0  0  0  0  0  0  0  0  0  0  0
  176.4520   20.0520   47.2570 C   0  0  0  0  0  0  0  0  0  0  0  0
  175.2850   19.8110   47.5560 O   0  0  0  0  0  0  0  0  0  0  0  0
  177.2610   19.0470   46.5270 C   0  0  0  0  0  0  0  0  0  0  0  0
  176.6420   17.8560   46.1980 O   0  0  0  0  0  0  0  0  0  0  0  0
  179.2950   17.0420   45.5810 C   0  0  0  0  0  0  0  0  0  0  0  0
  180.1620   16.1650   44.9000 C   0  0  0  0  0  0  0  0  0  0  0  0
  179.9470   14.6740   45.0310 C   0  0  0  0  0  0  0  0  0  0  0  0
  181.0320   14.0100   45.5230 F   0  0  0  0  0  0  0  0  0  0  0  0
  179.6610   14.0660   43.8460 F   0  0  0  0  0  0  0  0  0  0  0  0
  182.7588   15.2587   44.0526 H   0  0  0  0  0  0  0  0  0  0  0  0
  181.5808   15.1190   42.7037 H   0  0  0  0  0  0  0  0  0  0  0  0
  182.7932   16.4445   42.7037 H   0  0  0  0  0  0  0  0  0  0  0  0
  182.1315   18.5208   43.3856 H   0  0  0  0  0  0  0  0  0  0  0  0
  180.5967   20.0369   44.6125 H   0  0  0  0  0  0  0  0  0  0  0  0
  180.1147   22.8584   47.2061 H   0  0  0  0  0  0  0  0  0  0  0  0
  178.9032   24.6557   48.4440 H   0  0  0  0  0  0  0  0  0  0  0  0
  176.5310   24.3125   49.1422 H   0  0  0  0  0  0  0  0  0  0  0  0
  174.5770   22.9690   48.7730 H   0  0  0  0  0  0  0  0  0  0  0  0
  175.7580   17.6970   46.4670 H   0  0  0  0  0  0  0  0  0  0  0  0
  178.4939   16.6238   46.2081 H   0  0  0  0  0  0  0  0  0  0  0  0
  179.0972   14.6123   45.7267 H   0  0  0  0  0  0  0  0  0  0  0  0
  1  2  1  0
  2  3  2  0
  3  4  1  0
  4  5  2  0
  5  6  1  0
  6  7  1  0
  7  8  1  0
  8  9  2  0
  9 10  1  0
 10 11  2  0
 11 12  1  0
 12 13  1  0
 12 14  2  0
 14 15  1  0
 15 16  2  0
 15 17  1  0
 17 18  1  0
  5 19  1  0
 19 20  2  0
 20 21  1  0
 21 22  1  0
 21 23  1  0
 20  2  1  0
 17  6  2  0
 14  8  1  0
  1 24  1  0
  1 25  1  0
  1 26  1  0
  3 27  1  0
  4 28  1  0
  9 29  1  0
 10 30  1  0
 11 31  1  0
 13 32  1  0
 18 33  1  0
 19 34  1  0
 21 35  1  0
M  END
>  <meeko>  (5) 
{"is_sidechain": [false], "free_energy": -7.307, "intermolecular_energy": -8.759, "internal_energy": 0.124}

$$$$
cand_014_out
     RDKit          3D

 35 37  0  0  0  0  0  0  0  0999 V2000
  175.5650   22.1500   48.6070 C   0  0  0  0  0  0  0  0  0  0  0  0
  176.5600   21.2970   47.8670 C   0  0  0  0  0  0  0  0  0  0  0  0
  176.1490   20.0540   47.3630 C   0  0  0  0  0  0  0  0  0  0  0  0
  177.0440   19.2260   46.6800 C   0  0  0  0  0  0  0  0  0  0  0  0
  178.3710   19.6190   46.4800 C   0  0  0  0  0  0  0  0  0  0  0  0
  179.3050   18.7210   45.7700 C   0  0  0  0  0  0  0  0  0  0  0  0
  178.8960   17.3930   45.7830 O   0  0  0  0  0  0  0  0  0  0  0  0
  179.6780   16.4540   45.1600 C   0  0  0  0  0  0  0  0  0  0  0  0
  179.2400   15.1300   45.2110 C   0  0  0  0  0  0  0  0  0  0  0  0
  179.9870   14.1250   44.5950 C   0  0  0  0  0  0  0  0  0  0  0  0
  181.1730   14.4420   43.9280 C   0  0  0  0  0  0  0  0  0  0  0  0
  181.6080   15.7630   43.8790 C   0  0  0  0  0  0  0  0  0  0  0  0
  182.7760   16.0040   43.2090 O   0  0  0  0  0  0  0  0  0  0  0  0
  180.8600   16.7690   44.4960 C   0  0  0  0  0  0  0  0  0  0  0  0
  181.2820   18.1700   44.4670 C   0  0  0  0  0  0  0  0  0  0  0  0
  182.3070   18.5310   43.8940 O   0  0  0  0  0  0  0  0  0  0  0  0
  180.4220   19.1590   45.1600 C   0  0  0  0  0  0  0  0  0  0  0  0
  180.8210   20.4820   45.1160 O   0  0  0  0  0  0  0  0  0  0  0  0
  178.7870   20.8510   47.0020 C   0  0  0  0  0  0  0  0  0  0  0  0
  177.9030   21.6970   47.7010 C   0  0  0  0  0  0  0  0  0  0  0  0
  178.4100   23.0250   48.2150 C   0  0  0  0  0  0  0  0  0  0  0  0
  178.2530   24.0470   47.3270 F   0  0  0  0  0  0  0  0  0  0  0  0
  179.7390   23.0120   48.5160 F   0  0  0  0  0  0  0  0  0  0  0  0
  175.7097   22.0259   49.6904 H   0  0  0  0  0  0  0  0  0  0  0  0
  175.7136   23.2056   48.3357 H   0  0  0  0  0  0  0  0  0  0  0  0
  174.5445   21.8419   48.3357 H   0  0  0  0  0  0  0  0  0  0  0  0
  175.1087   19.7268   47.5073 H   0  0  0  0  0  0  0  0  0  0  0  0
  176.7007   18.2543   46.2954 H   0  0  0  0  0  0  0  0  0  0  0  0
  178.3068   14.8788   45.7363 H   0  0  0  0  0  0  0  0  0  0  0  0
  179.6414   13.0814   44.6347 H   0  0  0  0  0  0  0  0  0  0  0  0
  181.7615   13.6494   43.4428 H   0  0  0  0  0  0  0  0  0  0  0  0
  183.1520   15.3370   42.6680 H   0  0  0  0  0  0  0  0  0  0  0  0
  181.5550   20.7670   45.6240 H   0  0  0  0  0  0  0  0  0  0  0  0
  179.8316   21.1662   46.8624 H   0  0  0  0  0  0  0  0  0  0  0  0
  177.7977   23.1864   49.1145 H   0  0  0  0  0  0  0  0  0  0  0  0
  1  2  1  0
  2  3  2  0
  3  4  1  0
  4  5  2  0
  5  6  1  0
  6  7  1  0
  7  8  1  0
  8  9  2  0
  9 10  1  0
 10 11  2  0
 11 12  1  0
 12 13  1  0
 12 14  2  0
 14 15  1  0
 15 16  2  0
 15 17  1  0
 17 18  1  0
  5 19  1  0
 19 20  2  0
 20 21  1  0
 21 22  1  0
 21 23  1  0
 20  2  1  0
 17  6  2  0
 14  8  1  0
  1 24  1  0
  1 25  1  0
  1 26  1  0
  3 27  1  0
  4 28  1  0
  9 29  1  0
 10 30  1  0
 11 31  1  0
 13 32  1  0
 18 33  1  0
 19 34  1  0
 21 35  1  0
M  END
>  <meeko>  (6) 
{"is_sidechain": [false], "free_energy": -7.05, "intermolecular_energy": -8.33, "internal_energy": -0.003}

$$$$
cand_014_out
     RDKit          3D

 35 37  0  0  0  0  0  0  0  0999 V2000
  175.5210   23.5010   49.5900 C   0  0  0  0  0  0  0  0  0  0  0  0
  176.5440   22.7030   48.8280 C   0  0  0  0  0  0  0  0  0  0  0  0
  177.6610   23.3620   48.2940 C   0  0  0  0  0  0  0  0  0  0  0  0
  178.6290   22.6610   47.5710 C   0  0  0  0  0  0  0  0  0  0  0  0
  178.5080   21.2840   47.3620 C   0  0  0  0  0  0  0  0  0  0  0  0
  179.5340   20.5640   46.5780 C   0  0  0  0  0  0  0  0  0  0  0  0
  179.1300   19.2910   46.1970 O   0  0  0  0  0  0  0  0  0  0  0  0
  179.9930   18.5150   45.4660 C   0  0  0  0  0  0  0  0  0  0  0  0
  179.5550   17.2360   45.1180 C   0  0  0  0  0  0  0  0  0  0  0  0
  180.3830   16.3960   44.3710 C   0  0  0  0  0  0  0  0  0  0  0  0
  181.6480   16.8330   43.9720 C   0  0  0  0  0  0  0  0  0  0  0  0
  182.0820   18.1080   44.3200 C   0  0  0  0  0  0  0  0  0  0  0  0
  183.3310   18.4730   43.8960 O   0  0  0  0  0  0  0  0  0  0  0  0
  181.2540   18.9490   45.0680 C   0  0  0  0  0  0  0  0  0  0  0  0
  181.6720   20.2970   45.4540 C   0  0  0  0  0  0  0  0  0  0  0  0
  182.7660   20.7580   45.1340 O   0  0  0  0  0  0  0  0  0  0  0  0
  180.7230   21.1060   46.2550 C   0  0  0  0  0  0  0  0  0  0  0  0
  181.1200   22.3830   46.6040 O   0  0  0  0  0  0  0  0  0  0  0  0
  177.3800   20.6290   47.8760 C   0  0  0  0  0  0  0  0  0  0  0  0
  176.3900   21.3190   48.6020 C   0  0  0  0  0  0  0  0  0  0  0  0
  175.2120   20.5470   49.1510 C   0  0  0  0  0  0  0  0  0  0  0  0
  175.5720   19.5020   49.9490 F   0  0  0  0  0  0  0  0  0  0  0  0
  174.4260   20.0030   48.1800 F   0  0  0  0  0  0  0  0  0  0  0  0
  175.6858   23.3724   50.6700 H   0  0  0  0  0  0  0  0  0  0  0  0
  175.6171   24.5652   49.3286 H   0  0  0  0  0  0  0  0  0  0  0  0
  174.5122   23.1488   49.3286 H   0  0  0  0  0  0  0  0  0  0  0  0
  177.7763   24.4453   48.4466 H   0  0  0  0  0  0  0  0  0  0  0  0
  179.4967   23.1988   47.1613 H   0  0  0  0  0  0  0  0  0  0  0  0
  178.5589   16.8905   45.4319 H   0  0  0  0  0  0  0  0  0  0  0  0
  180.0384   15.3882   44.0962 H   0  0  0  0  0  0  0  0  0  0  0  0
  182.2998   16.1704   43.3838 H   0  0  0  0  0  0  0  0  0  0  0  0
  183.7620   19.2080   44.2870 H   0  0  0  0  0  0  0  0  0  0  0  0
  181.7250   22.5100   47.3080 H   0  0  0  0  0  0  0  0  0  0  0  0
  177.2653   19.5480   47.7078 H   0  0  0  0  0  0  0  0  0  0  0  0
  174.6672   21.3120   49.7237 H   0  0  0  0  0  0  0  0  0  0  0  0
  1  2  1  0
  2  3  2  0
  3  4  1  0
  4  5  2  0
  5  6  1  0
  6  7  1  0
  7  8  1  0
  8  9  2  0
  9 10  1  0
 10 11  2  0
 11 12  1  0
 12 13  1  0
 12 14  2  0
 14 15  1  0
 15 16  2  0
 15 17  1  0
 17 18  1  0
  5 19  1  0
 19 20  2  0
 20 21  1  0
 21 22  1  0
 21 23  1  0
 20  2  1  0
 17  6  2  0
 14  8  1  0
  1 24  1  0
  1 25  1  0
  1 26  1  0
  3 27  1  0
  4 28  1  0
  9 29  1  0
 10 30  1  0
 11 31  1  0
 13 32  1  0
 18 33  1  0
 19 34  1  0
 21 35  1  0
M  END
>  <meeko>  (7) 
{"is_sidechain": [false], "free_energy": -6.036, "intermolecular_energy": -7.286, "internal_energy": 0.144}

$$$$
cand_014_out
     RDKit          3D

 35 37  0  0  0  0  0  0  0  0999 V2000
  187.1970   24.3680   45.4150 C   0  0  0  0  0  0  0  0  0  0  0  0
  185.8910   23.6310   45.5380 C   0  0  0  0  0  0  0  0  0  0  0  0
  185.1400   23.7680   46.7150 C   0  0  0  0  0  0  0  0  0  0  0  0
  183.9280   23.0930   46.8760 C   0  0  0  0  0  0  0  0  0  0  0  0
  183.4310   22.2640   45.8640 C   0  0  0  0  0  0  0  0  0  0  0  0
  182.1560   21.5450   46.0610 C   0  0  0  0  0  0  0  0  0  0  0  0
  181.2430   22.2600   46.8260 O   0  0  0  0  0  0  0  0  0  0  0  0
  180.0170   21.7020   47.0860 C   0  0  0  0  0  0  0  0  0  0  0  0
  179.1360   22.4460   47.8730 C   0  0  0  0  0  0  0  0  0  0  0  0
  177.8710   21.9370   48.1730 C   0  0  0  0  0  0  0  0  0  0  0  0
  177.4860   20.6860   47.6870 C   0  0  0  0  0  0  0  0  0  0  0  0
  178.3660   19.9460   46.9030 C   0  0  0  0  0  0  0  0  0  0  0  0
  177.9250   18.7290   46.4590 O   0  0  0  0  0  0  0  0  0  0  0  0
  179.6320   20.4550   46.6020 C   0  0  0  0  0  0  0  0  0  0  0  0
  180.5880   19.7100   45.7820 C   0  0  0  0  0  0  0  0  0  0  0  0
  180.3210   18.6060   45.3100 O   0  0  0  0  0  0  0  0  0  0  0  0
  181.9080   20.3340   45.5290 C   0  0  0  0  0  0  0  0  0  0  0  0
  182.7980   19.6290   44.7410 O   0  0  0  0  0  0  0  0  0  0  0  0
  184.1920   22.1100   44.6960 C   0  0  0  0  0  0  0  0  0  0  0  0
  185.4200   22.7760   44.5190 C   0  0  0  0  0  0  0  0  0  0  0  0
  186.1770   22.5860   43.2240 C   0  0  0  0  0  0  0  0  0  0  0  0
  185.4950   23.0230   42.1270 F   0  0  0  0  0  0  0  0  0  0  0  0
  186.4780   21.2830   42.9640 F   0  0  0  0  0  0  0  0  0  0  0  0
  187.5891   24.5893   46.4186 H   0  0  0  0  0  0  0  0  0  0  0  0
  187.9198   23.7446   44.8682 H   0  0  0  0  0  0  0  0  0  0  0  0
  187.0369   25.3090   44.8682 H   0  0  0  0  0  0  0  0  0  0  0  0
  185.5110   24.4163   47.5225 H   0  0  0  0  0  0  0  0  0  0  0  0
  183.3577   23.2143   47.8087 H   0  0  0  0  0  0  0  0  0  0  0  0
  179.4381   23.4319   48.2562 H   0  0  0  0  0  0  0  0  0  0  0  0
  177.1765   22.5226   48.7933 H   0  0  0  0  0  0  0  0  0  0  0  0
  176.4889   20.2861   47.9234 H   0  0  0  0  0  0  0  0  0  0  0  0
  177.9900   17.9770   47.0140 H   0  0  0  0  0  0  0  0  0  0  0  0
  183.6010   20.0280   44.4690 H   0  0  0  0  0  0  0  0  0  0  0  0
  183.8198   21.4517   43.8972 H   0  0  0  0  0  0  0  0  0  0  0  0
  187.0874   23.1817   43.3861 H   0  0  0  0  0  0  0  0  0  0  0  0
  1  2  1  0
  2  3  2  0
  3  4  1  0
  4  5  2  0
  5  6  1  0
  6  7  1  0
  7  8  1  0
  8  9  2  0
  9 10  1  0
 10 11  2  0
 11 12  1  0
 12 13  1  0
 12 14  2  0
 14 15  1  0
 15 16  2  0
 15 17  1  0
 17 18  1  0
  5 19  1  0
 19 20  2  0
 20 21  1  0
 21 22  1  0
 21 23  1  0
 20  2  1  0
 17  6  2  0
 14  8  1  0
  1 24  1  0
  1 25  1  0
  1 26  1  0
  3 27  1  0
  4 28  1  0
  9 29  1  0
 10 30  1  0
 11 31  1  0
 13 32  1  0
 18 33  1  0
 19 34  1  0
 21 35  1  0
M  END
>  <meeko>  (8) 
{"is_sidechain": [false], "free_energy": -5.876, "intermolecular_energy": -6.894, "internal_energy": -0.059}

$$$$
cand_014_out
     RDKit          3D

 35 37  0  0  0  0  0  0  0  0999 V2000
  179.5710   21.7030   48.1450 C   0  0  0  0  0  0  0  0  0  0  0  0
  179.7510   20.5600   47.1830 C   0  0  0  0  0  0  0  0  0  0  0  0
  181.0340   20.2870   46.6840 C   0  0  0  0  0  0  0  0  0  0  0  0
  181.2440   19.2430   45.7810 C   0  0  0  0  0  0  0  0  0  0  0  0
  180.1800   18.4420   45.3530 C   0  0  0  0  0  0  0  0  0  0  0  0
  180.4210   17.3530   44.3830 C   0  0  0  0  0  0  0  0  0  0  0  0
  180.7530   17.8190   43.1170 O   0  0  0  0  0  0  0  0  0  0  0  0
  180.9990   16.9090   42.1210 C   0  0  0  0  0  0  0  0  0  0  0  0
  181.3110   17.4190   40.8600 C   0  0  0  0  0  0  0  0  0  0  0  0
  181.5760   16.5470   39.8020 C   0  0  0  0  0  0  0  0  0  0  0  0
  181.5290   15.1660   40.0040 C   0  0  0  0  0  0  0  0  0  0  0  0
  181.2170   14.6600   41.2630 C   0  0  0  0  0  0  0  0  0  0  0  0
  181.1890   13.2980   41.3910 O   0  0  0  0  0  0  0  0  0  0  0  0
  180.9520   15.5320   42.3210 C   0  0  0  0  0  0  0  0  0  0  0  0
  180.6200   15.0420   43.6590 C   0  0  0  0  0  0  0  0  0  0  0  0
  180.5670   13.8410   43.9200 O   0  0  0  0  0  0  0  0  0  0  0  0
  180.3470   16.0500   44.7110 C   0  0  0  0  0  0  0  0  0  0  0  0
  180.0480   15.5770   45.9750 O   0  0  0  0  0  0  0  0  0  0  0  0
  178.8950   18.7290   45.8340 C   0  0  0  0  0  0  0  0  0  0  0  0
  178.6610   19.7820   46.7400 C   0  0  0  0  0  0  0  0  0  0  0  0
  177.2540   20.0200   47.2400 C   0  0  0  0  0  0  0  0  0  0  0  0
  176.5270   18.8750   47.3820 F   0  0  0  0  0  0  0  0  0  0  0  0
  176.5170   20.8130   46.4130 F   0  0  0  0  0  0  0  0  0  0  0  0
  179.6303   21.3266   49.1769 H   0  0  0  0  0  0  0  0  0  0  0  0
  180.3628   22.4487   47.9807 H   0  0  0  0  0  0  0  0  0  0  0  0
  178.5884   22.1693   47.9807 H   0  0  0  0  0  0  0  0  0  0  0  0
  181.8852   20.9035   47.0085 H   0  0  0  0  0  0  0  0  0  0  0  0
  182.2580   19.0481   45.4017 H   0  0  0  0  0  0  0  0  0  0  0  0
  181.3481   18.5066   40.6997 H   0  0  0  0  0  0  0  0  0  0  0  0
  181.8222   16.9485   38.8079 H   0  0  0  0  0  0  0  0  0  0  0  0
  181.7380   14.4795   39.1703 H   0  0  0  0  0  0  0  0  0  0  0  0
  181.4850   12.7550   40.6870 H   0  0  0  0  0  0  0  0  0  0  0  0
  179.2710   15.0730   46.1150 H   0  0  0  0  0  0  0  0  0  0  0  0
  178.0470   18.1158   45.4950 H   0  0  0  0  0  0  0  0  0  0  0  0
  177.4216   20.5044   48.2133 H   0  0  0  0  0  0  0  0  0  0  0  0
  1  2  1  0
  2  3  2  0
  3  4  1  0
  4  5  2  0
  5  6  1  0
  6  7  1  0
  7  8  1  0
  8  9  2  0
  9 10  1  0
 10 11  2  0
 11 12  1  0
 12 13  1  0
 12 14  2  0
 14 15  1  0
 15 16  2  0
 15 17  1  0
 17 18  1  0
  5 19  1  0
 19 20  2  0
 20 21  1  0
 21 22  1  0
 21 23  1  0
 20  2  1  0
 17  6  2  0
 14  8  1  0
  1 24  1  0
  1 25  1  0
  1 26  1  0
  3 27  1  0
  4 28  1  0
  9 29  1  0
 10 30  1  0
 11 31  1  0
 13 32  1  0
 18 33  1  0
 19 34  1  0
 21 35  1  0
M  END
>  <meeko>  (9) 
{"is_sidechain": [false], "free_energy": -5.875, "intermolecular_energy": -6.457, "internal_energy": -0.495}

$$$$
