cand_009_out
     RDKit          3D

 41 43  0  0  0  0  0  0  0  0999 V2000
  177.0700   22.9310   48.8590 C   0  0  0  0  0  0  0  0  0  0  0  0
  177.7400   21.8530   48.0510 C   0  0  0  0  0  0  0  0  0  0  0  0
  179.0640   22.0620   47.6280 C   0  0  0  0  0  0  0  0  0  0  0  0
  179.7400   21.1010   46.8730 C   0  0  0  0  0  0  0  0  0  0  0  0
  179.1110   19.9060   46.5140 C   0  0  0  0  0  0  0  0  0  0  0  0
  179.8500   18.8890   45.7370 C   0  0  0  0  0  0  0  0  0  0  0  0
  179.2560   17.6340   45.7860 O   0  0  0  0  0  0  0  0  0  0  0  0
  179.8380   16.5960   45.1050 C   0  0  0  0  0  0  0  0  0  0  0  0
  179.1990   15.3570   45.1710 C   0  0  0  0  0  0  0  0  0  0  0  0
  179.7420   14.2570   44.5010 C   0  0  0  0  0  0  0  0  0  0  0  0
  180.9230   14.3970   43.7680 C   0  0  0  0  0  0  0  0  0  0  0  0
  181.5580   15.6340   43.7060 C   0  0  0  0  0  0  0  0  0  0  0  0
  182.7110   15.7000   42.9720 O   0  0  0  0  0  0  0  0  0  0  0  0
  181.0150   16.7340   44.3750 C   0  0  0  0  0  0  0  0  0  0  0  0
  181.6500   18.0510   44.3340 C   0  0  0  0  0  0  0  0  0  0  0  0
  182.6950   18.2520   43.7180 O   0  0  0  0  0  0  0  0  0  0  0  0
  180.9900   19.1540   45.0710 C   0  0  0  0  0  0  0  0  0  0  0  0
  181.6060   20.3910   45.0360 O   0  0  0  0  0  0  0  0  0  0  0  0
  177.7940   19.6930   46.9460 C   0  0  0  0  0  0  0  0  0  0  0  0
  177.0870   20.6510   47.7070 C   0  0  0  0  0  0  0  0  0  0  0  0
  175.6520   20.3560   48.1310 C   0  0  0  0  0  0  0  0  0  0  0  0
  175.6030   19.6480   49.4890 C   0  0  0  0  0  0  0  0  0  0  0  0
  174.9020   19.5490   47.0660 C   0  0  0  0  0  0  0  0  0  0  0  0
  177.2007   22.7207   49.9308 H   0  0  0  0  0  0  0  0  0  0  0  0
  177.5226   23.9043   48.6185 H   0  0  0  0  0  0  0  0  0  0  0  0
  175.9969   22.9561   48.6185 H   0  0  0  0  0  0  0  0  0  0  0  0
  179.5762   22.9979   47.8960 H   0  0  0  0  0  0  0  0  0  0  0  0
  180.7775   21.2866   46.5580 H   0  0  0  0  0  0  0  0  0  0  0  0
  178.2698   15.2463   45.7492 H   0  0  0  0  0  0  0  0  0  0  0  0
  179.2389   13.2801   44.5509 H   0  0  0  0  0  0  0  0  0  0  0  0
  181.3503   13.5312   43.2408 H   0  0  0  0  0  0  0  0  0  0  0  0
  183.4340   15.1440   43.1860 H   0  0  0  0  0  0  0  0  0  0  0  0
  182.5030   20.4750   45.2940 H   0  0  0  0  0  0  0  0  0  0  0  0
  177.2946   18.7486   46.6837 H   0  0  0  0  0  0  0  0  0  0  0  0
  175.1412   21.3245   48.2367 H   0  0  0  0  0  0  0  0  0  0  0  0
  175.6547   20.3955   50.2943 H   0  0  0  0  0  0  0  0  0  0  0  0
  174.6635   19.0821   49.5738 H   0  0  0  0  0  0  0  0  0  0  0  0
  176.4555   18.9581   49.5738 H   0  0  0  0  0  0  0  0  0  0  0  0
  174.2318   18.8279   47.5568 H   0  0  0  0  0  0  0  0  0  0  0  0
  174.3100   20.2313   46.4383 H   0  0  0  0  0  0  0  0  0  0  0  0
  175.6258   19.0085   46.4383 H   0  0  0  0  0  0  0  0  0  0  0  0
  1  2  1  0
  2  3  2  0
  3  4  1  0
  4  5  2  0
  5  6  1  0
  6  7  1  0
  7  8  1  0
  8  9  2  0
  9 10  1  0
 10 11  2  0
 11 12  1  0
 12 13  1  0
 12 14  2  0
 14 15  1  0
 15 16  2  0
 15 17  1  0
 17 18  1  0
  5 19  1  0
 19 20  2  0
 20 21  1  0
 21 22  1  0
 21 23  1  0
 20  2  1  0
 17  6  2  0
 14  8  1  0
  1 24  1  0
  1 25  1  0
  1 26  1  0
  3 27  1  0
  4 28  1  0
  9 29  1  0
 10 30  1  0
 11 31  1  0
 13 32  1  0
 18 33  1  0
 19 34  1  0
 21 35  1  0
 22 36  1  0
 22 37  1  0
 22 38  1  0
 23 39  1  0
 23 40  1  0
 23 41  1  0
M  END
>  <meeko>  (1) 
{"is_sidechain": [false], "free_energy": -7.807, "intermolecular_energy": -9.177, "internal_energy": 0.034}

$$$$
cand_009_out
     RDKit          3D

 41 43  0  0  0  0  0  0  0  0999 V2000
  182.2150   15.9890   42.8620 C   0  0  0  0  0  0  0  0  0  0  0  0
  181.3970   16.8190   43.8120 C   0  0  0  0  0  0  0  0  0  0  0  0
  181.6690   18.1950   43.9000 C   0  0  0  0  0  0  0  0  0  0  0  0
  180.9470   19.0190   44.7650 C   0  0  0  0  0  0  0  0  0  0  0  0
  179.9350   18.4920   45.5710 C   0  0  0  0  0  0  0  0  0  0  0  0
  179.1630   19.3840   46.4620 C   0  0  0  0  0  0  0  0  0  0  0  0
  177.7960   19.1340   46.4250 O   0  0  0  0  0  0  0  0  0  0  0  0
  176.9610   19.8900   47.2070 C   0  0  0  0  0  0  0  0  0  0  0  0
  175.5990   19.5940   47.1490 C   0  0  0  0  0  0  0  0  0  0  0  0
  174.6940   20.3290   47.9190 C   0  0  0  0  0  0  0  0  0  0  0  0
  175.1510   21.3580   48.7450 C   0  0  0  0  0  0  0  0  0  0  0  0
  176.5110   21.6500   48.8000 C   0  0  0  0  0  0  0  0  0  0  0  0
  176.8900   22.6710   49.6290 O   0  0  0  0  0  0  0  0  0  0  0  0
  177.4160   20.9150   48.0300 C   0  0  0  0  0  0  0  0  0  0  0  0
  178.8530   21.1900   48.0590 C   0  0  0  0  0  0  0  0  0  0  0  0
  179.3320   22.0840   48.7540 O   0  0  0  0  0  0  0  0  0  0  0  0
  179.7300   20.3480   47.2110 C   0  0  0  0  0  0  0  0  0  0  0  0
  181.0830   20.6260   47.2370 O   0  0  0  0  0  0  0  0  0  0  0  0
  179.6560   17.1210   45.4750 C   0  0  0  0  0  0  0  0  0  0  0  0
  180.3750   16.2650   44.6110 C   0  0  0  0  0  0  0  0  0  0  0  0
  180.0240   14.7820   44.5670 C   0  0  0  0  0  0  0  0  0  0  0  0
  180.9920   13.9510   45.4170 C   0  0  0  0  0  0  0  0  0  0  0  0
  179.9690   14.2560   43.1290 C   0  0  0  0  0  0  0  0  0  0  0  0
  182.8745   15.3199   43.4342 H   0  0  0  0  0  0  0  0  0  0  0  0
  181.5448   15.3895   42.2284 H   0  0  0  0  0  0  0  0  0  0  0  0
  182.8242   16.6504   42.2284 H   0  0  0  0  0  0  0  0  0  0  0  0
  182.4642   18.6300   43.2768 H   0  0  0  0  0  0  0  0  0  0  0  0
  181.1771   20.0936   44.8124 H   0  0  0  0  0  0  0  0  0  0  0  0
  175.2383   18.7837   46.4984 H   0  0  0  0  0  0  0  0  0  0  0  0
  173.6197   20.0967   47.8745 H   0  0  0  0  0  0  0  0  0  0  0  0
  174.4380   21.9365   49.3508 H   0  0  0  0  0  0  0  0  0  0  0  0
  176.5390   23.5300   49.5030 H   0  0  0  0  0  0  0  0  0  0  0  0
  181.6060   20.4820   46.4730 H   0  0  0  0  0  0  0  0  0  0  0  0
  178.8504   16.6979   46.0931 H   0  0  0  0  0  0  0  0  0  0  0  0
  179.0183   14.6756   44.9996 H   0  0  0  0  0  0  0  0  0  0  0  0
  180.7872   14.1268   46.4834 H   0  0  0  0  0  0  0  0  0  0  0  0
  180.8567   12.8835   45.1888 H   0  0  0  0  0  0  0  0  0  0  0  0
  182.0267   14.2464   45.1888 H   0  0  0  0  0  0  0  0  0  0  0  0
  179.8546   13.1621   43.1429 H   0  0  0  0  0  0  0  0  0  0  0  0
  179.1132   14.7076   42.6059 H   0  0  0  0  0  0  0  0  0  0  0  0
  180.8997   14.5207   42.6059 H   0  0  0  0  0  0  0  0  0  0  0  0
  1  2  1  0
  2  3  2  0
  3  4  1  0
  4  5  2  0
  5  6  1  0
  6  7  1  0
  7  8  1  0
  8  9  2  0
  9 10  1  0
 10 11  2  0
 11 12  1  0
 12 13  1  0
 12 14  2  0
 14 15  1  0
 15 16  2  0
 15 17  1  0
 17 18  1  0
  5 19  1  0
 19 20  2  0
 20 21  1  0
 21 22  1  0
 21 23  1  0
 20  2  1  0
 17  6  2  0
 14  8  1  0
  1 24  1  0
  1 25  1  0
  1 26  1  0
  3 27  1  0
  4 28  1  0
  9 29  1  0
 10 30  1  0
 11 31  1  0
 13 32  1  0
 18 33  1  0
 19 34  1  0
 21 35  1  0
 22 36  1  0
 22 37  1  0
 22 38  1  0
 23 39  1  0
 23 40  1  0
 23 41  1  0
M  END
>  <meeko>  (2) 
{"is_sidechain": [false], "free_energy": -7.194, "intermolecular_energy": -9.025, "internal_energy": 0.603}

$$$$
cand_009_out
     RDKit          3D

 41 43  0  0  0  0  0  0  0  0999 V2000
  175.3250   21.8460   48.5860 C   0  0  0  0  0  0  0  0  0  0  0  0
  176.3730   21.0350   47.8740 C   0  0  0  0  0  0  0  0  0  0  0  0
  176.0010   19.7920   47.3330 C   0  0  0  0  0  0  0  0  0  0  0  0
  176.9270   18.9910   46.6620 C   0  0  0  0  0  0  0  0  0  0  0  0
  178.2530   19.4050   46.5180 C   0  0  0  0  0  0  0  0  0  0  0  0
  179.2140   18.5560   45.7830 C   0  0  0  0  0  0  0  0  0  0  0  0
  178.8450   17.2160   45.7630 O   0  0  0  0  0  0  0  0  0  0  0  0
  179.6480   16.3150   45.1110 C   0  0  0  0  0  0  0  0  0  0  0  0
  179.2310   14.9830   45.1040 C   0  0  0  0  0  0  0  0  0  0  0  0
  180.0050   14.0150   44.4600 C   0  0  0  0  0  0  0  0  0  0  0  0
  181.1950   14.3780   43.8250 C   0  0  0  0  0  0  0  0  0  0  0  0
  181.6080   15.7080   43.8340 C   0  0  0  0  0  0  0  0  0  0  0  0
  182.7830   15.9940   43.1940 O   0  0  0  0  0  0  0  0  0  0  0  0
  180.8340   16.6760   44.4780 C   0  0  0  0  0  0  0  0  0  0  0  0
  181.2320   18.0840   44.5110 C   0  0  0  0  0  0  0  0  0  0  0  0
  182.2680   18.4810   43.9820 O   0  0  0  0  0  0  0  0  0  0  0  0
  180.3360   19.0340   45.2130 C   0  0  0  0  0  0  0  0  0  0  0  0
  180.7300   20.3580   45.2490 O   0  0  0  0  0  0  0  0  0  0  0  0
  178.6220   20.6500   47.0470 C   0  0  0  0  0  0  0  0  0  0  0  0
  177.7050   21.4780   47.7330 C   0  0  0  0  0  0  0  0  0  0  0  0
  178.1790   22.8140   48.2930 C   0  0  0  0  0  0  0  0  0  0  0  0
  177.8460   23.9710   47.3450 C   0  0  0  0  0  0  0  0  0  0  0  0
  179.6760   22.7900   48.6210 C   0  0  0  0  0  0  0  0  0  0  0  0
  175.4578   21.7433   49.6731 H   0  0  0  0  0  0  0  0  0  0  0  0
  175.4251   22.9042   48.3028 H   0  0  0  0  0  0  0  0  0  0  0  0
  174.3258   21.4836   48.3028 H   0  0  0  0  0  0  0  0  0  0  0  0
  174.9628   19.4446   47.4401 H   0  0  0  0  0  0  0  0  0  0  0  0
  176.6092   18.0249   46.2429 H   0  0  0  0  0  0  0  0  0  0  0  0
  178.2945   14.6961   45.6047 H   0  0  0  0  0  0  0  0  0  0  0  0
  179.6769   12.9651   44.4529 H   0  0  0  0  0  0  0  0  0  0  0  0
  181.8046   13.6150   43.3189 H   0  0  0  0  0  0  0  0  0  0  0  0
  183.3480   15.2980   42.9200 H   0  0  0  0  0  0  0  0  0  0  0  0
  181.5110   20.6280   44.8080 H   0  0  0  0  0  0  0  0  0  0  0  0
  179.6597   20.9936   46.9239 H   0  0  0  0  0  0  0  0  0  0  0  0
  177.6329   22.9810   49.2332 H   0  0  0  0  0  0  0  0  0  0  0  0
  177.5889   24.8644   47.9330 H   0  0  0  0  0  0  0  0  0  0  0  0
  178.7181   24.1880   46.7108 H   0  0  0  0  0  0  0  0  0  0  0  0
  176.9919   23.6911   46.7108 H   0  0  0  0  0  0  0  0  0  0  0  0
  179.8122   22.7878   49.7125 H   0  0  0  0  0  0  0  0  0  0  0  0
  180.1307   21.8845   48.1929 H   0  0  0  0  0  0  0  0  0  0  0  0
  180.1595   23.6805   48.1929 H   0  0  0  0  0  0  0  0  0  0  0  0
  1  2  1  0
  2  3  2  0
  3  4  1  0
  4  5  2  0
  5  6  1  0
  6  7  1  0
  7  8  1  0
  8  9  2  0
  9 10  1  0
 10 11  2  0
 11 12  1  0
 12 13  1  0
 12 14  2  0
 14 15  1  0
 15 16  2  0
 15 17  1  0
 17 18  1  0
  5 19  1  0
 19 20  2  0
 20 21  1  0
 21 22  1  0
 21 23  1  0
 20  2  1  0
 17  6  2  0
 14  8  1  0
  1 24  1  0
  1 25  1  0
  1 26  1  0
  3 27  1  0
  4 28  1  0
  9 29  1  0
 10 30  1  0
 11 31  1  0
 13 32  1  0
 18 33  1  0
 19 34  1  0
 21 35  1  0
 22 36  1  0
 22 37  1  0
 22 38  1  0
 23 39  1  0
 23 40  1  0
 23 41  1  0
M  END
>  <meeko>  (3) 
{"is_sidechain": [false], "free_energy": -6.649, "intermolecular_energy": -7.779, "internal_energy": -0.002}

$$$$
cand_009_out
     RDKit          3D

 41 43  0  0  0  0  0  0  0  0999 V2000
  180.5030   13.6810   43.5630 C   0  0  0  0  0  0  0  0  0  0  0  0
  180.3140   15.0660   44.1180 C   0  0  0  0  0  0  0  0  0  0  0  0
  179.5120   15.2240   45.2600 C   0  0  0  0  0  0  0  0  0  0  0  0
  179.2970   16.4840   45.8220 C   0  0  0  0  0  0  0  0  0  0  0  0
  179.8720   17.6240   45.2560 C   0  0  0  0  0  0  0  0  0  0  0  0
  179.6530   18.9460   45.8790 C   0  0  0  0  0  0  0  0  0  0  0  0
  178.3110   19.2110   46.1280 O   0  0  0  0  0  0  0  0  0  0  0  0
  177.9660   20.4050   46.7070 C   0  0  0  0  0  0  0  0  0  0  0  0
  176.6100   20.6220   46.9520 C   0  0  0  0  0  0  0  0  0  0  0  0
  176.1910   21.8190   47.5370 C   0  0  0  0  0  0  0  0  0  0  0  0
  177.1270   22.7980   47.8770 C   0  0  0  0  0  0  0  0  0  0  0  0
  178.4800   22.5780   47.6310 C   0  0  0  0  0  0  0  0  0  0  0  0
  179.3430   23.5790   47.9870 O   0  0  0  0  0  0  0  0  0  0  0  0
  178.8990   21.3810   47.0450 C   0  0  0  0  0  0  0  0  0  0  0  0
  180.3110   21.1100   46.7700 C   0  0  0  0  0  0  0  0  0  0  0  0
  181.1930   21.9240   47.0330 O   0  0  0  0  0  0  0  0  0  0  0  0
  180.6510   19.8060   46.1540 C   0  0  0  0  0  0  0  0  0  0  0  0
  181.9860   19.5670   45.8870 O   0  0  0  0  0  0  0  0  0  0  0  0
  180.6820   17.4660   44.1220 C   0  0  0  0  0  0  0  0  0  0  0  0
  180.9120   16.2020   43.5330 C   0  0  0  0  0  0  0  0  0  0  0  0
  181.7950   16.1070   42.2930 C   0  0  0  0  0  0  0  0  0  0  0  0
  180.9920   16.3540   41.0110 C   0  0  0  0  0  0  0  0  0  0  0  0
  182.5330   14.7660   42.2250 C   0  0  0  0  0  0  0  0  0  0  0  0
  180.6008   12.9642   44.3916 H   0  0  0  0  0  0  0  0  0  0  0  0
  179.6333   13.4115   42.9457 H   0  0  0  0  0  0  0  0  0  0  0  0
  181.4131   13.6544   42.9457 H   0  0  0  0  0  0  0  0  0  0  0  0
  179.0453   14.3402   45.7195 H   0  0  0  0  0  0  0  0  0  0  0  0
  178.6684   16.5797   46.7196 H   0  0  0  0  0  0  0  0  0  0  0  0
  175.8718   19.8515   46.6848 H   0  0  0  0  0  0  0  0  0  0  0  0
  175.1218   21.9909   47.7303 H   0  0  0  0  0  0  0  0  0  0  0  0
  176.7965   23.7405   48.3379 H   0  0  0  0  0  0  0  0  0  0  0  0
  179.9950   23.4230   48.6410 H   0  0  0  0  0  0  0  0  0  0  0  0
  182.2330   19.0960   45.1160 H   0  0  0  0  0  0  0  0  0  0  0  0
  181.1535   18.3545   43.6767 H   0  0  0  0  0  0  0  0  0  0  0  0
  182.5517   16.9011   42.3756 H   0  0  0  0  0  0  0  0  0  0  0  0
  179.9708   16.6681   41.2728 H   0  0  0  0  0  0  0  0  0  0  0  0
  181.4785   17.1440   40.4201 H   0  0  0  0  0  0  0  0  0  0  0  0
  180.9504   15.4271   40.4201 H   0  0  0  0  0  0  0  0  0  0  0  0
  182.7318   14.4048   43.2448 H   0  0  0  0  0  0  0  0  0  0  0  0
  181.9117   14.0322   41.6907 H   0  0  0  0  0  0  0  0  0  0  0  0
  183.4854   14.8983   41.6907 H   0  0  0  0  0  0  0  0  0  0  0  0
  1  2  1  0
  2  3  2  0
  3  4  1  0
  4  5  2  0
  5  6  1  0
  6  7  1  0
  7  8  1  0
  8  9  2  0
  9 10  1  0
 10 11  2  0
 11 12  1  0
 12 13  1  0
 12 14  2  0
 14 15  1  0
 15 16  2  0
 15 17  1  0
 17 18  1  0
  5 19  1  0
 19 20  2  0
 20 21  1  0
 21 22  1  0
 21 23  1  0
 20  2  1  0
 17  6  2  0
 14  8  1  0
  1 24  1  0
  1 25  1  0
  1 26  1  0
  3 27  1  0
  4 28  1  0
  9 29  1  0
 10 30  1  0
 11 31  1  0
 13 32  1  0
 18 33  1  0
 19 34  1  0
 21 35  1  0
 22 36  1  0
 22 37  1  0
 22 38  1  0
 23 39  1  0
 23 40  1  0
 23 41  1  0
M  END
>  <meeko>  (4) 
{"is_sidechain": [false], "free_energy": -6.449, "intermolecular_energy": -8.311, "internal_energy": 0.765}

$$$$
cand_009_out
     RDKit          3D

 41 43  0  0  0  0  0  0  0  0999 V2000
  182.6430   17.4930   43.6020 C   0  0  0  0  0  0  0  0  0  0  0  0
  181.4630   18.0250   44.3680 C   0  0  0  0  0  0  0  0  0  0  0  0
  181.3660   19.4120   44.5660 C   0  0  0  0  0  0  0  0  0  0  0  0
  180.2960   19.9670   45.2710 C   0  0  0  0  0  0  0  0  0  0  0  0
  179.2950   19.1520   45.8040 C   0  0  0  0  0  0  0  0  0  0  0  0
  178.1560   19.7590   46.5250 C   0  0  0  0  0  0  0  0  0  0  0  0
  178.4570   21.0080   47.0560 O   0  0  0  0  0  0  0  0  0  0  0  0
  177.4880   21.6860   47.7500 C   0  0  0  0  0  0  0  0  0  0  0  0
  177.8300   22.9420   48.2520 C   0  0  0  0  0  0  0  0  0  0  0  0
  176.8900   23.6840   48.9710 C   0  0  0  0  0  0  0  0  0  0  0  0
  175.6090   23.1700   49.1880 C   0  0  0  0  0  0  0  0  0  0  0  0
  175.2720   21.9160   48.6850 C   0  0  0  0  0  0  0  0  0  0  0  0
  174.0020   21.4710   48.9350 O   0  0  0  0  0  0  0  0  0  0  0  0
  176.2130   21.1730   47.9660 C   0  0  0  0  0  0  0  0  0  0  0  0
  175.8980   19.8520   47.4210 C   0  0  0  0  0  0  0  0  0  0  0  0
  174.7970   19.3290   47.5770 O   0  0  0  0  0  0  0  0  0  0  0  0
  176.9640   19.1510   46.6670 C   0  0  0  0  0  0  0  0  0  0  0  0
  176.6600   17.8980   46.1680 O   0  0  0  0  0  0  0  0  0  0  0  0
  179.3850   17.7680   45.5960 C   0  0  0  0  0  0  0  0  0  0  0  0
  180.4590   17.1810   44.8900 C   0  0  0  0  0  0  0  0  0  0  0  0
  180.4980   15.6670   44.7130 C   0  0  0  0  0  0  0  0  0  0  0  0
  180.5050   15.2750   43.2320 C   0  0  0  0  0  0  0  0  0  0  0  0
  179.3460   14.9820   45.4550 C   0  0  0  0  0  0  0  0  0  0  0  0
  183.4122   17.1462   44.3078 H   0  0  0  0  0  0  0  0  0  0  0  0
  182.3208   16.6531   42.9690 H   0  0  0  0  0  0  0  0  0  0  0  0
  183.0591   18.2906   42.9690 H   0  0  0  0  0  0  0  0  0  0  0  0
  182.1460   20.0722   44.1589 H   0  0  0  0  0  0  0  0  0  0  0  0
  180.2410   21.0571   45.4079 H   0  0  0  0  0  0  0  0  0  0  0  0
  178.8383   23.3473   48.0818 H   0  0  0  0  0  0  0  0  0  0  0  0
  177.1587   24.6745   49.3670 H   0  0  0  0  0  0  0  0  0  0  0  0
  174.8689   23.7542   49.7545 H   0  0  0  0  0  0  0  0  0  0  0  0
  173.6350   21.5620   49.7920 H   0  0  0  0  0  0  0  0  0  0  0  0
  176.1460   17.8150   45.3890 H   0  0  0  0  0  0  0  0  0  0  0  0
  178.5930   17.1177   45.9958 H   0  0  0  0  0  0  0  0  0  0  0  0
  181.4395   15.3139   45.1591 H   0  0  0  0  0  0  0  0  0  0  0  0
  180.5246   14.1788   43.1430 H   0  0  0  0  0  0  0  0  0  0  0  0
  179.5997   15.6663   42.7448 H   0  0  0  0  0  0  0  0  0  0  0  0
  181.3957   15.6984   42.7448 H   0  0  0  0  0  0  0  0  0  0  0  0
  179.5020   15.0748   46.5399 H   0  0  0  0  0  0  0  0  0  0  0  0
  178.3954   15.4617   45.1789 H   0  0  0  0  0  0  0  0  0  0  0  0
  179.3134   13.9177   45.1789 H   0  0  0  0  0  0  0  0  0  0  0  0
  1  2  1  0
  2  3  2  0
  3  4  1  0
  4  5  2  0
  5  6  1  0
  6  7  1  0
  7  8  1  0
  8  9  2  0
  9 10  1  0
 10 11  2  0
 11 12  1  0
 12 13  1  0
 12 14  2  0
 14 15  1  0
 15 16  2  0
 15 17  1  0
 17 18  1  0
  5 19  1  0
 19 20  2  0
 20 21  1  0
 21 22  1  0
 21 23  1  0
 20  2  1  0
 17  6  2  0
 14  8  1  0
  1 24  1  0
  1 25  1  0
  1 26  1  0
  3 27  1  0
  4 28  1  0
  9 29  1  0
 10 30  1  0
 11 31  1  0
 13 32  1  0
 18 33  1  0
 19 34  1  0
 21 35  1  0
 22 36  1  0
 22 37  1  0
 22 38  1  0
 23 39  1  0
 23 40  1  0
 23 41  1  0
M  END
>  <meeko>  (5) 
{"is_sidechain": [false], "free_energy": -6.189, "intermolecular_energy": -7.596, "internal_energy": 0.355}

$$$$
cand_009_out
     RDKit          3D

 41 43  0  0  0  0  0  0  0  0999 V2000
  179.5370   21.6330   48.2570 C   0  0  0  0  0  0  0  0  0  0  0  0
  179.7080   20.5180   47.2620 C   0  0  0  0  0  0  0  0  0  0  0  0
  181.0000   20.2460   46.7800 C   0  0  0  0  0  0  0  0  0  0  0  0
  181.2240   19.2260   45.8540 C   0  0  0  0  0  0  0  0  0  0  0  0
  180.1630   18.4510   45.3780 C   0  0  0  0  0  0  0  0  0  0  0  0
  180.4230   17.3580   44.4170 C   0  0  0  0  0  0  0  0  0  0  0  0
  180.7120   17.8210   43.1380 O   0  0  0  0  0  0  0  0  0  0  0  0
  180.9750   16.9110   42.1460 C   0  0  0  0  0  0  0  0  0  0  0  0
  181.2750   17.4210   40.8820 C   0  0  0  0  0  0  0  0  0  0  0  0
  181.5500   16.5480   39.8270 C   0  0  0  0  0  0  0  0  0  0  0  0
  181.5260   15.1670   40.0360 C   0  0  0  0  0  0  0  0  0  0  0  0
  181.2270   14.6620   41.2980 C   0  0  0  0  0  0  0  0  0  0  0  0
  181.2180   13.3000   41.4330 O   0  0  0  0  0  0  0  0  0  0  0  0
  180.9510   15.5360   42.3540 C   0  0  0  0  0  0  0  0  0  0  0  0
  180.6330   15.0460   43.6960 C   0  0  0  0  0  0  0  0  0  0  0  0
  180.5830   13.8460   43.9570 O   0  0  0  0  0  0  0  0  0  0  0  0
  180.3640   16.0550   44.7480 C   0  0  0  0  0  0  0  0  0  0  0  0
  180.0510   15.5810   46.0070 O   0  0  0  0  0  0  0  0  0  0  0  0
  178.8760   18.7140   45.8680 C   0  0  0  0  0  0  0  0  0  0  0  0
  178.6230   19.7430   46.8020 C   0  0  0  0  0  0  0  0  0  0  0  0
  177.1950   19.9810   47.2820 C   0  0  0  0  0  0  0  0  0  0  0  0
  176.3440   18.7120   47.1610 C   0  0  0  0  0  0  0  0  0  0  0  0
  176.5380   21.1520   46.5440 C   0  0  0  0  0  0  0  0  0  0  0  0
  179.5993   21.2267   49.2773 H   0  0  0  0  0  0  0  0  0  0  0  0
  180.3311   22.3800   48.1107 H   0  0  0  0  0  0  0  0  0  0  0  0
  178.5556   22.1077   48.1107 H   0  0  0  0  0  0  0  0  0  0  0  0
  181.8487   20.8470   47.1385 H   0  0  0  0  0  0  0  0  0  0  0  0
  182.2454   19.0303   45.4955 H   0  0  0  0  0  0  0  0  0  0  0  0
  181.2948   18.5084   40.7170 H   0  0  0  0  0  0  0  0  0  0  0  0
  181.7859   16.9485   38.8300 H   0  0  0  0  0  0  0  0  0  0  0  0
  181.7430   14.4800   39.2048 H   0  0  0  0  0  0  0  0  0  0  0  0
  180.5610   12.7920   41.0010 H   0  0  0  0  0  0  0  0  0  0  0  0
  179.8770   16.1810   46.7050 H   0  0  0  0  0  0  0  0  0  0  0  0
  178.0358   18.0989   45.5135 H   0  0  0  0  0  0  0  0  0  0  0  0
  177.2532   20.2484   48.3474 H   0  0  0  0  0  0  0  0  0  0  0  0
  176.0948   18.3404   48.1659 H   0  0  0  0  0  0  0  0  0  0  0  0
  175.4173   18.9427   46.6151 H   0  0  0  0  0  0  0  0  0  0  0  0
  176.9091   17.9422   46.6151 H   0  0  0  0  0  0  0  0  0  0  0  0
  176.1363   21.8679   47.2762 H   0  0  0  0  0  0  0  0  0  0  0  0
  177.2863   21.6539   45.9130 H   0  0  0  0  0  0  0  0  0  0  0  0
  175.7197   20.7749   45.9130 H   0  0  0  0  0  0  0  0  0  0  0  0
  1  2  1  0
  2  3  2  0
  3  4  1  0
  4  5  2  0
  5  6  1  0
  6  7  1  0
  7  8  1  0
  8  9  2  0
  9 10  1  0
 10 11  2  0
 11 12  1  0
 12 13  1  0
 12 14  2  0
 14 15  1  0
 15 16  2  0
 15 17  1  0
 17 18  1  0
  5 19  1  0
 19 20  2  0
 20 21  1  0
 21 22  1  0
 21 23  1  0
 20  2  1  0
 17  6  2  0
 14  8  1  0
  1 24  1  0
  1 25  1  0
  1 26  1  0
  3 27  1  0
  4 28  1  0
  9 29  1  0
 10 30  1  0
 11 31  1  0
 13 32  1  0
 18 33  1  0
 19 34  1  0
 21 35  1  0
 22 36  1  0
 22 37  1  0
 22 38  1  0
 23 39  1  0
 23 40  1  0
 23 41  1  0
M  END
>  <meeko>  (6) 
{"is_sidechain": [false], "free_energy": -5.967, "intermolecular_energy": -6.499, "internal_energy": -0.48}

$$$$
cand_009_out
     RDKit          3D

 41 43  0  0  0  0  0  0  0  0999 V2000
  175.8050   23.7760   49.5990 C   0  0  0  0  0  0  0  0  0  0  0  0
  176.7670   22.9370   48.8040 C   0  0  0  0  0  0  0  0  0  0  0  0
  177.9480   23.5370   48.3370 C   0  0  0  0  0  0  0  0  0  0  0  0
  178.8790   22.8110   47.5910 C   0  0  0  0  0  0  0  0  0  0  0  0
  178.6550   21.4670   47.2850 C   0  0  0  0  0  0  0  0  0  0  0  0
  179.6630   20.7080   46.5160 C   0  0  0  0  0  0  0  0  0  0  0  0
  179.2340   19.4300   46.1760 O   0  0  0  0  0  0  0  0  0  0  0  0
  180.0740   18.6170   45.4580 C   0  0  0  0  0  0  0  0  0  0  0  0
  179.5960   17.3480   45.1260 C   0  0  0  0  0  0  0  0  0  0  0  0
  180.4020   16.4700   44.3980 C   0  0  0  0  0  0  0  0  0  0  0  0
  181.6840   16.8590   44.0030 C   0  0  0  0  0  0  0  0  0  0  0  0
  182.1570   18.1250   44.3370 C   0  0  0  0  0  0  0  0  0  0  0  0
  183.4220   18.4420   43.9200 O   0  0  0  0  0  0  0  0  0  0  0  0
  181.3510   19.0040   45.0650 C   0  0  0  0  0  0  0  0  0  0  0  0
  181.8100   20.3440   45.4350 C   0  0  0  0  0  0  0  0  0  0  0  0
  182.9280   20.7560   45.1320 O   0  0  0  0  0  0  0  0  0  0  0  0
  180.8760   21.2020   46.2010 C   0  0  0  0  0  0  0  0  0  0  0  0
  181.3250   22.4590   46.5560 O   0  0  0  0  0  0  0  0  0  0  0  0
  177.4810   20.8650   47.7610 C   0  0  0  0  0  0  0  0  0  0  0  0
  176.5220   21.5780   48.5140 C   0  0  0  0  0  0  0  0  0  0  0  0
  175.2620   20.8610   48.9890 C   0  0  0  0  0  0  0  0  0  0  0  0
  175.5870   19.7880   50.0340 C   0  0  0  0  0  0  0  0  0  0  0  0
  174.4770   20.2620   47.8170 C   0  0  0  0  0  0  0  0  0  0  0  0
  175.9836   23.6202   50.6732 H   0  0  0  0  0  0  0  0  0  0  0  0
  175.9542   24.8376   49.3527 H   0  0  0  0  0  0  0  0  0  0  0  0
  174.7735   23.4839   49.3527 H   0  0  0  0  0  0  0  0  0  0  0  0
  178.1427   24.5959   48.5625 H   0  0  0  0  0  0  0  0  0  0  0  0
  179.7984   23.3030   47.2408 H   0  0  0  0  0  0  0  0  0  0  0  0
  178.5868   17.0404   45.4371 H   0  0  0  0  0  0  0  0  0  0  0  0
  180.0264   15.4701   44.1352 H   0  0  0  0  0  0  0  0  0  0  0  0
  182.3182   16.1669   43.4296 H   0  0  0  0  0  0  0  0  0  0  0  0
  183.5460   19.0890   43.2550 H   0  0  0  0  0  0  0  0  0  0  0  0
  180.8230   22.9880   47.1440 H   0  0  0  0  0  0  0  0  0  0  0  0
  177.3012   19.8024   47.5406 H   0  0  0  0  0  0  0  0  0  0  0  0
  174.6223   21.6165   49.4687 H   0  0  0  0  0  0  0  0  0  0  0  0
  175.4598   20.2081   51.0426 H   0  0  0  0  0  0  0  0  0  0  0  0
  174.9077   18.9326   49.9047 H   0  0  0  0  0  0  0  0  0  0  0  0
  176.6268   19.4533   49.9047 H   0  0  0  0  0  0  0  0  0  0  0  0
  173.6587   19.6376   48.2048 H   0  0  0  0  0  0  0  0  0  0  0  0
  174.0596   21.0733   47.2025 H   0  0  0  0  0  0  0  0  0  0  0  0
  175.1493   19.6452   47.2025 H   0  0  0  0  0  0  0  0  0  0  0  0
  1  2  1  0
  2  3  2  0
  3  4  1  0
  4  5  2  0
  5  6  1  0
  6  7  1  0
  7  8  1  0
  8  9  2  0
  9 10  1  0
 10 11  2  0
 11 12  1  0
 12 13  1  0
 12 14  2  0
 14 15  1  0
 15 16  2  0
 15 17  1  0
 17 18  1  0
  5 19  1  0
 19 20  2  0
 20 21  1  0
 21 22  1  0
 21 23  1  0
 20  2  1  0
 17  6  2  0
 14  8  1  0
  1 24  1  0
  1 25  1  0
  1 26  1  0
  3 27  1  0
  4 28  1  0
  9 29  1  0
 10 30  1  0
 11 31  1  0
 13 32  1  0
 18 33  1  0
 19 34  1  0
 21 35  1  0
 22 36  1  0
 22 37  1  0
 22 38  1  0
 23 39  1  0
 23 40  1  0
 23 41  1  0
M  END
>  <meeko>  (7) 
{"is_sidechain": [false], "free_energy": -5.698, "intermolecular_energy": -6.713, "internal_energy": 0.049}

$$$$
cand_009_out
     RDKit          3D

 41 43  0  0  0  0  0  0  0  0999 V2000
  187.2780   24.4960   45.5200 C   0  0  0  0  0  0  0  0  0  0  0  0
  185.9960   23.7120   45.5950 C   0  0  0  0  0  0  0  0  0  0  0  0
  185.1850   23.8660   46.7310 C   0  0  0  0  0  0  0  0  0  0  0  0
  183.9840   23.1650   46.8610 C   0  0  0  0  0  0  0  0  0  0  0  0
  183.5630   22.2860   45.8610 C   0  0  0  0  0  0  0  0  0  0  0  0
  182.2760   21.5710   46.0040 C   0  0  0  0  0  0  0  0  0  0  0  0
  181.3500   22.2740   46.7650 O   0  0  0  0  0  0  0  0  0  0  0  0
  180.1110   21.7250   46.9760 C   0  0  0  0  0  0  0  0  0  0  0  0
  179.2070   22.4720   47.7340 C   0  0  0  0  0  0  0  0  0  0  0  0
  177.9290   21.9690   47.9880 C   0  0  0  0  0  0  0  0  0  0  0  0
  177.5540   20.7210   47.4840 C   0  0  0  0  0  0  0  0  0  0  0  0
  178.4580   19.9790   46.7290 C   0  0  0  0  0  0  0  0  0  0  0  0
  178.0270   18.7640   46.2680 O   0  0  0  0  0  0  0  0  0  0  0  0
  179.7370   20.4820   46.4750 C   0  0  0  0  0  0  0  0  0  0  0  0
  180.7160   19.7340   45.6850 C   0  0  0  0  0  0  0  0  0  0  0  0
  180.4650   18.6260   45.2160 O   0  0  0  0  0  0  0  0  0  0  0  0
  182.0420   20.3590   45.4670 C   0  0  0  0  0  0  0  0  0  0  0  0
  182.9630   19.6370   44.7310 O   0  0  0  0  0  0  0  0  0  0  0  0
  184.3660   22.1400   44.7210 C   0  0  0  0  0  0  0  0  0  0  0  0
  185.5870   22.8360   44.5680 C   0  0  0  0  0  0  0  0  0  0  0  0
  186.4160   22.6190   43.3060 C   0  0  0  0  0  0  0  0  0  0  0  0
  185.6550   23.0610   42.0520 C   0  0  0  0  0  0  0  0  0  0  0  0
  186.8820   21.1650   43.1790 C   0  0  0  0  0  0  0  0  0  0  0  0
  187.6345   24.7140   46.5375 H   0  0  0  0  0  0  0  0  0  0  0  0
  188.0370   23.9074   44.9838 H   0  0  0  0  0  0  0  0  0  0  0  0
  187.0998   25.4398   44.9838 H   0  0  0  0  0  0  0  0  0  0  0  0
  185.5010   24.5504   47.5321 H   0  0  0  0  0  0  0  0  0  0  0  0
  183.3644   23.3066   47.7588 H   0  0  0  0  0  0  0  0  0  0  0  0
  179.5009   23.4551   48.1305 H   0  0  0  0  0  0  0  0  0  0  0  0
  177.2165   22.5564   48.5858 H   0  0  0  0  0  0  0  0  0  0  0  0
  176.5470   20.3258   47.6833 H   0  0  0  0  0  0  0  0  0  0  0  0
  177.5530   18.7120   45.4620 H   0  0  0  0  0  0  0  0  0  0  0  0
  183.2120   18.7770   45.0050 H   0  0  0  0  0  0  0  0  0  0  0  0
  184.0354   21.4623   43.9201 H   0  0  0  0  0  0  0  0  0  0  0  0
  187.3124   23.2501   43.3963 H   0  0  0  0  0  0  0  0  0  0  0  0
  184.7388   23.5931   42.3476 H   0  0  0  0  0  0  0  0  0  0  0  0
  186.2910   23.7303   41.4540 H   0  0  0  0  0  0  0  0  0  0  0  0
  185.3888   22.1770   41.4540 H   0  0  0  0  0  0  0  0  0  0  0  0
  187.0198   20.7352   44.1821 H   0  0  0  0  0  0  0  0  0  0  0  0
  186.1251   20.5838   42.6318 H   0  0  0  0  0  0  0  0  0  0  0  0
  187.8357   21.1321   42.6318 H   0  0  0  0  0  0  0  0  0  0  0  0
  1  2  1  0
  2  3  2  0
  3  4  1  0
  4  5  2  0
  5  6  1  0
  6  7  1  0
  7  8  1  0
  8  9  2  0
  9 10  1  0
 10 11  2  0
 11 12  1  0
 12 13  1  0
 12 14  2  0
 14 15  1  0
 15 16  2  0
 15 17  1  0
 17 18  1  0
  5 19  1  0
 19 20  2  0
 20 21  1  0
 21 22  1  0
 21 23  1  0
 20  2  1  0
 17  6  2  0
 14  8  1  0
  1 24  1  0
  1 25  1  0
  1 26  1  0
  3 27  1  0
  4 28  1  0
  9 29  1  0
 10 30  1  0
 11 31  1  0
 13 32  1  0
 18 33  1  0
 19 34  1  0
 21 35  1  0
 22 36  1  0
 22 37  1  0
 22 38  1  0
 23 39  1  0
 23 40  1  0
 23 41  1  0
M  END
>  <meeko>  (8) 
{"is_sidechain": [false], "free_energy": -5.632, "intermolecular_energy": -6.391, "internal_energy": -0.194}

$$$$
cand_009_out
     RDKit          3D

 41 43  0  0  0  0  0  0  0  0999 V2000
  177.5930   18.8960   46.3650 C   0  0  0  0  0  0  0  0  0  0  0  0
  178.8400   19.7350   46.4300 C   0  0  0  0  0  0  0  0  0  0  0  0
  180.0300   19.2050   45.9050 C   0  0  0  0  0  0  0  0  0  0  0  0
  181.2200   19.9330   45.9370 C   0  0  0  0  0  0  0  0  0  0  0  0
  181.2580   21.2110   46.5010 C   0  0  0  0  0  0  0  0  0  0  0  0
  182.5220   21.9780   46.5040 C   0  0  0  0  0  0  0  0  0  0  0  0
  183.1700   21.9550   45.2750 O   0  0  0  0  0  0  0  0  0  0  0  0
  184.3560   22.6290   45.1370 C   0  0  0  0  0  0  0  0  0  0  0  0
  184.9640   22.5920   43.8810 C   0  0  0  0  0  0  0  0  0  0  0  0
  186.1760   23.2560   43.6740 C   0  0  0  0  0  0  0  0  0  0  0  0
  186.7780   23.9570   44.7220 C   0  0  0  0  0  0  0  0  0  0  0  0
  186.1690   23.9920   45.9730 C   0  0  0  0  0  0  0  0  0  0  0  0
  186.8130   24.6940   46.9550 O   0  0  0  0  0  0  0  0  0  0  0  0
  184.9570   23.3270   46.1800 C   0  0  0  0  0  0  0  0  0  0  0  0
  184.2840   23.3400   47.4790 C   0  0  0  0  0  0  0  0  0  0  0  0
  184.7540   23.9260   48.4510 O   0  0  0  0  0  0  0  0  0  0  0  0
  182.9980   22.6110   47.5920 C   0  0  0  0  0  0  0  0  0  0  0  0
  182.3780   22.6180   48.8280 O   0  0  0  0  0  0  0  0  0  0  0  0
  180.0680   21.7450   47.0160 C   0  0  0  0  0  0  0  0  0  0  0  0
  178.8510   21.0270   46.9980 C   0  0  0  0  0  0  0  0  0  0  0  0
  177.5980   21.6670   47.5870 C   0  0  0  0  0  0  0  0  0  0  0  0
  177.6160   23.1900   47.4230 C   0  0  0  0  0  0  0  0  0  0  0  0
  177.4020   21.2770   49.0550 C   0  0  0  0  0  0  0  0  0  0  0  0
  177.2519   18.6665   47.3853 H   0  0  0  0  0  0  0  0  0  0  0  0
  176.8063   19.4492   45.8311 H   0  0  0  0  0  0  0  0  0  0  0  0
  177.8090   17.9588   45.8311 H   0  0  0  0  0  0  0  0  0  0  0  0
  180.0238   18.1986   45.4609 H   0  0  0  0  0  0  0  0  0  0  0  0
  182.1370   19.4967   45.5142 H   0  0  0  0  0  0  0  0  0  0  0  0
  184.4898   22.0410   43.0555 H   0  0  0  0  0  0  0  0  0  0  0  0
  186.6566   23.2268   42.6850 H   0  0  0  0  0  0  0  0  0  0  0  0
  187.7316   24.4803   44.5586 H   0  0  0  0  0  0  0  0  0  0  0  0
  186.8460   25.6300   46.9150 H   0  0  0  0  0  0  0  0  0  0  0  0
  182.8820   22.4800   49.6060 H   0  0  0  0  0  0  0  0  0  0  0  0
  180.0823   22.7564   47.4483 H   0  0  0  0  0  0  0  0  0  0  0  0
  176.7394   21.2775   47.0205 H   0  0  0  0  0  0  0  0  0  0  0  0
  177.6216   23.6656   48.4149 H   0  0  0  0  0  0  0  0  0  0  0  0
  178.5177   23.4884   46.8682 H   0  0  0  0  0  0  0  0  0  0  0  0
  176.7216   23.5096   46.8682 H   0  0  0  0  0  0  0  0  0  0  0  0
  177.8015   22.0718   49.7020 H   0  0  0  0  0  0  0  0  0  0  0  0
  176.3294   21.1429   49.2587 H   0  0  0  0  0  0  0  0  0  0  0  0
  177.9343   20.3362   49.2587 H   0  0  0  0  0  0  0  0  0  0  0  0
  1  2  1  0
  2  3  2  0
  3  4  1  0
  4  5  2  0
  5  6  1  0
  6  7  1  0
  7  8  1  0
  8  9  2  0
  9 10  1  0
 10 11  2  0
 11 12  1  0
 12 13  1  0
 12 14  2  0
 14 15  1  0
 15 16  2  0
 15 17  1  0
 17 18  1  0
  5 19  1  0
 19 20  2  0
 20 21  1  0
 21 22  1  0
 21 23  1  0
 20  2  1  0
 17  6  2  0
 14  8  1  0
  1 24  1  0
  1 25  1  0
  1 26  1  0
  3 27  1  0
  4 28  1  0
  9 29  1  0
 10 30  1  0
 11 31  1  0
 13 32  1  0
 18 33  1  0
 19 34  1  0
 21 35  1  0
 22 36  1  0
 22 37  1  0
 22 38  1  0
 23 39  1  0
 23 40  1  0
 23 41  1  0
M  END
>  <meeko>  (9) 
{"is_sidechain": [false], "free_energy": -5.497, "intermolecular_energy": -6.09, "internal_energy": -0.338}

$$$$
