cand_056_out
     RDKit          3D

 50 53  0  0  0  0  0  0  0  0999 V2000
  181.4010   25.0810   51.2760 C   0  0  0  0  0  0  0  0  0  0  0  0
  181.0300   23.9870   50.3800 N   0  0  0  0  0  0  0  0  0  0  0  0
  180.1320   23.0320   51.0700 C   0  0  0  0  0  0  0  0  0  0  0  0
  179.6660   21.8830   50.1430 C   0  0  0  0  0  0  0  0  0  0  0  0
  178.9980   22.4440   48.9450 N   0  0  0  0  0  0  0  0  0  0  0  0
  178.4270   21.4670   48.1100 C   0  0  0  0  0  0  0  0  0  0  0  0
  179.2160   20.5540   47.3850 C   0  0  0  0  0  0  0  0  0  0  0  0
  178.6470   19.5730   46.5600 C   0  0  0  0  0  0  0  0  0  0  0  0
  179.4810   18.6300   45.7860 C   0  0  0  0  0  0  0  0  0  0  0  0
  179.0210   17.3200   45.8520 O   0  0  0  0  0  0  0  0  0  0  0  0
  179.7040   16.3430   45.1760 C   0  0  0  0  0  0  0  0  0  0  0  0
  179.1980   15.0440   45.2570 C   0  0  0  0  0  0  0  0  0  0  0  0
  179.8480   14.0010   44.5940 C   0  0  0  0  0  0  0  0  0  0  0  0
  181.0030   14.2560   43.8500 C   0  0  0  0  0  0  0  0  0  0  0  0
  181.5050   15.5520   43.7700 C   0  0  0  0  0  0  0  0  0  0  0  0
  182.6390   15.7310   43.0260 O   0  0  0  0  0  0  0  0  0  0  0  0
  180.8540   16.5960   44.4340 C   0  0  0  0  0  0  0  0  0  0  0  0
  181.3500   17.9720   44.3770 C   0  0  0  0  0  0  0  0  0  0  0  0
  182.3620   18.2750   43.7500 O   0  0  0  0  0  0  0  0  0  0  0  0
  180.5820   19.0060   45.1090 C   0  0  0  0  0  0  0  0  0  0  0  0
  181.0650   20.3000   45.0610 O   0  0  0  0  0  0  0  0  0  0  0  0
  177.2540   19.5240   46.4480 C   0  0  0  0  0  0  0  0  0  0  0  0
  176.4540   20.4220   47.1570 C   0  0  0  0  0  0  0  0  0  0  0  0
  177.0280   21.3980   47.9920 C   0  0  0  0  0  0  0  0  0  0  0  0
  176.1410   22.3560   48.7500 C   0  0  0  0  0  0  0  0  0  0  0  0
  174.8110   22.1660   48.4820 F   0  0  0  0  0  0  0  0  0  0  0  0
  176.3710   23.6690   48.4520 F   0  0  0  0  0  0  0  0  0  0  0  0
  176.2410   22.2440   50.1060 F   0  0  0  0  0  0  0  0  0  0  0  0
  179.8850   23.3840   48.2200 C   0  0  0  0  0  0  0  0  0  0  0  0
  180.3490   24.5120   49.1730 C   0  0  0  0  0  0  0  0  0  0  0  0
  181.2899   24.7534   52.3202 H   0  0  0  0  0  0  0  0  0  0  0  0
  182.4467   25.3679   51.0910 H   0  0  0  0  0  0  0  0  0  0  0  0
  180.7456   25.9448   51.0910 H   0  0  0  0  0  0  0  0  0  0  0  0
  181.8860   23.5050   50.1020 H   0  0  0  0  0  0  0  0  0  0  0  0
  180.6688   22.5987   51.9268 H   0  0  0  0  0  0  0  0  0  0  0  0
  179.2379   23.5860   51.3920 H   0  0  0  0  0  0  0  0  0  0  0  0
  180.5378   21.2894   49.8306 H   0  0  0  0  0  0  0  0  0  0  0  0
  178.9570   21.2420   50.6874 H   0  0  0  0  0  0  0  0  0  0  0  0
  180.3113   20.6118   47.4680 H   0  0  0  0  0  0  0  0  0  0  0  0
  178.2886   14.8426   45.8423 H   0  0  0  0  0  0  0  0  0  0  0  0
  179.4503   12.9774   44.6575 H   0  0  0  0  0  0  0  0  0  0  0  0
  181.5148   13.4339   43.3283 H   0  0  0  0  0  0  0  0  0  0  0  0
  183.0740   14.9910   42.6510 H   0  0  0  0  0  0  0  0  0  0  0  0
  180.5500   21.0060   45.4030 H   0  0  0  0  0  0  0  0  0  0  0  0
  176.7850   18.7722   45.7963 H   0  0  0  0  0  0  0  0  0  0  0  0
  175.3596   20.3656   47.0614 H   0  0  0  0  0  0  0  0  0  0  0  0
  180.7638   22.8397   47.8440 H   0  0  0  0  0  0  0  0  0  0  0  0
  179.3328   23.8260   47.3775 H   0  0  0  0  0  0  0  0  0  0  0  0
  181.0463   25.1678   48.6311 H   0  0  0  0  0  0  0  0  0  0  0  0
  179.4548   25.0605   49.5041 H   0  0  0  0  0  0  0  0  0  0  0  0
  1  2  1  0
  2  3  1  0
  3  4  1  0
  4  5  1  0
  5  6  1  0
  6  7  2  0
  7  8  1  0
  8  9  1  0
  9 10  1  0
 10 11  1  0
 11 12  2  0
 12 13  1  0
 13 14  2  0
 14 15  1  0
 15 16  1  0
 15 17  2  0
 17 18  1  0
 18 19  2  0
 18 20  1  0
 20 21  1  0
  8 22  2  0
 22 23  1  0
 23 24  2  0
 24 25  1  0
 25 26  1  0
 25 27  1  0
 25 28  1  0
  5 29  1  0
 29 30  1  0
 30  2  1  0
 24  6  1  0
 20  9  2  0
 17 11  1  0
  1 31  1  0
  1 32  1  0
  1 33  1  0
  2 34  1  0
  3 35  1  0
  3 36  1  0
  4 37  1  0
  4 38  1  0
  7 39  1  0
 12 40  1  0
 13 41  1  0
 14 42  1  0
 16 43  1  0
 21 44  1  0
 22 45  1  0
 23 46  1  0
 29 47  1  0
 29 48  1  0
 30 49  1  0
 30 50  1  0
M  CHG  1   2   1
M  END
>  <meeko>  (1) 
{"is_sidechain": [false], "free_energy": -8.23, "intermolecular_energy": -10.155, "internal_energy": -0.473}

$$$$
cand_056_out
     RDKit          3D

 50 53  0  0  0  0  0  0  0  0999 V2000
  174.1090   24.0440   51.0190 C   0  0  0  0  0  0  0  0  0  0  0  0
  175.4200   23.5950   50.5520 N   0  0  0  0  0  0  0  0  0  0  0  0
  175.5500   22.1260   50.7010 C   0  0  0  0  0  0  0  0  0  0  0  0
  176.9020   21.5950   50.1670 C   0  0  0  0  0  0  0  0  0  0  0  0
  177.0690   21.9850   48.7470 N   0  0  0  0  0  0  0  0  0  0  0  0
  178.2120   21.4320   48.1430 C   0  0  0  0  0  0  0  0  0  0  0  0
  179.5040   21.9330   48.3960 C   0  0  0  0  0  0  0  0  0  0  0  0
  180.6450   21.3750   47.8010 C   0  0  0  0  0  0  0  0  0  0  0  0
  181.9960   21.9170   48.0550 C   0  0  0  0  0  0  0  0  0  0  0  0
  182.5500   22.5350   46.9410 O   0  0  0  0  0  0  0  0  0  0  0  0
  183.8030   23.0840   47.0410 C   0  0  0  0  0  0  0  0  0  0  0  0
  184.3140   23.7070   45.9020 C   0  0  0  0  0  0  0  0  0  0  0  0
  185.5850   24.2840   45.9360 C   0  0  0  0  0  0  0  0  0  0  0  0
  186.3450   24.2370   47.1070 C   0  0  0  0  0  0  0  0  0  0  0  0
  185.8320   23.6140   48.2420 C   0  0  0  0  0  0  0  0  0  0  0  0
  186.6290   23.6030   49.3540 O   0  0  0  0  0  0  0  0  0  0  0  0
  184.5600   23.0370   48.2080 C   0  0  0  0  0  0  0  0  0  0  0  0
  183.9850   22.3720   49.3780 C   0  0  0  0  0  0  0  0  0  0  0  0
  184.5930   22.2830   50.4420 O   0  0  0  0  0  0  0  0  0  0  0  0
  182.6250   21.8000   49.2400 C   0  0  0  0  0  0  0  0  0  0  0  0
  182.0950   21.1620   50.3460 O   0  0  0  0  0  0  0  0  0  0  0  0
  180.4790   20.3030   46.9180 C   0  0  0  0  0  0  0  0  0  0  0  0
  179.2070   19.7950   46.6520 C   0  0  0  0  0  0  0  0  0  0  0  0
  178.0640   20.3490   47.2580 C   0  0  0  0  0  0  0  0  0  0  0  0
  176.7000   19.7790   46.9560 C   0  0  0  0  0  0  0  0  0  0  0  0
  176.7390   18.7990   46.0000 F   0  0  0  0  0  0  0  0  0  0  0  0
  175.8160   20.7000   46.4720 F   0  0  0  0  0  0  0  0  0  0  0  0
  176.0980   19.1920   48.0310 F   0  0  0  0  0  0  0  0  0  0  0  0
  176.9700   23.4530   48.5720 C   0  0  0  0  0  0  0  0  0  0  0  0
  175.6170   23.9600   49.1300 C   0  0  0  0  0  0  0  0  0  0  0  0
  174.0936   24.0493   52.1189 H   0  0  0  0  0  0  0  0  0  0  0  0
  173.9146   25.0599   50.6447 H   0  0  0  0  0  0  0  0  0  0  0  0
  173.3326   23.3605   50.6447 H   0  0  0  0  0  0  0  0  0  0  0  0
  176.1310   24.0560   51.1210 H   0  0  0  0  0  0  0  0  0  0  0  0
  175.4669   21.8706   51.7677 H   0  0  0  0  0  0  0  0  0  0  0  0
  174.7492   21.6573   50.1101 H   0  0  0  0  0  0  0  0  0  0  0  0
  177.7227   22.0221   50.7620 H   0  0  0  0  0  0  0  0  0  0  0  0
  176.9183   20.4980   50.2467 H   0  0  0  0  0  0  0  0  0  0  0  0
  179.6215   22.7865   49.0799 H   0  0  0  0  0  0  0  0  0  0  0  0
  183.7167   23.7435   44.9790 H   0  0  0  0  0  0  0  0  0  0  0  0
  185.9885   24.7765   45.0390 H   0  0  0  0  0  0  0  0  0  0  0  0
  187.3466   24.6911   47.1326 H   0  0  0  0  0  0  0  0  0  0  0  0
  186.3180   23.9750   50.1560 H   0  0  0  0  0  0  0  0  0  0  0  0
  182.6330   20.9990   51.0960 H   0  0  0  0  0  0  0  0  0  0  0  0
  181.3580   19.8570   46.4296 H   0  0  0  0  0  0  0  0  0  0  0  0
  179.0959   18.9487   45.9581 H   0  0  0  0  0  0  0  0  0  0  0  0
  177.7938   23.9413   49.1132 H   0  0  0  0  0  0  0  0  0  0  0  0
  177.0338   23.6953   47.5009 H   0  0  0  0  0  0  0  0  0  0  0  0
  175.5857   25.0558   49.0390 H   0  0  0  0  0  0  0  0  0  0  0  0
  174.8145   23.4840   48.5474 H   0  0  0  0  0  0  0  0  0  0  0  0
  1  2  1  0
  2  3  1  0
  3  4  1  0
  4  5  1  0
  5  6  1  0
  6  7  2  0
  7  8  1  0
  8  9  1  0
  9 10  1  0
 10 11  1  0
 11 12  2  0
 12 13  1  0
 13 14  2  0
 14 15  1  0
 15 16  1  0
 15 17  2  0
 17 18  1  0
 18 19  2  0
 18 20  1  0
 20 21  1  0
  8 22  2  0
 22 23  1  0
 23 24  2  0
 24 25  1  0
 25 26  1  0
 25 27  1  0
 25 28  1  0
  5 29  1  0
 29 30  1  0
 30  2  1  0
 24  6  1  0
 20  9  2  0
 17 11  1  0
  1 31  1  0
  1 32  1  0
  1 33  1  0
  2 34  1  0
  3 35  1  0
  3 36  1  0
  4 37  1  0
  4 38  1  0
  7 39  1  0
 12 40  1  0
 13 41  1  0
 14 42  1  0
 16 43  1  0
 21 44  1  0
 22 45  1  0
 23 46  1  0
 29 47  1  0
 29 48  1  0
 30 49  1  0
 30 50  1  0
M  CHG  1   2   1
M  END
>  <meeko>  (2) 
{"is_sidechain": [false], "free_energy": -8.123, "intermolecular_energy": -9.776, "internal_energy": -0.72}

$$$$
cand_056_out
     RDKit          3D

 50 53  0  0  0  0  0  0  0  0999 V2000
  185.4970   23.7510   48.4200 C   0  0  0  0  0  0  0  0  0  0  0  0
  184.0830   23.4620   48.6590 N   0  0  0  0  0  0  0  0  0  0  0  0
  183.2580   23.9220   47.5170 C   0  0  0  0  0  0  0  0  0  0  0  0
  181.7590   23.5860   47.6990 C   0  0  0  0  0  0  0  0  0  0  0  0
  181.5910   22.1270   47.9000 N   0  0  0  0  0  0  0  0  0  0  0  0
  180.2470   21.7170   47.9440 C   0  0  0  0  0  0  0  0  0  0  0  0
  179.3430   22.2250   48.8960 C   0  0  0  0  0  0  0  0  0  0  0  0
  178.0000   21.8240   48.9340 C   0  0  0  0  0  0  0  0  0  0  0  0
  177.0620   22.3470   49.9480 C   0  0  0  0  0  0  0  0  0  0  0  0
  175.8950   22.8590   49.3930 O   0  0  0  0  0  0  0  0  0  0  0  0
  174.9370   23.3760   50.2260 C   0  0  0  0  0  0  0  0  0  0  0  0
  173.7750   23.8670   49.6270 C   0  0  0  0  0  0  0  0  0  0  0  0
  172.7600   24.4090   50.4180 C   0  0  0  0  0  0  0  0  0  0  0  0
  172.9060   24.4620   51.8060 C   0  0  0  0  0  0  0  0  0  0  0  0
  174.0660   23.9730   52.4010 C   0  0  0  0  0  0  0  0  0  0  0  0
  174.1450   24.0570   53.7640 O   0  0  0  0  0  0  0  0  0  0  0  0
  175.0820   23.4300   51.6090 C   0  0  0  0  0  0  0  0  0  0  0  0
  176.3160   22.9060   52.1940 C   0  0  0  0  0  0  0  0  0  0  0  0
  176.5230   22.9230   53.4050 O   0  0  0  0  0  0  0  0  0  0  0  0
  177.3270   22.3430   51.2680 C   0  0  0  0  0  0  0  0  0  0  0  0
  178.4960   21.8620   51.8280 O   0  0  0  0  0  0  0  0  0  0  0  0
  177.5630   20.8740   48.0050 C   0  0  0  0  0  0  0  0  0  0  0  0
  178.4450   20.3550   47.0550 C   0  0  0  0  0  0  0  0  0  0  0  0
  179.7890   20.7680   47.0120 C   0  0  0  0  0  0  0  0  0  0  0  0
  180.7210   20.1940   45.9730 C   0  0  0  0  0  0  0  0  0  0  0  0
  180.0530   19.5430   44.9700 F   0  0  0  0  0  0  0  0  0  0  0  0
  181.5910   19.2670   46.4690 F   0  0  0  0  0  0  0  0  0  0  0  0
  181.4780   21.1320   45.3340 F   0  0  0  0  0  0  0  0  0  0  0  0
  182.3860   21.6440   49.0540 C   0  0  0  0  0  0  0  0  0  0  0  0
  183.8770   22.0080   48.8540 C   0  0  0  0  0  0  0  0  0  0  0  0
  186.0174   23.8574   49.3833 H   0  0  0  0  0  0  0  0  0  0  0  0
  185.9483   22.9265   47.8485 H   0  0  0  0  0  0  0  0  0  0  0  0
  185.5886   24.6864   47.8485 H   0  0  0  0  0  0  0  0  0  0  0  0
  183.8000   23.9600   49.5030 H   0  0  0  0  0  0  0  0  0  0  0  0
  183.3663   25.0123   47.4196 H   0  0  0  0  0  0  0  0  0  0  0  0
  183.6117   23.3996   46.6159 H   0  0  0  0  0  0  0  0  0  0  0  0
  181.3686   24.1226   48.5763 H   0  0  0  0  0  0  0  0  0  0  0  0
  181.2064   23.8941   46.7992 H   0  0  0  0  0  0  0  0  0  0  0  0
  179.7012   22.9591   49.6327 H   0  0  0  0  0  0  0  0  0  0  0  0
  173.6595   23.8268   48.5338 H   0  0  0  0  0  0  0  0  0  0  0  0
  171.8438   24.7949   49.9472 H   0  0  0  0  0  0  0  0  0  0  0  0
  172.1058   24.8894   52.4281 H   0  0  0  0  0  0  0  0  0  0  0  0
  173.8060   24.8110   54.2070 H   0  0  0  0  0  0  0  0  0  0  0  0
  178.9810   22.3940   52.4280 H   0  0  0  0  0  0  0  0  0  0  0  0
  176.5172   20.5334   48.0229 H   0  0  0  0  0  0  0  0  0  0  0  0
  178.0833   19.6118   46.3291 H   0  0  0  0  0  0  0  0  0  0  0  0
  182.0155   22.1163   49.9758 H   0  0  0  0  0  0  0  0  0  0  0  0
  182.2866   20.5512   49.1310 H   0  0  0  0  0  0  0  0  0  0  0  0
  184.4409   21.6875   49.7424 H   0  0  0  0  0  0  0  0  0  0  0  0
  184.2282   21.4952   47.9464 H   0  0  0  0  0  0  0  0  0  0  0  0
  1  2  1  0
  2  3  1  0
  3  4  1  0
  4  5  1  0
  5  6  1  0
  6  7  2  0
  7  8  1  0
  8  9  1  0
  9 10  1  0
 10 11  1  0
 11 12  2  0
 12 13  1  0
 13 14  2  0
 14 15  1  0
 15 16  1  0
 15 17  2  0
 17 18  1  0
 18 19  2  0
 18 20  1  0
 20 21  1  0
  8 22  2  0
 22 23  1  0
 23 24  2  0
 24 25  1  0
 25 26  1  0
 25 27  1  0
 25 28  1  0
  5 29  1  0
 29 30  1  0
 30  2  1  0
 24  6  1  0
 20  9  2  0
 17 11  1  0
  1 31  1  0
  1 32  1  0
  1 33  1  0
  2 34  1  0
  3 35  1  0
  3 36  1  0
  4 37  1  0
  4 38  1  0
  7 39  1  0
 12 40  1  0
 13 41  1  0
 14 42  1  0
 16 43  1  0
 21 44  1  0
 22 45  1  0
 23 46  1  0
 29 47  1  0
 29 48  1  0
 30 49  1  0
 30 50  1  0
M  CHG  1   2   1
M  END
>  <meeko>  (3) 
{"is_sidechain": [false], "free_energy": -8.008, "intermolecular_energy": -9.863, "internal_energy": -0.491}

$$$$
cand_056_out
     RDKit          3D

 50 53  0  0  0  0  0  0  0  0999 V2000
  173.2990   24.6880   51.0970 C   0  0  0  0  0  0  0  0  0  0  0  0
  174.5760   24.0840   50.7190 N   0  0  0  0  0  0  0  0  0  0  0  0
  174.4640   22.6060   50.6930 C   0  0  0  0  0  0  0  0  0  0  0  0
  175.7780   21.9230   50.2420 C   0  0  0  0  0  0  0  0  0  0  0  0
  176.1770   22.4320   48.9090 N   0  0  0  0  0  0  0  0  0  0  0  0
  177.2910   21.7680   48.3640 C   0  0  0  0  0  0  0  0  0  0  0  0
  178.6100   22.1320   48.6960 C   0  0  0  0  0  0  0  0  0  0  0  0
  179.7210   21.4630   48.1610 C   0  0  0  0  0  0  0  0  0  0  0  0
  181.1030   21.8620   48.4990 C   0  0  0  0  0  0  0  0  0  0  0  0
  181.8390   22.2590   47.3890 O   0  0  0  0  0  0  0  0  0  0  0  0
  183.1400   22.6550   47.5640 C   0  0  0  0  0  0  0  0  0  0  0  0
  183.8370   23.0600   46.4240 C   0  0  0  0  0  0  0  0  0  0  0  0
  185.1670   23.4740   46.5320 C   0  0  0  0  0  0  0  0  0  0  0  0
  185.7980   23.4830   47.7780 C   0  0  0  0  0  0  0  0  0  0  0  0
  185.1000   23.0790   48.9130 C   0  0  0  0  0  0  0  0  0  0  0  0
  185.7790   23.1120   50.1000 O   0  0  0  0  0  0  0  0  0  0  0  0
  183.7700   22.6650   48.8050 C   0  0  0  0  0  0  0  0  0  0  0  0
  183.0010   22.2320   49.9720 C   0  0  0  0  0  0  0  0  0  0  0  0
  183.4880   22.2050   51.1010 O   0  0  0  0  0  0  0  0  0  0  0  0
  181.5950   21.8200   49.7520 C   0  0  0  0  0  0  0  0  0  0  0  0
  180.8810   21.4000   50.8580 O   0  0  0  0  0  0  0  0  0  0  0  0
  179.4980   20.4210   47.2560 C   0  0  0  0  0  0  0  0  0  0  0  0
  178.1980   20.0490   46.9100 C   0  0  0  0  0  0  0  0  0  0  0  0
  177.0850   20.7130   47.4580 C   0  0  0  0  0  0  0  0  0  0  0  0
  175.6890   20.2890   47.0700 C   0  0  0  0  0  0  0  0  0  0  0  0
  174.9580   19.8440   48.1390 F   0  0  0  0  0  0  0  0  0  0  0  0
  175.6580   19.2580   46.1750 F   0  0  0  0  0  0  0  0  0  0  0  0
  174.9390   21.2930   46.5300 F   0  0  0  0  0  0  0  0  0  0  0  0
  176.3210   23.9070   48.9120 C   0  0  0  0  0  0  0  0  0  0  0  0
  175.0010   24.5640   49.3830 C   0  0  0  0  0  0  0  0  0  0  0  0
  173.2211   24.7248   52.1936 H   0  0  0  0  0  0  0  0  0  0  0  0
  173.2416   25.7087   50.6909 H   0  0  0  0  0  0  0  0  0  0  0  0
  172.4736   24.0848   50.6909 H   0  0  0  0  0  0  0  0  0  0  0  0
  175.2710   24.3590   51.4130 H   0  0  0  0  0  0  0  0  0  0  0  0
  174.2111   22.2530   51.7036 H   0  0  0  0  0  0  0  0  0  0  0  0
  173.6817   22.3414   49.9664 H   0  0  0  0  0  0  0  0  0  0  0  0
  176.5726   22.1437   50.9699 H   0  0  0  0  0  0  0  0  0  0  0  0
  175.6203   20.8359   50.1831 H   0  0  0  0  0  0  0  0  0  0  0  0
  178.7741   22.9652   49.3952 H   0  0  0  0  0  0  0  0  0  0  0  0
  183.3399   23.0531   45.4427 H   0  0  0  0  0  0  0  0  0  0  0  0
  185.7177   23.7932   45.6349 H   0  0  0  0  0  0  0  0  0  0  0  0
  186.8452   23.8089   47.8625 H   0  0  0  0  0  0  0  0  0  0  0  0
  186.6440   23.4730   50.1360 H   0  0  0  0  0  0  0  0  0  0  0  0
  180.9040   20.4990   51.1170 H   0  0  0  0  0  0  0  0  0  0  0  0
  180.3537   19.8902   46.8132 H   0  0  0  0  0  0  0  0  0  0  0  0
  178.0413   19.2248   46.1986 H   0  0  0  0  0  0  0  0  0  0  0  0
  177.1346   24.1927   49.5949 H   0  0  0  0  0  0  0  0  0  0  0  0
  176.5531   24.2504   47.8931 H   0  0  0  0  0  0  0  0  0  0  0  0
  175.1454   25.6535   49.4286 H   0  0  0  0  0  0  0  0  0  0  0  0
  174.2153   24.2912   48.6632 H   0  0  0  0  0  0  0  0  0  0  0  0
  1  2  1  0
  2  3  1  0
  3  4  1  0
  4  5  1  0
  5  6  1  0
  6  7  2  0
  7  8  1  0
  8  9  1  0
  9 10  1  0
 10 11  1  0
 11 12  2  0
 12 13  1  0
 13 14  2  0
 14 15  1  0
 15 16  1  0
 15 17  2  0
 17 18  1  0
 18 19  2  0
 18 20  1  0
 20 21  1  0
  8 22  2  0
 22 23  1  0
 23 24  2  0
 24 25  1  0
 25 26  1  0
 25 27  1  0
 25 28  1  0
  5 29  1  0
 29 30  1  0
 30  2  1  0
 24  6  1  0
 20  9  2  0
 17 11  1  0
  1 31  1  0
  1 32  1  0
  1 33  1  0
  2 34  1  0
  3 35  1  0
  3 36  1  0
  4 37  1  0
  4 38  1  0
  7 39  1  0
 12 40  1  0
 13 41  1  0
 14 42  1  0
 16 43  1  0
 21 44  1  0
 22 45  1  0
 23 46  1  0
 29 47  1  0
 29 48  1  0
 30 49  1  0
 30 50  1  0
M  CHG  1   2   1
M  END
>  <meeko>  (4) 
{"is_sidechain": [false], "free_energy": -7.858, "intermolecular_energy": -9.69, "internal_energy": -0.478}

$$$$
cand_056_out
     RDKit          3D

 50 53  0  0  0  0  0  0  0  0999 V2000
  183.0800   23.4210   49.2240 C   0  0  0  0  0  0  0  0  0  0  0  0
  181.6300   23.3400   49.3960 N   0  0  0  0  0  0  0  0  0  0  0  0
  180.9390   23.6070   48.1130 C   0  0  0  0  0  0  0  0  0  0  0  0
  179.4010   23.4760   48.2330 C   0  0  0  0  0  0  0  0  0  0  0  0
  179.0490   22.1280   48.7360 N   0  0  0  0  0  0  0  0  0  0  0  0
  177.6650   21.8770   48.7510 C   0  0  0  0  0  0  0  0  0  0  0  0
  176.8120   22.4660   49.7040 C   0  0  0  0  0  0  0  0  0  0  0  0
  175.4310   22.2230   49.7140 C   0  0  0  0  0  0  0  0  0  0  0  0
  174.5440   22.8290   50.7280 C   0  0  0  0  0  0  0  0  0  0  0  0
  175.2100   23.1620   51.9010 O   0  0  0  0  0  0  0  0  0  0  0  0
  174.5030   23.7340   52.9260 C   0  0  0  0  0  0  0  0  0  0  0  0
  175.2150   24.0650   54.0800 C   0  0  0  0  0  0  0  0  0  0  0  0
  174.5540   24.6490   55.1630 C   0  0  0  0  0  0  0  0  0  0  0  0
  173.1820   24.9020   55.0920 C   0  0  0  0  0  0  0  0  0  0  0  0
  172.4740   24.5710   53.9400 C   0  0  0  0  0  0  0  0  0  0  0  0
  171.1340   24.8440   53.9380 O   0  0  0  0  0  0  0  0  0  0  0  0
  173.1360   23.9870   52.8570 C   0  0  0  0  0  0  0  0  0  0  0  0
  172.4290   23.6220   51.6280 C   0  0  0  0  0  0  0  0  0  0  0  0
  171.2210   23.8060   51.4920 O   0  0  0  0  0  0  0  0  0  0  0  0
  173.2240   23.0160   50.5350 C   0  0  0  0  0  0  0  0  0  0  0  0
  172.5460   22.6630   49.3840 O   0  0  0  0  0  0  0  0  0  0  0  0
  174.9010   21.3540   48.7550 C   0  0  0  0  0  0  0  0  0  0  0  0
  175.7310   20.7570   47.8040 C   0  0  0  0  0  0  0  0  0  0  0  0
  177.1150   21.0110   47.7900 C   0  0  0  0  0  0  0  0  0  0  0  0
  177.9890   20.3560   46.7490 C   0  0  0  0  0  0  0  0  0  0  0  0
  177.3160   19.4210   46.0080 F   0  0  0  0  0  0  0  0  0  0  0  0
  179.0540   19.6810   47.2730 F   0  0  0  0  0  0  0  0  0  0  0  0
  178.4980   21.2270   45.8290 F   0  0  0  0  0  0  0  0  0  0  0  0
  179.7080   21.8440   50.0330 C   0  0  0  0  0  0  0  0  0  0  0  0
  181.2410   21.9980   49.8900 C   0  0  0  0  0  0  0  0  0  0  0  0
  183.5653   23.4481   50.2108 H   0  0  0  0  0  0  0  0  0  0  0  0
  183.4328   22.5412   48.6659 H   0  0  0  0  0  0  0  0  0  0  0  0
  183.3326   24.3347   48.6659 H   0  0  0  0  0  0  0  0  0  0  0  0
  181.3560   24.0440   50.0820 H   0  0  0  0  0  0  0  0  0  0  0  0
  181.1822   24.6290   47.7867 H   0  0  0  0  0  0  0  0  0  0  0  0
  181.2836   22.8587   47.3842 H   0  0  0  0  0  0  0  0  0  0  0  0
  179.0234   24.2366   48.9322 H   0  0  0  0  0  0  0  0  0  0  0  0
  178.9459   23.6239   47.2425 H   0  0  0  0  0  0  0  0  0  0  0  0
  177.2416   23.1364   50.4629 H   0  0  0  0  0  0  0  0  0  0  0  0
  176.2954   23.8662   54.1365 H   0  0  0  0  0  0  0  0  0  0  0  0
  175.1144   24.9100   56.0728 H   0  0  0  0  0  0  0  0  0  0  0  0
  172.6619   25.3621   55.9451 H   0  0  0  0  0  0  0  0  0  0  0  0
  170.5810   24.4820   54.6030 H   0  0  0  0  0  0  0  0  0  0  0  0
  172.0700   23.3110   48.9030 H   0  0  0  0  0  0  0  0  0  0  0  0
  173.8222   21.1392   48.7498 H   0  0  0  0  0  0  0  0  0  0  0  0
  175.2968   20.0784   47.0550 H   0  0  0  0  0  0  0  0  0  0  0  0
  179.3397   22.5504   50.7916 H   0  0  0  0  0  0  0  0  0  0  0  0
  179.4747   20.8137   50.3397 H   0  0  0  0  0  0  0  0  0  0  0  0
  181.7057   21.8352   50.8736 H   0  0  0  0  0  0  0  0  0  0  0  0
  181.5855   21.2567   49.1540 H   0  0  0  0  0  0  0  0  0  0  0  0
  1  2  1  0
  2  3  1  0
  3  4  1  0
  4  5  1  0
  5  6  1  0
  6  7  2  0
  7  8  1  0
  8  9  1  0
  9 10  1  0
 10 11  1  0
 11 12  2  0
 12 13  1  0
 13 14  2  0
 14 15  1  0
 15 16  1  0
 15 17  2  0
 17 18  1  0
 18 19  2  0
 18 20  1  0
 20 21  1  0
  8 22  2  0
 22 23  1  0
 23 24  2  0
 24 25  1  0
 25 26  1  0
 25 27  1  0
 25 28  1  0
  5 29  1  0
 29 30  1  0
 30  2  1  0
 24  6  1  0
 20  9  2  0
 17 11  1  0
  1 31  1  0
  1 32  1  0
  1 33  1  0
  2 34  1  0
  3 35  1  0
  3 36  1  0
  4 37  1  0
  4 38  1  0
  7 39  1  0
 12 40  1  0
 13 41  1  0
 14 42  1  0
 16 43  1  0
 21 44  1  0
 22 45  1  0
 23 46  1  0
 29 47  1  0
 29 48  1  0
 30 49  1  0
 30 50  1  0
M  CHG  1   2   1
M  END
>  <meeko>  (5) 
{"is_sidechain": [false], "free_energy": -7.699, "intermolecular_energy": -9.767, "internal_energy": -0.205}

$$$$
cand_056_out
     RDKit          3D

 50 53  0  0  0  0  0  0  0  0999 V2000
  183.5310   22.9790   48.9600 C   0  0  0  0  0  0  0  0  0  0  0  0
  182.0720   22.9960   49.0580 N   0  0  0  0  0  0  0  0  0  0  0  0
  181.4630   23.1900   47.7210 C   0  0  0  0  0  0  0  0  0  0  0  0
  179.9160   23.1590   47.7660 C   0  0  0  0  0  0  0  0  0  0  0  0
  179.4570   21.8820   48.3600 N   0  0  0  0  0  0  0  0  0  0  0  0
  178.0610   21.7130   48.3200 C   0  0  0  0  0  0  0  0  0  0  0  0
  177.1970   22.4590   49.1440 C   0  0  0  0  0  0  0  0  0  0  0  0
  175.8040   22.2980   49.0980 C   0  0  0  0  0  0  0  0  0  0  0  0
  174.9040   23.0700   49.9790 C   0  0  0  0  0  0  0  0  0  0  0  0
  173.9380   23.7800   49.2770 O   0  0  0  0  0  0  0  0  0  0  0  0
  173.0350   24.5400   49.9760 C   0  0  0  0  0  0  0  0  0  0  0  0
  172.0730   25.2250   49.2320 C   0  0  0  0  0  0  0  0  0  0  0  0
  171.1250   26.0180   49.8820 C   0  0  0  0  0  0  0  0  0  0  0  0
  171.1390   26.1260   51.2750 C   0  0  0  0  0  0  0  0  0  0  0  0
  172.1000   25.4420   52.0140 C   0  0  0  0  0  0  0  0  0  0  0  0
  172.0570   25.5930   53.3730 O   0  0  0  0  0  0  0  0  0  0  0  0
  173.0480   24.6480   51.3640 C   0  0  0  0  0  0  0  0  0  0  0  0
  174.0750   23.9130   52.1030 C   0  0  0  0  0  0  0  0  0  0  0  0
  174.1570   23.9630   53.3290 O   0  0  0  0  0  0  0  0  0  0  0  0
  175.0280   23.0930   51.3190 C   0  0  0  0  0  0  0  0  0  0  0  0
  176.0030   22.4130   52.0250 O   0  0  0  0  0  0  0  0  0  0  0  0
  175.2730   21.3510   48.2160 C   0  0  0  0  0  0  0  0  0  0  0  0
  176.1130   20.5990   47.3930 C   0  0  0  0  0  0  0  0  0  0  0  0
  177.5100   20.7710   47.4340 C   0  0  0  0  0  0  0  0  0  0  0  0
  178.3960   19.9470   46.5320 C   0  0  0  0  0  0  0  0  0  0  0  0
  177.7600   18.8390   46.0380 F   0  0  0  0  0  0  0  0  0  0  0  0
  179.5100   19.4600   47.1530 F   0  0  0  0  0  0  0  0  0  0  0  0
  178.8320   20.6190   45.4260 F   0  0  0  0  0  0  0  0  0  0  0  0
  180.0310   21.6740   49.7110 C   0  0  0  0  0  0  0  0  0  0  0  0
  181.5760   21.7270   49.6400 C   0  0  0  0  0  0  0  0  0  0  0  0
  183.9663   22.9739   49.9702 H   0  0  0  0  0  0  0  0  0  0  0  0
  183.8516   22.0771   48.4180 H   0  0  0  0  0  0  0  0  0  0  0  0
  183.8725   23.8732   48.4180 H   0  0  0  0  0  0  0  0  0  0  0  0
  181.8070   23.7720   49.6660 H   0  0  0  0  0  0  0  0  0  0  0  0
  181.7852   24.1640   47.3242 H   0  0  0  0  0  0  0  0  0  0  0  0
  181.7960   22.3621   47.0779 H   0  0  0  0  0  0  0  0  0  0  0  0
  179.5515   23.9979   48.3771 H   0  0  0  0  0  0  0  0  0  0  0  0
  179.5210   23.2466   46.7431 H   0  0  0  0  0  0  0  0  0  0  0  0
  177.6269   23.1899   49.8448 H   0  0  0  0  0  0  0  0  0  0  0  0
  172.0616   25.1403   48.1353 H   0  0  0  0  0  0  0  0  0  0  0  0
  170.3664   26.5583   49.2967 H   0  0  0  0  0  0  0  0  0  0  0  0
  170.3919   26.7505   51.7867 H   0  0  0  0  0  0  0  0  0  0  0  0
  172.6780   25.1450   53.9140 H   0  0  0  0  0  0  0  0  0  0  0  0
  175.8450   22.1560   52.9130 H   0  0  0  0  0  0  0  0  0  0  0  0
  174.1847   21.1977   48.1706 H   0  0  0  0  0  0  0  0  0  0  0  0
  175.6775   19.8616   46.7027 H   0  0  0  0  0  0  0  0  0  0  0  0
  179.6695   22.4633   50.3865 H   0  0  0  0  0  0  0  0  0  0  0  0
  179.7192   20.6894   50.0896 H   0  0  0  0  0  0  0  0  0  0  0  0
  181.9801   21.6236   50.6579 H   0  0  0  0  0  0  0  0  0  0  0  0
  181.9099   20.9063   48.9882 H   0  0  0  0  0  0  0  0  0  0  0  0
  1  2  1  0
  2  3  1  0
  3  4  1  0
  4  5  1  0
  5  6  1  0
  6  7  2  0
  7  8  1  0
  8  9  1  0
  9 10  1  0
 10 11  1  0
 11 12  2  0
 12 13  1  0
 13 14  2  0
 14 15  1  0
 15 16  1  0
 15 17  2  0
 17 18  1  0
 18 19  2  0
 18 20  1  0
 20 21  1  0
  8 22  2  0
 22 23  1  0
 23 24  2  0
 24 25  1  0
 25 26  1  0
 25 27  1  0
 25 28  1  0
  5 29  1  0
 29 30  1  0
 30  2  1  0
 24  6  1  0
 20  9  2  0
 17 11  1  0
  1 31  1  0
  1 32  1  0
  1 33  1  0
  2 34  1  0
  3 35  1  0
  3 36  1  0
  4 37  1  0
  4 38  1  0
  7 39  1  0
 12 40  1  0
 13 41  1  0
 14 42  1  0
 16 43  1  0
 21 44  1  0
 22 45  1  0
 23 46  1  0
 29 47  1  0
 29 48  1  0
 30 49  1  0
 30 50  1  0
M  CHG  1   2   1
M  END
>  <meeko>  (6) 
{"is_sidechain": [false], "free_energy": -7.696, "intermolecular_energy": -9.474, "internal_energy": -0.495}

$$$$
cand_056_out
     RDKit          3D

 50 53  0  0  0  0  0  0  0  0999 V2000
  174.9720   23.9490   53.3100 C   0  0  0  0  0  0  0  0  0  0  0  0
  175.8790   23.6070   52.2150 N   0  0  0  0  0  0  0  0  0  0  0  0
  176.5410   22.3080   52.4760 C   0  0  0  0  0  0  0  0  0  0  0  0
  177.4710   21.8760   51.3160 C   0  0  0  0  0  0  0  0  0  0  0  0
  176.7010   21.8170   50.0510 N   0  0  0  0  0  0  0  0  0  0  0  0
  177.4380   21.3060   48.9680 C   0  0  0  0  0  0  0  0  0  0  0  0
  178.7420   21.7510   48.6790 C   0  0  0  0  0  0  0  0  0  0  0  0
  179.4820   21.2350   47.6050 C   0  0  0  0  0  0  0  0  0  0  0  0
  180.8430   21.7200   47.2950 C   0  0  0  0  0  0  0  0  0  0  0  0
  181.2920   22.6820   48.1920 O   0  0  0  0  0  0  0  0  0  0  0  0
  182.5430   23.2160   48.0190 C   0  0  0  0  0  0  0  0  0  0  0  0
  182.9590   24.1680   48.9520 C   0  0  0  0  0  0  0  0  0  0  0  0
  184.2210   24.7530   48.8330 C   0  0  0  0  0  0  0  0  0  0  0  0
  185.0670   24.3880   47.7830 C   0  0  0  0  0  0  0  0  0  0  0  0
  184.6490   23.4380   46.8550 C   0  0  0  0  0  0  0  0  0  0  0  0
  185.5260   23.1270   45.8510 O   0  0  0  0  0  0  0  0  0  0  0  0
  183.3860   22.8520   46.9740 C   0  0  0  0  0  0  0  0  0  0  0  0
  182.9080   21.8510   46.0190 C   0  0  0  0  0  0  0  0  0  0  0  0
  183.5900   21.4820   45.0650 O   0  0  0  0  0  0  0  0  0  0  0  0
  181.5570   21.2850   46.2390 C   0  0  0  0  0  0  0  0  0  0  0  0
  181.1090   20.3500   45.3260 O   0  0  0  0  0  0  0  0  0  0  0  0
  178.8870   20.2640   46.7920 C   0  0  0  0  0  0  0  0  0  0  0  0
  177.5930   19.8130   47.0600 C   0  0  0  0  0  0  0  0  0  0  0  0
  176.8580   20.3240   48.1460 C   0  0  0  0  0  0  0  0  0  0  0  0
  175.4620   19.8160   48.4150 C   0  0  0  0  0  0  0  0  0  0  0  0
  175.1730   18.6750   47.7150 F   0  0  0  0  0  0  0  0  0  0  0  0
  174.4810   20.6980   48.0640 F   0  0  0  0  0  0  0  0  0  0  0  0
  175.2380   19.4890   49.7210 F   0  0  0  0  0  0  0  0  0  0  0  0
  176.0480   23.1130   49.7520 C   0  0  0  0  0  0  0  0  0  0  0  0
  175.1390   23.5290   50.9340 C   0  0  0  0  0  0  0  0  0  0  0  0
  175.4712   23.7608   54.2720 H   0  0  0  0  0  0  0  0  0  0  0  0
  174.6982   25.0121   53.2408 H   0  0  0  0  0  0  0  0  0  0  0  0
  174.0644   23.3314   53.2408 H   0  0  0  0  0  0  0  0  0  0  0  0
  176.5850   24.3410   52.1530 H   0  0  0  0  0  0  0  0  0  0  0  0
  177.1394   22.3948   53.3949 H   0  0  0  0  0  0  0  0  0  0  0  0
  175.7549   21.5453   52.5775 H   0  0  0  0  0  0  0  0  0  0  0  0
  178.2884   22.6048   51.2124 H   0  0  0  0  0  0  0  0  0  0  0  0
  177.8869   20.8815   51.5349 H   0  0  0  0  0  0  0  0  0  0  0  0
  179.1941   22.5267   49.3146 H   0  0  0  0  0  0  0  0  0  0  0  0
  182.2937   24.4564   49.7791 H   0  0  0  0  0  0  0  0  0  0  0  0
  184.5498   25.5029   49.5675 H   0  0  0  0  0  0  0  0  0  0  0  0
  186.0609   24.8500   47.6896 H   0  0  0  0  0  0  0  0  0  0  0  0
  186.1970   22.4890   45.9970 H   0  0  0  0  0  0  0  0  0  0  0  0
  180.4540   20.5850   44.6970 H   0  0  0  0  0  0  0  0  0  0  0  0
  179.4424   19.8532   45.9360 H   0  0  0  0  0  0  0  0  0  0  0  0
  177.1413   19.0469   46.4127 H   0  0  0  0  0  0  0  0  0  0  0  0
  176.8185   23.8824   49.5959 H   0  0  0  0  0  0  0  0  0  0  0  0
  175.4367   23.0098   48.8434 H   0  0  0  0  0  0  0  0  0  0  0  0
  174.7054   24.5161   50.7158 H   0  0  0  0  0  0  0  0  0  0  0  0
  174.3588   22.7614   51.0435 H   0  0  0  0  0  0  0  0  0  0  0  0
  1  2  1  0
  2  3  1  0
  3  4  1  0
  4  5  1  0
  5  6  1  0
  6  7  2  0
  7  8  1  0
  8  9  1  0
  9 10  1  0
 10 11  1  0
 11 12  2  0
 12 13  1  0
 13 14  2  0
 14 15  1  0
 15 16  1  0
 15 17  2  0
 17 18  1  0
 18 19  2  0
 18 20  1  0
 20 21  1  0
  8 22  2  0
 22 23  1  0
 23 24  2  0
 24 25  1  0
 25 26  1  0
 25 27  1  0
 25 28  1  0
  5 29  1  0
 29 30  1  0
 30  2  1  0
 24  6  1  0
 20  9  2  0
 17 11  1  0
  1 31  1  0
  1 32  1  0
  1 33  1  0
  2 34  1  0
  3 35  1  0
  3 36  1  0
  4 37  1  0
  4 38  1  0
  7 39  1  0
 12 40  1  0
 13 41  1  0
 14 42  1  0
 16 43  1  0
 21 44  1  0
 22 45  1  0
 23 46  1  0
 29 47  1  0
 29 48  1  0
 30 49  1  0
 30 50  1  0
M  CHG  1   2   1
M  END
>  <meeko>  (7) 
{"is_sidechain": [false], "free_energy": -7.604, "intermolecular_energy": -9.854, "internal_energy": -0.001}

$$$$
cand_056_out
     RDKit          3D

 50 53  0  0  0  0  0  0  0  0999 V2000
  183.9660   23.7540   49.8420 C   0  0  0  0  0  0  0  0  0  0  0  0
  182.5080   23.7030   49.7350 N   0  0  0  0  0  0  0  0  0  0  0  0
  182.0860   23.8550   48.3230 C   0  0  0  0  0  0  0  0  0  0  0  0
  180.5510   23.7510   48.1510 C   0  0  0  0  0  0  0  0  0  0  0  0
  180.0700   22.4600   48.6960 N   0  0  0  0  0  0  0  0  0  0  0  0
  178.7030   22.2250   48.4630 C   0  0  0  0  0  0  0  0  0  0  0  0
  177.6990   22.9410   49.1430 C   0  0  0  0  0  0  0  0  0  0  0  0
  176.3360   22.7140   48.9040 C   0  0  0  0  0  0  0  0  0  0  0  0
  175.2870   23.4540   49.6350 C   0  0  0  0  0  0  0  0  0  0  0  0
  175.4320   24.8330   49.5420 O   0  0  0  0  0  0  0  0  0  0  0  0
  174.5220   25.6400   50.1750 C   0  0  0  0  0  0  0  0  0  0  0  0
  174.6980   27.0190   50.0430 C   0  0  0  0  0  0  0  0  0  0  0  0
  173.8080   27.8970   50.6650 C   0  0  0  0  0  0  0  0  0  0  0  0
  172.7430   27.3970   51.4180 C   0  0  0  0  0  0  0  0  0  0  0  0
  172.5700   26.0220   51.5480 C   0  0  0  0  0  0  0  0  0  0  0  0
  171.5070   25.6010   52.3000 O   0  0  0  0  0  0  0  0  0  0  0  0
  173.4610   25.1430   50.9260 C   0  0  0  0  0  0  0  0  0  0  0  0
  173.3150   23.6920   51.0380 C   0  0  0  0  0  0  0  0  0  0  0  0
  172.4090   23.1760   51.6880 O   0  0  0  0  0  0  0  0  0  0  0  0
  174.3080   22.8470   50.3340 C   0  0  0  0  0  0  0  0  0  0  0  0
  174.1710   21.4780   50.4560 O   0  0  0  0  0  0  0  0  0  0  0  0
  175.9770   21.7320   47.9760 C   0  0  0  0  0  0  0  0  0  0  0  0
  176.9580   21.0090   47.2950 C   0  0  0  0  0  0  0  0  0  0  0  0
  178.3250   21.2470   47.5280 C   0  0  0  0  0  0  0  0  0  0  0  0
  179.3660   20.4540   46.7750 C   0  0  0  0  0  0  0  0  0  0  0  0
  178.8270   19.4050   46.0780 F   0  0  0  0  0  0  0  0  0  0  0  0
  180.3110   19.8860   47.5800 F   0  0  0  0  0  0  0  0  0  0  0  0
  180.0420   21.1820   45.8390 F   0  0  0  0  0  0  0  0  0  0  0  0
  180.4580   22.2930   50.1170 C   0  0  0  0  0  0  0  0  0  0  0  0
  181.9930   22.4180   50.2620 C   0  0  0  0  0  0  0  0  0  0  0  0
  184.2556   23.7641   50.9031 H   0  0  0  0  0  0  0  0  0  0  0  0
  184.4008   22.8705   49.3517 H   0  0  0  0  0  0  0  0  0  0  0  0
  184.3380   24.6657   49.3517 H   0  0  0  0  0  0  0  0  0  0  0  0
  182.1260   24.4720   50.2870 H   0  0  0  0  0  0  0  0  0  0  0  0
  182.4162   24.8394   47.9597 H   0  0  0  0  0  0  0  0  0  0  0  0
  182.5441   23.0379   47.7464 H   0  0  0  0  0  0  0  0  0  0  0  0
  180.0664   24.5781   48.6905 H   0  0  0  0  0  0  0  0  0  0  0  0
  180.3012   23.8087   47.0813 H   0  0  0  0  0  0  0  0  0  0  0  0
  177.9924   23.7002   49.8830 H   0  0  0  0  0  0  0  0  0  0  0  0
  175.5365   27.4130   49.4499 H   0  0  0  0  0  0  0  0  0  0  0  0
  173.9457   28.9835   50.5619 H   0  0  0  0  0  0  0  0  0  0  0  0
  172.0420   28.0890   51.9076 H   0  0  0  0  0  0  0  0  0  0  0  0
  171.6510   25.0530   53.0470 H   0  0  0  0  0  0  0  0  0  0  0  0
  173.3210   21.1010   50.5780 H   0  0  0  0  0  0  0  0  0  0  0  0
  174.9139   21.5275   47.7810 H   0  0  0  0  0  0  0  0  0  0  0  0
  176.6579   20.2422   46.5657 H   0  0  0  0  0  0  0  0  0  0  0  0
  179.9699   23.0712   50.7222 H   0  0  0  0  0  0  0  0  0  0  0  0
  180.1413   21.2985   50.4643 H   0  0  0  0  0  0  0  0  0  0  0  0
  182.2542   22.3434   51.3279 H   0  0  0  0  0  0  0  0  0  0  0  0
  182.4519   21.6077   49.6765 H   0  0  0  0  0  0  0  0  0  0  0  0
  1  2  1  0
  2  3  1  0
  3  4  1  0
  4  5  1  0
  5  6  1  0
  6  7  2  0
  7  8  1  0
  8  9  1  0
  9 10  1  0
 10 11  1  0
 11 12  2  0
 12 13  1  0
 13 14  2  0
 14 15  1  0
 15 16  1  0
 15 17  2  0
 17 18  1  0
 18 19  2  0
 18 20  1  0
 20 21  1  0
  8 22  2  0
 22 23  1  0
 23 24  2  0
 24 25  1  0
 25 26  1  0
 25 27  1  0
 25 28  1  0
  5 29  1  0
 29 30  1  0
 30  2  1  0
 24  6  1  0
 20  9  2  0
 17 11  1  0
  1 31  1  0
  1 32  1  0
  1 33  1  0
  2 34  1  0
  3 35  1  0
  3 36  1  0
  4 37  1  0
  4 38  1  0
  7 39  1  0
 12 40  1  0
 13 41  1  0
 14 42  1  0
 16 43  1  0
 21 44  1  0
 22 45  1  0
 23 46  1  0
 29 47  1  0
 29 48  1  0
 30 49  1  0
 30 50  1  0
M  CHG  1   2   1
M  END
>  <meeko>  (8) 
{"is_sidechain": [false], "free_energy": -7.54, "intermolecular_energy": -9.247, "internal_energy": -0.529}

$$$$
cand_056_out
     RDKit          3D

 50 53  0  0  0  0  0  0  0  0999 V2000
  174.8000   27.1050   55.2100 C   0  0  0  0  0  0  0  0  0  0  0  0
  175.3190   26.2110   54.1760 N   0  0  0  0  0  0  0  0  0  0  0  0
  174.6930   24.8730   54.2820 C   0  0  0  0  0  0  0  0  0  0  0  0
  175.1700   23.9070   53.1710 C   0  0  0  0  0  0  0  0  0  0  0  0
  174.8970   24.4980   51.8400 N   0  0  0  0  0  0  0  0  0  0  0  0
  175.1800   23.6290   50.7710 C   0  0  0  0  0  0  0  0  0  0  0  0
  176.4970   23.2500   50.4490 C   0  0  0  0  0  0  0  0  0  0  0  0
  176.7790   22.3760   49.3890 C   0  0  0  0  0  0  0  0  0  0  0  0
  178.1650   21.9960   49.0440 C   0  0  0  0  0  0  0  0  0  0  0  0
  178.2950   21.5500   47.7340 O   0  0  0  0  0  0  0  0  0  0  0  0
  179.5310   21.1660   47.2840 C   0  0  0  0  0  0  0  0  0  0  0  0
  179.6180   20.7390   45.9580 C   0  0  0  0  0  0  0  0  0  0  0  0
  180.8480   20.3330   45.4360 C   0  0  0  0  0  0  0  0  0  0  0  0
  181.9900   20.3530   46.2400 C   0  0  0  0  0  0  0  0  0  0  0  0
  181.9010   20.7790   47.5620 C   0  0  0  0  0  0  0  0  0  0  0  0
  183.0570   20.7720   48.2930 O   0  0  0  0  0  0  0  0  0  0  0  0
  180.6700   21.1860   48.0840 C   0  0  0  0  0  0  0  0  0  0  0  0
  180.5320   21.6400   49.4680 C   0  0  0  0  0  0  0  0  0  0  0  0
  181.4890   21.6800   50.2400 O   0  0  0  0  0  0  0  0  0  0  0  0
  179.1850   22.0580   49.9210 C   0  0  0  0  0  0  0  0  0  0  0  0
  179.0620   22.4730   51.2330 O   0  0  0  0  0  0  0  0  0  0  0  0
  175.7140   21.8910   48.6240 C   0  0  0  0  0  0  0  0  0  0  0  0
  174.4010   22.2590   48.9250 C   0  0  0  0  0  0  0  0  0  0  0  0
  174.1200   23.1270   49.9960 C   0  0  0  0  0  0  0  0  0  0  0  0
  172.6910   23.5070   50.3020 C   0  0  0  0  0  0  0  0  0  0  0  0
  172.5240   24.8590   50.4400 F   0  0  0  0  0  0  0  0  0  0  0  0
  172.2220   22.9790   51.4700 F   0  0  0  0  0  0  0  0  0  0  0  0
  171.8050   23.1450   49.3290 F   0  0  0  0  0  0  0  0  0  0  0  0
  175.5350   25.8280   51.6960 C   0  0  0  0  0  0  0  0  0  0  0  0
  175.0530   26.7680   52.8280 C   0  0  0  0  0  0  0  0  0  0  0  0
  175.0381   26.6949   56.2025 H   0  0  0  0  0  0  0  0  0  0  0  0
  175.2625   28.0973   55.1027 H   0  0  0  0  0  0  0  0  0  0  0  0
  173.7090   27.1954   55.1027 H   0  0  0  0  0  0  0  0  0  0  0  0
  176.3270   26.1250   54.3130 H   0  0  0  0  0  0  0  0  0  0  0  0
  174.9492   24.4400   55.2602 H   0  0  0  0  0  0  0  0  0  0  0  0
  173.6064   25.0020   54.1695 H   0  0  0  0  0  0  0  0  0  0  0  0
  176.2508   23.7325   53.2782 H   0  0  0  0  0  0  0  0  0  0  0  0
  174.6294   22.9534   53.2625 H   0  0  0  0  0  0  0  0  0  0  0  0
  177.3292   23.6511   51.0462 H   0  0  0  0  0  0  0  0  0  0  0  0
  178.7187   20.7223   45.3248 H   0  0  0  0  0  0  0  0  0  0  0  0
  180.9176   19.9972   44.3908 H   0  0  0  0  0  0  0  0  0  0  0  0
  182.9586   20.0324   45.8288 H   0  0  0  0  0  0  0  0  0  0  0  0
  183.4050   21.5760   48.6270 H   0  0  0  0  0  0  0  0  0  0  0  0
  178.2530   22.3490   51.6910 H   0  0  0  0  0  0  0  0  0  0  0  0
  175.9117   21.2149   47.7792 H   0  0  0  0  0  0  0  0  0  0  0  0
  173.5744   21.8645   48.3159 H   0  0  0  0  0  0  0  0  0  0  0  0
  176.6278   25.7168   51.7546 H   0  0  0  0  0  0  0  0  0  0  0  0
  175.2573   26.2599   50.7232 H   0  0  0  0  0  0  0  0  0  0  0  0
  175.5759   27.7312   52.7342 H   0  0  0  0  0  0  0  0  0  0  0  0
  173.9646   26.8887   52.7235 H   0  0  0  0  0  0  0  0  0  0  0  0
  1  2  1  0
  2  3  1  0
  3  4  1  0
  4  5  1  0
  5  6  1  0
  6  7  2  0
  7  8  1  0
  8  9  1  0
  9 10  1  0
 10 11  1  0
 11 12  2  0
 12 13  1  0
 13 14  2  0
 14 15  1  0
 15 16  1  0
 15 17  2  0
 17 18  1  0
 18 19  2  0
 18 20  1  0
 20 21  1  0
  8 22  2  0
 22 23  1  0
 23 24  2  0
 24 25  1  0
 25 26  1  0
 25 27  1  0
 25 28  1  0
  5 29  1  0
 29 30  1  0
 30  2  1  0
 24  6  1  0
 20  9  2  0
 17 11  1  0
  1 31  1  0
  1 32  1  0
  1 33  1  0
  2 34  1  0
  3 35  1  0
  3 36  1  0
  4 37  1  0
  4 38  1  0
  7 39  1  0
 12 40  1  0
 13 41  1  0
 14 42  1  0
 16 43  1  0
 21 44  1  0
 22 45  1  0
 23 46  1  0
 29 47  1  0
 29 48  1  0
 30 49  1  0
 30 50  1  0
M  CHG  1   2   1
M  END
>  <meeko>  (9) 
{"is_sidechain": [false], "free_energy": -7.424, "intermolecular_energy": -9.444, "internal_energy": -0.189}

$$$$
