9IV_ttbk2_out
     RDKit          3D

 37 40  0  0  0  0  0  0  0  0999 V2000
   35.2980   34.0140  -18.2110 Cl  0  0  0  0  0  0  0  0  0  0  0  0
   34.1420   32.9830  -17.4520 C   0  0  0  0  0  0  0  0  0  0  0  0
   32.8190   33.0200  -17.8980 C   0  0  0  0  0  0  0  0  0  0  0  0
   31.8580   32.1980  -17.3050 C   0  0  0  0  0  0  0  0  0  0  0  0
   32.2190   31.3340  -16.2720 C   0  0  0  0  0  0  0  0  0  0  0  0
   33.5410   31.2930  -15.8230 C   0  0  0  0  0  0  0  0  0  0  0  0
   34.5010   32.1320  -16.4010 C   0  0  0  0  0  0  0  0  0  0  0  0
   35.8180   32.0770  -15.9990 O   0  0  0  0  0  0  0  0  0  0  0  0
   36.4280   30.8440  -16.0230 C   0  0  0  0  0  0  0  0  0  0  0  0
   36.5830   30.0940  -17.1890 C   0  0  0  0  0  0  0  0  0  0  0  0
   37.1870   28.8350  -17.1260 C   0  0  0  0  0  0  0  0  0  0  0  0
   37.6400   28.3090  -15.9080 C   0  0  0  0  0  0  0  0  0  0  0  0
   38.2130   27.0210  -15.9090 N   0  0  0  0  0  0  0  0  0  0  0  0
   39.5640   26.6750  -15.7480 C   0  0  0  0  0  0  0  0  0  0  0  0
   40.2280   26.2800  -16.8640 N   0  0  0  0  0  0  0  0  0  0  0  0
   41.5300   25.9490  -16.7580 C   0  0  0  0  0  0  0  0  0  0  0  0
   42.3040   25.9640  -15.6600 N   0  0  0  0  0  0  0  0  0  0  0  0
   41.6190   26.3890  -14.5890 C   0  0  0  0  0  0  0  0  0  0  0  0
   42.1490   26.5330  -13.3370 N   0  0  0  0  0  0  0  0  0  0  0  0
   41.1900   27.0090  -12.4790 C   0  0  0  0  0  0  0  0  0  0  0  0
   40.0260   27.1670  -13.2010 C   0  0  0  0  0  0  0  0  0  0  0  0
   40.2840   26.7600  -14.5430 C   0  0  0  0  0  0  0  0  0  0  0  0
   37.4360   29.0580  -14.7420 C   0  0  0  0  0  0  0  0  0  0  0  0
   36.8330   30.3180  -14.7970 C   0  0  0  0  0  0  0  0  0  0  0  0
   32.5337   33.6969  -18.7168 H   0  0  0  0  0  0  0  0  0  0  0  0
   30.8152   32.2323  -17.6534 H   0  0  0  0  0  0  0  0  0  0  0  0
   31.4616   30.6837  -15.8099 H   0  0  0  0  0  0  0  0  0  0  0  0
   33.8274   30.6023  -15.0162 H   0  0  0  0  0  0  0  0  0  0  0  0
   36.2318   30.4912  -18.1528 H   0  0  0  0  0  0  0  0  0  0  0  0
   37.3089   28.2470  -18.0476 H   0  0  0  0  0  0  0  0  0  0  0  0
   37.5880   26.2710  -16.0390 H   0  0  0  0  0  0  0  0  0  0  0  0
   42.0210   25.6258  -17.6878 H   0  0  0  0  0  0  0  0  0  0  0  0
   43.0790   26.3270  -13.0870 H   0  0  0  0  0  0  0  0  0  0  0  0
   41.3252   27.2254  -11.4090 H   0  0  0  0  0  0  0  0  0  0  0  0
   39.0679   27.5409  -12.8108 H   0  0  0  0  0  0  0  0  0  0  0  0
   37.7541   28.6498  -13.7714 H   0  0  0  0  0  0  0  0  0  0  0  0
   36.6781   30.8944  -13.8730 H   0  0  0  0  0  0  0  0  0  0  0  0
  1  2  1  0
  2  3  2  0
  3  4  1  0
  4  5  2  0
  5  6  1  0
  6  7  2  0
  7  8  1  0
  8  9  1  0
  9 10  2  0
 10 11  1  0
 11 12  2  0
 12 13  1  0
 13 14  1  0
 14 15  2  0
 15 16  1  0
 16 17  2  0
 17 18  1  0
 18 19  1  0
 19 20  1  0
 20 21  2  0
 21 22  1  0
 12 23  1  0
 23 24  2  0
  7  2  1  0
 24  9  1  0
 22 14  1  0
 22 18  2  0
  3 25  1  0
  4 26  1  0
  5 27  1  0
  6 28  1  0
 10 29  1  0
 11 30  1  0
 13 31  1  0
 16 32  1  0
 19 33  1  0
 20 34  1  0
 21 35  1  0
 23 36  1  0
 24 37  1  0
M  END
>  <meeko>  (1) 
{"is_sidechain": [false], "free_energy": -10.506, "intermolecular_energy": -12.963, "internal_energy": -0.817}

$$$$
9IV_ttbk2_out
     RDKit          3D

 37 40  0  0  0  0  0  0  0  0999 V2000
   41.7130   25.6920  -16.5530 Cl  0  0  0  0  0  0  0  0  0  0  0  0
   41.8810   26.2050  -14.9140 C   0  0  0  0  0  0  0  0  0  0  0  0
   43.1670   26.4090  -14.4060 C   0  0  0  0  0  0  0  0  0  0  0  0
   43.3380   26.8250  -13.0840 C   0  0  0  0  0  0  0  0  0  0  0  0
   42.2260   27.0430  -12.2700 C   0  0  0  0  0  0  0  0  0  0  0  0
   40.9400   26.8400  -12.7740 C   0  0  0  0  0  0  0  0  0  0  0  0
   40.7660   26.4030  -14.0930 C   0  0  0  0  0  0  0  0  0  0  0  0
   39.5040   26.2360  -14.6180 O   0  0  0  0  0  0  0  0  0  0  0  0
   38.8600   27.3650  -15.0700 C   0  0  0  0  0  0  0  0  0  0  0  0
   38.7230   28.5220  -14.3030 C   0  0  0  0  0  0  0  0  0  0  0  0
   38.0270   29.6180  -14.8210 C   0  0  0  0  0  0  0  0  0  0  0  0
   37.4610   29.5750  -16.1030 C   0  0  0  0  0  0  0  0  0  0  0  0
   36.7460   30.7040  -16.5550 N   0  0  0  0  0  0  0  0  0  0  0  0
   35.3640   30.9360  -16.4860 C   0  0  0  0  0  0  0  0  0  0  0  0
   34.7290   31.1830  -17.6600 N   0  0  0  0  0  0  0  0  0  0  0  0
   33.3990   31.4020  -17.6420 C   0  0  0  0  0  0  0  0  0  0  0  0
   32.5710   31.3990  -16.5850 N   0  0  0  0  0  0  0  0  0  0  0  0
   33.2320   31.1200  -15.4520 C   0  0  0  0  0  0  0  0  0  0  0  0
   32.6490   31.0230  -14.2180 N   0  0  0  0  0  0  0  0  0  0  0  0
   33.5980   30.7010  -13.2820 C   0  0  0  0  0  0  0  0  0  0  0  0
   34.8090   30.5960  -13.9330 C   0  0  0  0  0  0  0  0  0  0  0  0
   34.5900   30.8760  -15.3130 C   0  0  0  0  0  0  0  0  0  0  0  0
   37.5710   28.3900  -16.8410 C   0  0  0  0  0  0  0  0  0  0  0  0
   38.2650   27.2900  -16.3280 C   0  0  0  0  0  0  0  0  0  0  0  0
   44.0446   26.2418  -15.0477 H   0  0  0  0  0  0  0  0  0  0  0  0
   44.3507   26.9810  -12.6839 H   0  0  0  0  0  0  0  0  0  0  0  0
   42.3627   27.3751  -11.2303 H   0  0  0  0  0  0  0  0  0  0  0  0
   40.0635   27.0233  -12.1351 H   0  0  0  0  0  0  0  0  0  0  0  0
   39.1607   28.5717  -13.2951 H   0  0  0  0  0  0  0  0  0  0  0  0
   37.9217   30.5287  -14.2131 H   0  0  0  0  0  0  0  0  0  0  0  0
   37.2840   31.4160  -16.9710 H   0  0  0  0  0  0  0  0  0  0  0  0
   32.9331   31.6094  -18.6166 H   0  0  0  0  0  0  0  0  0  0  0  0
   31.6930   31.1620  -14.0310 H   0  0  0  0  0  0  0  0  0  0  0  0
   33.4245   30.5531  -12.2059 H   0  0  0  0  0  0  0  0  0  0  0  0
   35.7734   30.3412  -13.4692 H   0  0  0  0  0  0  0  0  0  0  0  0
   37.1061   28.3238  -17.8357 H   0  0  0  0  0  0  0  0  0  0  0  0
   38.3414   26.3646  -16.9178 H   0  0  0  0  0  0  0  0  0  0  0  0
  1  2  1  0
  2  3  2  0
  3  4  1  0
  4  5  2  0
  5  6  1  0
  6  7  2  0
  7  8  1  0
  8  9  1  0
  9 10  2  0
 10 11  1  0
 11 12  2  0
 12 13  1  0
 13 14  1  0
 14 15  2  0
 15 16  1  0
 16 17  2  0
 17 18  1  0
 18 19  1  0
 19 20  1  0
 20 21  2  0
 21 22  1  0
 12 23  1  0
 23 24  2  0
  7  2  1  0
 24  9  1  0
 22 14  1  0
 22 18  2  0
  3 25  1  0
  4 26  1  0
  5 27  1  0
  6 28  1  0
 10 29  1  0
 11 30  1  0
 13 31  1  0
 16 32  1  0
 19 33  1  0
 20 34  1  0
 21 35  1  0
 23 36  1  0
 24 37  1  0
M  END
>  <meeko>  (2) 
{"is_sidechain": [false], "free_energy": -10.216, "intermolecular_energy": -12.824, "internal_energy": -0.598}

$$$$
9IV_ttbk2_out
     RDKit          3D

 37 40  0  0  0  0  0  0  0  0999 V2000
   40.8820   27.0010  -11.1180 Cl  0  0  0  0  0  0  0  0  0  0  0  0
   41.8420   26.6390  -12.5050 C   0  0  0  0  0  0  0  0  0  0  0  0
   43.2300   26.7730  -12.4120 C   0  0  0  0  0  0  0  0  0  0  0  0
   44.0360   26.4870  -13.5160 C   0  0  0  0  0  0  0  0  0  0  0  0
   43.4580   26.0610  -14.7120 C   0  0  0  0  0  0  0  0  0  0  0  0
   42.0720   25.9250  -14.8090 C   0  0  0  0  0  0  0  0  0  0  0  0
   41.2600   26.2320  -13.7100 C   0  0  0  0  0  0  0  0  0  0  0  0
   39.8940   26.0660  -13.7760 O   0  0  0  0  0  0  0  0  0  0  0  0
   39.1860   26.9910  -14.5080 C   0  0  0  0  0  0  0  0  0  0  0  0
   38.6770   26.7280  -15.7800 C   0  0  0  0  0  0  0  0  0  0  0  0
   37.9940   27.7320  -16.4730 C   0  0  0  0  0  0  0  0  0  0  0  0
   37.8120   29.0030  -15.9120 C   0  0  0  0  0  0  0  0  0  0  0  0
   37.1410   29.9800  -16.6760 N   0  0  0  0  0  0  0  0  0  0  0  0
   35.8050   30.3960  -16.5670 C   0  0  0  0  0  0  0  0  0  0  0  0
   35.1200   30.5550  -17.7280 N   0  0  0  0  0  0  0  0  0  0  0  0
   33.8300   30.9440  -17.6690 C   0  0  0  0  0  0  0  0  0  0  0  0
   33.0870   31.1950  -16.5800 N   0  0  0  0  0  0  0  0  0  0  0  0
   33.7910   30.9950  -15.4560 C   0  0  0  0  0  0  0  0  0  0  0  0
   33.2920   31.1470  -14.1920 N   0  0  0  0  0  0  0  0  0  0  0  0
   34.2610   30.8410  -13.2710 C   0  0  0  0  0  0  0  0  0  0  0  0
   35.4010   30.4910  -13.9650 C   0  0  0  0  0  0  0  0  0  0  0  0
   35.1160   30.6010  -15.3570 C   0  0  0  0  0  0  0  0  0  0  0  0
   38.3680   29.2620  -14.6530 C   0  0  0  0  0  0  0  0  0  0  0  0
   39.0520   28.2630  -13.9540 C   0  0  0  0  0  0  0  0  0  0  0  0
   43.6881   27.1041  -11.4683 H   0  0  0  0  0  0  0  0  0  0  0  0
   45.1279   26.5978  -13.4424 H   0  0  0  0  0  0  0  0  0  0  0  0
   44.0948   25.8321  -15.5793 H   0  0  0  0  0  0  0  0  0  0  0  0
   41.6178   25.5768  -15.7484 H   0  0  0  0  0  0  0  0  0  0  0  0
   38.8123   25.7359  -16.2354 H   0  0  0  0  0  0  0  0  0  0  0  0
   37.5929   27.5206  -17.4752 H   0  0  0  0  0  0  0  0  0  0  0  0
   37.6760   30.4250  -17.3720 H   0  0  0  0  0  0  0  0  0  0  0  0
   33.3224   31.0718  -18.6365 H   0  0  0  0  0  0  0  0  0  0  0  0
   32.3750   31.4320  -13.9740 H   0  0  0  0  0  0  0  0  0  0  0  0
   34.1495   30.8694  -12.1770 H   0  0  0  0  0  0  0  0  0  0  0  0
   36.3595   30.1820  -13.5225 H   0  0  0  0  0  0  0  0  0  0  0  0
   38.2653   30.2631  -14.2089 H   0  0  0  0  0  0  0  0  0  0  0  0
   39.4846   28.4809  -12.9664 H   0  0  0  0  0  0  0  0  0  0  0  0
  1  2  1  0
  2  3  2  0
  3  4  1  0
  4  5  2  0
  5  6  1  0
  6  7  2  0
  7  8  1  0
  8  9  1  0
  9 10  2  0
 10 11  1  0
 11 12  2  0
 12 13  1  0
 13 14  1  0
 14 15  2  0
 15 16  1  0
 16 17  2  0
 17 18  1  0
 18 19  1  0
 19 20  1  0
 20 21  2  0
 21 22  1  0
 12 23  1  0
 23 24  2  0
  7  2  1  0
 24  9  1  0
 22 14  1  0
 22 18  2  0
  3 25  1  0
  4 26  1  0
  5 27  1  0
  6 28  1  0
 10 29  1  0
 11 30  1  0
 13 31  1  0
 16 32  1  0
 19 33  1  0
 20 34  1  0
 21 35  1  0
 23 36  1  0
 24 37  1  0
M  END
>  <meeko>  (3) 
{"is_sidechain": [false], "free_energy": -9.924, "intermolecular_energy": -12.482, "internal_energy": -0.579}

$$$$
9IV_ttbk2_out
     RDKit          3D

 37 40  0  0  0  0  0  0  0  0999 V2000
   42.0770   25.6870  -16.4200 Cl  0  0  0  0  0  0  0  0  0  0  0  0
   42.2780   26.1970  -14.7840 C   0  0  0  0  0  0  0  0  0  0  0  0
   43.5630   26.5030  -14.3320 C   0  0  0  0  0  0  0  0  0  0  0  0
   43.7600   26.9200  -13.0130 C   0  0  0  0  0  0  0  0  0  0  0  0
   42.6730   27.0380  -12.1480 C   0  0  0  0  0  0  0  0  0  0  0  0
   41.3860   26.7330  -12.5960 C   0  0  0  0  0  0  0  0  0  0  0  0
   41.1890   26.2940  -13.9110 C   0  0  0  0  0  0  0  0  0  0  0  0
   39.9220   26.0270  -14.3810 O   0  0  0  0  0  0  0  0  0  0  0  0
   39.1560   27.1050  -14.7630 C   0  0  0  0  0  0  0  0  0  0  0  0
   38.9910   28.2410  -13.9700 C   0  0  0  0  0  0  0  0  0  0  0  0
   38.1720   29.2820  -14.4150 C   0  0  0  0  0  0  0  0  0  0  0  0
   37.5080   29.2050  -15.6470 C   0  0  0  0  0  0  0  0  0  0  0  0
   36.6720   30.2760  -16.0240 N   0  0  0  0  0  0  0  0  0  0  0  0
   35.3770   30.5650  -15.5660 C   0  0  0  0  0  0  0  0  0  0  0  0
   35.1570   30.4270  -14.2340 N   0  0  0  0  0  0  0  0  0  0  0  0
   33.9290   30.7030  -13.7500 C   0  0  0  0  0  0  0  0  0  0  0  0
   32.8470   31.1260  -14.4220 N   0  0  0  0  0  0  0  0  0  0  0  0
   33.1150   31.2790  -15.7270 C   0  0  0  0  0  0  0  0  0  0  0  0
   32.2160   31.7220  -16.6570 N   0  0  0  0  0  0  0  0  0  0  0  0
   32.8170   31.7890  -17.8880 C   0  0  0  0  0  0  0  0  0  0  0  0
   34.1240   31.3760  -17.7380 C   0  0  0  0  0  0  0  0  0  0  0  0
   34.3210   31.0340  -16.3680 C   0  0  0  0  0  0  0  0  0  0  0  0
   37.6500   28.0380  -16.4090 C   0  0  0  0  0  0  0  0  0  0  0  0
   38.4690   26.9930  -15.9700 C   0  0  0  0  0  0  0  0  0  0  0  0
   44.4210   26.4158  -15.0148 H   0  0  0  0  0  0  0  0  0  0  0  0
   44.7737   27.1554  -12.6568 H   0  0  0  0  0  0  0  0  0  0  0  0
   42.8293   27.3717  -11.1116 H   0  0  0  0  0  0  0  0  0  0  0  0
   40.5275   26.8375  -11.9163 H   0  0  0  0  0  0  0  0  0  0  0  0
   39.5031   28.3168  -12.9994 H   0  0  0  0  0  0  0  0  0  0  0  0
   38.0462   30.1770  -13.7879 H   0  0  0  0  0  0  0  0  0  0  0  0
   37.0430   30.8990  -16.6900 H   0  0  0  0  0  0  0  0  0  0  0  0
   33.7974   30.5638  -12.6668 H   0  0  0  0  0  0  0  0  0  0  0  0
   31.2780   31.9580  -16.4710 H   0  0  0  0  0  0  0  0  0  0  0  0
   32.3421   32.1136  -18.8256 H   0  0  0  0  0  0  0  0  0  0  0  0
   34.8807   31.3203  -18.5344 H   0  0  0  0  0  0  0  0  0  0  0  0
   37.1112   27.9427  -17.3633 H   0  0  0  0  0  0  0  0  0  0  0  0
   38.5709   26.0820  -16.5780 H   0  0  0  0  0  0  0  0  0  0  0  0
  1  2  1  0
  2  3  2  0
  3  4  1  0
  4  5  2  0
  5  6  1  0
  6  7  2  0
  7  8  1  0
  8  9  1  0
  9 10  2  0
 10 11  1  0
 11 12  2  0
 12 13  1  0
 13 14  1  0
 14 15  2  0
 15 16  1  0
 16 17  2  0
 17 18  1  0
 18 19  1  0
 19 20  1  0
 20 21  2  0
 21 22  1  0
 12 23  1  0
 23 24  2  0
  7  2  1  0
 24  9  1  0
 22 14  1  0
 22 18  2  0
  3 25  1  0
  4 26  1  0
  5 27  1  0
  6 28  1  0
 10 29  1  0
 11 30  1  0
 13 31  1  0
 16 32  1  0
 19 33  1  0
 20 34  1  0
 21 35  1  0
 23 36  1  0
 24 37  1  0
M  END
>  <meeko>  (4) 
{"is_sidechain": [false], "free_energy": -9.764, "intermolecular_energy": -12.559, "internal_energy": -0.306}

$$$$
9IV_ttbk2_out
     RDKit          3D

 37 40  0  0  0  0  0  0  0  0999 V2000
   40.6270   27.2780  -11.5800 Cl  0  0  0  0  0  0  0  0  0  0  0  0
   41.7330   26.8270  -12.8250 C   0  0  0  0  0  0  0  0  0  0  0  0
   43.0880   27.1200  -12.6530 C   0  0  0  0  0  0  0  0  0  0  0  0
   44.0100   26.7670  -13.6410 C   0  0  0  0  0  0  0  0  0  0  0  0
   43.5800   26.1170  -14.7980 C   0  0  0  0  0  0  0  0  0  0  0  0
   42.2270   25.8230  -14.9730 C   0  0  0  0  0  0  0  0  0  0  0  0
   41.2980   26.1940  -13.9940 C   0  0  0  0  0  0  0  0  0  0  0  0
   39.9640   25.8760  -14.1320 O   0  0  0  0  0  0  0  0  0  0  0  0
   39.1910   26.7340  -14.8800 C   0  0  0  0  0  0  0  0  0  0  0  0
   38.5370   27.8400  -14.3370 C   0  0  0  0  0  0  0  0  0  0  0  0
   37.7430   28.6460  -15.1570 C   0  0  0  0  0  0  0  0  0  0  0  0
   37.5910   28.3620  -16.5210 C   0  0  0  0  0  0  0  0  0  0  0  0
   36.7520   29.1990  -17.2870 N   0  0  0  0  0  0  0  0  0  0  0  0
   36.4510   30.5520  -17.0720 C   0  0  0  0  0  0  0  0  0  0  0  0
   37.4890   31.3630  -16.7440 N   0  0  0  0  0  0  0  0  0  0  0  0
   37.2460   32.6730  -16.5380 C   0  0  0  0  0  0  0  0  0  0  0  0
   36.0760   33.3240  -16.6260 N   0  0  0  0  0  0  0  0  0  0  0  0
   35.0840   32.4950  -16.9820 C   0  0  0  0  0  0  0  0  0  0  0  0
   33.7850   32.8780  -17.1760 N   0  0  0  0  0  0  0  0  0  0  0  0
   33.0350   31.7940  -17.5570 C   0  0  0  0  0  0  0  0  0  0  0  0
   33.8740   30.7010  -17.6040 C   0  0  0  0  0  0  0  0  0  0  0  0
   35.1780   31.1330  -17.2250 C   0  0  0  0  0  0  0  0  0  0  0  0
   38.2190   27.2240  -17.0390 C   0  0  0  0  0  0  0  0  0  0  0  0
   39.0140   26.4120  -16.2240 C   0  0  0  0  0  0  0  0  0  0  0  0
   43.4289   27.6288  -11.7393 H   0  0  0  0  0  0  0  0  0  0  0  0
   45.0762   27.0018  -13.5067 H   0  0  0  0  0  0  0  0  0  0  0  0
   44.3081   25.8359  -15.5732 H   0  0  0  0  0  0  0  0  0  0  0  0
   41.8907   25.2997  -15.8802 H   0  0  0  0  0  0  0  0  0  0  0  0
   38.6458   28.0766  -13.2683 H   0  0  0  0  0  0  0  0  0  0  0  0
   37.2290   29.5174  -14.7251 H   0  0  0  0  0  0  0  0  0  0  0  0
   36.3250   28.7810  -18.0700 H   0  0  0  0  0  0  0  0  0  0  0  0
   38.1172   33.2857  -16.2630 H   0  0  0  0  0  0  0  0  0  0  0  0
   33.4400   33.7920  -17.0590 H   0  0  0  0  0  0  0  0  0  0  0  0
   31.9587   31.7966  -17.7840 H   0  0  0  0  0  0  0  0  0  0  0  0
   33.5875   29.6767  -17.8844 H   0  0  0  0  0  0  0  0  0  0  0  0
   38.0858   26.9650  -18.0998 H   0  0  0  0  0  0  0  0  0  0  0  0
   39.4997   25.5189  -16.6441 H   0  0  0  0  0  0  0  0  0  0  0  0
  1  2  1  0
  2  3  2  0
  3  4  1  0
  4  5  2  0
  5  6  1  0
  6  7  2  0
  7  8  1  0
  8  9  1  0
  9 10  2  0
 10 11  1  0
 11 12  2  0
 12 13  1  0
 13 14  1  0
 14 15  2  0
 15 16  1  0
 16 17  2  0
 17 18  1  0
 18 19  1  0
 19 20  1  0
 20 21  2  0
 21 22  1  0
 12 23  1  0
 23 24  2  0
  7  2  1  0
 24  9  1  0
 22 14  1  0
 22 18  2  0
  3 25  1  0
  4 26  1  0
  5 27  1  0
  6 28  1  0
 10 29  1  0
 11 30  1  0
 13 31  1  0
 16 32  1  0
 19 33  1  0
 20 34  1  0
 21 35  1  0
 23 36  1  0
 24 37  1  0
M  END
>  <meeko>  (5) 
{"is_sidechain": [false], "free_energy": -9.636, "intermolecular_energy": -12.235, "internal_energy": -0.471}

$$$$
9IV_ttbk2_out
     RDKit          3D

 37 40  0  0  0  0  0  0  0  0999 V2000
   41.9400   25.5560  -16.3110 Cl  0  0  0  0  0  0  0  0  0  0  0  0
   41.9640   26.2330  -14.7240 C   0  0  0  0  0  0  0  0  0  0  0  0
   43.1710   26.7280  -14.2260 C   0  0  0  0  0  0  0  0  0  0  0  0
   43.2240   27.2840  -12.9460 C   0  0  0  0  0  0  0  0  0  0  0  0
   42.0710   27.3510  -12.1650 C   0  0  0  0  0  0  0  0  0  0  0  0
   40.8620   26.8580  -12.6590 C   0  0  0  0  0  0  0  0  0  0  0  0
   40.8110   26.2810  -13.9340 C   0  0  0  0  0  0  0  0  0  0  0  0
   39.6180   25.8260  -14.4530 O   0  0  0  0  0  0  0  0  0  0  0  0
   38.8880   26.7110  -15.2120 C   0  0  0  0  0  0  0  0  0  0  0  0
   38.7310   26.5810  -16.5930 C   0  0  0  0  0  0  0  0  0  0  0  0
   37.9990   27.5390  -17.2990 C   0  0  0  0  0  0  0  0  0  0  0  0
   37.4190   28.6340  -16.6440 C   0  0  0  0  0  0  0  0  0  0  0  0
   36.7190   29.5820  -17.4200 N   0  0  0  0  0  0  0  0  0  0  0  0
   36.2630   30.8510  -17.0300 C   0  0  0  0  0  0  0  0  0  0  0  0
   37.1900   31.6990  -16.5170 N   0  0  0  0  0  0  0  0  0  0  0  0
   36.7980   32.9330  -16.1390 C   0  0  0  0  0  0  0  0  0  0  0  0
   35.5710   33.4730  -16.2130 N   0  0  0  0  0  0  0  0  0  0  0  0
   34.6940   32.6150  -16.7540 C   0  0  0  0  0  0  0  0  0  0  0  0
   33.3750   32.8940  -16.9790 N   0  0  0  0  0  0  0  0  0  0  0  0
   32.7660   31.8130  -17.5660 C   0  0  0  0  0  0  0  0  0  0  0  0
   33.7180   30.8260  -17.7130 C   0  0  0  0  0  0  0  0  0  0  0  0
   34.9470   31.3210  -17.1850 C   0  0  0  0  0  0  0  0  0  0  0  0
   37.6250   28.7720  -15.2660 C   0  0  0  0  0  0  0  0  0  0  0  0
   38.3550   27.8170  -14.5530 C   0  0  0  0  0  0  0  0  0  0  0  0
   44.0808   26.6800  -14.8424 H   0  0  0  0  0  0  0  0  0  0  0  0
   44.1765   27.6695  -12.5535 H   0  0  0  0  0  0  0  0  0  0  0  0
   42.1140   27.7928  -11.1585 H   0  0  0  0  0  0  0  0  0  0  0  0
   39.9501   26.9227  -12.0472 H   0  0  0  0  0  0  0  0  0  0  0  0
   39.1813   25.7286  -17.1227 H   0  0  0  0  0  0  0  0  0  0  0  0
   37.8759   27.4321  -18.3868 H   0  0  0  0  0  0  0  0  0  0  0  0
   36.5260   29.3200  -18.3490 H   0  0  0  0  0  0  0  0  0  0  0  0
   37.5825   33.5783  -15.7169 H   0  0  0  0  0  0  0  0  0  0  0  0
   32.9280   33.7420  -16.7550 H   0  0  0  0  0  0  0  0  0  0  0  0
   31.7096   31.7460  -17.8651 H   0  0  0  0  0  0  0  0  0  0  0  0
   33.5578   29.8331  -18.1585 H   0  0  0  0  0  0  0  0  0  0  0  0
   37.2074   29.6422  -14.7384 H   0  0  0  0  0  0  0  0  0  0  0  0
   38.5089   27.9386  -13.4706 H   0  0  0  0  0  0  0  0  0  0  0  0
  1  2  1  0
  2  3  2  0
  3  4  1  0
  4  5  2  0
  5  6  1  0
  6  7  2  0
  7  8  1  0
  8  9  1  0
  9 10  2  0
 10 11  1  0
 11 12  2  0
 12 13  1  0
 13 14  1  0
 14 15  2  0
 15 16  1  0
 16 17  2  0
 17 18  1  0
 18 19  1  0
 19 20  1  0
 20 21  2  0
 21 22  1  0
 12 23  1  0
 23 24  2  0
  7  2  1  0
 24  9  1  0
 22 14  1  0
 22 18  2  0
  3 25  1  0
  4 26  1  0
  5 27  1  0
  6 28  1  0
 10 29  1  0
 11 30  1  0
 13 31  1  0
 16 32  1  0
 19 33  1  0
 20 34  1  0
 21 35  1  0
 23 36  1  0
 24 37  1  0
M  END
>  <meeko>  (6) 
{"is_sidechain": [false], "free_energy": -9.284, "intermolecular_energy": -11.939, "internal_energy": -0.334}

$$$$
9IV_ttbk2_out
     RDKit          3D

 37 40  0  0  0  0  0  0  0  0999 V2000
   35.6430   34.1200  -18.4340 Cl  0  0  0  0  0  0  0  0  0  0  0  0
   34.6040   32.9800  -17.6600 C   0  0  0  0  0  0  0  0  0  0  0  0
   33.2480   33.2920  -17.5310 C   0  0  0  0  0  0  0  0  0  0  0  0
   32.3800   32.3910  -16.9110 C   0  0  0  0  0  0  0  0  0  0  0  0
   32.8630   31.1760  -16.4240 C   0  0  0  0  0  0  0  0  0  0  0  0
   34.2180   30.8610  -16.5510 C   0  0  0  0  0  0  0  0  0  0  0  0
   35.0940   31.7720  -17.1540 C   0  0  0  0  0  0  0  0  0  0  0  0
   36.4250   31.4610  -17.3230 O   0  0  0  0  0  0  0  0  0  0  0  0
   36.9110   30.3850  -16.6160 C   0  0  0  0  0  0  0  0  0  0  0  0
   37.1960   30.4370  -15.2510 C   0  0  0  0  0  0  0  0  0  0  0  0
   37.7170   29.3100  -14.6090 C   0  0  0  0  0  0  0  0  0  0  0  0
   37.9620   28.1240  -15.3160 C   0  0  0  0  0  0  0  0  0  0  0  0
   38.5170   27.0330  -14.6150 N   0  0  0  0  0  0  0  0  0  0  0  0
   39.7640   26.9600  -13.9750 C   0  0  0  0  0  0  0  0  0  0  0  0
   39.8030   27.3400  -12.6730 N   0  0  0  0  0  0  0  0  0  0  0  0
   40.9780   27.2760  -12.0160 C   0  0  0  0  0  0  0  0  0  0  0  0
   42.1670   26.8610  -12.4800 N   0  0  0  0  0  0  0  0  0  0  0  0
   42.0790   26.4650  -13.7580 C   0  0  0  0  0  0  0  0  0  0  0  0
   43.1210   25.9690  -14.4900 N   0  0  0  0  0  0  0  0  0  0  0  0
   42.6870   25.6360  -15.7490 C   0  0  0  0  0  0  0  0  0  0  0  0
   41.3420   25.9320  -15.8180 C   0  0  0  0  0  0  0  0  0  0  0  0
   40.9470   26.4740  -14.5600 C   0  0  0  0  0  0  0  0  0  0  0  0
   37.7120   28.1050  -16.6930 C   0  0  0  0  0  0  0  0  0  0  0  0
   37.1900   29.2280  -17.3410 C   0  0  0  0  0  0  0  0  0  0  0  0
   32.8643   34.2476  -17.9179 H   0  0  0  0  0  0  0  0  0  0  0  0
   31.3136   32.6395  -16.8063 H   0  0  0  0  0  0  0  0  0  0  0  0
   32.1765   30.4658  -15.9398 H   0  0  0  0  0  0  0  0  0  0  0  0
   34.5966   29.8981  -16.1776 H   0  0  0  0  0  0  0  0  0  0  0  0
   37.0115   31.3607  -14.6828 H   0  0  0  0  0  0  0  0  0  0  0  0
   37.9383   29.3541  -13.5324 H   0  0  0  0  0  0  0  0  0  0  0  0
   37.9610   26.2220  -14.5700 H   0  0  0  0  0  0  0  0  0  0  0  0
   40.9603   27.6056  -10.9667 H   0  0  0  0  0  0  0  0  0  0  0  0
   44.0440   25.8650  -14.1640 H   0  0  0  0  0  0  0  0  0  0  0  0
   43.3008   25.2102  -16.5564 H   0  0  0  0  0  0  0  0  0  0  0  0
   40.6892   25.7773  -16.6897 H   0  0  0  0  0  0  0  0  0  0  0  0
   37.9290   27.1953  -17.2722 H   0  0  0  0  0  0  0  0  0  0  0  0
   36.9993   29.1986  -18.4239 H   0  0  0  0  0  0  0  0  0  0  0  0
  1  2  1  0
  2  3  2  0
  3  4  1  0
  4  5  2  0
  5  6  1  0
  6  7  2  0
  7  8  1  0
  8  9  1  0
  9 10  2  0
 10 11  1  0
 11 12  2  0
 12 13  1  0
 13 14  1  0
 14 15  2  0
 15 16  1  0
 16 17  2  0
 17 18  1  0
 18 19  1  0
 19 20  1  0
 20 21  2  0
 21 22  1  0
 12 23  1  0
 23 24  2  0
  7  2  1  0
 24  9  1  0
 22 14  1  0
 22 18  2  0
  3 25  1  0
  4 26  1  0
  5 27  1  0
  6 28  1  0
 10 29  1  0
 11 30  1  0
 13 31  1  0
 16 32  1  0
 19 33  1  0
 20 34  1  0
 21 35  1  0
 23 36  1  0
 24 37  1  0
M  END
>  <meeko>  (7) 
{"is_sidechain": [false], "free_energy": -9.254, "intermolecular_energy": -11.735, "internal_energy": -0.5}

$$$$
9IV_ttbk2_out
     RDKit          3D

 37 40  0  0  0  0  0  0  0  0999 V2000
   32.6020   31.1180  -17.4730 Cl  0  0  0  0  0  0  0  0  0  0  0  0
   34.0970   31.9740  -17.3910 C   0  0  0  0  0  0  0  0  0  0  0  0
   34.0690   33.3710  -17.4010 C   0  0  0  0  0  0  0  0  0  0  0  0
   35.2620   34.0940  -17.3350 C   0  0  0  0  0  0  0  0  0  0  0  0
   36.4830   33.4230  -17.2520 C   0  0  0  0  0  0  0  0  0  0  0  0
   36.5150   32.0280  -17.2410 C   0  0  0  0  0  0  0  0  0  0  0  0
   35.3210   31.3000  -17.3290 C   0  0  0  0  0  0  0  0  0  0  0  0
   35.3310   29.9230  -17.2790 O   0  0  0  0  0  0  0  0  0  0  0  0
   36.2800   29.3330  -16.4760 C   0  0  0  0  0  0  0  0  0  0  0  0
   36.4420   29.6530  -15.1280 C   0  0  0  0  0  0  0  0  0  0  0  0
   37.4500   29.0320  -14.3850 C   0  0  0  0  0  0  0  0  0  0  0  0
   38.3060   28.0910  -14.9740 C   0  0  0  0  0  0  0  0  0  0  0  0
   39.3220   27.5230  -14.1770 N   0  0  0  0  0  0  0  0  0  0  0  0
   40.4980   26.8850  -14.6000 C   0  0  0  0  0  0  0  0  0  0  0  0
   40.5120   26.4160  -15.8740 N   0  0  0  0  0  0  0  0  0  0  0  0
   41.6250   25.8050  -16.3260 C   0  0  0  0  0  0  0  0  0  0  0  0
   42.7800   25.5950  -15.6740 N   0  0  0  0  0  0  0  0  0  0  0  0
   42.7360   26.1010  -14.4330 C   0  0  0  0  0  0  0  0  0  0  0  0
   43.7730   26.0620  -13.5420 N   0  0  0  0  0  0  0  0  0  0  0  0
   43.4080   26.6890  -12.3780 C   0  0  0  0  0  0  0  0  0  0  0  0
   42.1110   27.1320  -12.5310 C   0  0  0  0  0  0  0  0  0  0  0  0
   41.6680   26.7500  -13.8310 C   0  0  0  0  0  0  0  0  0  0  0  0
   38.1570   27.8150  -16.3380 C   0  0  0  0  0  0  0  0  0  0  0  0
   37.1510   28.4330  -17.0870 C   0  0  0  0  0  0  0  0  0  0  0  0
   33.1072   33.9013  -17.4609 H   0  0  0  0  0  0  0  0  0  0  0  0
   35.2393   35.1937  -17.3484 H   0  0  0  0  0  0  0  0  0  0  0  0
   37.4212   33.9945  -17.1952 H   0  0  0  0  0  0  0  0  0  0  0  0
   37.4770   31.5002  -17.1633 H   0  0  0  0  0  0  0  0  0  0  0  0
   35.7794   30.3908  -14.6518 H   0  0  0  0  0  0  0  0  0  0  0  0
   37.5735   29.2856  -13.3218 H   0  0  0  0  0  0  0  0  0  0  0  0
   39.1890   27.5810  -13.2030 H   0  0  0  0  0  0  0  0  0  0  0  0
   41.5818   25.4311  -17.3596 H   0  0  0  0  0  0  0  0  0  0  0  0
   44.6500   25.6470  -13.7110 H   0  0  0  0  0  0  0  0  0  0  0  0
   44.0363   26.8156  -11.4840 H   0  0  0  0  0  0  0  0  0  0  0  0
   41.5225   27.6827  -11.7824 H   0  0  0  0  0  0  0  0  0  0  0  0
   38.8392   27.1037  -16.8264 H   0  0  0  0  0  0  0  0  0  0  0  0
   37.0471   28.2087  -18.1589 H   0  0  0  0  0  0  0  0  0  0  0  0
  1  2  1  0
  2  3  2  0
  3  4  1  0
  4  5  2  0
  5  6  1  0
  6  7  2  0
  7  8  1  0
  8  9  1  0
  9 10  2  0
 10 11  1  0
 11 12  2  0
 12 13  1  0
 13 14  1  0
 14 15  2  0
 15 16  1  0
 16 17  2  0
 17 18  1  0
 18 19  1  0
 19 20  1  0
 20 21  2  0
 21 22  1  0
 12 23  1  0
 23 24  2  0
  7  2  1  0
 24  9  1  0
 22 14  1  0
 22 18  2  0
  3 25  1  0
  4 26  1  0
  5 27  1  0
  6 28  1  0
 10 29  1  0
 11 30  1  0
 13 31  1  0
 16 32  1  0
 19 33  1  0
 20 34  1  0
 21 35  1  0
 23 36  1  0
 24 37  1  0
M  END
>  <meeko>  (8) 
{"is_sidechain": [false], "free_energy": -8.665, "intermolecular_energy": -11.739, "internal_energy": 0.23}

$$$$
9IV_ttbk2_out
     RDKit          3D

 37 40  0  0  0  0  0  0  0  0999 V2000
   32.6600   31.4890  -16.8050 Cl  0  0  0  0  0  0  0  0  0  0  0  0
   34.2310   32.1550  -17.0590 C   0  0  0  0  0  0  0  0  0  0  0  0
   34.3450   33.3350  -17.7980 C   0  0  0  0  0  0  0  0  0  0  0  0
   35.6030   33.9010  -18.0210 C   0  0  0  0  0  0  0  0  0  0  0  0
   36.7450   33.2920  -17.5020 C   0  0  0  0  0  0  0  0  0  0  0  0
   36.6350   32.1130  -16.7630 C   0  0  0  0  0  0  0  0  0  0  0  0
   35.3780   31.5320  -16.5560 C   0  0  0  0  0  0  0  0  0  0  0  0
   35.2460   30.3900  -15.7960 O   0  0  0  0  0  0  0  0  0  0  0  0
   36.3410   29.5610  -15.7190 C   0  0  0  0  0  0  0  0  0  0  0  0
   36.6890   28.6620  -16.7290 C   0  0  0  0  0  0  0  0  0  0  0  0
   37.7990   27.8300  -16.5630 C   0  0  0  0  0  0  0  0  0  0  0  0
   38.5720   27.8800  -15.3940 C   0  0  0  0  0  0  0  0  0  0  0  0
   39.6610   26.9920  -15.2770 N   0  0  0  0  0  0  0  0  0  0  0  0
   40.6350   26.9460  -14.2660 C   0  0  0  0  0  0  0  0  0  0  0  0
   40.3010   27.5030  -13.0740 N   0  0  0  0  0  0  0  0  0  0  0  0
   41.2020   27.4720  -12.0720 C   0  0  0  0  0  0  0  0  0  0  0  0
   42.4320   26.9350  -12.0780 N   0  0  0  0  0  0  0  0  0  0  0  0
   42.7090   26.3680  -13.2610 C   0  0  0  0  0  0  0  0  0  0  0  0
   43.8770   25.7200  -13.5560 N   0  0  0  0  0  0  0  0  0  0  0  0
   43.8270   25.2370  -14.8380 C   0  0  0  0  0  0  0  0  0  0  0  0
   42.6050   25.5880  -15.3700 C   0  0  0  0  0  0  0  0  0  0  0  0
   41.8900   26.3220  -14.3790 C   0  0  0  0  0  0  0  0  0  0  0  0
   38.1820   28.7550  -14.3740 C   0  0  0  0  0  0  0  0  0  0  0  0
   37.0730   29.5910  -14.5330 C   0  0  0  0  0  0  0  0  0  0  0  0
   33.4445   33.8186  -18.2044 H   0  0  0  0  0  0  0  0  0  0  0  0
   35.6925   34.8279  -18.6065 H   0  0  0  0  0  0  0  0  0  0  0  0
   37.7340   33.7414  -17.6752 H   0  0  0  0  0  0  0  0  0  0  0  0
   37.5354   31.6405  -16.3434 H   0  0  0  0  0  0  0  0  0  0  0  0
   36.0919   28.6090  -17.6513 H   0  0  0  0  0  0  0  0  0  0  0  0
   38.0709   27.1245  -17.3620 H   0  0  0  0  0  0  0  0  0  0  0  0
   39.7510   26.3220  -15.9930 H   0  0  0  0  0  0  0  0  0  0  0  0
   40.8897   27.9469  -11.1302 H   0  0  0  0  0  0  0  0  0  0  0  0
   44.6380   25.6160  -12.9410 H   0  0  0  0  0  0  0  0  0  0  0  0
   44.6194   24.6712  -15.3499 H   0  0  0  0  0  0  0  0  0  0  0  0
   42.2451   25.3448  -16.3806 H   0  0  0  0  0  0  0  0  0  0  0  0
   38.7551   28.7853  -13.4356 H   0  0  0  0  0  0  0  0  0  0  0  0
   36.7778   30.2729  -13.7219 H   0  0  0  0  0  0  0  0  0  0  0  0
  1  2  1  0
  2  3  2  0
  3  4  1  0
  4  5  2  0
  5  6  1  0
  6  7  2  0
  7  8  1  0
  8  9  1  0
  9 10  2  0
 10 11  1  0
 11 12  2  0
 12 13  1  0
 13 14  1  0
 14 15  2  0
 15 16  1  0
 16 17  2  0
 17 18  1  0
 18 19  1  0
 19 20  1  0
 20 21  2  0
 21 22  1  0
 12 23  1  0
 23 24  2  0
  7  2  1  0
 24  9  1  0
 22 14  1  0
 22 18  2  0
  3 25  1  0
  4 26  1  0
  5 27  1  0
  6 28  1  0
 10 29  1  0
 11 30  1  0
 13 31  1  0
 16 32  1  0
 19 33  1  0
 20 34  1  0
 21 35  1  0
 23 36  1  0
 24 37  1  0
M  END
>  <meeko>  (9) 
{"is_sidechain": [false], "free_energy": -8.53, "intermolecular_energy": -11.534, "internal_energy": 0.192}

$$$$
