kaempferol_out
     RDKit          3D

 31 33  0  0  0  0  0  0  0  0999 V2000
   39.8910   26.2130  -17.5270 O   0  0  0  0  0  0  0  0  0  0  0  0
   39.3790   26.9010  -16.6460 C   0  0  0  0  0  0  0  0  0  0  0  0
   38.1800   27.7210  -16.9320 C   0  0  0  0  0  0  0  0  0  0  0  0
   37.6690   27.6610  -18.2150 O   0  0  0  0  0  0  0  0  0  0  0  0
   37.6520   28.4570  -15.9360 C   0  0  0  0  0  0  0  0  0  0  0  0
   36.4490   29.3020  -16.1000 C   0  0  0  0  0  0  0  0  0  0  0  0
   35.8790   29.5390  -17.3610 C   0  0  0  0  0  0  0  0  0  0  0  0
   34.7550   30.3610  -17.4970 C   0  0  0  0  0  0  0  0  0  0  0  0
   34.2020   30.9550  -16.3690 C   0  0  0  0  0  0  0  0  0  0  0  0
   33.1070   31.7620  -16.4560 O   0  0  0  0  0  0  0  0  0  0  0  0
   34.7530   30.7440  -15.1130 C   0  0  0  0  0  0  0  0  0  0  0  0
   35.8760   29.9220  -14.9790 C   0  0  0  0  0  0  0  0  0  0  0  0
   38.1600   28.4870  -14.6420 O   0  0  0  0  0  0  0  0  0  0  0  0
   39.2750   27.7430  -14.3480 C   0  0  0  0  0  0  0  0  0  0  0  0
   39.7580   27.8110  -13.0420 C   0  0  0  0  0  0  0  0  0  0  0  0
   40.8850   27.0760  -12.6890 C   0  0  0  0  0  0  0  0  0  0  0  0
   41.3250   27.1700  -11.4020 O   0  0  0  0  0  0  0  0  0  0  0  0
   41.5400   26.2720  -13.6190 C   0  0  0  0  0  0  0  0  0  0  0  0
   41.0530   26.2080  -14.9220 C   0  0  0  0  0  0  0  0  0  0  0  0
   41.7340   25.4030  -15.7950 O   0  0  0  0  0  0  0  0  0  0  0  0
   39.9200   26.9430  -15.2870 C   0  0  0  0  0  0  0  0  0  0  0  0
   37.0730   28.3210  -18.5120 H   0  0  0  0  0  0  0  0  0  0  0  0
   36.3217   29.0725  -18.2534 H   0  0  0  0  0  0  0  0  0  0  0  0
   34.3126   30.5357  -18.4889 H   0  0  0  0  0  0  0  0  0  0  0  0
   33.2080   32.6680  -16.6770 H   0  0  0  0  0  0  0  0  0  0  0  0
   34.3084   31.2211  -14.2272 H   0  0  0  0  0  0  0  0  0  0  0  0
   36.3153   29.7594  -13.9837 H   0  0  0  0  0  0  0  0  0  0  0  0
   39.2516   28.4413  -12.2961 H   0  0  0  0  0  0  0  0  0  0  0  0
   42.1290   26.7600  -11.1500 H   0  0  0  0  0  0  0  0  0  0  0  0
   42.4303   25.6952  -13.3279 H   0  0  0  0  0  0  0  0  0  0  0  0
   41.7190   25.5880  -16.7130 H   0  0  0  0  0  0  0  0  0  0  0  0
  1  2  2  0
  2  3  1  0
  3  4  1  0
  3  5  2  0
  5  6  1  0
  6  7  2  0
  7  8  1  0
  8  9  2  0
  9 10  1  0
  9 11  1  0
 11 12  2  0
  5 13  1  0
 13 14  1  0
 14 15  2  0
 15 16  1  0
 16 17  1  0
 16 18  2  0
 18 19  1  0
 19 20  1  0
 19 21  2  0
 21  2  1  0
 12  6  1  0
 21 14  1  0
  4 22  1  0
  7 23  1  0
  8 24  1  0
 10 25  1  0
 11 26  1  0
 12 27  1  0
 15 28  1  0
 17 29  1  0
 18 30  1  0
 20 31  1  0
M  END
>  <meeko>  (1) 
{"is_sidechain": [false], "free_energy": -9.623, "intermolecular_energy": -11.31, "internal_energy": 0.333}

$$$$
kaempferol_out
     RDKit          3D

 31 33  0  0  0  0  0  0  0  0999 V2000
   37.6300   27.1360  -18.3360 O   0  0  0  0  0  0  0  0  0  0  0  0
   37.7660   27.6450  -17.2250 C   0  0  0  0  0  0  0  0  0  0  0  0
   38.8350   27.1840  -16.3110 C   0  0  0  0  0  0  0  0  0  0  0  0
   39.6650   26.1770  -16.7710 O   0  0  0  0  0  0  0  0  0  0  0  0
   38.9490   27.7710  -15.1050 C   0  0  0  0  0  0  0  0  0  0  0  0
   39.9850   27.4030  -14.1170 C   0  0  0  0  0  0  0  0  0  0  0  0
   39.8600   27.7320  -12.7580 C   0  0  0  0  0  0  0  0  0  0  0  0
   40.8630   27.3950  -11.8430 C   0  0  0  0  0  0  0  0  0  0  0  0
   42.0010   26.7340  -12.2870 C   0  0  0  0  0  0  0  0  0  0  0  0
   43.0020   26.3860  -11.4310 O   0  0  0  0  0  0  0  0  0  0  0  0
   42.1530   26.4070  -13.6280 C   0  0  0  0  0  0  0  0  0  0  0  0
   41.1500   26.7430  -14.5410 C   0  0  0  0  0  0  0  0  0  0  0  0
   38.1240   28.8010  -14.6650 O   0  0  0  0  0  0  0  0  0  0  0  0
   37.1210   29.2460  -15.4870 C   0  0  0  0  0  0  0  0  0  0  0  0
   36.3100   30.2720  -15.0020 C   0  0  0  0  0  0  0  0  0  0  0  0
   35.2770   30.7630  -15.7950 C   0  0  0  0  0  0  0  0  0  0  0  0
   34.5090   31.7660  -15.2840 O   0  0  0  0  0  0  0  0  0  0  0  0
   35.0380   30.2460  -17.0660 C   0  0  0  0  0  0  0  0  0  0  0  0
   35.8500   29.2210  -17.5450 C   0  0  0  0  0  0  0  0  0  0  0  0
   35.5710   28.7500  -18.8000 O   0  0  0  0  0  0  0  0  0  0  0  0
   36.8920   28.7210  -16.7560 C   0  0  0  0  0  0  0  0  0  0  0  0
   39.3210   25.5040  -17.3250 H   0  0  0  0  0  0  0  0  0  0  0  0
   38.9617   28.2617  -12.4081 H   0  0  0  0  0  0  0  0  0  0  0  0
   40.7512   27.6517  -10.7792 H   0  0  0  0  0  0  0  0  0  0  0  0
   42.8020   26.1540  -10.5440 H   0  0  0  0  0  0  0  0  0  0  0  0
   43.0592   25.8857  -13.9701 H   0  0  0  0  0  0  0  0  0  0  0  0
   41.2742   26.4877  -15.6037 H   0  0  0  0  0  0  0  0  0  0  0  0
   36.4856   30.6901  -13.9998 H   0  0  0  0  0  0  0  0  0  0  0  0
   33.8220   32.1400  -15.8010 H   0  0  0  0  0  0  0  0  0  0  0  0
   34.2184   30.6422  -17.6835 H   0  0  0  0  0  0  0  0  0  0  0  0
   34.7750   28.9960  -19.2260 H   0  0  0  0  0  0  0  0  0  0  0  0
  1  2  2  0
  2  3  1  0
  3  4  1  0
  3  5  2  0
  5  6  1  0
  6  7  2  0
  7  8  1  0
  8  9  2  0
  9 10  1  0
  9 11  1  0
 11 12  2  0
  5 13  1  0
 13 14  1  0
 14 15  2  0
 15 16  1  0
 16 17  1  0
 16 18  2  0
 18 19  1  0
 19 20  1  0
 19 21  2  0
 21  2  1  0
 12  6  1  0
 21 14  1  0
  4 22  1  0
  7 23  1  0
  8 24  1  0
 10 25  1  0
 11 26  1  0
 12 27  1  0
 15 28  1  0
 17 29  1  0
 18 30  1  0
 20 31  1  0
M  END
>  <meeko>  (2) 
{"is_sidechain": [false], "free_energy": -8.891, "intermolecular_energy": -10.448, "internal_energy": 0.331}

$$$$
kaempferol_out
     RDKit          3D

 31 33  0  0  0  0  0  0  0  0999 V2000
   36.3180   28.3670  -18.6390 O   0  0  0  0  0  0  0  0  0  0  0  0
   36.8630   28.4420  -17.5400 C   0  0  0  0  0  0  0  0  0  0  0  0
   38.0560   27.6200  -17.2330 C   0  0  0  0  0  0  0  0  0  0  0  0
   38.5220   26.7900  -18.2350 O   0  0  0  0  0  0  0  0  0  0  0  0
   38.6210   27.7360  -16.0170 C   0  0  0  0  0  0  0  0  0  0  0  0
   39.8220   26.9780  -15.6030 C   0  0  0  0  0  0  0  0  0  0  0  0
   40.2570   26.9520  -14.2690 C   0  0  0  0  0  0  0  0  0  0  0  0
   41.4080   26.2480  -13.9020 C   0  0  0  0  0  0  0  0  0  0  0  0
   42.1350   25.5710  -14.8750 C   0  0  0  0  0  0  0  0  0  0  0  0
   43.2620   24.8720  -14.5630 O   0  0  0  0  0  0  0  0  0  0  0  0
   41.7310   25.5900  -16.2030 C   0  0  0  0  0  0  0  0  0  0  0  0
   40.5800   26.2940  -16.5670 C   0  0  0  0  0  0  0  0  0  0  0  0
   38.1570   28.5940  -15.0260 O   0  0  0  0  0  0  0  0  0  0  0  0
   37.0500   29.3640  -15.2780 C   0  0  0  0  0  0  0  0  0  0  0  0
   36.6120   30.2020  -14.2530 C   0  0  0  0  0  0  0  0  0  0  0  0
   35.4940   31.0060  -14.4550 C   0  0  0  0  0  0  0  0  0  0  0  0
   35.0990   31.8100  -13.4280 O   0  0  0  0  0  0  0  0  0  0  0  0
   34.8040   30.9860  -15.6650 C   0  0  0  0  0  0  0  0  0  0  0  0
   35.2450   30.1470  -16.6850 C   0  0  0  0  0  0  0  0  0  0  0  0
   34.5310   30.1680  -17.8520 O   0  0  0  0  0  0  0  0  0  0  0  0
   36.3690   29.3360  -16.4910 C   0  0  0  0  0  0  0  0  0  0  0  0
   38.4050   25.8630  -18.1680 H   0  0  0  0  0  0  0  0  0  0  0  0
   39.6844   27.4931  -13.5013 H   0  0  0  0  0  0  0  0  0  0  0  0
   41.7357   26.2299  -12.8521 H   0  0  0  0  0  0  0  0  0  0  0  0
   43.2490   24.2510  -13.8600 H   0  0  0  0  0  0  0  0  0  0  0  0
   42.3144   25.0532  -16.9655 H   0  0  0  0  0  0  0  0  0  0  0  0
   40.2643   26.3125  -17.6205 H   0  0  0  0  0  0  0  0  0  0  0  0
   37.1462   30.2274  -13.2918 H   0  0  0  0  0  0  0  0  0  0  0  0
   35.3080   31.5780  -12.5450 H   0  0  0  0  0  0  0  0  0  0  0  0
   33.9212   31.6254  -15.8129 H   0  0  0  0  0  0  0  0  0  0  0  0
   33.8550   30.8040  -17.9770 H   0  0  0  0  0  0  0  0  0  0  0  0
  1  2  2  0
  2  3  1  0
  3  4  1  0
  3  5  2  0
  5  6  1  0
  6  7  2  0
  7  8  1  0
  8  9  2  0
  9 10  1  0
  9 11  1  0
 11 12  2  0
  5 13  1  0
 13 14  1  0
 14 15  2  0
 15 16  1  0
 16 17  1  0
 16 18  2  0
 18 19  1  0
 19 20  1  0
 19 21  2  0
 21  2  1  0
 12  6  1  0
 21 14  1  0
  4 22  1  0
  7 23  1  0
  8 24  1  0
 10 25  1  0
 11 26  1  0
 12 27  1  0
 15 28  1  0
 17 29  1  0
 18 30  1  0
 20 31  1  0
M  END
>  <meeko>  (3) 
{"is_sidechain": [false], "free_energy": -8.699, "intermolecular_energy": -10.277, "internal_energy": 0.386}

$$$$
kaempferol_out
     RDKit          3D

 31 33  0  0  0  0  0  0  0  0999 V2000
   37.5320   26.8640  -18.2940 O   0  0  0  0  0  0  0  0  0  0  0  0
   37.3490   27.7840  -17.5010 C   0  0  0  0  0  0  0  0  0  0  0  0
   36.3610   28.8470  -17.7950 C   0  0  0  0  0  0  0  0  0  0  0  0
   35.6600   28.7420  -18.9830 O   0  0  0  0  0  0  0  0  0  0  0  0
   36.1910   29.8340  -16.8960 C   0  0  0  0  0  0  0  0  0  0  0  0
   35.2250   30.9390  -17.0760 C   0  0  0  0  0  0  0  0  0  0  0  0
   33.8400   30.7110  -17.1160 C   0  0  0  0  0  0  0  0  0  0  0  0
   32.9440   31.7670  -17.3100 C   0  0  0  0  0  0  0  0  0  0  0  0
   33.4330   33.0580  -17.4750 C   0  0  0  0  0  0  0  0  0  0  0  0
   32.5960   34.1160  -17.6660 O   0  0  0  0  0  0  0  0  0  0  0  0
   34.7980   33.3070  -17.4500 C   0  0  0  0  0  0  0  0  0  0  0  0
   35.6920   32.2510  -17.2550 C   0  0  0  0  0  0  0  0  0  0  0  0
   36.8840   29.9140  -15.6930 O   0  0  0  0  0  0  0  0  0  0  0  0
   37.8110   28.9480  -15.3950 C   0  0  0  0  0  0  0  0  0  0  0  0
   38.4910   29.0720  -14.1840 C   0  0  0  0  0  0  0  0  0  0  0  0
   39.4420   28.1190  -13.8300 C   0  0  0  0  0  0  0  0  0  0  0  0
   40.0830   28.2770  -12.6380 O   0  0  0  0  0  0  0  0  0  0  0  0
   39.7260   27.0420  -14.6670 C   0  0  0  0  0  0  0  0  0  0  0  0
   39.0440   26.9230  -15.8750 C   0  0  0  0  0  0  0  0  0  0  0  0
   39.3620   25.8470  -16.6580 O   0  0  0  0  0  0  0  0  0  0  0  0
   38.0860   27.8760  -16.2390 C   0  0  0  0  0  0  0  0  0  0  0  0
   35.6290   29.4690  -19.5730 H   0  0  0  0  0  0  0  0  0  0  0  0
   33.4547   29.6881  -16.9931 H   0  0  0  0  0  0  0  0  0  0  0  0
   31.8606   31.5777  -17.3319 H   0  0  0  0  0  0  0  0  0  0  0  0
   31.7270   34.0960  -17.3160 H   0  0  0  0  0  0  0  0  0  0  0  0
   35.1748   34.3318  -17.5832 H   0  0  0  0  0  0  0  0  0  0  0  0
   36.7738   32.4498  -17.2416 H   0  0  0  0  0  0  0  0  0  0  0  0
   38.2774   29.9171  -13.5130 H   0  0  0  0  0  0  0  0  0  0  0  0
   39.8990   27.6950  -11.9270 H   0  0  0  0  0  0  0  0  0  0  0  0
   40.4796   26.2950  -14.3771 H   0  0  0  0  0  0  0  0  0  0  0  0
   40.1810   25.8230  -17.1130 H   0  0  0  0  0  0  0  0  0  0  0  0
  1  2  2  0
  2  3  1  0
  3  4  1  0
  3  5  2  0
  5  6  1  0
  6  7  2  0
  7  8  1  0
  8  9  2  0
  9 10  1  0
  9 11  1  0
 11 12  2  0
  5 13  1  0
 13 14  1  0
 14 15  2  0
 15 16  1  0
 16 17  1  0
 16 18  2  0
 18 19  1  0
 19 20  1  0
 19 21  2  0
 21  2  1  0
 12  6  1  0
 21 14  1  0
  4 22  1  0
  7 23  1  0
  8 24  1  0
 10 25  1  0
 11 26  1  0
 12 27  1  0
 15 28  1  0
 17 29  1  0
 18 30  1  0
 20 31  1  0
M  END
>  <meeko>  (4) 
{"is_sidechain": [false], "free_energy": -8.624, "intermolecular_energy": -9.612, "internal_energy": -0.192}

$$$$
kaempferol_out
     RDKit          3D

 31 33  0  0  0  0  0  0  0  0999 V2000
   38.7830   28.7250  -13.0510 O   0  0  0  0  0  0  0  0  0  0  0  0
   39.4650   28.0470  -13.8170 C   0  0  0  0  0  0  0  0  0  0  0  0
   40.8050   27.5680  -13.4080 C   0  0  0  0  0  0  0  0  0  0  0  0
   41.2330   27.9050  -12.1370 O   0  0  0  0  0  0  0  0  0  0  0  0
   41.5160   26.8260  -14.2770 C   0  0  0  0  0  0  0  0  0  0  0  0
   42.8570   26.2810  -13.9740 C   0  0  0  0  0  0  0  0  0  0  0  0
   43.7870   26.9940  -13.2010 C   0  0  0  0  0  0  0  0  0  0  0  0
   45.0580   26.4710  -12.9450 C   0  0  0  0  0  0  0  0  0  0  0  0
   45.4070   25.2330  -13.4720 C   0  0  0  0  0  0  0  0  0  0  0  0
   46.6350   24.6850  -13.2480 O   0  0  0  0  0  0  0  0  0  0  0  0
   44.5100   24.5140  -14.2480 C   0  0  0  0  0  0  0  0  0  0  0  0
   43.2390   25.0370  -14.5020 C   0  0  0  0  0  0  0  0  0  0  0  0
   41.0630   26.4720  -15.5440 O   0  0  0  0  0  0  0  0  0  0  0  0
   39.8290   26.9070  -15.9540 C   0  0  0  0  0  0  0  0  0  0  0  0
   39.4180   26.5380  -17.2350 C   0  0  0  0  0  0  0  0  0  0  0  0
   38.1740   26.9520  -17.7020 C   0  0  0  0  0  0  0  0  0  0  0  0
   37.8110   26.5690  -18.9580 O   0  0  0  0  0  0  0  0  0  0  0  0
   37.3310   27.7290  -16.9100 C   0  0  0  0  0  0  0  0  0  0  0  0
   37.7460   28.0940  -15.6330 C   0  0  0  0  0  0  0  0  0  0  0  0
   36.8790   28.8580  -14.8990 O   0  0  0  0  0  0  0  0  0  0  0  0
   38.9950   27.6830  -15.1540 C   0  0  0  0  0  0  0  0  0  0  0  0
   40.6890   27.7210  -11.3960 H   0  0  0  0  0  0  0  0  0  0  0  0
   43.5120   27.9771  -12.7913 H   0  0  0  0  0  0  0  0  0  0  0  0
   45.7762   27.0347  -12.3314 H   0  0  0  0  0  0  0  0  0  0  0  0
   47.3860   25.0160  -13.7010 H   0  0  0  0  0  0  0  0  0  0  0  0
   44.7977   23.5362  -14.6618 H   0  0  0  0  0  0  0  0  0  0  0  0
   42.5304   24.4682  -15.1220 H   0  0  0  0  0  0  0  0  0  0  0  0
   40.0724   25.9242  -17.8714 H   0  0  0  0  0  0  0  0  0  0  0  0
   37.5030   27.2080  -19.5710 H   0  0  0  0  0  0  0  0  0  0  0  0
   36.3497   28.0498  -17.2896 H   0  0  0  0  0  0  0  0  0  0  0  0
   37.0540   29.7680  -14.7640 H   0  0  0  0  0  0  0  0  0  0  0  0
  1  2  2  0
  2  3  1  0
  3  4  1  0
  3  5  2  0
  5  6  1  0
  6  7  2  0
  7  8  1  0
  8  9  2  0
  9 10  1  0
  9 11  1  0
 11 12  2  0
  5 13  1  0
 13 14  1  0
 14 15  2  0
 15 16  1  0
 16 17  1  0
 16 18  2  0
 18 19  1  0
 19 20  1  0
 19 21  2  0
 21  2  1  0
 12  6  1  0
 21 14  1  0
  4 22  1  0
  7 23  1  0
  8 24  1  0
 10 25  1  0
 11 26  1  0
 12 27  1  0
 15 28  1  0
 17 29  1  0
 18 30  1  0
 20 31  1  0
M  END
>  <meeko>  (5) 
{"is_sidechain": [false], "free_energy": -8.615, "intermolecular_energy": -9.901, "internal_energy": 0.108}

$$$$
kaempferol_out
     RDKit          3D

 31 33  0  0  0  0  0  0  0  0999 V2000
   38.7670   28.8270  -12.9370 O   0  0  0  0  0  0  0  0  0  0  0  0
   38.3900   28.6690  -14.0960 C   0  0  0  0  0  0  0  0  0  0  0  0
   37.2020   29.3900  -14.6060 C   0  0  0  0  0  0  0  0  0  0  0  0
   36.5600   30.2450  -13.7290 O   0  0  0  0  0  0  0  0  0  0  0  0
   36.8260   29.1880  -15.8830 C   0  0  0  0  0  0  0  0  0  0  0  0
   35.6660   29.8630  -16.5050 C   0  0  0  0  0  0  0  0  0  0  0  0
   35.4040   29.7650  -17.8810 C   0  0  0  0  0  0  0  0  0  0  0  0
   34.3150   30.4300  -18.4530 C   0  0  0  0  0  0  0  0  0  0  0  0
   33.4870   31.2050  -17.6490 C   0  0  0  0  0  0  0  0  0  0  0  0
   32.4140   31.8690  -18.1640 O   0  0  0  0  0  0  0  0  0  0  0  0
   33.7300   31.3250  -16.2880 C   0  0  0  0  0  0  0  0  0  0  0  0
   34.8190   30.6590  -15.7170 C   0  0  0  0  0  0  0  0  0  0  0  0
   37.4950   28.3450  -16.7630 O   0  0  0  0  0  0  0  0  0  0  0  0
   38.5960   27.6580  -16.3180 C   0  0  0  0  0  0  0  0  0  0  0  0
   39.2310   26.8160  -17.2300 C   0  0  0  0  0  0  0  0  0  0  0  0
   40.3530   26.0950  -16.8320 C   0  0  0  0  0  0  0  0  0  0  0  0
   40.9440   25.2830  -17.7540 O   0  0  0  0  0  0  0  0  0  0  0  0
   40.8530   26.2010  -15.5360 C   0  0  0  0  0  0  0  0  0  0  0  0
   40.2150   27.0440  -14.6300 C   0  0  0  0  0  0  0  0  0  0  0  0
   40.7480   27.1110  -13.3710 O   0  0  0  0  0  0  0  0  0  0  0  0
   39.0860   27.7730  -15.0210 C   0  0  0  0  0  0  0  0  0  0  0  0
   36.6480   30.1190  -12.8050 H   0  0  0  0  0  0  0  0  0  0  0  0
   36.0640   29.1572  -18.5173 H   0  0  0  0  0  0  0  0  0  0  0  0
   34.1150   30.3406  -19.5310 H   0  0  0  0  0  0  0  0  0  0  0  0
   31.7310   31.3940  -18.5970 H   0  0  0  0  0  0  0  0  0  0  0  0
   33.0689   31.9413  -15.6611 H   0  0  0  0  0  0  0  0  0  0  0  0
   35.0142   30.7597  -14.6392 H   0  0  0  0  0  0  0  0  0  0  0  0
   38.8479   26.7222  -18.2569 H   0  0  0  0  0  0  0  0  0  0  0  0
   41.4060   25.6570  -18.4780 H   0  0  0  0  0  0  0  0  0  0  0  0
   41.7403   25.6261  -15.2324 H   0  0  0  0  0  0  0  0  0  0  0  0
   40.2000   26.9830  -12.6220 H   0  0  0  0  0  0  0  0  0  0  0  0
  1  2  2  0
  2  3  1  0
  3  4  1  0
  3  5  2  0
  5  6  1  0
  6  7  2  0
  7  8  1  0
  8  9  2  0
  9 10  1  0
  9 11  1  0
 11 12  2  0
  5 13  1  0
 13 14  1  0
 14 15  2  0
 15 16  1  0
 16 17  1  0
 16 18  2  0
 18 19  1  0
 19 20  1  0
 19 21  2  0
 21  2  1  0
 12  6  1  0
 21 14  1  0
  4 22  1  0
  7 23  1  0
  8 24  1  0
 10 25  1  0
 11 26  1  0
 12 27  1  0
 15 28  1  0
 17 29  1  0
 18 30  1  0
 20 31  1  0
M  END
>  <meeko>  (6) 
{"is_sidechain": [false], "free_energy": -8.572, "intermolecular_energy": -10.153, "internal_energy": 0.411}

$$$$
kaempferol_out
     RDKit          3D

 31 33  0  0  0  0  0  0  0  0999 V2000
   37.5310   29.9280  -13.1810 O   0  0  0  0  0  0  0  0  0  0  0  0
   37.1030   29.8250  -14.3290 C   0  0  0  0  0  0  0  0  0  0  0  0
   36.0540   30.7430  -14.8270 C   0  0  0  0  0  0  0  0  0  0  0  0
   35.6000   31.7130  -13.9510 O   0  0  0  0  0  0  0  0  0  0  0  0
   35.6170   30.5960  -16.0910 C   0  0  0  0  0  0  0  0  0  0  0  0
   34.5840   31.4620  -16.7000 C   0  0  0  0  0  0  0  0  0  0  0  0
   34.9170   32.6460  -17.3760 C   0  0  0  0  0  0  0  0  0  0  0  0
   33.9240   33.4630  -17.9250 C   0  0  0  0  0  0  0  0  0  0  0  0
   32.5890   33.1010  -17.7910 C   0  0  0  0  0  0  0  0  0  0  0  0
   31.5890   33.8670  -18.3110 O   0  0  0  0  0  0  0  0  0  0  0  0
   32.2330   31.9400  -17.1190 C   0  0  0  0  0  0  0  0  0  0  0  0
   33.2270   31.1240  -16.5710 C   0  0  0  0  0  0  0  0  0  0  0  0
   36.1010   29.6330  -16.9700 O   0  0  0  0  0  0  0  0  0  0  0  0
   37.0680   28.7630  -16.5360 C   0  0  0  0  0  0  0  0  0  0  0  0
   37.5170   27.8060  -17.4450 C   0  0  0  0  0  0  0  0  0  0  0  0
   38.4990   26.8990  -17.0580 C   0  0  0  0  0  0  0  0  0  0  0  0
   38.9090   25.9800  -17.9780 O   0  0  0  0  0  0  0  0  0  0  0  0
   39.0410   26.9300  -15.7750 C   0  0  0  0  0  0  0  0  0  0  0  0
   38.5890   27.8880  -14.8710 C   0  0  0  0  0  0  0  0  0  0  0  0
   39.1560   27.8740  -13.6250 O   0  0  0  0  0  0  0  0  0  0  0  0
   37.6030   28.8040  -15.2510 C   0  0  0  0  0  0  0  0  0  0  0  0
   35.1930   32.4890  -14.2830 H   0  0  0  0  0  0  0  0  0  0  0  0
   35.9737   32.9352  -17.4753 H   0  0  0  0  0  0  0  0  0  0  0  0
   34.1974   34.3851  -18.4588 H   0  0  0  0  0  0  0  0  0  0  0  0
   31.5110   34.7680  -18.0630 H   0  0  0  0  0  0  0  0  0  0  0  0
   31.1732   31.6631  -17.0180 H   0  0  0  0  0  0  0  0  0  0  0  0
   32.9433   30.2074  -16.0330 H   0  0  0  0  0  0  0  0  0  0  0  0
   37.0979   27.7681  -18.4613 H   0  0  0  0  0  0  0  0  0  0  0  0
   38.2990   25.6360  -18.6000 H   0  0  0  0  0  0  0  0  0  0  0  0
   39.8159   26.2072  -15.4799 H   0  0  0  0  0  0  0  0  0  0  0  0
   38.6120   27.8580  -12.8630 H   0  0  0  0  0  0  0  0  0  0  0  0
  1  2  2  0
  2  3  1  0
  3  4  1  0
  3  5  2  0
  5  6  1  0
  6  7  2  0
  7  8  1  0
  8  9  2  0
  9 10  1  0
  9 11  1  0
 11 12  2  0
  5 13  1  0
 13 14  1  0
 14 15  2  0
 15 16  1  0
 16 17  1  0
 16 18  2  0
 18 19  1  0
 19 20  1  0
 19 21  2  0
 21  2  1  0
 12  6  1  0
 21 14  1  0
  4 22  1  0
  7 23  1  0
  8 24  1  0
 10 25  1  0
 11 26  1  0
 12 27  1  0
 15 28  1  0
 17 29  1  0
 18 30  1  0
 20 31  1  0
M  END
>  <meeko>  (7) 
{"is_sidechain": [false], "free_energy": -8.22, "intermolecular_energy": -9.031, "internal_energy": -0.297}

$$$$
kaempferol_out
     RDKit          3D

 31 33  0  0  0  0  0  0  0  0999 V2000
   40.4730   27.8050  -12.6830 O   0  0  0  0  0  0  0  0  0  0  0  0
   39.8770   27.7810  -13.7580 C   0  0  0  0  0  0  0  0  0  0  0  0
   38.6400   28.5710  -13.9520 C   0  0  0  0  0  0  0  0  0  0  0  0
   38.2070   29.3330  -12.8820 O   0  0  0  0  0  0  0  0  0  0  0  0
   38.0230   28.5180  -15.1470 C   0  0  0  0  0  0  0  0  0  0  0  0
   36.7910   29.2740  -15.4590 C   0  0  0  0  0  0  0  0  0  0  0  0
   36.3070   29.3880  -16.7720 C   0  0  0  0  0  0  0  0  0  0  0  0
   35.1530   30.1270  -17.0500 C   0  0  0  0  0  0  0  0  0  0  0  0
   34.4820   30.7630  -16.0120 C   0  0  0  0  0  0  0  0  0  0  0  0
   33.3530   31.4930  -16.2370 O   0  0  0  0  0  0  0  0  0  0  0  0
   34.9460   30.6740  -14.7070 C   0  0  0  0  0  0  0  0  0  0  0  0
   36.0990   29.9340  -14.4310 C   0  0  0  0  0  0  0  0  0  0  0  0
   38.4840   27.7680  -16.2230 O   0  0  0  0  0  0  0  0  0  0  0  0
   39.6240   27.0200  -16.0730 C   0  0  0  0  0  0  0  0  0  0  0  0
   40.0450   26.2740  -17.1730 C   0  0  0  0  0  0  0  0  0  0  0  0
   41.1960   25.4980  -17.0760 C   0  0  0  0  0  0  0  0  0  0  0  0
   41.5720   24.7850  -18.1750 O   0  0  0  0  0  0  0  0  0  0  0  0
   41.9360   25.4530  -15.8970 C   0  0  0  0  0  0  0  0  0  0  0  0
   41.5100   26.2000  -14.8010 C   0  0  0  0  0  0  0  0  0  0  0  0
   42.2740   26.1190  -13.6680 O   0  0  0  0  0  0  0  0  0  0  0  0
   40.3550   26.9830  -14.8890 C   0  0  0  0  0  0  0  0  0  0  0  0
   38.2040   28.9690  -12.0190 H   0  0  0  0  0  0  0  0  0  0  0  0
   36.8428   28.8892  -17.5930 H   0  0  0  0  0  0  0  0  0  0  0  0
   34.7792   30.2044  -18.0816 H   0  0  0  0  0  0  0  0  0  0  0  0
   32.8800   31.3900  -17.0400 H   0  0  0  0  0  0  0  0  0  0  0  0
   34.4087   31.1836  -13.8936 H   0  0  0  0  0  0  0  0  0  0  0  0
   36.4684   29.8679  -13.3970 H   0  0  0  0  0  0  0  0  0  0  0  0
   39.4712   26.2987  -18.1112 H   0  0  0  0  0  0  0  0  0  0  0  0
   40.9310   24.3140  -18.6700 H   0  0  0  0  0  0  0  0  0  0  0  0
   42.8444   24.8361  -15.8321 H   0  0  0  0  0  0  0  0  0  0  0  0
   43.1890   26.3170  -13.7040 H   0  0  0  0  0  0  0  0  0  0  0  0
  1  2  2  0
  2  3  1  0
  3  4  1  0
  3  5  2  0
  5  6  1  0
  6  7  2  0
  7  8  1  0
  8  9  2  0
  9 10  1  0
  9 11  1  0
 11 12  2  0
  5 13  1  0
 13 14  1  0
 14 15  2  0
 15 16  1  0
 16 17  1  0
 16 18  2  0
 18 19  1  0
 19 20  1  0
 19 21  2  0
 21  2  1  0
 12  6  1  0
 21 14  1  0
  4 22  1  0
  7 23  1  0
  8 24  1  0
 10 25  1  0
 11 26  1  0
 12 27  1  0
 15 28  1  0
 17 29  1  0
 18 30  1  0
 20 31  1  0
M  END
>  <meeko>  (8) 
{"is_sidechain": [false], "free_energy": -7.449, "intermolecular_energy": -8.825, "internal_energy": 0.403}

$$$$
