quercetin_out
     RDKit          3D

 32 34  0  0  0  0  0  0  0  0999 V2000
   39.8960   26.2220  -17.4910 O   0  0  0  0  0  0  0  0  0  0  0  0
   39.3830   26.9070  -16.6080 C   0  0  0  0  0  0  0  0  0  0  0  0
   38.1780   27.7190  -16.8930 C   0  0  0  0  0  0  0  0  0  0  0  0
   37.6800   27.6750  -18.1830 O   0  0  0  0  0  0  0  0  0  0  0  0
   37.6500   28.4570  -15.8990 C   0  0  0  0  0  0  0  0  0  0  0  0
   36.4600   29.3210  -16.0700 C   0  0  0  0  0  0  0  0  0  0  0  0
   35.8690   29.9210  -14.9410 C   0  0  0  0  0  0  0  0  0  0  0  0
   34.7310   30.7230  -15.0650 C   0  0  0  0  0  0  0  0  0  0  0  0
   34.1790   30.9220  -16.3200 C   0  0  0  0  0  0  0  0  0  0  0  0
   33.0700   31.7060  -16.4430 O   0  0  0  0  0  0  0  0  0  0  0  0
   34.7460   30.3330  -17.4470 C   0  0  0  0  0  0  0  0  0  0  0  0
   34.1500   30.5720  -18.6550 O   0  0  0  0  0  0  0  0  0  0  0  0
   35.8760   29.5300  -17.3310 C   0  0  0  0  0  0  0  0  0  0  0  0
   38.1760   28.5100  -14.6130 O   0  0  0  0  0  0  0  0  0  0  0  0
   39.2870   27.7630  -14.3170 C   0  0  0  0  0  0  0  0  0  0  0  0
   39.7740   27.8380  -13.0120 C   0  0  0  0  0  0  0  0  0  0  0  0
   40.9000   27.1010  -12.6560 C   0  0  0  0  0  0  0  0  0  0  0  0
   41.3440   27.2040  -11.3720 O   0  0  0  0  0  0  0  0  0  0  0  0
   41.5510   26.2910  -13.5830 C   0  0  0  0  0  0  0  0  0  0  0  0
   41.0590   26.2190  -14.8850 C   0  0  0  0  0  0  0  0  0  0  0  0
   41.7360   25.4080  -15.7550 O   0  0  0  0  0  0  0  0  0  0  0  0
   39.9290   26.9550  -15.2510 C   0  0  0  0  0  0  0  0  0  0  0  0
   37.0910   28.3400  -18.4810 H   0  0  0  0  0  0  0  0  0  0  0  0
   36.3097   29.7559  -13.9467 H   0  0  0  0  0  0  0  0  0  0  0  0
   34.2794   31.1902  -14.1774 H   0  0  0  0  0  0  0  0  0  0  0  0
   33.0710   32.4310  -17.0370 H   0  0  0  0  0  0  0  0  0  0  0  0
   34.3210   30.0050  -19.3820 H   0  0  0  0  0  0  0  0  0  0  0  0
   36.3116   29.0595  -18.2248 H   0  0  0  0  0  0  0  0  0  0  0  0
   39.2717   28.4752  -12.2693 H   0  0  0  0  0  0  0  0  0  0  0  0
   41.4640   26.4310  -10.8550 H   0  0  0  0  0  0  0  0  0  0  0  0
   42.4419   25.7155  -13.2914 H   0  0  0  0  0  0  0  0  0  0  0  0
   42.6670   25.4810  -15.8360 H   0  0  0  0  0  0  0  0  0  0  0  0
  1  2  2  0
  2  3  1  0
  3  4  1  0
  3  5  2  0
  5  6  1  0
  6  7  2  0
  7  8  1  0
  8  9  2  0
  9 10  1  0
  9 11  1  0
 11 12  1  0
 11 13  2  0
  5 14  1  0
 14 15  1  0
 15 16  2  0
 16 17  1  0
 17 18  1  0
 17 19  2  0
 19 20  1  0
 20 21  1  0
 20 22  2  0
 22  2  1  0
 13  6  1  0
 22 15  1  0
  4 23  1  0
  7 24  1  0
  8 25  1  0
 10 26  1  0
 12 27  1  0
 13 28  1  0
 16 29  1  0
 18 30  1  0
 19 31  1  0
 21 32  1  0
M  END
>  <meeko>  (1) 
{"is_sidechain": [false], "free_energy": -9.779, "intermolecular_energy": -11.78, "internal_energy": 0.313}

$$$$
quercetin_out
     RDKit          3D

 32 34  0  0  0  0  0  0  0  0999 V2000
   36.8270   27.3070  -18.5730 O   0  0  0  0  0  0  0  0  0  0  0  0
   37.1340   27.8880  -17.5340 C   0  0  0  0  0  0  0  0  0  0  0  0
   38.2240   27.3690  -16.6770 C   0  0  0  0  0  0  0  0  0  0  0  0
   38.8550   26.2110  -17.0940 O   0  0  0  0  0  0  0  0  0  0  0  0
   38.5260   28.0350  -15.5460 C   0  0  0  0  0  0  0  0  0  0  0  0
   39.5810   27.6000  -14.6020 C   0  0  0  0  0  0  0  0  0  0  0  0
   39.6080   28.1310  -13.2980 C   0  0  0  0  0  0  0  0  0  0  0  0
   40.6040   27.7600  -12.3910 C   0  0  0  0  0  0  0  0  0  0  0  0
   41.5790   26.8600  -12.7890 C   0  0  0  0  0  0  0  0  0  0  0  0
   42.5510   26.4950  -11.9040 O   0  0  0  0  0  0  0  0  0  0  0  0
   41.5720   26.3290  -14.0750 C   0  0  0  0  0  0  0  0  0  0  0  0
   42.5650   25.4460  -14.4030 O   0  0  0  0  0  0  0  0  0  0  0  0
   40.5860   26.6970  -14.9860 C   0  0  0  0  0  0  0  0  0  0  0  0
   37.8660   29.1840  -15.1260 O   0  0  0  0  0  0  0  0  0  0  0  0
   36.8570   29.6930  -15.9040 C   0  0  0  0  0  0  0  0  0  0  0  0
   36.2310   30.8540  -15.4510 C   0  0  0  0  0  0  0  0  0  0  0  0
   35.1990   31.4140  -16.1990 C   0  0  0  0  0  0  0  0  0  0  0  0
   34.6130   32.5470  -15.7200 O   0  0  0  0  0  0  0  0  0  0  0  0
   34.7810   30.8330  -17.3940 C   0  0  0  0  0  0  0  0  0  0  0  0
   35.4120   29.6740  -17.8410 C   0  0  0  0  0  0  0  0  0  0  0  0
   34.9620   29.1460  -19.0210 O   0  0  0  0  0  0  0  0  0  0  0  0
   36.4480   29.1050  -17.0970 C   0  0  0  0  0  0  0  0  0  0  0  0
   38.3610   25.4220  -17.2040 H   0  0  0  0  0  0  0  0  0  0  0  0
   38.8336   28.8484  -12.9889 H   0  0  0  0  0  0  0  0  0  0  0  0
   40.6138   28.1775  -11.3733 H   0  0  0  0  0  0  0  0  0  0  0  0
   43.3840   26.9230  -11.9200 H   0  0  0  0  0  0  0  0  0  0  0  0
   43.3860   25.4760  -13.9520 H   0  0  0  0  0  0  0  0  0  0  0  0
   40.5938   26.2815  -16.0045 H   0  0  0  0  0  0  0  0  0  0  0  0
   36.5505   31.3240  -14.5092 H   0  0  0  0  0  0  0  0  0  0  0  0
   35.1100   33.3390  -15.6530 H   0  0  0  0  0  0  0  0  0  0  0  0
   33.9639   31.2831  -17.9768 H   0  0  0  0  0  0  0  0  0  0  0  0
   34.0770   28.8440  -19.0920 H   0  0  0  0  0  0  0  0  0  0  0  0
  1  2  2  0
  2  3  1  0
  3  4  1  0
  3  5  2  0
  5  6  1  0
  6  7  2  0
  7  8  1  0
  8  9  2  0
  9 10  1  0
  9 11  1  0
 11 12  1  0
 11 13  2  0
  5 14  1  0
 14 15  1  0
 15 16  2  0
 16 17  1  0
 17 18  1  0
 17 19  2  0
 19 20  1  0
 20 21  1  0
 20 22  2  0
 22  2  1  0
 13  6  1  0
 22 15  1  0
  4 23  1  0
  7 24  1  0
  8 25  1  0
 10 26  1  0
 12 27  1  0
 13 28  1  0
 16 29  1  0
 18 30  1  0
 19 31  1  0
 21 32  1  0
M  END
>  <meeko>  (2) 
{"is_sidechain": [false], "free_energy": -8.911, "intermolecular_energy": -10.672, "internal_energy": 0.251}

$$$$
quercetin_out
     RDKit          3D

 32 34  0  0  0  0  0  0  0  0999 V2000
   35.3500   29.2870  -18.3160 O   0  0  0  0  0  0  0  0  0  0  0  0
   36.0040   29.2110  -17.2770 C   0  0  0  0  0  0  0  0  0  0  0  0
   37.1910   28.3300  -17.2000 C   0  0  0  0  0  0  0  0  0  0  0  0
   37.5100   27.6030  -18.3330 O   0  0  0  0  0  0  0  0  0  0  0  0
   37.8760   28.2740  -16.0430 C   0  0  0  0  0  0  0  0  0  0  0  0
   39.0660   27.4170  -15.8410 C   0  0  0  0  0  0  0  0  0  0  0  0
   39.6290   27.3000  -14.5560 C   0  0  0  0  0  0  0  0  0  0  0  0
   40.7660   26.5170  -14.3360 C   0  0  0  0  0  0  0  0  0  0  0  0
   41.3450   25.8530  -15.4050 C   0  0  0  0  0  0  0  0  0  0  0  0
   42.4540   25.0870  -15.1930 O   0  0  0  0  0  0  0  0  0  0  0  0
   40.8070   25.9600  -16.6840 C   0  0  0  0  0  0  0  0  0  0  0  0
   41.4280   25.2780  -17.6940 O   0  0  0  0  0  0  0  0  0  0  0  0
   39.6770   26.7410  -16.9110 C   0  0  0  0  0  0  0  0  0  0  0  0
   37.5300   28.9930  -14.9040 O   0  0  0  0  0  0  0  0  0  0  0  0
   36.4390   29.8230  -14.9470 C   0  0  0  0  0  0  0  0  0  0  0  0
   36.1350   30.5330  -13.7860 C   0  0  0  0  0  0  0  0  0  0  0  0
   35.0370   31.3890  -13.7730 C   0  0  0  0  0  0  0  0  0  0  0  0
   34.7740   32.0630  -12.6180 O   0  0  0  0  0  0  0  0  0  0  0  0
   34.2370   31.5490  -14.9020 C   0  0  0  0  0  0  0  0  0  0  0  0
   34.5470   30.8380  -16.0590 C   0  0  0  0  0  0  0  0  0  0  0  0
   33.7280   31.0320  -17.1380 O   0  0  0  0  0  0  0  0  0  0  0  0
   35.6470   29.9760  -16.0810 C   0  0  0  0  0  0  0  0  0  0  0  0
   37.0820   26.7870  -18.5010 H   0  0  0  0  0  0  0  0  0  0  0  0
   39.1670   27.8330  -13.7119 H   0  0  0  0  0  0  0  0  0  0  0  0
   41.1953   26.4293  -13.3271 H   0  0  0  0  0  0  0  0  0  0  0  0
   42.9910   25.2380  -14.4400 H   0  0  0  0  0  0  0  0  0  0  0  0
   41.2740   24.3600  -17.8030 H   0  0  0  0  0  0  0  0  0  0  0  0
   39.2630   26.8288  -17.9263 H   0  0  0  0  0  0  0  0  0  0  0  0
   36.7582   30.4176  -12.8869 H   0  0  0  0  0  0  0  0  0  0  0  0
   35.4150   32.6460  -12.2600 H   0  0  0  0  0  0  0  0  0  0  0  0
   33.3718   32.2279  -14.8802 H   0  0  0  0  0  0  0  0  0  0  0  0
   33.2780   31.8480  -17.2450 H   0  0  0  0  0  0  0  0  0  0  0  0
  1  2  2  0
  2  3  1  0
  3  4  1  0
  3  5  2  0
  5  6  1  0
  6  7  2  0
  7  8  1  0
  8  9  2  0
  9 10  1  0
  9 11  1  0
 11 12  1  0
 11 13  2  0
  5 14  1  0
 14 15  1  0
 15 16  2  0
 16 17  1  0
 17 18  1  0
 17 19  2  0
 19 20  1  0
 20 21  1  0
 20 22  2  0
 22  2  1  0
 13  6  1  0
 22 15  1  0
  4 23  1  0
  7 24  1  0
  8 25  1  0
 10 26  1  0
 12 27  1  0
 13 28  1  0
 16 29  1  0
 18 30  1  0
 19 31  1  0
 21 32  1  0
M  END
>  <meeko>  (3) 
{"is_sidechain": [false], "free_energy": -8.872, "intermolecular_energy": -10.68, "internal_energy": 0.305}

$$$$
quercetin_out
     RDKit          3D

 32 34  0  0  0  0  0  0  0  0999 V2000
   37.5780   26.8450  -18.3450 O   0  0  0  0  0  0  0  0  0  0  0  0
   37.3860   27.7270  -17.5100 C   0  0  0  0  0  0  0  0  0  0  0  0
   36.3720   28.7790  -17.7480 C   0  0  0  0  0  0  0  0  0  0  0  0
   35.6780   28.7250  -18.9440 O   0  0  0  0  0  0  0  0  0  0  0  0
   36.1970   29.7280  -16.8090 C   0  0  0  0  0  0  0  0  0  0  0  0
   35.2290   30.8390  -16.9450 C   0  0  0  0  0  0  0  0  0  0  0  0
   33.8970   30.6570  -16.5250 C   0  0  0  0  0  0  0  0  0  0  0  0
   32.9530   31.6780  -16.6620 C   0  0  0  0  0  0  0  0  0  0  0  0
   33.3380   32.8830  -17.2240 C   0  0  0  0  0  0  0  0  0  0  0  0
   32.4180   33.8820  -17.3570 O   0  0  0  0  0  0  0  0  0  0  0  0
   34.6480   33.0810  -17.6510 C   0  0  0  0  0  0  0  0  0  0  0  0
   34.9610   34.2960  -18.1970 O   0  0  0  0  0  0  0  0  0  0  0  0
   35.5930   32.0680  -17.5220 C   0  0  0  0  0  0  0  0  0  0  0  0
   36.9200   29.7840  -15.6220 O   0  0  0  0  0  0  0  0  0  0  0  0
   37.8600   28.8180  -15.3700 C   0  0  0  0  0  0  0  0  0  0  0  0
   38.5530   28.9060  -14.1630 C   0  0  0  0  0  0  0  0  0  0  0  0
   39.5200   27.9530  -13.8550 C   0  0  0  0  0  0  0  0  0  0  0  0
   40.1750   28.0770  -12.6670 O   0  0  0  0  0  0  0  0  0  0  0  0
   39.8070   26.9110  -14.7340 C   0  0  0  0  0  0  0  0  0  0  0  0
   39.1100   26.8280  -15.9370 C   0  0  0  0  0  0  0  0  0  0  0  0
   39.4320   25.7850  -16.7630 O   0  0  0  0  0  0  0  0  0  0  0  0
   38.1380   27.7810  -16.2550 C   0  0  0  0  0  0  0  0  0  0  0  0
   35.6970   27.9440  -19.4610 H   0  0  0  0  0  0  0  0  0  0  0  0
   33.5952   29.6963  -16.0823 H   0  0  0  0  0  0  0  0  0  0  0  0
   31.9163   31.5260  -16.3272 H   0  0  0  0  0  0  0  0  0  0  0  0
   32.6890   34.7360  -17.6290 H   0  0  0  0  0  0  0  0  0  0  0  0
   34.3010   34.7950  -18.6370 H   0  0  0  0  0  0  0  0  0  0  0  0
   36.6237   32.2287  -17.8711 H   0  0  0  0  0  0  0  0  0  0  0  0
   38.3370   29.7231  -13.4589 H   0  0  0  0  0  0  0  0  0  0  0  0
   41.0160   27.6800  -12.5530 H   0  0  0  0  0  0  0  0  0  0  0  0
   40.5738   26.1638  -14.4814 H   0  0  0  0  0  0  0  0  0  0  0  0
   40.3300   25.5520  -16.8950 H   0  0  0  0  0  0  0  0  0  0  0  0
  1  2  2  0
  2  3  1  0
  3  4  1  0
  3  5  2  0
  5  6  1  0
  6  7  2  0
  7  8  1  0
  8  9  2  0
  9 10  1  0
  9 11  1  0
 11 12  1  0
 11 13  2  0
  5 14  1  0
 14 15  1  0
 15 16  2  0
 16 17  1  0
 17 18  1  0
 17 19  2  0
 19 20  1  0
 20 21  1  0
 20 22  2  0
 22  2  1  0
 13  6  1  0
 22 15  1  0
  4 23  1  0
  7 24  1  0
  8 25  1  0
 10 26  1  0
 12 27  1  0
 13 28  1  0
 16 29  1  0
 18 30  1  0
 19 31  1  0
 21 32  1  0
M  END
>  <meeko>  (4) 
{"is_sidechain": [false], "free_energy": -8.862, "intermolecular_energy": -10.031, "internal_energy": -0.331}

$$$$
quercetin_out
     RDKit          3D

 32 34  0  0  0  0  0  0  0  0999 V2000
   38.7660   28.8130  -12.9270 O   0  0  0  0  0  0  0  0  0  0  0  0
   38.3770   28.6730  -14.0850 C   0  0  0  0  0  0  0  0  0  0  0  0
   37.1860   29.4060  -14.5710 C   0  0  0  0  0  0  0  0  0  0  0  0
   36.5410   30.2290  -13.6650 O   0  0  0  0  0  0  0  0  0  0  0  0
   36.7920   29.2210  -15.8450 C   0  0  0  0  0  0  0  0  0  0  0  0
   35.6070   29.8840  -16.4350 C   0  0  0  0  0  0  0  0  0  0  0  0
   35.4640   29.9320  -17.8350 C   0  0  0  0  0  0  0  0  0  0  0  0
   34.3690   30.5710  -18.4250 C   0  0  0  0  0  0  0  0  0  0  0  0
   33.4180   31.1670  -17.6140 C   0  0  0  0  0  0  0  0  0  0  0  0
   32.3480   31.7890  -18.1870 O   0  0  0  0  0  0  0  0  0  0  0  0
   33.5450   31.1350  -16.2280 C   0  0  0  0  0  0  0  0  0  0  0  0
   32.5690   31.7430  -15.4870 O   0  0  0  0  0  0  0  0  0  0  0  0
   34.6340   30.5040  -15.6340 C   0  0  0  0  0  0  0  0  0  0  0  0
   37.4360   28.3710  -16.7370 O   0  0  0  0  0  0  0  0  0  0  0  0
   38.5470   27.6840  -16.3180 C   0  0  0  0  0  0  0  0  0  0  0  0
   39.1670   26.8520  -17.2500 C   0  0  0  0  0  0  0  0  0  0  0  0
   40.2980   26.1290  -16.8780 C   0  0  0  0  0  0  0  0  0  0  0  0
   40.8730   25.3270  -17.8180 O   0  0  0  0  0  0  0  0  0  0  0  0
   40.8200   26.2240  -15.5900 C   0  0  0  0  0  0  0  0  0  0  0  0
   40.1960   27.0580  -14.6650 C   0  0  0  0  0  0  0  0  0  0  0  0
   40.7500   27.1130  -13.4150 O   0  0  0  0  0  0  0  0  0  0  0  0
   39.0600   27.7870  -15.0290 C   0  0  0  0  0  0  0  0  0  0  0  0
   35.6290   30.1070  -13.4880 H   0  0  0  0  0  0  0  0  0  0  0  0
   36.2248   29.4599  -18.4739 H   0  0  0  0  0  0  0  0  0  0  0  0
   34.2644   30.5998  -19.5196 H   0  0  0  0  0  0  0  0  0  0  0  0
   31.8840   32.4530  -17.7170 H   0  0  0  0  0  0  0  0  0  0  0  0
   31.7400   31.9410  -15.8770 H   0  0  0  0  0  0  0  0  0  0  0  0
   34.7326   30.4909  -14.5385 H   0  0  0  0  0  0  0  0  0  0  0  0
   38.7660   26.7674  -18.2708 H   0  0  0  0  0  0  0  0  0  0  0  0
   41.1010   25.6780  -18.6560 H   0  0  0  0  0  0  0  0  0  0  0  0
   41.7133   25.6479  -15.3070 H   0  0  0  0  0  0  0  0  0  0  0  0
   41.5890   27.5130  -13.2910 H   0  0  0  0  0  0  0  0  0  0  0  0
  1  2  2  0
  2  3  1  0
  3  4  1  0
  3  5  2  0
  5  6  1  0
  6  7  2  0
  7  8  1  0
  8  9  2  0
  9 10  1  0
  9 11  1  0
 11 12  1  0
 11 13  2  0
  5 14  1  0
 14 15  1  0
 15 16  2  0
 16 17  1  0
 17 18  1  0
 17 19  2  0
 19 20  1  0
 20 21  1  0
 20 22  2  0
 22  2  1  0
 13  6  1  0
 22 15  1  0
  4 23  1  0
  7 24  1  0
  8 25  1  0
 10 26  1  0
 12 27  1  0
 13 28  1  0
 16 29  1  0
 18 30  1  0
 19 31  1  0
 21 32  1  0
M  END
>  <meeko>  (5) 
{"is_sidechain": [false], "free_energy": -8.236, "intermolecular_energy": -9.883, "internal_energy": 0.275}

$$$$
quercetin_out
     RDKit          3D

 32 34  0  0  0  0  0  0  0  0999 V2000
   37.8080   27.1310  -18.2310 O   0  0  0  0  0  0  0  0  0  0  0  0
   37.9550   27.6270  -17.1160 C   0  0  0  0  0  0  0  0  0  0  0  0
   39.0560   27.1790  -16.2330 C   0  0  0  0  0  0  0  0  0  0  0  0
   39.8830   26.1820  -16.7170 O   0  0  0  0  0  0  0  0  0  0  0  0
   39.1780   27.7470  -15.0190 C   0  0  0  0  0  0  0  0  0  0  0  0
   40.2260   27.3670  -14.0440 C   0  0  0  0  0  0  0  0  0  0  0  0
   41.4960   26.9740  -14.5070 C   0  0  0  0  0  0  0  0  0  0  0  0
   42.4990   26.5860  -13.6150 C   0  0  0  0  0  0  0  0  0  0  0  0
   42.2310   26.5880  -12.2560 C   0  0  0  0  0  0  0  0  0  0  0  0
   43.2100   26.2120  -11.3830 O   0  0  0  0  0  0  0  0  0  0  0  0
   40.9810   26.9680  -11.7790 C   0  0  0  0  0  0  0  0  0  0  0  0
   40.7840   26.9470  -10.4250 O   0  0  0  0  0  0  0  0  0  0  0  0
   39.9750   27.3510  -12.6610 C   0  0  0  0  0  0  0  0  0  0  0  0
   38.3230   28.7320  -14.5360 O   0  0  0  0  0  0  0  0  0  0  0  0
   37.2990   29.1730  -15.3340 C   0  0  0  0  0  0  0  0  0  0  0  0
   36.4730   30.1690  -14.8150 C   0  0  0  0  0  0  0  0  0  0  0  0
   35.4160   30.6540  -15.5810 C   0  0  0  0  0  0  0  0  0  0  0  0
   34.6330   31.6260  -15.0350 O   0  0  0  0  0  0  0  0  0  0  0  0
   35.1700   30.1590  -16.8590 C   0  0  0  0  0  0  0  0  0  0  0  0
   36.0000   29.1650  -17.3730 C   0  0  0  0  0  0  0  0  0  0  0  0
   35.7120   28.7150  -18.6330 O   0  0  0  0  0  0  0  0  0  0  0  0
   37.0630   28.6720  -16.6110 C   0  0  0  0  0  0  0  0  0  0  0  0
   40.2350   26.2440  -17.5830 H   0  0  0  0  0  0  0  0  0  0  0  0
   41.7019   26.9724  -15.5876 H   0  0  0  0  0  0  0  0  0  0  0  0
   43.4887   26.2828  -13.9872 H   0  0  0  0  0  0  0  0  0  0  0  0
   44.0700   26.5750  -11.4570 H   0  0  0  0  0  0  0  0  0  0  0  0
   40.9740   27.7080   -9.9120 H   0  0  0  0  0  0  0  0  0  0  0  0
   38.9858   27.6405  -12.2768 H   0  0  0  0  0  0  0  0  0  0  0  0
   36.6551   30.5693  -13.8067 H   0  0  0  0  0  0  0  0  0  0  0  0
   34.9520   32.1360  -14.3170 H   0  0  0  0  0  0  0  0  0  0  0  0
   34.3312   30.5477  -17.4551 H   0  0  0  0  0  0  0  0  0  0  0  0
   35.1260   29.1980  -19.1810 H   0  0  0  0  0  0  0  0  0  0  0  0
  1  2  2  0
  2  3  1  0
  3  4  1  0
  3  5  2  0
  5  6  1  0
  6  7  2  0
  7  8  1  0
  8  9  2  0
  9 10  1  0
  9 11  1  0
 11 12  1  0
 11 13  2  0
  5 14  1  0
 14 15  1  0
 15 16  2  0
 16 17  1  0
 17 18  1  0
 17 19  2  0
 19 20  1  0
 20 21  1  0
 20 22  2  0
 22  2  1  0
 13  6  1  0
 22 15  1  0
  4 23  1  0
  7 24  1  0
  8 25  1  0
 10 26  1  0
 12 27  1  0
 13 28  1  0
 16 29  1  0
 18 30  1  0
 19 31  1  0
 21 32  1  0
M  END
>  <meeko>  (6) 
{"is_sidechain": [false], "free_energy": -8.138, "intermolecular_energy": -9.646, "internal_energy": 0.155}

$$$$
quercetin_out
     RDKit          3D

 32 34  0  0  0  0  0  0  0  0999 V2000
   37.6530   33.3660  -17.8230 O   0  0  0  0  0  0  0  0  0  0  0  0
   37.1230   32.4000  -17.2770 C   0  0  0  0  0  0  0  0  0  0  0  0
   37.9510   31.3280  -16.6800 C   0  0  0  0  0  0  0  0  0  0  0  0
   39.3240   31.4630  -16.7810 O   0  0  0  0  0  0  0  0  0  0  0  0
   37.3300   30.2870  -16.0950 C   0  0  0  0  0  0  0  0  0  0  0  0
   38.0510   29.1480  -15.4830 C   0  0  0  0  0  0  0  0  0  0  0  0
   38.1320   27.9240  -16.1740 C   0  0  0  0  0  0  0  0  0  0  0  0
   38.7850   26.8220  -15.6140 C   0  0  0  0  0  0  0  0  0  0  0  0
   39.3560   26.9430  -14.3580 C   0  0  0  0  0  0  0  0  0  0  0  0
   39.9950   25.8700  -13.8100 O   0  0  0  0  0  0  0  0  0  0  0  0
   39.2820   28.1430  -13.6570 C   0  0  0  0  0  0  0  0  0  0  0  0
   39.8680   28.1930  -12.4210 O   0  0  0  0  0  0  0  0  0  0  0  0
   38.6300   29.2430  -14.2060 C   0  0  0  0  0  0  0  0  0  0  0  0
   35.9480   30.1520  -16.0230 O   0  0  0  0  0  0  0  0  0  0  0  0
   35.1550   31.1330  -16.5600 C   0  0  0  0  0  0  0  0  0  0  0  0
   33.7750   30.9630  -16.4550 C   0  0  0  0  0  0  0  0  0  0  0  0
   32.9220   31.9270  -16.9850 C   0  0  0  0  0  0  0  0  0  0  0  0
   31.5800   31.7220  -16.8620 O   0  0  0  0  0  0  0  0  0  0  0  0
   33.4250   33.0610  -17.6180 C   0  0  0  0  0  0  0  0  0  0  0  0
   34.8040   33.2260  -17.7190 C   0  0  0  0  0  0  0  0  0  0  0  0
   35.2440   34.3580  -18.3510 O   0  0  0  0  0  0  0  0  0  0  0  0
   35.6690   32.2630  -17.1910 C   0  0  0  0  0  0  0  0  0  0  0  0
   39.8880   30.9030  -16.2850 H   0  0  0  0  0  0  0  0  0  0  0  0
   37.6743   27.8334  -17.1701 H   0  0  0  0  0  0  0  0  0  0  0  0
   38.8445   25.8711  -16.1638 H   0  0  0  0  0  0  0  0  0  0  0  0
   39.5360   25.2960  -13.2280 H   0  0  0  0  0  0  0  0  0  0  0  0
   40.4140   27.4880  -12.1330 H   0  0  0  0  0  0  0  0  0  0  0  0
   38.5679   30.1851  -13.6415 H   0  0  0  0  0  0  0  0  0  0  0  0
   33.3631   30.0730  -15.9567 H   0  0  0  0  0  0  0  0  0  0  0  0
   31.1730   31.0080  -17.3130 H   0  0  0  0  0  0  0  0  0  0  0  0
   32.7417   33.8166  -18.0329 H   0  0  0  0  0  0  0  0  0  0  0  0
   35.8950   34.2970  -19.0220 H   0  0  0  0  0  0  0  0  0  0  0  0
  1  2  2  0
  2  3  1  0
  3  4  1  0
  3  5  2  0
  5  6  1  0
  6  7  2  0
  7  8  1  0
  8  9  2  0
  9 10  1  0
  9 11  1  0
 11 12  1  0
 11 13  2  0
  5 14  1  0
 14 15  1  0
 15 16  2  0
 16 17  1  0
 17 18  1  0
 17 19  2  0
 19 20  1  0
 20 21  1  0
 20 22  2  0
 22  2  1  0
 13  6  1  0
 22 15  1  0
  4 23  1  0
  7 24  1  0
  8 25  1  0
 10 26  1  0
 12 27  1  0
 13 28  1  0
 16 29  1  0
 18 30  1  0
 19 31  1  0
 21 32  1  0
M  END
>  <meeko>  (7) 
{"is_sidechain": [false], "free_energy": -8.076, "intermolecular_energy": -9.098, "internal_energy": -0.317}

$$$$
quercetin_out
     RDKit          3D

 32 34  0  0  0  0  0  0  0  0999 V2000
   39.1940   28.3420  -12.8030 O   0  0  0  0  0  0  0  0  0  0  0  0
   39.8510   27.7270  -13.6400 C   0  0  0  0  0  0  0  0  0  0  0  0
   41.2060   27.2280  -13.3140 C   0  0  0  0  0  0  0  0  0  0  0  0
   41.6870   27.4980  -12.0450 O   0  0  0  0  0  0  0  0  0  0  0  0
   41.8920   26.5620  -14.2620 C   0  0  0  0  0  0  0  0  0  0  0  0
   43.2600   26.0340  -14.0580 C   0  0  0  0  0  0  0  0  0  0  0  0
   43.5270   24.6770  -14.3220 C   0  0  0  0  0  0  0  0  0  0  0  0
   44.8020   24.1420  -14.1170 C   0  0  0  0  0  0  0  0  0  0  0  0
   45.8110   24.9630  -13.6420 C   0  0  0  0  0  0  0  0  0  0  0  0
   47.0560   24.4430  -13.4430 O   0  0  0  0  0  0  0  0  0  0  0  0
   45.5650   26.3060  -13.3700 C   0  0  0  0  0  0  0  0  0  0  0  0
   46.6060   27.0600  -12.9030 O   0  0  0  0  0  0  0  0  0  0  0  0
   44.2970   26.8450  -13.5670 C   0  0  0  0  0  0  0  0  0  0  0  0
   41.4050   26.3190  -15.5420 O   0  0  0  0  0  0  0  0  0  0  0  0
   40.1490   26.7630  -15.8710 C   0  0  0  0  0  0  0  0  0  0  0  0
   39.6970   26.4870  -17.1610 C   0  0  0  0  0  0  0  0  0  0  0  0
   38.4310   26.9150  -17.5500 C   0  0  0  0  0  0  0  0  0  0  0  0
   38.0270   26.6270  -18.8190 O   0  0  0  0  0  0  0  0  0  0  0  0
   37.6070   27.6150  -16.6710 C   0  0  0  0  0  0  0  0  0  0  0  0
   38.0650   27.8860  -15.3840 C   0  0  0  0  0  0  0  0  0  0  0  0
   37.2160   28.5770  -14.5620 O   0  0  0  0  0  0  0  0  0  0  0  0
   39.3350   27.4600  -14.9840 C   0  0  0  0  0  0  0  0  0  0  0  0
   41.9370   28.3710  -11.8150 H   0  0  0  0  0  0  0  0  0  0  0  0
   42.7206   24.0285  -14.6950 H   0  0  0  0  0  0  0  0  0  0  0  0
   45.0015   23.0815  -14.3304 H   0  0  0  0  0  0  0  0  0  0  0  0
   47.7960   24.8130  -13.8830 H   0  0  0  0  0  0  0  0  0  0  0  0
   47.3680   27.1860  -13.4340 H   0  0  0  0  0  0  0  0  0  0  0  0
   44.1070   27.9041  -13.3387 H   0  0  0  0  0  0  0  0  0  0  0  0
   40.3362   25.9351  -17.8659 H   0  0  0  0  0  0  0  0  0  0  0  0
   38.5180   26.0210  -19.3400 H   0  0  0  0  0  0  0  0  0  0  0  0
   36.6084   27.9490  -16.9893 H   0  0  0  0  0  0  0  0  0  0  0  0
   36.3620   28.8170  -14.8650 H   0  0  0  0  0  0  0  0  0  0  0  0
  1  2  2  0
  2  3  1  0
  3  4  1  0
  3  5  2  0
  5  6  1  0
  6  7  2  0
  7  8  1  0
  8  9  2  0
  9 10  1  0
  9 11  1  0
 11 12  1  0
 11 13  2  0
  5 14  1  0
 14 15  1  0
 15 16  2  0
 16 17  1  0
 17 18  1  0
 17 19  2  0
 19 20  1  0
 20 21  1  0
 20 22  2  0
 22  2  1  0
 13  6  1  0
 22 15  1  0
  4 23  1  0
  7 24  1  0
  8 25  1  0
 10 26  1  0
 12 27  1  0
 13 28  1  0
 16 29  1  0
 18 30  1  0
 19 31  1  0
 21 32  1  0
M  END
>  <meeko>  (8) 
{"is_sidechain": [false], "free_energy": -7.991, "intermolecular_energy": -9.221, "internal_energy": -0.092}

$$$$
quercetin_out
     RDKit          3D

 32 34  0  0  0  0  0  0  0  0999 V2000
   38.0210   29.1860  -12.9830 O   0  0  0  0  0  0  0  0  0  0  0  0
   37.7160   29.2090  -14.1730 C   0  0  0  0  0  0  0  0  0  0  0  0
   36.6950   30.1590  -14.6700 C   0  0  0  0  0  0  0  0  0  0  0  0
   36.1070   30.9930  -13.7360 O   0  0  0  0  0  0  0  0  0  0  0  0
   36.3890   30.1470  -15.9810 C   0  0  0  0  0  0  0  0  0  0  0  0
   35.3730   31.0370  -16.5870 C   0  0  0  0  0  0  0  0  0  0  0  0
   34.0180   30.6560  -16.5710 C   0  0  0  0  0  0  0  0  0  0  0  0
   33.0360   31.4610  -17.1550 C   0  0  0  0  0  0  0  0  0  0  0  0
   33.4110   32.6490  -17.7620 C   0  0  0  0  0  0  0  0  0  0  0  0
   32.4540   33.4370  -18.3320 O   0  0  0  0  0  0  0  0  0  0  0  0
   34.7460   33.0400  -17.7940 C   0  0  0  0  0  0  0  0  0  0  0  0
   35.0460   34.2240  -18.4090 O   0  0  0  0  0  0  0  0  0  0  0  0
   35.7290   32.2410  -17.2180 C   0  0  0  0  0  0  0  0  0  0  0  0
   36.9720   29.2860  -16.9030 O   0  0  0  0  0  0  0  0  0  0  0  0
   37.9270   28.3990  -16.4740 C   0  0  0  0  0  0  0  0  0  0  0  0
   38.4930   27.5620  -17.4350 C   0  0  0  0  0  0  0  0  0  0  0  0
   39.4650   26.6410  -17.0560 C   0  0  0  0  0  0  0  0  0  0  0  0
   39.9920   25.8410  -18.0250 O   0  0  0  0  0  0  0  0  0  0  0  0
   39.8830   26.5420  -15.7310 C   0  0  0  0  0  0  0  0  0  0  0  0
   39.3150   27.3820  -14.7760 C   0  0  0  0  0  0  0  0  0  0  0  0
   39.7620   27.2430  -13.4900 O   0  0  0  0  0  0  0  0  0  0  0  0
   38.3370   28.3100  -15.1480 C   0  0  0  0  0  0  0  0  0  0  0  0
   36.3350   31.9020  -13.7100 H   0  0  0  0  0  0  0  0  0  0  0  0
   33.7274   29.7097  -16.0913 H   0  0  0  0  0  0  0  0  0  0  0  0
   31.9795   31.1556  -17.1331 H   0  0  0  0  0  0  0  0  0  0  0  0
   32.4500   33.5740  -19.2590 H   0  0  0  0  0  0  0  0  0  0  0  0
   34.4990   34.5450  -19.1000 H   0  0  0  0  0  0  0  0  0  0  0  0
   36.7835   32.5516  -17.2566 H   0  0  0  0  0  0  0  0  0  0  0  0
   38.1734   27.6293  -18.4854 H   0  0  0  0  0  0  0  0  0  0  0  0
   39.8310   26.0320  -18.9280 H   0  0  0  0  0  0  0  0  0  0  0  0
   40.6517   25.8100  -15.4425 H   0  0  0  0  0  0  0  0  0  0  0  0
   40.3770   27.8560  -13.1380 H   0  0  0  0  0  0  0  0  0  0  0  0
  1  2  2  0
  2  3  1  0
  3  4  1  0
  3  5  2  0
  5  6  1  0
  6  7  2  0
  7  8  1  0
  8  9  2  0
  9 10  1  0
  9 11  1  0
 11 12  1  0
 11 13  2  0
  5 14  1  0
 14 15  1  0
 15 16  2  0
 16 17  1  0
 17 18  1  0
 17 19  2  0
 19 20  1  0
 20 21  1  0
 20 22  2  0
 22  2  1  0
 13  6  1  0
 22 15  1  0
  4 23  1  0
  7 24  1  0
  8 25  1  0
 10 26  1  0
 12 27  1  0
 13 28  1  0
 16 29  1  0
 18 30  1  0
 19 31  1  0
 21 32  1  0
M  END
>  <meeko>  (9) 
{"is_sidechain": [false], "free_energy": -7.957, "intermolecular_energy": -8.942, "internal_energy": -0.331}

$$$$
