rasagiline_out
     RDKit          3D

 27 28  0  0  0  0  0  0  0  0999 V2000
   31.9690   29.1710  -11.5250 C   0  0  0  0  0  0  0  0  0  0  0  0
   32.3030   29.8580  -12.4530 C   0  0  0  0  0  0  0  0  0  0  0  0
   32.7120   30.6950  -13.5880 C   0  0  0  0  0  0  0  0  0  0  0  0
   34.1640   30.7980  -13.6140 N   0  0  0  0  0  0  0  0  0  0  0  0
   34.6720   31.1680  -14.9300 C   0  0  2  0  0  0  0  0  0  0  0  0
   33.6120   31.1210  -16.0540 C   0  0  0  0  0  0  0  0  0  0  0  0
   34.3780   30.8440  -17.3560 C   0  0  0  0  0  0  0  0  0  0  0  0
   35.5100   30.0070  -16.8470 C   0  0  0  0  0  0  0  0  0  0  0  0
   36.3530   29.1840  -17.5750 C   0  0  0  0  0  0  0  0  0  0  0  0
   37.3760   28.5180  -16.8940 C   0  0  0  0  0  0  0  0  0  0  0  0
   37.5480   28.6920  -15.5120 C   0  0  0  0  0  0  0  0  0  0  0  0
   36.7010   29.5350  -14.7910 C   0  0  0  0  0  0  0  0  0  0  0  0
   35.6770   30.1820  -15.4670 C   0  0  0  0  0  0  0  0  0  0  0  0
   31.6633   28.5423  -10.6757 H   0  0  0  0  0  0  0  0  0  0  0  0
   32.3595   30.2400  -14.5254 H   0  0  0  0  0  0  0  0  0  0  0  0
   32.2742   31.6985  -13.4813 H   0  0  0  0  0  0  0  0  0  0  0  0
   34.5610   29.8960  -13.3520 H   0  0  0  0  0  0  0  0  0  0  0  0
   34.4370   31.5310  -12.9580 H   0  0  0  0  0  0  0  0  0  0  0  0
   35.0665   32.1762  -14.7354 H   0  0  0  0  0  0  0  0  0  0  0  0
   32.8865   30.3171  -15.8603 H   0  0  0  0  0  0  0  0  0  0  0  0
   33.0496   32.0645  -16.1135 H   0  0  0  0  0  0  0  0  0  0  0  0
   33.7599   30.2914  -18.0789 H   0  0  0  0  0  0  0  0  0  0  0  0
   34.6903   31.7476  -17.9001 H   0  0  0  0  0  0  0  0  0  0  0  0
   36.2211   29.0578  -18.6598 H   0  0  0  0  0  0  0  0  0  0  0  0
   38.0533   27.8506  -17.4470 H   0  0  0  0  0  0  0  0  0  0  0  0
   38.3579   28.1590  -14.9923 H   0  0  0  0  0  0  0  0  0  0  0  0
   36.8424   29.6831  -13.7102 H   0  0  0  0  0  0  0  0  0  0  0  0
  1  2  3  0
  2  3  1  0
  3  4  1  0
  4  5  1  0
  5  6  1  0
  6  7  1  0
  7  8  1  0
  8  9  2  0
  9 10  1  0
 10 11  2  0
 11 12  1  0
 12 13  2  0
 13  5  1  0
 13  8  1  0
  1 14  1  0
  3 15  1  0
  3 16  1  0
  4 17  1  0
  4 18  1  0
  5 19  1  1
  6 20  1  0
  6 21  1  0
  7 22  1  0
  7 23  1  0
  9 24  1  0
 10 25  1  0
 11 26  1  0
 12 27  1  0
M  CHG  1   4   1
M  END
>  <meeko>  (1) 
{"is_sidechain": [false], "free_energy": -8.277, "intermolecular_energy": -9.245, "internal_energy": -0.233}

$$$$
rasagiline_out
     RDKit          3D

 27 28  0  0  0  0  0  0  0  0999 V2000
   37.1410   28.8100  -17.0900 C   0  0  0  0  0  0  0  0  0  0  0  0
   37.7750   27.8060  -16.9060 C   0  0  0  0  0  0  0  0  0  0  0  0
   38.5490   26.5790  -16.6790 C   0  0  0  0  0  0  0  0  0  0  0  0
   39.8600   26.9260  -16.1460 N   0  0  0  0  0  0  0  0  0  0  0  0
   39.9760   26.6340  -14.7220 C   0  0  2  0  0  0  0  0  0  0  0  0
   39.5450   27.7970  -13.8000 C   0  0  0  0  0  0  0  0  0  0  0  0
   40.3370   27.6280  -12.4950 C   0  0  0  0  0  0  0  0  0  0  0  0
   41.6030   27.0150  -13.0090 C   0  0  0  0  0  0  0  0  0  0  0  0
   42.8270   26.9290  -12.3680 C   0  0  0  0  0  0  0  0  0  0  0  0
   43.8730   26.2760  -13.0240 C   0  0  0  0  0  0  0  0  0  0  0  0
   43.6790   25.7120  -14.2950 C   0  0  0  0  0  0  0  0  0  0  0  0
   42.4360   25.7920  -14.9260 C   0  0  0  0  0  0  0  0  0  0  0  0
   41.4050   26.4550  -14.2780 C   0  0  0  0  0  0  0  0  0  0  0  0
   36.5606   29.7291  -17.2584 H   0  0  0  0  0  0  0  0  0  0  0  0
   38.0182   25.9380  -15.9597 H   0  0  0  0  0  0  0  0  0  0  0  0
   38.6698   26.0393  -17.6299 H   0  0  0  0  0  0  0  0  0  0  0  0
   40.0180   27.9230  -16.2900 H   0  0  0  0  0  0  0  0  0  0  0  0
   40.5540   26.3630  -16.6370 H   0  0  0  0  0  0  0  0  0  0  0  0
   39.3431   25.7390  -14.6305 H   0  0  0  0  0  0  0  0  0  0  0  0
   39.7841   28.7632  -14.2684 H   0  0  0  0  0  0  0  0  0  0  0  0
   38.4608   27.7801  -13.6150 H   0  0  0  0  0  0  0  0  0  0  0  0
   40.5252   28.5962  -12.0080 H   0  0  0  0  0  0  0  0  0  0  0  0
   39.8235   27.0324  -11.7258 H   0  0  0  0  0  0  0  0  0  0  0  0
   42.9720   27.3637  -11.3680 H   0  0  0  0  0  0  0  0  0  0  0  0
   44.8582   26.2029  -12.5402 H   0  0  0  0  0  0  0  0  0  0  0  0
   44.5139   25.2024  -14.7983 H   0  0  0  0  0  0  0  0  0  0  0  0
   42.2781   25.3388  -15.9158 H   0  0  0  0  0  0  0  0  0  0  0  0
  1  2  3  0
  2  3  1  0
  3  4  1  0
  4  5  1  0
  5  6  1  0
  6  7  1  0
  7  8  1  0
  8  9  2  0
  9 10  1  0
 10 11  2  0
 11 12  1  0
 12 13  2  0
 13  5  1  0
 13  8  1  0
  1 14  1  0
  3 15  1  0
  3 16  1  0
  4 17  1  0
  4 18  1  0
  5 19  1  1
  6 20  1  0
  6 21  1  0
  7 22  1  0
  7 23  1  0
  9 24  1  0
 10 25  1  0
 11 26  1  0
 12 27  1  0
M  CHG  1   4   1
M  END
>  <meeko>  (2) 
{"is_sidechain": [false], "free_energy": -7.553, "intermolecular_energy": -8.464, "internal_energy": -0.204}

$$$$
rasagiline_out
     RDKit          3D

 27 28  0  0  0  0  0  0  0  0999 V2000
   42.8150   27.2250  -13.1290 C   0  0  0  0  0  0  0  0  0  0  0  0
   41.6300   27.2210  -12.9340 C   0  0  0  0  0  0  0  0  0  0  0  0
   40.1810   27.2150  -12.6980 C   0  0  0  0  0  0  0  0  0  0  0  0
   39.5380   28.1530  -13.6080 N   0  0  0  0  0  0  0  0  0  0  0  0
   38.6920   27.4850  -14.5890 C   0  0  2  0  0  0  0  0  0  0  0  0
   39.4580   26.9190  -15.8060 C   0  0  0  0  0  0  0  0  0  0  0  0
   38.4610   26.9050  -16.9740 C   0  0  0  0  0  0  0  0  0  0  0  0
   37.6120   28.0910  -16.6370 C   0  0  0  0  0  0  0  0  0  0  0  0
   36.7520   28.7870  -17.4710 C   0  0  0  0  0  0  0  0  0  0  0  0
   36.0230   29.8490  -16.9310 C   0  0  0  0  0  0  0  0  0  0  0  0
   36.1520   30.1910  -15.5760 C   0  0  0  0  0  0  0  0  0  0  0  0
   37.0110   29.4740  -14.7410 C   0  0  0  0  0  0  0  0  0  0  0  0
   37.7450   28.4300  -15.2840 C   0  0  0  0  0  0  0  0  0  0  0  0
   43.9004   27.2287  -13.3076 H   0  0  0  0  0  0  0  0  0  0  0  0
   39.7850   26.2038  -12.8733 H   0  0  0  0  0  0  0  0  0  0  0  0
   39.9770   27.5131  -11.6590 H   0  0  0  0  0  0  0  0  0  0  0  0
   40.2610   28.6770  -14.1020 H   0  0  0  0  0  0  0  0  0  0  0  0
   38.9440   28.7700  -13.0530 H   0  0  0  0  0  0  0  0  0  0  0  0
   38.2108   26.7128  -13.9709 H   0  0  0  0  0  0  0  0  0  0  0  0
   40.3181   27.5611  -16.0470 H   0  0  0  0  0  0  0  0  0  0  0  0
   39.8470   25.9109  -15.6001 H   0  0  0  0  0  0  0  0  0  0  0  0
   38.9694   27.0335  -17.9410 H   0  0  0  0  0  0  0  0  0  0  0  0
   37.9029   25.9634  -17.0833 H   0  0  0  0  0  0  0  0  0  0  0  0
   36.6461   28.5105  -18.5304 H   0  0  0  0  0  0  0  0  0  0  0  0
   35.3405   30.4234  -17.5746 H   0  0  0  0  0  0  0  0  0  0  0  0
   35.5712   31.0314  -15.1682 H   0  0  0  0  0  0  0  0  0  0  0  0
   37.1036   29.7315  -13.6756 H   0  0  0  0  0  0  0  0  0  0  0  0
  1  2  3  0
  2  3  1  0
  3  4  1  0
  4  5  1  0
  5  6  1  0
  6  7  1  0
  7  8  1  0
  8  9  2  0
  9 10  1  0
 10 11  2  0
 11 12  1  0
 12 13  2  0
 13  5  1  0
 13  8  1  0
  1 14  1  0
  3 15  1  0
  3 16  1  0
  4 17  1  0
  4 18  1  0
  5 19  1  1
  6 20  1  0
  6 21  1  0
  7 22  1  0
  7 23  1  0
  9 24  1  0
 10 25  1  0
 11 26  1  0
 12 27  1  0
M  CHG  1   4   1
M  END
>  <meeko>  (3) 
{"is_sidechain": [false], "free_energy": -7.491, "intermolecular_energy": -8.393, "internal_energy": -0.206}

$$$$
rasagiline_out
     RDKit          3D

 27 28  0  0  0  0  0  0  0  0999 V2000
   35.3370   30.0960  -17.4690 C   0  0  0  0  0  0  0  0  0  0  0  0
   35.8830   29.9970  -16.4040 C   0  0  0  0  0  0  0  0  0  0  0  0
   36.5540   29.8750  -15.1030 C   0  0  0  0  0  0  0  0  0  0  0  0
   37.0000   28.5020  -14.9160 N   0  0  0  0  0  0  0  0  0  0  0  0
   38.3020   28.2520  -15.5230 C   0  0  2  0  0  0  0  0  0  0  0  0
   38.3190   27.0730  -16.5230 C   0  0  0  0  0  0  0  0  0  0  0  0
   39.7530   26.5230  -16.5150 C   0  0  0  0  0  0  0  0  0  0  0  0
   40.1550   26.7980  -15.1000 C   0  0  0  0  0  0  0  0  0  0  0  0
   41.2090   26.2440  -14.3920 C   0  0  0  0  0  0  0  0  0  0  0  0
   41.4260   26.6780  -13.0820 C   0  0  0  0  0  0  0  0  0  0  0  0
   40.6020   27.6570  -12.5060 C   0  0  0  0  0  0  0  0  0  0  0  0
   39.5500   28.2180  -13.2330 C   0  0  0  0  0  0  0  0  0  0  0  0
   39.3290   27.7750  -14.5280 C   0  0  0  0  0  0  0  0  0  0  0  0
   34.8369   30.1867  -18.4445 H   0  0  0  0  0  0  0  0  0  0  0  0
   37.4219   30.5501  -15.0729 H   0  0  0  0  0  0  0  0  0  0  0  0
   35.8520   30.1458  -14.3006 H   0  0  0  0  0  0  0  0  0  0  0  0
   36.3160   27.8750  -15.3390 H   0  0  0  0  0  0  0  0  0  0  0  0
   37.0880   28.3370  -13.9120 H   0  0  0  0  0  0  0  0  0  0  0  0
   38.5175   29.2270  -15.9845 H   0  0  0  0  0  0  0  0  0  0  0  0
   37.6103   26.2939  -16.2056 H   0  0  0  0  0  0  0  0  0  0  0  0
   38.0208   27.3984  -17.5305 H   0  0  0  0  0  0  0  0  0  0  0  0
   39.7742   25.4463  -16.7392 H   0  0  0  0  0  0  0  0  0  0  0  0
   40.4153   26.9711  -17.2703 H   0  0  0  0  0  0  0  0  0  0  0  0
   41.8579   25.4825  -14.8492 H   0  0  0  0  0  0  0  0  0  0  0  0
   42.2514   26.2478  -12.4958 H   0  0  0  0  0  0  0  0  0  0  0  0
   40.7864   27.9855  -11.4725 H   0  0  0  0  0  0  0  0  0  0  0  0
   38.9106   28.9945  -12.7879 H   0  0  0  0  0  0  0  0  0  0  0  0
  1  2  3  0
  2  3  1  0
  3  4  1  0
  4  5  1  0
  5  6  1  0
  6  7  1  0
  7  8  1  0
  8  9  2  0
  9 10  1  0
 10 11  2  0
 11 12  1  0
 12 13  2  0
 13  5  1  0
 13  8  1  0
  1 14  1  0
  3 15  1  0
  3 16  1  0
  4 17  1  0
  4 18  1  0
  5 19  1  6
  6 20  1  0
  6 21  1  0
  7 22  1  0
  7 23  1  0
  9 24  1  0
 10 25  1  0
 11 26  1  0
 12 27  1  0
M  CHG  1   4   1
M  END
>  <meeko>  (4) 
{"is_sidechain": [false], "free_energy": -7.339, "intermolecular_energy": -8.138, "internal_energy": -0.291}

$$$$
rasagiline_out
     RDKit          3D

 27 28  0  0  0  0  0  0  0  0999 V2000
   37.1020   29.2920  -16.6530 C   0  0  0  0  0  0  0  0  0  0  0  0
   37.4910   28.2560  -17.1210 C   0  0  0  0  0  0  0  0  0  0  0  0
   37.9650   26.9890  -17.6920 C   0  0  0  0  0  0  0  0  0  0  0  0
   38.5860   26.1890  -16.6450 N   0  0  0  0  0  0  0  0  0  0  0  0
   39.9500   26.6140  -16.3550 C   0  0  2  0  0  0  0  0  0  0  0  0
   41.0220   25.5360  -16.6330 C   0  0  0  0  0  0  0  0  0  0  0  0
   42.1920   25.8380  -15.6850 C   0  0  0  0  0  0  0  0  0  0  0  0
   41.4660   26.4190  -14.5130 C   0  0  0  0  0  0  0  0  0  0  0  0
   41.9320   26.5840  -13.2200 C   0  0  0  0  0  0  0  0  0  0  0  0
   41.0880   27.1900  -12.2850 C   0  0  0  0  0  0  0  0  0  0  0  0
   39.8080   27.6300  -12.6550 C   0  0  0  0  0  0  0  0  0  0  0  0
   39.3530   27.4710  -13.9650 C   0  0  0  0  0  0  0  0  0  0  0  0
   40.1870   26.8560  -14.8870 C   0  0  0  0  0  0  0  0  0  0  0  0
   36.7459   30.2405  -16.2245 H   0  0  0  0  0  0  0  0  0  0  0  0
   37.1142   26.4379  -18.1191 H   0  0  0  0  0  0  0  0  0  0  0  0
   38.7014   27.1949  -18.4827 H   0  0  0  0  0  0  0  0  0  0  0  0
   38.6030   25.2150  -16.9450 H   0  0  0  0  0  0  0  0  0  0  0  0
   38.0350   26.3080  -15.7940 H   0  0  0  0  0  0  0  0  0  0  0  0
   40.0410   27.5041  -16.9949 H   0  0  0  0  0  0  0  0  0  0  0  0
   40.6162   24.5339  -16.4302 H   0  0  0  0  0  0  0  0  0  0  0  0
   41.3442   25.5540  -17.6846 H   0  0  0  0  0  0  0  0  0  0  0  0
   42.7360   24.9223  -15.4100 H   0  0  0  0  0  0  0  0  0  0  0  0
   42.9639   26.4952  -16.1119 H   0  0  0  0  0  0  0  0  0  0  0  0
   42.9399   26.2471  -12.9359 H   0  0  0  0  0  0  0  0  0  0  0  0
   41.4308   27.3234  -11.2483 H   0  0  0  0  0  0  0  0  0  0  0  0
   39.1572   28.1046  -11.9059 H   0  0  0  0  0  0  0  0  0  0  0  0
   38.3544   27.8258  -14.2598 H   0  0  0  0  0  0  0  0  0  0  0  0
  1  2  3  0
  2  3  1  0
  3  4  1  0
  4  5  1  0
  5  6  1  0
  6  7  1  0
  7  8  1  0
  8  9  2  0
  9 10  1  0
 10 11  2  0
 11 12  1  0
 12 13  2  0
 13  5  1  0
 13  8  1  0
  1 14  1  0
  3 15  1  0
  3 16  1  0
  4 17  1  0
  4 18  1  0
  5 19  1  6
  6 20  1  0
  6 21  1  0
  7 22  1  0
  7 23  1  0
  9 24  1  0
 10 25  1  0
 11 26  1  0
 12 27  1  0
M  CHG  1   4   1
M  END
>  <meeko>  (5) 
{"is_sidechain": [false], "free_energy": -7.2, "intermolecular_energy": -7.838, "internal_energy": -0.437}

$$$$
rasagiline_out
     RDKit          3D

 27 28  0  0  0  0  0  0  0  0999 V2000
   39.9110   28.0750  -13.0140 C   0  0  0  0  0  0  0  0  0  0  0  0
   39.2950   28.0710  -14.0450 C   0  0  0  0  0  0  0  0  0  0  0  0
   38.5420   28.0690  -15.3060 C   0  0  0  0  0  0  0  0  0  0  0  0
   37.1470   28.3890  -15.0370 N   0  0  0  0  0  0  0  0  0  0  0  0
   36.8740   29.8170  -15.1430 C   0  0  2  0  0  0  0  0  0  0  0  0
   36.1830   30.4240  -13.9000 C   0  0  0  0  0  0  0  0  0  0  0  0
   35.3790   31.6330  -14.4020 C   0  0  0  0  0  0  0  0  0  0  0  0
   35.0090   31.1770  -15.7790 C   0  0  0  0  0  0  0  0  0  0  0  0
   34.0200   31.6820  -16.6050 C   0  0  0  0  0  0  0  0  0  0  0  0
   33.8720   31.1240  -17.8770 C   0  0  0  0  0  0  0  0  0  0  0  0
   34.7140   30.0860  -18.3070 C   0  0  0  0  0  0  0  0  0  0  0  0
   35.7170   29.5930  -17.4700 C   0  0  0  0  0  0  0  0  0  0  0  0
   35.8510   30.1390  -16.2020 C   0  0  0  0  0  0  0  0  0  0  0  0
   40.4752   28.0787  -12.0697 H   0  0  0  0  0  0  0  0  0  0  0  0
   38.9661   28.8208  -15.9878 H   0  0  0  0  0  0  0  0  0  0  0  0
   38.6076   27.0745  -15.7715 H   0  0  0  0  0  0  0  0  0  0  0  0
   36.9170   28.0810  -14.0920 H   0  0  0  0  0  0  0  0  0  0  0  0
   36.5770   27.9100  -15.7350 H   0  0  0  0  0  0  0  0  0  0  0  0
   37.8812   30.2178  -15.3297 H   0  0  0  0  0  0  0  0  0  0  0  0
   35.5116   29.6850  -13.4384 H   0  0  0  0  0  0  0  0  0  0  0  0
   36.9189   30.7212  -13.1383 H   0  0  0  0  0  0  0  0  0  0  0  0
   34.4879   31.8112  -13.7822 H   0  0  0  0  0  0  0  0  0  0  0  0
   35.9267   32.5865  -14.3716 H   0  0  0  0  0  0  0  0  0  0  0  0
   33.3676   32.5013  -16.2687 H   0  0  0  0  0  0  0  0  0  0  0  0
   33.0874   31.5019  -18.5490 H   0  0  0  0  0  0  0  0  0  0  0  0
   34.5824   29.6576  -19.3116 H   0  0  0  0  0  0  0  0  0  0  0  0
   36.3866   28.7888  -17.8090 H   0  0  0  0  0  0  0  0  0  0  0  0
  1  2  3  0
  2  3  1  0
  3  4  1  0
  4  5  1  0
  5  6  1  0
  6  7  1  0
  7  8  1  0
  8  9  2  0
  9 10  1  0
 10 11  2  0
 11 12  1  0
 12 13  2  0
 13  5  1  0
 13  8  1  0
  1 14  1  0
  3 15  1  0
  3 16  1  0
  4 17  1  0
  4 18  1  0
  5 19  1  6
  6 20  1  0
  6 21  1  0
  7 22  1  0
  7 23  1  0
  9 24  1  0
 10 25  1  0
 11 26  1  0
 12 27  1  0
M  CHG  1   4   1
M  END
>  <meeko>  (6) 
{"is_sidechain": [false], "free_energy": -7.166, "intermolecular_energy": -7.968, "internal_energy": -0.268}

$$$$
rasagiline_out
     RDKit          3D

 27 28  0  0  0  0  0  0  0  0999 V2000
   31.6080   32.9930  -18.1300 C   0  0  0  0  0  0  0  0  0  0  0  0
   32.7670   32.9380  -17.8210 C   0  0  0  0  0  0  0  0  0  0  0  0
   34.1850   32.8700  -17.4450 C   0  0  0  0  0  0  0  0  0  0  0  0
   34.6980   31.5370  -17.7300 N   0  0  0  0  0  0  0  0  0  0  0  0
   34.7330   30.6900  -16.5440 C   0  0  2  0  0  0  0  0  0  0  0  0
   34.9940   31.4550  -15.2260 C   0  0  0  0  0  0  0  0  0  0  0  0
   35.6670   30.4550  -14.2750 C   0  0  0  0  0  0  0  0  0  0  0  0
   36.4250   29.6040  -15.2450 C   0  0  0  0  0  0  0  0  0  0  0  0
   37.4750   28.7410  -14.9820 C   0  0  0  0  0  0  0  0  0  0  0  0
   38.0140   28.0110  -16.0440 C   0  0  0  0  0  0  0  0  0  0  0  0
   37.4930   28.1420  -17.3410 C   0  0  0  0  0  0  0  0  0  0  0  0
   36.4250   29.0050  -17.5930 C   0  0  0  0  0  0  0  0  0  0  0  0
   35.9020   29.7400  -16.5390 C   0  0  0  0  0  0  0  0  0  0  0  0
   30.5462   33.0434  -18.4131 H   0  0  0  0  0  0  0  0  0  0  0  0
   34.7539   33.6134  -18.0227 H   0  0  0  0  0  0  0  0  0  0  0  0
   34.2908   33.0823  -16.3709 H   0  0  0  0  0  0  0  0  0  0  0  0
   35.6450   31.6230  -18.0980 H   0  0  0  0  0  0  0  0  0  0  0  0
   34.0720   31.1000  -18.4070 H   0  0  0  0  0  0  0  0  0  0  0  0
   33.7435   30.2117  -16.5894 H   0  0  0  0  0  0  0  0  0  0  0  0
   35.6575   32.3132  -15.4084 H   0  0  0  0  0  0  0  0  0  0  0  0
   34.0592   31.8470  -14.7987 H   0  0  0  0  0  0  0  0  0  0  0  0
   36.3415   30.9607  -13.5684 H   0  0  0  0  0  0  0  0  0  0  0  0
   34.9679   29.8984  -13.6335 H   0  0  0  0  0  0  0  0  0  0  0  0
   37.8746   28.6329  -13.9629 H   0  0  0  0  0  0  0  0  0  0  0  0
   38.8555   27.3263  -15.8621 H   0  0  0  0  0  0  0  0  0  0  0  0
   37.9300   27.5597  -18.1656 H   0  0  0  0  0  0  0  0  0  0  0  0
   36.0069   29.1002  -18.6060 H   0  0  0  0  0  0  0  0  0  0  0  0
  1  2  3  0
  2  3  1  0
  3  4  1  0
  4  5  1  0
  5  6  1  0
  6  7  1  0
  7  8  1  0
  8  9  2  0
  9 10  1  0
 10 11  2  0
 11 12  1  0
 12 13  2  0
 13  5  1  0
 13  8  1  0
  1 14  1  0
  3 15  1  0
  3 16  1  0
  4 17  1  0
  4 18  1  0
  5 19  1  1
  6 20  1  0
  6 21  1  0
  7 22  1  0
  7 23  1  0
  9 24  1  0
 10 25  1  0
 11 26  1  0
 12 27  1  0
M  CHG  1   4   1
M  END
>  <meeko>  (7) 
{"is_sidechain": [false], "free_energy": -7.163, "intermolecular_energy": -8.001, "internal_energy": -0.232}

$$$$
rasagiline_out
     RDKit          3D

 27 28  0  0  0  0  0  0  0  0999 V2000
   40.9350   26.5380  -14.1260 C   0  0  0  0  0  0  0  0  0  0  0  0
   40.0980   27.3370  -13.8010 C   0  0  0  0  0  0  0  0  0  0  0  0
   39.0740   28.3110  -13.4040 C   0  0  0  0  0  0  0  0  0  0  0  0
   38.7550   29.1670  -14.5390 N   0  0  0  0  0  0  0  0  0  0  0  0
   37.6680   28.6320  -15.3510 C   0  0  2  0  0  0  0  0  0  0  0  0
   38.0380   28.4060  -16.8340 C   0  0  0  0  0  0  0  0  0  0  0  0
   36.7280   28.5320  -17.6270 C   0  0  0  0  0  0  0  0  0  0  0  0
   35.9880   29.5340  -16.7970 C   0  0  0  0  0  0  0  0  0  0  0  0
   34.8910   30.2960  -17.1610 C   0  0  0  0  0  0  0  0  0  0  0  0
   34.3310   31.1480  -16.2050 C   0  0  0  0  0  0  0  0  0  0  0  0
   34.8630   31.2170  -14.9080 C   0  0  0  0  0  0  0  0  0  0  0  0
   35.9610   30.4330  -14.5480 C   0  0  0  0  0  0  0  0  0  0  0  0
   36.5230   29.6000  -15.5030 C   0  0  0  0  0  0  0  0  0  0  0  0
   41.7010   25.8068  -14.4234 H   0  0  0  0  0  0  0  0  0  0  0  0
   38.1676   27.7790  -13.0793 H   0  0  0  0  0  0  0  0  0  0  0  0
   39.4536   28.9262  -12.5749 H   0  0  0  0  0  0  0  0  0  0  0  0
   39.5860   29.2570  -15.1240 H   0  0  0  0  0  0  0  0  0  0  0  0
   38.4550   30.0710  -14.1730 H   0  0  0  0  0  0  0  0  0  0  0  0
   37.4264   27.7053  -14.8098 H   0  0  0  0  0  0  0  0  0  0  0  0
   38.7599   29.1663  -17.1670 H   0  0  0  0  0  0  0  0  0  0  0  0
   38.5047   27.4214  -16.9850 H   0  0  0  0  0  0  0  0  0  0  0  0
   36.9069   28.9048  -18.6463 H   0  0  0  0  0  0  0  0  0  0  0  0
   36.1937   27.5819  -17.7747 H   0  0  0  0  0  0  0  0  0  0  0  0
   34.4712   30.2326  -18.1758 H   0  0  0  0  0  0  0  0  0  0  0  0
   33.4645   31.7708  -16.4718 H   0  0  0  0  0  0  0  0  0  0  0  0
   34.4110   31.8946  -14.1687 H   0  0  0  0  0  0  0  0  0  0  0  0
   36.3713   30.4755  -13.5283 H   0  0  0  0  0  0  0  0  0  0  0  0
  1  2  3  0
  2  3  1  0
  3  4  1  0
  4  5  1  0
  5  6  1  0
  6  7  1  0
  7  8  1  0
  8  9  2  0
  9 10  1  0
 10 11  2  0
 11 12  1  0
 12 13  2  0
 13  5  1  0
 13  8  1  0
  1 14  1  0
  3 15  1  0
  3 16  1  0
  4 17  1  0
  4 18  1  0
  5 19  1  1
  6 20  1  0
  6 21  1  0
  7 22  1  0
  7 23  1  0
  9 24  1  0
 10 25  1  0
 11 26  1  0
 12 27  1  0
M  CHG  1   4   1
M  END
>  <meeko>  (8) 
{"is_sidechain": [false], "free_energy": -7.114, "intermolecular_energy": -7.901, "internal_energy": -0.278}

$$$$
