safinamide_out
     RDKit          3D

 42 43  0  0  0  0  0  0  0  0999 V2000
   32.8630   33.2880  -17.6210 C   0  0  0  0  0  0  0  0  0  0  0  0
   34.2120   32.5940  -17.7960 C   0  0  2  0  0  0  0  0  0  0  0  0
   34.2270   31.3500  -16.9850 N   0  0  0  0  0  0  0  0  0  0  0  0
   34.9450   30.2760  -17.6810 C   0  0  0  0  0  0  0  0  0  0  0  0
   36.0130   29.6950  -16.7840 C   0  0  0  0  0  0  0  0  0  0  0  0
   36.0940   30.0720  -15.4380 C   0  0  0  0  0  0  0  0  0  0  0  0
   37.0700   29.5250  -14.5960 C   0  0  0  0  0  0  0  0  0  0  0  0
   37.9750   28.5870  -15.0920 C   0  0  0  0  0  0  0  0  0  0  0  0
   38.9720   27.9750  -14.3850 O   0  0  0  0  0  0  0  0  0  0  0  0
   39.5900   26.8400  -14.9830 C   0  0  0  0  0  0  0  0  0  0  0  0
   40.9440   26.6560  -14.3440 C   0  0  0  0  0  0  0  0  0  0  0  0
   41.2310   27.2500  -13.1030 C   0  0  0  0  0  0  0  0  0  0  0  0
   42.4790   27.0690  -12.4990 C   0  0  0  0  0  0  0  0  0  0  0  0
   43.4470   26.2860  -13.1250 C   0  0  0  0  0  0  0  0  0  0  0  0
   43.1580   25.6870  -14.3450 C   0  0  0  0  0  0  0  0  0  0  0  0
   44.0880   24.9290  -14.9430 F   0  0  0  0  0  0  0  0  0  0  0  0
   41.9200   25.8600  -14.9560 C   0  0  0  0  0  0  0  0  0  0  0  0
   37.8920   28.2010  -16.4310 C   0  0  0  0  0  0  0  0  0  0  0  0
   36.9180   28.7450  -17.2730 C   0  0  0  0  0  0  0  0  0  0  0  0
   35.3330   33.5410  -17.3330 C   0  0  0  0  0  0  0  0  0  0  0  0
   35.9740   34.2060  -18.3420 N   0  0  0  0  0  0  0  0  0  0  0  0
   35.6620   33.6800  -16.1610 O   0  0  0  0  0  0  0  0  0  0  0  0
   32.6448   33.4003  -16.5487 H   0  0  0  0  0  0  0  0  0  0  0  0
   32.8971   34.2805  -18.0941 H   0  0  0  0  0  0  0  0  0  0  0  0
   32.0754   32.6832  -18.0941 H   0  0  0  0  0  0  0  0  0  0  0  0
   34.3713   32.3385  -18.8540 H   0  0  0  0  0  0  0  0  0  0  0  0
   33.2680   31.0520  -16.8120 H   0  0  0  0  0  0  0  0  0  0  0  0
   34.7070   31.5420  -16.1050 H   0  0  0  0  0  0  0  0  0  0  0  0
   34.2337   29.4842  -17.9588 H   0  0  0  0  0  0  0  0  0  0  0  0
   35.4199   30.6882  -18.5835 H   0  0  0  0  0  0  0  0  0  0  0  0
   35.3815   30.8077  -15.0366 H   0  0  0  0  0  0  0  0  0  0  0  0
   37.1229   29.8355  -13.5421 H   0  0  0  0  0  0  0  0  0  0  0  0
   38.9724   25.9458  -14.8131 H   0  0  0  0  0  0  0  0  0  0  0  0
   39.6964   26.9898  -16.0675 H   0  0  0  0  0  0  0  0  0  0  0  0
   40.4669   27.8628  -12.6024 H   0  0  0  0  0  0  0  0  0  0  0  0
   42.6964   27.5440  -11.5310 H   0  0  0  0  0  0  0  0  0  0  0  0
   44.4322   26.1433  -12.6570 H   0  0  0  0  0  0  0  0  0  0  0  0
   41.7082   25.3720  -15.9188 H   0  0  0  0  0  0  0  0  0  0  0  0
   38.6014   27.4600  -16.8281 H   0  0  0  0  0  0  0  0  0  0  0  0
   36.8622   28.4255  -18.3241 H   0  0  0  0  0  0  0  0  0  0  0  0
   35.6910   34.0760  -19.2760 H   0  0  0  0  0  0  0  0  0  0  0  0
   36.7210   34.8130  -18.1340 H   0  0  0  0  0  0  0  0  0  0  0  0
  1  2  1  0
  2  3  1  0
  3  4  1  0
  4  5  1  0
  5  6  2  0
  6  7  1  0
  7  8  2  0
  8  9  1  0
  9 10  1  0
 10 11  1  0
 11 12  2  0
 12 13  1  0
 13 14  2  0
 14 15  1  0
 15 16  1  0
 15 17  2  0
  8 18  1  0
 18 19  2  0
  2 20  1  0
 20 21  1  0
 20 22  2  0
 19  5  1  0
 17 11  1  0
  1 23  1  0
  1 24  1  0
  1 25  1  0
  2 26  1  6
  3 27  1  0
  3 28  1  0
  4 29  1  0
  4 30  1  0
  6 31  1  0
  7 32  1  0
 10 33  1  0
 10 34  1  0
 12 35  1  0
 13 36  1  0
 14 37  1  0
 17 38  1  0
 18 39  1  0
 19 40  1  0
 21 41  1  0
 21 42  1  0
M  CHG  1   3   1
M  END
>  <meeko>  (1) 
{"is_sidechain": [false], "free_energy": -9.85, "intermolecular_energy": -13.88, "internal_energy": -0.713}

$$$$
safinamide_out
     RDKit          3D

 42 43  0  0  0  0  0  0  0  0999 V2000
   32.9230   33.2560  -17.5500 C   0  0  0  0  0  0  0  0  0  0  0  0
   34.2880   32.6050  -17.7600 C   0  0  2  0  0  0  0  0  0  0  0  0
   34.3630   31.3620  -16.9500 N   0  0  0  0  0  0  0  0  0  0  0  0
   34.9280   30.2570  -17.7330 C   0  0  0  0  0  0  0  0  0  0  0  0
   36.0060   29.5530  -16.9420 C   0  0  0  0  0  0  0  0  0  0  0  0
   36.8330   28.6040  -17.5550 C   0  0  0  0  0  0  0  0  0  0  0  0
   37.8460   27.9610  -16.8330 C   0  0  0  0  0  0  0  0  0  0  0  0
   38.0460   28.2650  -15.4860 C   0  0  0  0  0  0  0  0  0  0  0  0
   38.9920   27.7160  -14.6670 O   0  0  0  0  0  0  0  0  0  0  0  0
   39.7050   26.5880  -15.1630 C   0  0  0  0  0  0  0  0  0  0  0  0
   41.0270   26.5180  -14.4400 C   0  0  0  0  0  0  0  0  0  0  0  0
   41.2140   27.2100  -13.2310 C   0  0  0  0  0  0  0  0  0  0  0  0
   42.4320   27.1350  -12.5490 C   0  0  0  0  0  0  0  0  0  0  0  0
   43.4710   26.3630  -13.0640 C   0  0  0  0  0  0  0  0  0  0  0  0
   43.2820   25.6670  -14.2520 C   0  0  0  0  0  0  0  0  0  0  0  0
   44.2800   24.9200  -14.7430 F   0  0  0  0  0  0  0  0  0  0  0  0
   42.0750   25.7340  -14.9400 C   0  0  0  0  0  0  0  0  0  0  0  0
   37.2290   29.2170  -14.8740 C   0  0  0  0  0  0  0  0  0  0  0  0
   36.2180   29.8610  -15.5930 C   0  0  0  0  0  0  0  0  0  0  0  0
   35.3890   33.5870  -17.3240 C   0  0  0  0  0  0  0  0  0  0  0  0
   35.8980   34.3620  -18.3310 N   0  0  0  0  0  0  0  0  0  0  0  0
   35.8150   33.6640  -16.1770 O   0  0  0  0  0  0  0  0  0  0  0  0
   32.7239   33.3509  -16.4723 H   0  0  0  0  0  0  0  0  0  0  0  0
   32.9174   34.2537  -18.0132 H   0  0  0  0  0  0  0  0  0  0  0  0
   32.1442   32.6324  -18.0132 H   0  0  0  0  0  0  0  0  0  0  0  0
   34.4285   32.3545  -18.8218 H   0  0  0  0  0  0  0  0  0  0  0  0
   33.4260   31.1070  -16.6430 H   0  0  0  0  0  0  0  0  0  0  0  0
   34.9700   31.5340  -16.1480 H   0  0  0  0  0  0  0  0  0  0  0  0
   34.1303   29.5402  -17.9775 H   0  0  0  0  0  0  0  0  0  0  0  0
   35.3673   30.6606  -18.6572 H   0  0  0  0  0  0  0  0  0  0  0  0
   36.6851   28.3604  -18.6174 H   0  0  0  0  0  0  0  0  0  0  0  0
   38.4850   27.2152  -17.3285 H   0  0  0  0  0  0  0  0  0  0  0  0
   39.1283   25.6701  -14.9763 H   0  0  0  0  0  0  0  0  0  0  0  0
   39.8666   26.6842  -16.2468 H   0  0  0  0  0  0  0  0  0  0  0  0
   40.3944   27.8162  -12.8177 H   0  0  0  0  0  0  0  0  0  0  0  0
   42.5699   27.6851  -11.6065 H   0  0  0  0  0  0  0  0  0  0  0  0
   44.4334   26.3048  -12.5345 H   0  0  0  0  0  0  0  0  0  0  0  0
   41.9433   25.1717  -15.8762 H   0  0  0  0  0  0  0  0  0  0  0  0
   37.3826   29.4634  -13.8130 H   0  0  0  0  0  0  0  0  0  0  0  0
   35.5865   30.6127  -15.0969 H   0  0  0  0  0  0  0  0  0  0  0  0
   35.5390   34.2800  -19.2440 H   0  0  0  0  0  0  0  0  0  0  0  0
   36.6240   34.9990  -18.1420 H   0  0  0  0  0  0  0  0  0  0  0  0
  1  2  1  0
  2  3  1  0
  3  4  1  0
  4  5  1  0
  5  6  2  0
  6  7  1  0
  7  8  2  0
  8  9  1  0
  9 10  1  0
 10 11  1  0
 11 12  2  0
 12 13  1  0
 13 14  2  0
 14 15  1  0
 15 16  1  0
 15 17  2  0
  8 18  1  0
 18 19  2  0
  2 20  1  0
 20 21  1  0
 20 22  2  0
 19  5  1  0
 17 11  1  0
  1 23  1  0
  1 24  1  0
  1 25  1  0
  2 26  1  6
  3 27  1  0
  3 28  1  0
  4 29  1  0
  4 30  1  0
  6 31  1  0
  7 32  1  0
 10 33  1  0
 10 34  1  0
 12 35  1  0
 13 36  1  0
 14 37  1  0
 17 38  1  0
 18 39  1  0
 19 40  1  0
 21 41  1  0
 21 42  1  0
M  CHG  1   3   1
M  END
>  <meeko>  (2) 
{"is_sidechain": [false], "free_energy": -9.808, "intermolecular_energy": -13.899, "internal_energy": -0.636}

$$$$
safinamide_out
     RDKit          3D

 42 43  0  0  0  0  0  0  0  0999 V2000
   46.3610   24.4880  -13.5460 C   0  0  0  0  0  0  0  0  0  0  0  0
   46.5600   26.0020  -13.5300 C   0  0  2  0  0  0  0  0  0  0  0  0
   45.2800   26.6650  -13.8860 N   0  0  0  0  0  0  0  0  0  0  0  0
   44.3070   26.5540  -12.7920 C   0  0  0  0  0  0  0  0  0  0  0  0
   42.9000   26.6590  -13.3310 C   0  0  0  0  0  0  0  0  0  0  0  0
   42.5670   26.0870  -14.5660 C   0  0  0  0  0  0  0  0  0  0  0  0
   41.2600   26.1650  -15.0640 C   0  0  0  0  0  0  0  0  0  0  0  0
   40.2690   26.8140  -14.3280 C   0  0  0  0  0  0  0  0  0  0  0  0
   38.9600   26.9630  -14.6930 O   0  0  0  0  0  0  0  0  0  0  0  0
   38.7010   27.3320  -16.0450 C   0  0  0  0  0  0  0  0  0  0  0  0
   37.5840   28.3460  -16.0430 C   0  0  0  0  0  0  0  0  0  0  0  0
   37.2890   29.0780  -14.8810 C   0  0  0  0  0  0  0  0  0  0  0  0
   36.2660   30.0300  -14.8790 C   0  0  0  0  0  0  0  0  0  0  0  0
   35.5350   30.2660  -16.0410 C   0  0  0  0  0  0  0  0  0  0  0  0
   35.8360   29.5530  -17.1960 C   0  0  0  0  0  0  0  0  0  0  0  0
   35.1360   29.7860  -18.3150 F   0  0  0  0  0  0  0  0  0  0  0  0
   36.8510   28.6030  -17.2090 C   0  0  0  0  0  0  0  0  0  0  0  0
   40.5950   27.3780  -13.0930 C   0  0  0  0  0  0  0  0  0  0  0  0
   41.8980   27.3000  -12.5940 C   0  0  0  0  0  0  0  0  0  0  0  0
   47.6500   26.3790  -14.5490 C   0  0  0  0  0  0  0  0  0  0  0  0
   47.6870   25.5910  -15.6670 N   0  0  0  0  0  0  0  0  0  0  0  0
   48.4530   27.2900  -14.3790 O   0  0  0  0  0  0  0  0  0  0  0  0
   46.3118   24.1137  -12.5128 H   0  0  0  0  0  0  0  0  0  0  0  0
   45.4234   24.2469  -14.0684 H   0  0  0  0  0  0  0  0  0  0  0  0
   47.2044   24.0128  -14.0684 H   0  0  0  0  0  0  0  0  0  0  0  0
   46.8721   26.3314  -12.5280 H   0  0  0  0  0  0  0  0  0  0  0  0
   44.8950   26.2230  -14.7200 H   0  0  0  0  0  0  0  0  0  0  0  0
   45.4630   27.6540  -14.0560 H   0  0  0  0  0  0  0  0  0  0  0  0
   44.4326   25.5825  -12.2915 H   0  0  0  0  0  0  0  0  0  0  0  0
   44.4783   27.3711  -12.0757 H   0  0  0  0  0  0  0  0  0  0  0  0
   43.3415   25.5703  -15.1518 H   0  0  0  0  0  0  0  0  0  0  0  0
   41.0150   25.7138  -16.0368 H   0  0  0  0  0  0  0  0  0  0  0  0
   39.6046   27.7722  -16.4919 H   0  0  0  0  0  0  0  0  0  0  0  0
   38.4157   26.4488  -16.6353 H   0  0  0  0  0  0  0  0  0  0  0  0
   37.8690   28.9001  -13.9634 H   0  0  0  0  0  0  0  0  0  0  0  0
   36.0384   30.5921  -13.9613 H   0  0  0  0  0  0  0  0  0  0  0  0
   34.7256   31.0109  -16.0448 H   0  0  0  0  0  0  0  0  0  0  0  0
   37.0785   28.0534  -18.1343 H   0  0  0  0  0  0  0  0  0  0  0  0
   39.8176   27.8894  -12.5064 H   0  0  0  0  0  0  0  0  0  0  0  0
   42.1372   27.7448  -11.6168 H   0  0  0  0  0  0  0  0  0  0  0  0
   47.0310   24.8660  -15.7800 H   0  0  0  0  0  0  0  0  0  0  0  0
   48.3700   25.7490  -16.3580 H   0  0  0  0  0  0  0  0  0  0  0  0
  1  2  1  0
  2  3  1  0
  3  4  1  0
  4  5  1  0
  5  6  2  0
  6  7  1  0
  7  8  2  0
  8  9  1  0
  9 10  1  0
 10 11  1  0
 11 12  2  0
 12 13  1  0
 13 14  2  0
 14 15  1  0
 15 16  1  0
 15 17  2  0
  8 18  1  0
 18 19  2  0
  2 20  1  0
 20 21  1  0
 20 22  2  0
 19  5  1  0
 17 11  1  0
  1 23  1  0
  1 24  1  0
  1 25  1  0
  2 26  1  1
  3 27  1  0
  3 28  1  0
  4 29  1  0
  4 30  1  0
  6 31  1  0
  7 32  1  0
 10 33  1  0
 10 34  1  0
 12 35  1  0
 13 36  1  0
 14 37  1  0
 17 38  1  0
 18 39  1  0
 19 40  1  0
 21 41  1  0
 21 42  1  0
M  CHG  1   3   1
M  END
>  <meeko>  (3) 
{"is_sidechain": [false], "free_energy": -9.793, "intermolecular_energy": -13.852, "internal_energy": -0.661}

$$$$
safinamide_out
     RDKit          3D

 42 43  0  0  0  0  0  0  0  0999 V2000
   32.7590   33.2850  -17.7160 C   0  0  0  0  0  0  0  0  0  0  0  0
   34.1190   32.5980  -17.8090 C   0  0  2  0  0  0  0  0  0  0  0  0
   34.0950   31.3570  -16.9940 N   0  0  0  0  0  0  0  0  0  0  0  0
   34.7990   30.2650  -17.6750 C   0  0  0  0  0  0  0  0  0  0  0  0
   35.9120   29.7360  -16.8020 C   0  0  0  0  0  0  0  0  0  0  0  0
   36.0020   30.1160  -15.4570 C   0  0  0  0  0  0  0  0  0  0  0  0
   37.0200   29.6150  -14.6360 C   0  0  0  0  0  0  0  0  0  0  0  0
   37.9600   28.7230  -15.1520 C   0  0  0  0  0  0  0  0  0  0  0  0
   39.0000   28.1600  -14.4660 O   0  0  0  0  0  0  0  0  0  0  0  0
   39.2020   26.7590  -14.6290 C   0  0  0  0  0  0  0  0  0  0  0  0
   40.6710   26.4770  -14.4390 C   0  0  0  0  0  0  0  0  0  0  0  0
   41.4200   25.8790  -15.4660 C   0  0  0  0  0  0  0  0  0  0  0  0
   42.7860   25.6310  -15.3000 C   0  0  0  0  0  0  0  0  0  0  0  0
   43.4170   25.9850  -14.1100 C   0  0  0  0  0  0  0  0  0  0  0  0
   42.6800   26.5900  -13.0990 C   0  0  0  0  0  0  0  0  0  0  0  0
   43.2890   26.9370  -11.9570 F   0  0  0  0  0  0  0  0  0  0  0  0
   41.3200   26.8420  -13.2520 C   0  0  0  0  0  0  0  0  0  0  0  0
   37.8680   28.3350  -16.4900 C   0  0  0  0  0  0  0  0  0  0  0  0
   36.8520   28.8320  -17.3110 C   0  0  0  0  0  0  0  0  0  0  0  0
   35.2050   33.5530  -17.2830 C   0  0  0  0  0  0  0  0  0  0  0  0
   35.8230   34.3040  -18.2470 N   0  0  0  0  0  0  0  0  0  0  0  0
   35.5290   33.6300  -16.1040 O   0  0  0  0  0  0  0  0  0  0  0  0
   32.4887   33.4215  -16.6585 H   0  0  0  0  0  0  0  0  0  0  0  0
   32.8091   34.2659  -18.2112 H   0  0  0  0  0  0  0  0  0  0  0  0
   31.9992   32.6626  -18.2112 H   0  0  0  0  0  0  0  0  0  0  0  0
   34.3404   32.3398  -18.8551 H   0  0  0  0  0  0  0  0  0  0  0  0
   33.1260   31.0810  -16.8360 H   0  0  0  0  0  0  0  0  0  0  0  0
   34.5640   31.5410  -16.1080 H   0  0  0  0  0  0  0  0  0  0  0  0
   34.0886   29.4530  -17.8896 H   0  0  0  0  0  0  0  0  0  0  0  0
   35.2293   30.6459  -18.6129 H   0  0  0  0  0  0  0  0  0  0  0  0
   35.2637   30.8169  -15.0402 H   0  0  0  0  0  0  0  0  0  0  0  0
   37.0784   29.9255  -13.5823 H   0  0  0  0  0  0  0  0  0  0  0  0
   38.6156   26.2072  -13.8796 H   0  0  0  0  0  0  0  0  0  0  0  0
   38.8769   26.4390  -15.6300 H   0  0  0  0  0  0  0  0  0  0  0  0
   40.9271   25.6032  -16.4099 H   0  0  0  0  0  0  0  0  0  0  0  0
   43.3617   25.1568  -16.1085 H   0  0  0  0  0  0  0  0  0  0  0  0
   44.4902   25.7873  -13.9714 H   0  0  0  0  0  0  0  0  0  0  0  0
   40.7552   27.3271  -12.4422 H   0  0  0  0  0  0  0  0  0  0  0  0
   38.6041   27.6296  -16.9030 H   0  0  0  0  0  0  0  0  0  0  0  0
   36.7907   28.5115  -18.3615 H   0  0  0  0  0  0  0  0  0  0  0  0
   35.5440   34.2230  -19.1880 H   0  0  0  0  0  0  0  0  0  0  0  0
   36.5470   34.9230  -17.9990 H   0  0  0  0  0  0  0  0  0  0  0  0
  1  2  1  0
  2  3  1  0
  3  4  1  0
  4  5  1  0
  5  6  2  0
  6  7  1  0
  7  8  2  0
  8  9  1  0
  9 10  1  0
 10 11  1  0
 11 12  2  0
 12 13  1  0
 13 14  2  0
 14 15  1  0
 15 16  1  0
 15 17  2  0
  8 18  1  0
 18 19  2  0
  2 20  1  0
 20 21  1  0
 20 22  2  0
 19  5  1  0
 17 11  1  0
  1 23  1  0
  1 24  1  0
  1 25  1  0
  2 26  1  6
  3 27  1  0
  3 28  1  0
  4 29  1  0
  4 30  1  0
  6 31  1  0
  7 32  1  0
 10 33  1  0
 10 34  1  0
 12 35  1  0
 13 36  1  0
 14 37  1  0
 17 38  1  0
 18 39  1  0
 19 40  1  0
 21 41  1  0
 21 42  1  0
M  CHG  1   3   1
M  END
>  <meeko>  (4) 
{"is_sidechain": [false], "free_energy": -9.62, "intermolecular_energy": -13.559, "internal_energy": -0.71}

$$$$
safinamide_out
     RDKit          3D

 42 43  0  0  0  0  0  0  0  0999 V2000
   34.4430   30.8800  -16.8510 C   0  0  0  0  0  0  0  0  0  0  0  0
   35.7530   31.5960  -17.1690 C   0  0  2  0  0  0  0  0  0  0  0  0
   36.8900   30.7110  -16.8110 N   0  0  0  0  0  0  0  0  0  0  0  0
   36.4430   29.3250  -16.6300 C   0  0  0  0  0  0  0  0  0  0  0  0
   37.5480   28.4940  -16.0230 C   0  0  0  0  0  0  0  0  0  0  0  0
   38.1160   27.4330  -16.7400 C   0  0  0  0  0  0  0  0  0  0  0  0
   39.1540   26.6690  -16.1920 C   0  0  0  0  0  0  0  0  0  0  0  0
   39.6400   26.9620  -14.9180 C   0  0  0  0  0  0  0  0  0  0  0  0
   40.6440   26.3030  -14.2660 O   0  0  0  0  0  0  0  0  0  0  0  0
   41.6780   25.7390  -15.0670 C   0  0  0  0  0  0  0  0  0  0  0  0
   42.9880   25.9520  -14.3500 C   0  0  0  0  0  0  0  0  0  0  0  0
   43.1690   27.0650  -13.5130 C   0  0  0  0  0  0  0  0  0  0  0  0
   44.3760   27.2570  -12.8340 C   0  0  0  0  0  0  0  0  0  0  0  0
   45.4100   26.3350  -12.9790 C   0  0  0  0  0  0  0  0  0  0  0  0
   45.2270   25.2260  -13.7970 C   0  0  0  0  0  0  0  0  0  0  0  0
   46.2190   24.3350  -13.9310 F   0  0  0  0  0  0  0  0  0  0  0  0
   44.0300   25.0230  -14.4770 C   0  0  0  0  0  0  0  0  0  0  0  0
   39.0830   28.0250  -14.2030 C   0  0  0  0  0  0  0  0  0  0  0  0
   38.0480   28.7890  -14.7490 C   0  0  0  0  0  0  0  0  0  0  0  0
   35.8260   32.9020  -16.3590 C   0  0  0  0  0  0  0  0  0  0  0  0
   35.5880   34.0390  -17.0820 N   0  0  0  0  0  0  0  0  0  0  0  0
   36.1030   32.9470  -15.1660 O   0  0  0  0  0  0  0  0  0  0  0  0
   34.3179   30.8116  -15.7603 H   0  0  0  0  0  0  0  0  0  0  0  0
   33.6028   31.4443  -17.2818 H   0  0  0  0  0  0  0  0  0  0  0  0
   34.4643   29.8681  -17.2818 H   0  0  0  0  0  0  0  0  0  0  0  0
   35.8024   31.8338  -18.2419 H   0  0  0  0  0  0  0  0  0  0  0  0
   37.3100   31.0410  -15.9430 H   0  0  0  0  0  0  0  0  0  0  0  0
   37.5710   30.7340  -17.5710 H   0  0  0  0  0  0  0  0  0  0  0  0
   35.5688   29.3097  -15.9625 H   0  0  0  0  0  0  0  0  0  0  0  0
   36.1754   28.9040  -17.6104 H   0  0  0  0  0  0  0  0  0  0  0  0
   37.7417   27.1968  -17.7470 H   0  0  0  0  0  0  0  0  0  0  0  0
   39.5864   25.8369  -16.7670 H   0  0  0  0  0  0  0  0  0  0  0  0
   41.4984   24.6626  -15.2056 H   0  0  0  0  0  0  0  0  0  0  0  0
   41.7005   26.2182  -16.0569 H   0  0  0  0  0  0  0  0  0  0  0  0
   42.3533   27.7927  -13.3904 H   0  0  0  0  0  0  0  0  0  0  0  0
   44.5090   28.1356  -12.1857 H   0  0  0  0  0  0  0  0  0  0  0  0
   46.3634   26.4832  -12.4507 H   0  0  0  0  0  0  0  0  0  0  0  0
   43.9017   24.1349  -15.1132 H   0  0  0  0  0  0  0  0  0  0  0  0
   39.4634   28.2634  -13.1988 H   0  0  0  0  0  0  0  0  0  0  0  0
   37.6241   29.6262  -14.1750 H   0  0  0  0  0  0  0  0  0  0  0  0
   35.3670   33.9760  -18.0400 H   0  0  0  0  0  0  0  0  0  0  0  0
   35.6390   34.9200  -16.6460 H   0  0  0  0  0  0  0  0  0  0  0  0
  1  2  1  0
  2  3  1  0
  3  4  1  0
  4  5  1  0
  5  6  2  0
  6  7  1  0
  7  8  2  0
  8  9  1  0
  9 10  1  0
 10 11  1  0
 11 12  2  0
 12 13  1  0
 13 14  2  0
 14 15  1  0
 15 16  1  0
 15 17  2  0
  8 18  1  0
 18 19  2  0
  2 20  1  0
 20 21  1  0
 20 22  2  0
 19  5  1  0
 17 11  1  0
  1 23  1  0
  1 24  1  0
  1 25  1  0
  2 26  1  6
  3 27  1  0
  3 28  1  0
  4 29  1  0
  4 30  1  0
  6 31  1  0
  7 32  1  0
 10 33  1  0
 10 34  1  0
 12 35  1  0
 13 36  1  0
 14 37  1  0
 17 38  1  0
 18 39  1  0
 19 40  1  0
 21 41  1  0
 21 42  1  0
M  CHG  1   3   1
M  END
>  <meeko>  (5) 
{"is_sidechain": [false], "free_energy": -9.276, "intermolecular_energy": -13.15, "internal_energy": -0.635}

$$$$
safinamide_out
     RDKit          3D

 42 43  0  0  0  0  0  0  0  0999 V2000
   43.1070   26.7000  -12.7500 C   0  0  0  0  0  0  0  0  0  0  0  0
   42.1050   26.6270  -13.9000 C   0  0  2  0  0  0  0  0  0  0  0  0
   40.8740   25.9430  -13.4300 N   0  0  0  0  0  0  0  0  0  0  0  0
   39.8930   26.9110  -12.9240 C   0  0  0  0  0  0  0  0  0  0  0  0
   39.1580   27.5590  -14.0740 C   0  0  0  0  0  0  0  0  0  0  0  0
   38.9170   26.8460  -15.2550 C   0  0  0  0  0  0  0  0  0  0  0  0
   38.2200   27.4340  -16.3180 C   0  0  0  0  0  0  0  0  0  0  0  0
   37.7510   28.7420  -16.2090 C   0  0  0  0  0  0  0  0  0  0  0  0
   37.0590   29.4350  -17.1640 O   0  0  0  0  0  0  0  0  0  0  0  0
   35.6470   29.5290  -17.0020 C   0  0  0  0  0  0  0  0  0  0  0  0
   35.2520   30.9700  -17.2080 C   0  0  0  0  0  0  0  0  0  0  0  0
   36.1690   32.0030  -16.9560 C   0  0  0  0  0  0  0  0  0  0  0  0
   35.8120   33.3390  -17.1620 C   0  0  0  0  0  0  0  0  0  0  0  0
   34.5380   33.6540  -17.6290 C   0  0  0  0  0  0  0  0  0  0  0  0
   33.6340   32.6310  -17.8930 C   0  0  0  0  0  0  0  0  0  0  0  0
   32.4110   32.9340  -18.3480 F   0  0  0  0  0  0  0  0  0  0  0  0
   33.9780   31.2980  -17.6910 C   0  0  0  0  0  0  0  0  0  0  0  0
   37.9810   29.4530  -15.0290 C   0  0  0  0  0  0  0  0  0  0  0  0
   38.6760   28.8680  -13.9670 C   0  0  0  0  0  0  0  0  0  0  0  0
   42.7310   25.8430  -15.0670 C   0  0  0  0  0  0  0  0  0  0  0  0
   43.8950   25.1910  -14.7610 N   0  0  0  0  0  0  0  0  0  0  0  0
   42.2590   25.8160  -16.1980 O   0  0  0  0  0  0  0  0  0  0  0  0
   42.5686   26.6608  -11.7916 H   0  0  0  0  0  0  0  0  0  0  0  0
   43.8023   25.8501  -12.8150 H   0  0  0  0  0  0  0  0  0  0  0  0
   43.6718   27.6417  -12.8150 H   0  0  0  0  0  0  0  0  0  0  0  0
   41.8481   27.6404  -14.2421 H   0  0  0  0  0  0  0  0  0  0  0  0
   41.1170   25.2940  -12.6820 H   0  0  0  0  0  0  0  0  0  0  0  0
   40.4590   25.4440  -14.2170 H   0  0  0  0  0  0  0  0  0  0  0  0
   39.1703   26.3917  -12.2775 H   0  0  0  0  0  0  0  0  0  0  0  0
   40.4190   27.6886  -12.3506 H   0  0  0  0  0  0  0  0  0  0  0  0
   39.2795   25.8117  -15.3489 H   0  0  0  0  0  0  0  0  0  0  0  0
   38.0423   26.8623  -17.2408 H   0  0  0  0  0  0  0  0  0  0  0  0
   35.1424   28.8933  -17.7445 H   0  0  0  0  0  0  0  0  0  0  0  0
   35.3531   29.1908  -15.9974 H   0  0  0  0  0  0  0  0  0  0  0  0
   37.1782   31.7588  -16.5929 H   0  0  0  0  0  0  0  0  0  0  0  0
   36.5365   34.1406  -16.9555 H   0  0  0  0  0  0  0  0  0  0  0  0
   34.2494   34.7036  -17.7876 H   0  0  0  0  0  0  0  0  0  0  0  0
   33.2507   30.5024  -17.9102 H   0  0  0  0  0  0  0  0  0  0  0  0
   37.6111   30.4846  -14.9346 H   0  0  0  0  0  0  0  0  0  0  0  0
   38.8449   29.4396  -13.0424 H   0  0  0  0  0  0  0  0  0  0  0  0
   44.2540   25.2290  -13.8440 H   0  0  0  0  0  0  0  0  0  0  0  0
   44.3740   24.6860  -15.4570 H   0  0  0  0  0  0  0  0  0  0  0  0
  1  2  1  0
  2  3  1  0
  3  4  1  0
  4  5  1  0
  5  6  2  0
  6  7  1  0
  7  8  2  0
  8  9  1  0
  9 10  1  0
 10 11  1  0
 11 12  2  0
 12 13  1  0
 13 14  2  0
 14 15  1  0
 15 16  1  0
 15 17  2  0
  8 18  1  0
 18 19  2  0
  2 20  1  0
 20 21  1  0
 20 22  2  0
 19  5  1  0
 17 11  1  0
  1 23  1  0
  1 24  1  0
  1 25  1  0
  2 26  1  6
  3 27  1  0
  3 28  1  0
  4 29  1  0
  4 30  1  0
  6 31  1  0
  7 32  1  0
 10 33  1  0
 10 34  1  0
 12 35  1  0
 13 36  1  0
 14 37  1  0
 17 38  1  0
 18 39  1  0
 19 40  1  0
 21 41  1  0
 21 42  1  0
M  CHG  1   3   1
M  END
>  <meeko>  (6) 
{"is_sidechain": [false], "free_energy": -9.221, "intermolecular_energy": -13.017, "internal_energy": -0.69}

$$$$
safinamide_out
     RDKit          3D

 42 43  0  0  0  0  0  0  0  0999 V2000
   36.2540   32.7790  -16.3880 C   0  0  0  0  0  0  0  0  0  0  0  0
   34.8560   32.2280  -16.1190 C   0  0  2  0  0  0  0  0  0  0  0  0
   34.9370   30.7540  -15.9550 N   0  0  0  0  0  0  0  0  0  0  0  0
   35.6030   30.1320  -17.1050 C   0  0  0  0  0  0  0  0  0  0  0  0
   36.7020   29.2070  -16.6350 C   0  0  0  0  0  0  0  0  0  0  0  0
   37.1590   29.2610  -15.3120 C   0  0  0  0  0  0  0  0  0  0  0  0
   38.1640   28.3960  -14.8640 C   0  0  0  0  0  0  0  0  0  0  0  0
   38.7210   27.4600  -15.7350 C   0  0  0  0  0  0  0  0  0  0  0  0
   39.7030   26.5590  -15.4310 O   0  0  0  0  0  0  0  0  0  0  0  0
   39.9230   26.2790  -14.0520 C   0  0  0  0  0  0  0  0  0  0  0  0
   41.4090   26.3450  -13.7960 C   0  0  0  0  0  0  0  0  0  0  0  0
   41.9300   27.2580  -12.8640 C   0  0  0  0  0  0  0  0  0  0  0  0
   43.3040   27.3120  -12.6110 C   0  0  0  0  0  0  0  0  0  0  0  0
   44.1680   26.4480  -13.2810 C   0  0  0  0  0  0  0  0  0  0  0  0
   43.6510   25.5350  -14.1930 C   0  0  0  0  0  0  0  0  0  0  0  0
   44.4820   24.7000  -14.8310 F   0  0  0  0  0  0  0  0  0  0  0  0
   42.2860   25.4720  -14.4530 C   0  0  0  0  0  0  0  0  0  0  0  0
   38.2620   27.3970  -17.0520 C   0  0  0  0  0  0  0  0  0  0  0  0
   37.2580   28.2590  -17.5010 C   0  0  0  0  0  0  0  0  0  0  0  0
   33.9380   32.5770  -17.3040 C   0  0  0  0  0  0  0  0  0  0  0  0
   32.6820   32.0390  -17.2330 N   0  0  0  0  0  0  0  0  0  0  0  0
   34.2910   33.2570  -18.2600 O   0  0  0  0  0  0  0  0  0  0  0  0
   36.7598   32.9784  -15.4317 H   0  0  0  0  0  0  0  0  0  0  0  0
   36.8341   32.0423  -16.9630 H   0  0  0  0  0  0  0  0  0  0  0  0
   36.1754   33.7134  -16.9630 H   0  0  0  0  0  0  0  0  0  0  0  0
   34.4452   32.6727  -15.2006 H   0  0  0  0  0  0  0  0  0  0  0  0
   33.9940   30.3750  -15.8720 H   0  0  0  0  0  0  0  0  0  0  0  0
   35.4810   30.5500  -15.1170 H   0  0  0  0  0  0  0  0  0  0  0  0
   34.8660   29.5558  -17.6836 H   0  0  0  0  0  0  0  0  0  0  0  0
   36.0422   30.9200  -17.7345 H   0  0  0  0  0  0  0  0  0  0  0  0
   36.7224   29.9926  -14.6162 H   0  0  0  0  0  0  0  0  0  0  0  0
   38.5151   28.4545  -13.8232 H   0  0  0  0  0  0  0  0  0  0  0  0
   39.4035   27.0244  -13.4319 H   0  0  0  0  0  0  0  0  0  0  0  0
   39.5344   25.2821  -13.7969 H   0  0  0  0  0  0  0  0  0  0  0  0
   41.2504   27.9369  -12.3281 H   0  0  0  0  0  0  0  0  0  0  0  0
   43.7023   28.0353  -11.8843 H   0  0  0  0  0  0  0  0  0  0  0  0
   45.2505   26.4881  -13.0898 H   0  0  0  0  0  0  0  0  0  0  0  0
   41.8957   24.7379  -15.1733 H   0  0  0  0  0  0  0  0  0  0  0  0
   38.6957   26.6603  -17.7442 H   0  0  0  0  0  0  0  0  0  0  0  0
   36.9031   28.1920  -18.5400 H   0  0  0  0  0  0  0  0  0  0  0  0
   32.4220   31.4960  -16.4530 H   0  0  0  0  0  0  0  0  0  0  0  0
   32.0380   32.1930  -17.9620 H   0  0  0  0  0  0  0  0  0  0  0  0
  1  2  1  0
  2  3  1  0
  3  4  1  0
  4  5  1  0
  5  6  2  0
  6  7  1  0
  7  8  2  0
  8  9  1  0
  9 10  1  0
 10 11  1  0
 11 12  2  0
 12 13  1  0
 13 14  2  0
 14 15  1  0
 15 16  1  0
 15 17  2  0
  8 18  1  0
 18 19  2  0
  2 20  1  0
 20 21  1  0
 20 22  2  0
 19  5  1  0
 17 11  1  0
  1 23  1  0
  1 24  1  0
  1 25  1  0
  2 26  1  1
  3 27  1  0
  3 28  1  0
  4 29  1  0
  4 30  1  0
  6 31  1  0
  7 32  1  0
 10 33  1  0
 10 34  1  0
 12 35  1  0
 13 36  1  0
 14 37  1  0
 17 38  1  0
 18 39  1  0
 19 40  1  0
 21 41  1  0
 21 42  1  0
M  CHG  1   3   1
M  END
>  <meeko>  (7) 
{"is_sidechain": [false], "free_energy": -9.218, "intermolecular_energy": -12.998, "internal_energy": -0.706}

$$$$
safinamide_out
     RDKit          3D

 42 43  0  0  0  0  0  0  0  0999 V2000
   43.6820   26.5430  -12.1830 C   0  0  0  0  0  0  0  0  0  0  0  0
   44.5090   26.8590  -13.4270 C   0  0  2  0  0  0  0  0  0  0  0  0
   43.6200   26.8480  -14.6170 N   0  0  0  0  0  0  0  0  0  0  0  0
   42.6740   25.7280  -14.5580 C   0  0  0  0  0  0  0  0  0  0  0  0
   41.3060   26.1740  -15.0180 C   0  0  0  0  0  0  0  0  0  0  0  0
   40.3940   26.7240  -14.1080 C   0  0  0  0  0  0  0  0  0  0  0  0
   39.1310   27.1570  -14.5300 C   0  0  0  0  0  0  0  0  0  0  0  0
   38.7670   27.0490  -15.8710 C   0  0  0  0  0  0  0  0  0  0  0  0
   37.5730   27.4310  -16.4170 O   0  0  0  0  0  0  0  0  0  0  0  0
   37.5450   28.6740  -17.1130 C   0  0  0  0  0  0  0  0  0  0  0  0
   36.4020   29.4890  -16.5610 C   0  0  0  0  0  0  0  0  0  0  0  0
   36.3630   29.8300  -15.1990 C   0  0  0  0  0  0  0  0  0  0  0  0
   35.3140   30.5990  -14.6870 C   0  0  0  0  0  0  0  0  0  0  0  0
   34.2990   31.0410  -15.5330 C   0  0  0  0  0  0  0  0  0  0  0  0
   34.3440   30.7160  -16.8830 C   0  0  0  0  0  0  0  0  0  0  0  0
   33.3710   31.1470  -17.6970 F   0  0  0  0  0  0  0  0  0  0  0  0
   35.3830   29.9510  -17.4040 C   0  0  0  0  0  0  0  0  0  0  0  0
   39.6760   26.5100  -16.7830 C   0  0  0  0  0  0  0  0  0  0  0  0
   40.9370   26.0780  -16.3650 C   0  0  0  0  0  0  0  0  0  0  0  0
   45.6130   25.7990  -13.5840 C   0  0  0  0  0  0  0  0  0  0  0  0
   46.6600   26.1760  -14.3800 N   0  0  0  0  0  0  0  0  0  0  0  0
   45.5650   24.6880  -13.0700 O   0  0  0  0  0  0  0  0  0  0  0  0
   44.2727   26.7687  -11.2829 H   0  0  0  0  0  0  0  0  0  0  0  0
   42.7682   27.1553  -12.1849 H   0  0  0  0  0  0  0  0  0  0  0  0
   43.4093   25.4773  -12.1849 H   0  0  0  0  0  0  0  0  0  0  0  0
   44.9732   27.8515  -13.3299 H   0  0  0  0  0  0  0  0  0  0  0  0
   44.1890   26.7590  -15.4580 H   0  0  0  0  0  0  0  0  0  0  0  0
   43.0890   27.7190  -14.6340 H   0  0  0  0  0  0  0  0  0  0  0  0
   43.0300   24.9172  -15.2106 H   0  0  0  0  0  0  0  0  0  0  0  0
   42.6044   25.3720  -13.5195 H   0  0  0  0  0  0  0  0  0  0  0  0
   40.6736   26.8169  -13.0482 H   0  0  0  0  0  0  0  0  0  0  0  0
   38.4250   27.5831  -13.8020 H   0  0  0  0  0  0  0  0  0  0  0  0
   38.4937   29.2093  -16.9602 H   0  0  0  0  0  0  0  0  0  0  0  0
   37.4099   28.5061  -18.1917 H   0  0  0  0  0  0  0  0  0  0  0  0
   37.1657   29.4886  -14.5288 H   0  0  0  0  0  0  0  0  0  0  0  0
   35.2899   30.8549  -13.6175 H   0  0  0  0  0  0  0  0  0  0  0  0
   33.4685   31.6426  -15.1351 H   0  0  0  0  0  0  0  0  0  0  0  0
   35.4042   29.7092  -18.4769 H   0  0  0  0  0  0  0  0  0  0  0  0
   39.3961   26.4244  -17.8433 H   0  0  0  0  0  0  0  0  0  0  0  0
   41.6433   25.6605  -17.0977 H   0  0  0  0  0  0  0  0  0  0  0  0
   46.6740   27.0750  -14.7820 H   0  0  0  0  0  0  0  0  0  0  0  0
   47.3980   25.5480  -14.5530 H   0  0  0  0  0  0  0  0  0  0  0  0
  1  2  1  0
  2  3  1  0
  3  4  1  0
  4  5  1  0
  5  6  2  0
  6  7  1  0
  7  8  2  0
  8  9  1  0
  9 10  1  0
 10 11  1  0
 11 12  2  0
 12 13  1  0
 13 14  2  0
 14 15  1  0
 15 16  1  0
 15 17  2  0
  8 18  1  0
 18 19  2  0
  2 20  1  0
 20 21  1  0
 20 22  2  0
 19  5  1  0
 17 11  1  0
  1 23  1  0
  1 24  1  0
  1 25  1  0
  2 26  1  1
  3 27  1  0
  3 28  1  0
  4 29  1  0
  4 30  1  0
  6 31  1  0
  7 32  1  0
 10 33  1  0
 10 34  1  0
 12 35  1  0
 13 36  1  0
 14 37  1  0
 17 38  1  0
 18 39  1  0
 19 40  1  0
 21 41  1  0
 21 42  1  0
M  CHG  1   3   1
M  END
>  <meeko>  (8) 
{"is_sidechain": [false], "free_energy": -9.063, "intermolecular_energy": -12.75, "internal_energy": -0.734}

$$$$
safinamide_out
     RDKit          3D

 42 43  0  0  0  0  0  0  0  0999 V2000
   42.2890   26.9140  -12.1100 C   0  0  0  0  0  0  0  0  0  0  0  0
   42.6190   26.8960  -13.6000 C   0  0  2  0  0  0  0  0  0  0  0  0
   41.5500   26.1650  -14.3260 N   0  0  0  0  0  0  0  0  0  0  0  0
   40.2400   26.3900  -13.7030 C   0  0  0  0  0  0  0  0  0  0  0  0
   39.3340   27.1410  -14.6490 C   0  0  0  0  0  0  0  0  0  0  0  0
   39.0390   26.6200  -15.9160 C   0  0  0  0  0  0  0  0  0  0  0  0
   38.1850   27.3010  -16.7910 C   0  0  0  0  0  0  0  0  0  0  0  0
   37.6110   28.5130  -16.4070 C   0  0  0  0  0  0  0  0  0  0  0  0
   36.7630   29.2790  -17.1580 O   0  0  0  0  0  0  0  0  0  0  0  0
   36.6410   30.6520  -16.8010 C   0  0  0  0  0  0  0  0  0  0  0  0
   35.1740   30.9580  -16.6280 C   0  0  0  0  0  0  0  0  0  0  0  0
   34.3930   31.3420  -17.7310 C   0  0  0  0  0  0  0  0  0  0  0  0
   33.0290   31.6110  -17.5780 C   0  0  0  0  0  0  0  0  0  0  0  0
   32.4330   31.4900  -16.3250 C   0  0  0  0  0  0  0  0  0  0  0  0
   33.2020   31.0960  -15.2370 C   0  0  0  0  0  0  0  0  0  0  0  0
   32.6270   30.9740  -14.0330 F   0  0  0  0  0  0  0  0  0  0  0  0
   34.5600   30.8260  -15.3760 C   0  0  0  0  0  0  0  0  0  0  0  0
   37.8950   29.0310  -15.1420 C   0  0  0  0  0  0  0  0  0  0  0  0
   38.7460   28.3520  -14.2660 C   0  0  0  0  0  0  0  0  0  0  0  0
   43.9730   26.1960  -13.8100 C   0  0  0  0  0  0  0  0  0  0  0  0
   43.9410   25.1310  -14.6690 N   0  0  0  0  0  0  0  0  0  0  0  0
   45.0060   26.5300  -13.2400 O   0  0  0  0  0  0  0  0  0  0  0  0
   43.2207   26.8632  -11.5275 H   0  0  0  0  0  0  0  0  0  0  0  0
   41.7531   27.8427  -11.8643 H   0  0  0  0  0  0  0  0  0  0  0  0
   41.6553   26.0491  -11.8643 H   0  0  0  0  0  0  0  0  0  0  0  0
   42.6808   27.9243  -13.9856 H   0  0  0  0  0  0  0  0  0  0  0  0
   41.7580   25.1670  -14.3110 H   0  0  0  0  0  0  0  0  0  0  0  0
   41.5150   26.5090  -15.2860 H   0  0  0  0  0  0  0  0  0  0  0  0
   39.7837   25.4200  -13.4563 H   0  0  0  0  0  0  0  0  0  0  0  0
   40.3756   26.9852  -12.7879 H   0  0  0  0  0  0  0  0  0  0  0  0
   39.4844   25.6634  -16.2268 H   0  0  0  0  0  0  0  0  0  0  0  0
   37.9660   26.8798  -17.7833 H   0  0  0  0  0  0  0  0  0  0  0  0
   37.1760   30.8421  -15.8588 H   0  0  0  0  0  0  0  0  0  0  0  0
   37.0759   31.2913  -17.5834 H   0  0  0  0  0  0  0  0  0  0  0  0
   34.8584   31.4319  -18.7236 H   0  0  0  0  0  0  0  0  0  0  0  0
   32.4276   31.9178  -18.4464 H   0  0  0  0  0  0  0  0  0  0  0  0
   31.3617   31.7047  -16.1978 H   0  0  0  0  0  0  0  0  0  0  0  0
   35.1506   30.5093  -14.5037 H   0  0  0  0  0  0  0  0  0  0  0  0
   37.4436   29.9848  -14.8313 H   0  0  0  0  0  0  0  0  0  0  0  0
   38.9548   28.7712  -13.2707 H   0  0  0  0  0  0  0  0  0  0  0  0
   43.0980   24.8830  -15.1140 H   0  0  0  0  0  0  0  0  0  0  0  0
   44.7600   24.6120  -14.8400 H   0  0  0  0  0  0  0  0  0  0  0  0
  1  2  1  0
  2  3  1  0
  3  4  1  0
  4  5  1  0
  5  6  2  0
  6  7  1  0
  7  8  2  0
  8  9  1  0
  9 10  1  0
 10 11  1  0
 11 12  2  0
 12 13  1  0
 13 14  2  0
 14 15  1  0
 15 16  1  0
 15 17  2  0
  8 18  1  0
 18 19  2  0
  2 20  1  0
 20 21  1  0
 20 22  2  0
 19  5  1  0
 17 11  1  0
  1 23  1  0
  1 24  1  0
  1 25  1  0
  2 26  1  6
  3 27  1  0
  3 28  1  0
  4 29  1  0
  4 30  1  0
  6 31  1  0
  7 32  1  0
 10 33  1  0
 10 34  1  0
 12 35  1  0
 13 36  1  0
 14 37  1  0
 17 38  1  0
 18 39  1  0
 19 40  1  0
 21 41  1  0
 21 42  1  0
M  CHG  1   3   1
M  END
>  <meeko>  (9) 
{"is_sidechain": [false], "free_energy": -8.827, "intermolecular_energy": -12.414, "internal_energy": -0.738}

$$$$
