selegiline_out
     RDKit          3D

 32 32  0  0  0  0  0  0  0  0999 V2000
   32.3840   29.8430  -12.1820 C   0  0  0  0  0  0  0  0  0  0  0  0
   33.2490   30.4290  -12.7750 C   0  0  0  0  0  0  0  0  0  0  0  0
   34.3130   31.1500  -13.4950 C   0  0  0  0  0  0  0  0  0  0  0  0
   34.4450   30.6780  -14.8830 N   0  0  1  0  0  0  0  0  0  0  0  0
   33.4050   31.2550  -15.7380 C   0  0  0  0  0  0  0  0  0  0  0  0
   35.8250   30.8690  -15.4010 C   0  0  2  0  0  0  0  0  0  0  0  0
   36.1700   32.3250  -15.7570 C   0  0  0  0  0  0  0  0  0  0  0  0
   36.0910   29.9170  -16.6000 C   0  0  0  0  0  0  0  0  0  0  0  0
   37.1580   28.8780  -16.3300 C   0  0  0  0  0  0  0  0  0  0  0  0
   37.7810   28.8030  -15.0770 C   0  0  0  0  0  0  0  0  0  0  0  0
   38.7580   27.8380  -14.8300 C   0  0  0  0  0  0  0  0  0  0  0  0
   39.1220   26.9390  -15.8310 C   0  0  0  0  0  0  0  0  0  0  0  0
   38.5100   27.0080  -17.0810 C   0  0  0  0  0  0  0  0  0  0  0  0
   37.5330   27.9720  -17.3310 C   0  0  0  0  0  0  0  0  0  0  0  0
   31.5920   29.3064  -11.6390 H   0  0  0  0  0  0  0  0  0  0  0  0
   34.0732   32.2235  -13.5045 H   0  0  0  0  0  0  0  0  0  0  0  0
   35.2654   30.9643  -12.9768 H   0  0  0  0  0  0  0  0  0  0  0  0
   34.2920   29.6700  -14.8960 H   0  0  0  0  0  0  0  0  0  0  0  0
   32.6153   31.6931  -15.1099 H   0  0  0  0  0  0  0  0  0  0  0  0
   33.8451   32.0380  -16.3731 H   0  0  0  0  0  0  0  0  0  0  0  0
   32.9736   30.4672  -16.3731 H   0  0  0  0  0  0  0  0  0  0  0  0
   36.4998   30.6088  -14.5722 H   0  0  0  0  0  0  0  0  0  0  0  0
   36.3076   32.9057  -14.8329 H   0  0  0  0  0  0  0  0  0  0  0  0
   37.0985   32.3482  -16.3463 H   0  0  0  0  0  0  0  0  0  0  0  0
   35.3506   32.7624  -16.3463 H   0  0  0  0  0  0  0  0  0  0  0  0
   35.1534   29.3960  -16.8438 H   0  0  0  0  0  0  0  0  0  0  0  0
   36.4541   30.5409  -17.4300 H   0  0  0  0  0  0  0  0  0  0  0  0
   37.4979   29.5096  -14.2829 H   0  0  0  0  0  0  0  0  0  0  0  0
   39.2419   27.7866  -13.8435 H   0  0  0  0  0  0  0  0  0  0  0  0
   39.8905   26.1769  -15.6347 H   0  0  0  0  0  0  0  0  0  0  0  0
   38.7980   26.3006  -17.8726 H   0  0  0  0  0  0  0  0  0  0  0  0
   37.0541   28.0212  -18.3201 H   0  0  0  0  0  0  0  0  0  0  0  0
  1  2  3  0
  2  3  1  0
  3  4  1  0
  4  5  1  0
  4  6  1  0
  6  7  1  0
  6  8  1  0
  8  9  1  0
  9 10  2  0
 10 11  1  0
 11 12  2  0
 12 13  1  0
 13 14  2  0
 14  9  1  0
  1 15  1  0
  3 16  1  0
  3 17  1  0
  4 18  1  1
  5 19  1  0
  5 20  1  0
  5 21  1  0
  6 22  1  1
  7 23  1  0
  7 24  1  0
  7 25  1  0
  8 26  1  0
  8 27  1  0
 10 28  1  0
 11 29  1  0
 12 30  1  0
 13 31  1  0
 14 32  1  0
M  CHG  1   4   1
M  END
>  <meeko>  (1) 
{"is_sidechain": [false], "free_energy": -7.376, "intermolecular_energy": -9.1, "internal_energy": -0.366}

$$$$
selegiline_out
     RDKit          3D

 32 32  0  0  0  0  0  0  0  0999 V2000
   32.3640   29.7870  -12.1210 C   0  0  0  0  0  0  0  0  0  0  0  0
   33.2240   30.3810  -12.7120 C   0  0  0  0  0  0  0  0  0  0  0  0
   34.2830   31.1120  -13.4300 C   0  0  0  0  0  0  0  0  0  0  0  0
   34.4130   30.6510  -14.8220 N   0  0  1  0  0  0  0  0  0  0  0  0
   33.3490   31.2060  -15.6620 C   0  0  0  0  0  0  0  0  0  0  0  0
   35.7820   30.8820  -15.3530 C   0  0  2  0  0  0  0  0  0  0  0  0
   36.0870   32.3500  -15.6950 C   0  0  0  0  0  0  0  0  0  0  0  0
   36.0560   29.9520  -16.5670 C   0  0  0  0  0  0  0  0  0  0  0  0
   37.1120   28.9000  -16.3040 C   0  0  0  0  0  0  0  0  0  0  0  0
   37.4960   28.0050  -17.3120 C   0  0  0  0  0  0  0  0  0  0  0  0
   38.4760   27.0430  -17.0670 C   0  0  0  0  0  0  0  0  0  0  0  0
   39.0810   26.9640  -15.8140 C   0  0  0  0  0  0  0  0  0  0  0  0
   38.7040   27.8470  -14.8040 C   0  0  0  0  0  0  0  0  0  0  0  0
   37.7240   28.8100  -15.0460 C   0  0  0  0  0  0  0  0  0  0  0  0
   31.5761   29.2428  -11.5796 H   0  0  0  0  0  0  0  0  0  0  0  0
   34.0386   32.1845  -13.4307 H   0  0  0  0  0  0  0  0  0  0  0  0
   35.2377   30.9264  -12.9160 H   0  0  0  0  0  0  0  0  0  0  0  0
   34.2860   29.6400  -14.8390 H   0  0  0  0  0  0  0  0  0  0  0  0
   32.5554   31.6200  -15.0226 H   0  0  0  0  0  0  0  0  0  0  0  0
   33.7617   32.0037  -16.2971 H   0  0  0  0  0  0  0  0  0  0  0  0
   32.9309   30.4111  -16.2971 H   0  0  0  0  0  0  0  0  0  0  0  0
   36.4728   30.6284  -14.5354 H   0  0  0  0  0  0  0  0  0  0  0  0
   36.2066   32.9258  -14.7654 H   0  0  0  0  0  0  0  0  0  0  0  0
   37.0156   32.4044  -16.2821 H   0  0  0  0  0  0  0  0  0  0  0  0
   35.2569   32.7698  -16.2821 H   0  0  0  0  0  0  0  0  0  0  0  0
   35.1178   29.4429  -16.8327 H   0  0  0  0  0  0  0  0  0  0  0  0
   36.4338   30.5892  -17.3801 H   0  0  0  0  0  0  0  0  0  0  0  0
   37.0215   28.0616  -18.3028 H   0  0  0  0  0  0  0  0  0  0  0  0
   38.7719   26.3454  -17.8644 H   0  0  0  0  0  0  0  0  0  0  0  0
   39.8548   26.2060  -15.6226 H   0  0  0  0  0  0  0  0  0  0  0  0
   39.1799   27.7846  -13.8142 H   0  0  0  0  0  0  0  0  0  0  0  0
   37.4296   29.5033  -14.2443 H   0  0  0  0  0  0  0  0  0  0  0  0
  1  2  3  0
  2  3  1  0
  3  4  1  0
  4  5  1  0
  4  6  1  0
  6  7  1  0
  6  8  1  0
  8  9  1  0
  9 10  2  0
 10 11  1  0
 11 12  2  0
 12 13  1  0
 13 14  2  0
 14  9  1  0
  1 15  1  0
  3 16  1  0
  3 17  1  0
  4 18  1  1
  5 19  1  0
  5 20  1  0
  5 21  1  0
  6 22  1  1
  7 23  1  0
  7 24  1  0
  7 25  1  0
  8 26  1  0
  8 27  1  0
 10 28  1  0
 11 29  1  0
 12 30  1  0
 13 31  1  0
 14 32  1  0
M  CHG  1   4   1
M  END
>  <meeko>  (2) 
{"is_sidechain": [false], "free_energy": -7.372, "intermolecular_energy": -9.095, "internal_energy": -0.367}

$$$$
selegiline_out
     RDKit          3D

 32 32  0  0  0  0  0  0  0  0999 V2000
   35.3550   30.5120  -14.3910 C   0  0  0  0  0  0  0  0  0  0  0  0
   36.3920   29.9390  -14.5900 C   0  0  0  0  0  0  0  0  0  0  0  0
   37.6660   29.2390  -14.8280 C   0  0  0  0  0  0  0  0  0  0  0  0
   37.5280   28.1930  -15.8550 N   0  0  1  0  0  0  0  0  0  0  0  0
   37.0870   28.7610  -17.1310 C   0  0  0  0  0  0  0  0  0  0  0  0
   38.7530   27.3570  -15.9580 C   0  0  2  0  0  0  0  0  0  0  0  0
   38.8590   26.5530  -17.2650 C   0  0  0  0  0  0  0  0  0  0  0  0
   38.8850   26.4340  -14.7160 C   0  0  0  0  0  0  0  0  0  0  0  0
   40.1890   26.6040  -13.9660 C   0  0  0  0  0  0  0  0  0  0  0  0
   41.4140   26.3370  -14.5930 C   0  0  0  0  0  0  0  0  0  0  0  0
   42.6140   26.5040  -13.9010 C   0  0  0  0  0  0  0  0  0  0  0  0
   42.6020   26.9370  -12.5760 C   0  0  0  0  0  0  0  0  0  0  0  0
   41.3900   27.2020  -11.9420 C   0  0  0  0  0  0  0  0  0  0  0  0
   40.1880   27.0360  -12.6330 C   0  0  0  0  0  0  0  0  0  0  0  0
   34.4055   31.0366  -14.2088 H   0  0  0  0  0  0  0  0  0  0  0  0
   38.4175   29.9697  -15.1618 H   0  0  0  0  0  0  0  0  0  0  0  0
   37.9745   28.7585  -13.8878 H   0  0  0  0  0  0  0  0  0  0  0  0
   36.7900   27.5520  -15.5630 H   0  0  0  0  0  0  0  0  0  0  0  0
   36.4225   29.6168  -16.9413 H   0  0  0  0  0  0  0  0  0  0  0  0
   37.9631   29.0972  -17.7050 H   0  0  0  0  0  0  0  0  0  0  0  0
   36.5442   27.9956  -17.7050 H   0  0  0  0  0  0  0  0  0  0  0  0
   39.6001   28.0583  -15.9824 H   0  0  0  0  0  0  0  0  0  0  0  0
   38.9995   25.4877  -17.0298 H   0  0  0  0  0  0  0  0  0  0  0  0
   37.9362   26.6808  -17.8500 H   0  0  0  0  0  0  0  0  0  0  0  0
   39.7171   26.9156  -17.8500 H   0  0  0  0  0  0  0  0  0  0  0  0
   38.0569   26.6580  -14.0275 H   0  0  0  0  0  0  0  0  0  0  0  0
   38.8582   25.3971  -15.0823 H   0  0  0  0  0  0  0  0  0  0  0  0
   41.4293   25.9934  -15.6379 H   0  0  0  0  0  0  0  0  0  0  0  0
   43.5707   26.2937  -14.4016 H   0  0  0  0  0  0  0  0  0  0  0  0
   43.5486   27.0693  -12.0315 H   0  0  0  0  0  0  0  0  0  0  0  0
   41.3800   27.5423  -10.8960 H   0  0  0  0  0  0  0  0  0  0  0  0
   39.2338   27.2458  -12.1275 H   0  0  0  0  0  0  0  0  0  0  0  0
  1  2  3  0
  2  3  1  0
  3  4  1  0
  4  5  1  0
  4  6  1  0
  6  7  1  0
  6  8  1  0
  8  9  1  0
  9 10  2  0
 10 11  1  0
 11 12  2  0
 12 13  1  0
 13 14  2  0
 14  9  1  0
  1 15  1  0
  3 16  1  0
  3 17  1  0
  4 18  1  1
  5 19  1  0
  5 20  1  0
  5 21  1  0
  6 22  1  6
  7 23  1  0
  7 24  1  0
  7 25  1  0
  8 26  1  0
  8 27  1  0
 10 28  1  0
 11 29  1  0
 12 30  1  0
 13 31  1  0
 14 32  1  0
M  CHG  1   4   1
M  END
>  <meeko>  (3) 
{"is_sidechain": [false], "free_energy": -7.236, "intermolecular_energy": -8.901, "internal_energy": -0.393}

$$$$
selegiline_out
     RDKit          3D

 32 32  0  0  0  0  0  0  0  0999 V2000
   32.9720   30.3430  -12.6900 C   0  0  0  0  0  0  0  0  0  0  0  0
   33.9290   30.7350  -13.3000 C   0  0  0  0  0  0  0  0  0  0  0  0
   35.1050   31.2190  -14.0440 C   0  0  0  0  0  0  0  0  0  0  0  0
   35.4190   30.3500  -15.1900 N   0  0  1  0  0  0  0  0  0  0  0  0
   34.6310   30.7230  -16.3670 C   0  0  0  0  0  0  0  0  0  0  0  0
   36.8820   30.2790  -15.4430 C   0  0  2  0  0  0  0  0  0  0  0  0
   37.3990   31.3140  -16.4560 C   0  0  0  0  0  0  0  0  0  0  0  0
   37.2920   28.8370  -15.8520 C   0  0  0  0  0  0  0  0  0  0  0  0
   38.3800   28.2420  -14.9830 C   0  0  0  0  0  0  0  0  0  0  0  0
   39.0460   27.0730  -15.3730 C   0  0  0  0  0  0  0  0  0  0  0  0
   40.0540   26.5330  -14.5730 C   0  0  0  0  0  0  0  0  0  0  0  0
   40.4050   27.1560  -13.3770 C   0  0  0  0  0  0  0  0  0  0  0  0
   39.7470   28.3170  -12.9790 C   0  0  0  0  0  0  0  0  0  0  0  0
   38.7390   28.8590  -13.7760 C   0  0  0  0  0  0  0  0  0  0  0  0
   32.0952   29.9839  -12.1311 H   0  0  0  0  0  0  0  0  0  0  0  0
   34.9005   32.2351  -14.4124 H   0  0  0  0  0  0  0  0  0  0  0  0
   35.9684   31.2135  -13.3624 H   0  0  0  0  0  0  0  0  0  0  0  0
   35.1420   29.3970  -14.9560 H   0  0  0  0  0  0  0  0  0  0  0  0
   33.6805   31.1729  -16.0443 H   0  0  0  0  0  0  0  0  0  0  0  0
   35.1946   31.4499  -16.9703 H   0  0  0  0  0  0  0  0  0  0  0  0
   34.4261   29.8263  -16.9703 H   0  0  0  0  0  0  0  0  0  0  0  0
   37.3682   30.5411  -14.4917 H   0  0  0  0  0  0  0  0  0  0  0  0
   37.8276   32.1720  -15.9173 H   0  0  0  0  0  0  0  0  0  0  0  0
   38.1731   30.8538  -17.0877 H   0  0  0  0  0  0  0  0  0  0  0  0
   36.5661   31.6566  -17.0877 H   0  0  0  0  0  0  0  0  0  0  0  0
   36.4036   28.1918  -15.7860 H   0  0  0  0  0  0  0  0  0  0  0  0
   37.6942   28.8957  -16.8741 H   0  0  0  0  0  0  0  0  0  0  0  0
   38.7726   26.5773  -16.3162 H   0  0  0  0  0  0  0  0  0  0  0  0
   40.5719   25.6147  -14.8869 H   0  0  0  0  0  0  0  0  0  0  0  0
   41.2010   26.7311  -12.7479 H   0  0  0  0  0  0  0  0  0  0  0  0
   40.0229   28.8077  -12.0339 H   0  0  0  0  0  0  0  0  0  0  0  0
   38.2225   29.7759  -13.4559 H   0  0  0  0  0  0  0  0  0  0  0  0
  1  2  3  0
  2  3  1  0
  3  4  1  0
  4  5  1  0
  4  6  1  0
  6  7  1  0
  6  8  1  0
  8  9  1  0
  9 10  2  0
 10 11  1  0
 11 12  2  0
 12 13  1  0
 13 14  2  0
 14  9  1  0
  1 15  1  0
  3 16  1  0
  3 17  1  0
  4 18  1  1
  5 19  1  0
  5 20  1  0
  5 21  1  0
  6 22  1  1
  7 23  1  0
  7 24  1  0
  7 25  1  0
  8 26  1  0
  8 27  1  0
 10 28  1  0
 11 29  1  0
 12 30  1  0
 13 31  1  0
 14 32  1  0
M  CHG  1   4   1
M  END
>  <meeko>  (4) 
{"is_sidechain": [false], "free_energy": -7.212, "intermolecular_energy": -8.888, "internal_energy": -0.377}

$$$$
selegiline_out
     RDKit          3D

 32 32  0  0  0  0  0  0  0  0999 V2000
   45.6680   24.8930  -13.8080 C   0  0  0  0  0  0  0  0  0  0  0  0
   44.7890   25.6270  -13.4440 C   0  0  0  0  0  0  0  0  0  0  0  0
   43.7160   26.5300  -12.9920 C   0  0  0  0  0  0  0  0  0  0  0  0
   42.6700   26.6840  -14.0160 N   0  0  1  0  0  0  0  0  0  0  0  0
   42.5520   25.4760  -14.8360 C   0  0  0  0  0  0  0  0  0  0  0  0
   41.3840   27.1400  -13.4250 C   0  0  2  0  0  0  0  0  0  0  0  0
   41.3360   27.0710  -11.8900 C   0  0  0  0  0  0  0  0  0  0  0  0
   40.1930   26.3720  -14.0620 C   0  0  0  0  0  0  0  0  0  0  0  0
   39.2140   27.2640  -14.7940 C   0  0  0  0  0  0  0  0  0  0  0  0
   38.7480   28.4480  -14.2070 C   0  0  0  0  0  0  0  0  0  0  0  0
   37.8520   29.2720  -14.8890 C   0  0  0  0  0  0  0  0  0  0  0  0
   37.4130   28.9200  -16.1640 C   0  0  0  0  0  0  0  0  0  0  0  0
   37.8670   27.7440  -16.7560 C   0  0  0  0  0  0  0  0  0  0  0  0
   38.7630   26.9190  -16.0760 C   0  0  0  0  0  0  0  0  0  0  0  0
   46.4727   24.2211  -14.1412 H   0  0  0  0  0  0  0  0  0  0  0  0
   43.2632   26.1171  -12.0785 H   0  0  0  0  0  0  0  0  0  0  0  0
   44.1571   27.5191  -12.7994 H   0  0  0  0  0  0  0  0  0  0  0  0
   42.9510   27.4300  -14.6530 H   0  0  0  0  0  0  0  0  0  0  0  0
   42.4660   24.5958  -14.1819 H   0  0  0  0  0  0  0  0  0  0  0  0
   41.6568   25.5498  -15.4709 H   0  0  0  0  0  0  0  0  0  0  0  0
   43.4446   25.3752  -15.4709 H   0  0  0  0  0  0  0  0  0  0  0  0
   41.2991   28.2098  -13.6666 H   0  0  0  0  0  0  0  0  0  0  0  0
   41.9159   27.9046  -11.4672 H   0  0  0  0  0  0  0  0  0  0  0  0
   40.2916   27.1424  -11.5522 H   0  0  0  0  0  0  0  0  0  0  0  0
   41.7662   26.1166  -11.5522 H   0  0  0  0  0  0  0  0  0  0  0  0
   40.5953   25.6386  -14.7763 H   0  0  0  0  0  0  0  0  0  0  0  0
   39.6401   25.8969  -13.2382 H   0  0  0  0  0  0  0  0  0  0  0  0
   39.0912   28.7300  -13.2007 H   0  0  0  0  0  0  0  0  0  0  0  0
   37.4920   30.1997  -14.4202 H   0  0  0  0  0  0  0  0  0  0  0  0
   36.7083   29.5707  -16.7025 H   0  0  0  0  0  0  0  0  0  0  0  0
   37.5185   27.4653  -17.7614 H   0  0  0  0  0  0  0  0  0  0  0  0
   39.1182   25.9914  -16.5488 H   0  0  0  0  0  0  0  0  0  0  0  0
  1  2  3  0
  2  3  1  0
  3  4  1  0
  4  5  1  0
  4  6  1  0
  6  7  1  0
  6  8  1  0
  8  9  1  0
  9 10  2  0
 10 11  1  0
 11 12  2  0
 12 13  1  0
 13 14  2  0
 14  9  1  0
  1 15  1  0
  3 16  1  0
  3 17  1  0
  4 18  1  6
  5 19  1  0
  5 20  1  0
  5 21  1  0
  6 22  1  1
  7 23  1  0
  7 24  1  0
  7 25  1  0
  8 26  1  0
  8 27  1  0
 10 28  1  0
 11 29  1  0
 12 30  1  0
 13 31  1  0
 14 32  1  0
M  CHG  1   4   1
M  END
>  <meeko>  (5) 
{"is_sidechain": [false], "free_energy": -7.112, "intermolecular_energy": -8.936, "internal_energy": -0.205}

$$$$
selegiline_out
     RDKit          3D

 32 32  0  0  0  0  0  0  0  0999 V2000
   41.1600   26.5610  -14.4500 C   0  0  0  0  0  0  0  0  0  0  0  0
   40.0220   26.8190  -14.7340 C   0  0  0  0  0  0  0  0  0  0  0  0
   38.6240   27.1340  -15.0750 C   0  0  0  0  0  0  0  0  0  0  0  0
   38.5370   28.0030  -16.2610 N   0  0  1  0  0  0  0  0  0  0  0  0
   38.1650   27.2360  -17.4520 C   0  0  0  0  0  0  0  0  0  0  0  0
   37.6730   29.1880  -16.0130 C   0  0  2  0  0  0  0  0  0  0  0  0
   37.2240   29.3460  -14.5510 C   0  0  0  0  0  0  0  0  0  0  0  0
   36.4570   29.1830  -16.9790 C   0  0  0  0  0  0  0  0  0  0  0  0
   35.8610   30.5540  -17.2170 C   0  0  0  0  0  0  0  0  0  0  0  0
   36.5810   31.7120  -16.8940 C   0  0  0  0  0  0  0  0  0  0  0  0
   36.0310   32.9730  -17.1230 C   0  0  0  0  0  0  0  0  0  0  0  0
   34.7570   33.0900  -17.6770 C   0  0  0  0  0  0  0  0  0  0  0  0
   34.0320   31.9450  -17.9990 C   0  0  0  0  0  0  0  0  0  0  0  0
   34.5790   30.6820  -17.7710 C   0  0  0  0  0  0  0  0  0  0  0  0
   42.2023   26.3247  -14.1899 H   0  0  0  0  0  0  0  0  0  0  0  0
   38.0866   26.1963  -15.2795 H   0  0  0  0  0  0  0  0  0  0  0  0
   38.1745   27.6673  -14.2244 H   0  0  0  0  0  0  0  0  0  0  0  0
   39.4640   28.3830  -16.4500 H   0  0  0  0  0  0  0  0  0  0  0  0
   37.7039   26.2852  -17.1465 H   0  0  0  0  0  0  0  0  0  0  0  0
   37.4478   27.8153  -18.0520 H   0  0  0  0  0  0  0  0  0  0  0  0
   39.0640   27.0314  -18.0520 H   0  0  0  0  0  0  0  0  0  0  0  0
   38.2979   30.0697  -16.2180 H   0  0  0  0  0  0  0  0  0  0  0  0
   38.0472   29.0563  -13.8813 H   0  0  0  0  0  0  0  0  0  0  0  0
   36.9499   30.3946  -14.3629 H   0  0  0  0  0  0  0  0  0  0  0  0
   36.3537   28.7001  -14.3629 H   0  0  0  0  0  0  0  0  0  0  0  0
   36.7841   28.7742  -17.9464 H   0  0  0  0  0  0  0  0  0  0  0  0
   35.6747   28.5709  -16.5065 H   0  0  0  0  0  0  0  0  0  0  0  0
   37.5867   31.6258  -16.4569 H   0  0  0  0  0  0  0  0  0  0  0  0
   36.6033   33.8766  -16.8661 H   0  0  0  0  0  0  0  0  0  0  0  0
   34.3250   34.0850  -17.8596 H   0  0  0  0  0  0  0  0  0  0  0  0
   33.0259   32.0368  -18.4341 H   0  0  0  0  0  0  0  0  0  0  0  0
   34.0015   29.7815  -18.0272 H   0  0  0  0  0  0  0  0  0  0  0  0
  1  2  3  0
  2  3  1  0
  3  4  1  0
  4  5  1  0
  4  6  1  0
  6  7  1  0
  6  8  1  0
  8  9  1  0
  9 10  2  0
 10 11  1  0
 11 12  2  0
 12 13  1  0
 13 14  2  0
 14  9  1  0
  1 15  1  0
  3 16  1  0
  3 17  1  0
  4 18  1  6
  5 19  1  0
  5 20  1  0
  5 21  1  0
  6 22  1  6
  7 23  1  0
  7 24  1  0
  7 25  1  0
  8 26  1  0
  8 27  1  0
 10 28  1  0
 11 29  1  0
 12 30  1  0
 13 31  1  0
 14 32  1  0
M  CHG  1   4   1
M  END
>  <meeko>  (6) 
{"is_sidechain": [false], "free_energy": -7.032, "intermolecular_energy": -8.772, "internal_energy": -0.271}

$$$$
selegiline_out
     RDKit          3D

 32 32  0  0  0  0  0  0  0  0999 V2000
   45.6190   26.1050  -13.4870 C   0  0  0  0  0  0  0  0  0  0  0  0
   44.5180   26.4460  -13.1480 C   0  0  0  0  0  0  0  0  0  0  0  0
   43.1710   26.8680  -12.7270 C   0  0  0  0  0  0  0  0  0  0  0  0
   42.2370   26.9190  -13.8650 N   0  0  1  0  0  0  0  0  0  0  0  0
   42.3170   25.6960  -14.6690 C   0  0  0  0  0  0  0  0  0  0  0  0
   40.8590   27.2660  -13.4320 C   0  0  2  0  0  0  0  0  0  0  0  0
   40.6210   27.1310  -11.9180 C   0  0  0  0  0  0  0  0  0  0  0  0
   39.8140   26.4490  -14.2420 C   0  0  0  0  0  0  0  0  0  0  0  0
   38.9330   27.2980  -15.1320 C   0  0  0  0  0  0  0  0  0  0  0  0
   38.7050   26.9350  -16.4670 C   0  0  0  0  0  0  0  0  0  0  0  0
   37.8850   27.7170  -17.2820 C   0  0  0  0  0  0  0  0  0  0  0  0
   37.2860   28.8680  -16.7720 C   0  0  0  0  0  0  0  0  0  0  0  0
   37.5100   29.2390  -15.4480 C   0  0  0  0  0  0  0  0  0  0  0  0
   38.3290   28.4600  -14.6310 C   0  0  0  0  0  0  0  0  0  0  0  0
   46.6271   25.7928  -13.7974 H   0  0  0  0  0  0  0  0  0  0  0  0
   42.7891   26.1526  -11.9838 H   0  0  0  0  0  0  0  0  0  0  0  0
   43.2458   27.8783  -12.2985 H   0  0  0  0  0  0  0  0  0  0  0  0
   42.5230   27.6790  -14.4820 H   0  0  0  0  0  0  0  0  0  0  0  0
   42.3741   24.8224  -14.0030 H   0  0  0  0  0  0  0  0  0  0  0  0
   41.4222   25.6153  -15.3037 H   0  0  0  0  0  0  0  0  0  0  0  0
   43.2147   25.7325  -15.3037 H   0  0  0  0  0  0  0  0  0  0  0  0
   40.7319   28.3369  -13.6487 H   0  0  0  0  0  0  0  0  0  0  0  0
   41.4520   27.6023  -11.3727 H   0  0  0  0  0  0  0  0  0  0  0  0
   39.6773   27.6283  -11.6494 H   0  0  0  0  0  0  0  0  0  0  0  0
   40.5636   26.0658  -11.6494 H   0  0  0  0  0  0  0  0  0  0  0  0
   40.3521   25.7269  -14.8737 H   0  0  0  0  0  0  0  0  0  0  0  0
   39.1540   25.9586  -13.5113 H   0  0  0  0  0  0  0  0  0  0  0  0
   39.1754   26.0281  -16.8747 H   0  0  0  0  0  0  0  0  0  0  0  0
   37.7111   27.4248  -18.3281 H   0  0  0  0  0  0  0  0  0  0  0  0
   36.6375   29.4822  -17.4140 H   0  0  0  0  0  0  0  0  0  0  0  0
   37.0398   30.1485  -15.0460 H   0  0  0  0  0  0  0  0  0  0  0  0
   38.5023   28.7591  -13.5867 H   0  0  0  0  0  0  0  0  0  0  0  0
  1  2  3  0
  2  3  1  0
  3  4  1  0
  4  5  1  0
  4  6  1  0
  6  7  1  0
  6  8  1  0
  8  9  1  0
  9 10  2  0
 10 11  1  0
 11 12  2  0
 12 13  1  0
 13 14  2  0
 14  9  1  0
  1 15  1  0
  3 16  1  0
  3 17  1  0
  4 18  1  6
  5 19  1  0
  5 20  1  0
  5 21  1  0
  6 22  1  6
  7 23  1  0
  7 24  1  0
  7 25  1  0
  8 26  1  0
  8 27  1  0
 10 28  1  0
 11 29  1  0
 12 30  1  0
 13 31  1  0
 14 32  1  0
M  CHG  1   4   1
M  END
>  <meeko>  (7) 
{"is_sidechain": [false], "free_energy": -7.023, "intermolecular_energy": -8.702, "internal_energy": -0.329}

$$$$
selegiline_out
     RDKit          3D

 32 32  0  0  0  0  0  0  0  0999 V2000
   42.5950   26.9920  -12.7170 C   0  0  0  0  0  0  0  0  0  0  0  0
   41.6760   26.8530  -13.4780 C   0  0  0  0  0  0  0  0  0  0  0  0
   40.5520   26.6760  -14.4140 C   0  0  0  0  0  0  0  0  0  0  0  0
   39.3180   27.2990  -13.9050 N   0  0  1  0  0  0  0  0  0  0  0  0
   39.6230   28.4010  -12.9890 C   0  0  0  0  0  0  0  0  0  0  0  0
   38.3940   27.6710  -15.0080 C   0  0  2  0  0  0  0  0  0  0  0  0
   38.7180   27.0030  -16.3550 C   0  0  0  0  0  0  0  0  0  0  0  0
   38.3120   29.2160  -15.1490 C   0  0  0  0  0  0  0  0  0  0  0  0
   36.9360   29.7230  -15.5240 C   0  0  0  0  0  0  0  0  0  0  0  0
   36.0640   30.2130  -14.5430 C   0  0  0  0  0  0  0  0  0  0  0  0
   34.7990   30.6870  -14.8950 C   0  0  0  0  0  0  0  0  0  0  0  0
   34.3950   30.6760  -16.2280 C   0  0  0  0  0  0  0  0  0  0  0  0
   35.2540   30.1880  -17.2110 C   0  0  0  0  0  0  0  0  0  0  0  0
   36.5180   29.7130  -16.8620 C   0  0  0  0  0  0  0  0  0  0  0  0
   43.4365   27.1193  -12.0201 H   0  0  0  0  0  0  0  0  0  0  0  0
   40.8138   27.1380  -15.3774 H   0  0  0  0  0  0  0  0  0  0  0  0
   40.3693   25.5977  -14.5316 H   0  0  0  0  0  0  0  0  0  0  0  0
   38.8120   26.6070  -13.3540 H   0  0  0  0  0  0  0  0  0  0  0  0
   39.5264   28.0519  -11.9504 H   0  0  0  0  0  0  0  0  0  0  0  0
   40.6514   28.7497  -13.1645 H   0  0  0  0  0  0  0  0  0  0  0  0
   38.9202   29.2288  -13.1645 H   0  0  0  0  0  0  0  0  0  0  0  0
   37.4065   27.2785  -14.7238 H   0  0  0  0  0  0  0  0  0  0  0  0
   39.1916   26.0265  -16.1755 H   0  0  0  0  0  0  0  0  0  0  0  0
   37.7889   26.8604  -16.9264 H   0  0  0  0  0  0  0  0  0  0  0  0
   39.4052   27.6443  -16.9264 H   0  0  0  0  0  0  0  0  0  0  0  0
   38.5979   29.6677  -14.1876 H   0  0  0  0  0  0  0  0  0  0  0  0
   38.9916   29.4997  -15.9661 H   0  0  0  0  0  0  0  0  0  0  0  0
   36.3781   30.2243  -13.4889 H   0  0  0  0  0  0  0  0  0  0  0  0
   34.1203   31.0697  -14.1186 H   0  0  0  0  0  0  0  0  0  0  0  0
   33.3990   31.0521  -16.5045 H   0  0  0  0  0  0  0  0  0  0  0  0
   34.9346   30.1775  -18.2636 H   0  0  0  0  0  0  0  0  0  0  0  0
   37.1914   29.3279  -17.6419 H   0  0  0  0  0  0  0  0  0  0  0  0
  1  2  3  0
  2  3  1  0
  3  4  1  0
  4  5  1  0
  4  6  1  0
  6  7  1  0
  6  8  1  0
  8  9  1  0
  9 10  2  0
 10 11  1  0
 11 12  2  0
 12 13  1  0
 13 14  2  0
 14  9  1  0
  1 15  1  0
  3 16  1  0
  3 17  1  0
  4 18  1  1
  5 19  1  0
  5 20  1  0
  5 21  1  0
  6 22  1  1
  7 23  1  0
  7 24  1  0
  7 25  1  0
  8 26  1  0
  8 27  1  0
 10 28  1  0
 11 29  1  0
 12 30  1  0
 13 31  1  0
 14 32  1  0
M  CHG  1   4   1
M  END
>  <meeko>  (8) 
{"is_sidechain": [false], "free_energy": -7.018, "intermolecular_energy": -8.904, "internal_energy": -0.122}

$$$$
selegiline_out
     RDKit          3D

 32 32  0  0  0  0  0  0  0  0999 V2000
   32.8250   33.0110  -17.8160 C   0  0  0  0  0  0  0  0  0  0  0  0
   33.2960   32.1470  -17.1270 C   0  0  0  0  0  0  0  0  0  0  0  0
   33.8710   31.0820  -16.2870 C   0  0  0  0  0  0  0  0  0  0  0  0
   34.9590   31.5900  -15.4350 N   0  0  1  0  0  0  0  0  0  0  0  0
   34.7410   31.2320  -14.0310 C   0  0  0  0  0  0  0  0  0  0  0  0
   36.2950   31.1980  -15.9560 C   0  0  2  0  0  0  0  0  0  0  0  0
   37.0040   32.2990  -16.7630 C   0  0  0  0  0  0  0  0  0  0  0  0
   36.1930   29.8790  -16.7700 C   0  0  0  0  0  0  0  0  0  0  0  0
   37.2270   28.8430  -16.3830 C   0  0  0  0  0  0  0  0  0  0  0  0
   37.7520   28.8080  -15.0850 C   0  0  0  0  0  0  0  0  0  0  0  0
   38.6980   27.8450  -14.7310 C   0  0  0  0  0  0  0  0  0  0  0  0
   39.1280   26.9090  -15.6690 C   0  0  0  0  0  0  0  0  0  0  0  0
   38.6140   26.9370  -16.9640 C   0  0  0  0  0  0  0  0  0  0  0  0
   37.6680   27.8990  -17.3210 C   0  0  0  0  0  0  0  0  0  0  0  0
   32.3937   33.8022  -18.4469 H   0  0  0  0  0  0  0  0  0  0  0  0
   33.0796   30.6672  -15.6455 H   0  0  0  0  0  0  0  0  0  0  0  0
   34.2863   30.3084  -16.9496 H   0  0  0  0  0  0  0  0  0  0  0  0
   34.9460   32.6090  -15.4700 H   0  0  0  0  0  0  0  0  0  0  0  0
   35.2033   31.9912  -13.3830 H   0  0  0  0  0  0  0  0  0  0  0  0
   33.6609   31.1851  -13.8280 H   0  0  0  0  0  0  0  0  0  0  0  0
   35.1951   30.2509  -13.8280 H   0  0  0  0  0  0  0  0  0  0  0  0
   36.9311   31.0334  -15.0738 H   0  0  0  0  0  0  0  0  0  0  0  0
   37.4676   33.0189  -16.0725 H   0  0  0  0  0  0  0  0  0  0  0  0
   37.7808   31.8465  -17.3968 H   0  0  0  0  0  0  0  0  0  0  0  0
   36.2706   32.8190  -17.3968 H   0  0  0  0  0  0  0  0  0  0  0  0
   35.1934   29.4486  -16.6099 H   0  0  0  0  0  0  0  0  0  0  0  0
   36.3753   30.1368  -17.8237 H   0  0  0  0  0  0  0  0  0  0  0  0
   37.4165   29.5443  -14.3398 H   0  0  0  0  0  0  0  0  0  0  0  0
   39.1050   27.8250  -13.7092 H   0  0  0  0  0  0  0  0  0  0  0  0
   39.8720   26.1491  -15.3879 H   0  0  0  0  0  0  0  0  0  0  0  0
   38.9544   26.1997  -17.7060 H   0  0  0  0  0  0  0  0  0  0  0  0
   37.2659   27.9166  -18.3447 H   0  0  0  0  0  0  0  0  0  0  0  0
  1  2  3  0
  2  3  1  0
  3  4  1  0
  4  5  1  0
  4  6  1  0
  6  7  1  0
  6  8  1  0
  8  9  1  0
  9 10  2  0
 10 11  1  0
 11 12  2  0
 12 13  1  0
 13 14  2  0
 14  9  1  0
  1 15  1  0
  3 16  1  0
  3 17  1  0
  4 18  1  1
  5 19  1  0
  5 20  1  0
  5 21  1  0
  6 22  1  1
  7 23  1  0
  7 24  1  0
  7 25  1  0
  8 26  1  0
  8 27  1  0
 10 28  1  0
 11 29  1  0
 12 30  1  0
 13 31  1  0
 14 32  1  0
M  CHG  1   4   1
M  END
>  <meeko>  (9) 
{"is_sidechain": [false], "free_energy": -6.985, "intermolecular_energy": -8.43, "internal_energy": -0.554}

$$$$
