VP7_out
     RDKit          3D

 45 48  0  0  0  0  0  0  0  0999 V2000
   46.7320   24.5680  -12.5780 C   0  0  0  0  0  0  0  0  0  0  0  0
   45.6600   24.3370  -13.6410 C   0  0  0  0  0  0  0  0  0  0  0  0
   45.2380   22.8700  -13.6740 C   0  0  0  0  0  0  0  0  0  0  0  0
   46.2190   24.6550  -14.9160 O   0  0  0  0  0  0  0  0  0  0  0  0
   44.4960   25.2050  -13.3980 C   0  0  0  0  0  0  0  0  0  0  0  0
   43.5520   25.9200  -13.1980 C   0  0  0  0  0  0  0  0  0  0  0  0
   42.4230   26.7670  -12.9630 C   0  0  0  0  0  0  0  0  0  0  0  0
   42.3450   27.5080  -11.7860 C   0  0  0  0  0  0  0  0  0  0  0  0
   41.2490   28.3380  -11.5330 C   0  0  0  0  0  0  0  0  0  0  0  0
   40.2400   28.3960  -12.5030 C   0  0  0  0  0  0  0  0  0  0  0  0
   39.0720   29.1100  -12.5100 N   0  0  0  0  0  0  0  0  0  0  0  0
   38.3440   28.8740  -13.6550 C   0  0  0  0  0  0  0  0  0  0  0  0
   39.0800   27.9910  -14.4420 C   0  0  0  0  0  0  0  0  0  0  0  0
   40.2820   27.6800  -13.6950 C   0  0  0  0  0  0  0  0  0  0  0  0
   41.4030   26.8440  -13.9190 C   0  0  0  0  0  0  0  0  0  0  0  0
   38.7040   27.4810  -15.7690 C   0  0  0  0  0  0  0  0  0  0  0  0
   39.3810   26.3670  -16.1360 N   0  0  0  0  0  0  0  0  0  0  0  0
   39.0810   25.8040  -17.3030 C   0  0  0  0  0  0  0  0  0  0  0  0
   39.7920   24.6800  -17.6710 N   0  0  0  0  0  0  0  0  0  0  0  0
   38.1820   26.2730  -18.1620 N   0  0  0  0  0  0  0  0  0  0  0  0
   37.5300   27.3850  -17.7810 C   0  0  0  0  0  0  0  0  0  0  0  0
   37.7500   28.0560  -16.5900 C   0  0  0  0  0  0  0  0  0  0  0  0
   36.9760   29.3010  -16.2890 C   0  0  0  0  0  0  0  0  0  0  0  0
   36.1990   29.1500  -15.0010 C   0  0  0  0  0  0  0  0  0  0  0  0
   37.0190   29.5480  -13.7860 C   0  0  0  0  0  0  0  0  0  0  0  0
   46.2837   24.4714  -11.5781 H   0  0  0  0  0  0  0  0  0  0  0  0
   47.5314   23.8215  -12.6951 H   0  0  0  0  0  0  0  0  0  0  0  0
   47.1530   25.5775  -12.6951 H   0  0  0  0  0  0  0  0  0  0  0  0
   45.1305   22.4962  -12.6451 H   0  0  0  0  0  0  0  0  0  0  0  0
   44.2766   22.7768  -14.2003 H   0  0  0  0  0  0  0  0  0  0  0  0
   46.0029   22.2802  -14.2003 H   0  0  0  0  0  0  0  0  0  0  0  0
   46.3990   23.8350  -15.4030 H   0  0  0  0  0  0  0  0  0  0  0  0
   43.1562   27.4391  -11.0462 H   0  0  0  0  0  0  0  0  0  0  0  0
   41.1813   28.9248  -10.6051 H   0  0  0  0  0  0  0  0  0  0  0  0
   38.7870   29.7150  -11.7870 H   0  0  0  0  0  0  0  0  0  0  0  0
   41.4724   26.2545  -14.8451 H   0  0  0  0  0  0  0  0  0  0  0  0
   39.7160   24.3270  -18.5870 H   0  0  0  0  0  0  0  0  0  0  0  0
   40.3750   24.2320  -17.0170 H   0  0  0  0  0  0  0  0  0  0  0  0
   36.7683   27.7903  -18.4632 H   0  0  0  0  0  0  0  0  0  0  0  0
   37.6742   30.1455  -16.1924 H   0  0  0  0  0  0  0  0  0  0  0  0
   36.2670   29.4833  -17.1100 H   0  0  0  0  0  0  0  0  0  0  0  0
   35.3049   29.7890  -15.0497 H   0  0  0  0  0  0  0  0  0  0  0  0
   35.9279   28.0895  -14.8926 H   0  0  0  0  0  0  0  0  0  0  0  0
   37.1943   30.6328  -13.8363 H   0  0  0  0  0  0  0  0  0  0  0  0
   36.4326   29.2331  -12.9102 H   0  0  0  0  0  0  0  0  0  0  0  0
  1  2  1  0
  2  3  1  0
  2  4  1  0
  2  5  1  0
  5  6  3  0
  6  7  1  0
  7  8  2  0
  8  9  1  0
  9 10  2  0
 10 11  1  0
 11 12  1  0
 12 13  2  0
 13 14  1  0
 14 15  2  0
 13 16  1  0
 16 17  2  0
 17 18  1  0
 18 19  1  0
 18 20  2  0
 20 21  1  0
 21 22  2  0
 22 23  1  0
 23 24  1  0
 24 25  1  0
 15  7  1  0
 22 16  1  0
 14 10  1  0
 25 12  1  0
  1 26  1  0
  1 27  1  0
  1 28  1  0
  3 29  1  0
  3 30  1  0
  3 31  1  0
  4 32  1  0
  8 33  1  0
  9 34  1  0
 11 35  1  0
 15 36  1  0
 19 37  1  0
 19 38  1  0
 21 39  1  0
 23 40  1  0
 23 41  1  0
 24 42  1  0
 24 43  1  0
 25 44  1  0
 25 45  1  0
M  END
>  <meeko>  (1) 
{"is_sidechain": [false], "free_energy": 10.435, "intermolecular_energy": 14.096, "internal_energy": 0.783}

$$$$
VP7_out
     RDKit          3D

 45 48  0  0  0  0  0  0  0  0999 V2000
   47.4190   25.9670  -12.3380 C   0  0  0  0  0  0  0  0  0  0  0  0
   46.6570   24.6810  -12.6500 C   0  0  0  0  0  0  0  0  0  0  0  0
   46.2970   23.9410  -11.3640 C   0  0  0  0  0  0  0  0  0  0  0  0
   47.5120   23.8290  -13.4130 O   0  0  0  0  0  0  0  0  0  0  0  0
   45.4480   24.9730  -13.4360 C   0  0  0  0  0  0  0  0  0  0  0  0
   44.4650   25.2180  -14.0820 C   0  0  0  0  0  0  0  0  0  0  0  0
   43.2940   25.5150  -14.8490 C   0  0  0  0  0  0  0  0  0  0  0  0
   43.2050   25.0900  -16.1720 C   0  0  0  0  0  0  0  0  0  0  0  0
   42.0730   25.3740  -16.9420 C   0  0  0  0  0  0  0  0  0  0  0  0
   41.0390   26.0970  -16.3330 C   0  0  0  0  0  0  0  0  0  0  0  0
   39.8400   26.5120  -16.8490 N   0  0  0  0  0  0  0  0  0  0  0  0
   39.1090   27.2160  -15.9180 C   0  0  0  0  0  0  0  0  0  0  0  0
   39.8480   27.2370  -14.7370 C   0  0  0  0  0  0  0  0  0  0  0  0
   41.0840   26.5340  -15.0130 C   0  0  0  0  0  0  0  0  0  0  0  0
   42.2460   26.2350  -14.2630 C   0  0  0  0  0  0  0  0  0  0  0  0
   39.4440   27.8550  -13.4640 C   0  0  0  0  0  0  0  0  0  0  0  0
   40.0700   27.3320  -12.3840 N   0  0  0  0  0  0  0  0  0  0  0  0
   39.8040   27.8530  -11.1890 C   0  0  0  0  0  0  0  0  0  0  0  0
   40.4360   27.2970  -10.0960 N   0  0  0  0  0  0  0  0  0  0  0  0
   38.9380   28.8360  -10.9680 N   0  0  0  0  0  0  0  0  0  0  0  0
   38.3210   29.3320  -12.0530 C   0  0  0  0  0  0  0  0  0  0  0  0
   38.5200   28.8780  -13.3460 C   0  0  0  0  0  0  0  0  0  0  0  0
   37.7540   29.4970  -14.4730 C   0  0  0  0  0  0  0  0  0  0  0  0
   36.9720   28.4310  -15.2530 C   0  0  0  0  0  0  0  0  0  0  0  0
   37.7930   27.7740  -16.3480 C   0  0  0  0  0  0  0  0  0  0  0  0
   47.4939   26.0935  -11.2479 H   0  0  0  0  0  0  0  0  0  0  0  0
   48.4287   25.9091  -12.7707 H   0  0  0  0  0  0  0  0  0  0  0  0
   46.8833   26.8248  -12.7707 H   0  0  0  0  0  0  0  0  0  0  0  0
   46.5927   24.5488  -10.4962 H   0  0  0  0  0  0  0  0  0  0  0  0
   45.2118   23.7634  -11.3346 H   0  0  0  0  0  0  0  0  0  0  0  0
   46.8271   22.9776  -11.3346 H   0  0  0  0  0  0  0  0  0  0  0  0
   48.4390   24.0380  -13.2140 H   0  0  0  0  0  0  0  0  0  0  0  0
   44.0361   24.5234  -16.6172 H   0  0  0  0  0  0  0  0  0  0  0  0
   41.9971   25.0418  -17.9879 H   0  0  0  0  0  0  0  0  0  0  0  0
   39.5390   26.3310  -17.7690 H   0  0  0  0  0  0  0  0  0  0  0  0
   42.3261   26.5688  -13.2179 H   0  0  0  0  0  0  0  0  0  0  0  0
   40.2700   27.6590   -9.1950 H   0  0  0  0  0  0  0  0  0  0  0  0
   41.0530   26.5400  -10.2170 H   0  0  0  0  0  0  0  0  0  0  0  0
   37.6079   30.1563  -11.9041 H   0  0  0  0  0  0  0  0  0  0  0  0
   37.0481   30.2359  -14.0659 H   0  0  0  0  0  0  0  0  0  0  0  0
   38.4654   29.9825  -15.1572 H   0  0  0  0  0  0  0  0  0  0  0  0
   36.6416   27.6535  -14.5485 H   0  0  0  0  0  0  0  0  0  0  0  0
   36.1226   28.9352  -15.7370 H   0  0  0  0  0  0  0  0  0  0  0  0
   37.1977   26.9510  -16.7703 H   0  0  0  0  0  0  0  0  0  0  0  0
   38.0245   28.5703  -17.0707 H   0  0  0  0  0  0  0  0  0  0  0  0
  1  2  1  0
  2  3  1  0
  2  4  1  0
  2  5  1  0
  5  6  3  0
  6  7  1  0
  7  8  2  0
  8  9  1  0
  9 10  2  0
 10 11  1  0
 11 12  1  0
 12 13  2  0
 13 14  1  0
 14 15  2  0
 13 16  1  0
 16 17  2  0
 17 18  1  0
 18 19  1  0
 18 20  2  0
 20 21  1  0
 21 22  2  0
 22 23  1  0
 23 24  1  0
 24 25  1  0
 15  7  1  0
 22 16  1  0
 14 10  1  0
 25 12  1  0
  1 26  1  0
  1 27  1  0
  1 28  1  0
  3 29  1  0
  3 30  1  0
  3 31  1  0
  4 32  1  0
  8 33  1  0
  9 34  1  0
 11 35  1  0
 15 36  1  0
 19 37  1  0
 19 38  1  0
 21 39  1  0
 23 40  1  0
 23 41  1  0
 24 42  1  0
 24 43  1  0
 25 44  1  0
 25 45  1  0
M  END
>  <meeko>  (2) 
{"is_sidechain": [false], "free_energy": 12.88, "intermolecular_energy": 17.489, "internal_energy": 0.692}

$$$$
