cand_024_out
     RDKit          3D

 47 49  0  0  0  0  0  0  0  0999 V2000
   54.1620  152.2460   23.8850 C   0  0  0  0  0  0  0  0  0  0  0  0
   54.4470  151.5930   25.1660 N   0  0  0  0  0  0  0  0  0  0  0  0
   53.7440  150.3080   25.2240 C   0  0  0  0  0  0  0  0  0  0  0  0
   54.0470  152.4350   26.3110 C   0  0  0  0  0  0  0  0  0  0  0  0
   52.5580  152.8260   26.2850 C   0  0  0  0  0  0  0  0  0  0  0  0
   52.2980  154.1100   27.0520 C   0  0  0  0  0  0  0  0  0  0  0  0
   51.6560  154.0200   28.2980 C   0  0  0  0  0  0  0  0  0  0  0  0
   51.3770  155.1640   29.0480 C   0  0  0  0  0  0  0  0  0  0  0  0
   51.7370  156.4320   28.5790 C   0  0  0  0  0  0  0  0  0  0  0  0
   51.4170  157.6320   29.3810 C   0  0  0  0  0  0  0  0  0  0  0  0
   50.0960  157.6610   29.8090 O   0  0  0  0  0  0  0  0  0  0  0  0
   49.6680  158.7220   30.5660 C   0  0  0  0  0  0  0  0  0  0  0  0
   48.3300  158.7180   30.9630 C   0  0  0  0  0  0  0  0  0  0  0  0
   47.8300  159.7670   31.7360 C   0  0  0  0  0  0  0  0  0  0  0  0
   48.6660  160.8200   32.1120 C   0  0  0  0  0  0  0  0  0  0  0  0
   50.0010  160.8220   31.7160 C   0  0  0  0  0  0  0  0  0  0  0  0
   50.7640  161.8830   32.1190 O   0  0  0  0  0  0  0  0  0  0  0  0
   50.5010  159.7720   30.9410 C   0  0  0  0  0  0  0  0  0  0  0  0
   51.8970  159.7350   30.5030 C   0  0  0  0  0  0  0  0  0  0  0  0
   52.6970  160.6200   30.7990 O   0  0  0  0  0  0  0  0  0  0  0  0
   52.3250  158.5800   29.6790 C   0  0  0  0  0  0  0  0  0  0  0  0
   53.6490  158.5460   29.2800 O   0  0  0  0  0  0  0  0  0  0  0  0
   52.3650  156.5250   27.3290 C   0  0  0  0  0  0  0  0  0  0  0  0
   52.6540  155.3820   26.5520 C   0  0  0  0  0  0  0  0  0  0  0  0
   53.3540  155.5620   25.2230 C   0  0  0  0  0  0  0  0  0  0  0  0
   54.6520  155.1400   25.2240 F   0  0  0  0  0  0  0  0  0  0  0  0
   52.7470  154.8780   24.2130 F   0  0  0  0  0  0  0  0  0  0  0  0
   53.3990  156.8630   24.8190 F   0  0  0  0  0  0  0  0  0  0  0  0
   53.7282  153.2400   24.0687 H   0  0  0  0  0  0  0  0  0  0  0  0
   55.0951  152.3533   23.3125 H   0  0  0  0  0  0  0  0  0  0  0  0
   53.4488  151.6347   23.3125 H   0  0  0  0  0  0  0  0  0  0  0  0
   55.4540  151.4430   25.2290 H   0  0  0  0  0  0  0  0  0  0  0  0
   53.5879  150.0226   26.2748 H   0  0  0  0  0  0  0  0  0  0  0  0
   52.7704  150.3996   24.7204 H   0  0  0  0  0  0  0  0  0  0  0  0
   54.3462  149.5375   24.7204 H   0  0  0  0  0  0  0  0  0  0  0  0
   54.2467  151.8802   27.2396 H   0  0  0  0  0  0  0  0  0  0  0  0
   54.6306  153.3656   26.2522 H   0  0  0  0  0  0  0  0  0  0  0  0
   52.2450  152.9662   25.2398 H   0  0  0  0  0  0  0  0  0  0  0  0
   51.9846  152.0193   26.7650 H   0  0  0  0  0  0  0  0  0  0  0  0
   51.3686  153.0328   28.6890 H   0  0  0  0  0  0  0  0  0  0  0  0
   50.8684  155.0673   30.0186 H   0  0  0  0  0  0  0  0  0  0  0  0
   47.6703  157.8891   30.6670 H   0  0  0  0  0  0  0  0  0  0  0  0
   46.7756  159.7641   32.0495 H   0  0  0  0  0  0  0  0  0  0  0  0
   48.2707  161.6469   32.7202 H   0  0  0  0  0  0  0  0  0  0  0  0
   50.3570  162.6310   32.5090 H   0  0  0  0  0  0  0  0  0  0  0  0
   53.9300  157.9170   28.6450 H   0  0  0  0  0  0  0  0  0  0  0  0
   52.6406  157.5172   26.9423 H   0  0  0  0  0  0  0  0  0  0  0  0
  1  2  1  0
  2  3  1  0
  2  4  1  0
  4  5  1  0
  5  6  1  0
  6  7  2  0
  7  8  1  0
  8  9  2  0
  9 10  1  0
 10 11  1  0
 11 12  1  0
 12 13  2  0
 13 14  1  0
 14 15  2  0
 15 16  1  0
 16 17  1  0
 16 18  2  0
 18 19  1  0
 19 20  2  0
 19 21  1  0
 21 22  1  0
  9 23  1  0
 23 24  2  0
 24 25  1  0
 25 26  1  0
 25 27  1  0
 25 28  1  0
 24  6  1  0
 21 10  2  0
 18 12  1  0
  1 29  1  0
  1 30  1  0
  1 31  1  0
  2 32  1  0
  3 33  1  0
  3 34  1  0
  3 35  1  0
  4 36  1  0
  4 37  1  0
  5 38  1  0
  5 39  1  0
  7 40  1  0
  8 41  1  0
 13 42  1  0
 14 43  1  0
 15 44  1  0
 17 45  1  0
 22 46  1  0
 23 47  1  0
M  CHG  1   2   1
M  END
>  <meeko>  (1) 
{"is_sidechain": [false], "free_energy": -10.53, "intermolecular_energy": -14.223, "internal_energy": -0.124}

$$$$
cand_024_out
     RDKit          3D

 47 49  0  0  0  0  0  0  0  0999 V2000
   49.0430  161.2620   34.1950 C   0  0  0  0  0  0  0  0  0  0  0  0
   49.8540  161.8490   33.1250 N   0  0  0  0  0  0  0  0  0  0  0  0
   48.9710  162.4270   32.1060 C   0  0  0  0  0  0  0  0  0  0  0  0
   50.7480  160.8510   32.5050 C   0  0  0  0  0  0  0  0  0  0  0  0
   50.8150  160.9670   30.9710 C   0  0  0  0  0  0  0  0  0  0  0  0
   51.0710  159.6230   30.3130 C   0  0  0  0  0  0  0  0  0  0  0  0
   52.3760  159.3360   29.8780 C   0  0  0  0  0  0  0  0  0  0  0  0
   52.6750  158.1230   29.2550 C   0  0  0  0  0  0  0  0  0  0  0  0
   51.6820  157.1580   29.0540 C   0  0  0  0  0  0  0  0  0  0  0  0
   52.0170  155.8870   28.3770 C   0  0  0  0  0  0  0  0  0  0  0  0
   52.5110  156.0720   27.0920 O   0  0  0  0  0  0  0  0  0  0  0  0
   52.8630  154.9710   26.3530 C   0  0  0  0  0  0  0  0  0  0  0  0
   53.3410  155.2010   25.0620 C   0  0  0  0  0  0  0  0  0  0  0  0
   53.7190  154.1250   24.2570 C   0  0  0  0  0  0  0  0  0  0  0  0
   53.6170  152.8190   24.7410 C   0  0  0  0  0  0  0  0  0  0  0  0
   53.1410  152.5920   26.0300 C   0  0  0  0  0  0  0  0  0  0  0  0
   53.0680  151.2890   26.4410 O   0  0  0  0  0  0  0  0  0  0  0  0
   52.7620  153.6690   26.8350 C   0  0  0  0  0  0  0  0  0  0  0  0
   52.2560  153.4750   28.1950 C   0  0  0  0  0  0  0  0  0  0  0  0
   52.1450  152.3580   28.6940 O   0  0  0  0  0  0  0  0  0  0  0  0
   51.8760  154.6830   28.9620 C   0  0  0  0  0  0  0  0  0  0  0  0
   51.4110  154.4910   30.2510 O   0  0  0  0  0  0  0  0  0  0  0  0
   50.3770  157.4490   29.4760 C   0  0  0  0  0  0  0  0  0  0  0  0
   50.0510  158.6700   30.1040 C   0  0  0  0  0  0  0  0  0  0  0  0
   48.6240  158.9020   30.5510 C   0  0  0  0  0  0  0  0  0  0  0  0
   48.1480  160.1440   30.2470 F   0  0  0  0  0  0  0  0  0  0  0  0
   47.7480  158.0250   29.9860 F   0  0  0  0  0  0  0  0  0  0  0  0
   48.4630  158.7750   31.8990 F   0  0  0  0  0  0  0  0  0  0  0  0
   49.4535  161.5591   35.1713 H   0  0  0  0  0  0  0  0  0  0  0  0
   48.0067  161.6207   34.1085 H   0  0  0  0  0  0  0  0  0  0  0  0
   49.0599  160.1655   34.1085 H   0  0  0  0  0  0  0  0  0  0  0  0
   50.4400  162.5770   33.5330 H   0  0  0  0  0  0  0  0  0  0  0  0
   48.1476  162.9660   32.5974 H   0  0  0  0  0  0  0  0  0  0  0  0
   49.5436  163.1257   31.4783 H   0  0  0  0  0  0  0  0  0  0  0  0
   48.5598  161.6227   31.4783 H   0  0  0  0  0  0  0  0  0  0  0  0
   51.7611  160.9892   32.9107 H   0  0  0  0  0  0  0  0  0  0  0  0
   50.3410  159.8565   32.7403 H   0  0  0  0  0  0  0  0  0  0  0  0
   49.8590  161.3672   30.6024 H   0  0  0  0  0  0  0  0  0  0  0  0
   51.6496  161.6365   30.7156 H   0  0  0  0  0  0  0  0  0  0  0  0
   53.1736  160.0780   30.0306 H   0  0  0  0  0  0  0  0  0  0  0  0
   53.7030  157.9236   28.9183 H   0  0  0  0  0  0  0  0  0  0  0  0
   53.4198  156.2292   24.6792 H   0  0  0  0  0  0  0  0  0  0  0  0
   54.0977  154.3060   23.2402 H   0  0  0  0  0  0  0  0  0  0  0  0
   53.9121  151.9712   24.1053 H   0  0  0  0  0  0  0  0  0  0  0  0
   53.8320  150.8600   26.7740 H   0  0  0  0  0  0  0  0  0  0  0  0
   52.0010  154.2160   30.9250 H   0  0  0  0  0  0  0  0  0  0  0  0
   49.5843  156.7040   29.3128 H   0  0  0  0  0  0  0  0  0  0  0  0
  1  2  1  0
  2  3  1  0
  2  4  1  0
  4  5  1  0
  5  6  1  0
  6  7  2  0
  7  8  1  0
  8  9  2  0
  9 10  1  0
 10 11  1  0
 11 12  1  0
 12 13  2  0
 13 14  1  0
 14 15  2  0
 15 16  1  0
 16 17  1  0
 16 18  2  0
 18 19  1  0
 19 20  2  0
 19 21  1  0
 21 22  1  0
  9 23  1  0
 23 24  2  0
 24 25  1  0
 25 26  1  0
 25 27  1  0
 25 28  1  0
 24  6  1  0
 21 10  2  0
 18 12  1  0
  1 29  1  0
  1 30  1  0
  1 31  1  0
  2 32  1  0
  3 33  1  0
  3 34  1  0
  3 35  1  0
  4 36  1  0
  4 37  1  0
  5 38  1  0
  5 39  1  0
  7 40  1  0
  8 41  1  0
 13 42  1  0
 14 43  1  0
 15 44  1  0
 17 45  1  0
 22 46  1  0
 23 47  1  0
M  CHG  1   2   1
M  END
>  <meeko>  (2) 
{"is_sidechain": [false], "free_energy": -10.132, "intermolecular_energy": -13.309, "internal_energy": -0.501}

$$$$
cand_024_out
     RDKit          3D

 47 49  0  0  0  0  0  0  0  0999 V2000
   54.9700  161.9010   31.5920 C   0  0  0  0  0  0  0  0  0  0  0  0
   53.7400  161.7100   30.8170 N   0  0  0  0  0  0  0  0  0  0  0  0
   53.3620  162.9780   30.1850 C   0  0  0  0  0  0  0  0  0  0  0  0
   52.6320  161.2200   31.6600 C   0  0  0  0  0  0  0  0  0  0  0  0
   51.3810  160.8330   30.8510 C   0  0  0  0  0  0  0  0  0  0  0  0
   51.5300  159.4720   30.1950 C   0  0  0  0  0  0  0  0  0  0  0  0
   52.7910  159.1140   29.6890 C   0  0  0  0  0  0  0  0  0  0  0  0
   52.9920  157.8820   29.0650 C   0  0  0  0  0  0  0  0  0  0  0  0
   51.9430  156.9670   28.9330 C   0  0  0  0  0  0  0  0  0  0  0  0
   52.1730  155.6740   28.2540 C   0  0  0  0  0  0  0  0  0  0  0  0
   52.7460  155.8180   26.9970 O   0  0  0  0  0  0  0  0  0  0  0  0
   53.0150  154.6930   26.2590 C   0  0  0  0  0  0  0  0  0  0  0  0
   53.5770  154.8840   24.9960 C   0  0  0  0  0  0  0  0  0  0  0  0
   53.8770  153.7820   24.1930 C   0  0  0  0  0  0  0  0  0  0  0  0
   53.6140  152.4900   24.6520 C   0  0  0  0  0  0  0  0  0  0  0  0
   53.0540  152.3020   25.9130 C   0  0  0  0  0  0  0  0  0  0  0  0
   52.8230  151.0100   26.3010 O   0  0  0  0  0  0  0  0  0  0  0  0
   52.7530  153.4050   26.7160 C   0  0  0  0  0  0  0  0  0  0  0  0
   52.1630  153.2520   28.0470 C   0  0  0  0  0  0  0  0  0  0  0  0
   51.9100  152.1490   28.5240 O   0  0  0  0  0  0  0  0  0  0  0  0
   51.8760  154.4860   28.8140 C   0  0  0  0  0  0  0  0  0  0  0  0
   51.3310  154.3330   30.0750 O   0  0  0  0  0  0  0  0  0  0  0  0
   50.6800  157.3280   29.4260 C   0  0  0  0  0  0  0  0  0  0  0  0
   50.4530  158.5700   30.0570 C   0  0  0  0  0  0  0  0  0  0  0  0
   49.0670  158.8780   30.5820 C   0  0  0  0  0  0  0  0  0  0  0  0
   48.9900  158.9090   31.9440 F   0  0  0  0  0  0  0  0  0  0  0  0
   48.6030  160.0880   30.1610 F   0  0  0  0  0  0  0  0  0  0  0  0
   48.1360  157.9620   30.1910 F   0  0  0  0  0  0  0  0  0  0  0  0
   54.7359  161.8647   32.6662 H   0  0  0  0  0  0  0  0  0  0  0  0
   55.6862  161.1033   31.3456 H   0  0  0  0  0  0  0  0  0  0  0  0
   55.4106  162.8783   31.3456 H   0  0  0  0  0  0  0  0  0  0  0  0
   53.9210  161.0040   30.1030 H   0  0  0  0  0  0  0  0  0  0  0  0
   53.1398  163.7234   30.9628 H   0  0  0  0  0  0  0  0  0  0  0  0
   54.1920  163.3375   29.5591 H   0  0  0  0  0  0  0  0  0  0  0  0
   52.4706  162.8243   29.5591 H   0  0  0  0  0  0  0  0  0  0  0  0
   52.9785  160.3346   32.2132 H   0  0  0  0  0  0  0  0  0  0  0  0
   52.3452  162.0412   32.3333 H   0  0  0  0  0  0  0  0  0  0  0  0
   50.5136  160.8089   31.5271 H   0  0  0  0  0  0  0  0  0  0  0  0
   51.2437  161.5813   30.0565 H   0  0  0  0  0  0  0  0  0  0  0  0
   53.6326  159.8156   29.7862 H   0  0  0  0  0  0  0  0  0  0  0  0
   53.9876  157.6277   28.6723 H   0  0  0  0  0  0  0  0  0  0  0  0
   53.7834  155.9018   24.6335 H   0  0  0  0  0  0  0  0  0  0  0  0
   54.3210  153.9319   23.1978 H   0  0  0  0  0  0  0  0  0  0  0  0
   53.8488  151.6219   24.0185 H   0  0  0  0  0  0  0  0  0  0  0  0
   52.0500  150.7980   26.7850 H   0  0  0  0  0  0  0  0  0  0  0  0
   51.5880  154.9080   30.7700 H   0  0  0  0  0  0  0  0  0  0  0  0
   49.8427  156.6229   29.3177 H   0  0  0  0  0  0  0  0  0  0  0  0
  1  2  1  0
  2  3  1  0
  2  4  1  0
  4  5  1  0
  5  6  1  0
  6  7  2  0
  7  8  1  0
  8  9  2  0
  9 10  1  0
 10 11  1  0
 11 12  1  0
 12 13  2  0
 13 14  1  0
 14 15  2  0
 15 16  1  0
 16 17  1  0
 16 18  2  0
 18 19  1  0
 19 20  2  0
 19 21  1  0
 21 22  1  0
  9 23  1  0
 23 24  2  0
 24 25  1  0
 25 26  1  0
 25 27  1  0
 25 28  1  0
 24  6  1  0
 21 10  2  0
 18 12  1  0
  1 29  1  0
  1 30  1  0
  1 31  1  0
  2 32  1  0
  3 33  1  0
  3 34  1  0
  3 35  1  0
  4 36  1  0
  4 37  1  0
  5 38  1  0
  5 39  1  0
  7 40  1  0
  8 41  1  0
 13 42  1  0
 14 43  1  0
 15 44  1  0
 17 45  1  0
 22 46  1  0
 23 47  1  0
M  CHG  1   2   1
M  END
>  <meeko>  (3) 
{"is_sidechain": [false], "free_energy": -9.973, "intermolecular_energy": -13.443, "internal_energy": -0.153}

$$$$
cand_024_out
     RDKit          3D

 47 49  0  0  0  0  0  0  0  0999 V2000
   53.7690  149.7890   25.1160 C   0  0  0  0  0  0  0  0  0  0  0  0
   53.3560  151.1580   24.7940 N   0  0  0  0  0  0  0  0  0  0  0  0
   54.5080  151.9060   24.2820 C   0  0  0  0  0  0  0  0  0  0  0  0
   52.7920  151.8500   25.9690 C   0  0  0  0  0  0  0  0  0  0  0  0
   53.8100  152.7570   26.6850 C   0  0  0  0  0  0  0  0  0  0  0  0
   53.1390  153.9440   27.3530 C   0  0  0  0  0  0  0  0  0  0  0  0
   52.6220  153.7700   28.6480 C   0  0  0  0  0  0  0  0  0  0  0  0
   51.9830  154.8190   29.3130 C   0  0  0  0  0  0  0  0  0  0  0  0
   51.8470  156.0730   28.7080 C   0  0  0  0  0  0  0  0  0  0  0  0
   51.1520  157.1640   29.4230 C   0  0  0  0  0  0  0  0  0  0  0  0
   51.9830  158.2400   29.7080 O   0  0  0  0  0  0  0  0  0  0  0  0
   51.4610  159.3240   30.3680 C   0  0  0  0  0  0  0  0  0  0  0  0
   52.3340  160.3760   30.6460 C   0  0  0  0  0  0  0  0  0  0  0  0
   51.8680  161.5100   31.3150 C   0  0  0  0  0  0  0  0  0  0  0  0
   50.5300  161.5910   31.7050 C   0  0  0  0  0  0  0  0  0  0  0  0
   49.6600  160.5400   31.4260 C   0  0  0  0  0  0  0  0  0  0  0  0
   48.3630  160.6850   31.8350 O   0  0  0  0  0  0  0  0  0  0  0  0
   50.1280  159.4050   30.7580 C   0  0  0  0  0  0  0  0  0  0  0  0
   49.2480  158.2780   30.4450 C   0  0  0  0  0  0  0  0  0  0  0  0
   48.0570  158.2770   30.7480 O   0  0  0  0  0  0  0  0  0  0  0  0
   49.8440  157.1200   29.7400 C   0  0  0  0  0  0  0  0  0  0  0  0
   49.0030  156.0650   29.4360 O   0  0  0  0  0  0  0  0  0  0  0  0
   52.3500  156.2430   27.4100 C   0  0  0  0  0  0  0  0  0  0  0  0
   52.9970  155.1960   26.7180 C   0  0  0  0  0  0  0  0  0  0  0  0
   53.5330  155.4630   25.3280 C   0  0  0  0  0  0  0  0  0  0  0  0
   52.8880  154.7680   24.3470 F   0  0  0  0  0  0  0  0  0  0  0  0
   53.4370  156.7750   24.9710 F   0  0  0  0  0  0  0  0  0  0  0  0
   54.8490  155.1340   25.1950 F   0  0  0  0  0  0  0  0  0  0  0  0
   53.8065  149.6647   26.2083 H   0  0  0  0  0  0  0  0  0  0  0  0
   53.0453  149.0781   24.6907 H   0  0  0  0  0  0  0  0  0  0  0  0
   54.7651  149.5969   24.6907 H   0  0  0  0  0  0  0  0  0  0  0  0
   52.6260  151.1110   24.0830 H   0  0  0  0  0  0  0  0  0  0  0  0
   55.1000  152.2904   25.1257 H   0  0  0  0  0  0  0  0  0  0  0  0
   55.1334  151.2412   23.6680 H   0  0  0  0  0  0  0  0  0  0  0  0
   54.1551  152.7478   23.6680 H   0  0  0  0  0  0  0  0  0  0  0  0
   51.9451  152.4687   25.6373 H   0  0  0  0  0  0  0  0  0  0  0  0
   52.4820  151.0761   26.6867 H   0  0  0  0  0  0  0  0  0  0  0  0
   54.3344  152.1673   27.4513 H   0  0  0  0  0  0  0  0  0  0  0  0
   54.5126  153.1422   25.9314 H   0  0  0  0  0  0  0  0  0  0  0  0
   52.7219  152.7938   29.1451 H   0  0  0  0  0  0  0  0  0  0  0  0
   51.5820  154.6572   30.3244 H   0  0  0  0  0  0  0  0  0  0  0  0
   53.3883  160.3125   30.3386 H   0  0  0  0  0  0  0  0  0  0  0  0
   52.5557  162.3399   31.5348 H   0  0  0  0  0  0  0  0  0  0  0  0
   50.1633  162.4841   32.2321 H   0  0  0  0  0  0  0  0  0  0  0  0
   47.6920  160.8680   31.2080 H   0  0  0  0  0  0  0  0  0  0  0  0
   48.3760  156.1500   28.7440 H   0  0  0  0  0  0  0  0  0  0  0  0
   52.2373  157.2198   26.9169 H   0  0  0  0  0  0  0  0  0  0  0  0
  1  2  1  0
  2  3  1  0
  2  4  1  0
  4  5  1  0
  5  6  1  0
  6  7  2  0
  7  8  1  0
  8  9  2  0
  9 10  1  0
 10 11  1  0
 11 12  1  0
 12 13  2  0
 13 14  1  0
 14 15  2  0
 15 16  1  0
 16 17  1  0
 16 18  2  0
 18 19  1  0
 19 20  2  0
 19 21  1  0
 21 22  1  0
  9 23  1  0
 23 24  2  0
 24 25  1  0
 25 26  1  0
 25 27  1  0
 25 28  1  0
 24  6  1  0
 21 10  2  0
 18 12  1  0
  1 29  1  0
  1 30  1  0
  1 31  1  0
  2 32  1  0
  3 33  1  0
  3 34  1  0
  3 35  1  0
  4 36  1  0
  4 37  1  0
  5 38  1  0
  5 39  1  0
  7 40  1  0
  8 41  1  0
 13 42  1  0
 14 43  1  0
 15 44  1  0
 17 45  1  0
 22 46  1  0
 23 47  1  0
M  CHG  1   2   1
M  END
>  <meeko>  (4) 
{"is_sidechain": [false], "free_energy": -9.719, "intermolecular_energy": -12.512, "internal_energy": -0.74}

$$$$
cand_024_out
     RDKit          3D

 47 49  0  0  0  0  0  0  0  0999 V2000
   53.9670  152.2980   24.0580 C   0  0  0  0  0  0  0  0  0  0  0  0
   53.8480  153.7380   23.8100 N   0  0  0  0  0  0  0  0  0  0  0  0
   55.1820  154.3470   23.8340 C   0  0  0  0  0  0  0  0  0  0  0  0
   52.9790  154.3950   24.8040 C   0  0  0  0  0  0  0  0  0  0  0  0
   53.4430  154.1750   26.2560 C   0  0  0  0  0  0  0  0  0  0  0  0
   52.8770  155.2230   27.1960 C   0  0  0  0  0  0  0  0  0  0  0  0
   52.9840  156.5740   26.8240 C   0  0  0  0  0  0  0  0  0  0  0  0
   52.4930  157.5880   27.6500 C   0  0  0  0  0  0  0  0  0  0  0  0
   51.8750  157.2830   28.8670 C   0  0  0  0  0  0  0  0  0  0  0  0
   51.3780  158.3720   29.7340 C   0  0  0  0  0  0  0  0  0  0  0  0
   50.0440  158.2160   30.0890 O   0  0  0  0  0  0  0  0  0  0  0  0
   49.4580  159.1580   30.8960 C   0  0  0  0  0  0  0  0  0  0  0  0
   48.1130  158.9700   31.2160 C   0  0  0  0  0  0  0  0  0  0  0  0
   47.4560  159.8920   32.0330 C   0  0  0  0  0  0  0  0  0  0  0  0
   48.1430  161.0010   32.5300 C   0  0  0  0  0  0  0  0  0  0  0  0
   49.4850  161.1860   32.2100 C   0  0  0  0  0  0  0  0  0  0  0  0
   50.0980  162.2940   32.7300 O   0  0  0  0  0  0  0  0  0  0  0  0
   50.1420  160.2650   31.3900 C   0  0  0  0  0  0  0  0  0  0  0  0
   51.5520  160.4220   31.0290 C   0  0  0  0  0  0  0  0  0  0  0  0
   52.2260  161.3670   31.4320 O   0  0  0  0  0  0  0  0  0  0  0  0
   52.1520  159.3920   30.1500 C   0  0  0  0  0  0  0  0  0  0  0  0
   53.4880  159.5410   29.8240 O   0  0  0  0  0  0  0  0  0  0  0  0
   51.7800  155.9360   29.2460 C   0  0  0  0  0  0  0  0  0  0  0  0
   52.2720  154.8950   28.4290 C   0  0  0  0  0  0  0  0  0  0  0  0
   52.1130  153.4640   28.8960 C   0  0  0  0  0  0  0  0  0  0  0  0
   51.3820  152.6870   28.0460 F   0  0  0  0  0  0  0  0  0  0  0  0
   53.3060  152.8240   29.0440 F   0  0  0  0  0  0  0  0  0  0  0  0
   51.4840  153.3680   30.1020 F   0  0  0  0  0  0  0  0  0  0  0  0
   53.9823  152.1127   25.1422 H   0  0  0  0  0  0  0  0  0  0  0  0
   53.1089  151.7765   23.6090 H   0  0  0  0  0  0  0  0  0  0  0  0
   54.8991  151.9244   23.6090 H   0  0  0  0  0  0  0  0  0  0  0  0
   53.4220  153.8680   22.8920 H   0  0  0  0  0  0  0  0  0  0  0  0
   55.5001  154.4922   24.8770 H   0  0  0  0  0  0  0  0  0  0  0  0
   55.8962  153.6857   23.3215 H   0  0  0  0  0  0  0  0  0  0  0  0
   55.1502  155.3198   23.3215 H   0  0  0  0  0  0  0  0  0  0  0  0
   52.9697  155.4759   24.6000 H   0  0  0  0  0  0  0  0  0  0  0  0
   51.9785  153.9478   24.7095 H   0  0  0  0  0  0  0  0  0  0  0  0
   53.1094  153.1812   26.5892 H   0  0  0  0  0  0  0  0  0  0  0  0
   54.5400  154.2535   26.2789 H   0  0  0  0  0  0  0  0  0  0  0  0
   53.4613  156.8369   25.8685 H   0  0  0  0  0  0  0  0  0  0  0  0
   52.5936  158.6385   27.3396 H   0  0  0  0  0  0  0  0  0  0  0  0
   47.5709  158.0964   30.8250 H   0  0  0  0  0  0  0  0  0  0  0  0
   46.3956  159.7444   32.2854 H   0  0  0  0  0  0  0  0  0  0  0  0
   47.6248  161.7273   33.1733 H   0  0  0  0  0  0  0  0  0  0  0  0
   50.9970  162.2530   32.9890 H   0  0  0  0  0  0  0  0  0  0  0  0
   53.7670  159.4410   28.9350 H   0  0  0  0  0  0  0  0  0  0  0  0
   51.3087  155.6834   30.2073 H   0  0  0  0  0  0  0  0  0  0  0  0
  1  2  1  0
  2  3  1  0
  2  4  1  0
  4  5  1  0
  5  6  1  0
  6  7  2  0
  7  8  1  0
  8  9  2  0
  9 10  1  0
 10 11  1  0
 11 12  1  0
 12 13  2  0
 13 14  1  0
 14 15  2  0
 15 16  1  0
 16 17  1  0
 16 18  2  0
 18 19  1  0
 19 20  2  0
 19 21  1  0
 21 22  1  0
  9 23  1  0
 23 24  2  0
 24 25  1  0
 25 26  1  0
 25 27  1  0
 25 28  1  0
 24  6  1  0
 21 10  2  0
 18 12  1  0
  1 29  1  0
  1 30  1  0
  1 31  1  0
  2 32  1  0
  3 33  1  0
  3 34  1  0
  3 35  1  0
  4 36  1  0
  4 37  1  0
  5 38  1  0
  5 39  1  0
  7 40  1  0
  8 41  1  0
 13 42  1  0
 14 43  1  0
 15 44  1  0
 17 45  1  0
 22 46  1  0
 23 47  1  0
M  CHG  1   2   1
M  END
>  <meeko>  (5) 
{"is_sidechain": [false], "free_energy": -9.619, "intermolecular_energy": -12.607, "internal_energy": -0.51}

$$$$
cand_024_out
     RDKit          3D

 47 49  0  0  0  0  0  0  0  0999 V2000
   48.0950  161.7720   34.3940 C   0  0  0  0  0  0  0  0  0  0  0  0
   49.3860  161.3400   33.8520 N   0  0  0  0  0  0  0  0  0  0  0  0
   49.9490  162.4110   33.0230 C   0  0  0  0  0  0  0  0  0  0  0  0
   49.2600  160.1040   33.0560 C   0  0  0  0  0  0  0  0  0  0  0  0
   49.1750  160.3650   31.5400 C   0  0  0  0  0  0  0  0  0  0  0  0
   49.9310  159.3170   30.7430 C   0  0  0  0  0  0  0  0  0  0  0  0
   49.2620  158.1270   30.4110 C   0  0  0  0  0  0  0  0  0  0  0  0
   49.9050  157.1190   29.6890 C   0  0  0  0  0  0  0  0  0  0  0  0
   51.2310  157.2720   29.2710 C   0  0  0  0  0  0  0  0  0  0  0  0
   51.8980  156.1850   28.5230 C   0  0  0  0  0  0  0  0  0  0  0  0
   52.4500  156.6140   27.3230 O   0  0  0  0  0  0  0  0  0  0  0  0
   53.1020  155.7040   26.5300 C   0  0  0  0  0  0  0  0  0  0  0  0
   53.6300  156.1750   25.3270 C   0  0  0  0  0  0  0  0  0  0  0  0
   54.3060  155.3000   24.4740 C   0  0  0  0  0  0  0  0  0  0  0  0
   54.4540  153.9570   24.8230 C   0  0  0  0  0  0  0  0  0  0  0  0
   53.9280  153.4900   26.0240 C   0  0  0  0  0  0  0  0  0  0  0  0
   54.1100  152.1630   26.3050 O   0  0  0  0  0  0  0  0  0  0  0  0
   53.2500  154.3640   26.8770 C   0  0  0  0  0  0  0  0  0  0  0  0
   52.6810  153.9140   28.1490 C   0  0  0  0  0  0  0  0  0  0  0  0
   52.7760  152.7500   28.5290 O   0  0  0  0  0  0  0  0  0  0  0  0
   51.9760  154.9200   28.9760 C   0  0  0  0  0  0  0  0  0  0  0  0
   51.4520  154.4900   30.1820 O   0  0  0  0  0  0  0  0  0  0  0  0
   51.9040  158.4530   29.6140 C   0  0  0  0  0  0  0  0  0  0  0  0
   51.2760  159.4840   30.3460 C   0  0  0  0  0  0  0  0  0  0  0  0
   52.0610  160.7390   30.6590 C   0  0  0  0  0  0  0  0  0  0  0  0
   51.4710  161.8830   30.2070 F   0  0  0  0  0  0  0  0  0  0  0  0
   52.2450  160.9240   31.9960 F   0  0  0  0  0  0  0  0  0  0  0  0
   53.3080  160.7360   30.1070 F   0  0  0  0  0  0  0  0  0  0  0  0
   48.1357  161.7584   35.4932 H   0  0  0  0  0  0  0  0  0  0  0  0
   47.8751  162.7927   34.0479 H   0  0  0  0  0  0  0  0  0  0  0  0
   47.3050  161.0893   34.0479 H   0  0  0  0  0  0  0  0  0  0  0  0
   50.0100  161.1410   34.6350 H   0  0  0  0  0  0  0  0  0  0  0  0
   50.3625  163.1976   33.6713 H   0  0  0  0  0  0  0  0  0  0  0  0
   50.7484  162.0014   32.3880 H   0  0  0  0  0  0  0  0  0  0  0  0
   49.1584  162.8372   32.3880 H   0  0  0  0  0  0  0  0  0  0  0  0
   50.1372  159.4702   33.2531 H   0  0  0  0  0  0  0  0  0  0  0  0
   48.3215  159.6154   33.3569 H   0  0  0  0  0  0  0  0  0  0  0  0
   48.1182  160.3501   31.2351 H   0  0  0  0  0  0  0  0  0  0  0  0
   49.6322  161.3445   31.3360 H   0  0  0  0  0  0  0  0  0  0  0  0
   48.2168  157.9872   30.7242 H   0  0  0  0  0  0  0  0  0  0  0  0
   49.3621  156.1937   29.4462 H   0  0  0  0  0  0  0  0  0  0  0  0
   53.5139  157.2335   25.0512 H   0  0  0  0  0  0  0  0  0  0  0  0
   54.7225  155.6700   23.5255 H   0  0  0  0  0  0  0  0  0  0  0  0
   54.9856  153.2684   24.1498 H   0  0  0  0  0  0  0  0  0  0  0  0
   54.4760  151.9040   27.1270 H   0  0  0  0  0  0  0  0  0  0  0  0
   50.7610  154.9740   30.5920 H   0  0  0  0  0  0  0  0  0  0  0  0
   52.9517  158.5800   29.3038 H   0  0  0  0  0  0  0  0  0  0  0  0
  1  2  1  0
  2  3  1  0
  2  4  1  0
  4  5  1  0
  5  6  1  0
  6  7  2  0
  7  8  1  0
  8  9  2  0
  9 10  1  0
 10 11  1  0
 11 12  1  0
 12 13  2  0
 13 14  1  0
 14 15  2  0
 15 16  1  0
 16 17  1  0
 16 18  2  0
 18 19  1  0
 19 20  2  0
 19 21  1  0
 21 22  1  0
  9 23  1  0
 23 24  2  0
 24 25  1  0
 25 26  1  0
 25 27  1  0
 25 28  1  0
 24  6  1  0
 21 10  2  0
 18 12  1  0
  1 29  1  0
  1 30  1  0
  1 31  1  0
  2 32  1  0
  3 33  1  0
  3 34  1  0
  3 35  1  0
  4 36  1  0
  4 37  1  0
  5 38  1  0
  5 39  1  0
  7 40  1  0
  8 41  1  0
 13 42  1  0
 14 43  1  0
 15 44  1  0
 17 45  1  0
 22 46  1  0
 23 47  1  0
M  CHG  1   2   1
M  END
>  <meeko>  (6) 
{"is_sidechain": [false], "free_energy": -9.549, "intermolecular_energy": -12.625, "internal_energy": -0.398}

$$$$
cand_024_out
     RDKit          3D

 47 49  0  0  0  0  0  0  0  0999 V2000
   54.0040  151.9690   24.3410 C   0  0  0  0  0  0  0  0  0  0  0  0
   53.7590  153.3360   23.8720 N   0  0  0  0  0  0  0  0  0  0  0  0
   55.0400  153.9900   23.5860 C   0  0  0  0  0  0  0  0  0  0  0  0
   53.0030  154.1270   24.8630 C   0  0  0  0  0  0  0  0  0  0  0  0
   53.7900  154.3850   26.1600 C   0  0  0  0  0  0  0  0  0  0  0  0
   53.0210  155.2760   27.1200 C   0  0  0  0  0  0  0  0  0  0  0  0
   53.0330  156.6620   26.8910 C   0  0  0  0  0  0  0  0  0  0  0  0
   52.3550  157.5370   27.7430 C   0  0  0  0  0  0  0  0  0  0  0  0
   51.6410  157.0530   28.8450 C   0  0  0  0  0  0  0  0  0  0  0  0
   50.9450  157.9980   29.7440 C   0  0  0  0  0  0  0  0  0  0  0  0
   51.7360  159.0790   30.1110 O   0  0  0  0  0  0  0  0  0  0  0  0
   51.2090  160.0340   30.9420 C   0  0  0  0  0  0  0  0  0  0  0  0
   52.0430  161.0950   31.2970 C   0  0  0  0  0  0  0  0  0  0  0  0
   51.5690  162.1020   32.1400 C   0  0  0  0  0  0  0  0  0  0  0  0
   50.2620  162.0470   32.6290 C   0  0  0  0  0  0  0  0  0  0  0  0
   49.4320  160.9880   32.2730 C   0  0  0  0  0  0  0  0  0  0  0  0
   48.1640  160.9970   32.7870 O   0  0  0  0  0  0  0  0  0  0  0  0
   49.9070  159.9800   31.4310 C   0  0  0  0  0  0  0  0  0  0  0  0
   49.0670  158.8490   31.0330 C   0  0  0  0  0  0  0  0  0  0  0  0
   47.9060  158.7340   31.4150 O   0  0  0  0  0  0  0  0  0  0  0  0
   49.6700  157.8310   30.1410 C   0  0  0  0  0  0  0  0  0  0  0  0
   48.8660  156.7720   29.7590 O   0  0  0  0  0  0  0  0  0  0  0  0
   51.6410  155.6710   29.0820 C   0  0  0  0  0  0  0  0  0  0  0  0
   52.3210  154.7690   28.2360 C   0  0  0  0  0  0  0  0  0  0  0  0
   52.2560  153.2890   28.5450 C   0  0  0  0  0  0  0  0  0  0  0  0
   51.6860  152.5450   27.5540 F   0  0  0  0  0  0  0  0  0  0  0  0
   53.4860  152.7410   28.7550 F   0  0  0  0  0  0  0  0  0  0  0  0
   51.5270  153.0130   29.6650 F   0  0  0  0  0  0  0  0  0  0  0  0
   54.0067  151.9537   25.4409 H   0  0  0  0  0  0  0  0  0  0  0  0
   53.2105  151.3053   23.9670 H   0  0  0  0  0  0  0  0  0  0  0  0
   54.9786  151.6222   23.9670 H   0  0  0  0  0  0  0  0  0  0  0  0
   53.1950  153.2840   23.0230 H   0  0  0  0  0  0  0  0  0  0  0  0
   55.5404  154.2455   24.5317 H   0  0  0  0  0  0  0  0  0  0  0  0
   55.6786  153.3076   23.0059 H   0  0  0  0  0  0  0  0  0  0  0  0
   54.8618  154.9075   23.0059 H   0  0  0  0  0  0  0  0  0  0  0  0
   52.7440  155.0965   24.4125 H   0  0  0  0  0  0  0  0  0  0  0  0
   52.1094  153.5451   25.1330 H   0  0  0  0  0  0  0  0  0  0  0  0
   53.9909  153.4218   26.6519 H   0  0  0  0  0  0  0  0  0  0  0  0
   54.7267  154.8972   25.8948 H   0  0  0  0  0  0  0  0  0  0  0  0
   53.5843  157.0640   26.0282 H   0  0  0  0  0  0  0  0  0  0  0  0
   52.3826  158.6188   27.5455 H   0  0  0  0  0  0  0  0  0  0  0  0
   53.0729  161.1379   30.9130 H   0  0  0  0  0  0  0  0  0  0  0  0
   52.2255  162.9393   32.4192 H   0  0  0  0  0  0  0  0  0  0  0  0
   49.8891  162.8395   33.2945 H   0  0  0  0  0  0  0  0  0  0  0  0
   48.0140  160.7210   33.6700 H   0  0  0  0  0  0  0  0  0  0  0  0
   49.1100  156.2400   29.0270 H   0  0  0  0  0  0  0  0  0  0  0  0
   51.0951  155.2785   29.9526 H   0  0  0  0  0  0  0  0  0  0  0  0
  1  2  1  0
  2  3  1  0
  2  4  1  0
  4  5  1  0
  5  6  1  0
  6  7  2  0
  7  8  1  0
  8  9  2  0
  9 10  1  0
 10 11  1  0
 11 12  1  0
 12 13  2  0
 13 14  1  0
 14 15  2  0
 15 16  1  0
 16 17  1  0
 16 18  2  0
 18 19  1  0
 19 20  2  0
 19 21  1  0
 21 22  1  0
  9 23  1  0
 23 24  2  0
 24 25  1  0
 25 26  1  0
 25 27  1  0
 25 28  1  0
 24  6  1  0
 21 10  2  0
 18 12  1  0
  1 29  1  0
  1 30  1  0
  1 31  1  0
  2 32  1  0
  3 33  1  0
  3 34  1  0
  3 35  1  0
  4 36  1  0
  4 37  1  0
  5 38  1  0
  5 39  1  0
  7 40  1  0
  8 41  1  0
 13 42  1  0
 14 43  1  0
 15 44  1  0
 17 45  1  0
 22 46  1  0
 23 47  1  0
M  CHG  1   2   1
M  END
>  <meeko>  (7) 
{"is_sidechain": [false], "free_energy": -8.764, "intermolecular_energy": -11.47, "internal_energy": -0.492}

$$$$
cand_024_out
     RDKit          3D

 47 49  0  0  0  0  0  0  0  0999 V2000
   48.2530  161.3880   30.5890 C   0  0  0  0  0  0  0  0  0  0  0  0
   47.8470  160.1860   31.3220 N   0  0  0  0  0  0  0  0  0  0  0  0
   48.5580  160.1340   32.6040 C   0  0  0  0  0  0  0  0  0  0  0  0
   48.1150  158.9570   30.5500 C   0  0  0  0  0  0  0  0  0  0  0  0
   49.1710  158.0480   31.2050 C   0  0  0  0  0  0  0  0  0  0  0  0
   50.0260  157.3370   30.1710 C   0  0  0  0  0  0  0  0  0  0  0  0
   49.6310  156.0550   29.7520 C   0  0  0  0  0  0  0  0  0  0  0  0
   50.3800  155.3440   28.8120 C   0  0  0  0  0  0  0  0  0  0  0  0
   51.5400  155.8940   28.2580 C   0  0  0  0  0  0  0  0  0  0  0  0
   52.3270  155.1170   27.2770 C   0  0  0  0  0  0  0  0  0  0  0  0
   52.0420  153.7580   27.3080 O   0  0  0  0  0  0  0  0  0  0  0  0
   52.7030  152.9220   26.4440 C   0  0  0  0  0  0  0  0  0  0  0  0
   52.3970  151.5630   26.5200 C   0  0  0  0  0  0  0  0  0  0  0  0
   53.0330  150.6570   25.6680 C   0  0  0  0  0  0  0  0  0  0  0  0
   53.9750  151.1100   24.7430 C   0  0  0  0  0  0  0  0  0  0  0  0
   54.2780  152.4670   24.6690 C   0  0  0  0  0  0  0  0  0  0  0  0
   55.2090  152.8420   23.7400 O   0  0  0  0  0  0  0  0  0  0  0  0
   53.6430  153.3730   25.5220 C   0  0  0  0  0  0  0  0  0  0  0  0
   53.9330  154.8070   25.4780 C   0  0  0  0  0  0  0  0  0  0  0  0
   54.7430  155.2830   24.6870 O   0  0  0  0  0  0  0  0  0  0  0  0
   53.2090  155.6810   26.4300 C   0  0  0  0  0  0  0  0  0  0  0  0
   53.4790  157.0360   26.3720 O   0  0  0  0  0  0  0  0  0  0  0  0
   51.9420  157.1680   28.6850 C   0  0  0  0  0  0  0  0  0  0  0  0
   51.2030  157.9040   29.6360 C   0  0  0  0  0  0  0  0  0  0  0  0
   51.6900  159.2810   30.0310 C   0  0  0  0  0  0  0  0  0  0  0  0
   51.5420  159.5560   31.3590 F   0  0  0  0  0  0  0  0  0  0  0  0
   53.0120  159.4680   29.7630 F   0  0  0  0  0  0  0  0  0  0  0  0
   51.0310  160.2820   29.3810 F   0  0  0  0  0  0  0  0  0  0  0  0
   48.5206  162.1803   31.3036 H   0  0  0  0  0  0  0  0  0  0  0  0
   49.1225  161.1556   29.9566 H   0  0  0  0  0  0  0  0  0  0  0  0
   47.4207  161.7304   29.9566 H   0  0  0  0  0  0  0  0  0  0  0  0
   46.8400  160.2360   31.4830 H   0  0  0  0  0  0  0  0  0  0  0  0
   47.8318  160.1871   33.4285 H   0  0  0  0  0  0  0  0  0  0  0  0
   49.1222  159.1922   32.6724 H   0  0  0  0  0  0  0  0  0  0  0  0
   49.2532  160.9837   32.6724 H   0  0  0  0  0  0  0  0  0  0  0  0
   47.1763  158.3912   30.4563 H   0  0  0  0  0  0  0  0  0  0  0  0
   48.5108  159.2654   29.5711 H   0  0  0  0  0  0  0  0  0  0  0  0
   49.8226  158.6627   31.8434 H   0  0  0  0  0  0  0  0  0  0  0  0
   48.6441  157.2839   31.7953 H   0  0  0  0  0  0  0  0  0  0  0  0
   48.7186  155.6051   30.1706 H   0  0  0  0  0  0  0  0  0  0  0  0
   50.0537  154.3397   28.5039 H   0  0  0  0  0  0  0  0  0  0  0  0
   51.6558  151.2054   27.2499 H   0  0  0  0  0  0  0  0  0  0  0  0
   52.7912  149.5855   25.7261 H   0  0  0  0  0  0  0  0  0  0  0  0
   54.4772  150.3961   24.0736 H   0  0  0  0  0  0  0  0  0  0  0  0
   55.5330  153.7220   23.7300 H   0  0  0  0  0  0  0  0  0  0  0  0
   53.8260  157.4120   25.5870 H   0  0  0  0  0  0  0  0  0  0  0  0
   52.8600  157.6064   28.2666 H   0  0  0  0  0  0  0  0  0  0  0  0
  1  2  1  0
  2  3  1  0
  2  4  1  0
  4  5  1  0
  5  6  1  0
  6  7  2  0
  7  8  1  0
  8  9  2  0
  9 10  1  0
 10 11  1  0
 11 12  1  0
 12 13  2  0
 13 14  1  0
 14 15  2  0
 15 16  1  0
 16 17  1  0
 16 18  2  0
 18 19  1  0
 19 20  2  0
 19 21  1  0
 21 22  1  0
  9 23  1  0
 23 24  2  0
 24 25  1  0
 25 26  1  0
 25 27  1  0
 25 28  1  0
 24  6  1  0
 21 10  2  0
 18 12  1  0
  1 29  1  0
  1 30  1  0
  1 31  1  0
  2 32  1  0
  3 33  1  0
  3 34  1  0
  3 35  1  0
  4 36  1  0
  4 37  1  0
  5 38  1  0
  5 39  1  0
  7 40  1  0
  8 41  1  0
 13 42  1  0
 14 43  1  0
 15 44  1  0
 17 45  1  0
 22 46  1  0
 23 47  1  0
M  CHG  1   2   1
M  END
>  <meeko>  (8) 
{"is_sidechain": [false], "free_energy": -8.728, "intermolecular_energy": -11.736, "internal_energy": -0.179}

$$$$
