cand_014_out
     RDKit          3D

 35 37  0  0  0  0  0  0  0  0999 V2000
   50.0590  161.2240   31.5900 C   0  0  0  0  0  0  0  0  0  0  0  0
   50.5010  159.9740   30.8780 C   0  0  0  0  0  0  0  0  0  0  0  0
   51.7960  159.9180   30.3430 C   0  0  0  0  0  0  0  0  0  0  0  0
   52.2430  158.7810   29.6650 C   0  0  0  0  0  0  0  0  0  0  0  0
   51.4090  157.6690   29.5050 C   0  0  0  0  0  0  0  0  0  0  0  0
   51.8950  156.4840   28.7690 C   0  0  0  0  0  0  0  0  0  0  0  0
   52.4970  156.8060   27.5590 O   0  0  0  0  0  0  0  0  0  0  0  0
   52.9890  155.7940   26.7750 C   0  0  0  0  0  0  0  0  0  0  0  0
   53.5700  156.1590   25.5600 C   0  0  0  0  0  0  0  0  0  0  0  0
   54.0930  155.1780   24.7150 C   0  0  0  0  0  0  0  0  0  0  0  0
   54.0360  153.8330   25.0850 C   0  0  0  0  0  0  0  0  0  0  0  0
   53.4560  153.4710   26.2970 C   0  0  0  0  0  0  0  0  0  0  0  0
   53.4340  152.1370   26.5980 O   0  0  0  0  0  0  0  0  0  0  0  0
   52.9320  154.4520   27.1420 C   0  0  0  0  0  0  0  0  0  0  0  0
   52.3140  154.1150   28.4250 C   0  0  0  0  0  0  0  0  0  0  0  0
   52.2330  152.9550   28.8250 O   0  0  0  0  0  0  0  0  0  0  0  0
   51.7810  155.2290   29.2430 C   0  0  0  0  0  0  0  0  0  0  0  0
   51.2110  154.9020   30.4590 O   0  0  0  0  0  0  0  0  0  0  0  0
   50.1070  157.7340   30.0210 C   0  0  0  0  0  0  0  0  0  0  0  0
   49.6350  158.8740   30.7010 C   0  0  0  0  0  0  0  0  0  0  0  0
   48.2290  158.8670   31.2560 C   0  0  0  0  0  0  0  0  0  0  0  0
   47.4310  159.8380   30.7260 F   0  0  0  0  0  0  0  0  0  0  0  0
   48.1820  159.0600   32.6040 F   0  0  0  0  0  0  0  0  0  0  0  0
   50.1149  161.0660   32.6772 H   0  0  0  0  0  0  0  0  0  0  0  0
   50.7163  162.0593   31.3066 H   0  0  0  0  0  0  0  0  0  0  0  0
   49.0228  161.4604   31.3066 H   0  0  0  0  0  0  0  0  0  0  0  0
   52.4688  160.7805   30.4586 H   0  0  0  0  0  0  0  0  0  0  0  0
   53.2624  158.7599   29.2522 H   0  0  0  0  0  0  0  0  0  0  0  0
   53.6160  157.2186   25.2681 H   0  0  0  0  0  0  0  0  0  0  0  0
   54.5504  155.4653   23.7567 H   0  0  0  0  0  0  0  0  0  0  0  0
   54.4489  153.0606   24.4195 H   0  0  0  0  0  0  0  0  0  0  0  0
   54.0270  151.5500   26.1690 H   0  0  0  0  0  0  0  0  0  0  0  0
   51.6520  154.3150   31.0420 H   0  0  0  0  0  0  0  0  0  0  0  0
   49.4361  156.8719   29.8915 H   0  0  0  0  0  0  0  0  0  0  0  0
   47.8663  157.8650   30.9832 H   0  0  0  0  0  0  0  0  0  0  0  0
  1  2  1  0
  2  3  2  0
  3  4  1  0
  4  5  2  0
  5  6  1  0
  6  7  1  0
  7  8  1  0
  8  9  2  0
  9 10  1  0
 10 11  2  0
 11 12  1  0
 12 13  1  0
 12 14  2  0
 14 15  1  0
 15 16  2  0
 15 17  1  0
 17 18  1  0
  5 19  1  0
 19 20  2  0
 20 21  1  0
 21 22  1  0
 21 23  1  0
 20  2  1  0
 17  6  2  0
 14  8  1  0
  1 24  1  0
  1 25  1  0
  1 26  1  0
  3 27  1  0
  4 28  1  0
  9 29  1  0
 10 30  1  0
 11 31  1  0
 13 32  1  0
 18 33  1  0
 19 34  1  0
 21 35  1  0
M  END
>  <meeko>  (1) 
{"is_sidechain": [false], "free_energy": -10.866, "intermolecular_energy": -12.771, "internal_energy": -0.115}

$$$$
cand_014_out
     RDKit          3D

 35 37  0  0  0  0  0  0  0  0999 V2000
   49.1290  160.7570   31.7490 C   0  0  0  0  0  0  0  0  0  0  0  0
   49.8340  159.6810   30.9690 C   0  0  0  0  0  0  0  0  0  0  0  0
   49.1510  158.4900   30.6820 C   0  0  0  0  0  0  0  0  0  0  0  0
   49.7710  157.4610   29.9700 C   0  0  0  0  0  0  0  0  0  0  0  0
   51.0900  157.5940   29.5250 C   0  0  0  0  0  0  0  0  0  0  0  0
   51.7340  156.4860   28.7890 C   0  0  0  0  0  0  0  0  0  0  0  0
   52.3030  156.8920   27.5880 O   0  0  0  0  0  0  0  0  0  0  0  0
   52.9320  155.9570   26.8050 C   0  0  0  0  0  0  0  0  0  0  0  0
   53.4740  156.4020   25.5990 C   0  0  0  0  0  0  0  0  0  0  0  0
   54.1300  155.5030   24.7560 C   0  0  0  0  0  0  0  0  0  0  0  0
   54.2450  154.1590   25.1180 C   0  0  0  0  0  0  0  0  0  0  0  0
   53.7030  153.7180   26.3220 C   0  0  0  0  0  0  0  0  0  0  0  0
   53.8510  152.3900   26.6160 O   0  0  0  0  0  0  0  0  0  0  0  0
   53.0460  154.6170   27.1650 C   0  0  0  0  0  0  0  0  0  0  0  0
   52.4620  154.1940   28.4390 C   0  0  0  0  0  0  0  0  0  0  0  0
   52.5280  153.0310   28.8320 O   0  0  0  0  0  0  0  0  0  0  0  0
   51.7790  155.2240   29.2560 C   0  0  0  0  0  0  0  0  0  0  0  0
   51.2430  154.8180   30.4630 O   0  0  0  0  0  0  0  0  0  0  0  0
   51.7810  158.7750   29.8310 C   0  0  0  0  0  0  0  0  0  0  0  0
   51.1750  159.8210   30.5540 C   0  0  0  0  0  0  0  0  0  0  0  0
   51.9680  161.0790   30.8270 C   0  0  0  0  0  0  0  0  0  0  0  0
   53.1490  161.1350   30.1460 F   0  0  0  0  0  0  0  0  0  0  0  0
   52.3030  161.2290   32.1390 F   0  0  0  0  0  0  0  0  0  0  0  0
   49.2519  160.5695   32.8259 H   0  0  0  0  0  0  0  0  0  0  0  0
   49.5611  161.7364   31.4957 H   0  0  0  0  0  0  0  0  0  0  0  0
   48.0586  160.7519   31.4957 H   0  0  0  0  0  0  0  0  0  0  0  0
   48.1125  158.3648   31.0225 H   0  0  0  0  0  0  0  0  0  0  0  0
   49.2157  156.5357   29.7569 H   0  0  0  0  0  0  0  0  0  0  0  0
   53.3846  157.4603   25.3125 H   0  0  0  0  0  0  0  0  0  0  0  0
   54.5571  155.8539   23.8050 H   0  0  0  0  0  0  0  0  0  0  0  0
   54.7623  153.4511   24.4537 H   0  0  0  0  0  0  0  0  0  0  0  0
   53.0970  151.8640   26.8000 H   0  0  0  0  0  0  0  0  0  0  0  0
   51.0780  155.4470   31.1380 H   0  0  0  0  0  0  0  0  0  0  0  0
   52.8233  158.8876   29.4979 H   0  0  0  0  0  0  0  0  0  0  0  0
   51.2830  161.8736   30.4963 H   0  0  0  0  0  0  0  0  0  0  0  0
  1  2  1  0
  2  3  2  0
  3  4  1  0
  4  5  2  0
  5  6  1  0
  6  7  1  0
  7  8  1  0
  8  9  2  0
  9 10  1  0
 10 11  2  0
 11 12  1  0
 12 13  1  0
 12 14  2  0
 14 15  1  0
 15 16  2  0
 15 17  1  0
 17 18  1  0
  5 19  1  0
 19 20  2  0
 20 21  1  0
 21 22  1  0
 21 23  1  0
 20  2  1  0
 17  6  2  0
 14  8  1  0
  1 24  1  0
  1 25  1  0
  1 26  1  0
  3 27  1  0
  4 28  1  0
  9 29  1  0
 10 30  1  0
 11 31  1  0
 13 32  1  0
 18 33  1  0
 19 34  1  0
 21 35  1  0
M  END
>  <meeko>  (2) 
{"is_sidechain": [false], "free_energy": -10.622, "intermolecular_energy": -12.329, "internal_energy": -0.27}

$$$$
cand_014_out
     RDKit          3D

 35 37  0  0  0  0  0  0  0  0999 V2000
   52.8780  152.4820   26.7790 C   0  0  0  0  0  0  0  0  0  0  0  0
   52.5430  153.7950   27.4340 C   0  0  0  0  0  0  0  0  0  0  0  0
   51.8930  153.7890   28.6770 C   0  0  0  0  0  0  0  0  0  0  0  0
   51.5540  154.9840   29.3140 C   0  0  0  0  0  0  0  0  0  0  0  0
   51.8560  156.2180   28.7290 C   0  0  0  0  0  0  0  0  0  0  0  0
   51.4720  157.4710   29.4120 C   0  0  0  0  0  0  0  0  0  0  0  0
   50.1520  157.4700   29.8440 O   0  0  0  0  0  0  0  0  0  0  0  0
   49.6670  158.5780   30.4920 C   0  0  0  0  0  0  0  0  0  0  0  0
   48.3320  158.5430   30.8950 C   0  0  0  0  0  0  0  0  0  0  0  0
   47.7770  159.6370   31.5620 C   0  0  0  0  0  0  0  0  0  0  0  0
   48.5560  160.7650   31.8260 C   0  0  0  0  0  0  0  0  0  0  0  0
   49.8880  160.7970   31.4240 C   0  0  0  0  0  0  0  0  0  0  0  0
   50.5940  161.9320   31.7160 O   0  0  0  0  0  0  0  0  0  0  0  0
   50.4430  159.7030   30.7560 C   0  0  0  0  0  0  0  0  0  0  0  0
   51.8390  159.6970   30.3160 C   0  0  0  0  0  0  0  0  0  0  0  0
   52.5920  160.6470   30.5190 O   0  0  0  0  0  0  0  0  0  0  0  0
   52.3290  158.4910   29.6080 C   0  0  0  0  0  0  0  0  0  0  0  0
   53.6520  158.4880   29.2080 O   0  0  0  0  0  0  0  0  0  0  0  0
   52.4850  156.2240   27.4760 C   0  0  0  0  0  0  0  0  0  0  0  0
   52.8290  155.0290   26.8140 C   0  0  0  0  0  0  0  0  0  0  0  0
   53.5300  155.1080   25.4770 C   0  0  0  0  0  0  0  0  0  0  0  0
   53.9210  156.3710   25.1420 F   0  0  0  0  0  0  0  0  0  0  0  0
   52.7560  154.6850   24.4380 F   0  0  0  0  0  0  0  0  0  0  0  0
   53.0712  151.7248   27.5532 H   0  0  0  0  0  0  0  0  0  0  0  0
   52.0336  152.1587   26.1526 H   0  0  0  0  0  0  0  0  0  0  0  0
   53.7741  152.6028   26.1526 H   0  0  0  0  0  0  0  0  0  0  0  0
   51.6471  152.8299   29.1562 H   0  0  0  0  0  0  0  0  0  0  0  0
   51.0432  154.9548   30.2878 H   0  0  0  0  0  0  0  0  0  0  0  0
   47.7173  157.6547   30.6876 H   0  0  0  0  0  0  0  0  0  0  0  0
   46.7243  159.6100   31.8799 H   0  0  0  0  0  0  0  0  0  0  0  0
   48.1179  161.6268   32.3507 H   0  0  0  0  0  0  0  0  0  0  0  0
   51.3560  162.1520   31.2160 H   0  0  0  0  0  0  0  0  0  0  0  0
   53.9260  159.0220   28.4890 H   0  0  0  0  0  0  0  0  0  0  0  0
   52.7160  157.1871   26.9973 H   0  0  0  0  0  0  0  0  0  0  0  0
   54.3998  154.4502   25.6212 H   0  0  0  0  0  0  0  0  0  0  0  0
  1  2  1  0
  2  3  2  0
  3  4  1  0
  4  5  2  0
  5  6  1  0
  6  7  1  0
  7  8  1  0
  8  9  2  0
  9 10  1  0
 10 11  2  0
 11 12  1  0
 12 13  1  0
 12 14  2  0
 14 15  1  0
 15 16  2  0
 15 17  1  0
 17 18  1  0
  5 19  1  0
 19 20  2  0
 20 21  1  0
 21 22  1  0
 21 23  1  0
 20  2  1  0
 17  6  2  0
 14  8  1  0
  1 24  1  0
  1 25  1  0
  1 26  1  0
  3 27  1  0
  4 28  1  0
  9 29  1  0
 10 30  1  0
 11 31  1  0
 13 32  1  0
 18 33  1  0
 19 34  1  0
 21 35  1  0
M  END
>  <meeko>  (3) 
{"is_sidechain": [false], "free_energy": -10.583, "intermolecular_energy": -12.283, "internal_energy": -0.271}

$$$$
cand_014_out
     RDKit          3D

 35 37  0  0  0  0  0  0  0  0999 V2000
   53.4330  152.7370   26.6950 C   0  0  0  0  0  0  0  0  0  0  0  0
   52.8520  153.9370   27.3920 C   0  0  0  0  0  0  0  0  0  0  0  0
   52.1500  153.7520   28.5930 C   0  0  0  0  0  0  0  0  0  0  0  0
   51.5840  154.8370   29.2670 C   0  0  0  0  0  0  0  0  0  0  0  0
   51.7070  156.1360   28.7620 C   0  0  0  0  0  0  0  0  0  0  0  0
   51.0860  157.2680   29.4810 C   0  0  0  0  0  0  0  0  0  0  0  0
   51.9760  158.3050   29.7300 O   0  0  0  0  0  0  0  0  0  0  0  0
   51.5260  159.4170   30.3950 C   0  0  0  0  0  0  0  0  0  0  0  0
   52.4560  160.4280   30.6410 C   0  0  0  0  0  0  0  0  0  0  0  0
   52.0640  161.5880   31.3110 C   0  0  0  0  0  0  0  0  0  0  0  0
   50.7420  161.7380   31.7350 C   0  0  0  0  0  0  0  0  0  0  0  0
   49.8160  160.7290   31.4890 C   0  0  0  0  0  0  0  0  0  0  0  0
   48.5390  160.9410   31.9310 O   0  0  0  0  0  0  0  0  0  0  0  0
   50.2090  159.5680   30.8190 C   0  0  0  0  0  0  0  0  0  0  0  0
   49.2670  158.4820   30.5400 C   0  0  0  0  0  0  0  0  0  0  0  0
   48.0850  158.5420   30.8740 O   0  0  0  0  0  0  0  0  0  0  0  0
   49.7860  157.2890   29.8310 C   0  0  0  0  0  0  0  0  0  0  0  0
   48.8870  156.2750   29.5610 O   0  0  0  0  0  0  0  0  0  0  0  0
   52.3890  156.3180   27.5500 C   0  0  0  0  0  0  0  0  0  0  0  0
   52.9590  155.2350   26.8520 C   0  0  0  0  0  0  0  0  0  0  0  0
   53.7050  155.5050   25.5650 C   0  0  0  0  0  0  0  0  0  0  0  0
   54.1090  156.8010   25.4320 F   0  0  0  0  0  0  0  0  0  0  0  0
   52.9650  155.2440   24.4510 F   0  0  0  0  0  0  0  0  0  0  0  0
   53.7840  152.0121   27.4442 H   0  0  0  0  0  0  0  0  0  0  0  0
   52.6615  152.2694   26.0656 H   0  0  0  0  0  0  0  0  0  0  0  0
   54.2783  153.0522   26.0656 H   0  0  0  0  0  0  0  0  0  0  0  0
   52.0440  152.7393   29.0092 H   0  0  0  0  0  0  0  0  0  0  0  0
   51.0354  154.6681   30.2054 H   0  0  0  0  0  0  0  0  0  0  0  0
   53.4975  160.3107   30.3070 H   0  0  0  0  0  0  0  0  0  0  0  0
   52.7971  162.3848   31.5052 H   0  0  0  0  0  0  0  0  0  0  0  0
   50.4331  162.6524   32.2627 H   0  0  0  0  0  0  0  0  0  0  0  0
   48.3920  161.3080   32.7810 H   0  0  0  0  0  0  0  0  0  0  0  0
   49.0420  155.6900   28.8460 H   0  0  0  0  0  0  0  0  0  0  0  0
   52.4812  157.3321   27.1338 H   0  0  0  0  0  0  0  0  0  0  0  0
   54.5689  154.8282   25.6394 H   0  0  0  0  0  0  0  0  0  0  0  0
  1  2  1  0
  2  3  2  0
  3  4  1  0
  4  5  2  0
  5  6  1  0
  6  7  1  0
  7  8  1  0
  8  9  2  0
  9 10  1  0
 10 11  2  0
 11 12  1  0
 12 13  1  0
 12 14  2  0
 14 15  1  0
 15 16  2  0
 15 17  1  0
 17 18  1  0
  5 19  1  0
 19 20  2  0
 20 21  1  0
 21 22  1  0
 21 23  1  0
 20  2  1  0
 17  6  2  0
 14  8  1  0
  1 24  1  0
  1 25  1  0
  1 26  1  0
  3 27  1  0
  4 28  1  0
  9 29  1  0
 10 30  1  0
 11 31  1  0
 13 32  1  0
 18 33  1  0
 19 34  1  0
 21 35  1  0
M  END
>  <meeko>  (4) 
{"is_sidechain": [false], "free_energy": -9.496, "intermolecular_energy": -10.973, "internal_energy": -0.303}

$$$$
cand_014_out
     RDKit          3D

 35 37  0  0  0  0  0  0  0  0999 V2000
   53.3940  154.0450   26.2410 C   0  0  0  0  0  0  0  0  0  0  0  0
   52.8620  155.1170   27.1540 C   0  0  0  0  0  0  0  0  0  0  0  0
   52.9990  156.4610   26.7780 C   0  0  0  0  0  0  0  0  0  0  0  0
   52.5300  157.4870   27.6010 C   0  0  0  0  0  0  0  0  0  0  0  0
   51.9100  157.1990   28.8210 C   0  0  0  0  0  0  0  0  0  0  0  0
   51.4370  158.3000   29.6850 C   0  0  0  0  0  0  0  0  0  0  0  0
   50.1040  158.1660   30.0530 O   0  0  0  0  0  0  0  0  0  0  0  0
   49.5380  159.1250   30.8540 C   0  0  0  0  0  0  0  0  0  0  0  0
   48.1930  158.9620   31.1870 C   0  0  0  0  0  0  0  0  0  0  0  0
   47.5570  159.9000   32.0010 C   0  0  0  0  0  0  0  0  0  0  0  0
   48.2660  161.0030   32.4840 C   0  0  0  0  0  0  0  0  0  0  0  0
   49.6080  161.1640   32.1510 C   0  0  0  0  0  0  0  0  0  0  0  0
   50.2420  162.2640   32.6590 O   0  0  0  0  0  0  0  0  0  0  0  0
   50.2440  160.2240   31.3360 C   0  0  0  0  0  0  0  0  0  0  0  0
   51.6530  160.3560   30.9630 C   0  0  0  0  0  0  0  0  0  0  0  0
   52.3470  161.2930   31.3540 O   0  0  0  0  0  0  0  0  0  0  0  0
   52.2310  159.3110   30.0860 C   0  0  0  0  0  0  0  0  0  0  0  0
   53.5650  159.4360   29.7500 O   0  0  0  0  0  0  0  0  0  0  0  0
   51.7930  155.8570   29.2080 C   0  0  0  0  0  0  0  0  0  0  0  0
   52.2660  154.8080   28.3950 C   0  0  0  0  0  0  0  0  0  0  0  0
   52.0840  153.3810   28.8610 C   0  0  0  0  0  0  0  0  0  0  0  0
   51.3460  152.6200   28.0030 F   0  0  0  0  0  0  0  0  0  0  0  0
   51.4510  153.2840   30.0630 F   0  0  0  0  0  0  0  0  0  0  0  0
   53.8032  153.2204   26.8431 H   0  0  0  0  0  0  0  0  0  0  0  0
   52.5793  153.6663   25.6063 H   0  0  0  0  0  0  0  0  0  0  0  0
   54.1883  154.4649   25.6063 H   0  0  0  0  0  0  0  0  0  0  0  0
   53.4824  156.7104   25.8219 H   0  0  0  0  0  0  0  0  0  0  0  0
   52.6496  158.5341   27.2860 H   0  0  0  0  0  0  0  0  0  0  0  0
   47.6339  158.0939   30.8078 H   0  0  0  0  0  0  0  0  0  0  0  0
   46.4964  159.7710   32.2628 H   0  0  0  0  0  0  0  0  0  0  0  0
   47.7648  161.7424   33.1259 H   0  0  0  0  0  0  0  0  0  0  0  0
   50.3000  163.0490   32.1490 H   0  0  0  0  0  0  0  0  0  0  0  0
   53.9420  160.2860   29.6340 H   0  0  0  0  0  0  0  0  0  0  0  0
   51.3196  155.6165   30.1714 H   0  0  0  0  0  0  0  0  0  0  0  0
   53.1188  153.0135   28.9250 H   0  0  0  0  0  0  0  0  0  0  0  0
  1  2  1  0
  2  3  2  0
  3  4  1  0
  4  5  2  0
  5  6  1  0
  6  7  1  0
  7  8  1  0
  8  9  2  0
  9 10  1  0
 10 11  2  0
 11 12  1  0
 12 13  1  0
 12 14  2  0
 14 15  1  0
 15 16  2  0
 15 17  1  0
 17 18  1  0
  5 19  1  0
 19 20  2  0
 20 21  1  0
 21 22  1  0
 21 23  1  0
 20  2  1  0
 17  6  2  0
 14  8  1  0
  1 24  1  0
  1 25  1  0
  1 26  1  0
  3 27  1  0
  4 28  1  0
  9 29  1  0
 10 30  1  0
 11 31  1  0
 13 32  1  0
 18 33  1  0
 19 34  1  0
 21 35  1  0
M  END
>  <meeko>  (5) 
{"is_sidechain": [false], "free_energy": -8.897, "intermolecular_energy": -10.375, "internal_energy": -0.197}

$$$$
cand_014_out
     RDKit          3D

 35 37  0  0  0  0  0  0  0  0999 V2000
   49.2110  158.3740   31.2020 C   0  0  0  0  0  0  0  0  0  0  0  0
   50.0220  157.5930   30.2040 C   0  0  0  0  0  0  0  0  0  0  0  0
   49.6090  156.2990   29.8560 C   0  0  0  0  0  0  0  0  0  0  0  0
   50.3390  155.5340   28.9420 C   0  0  0  0  0  0  0  0  0  0  0  0
   51.4990  156.0430   28.3500 C   0  0  0  0  0  0  0  0  0  0  0  0
   52.2660  155.2110   27.3990 C   0  0  0  0  0  0  0  0  0  0  0  0
   51.9390  153.8630   27.4730 O   0  0  0  0  0  0  0  0  0  0  0  0
   52.5830  152.9800   26.6440 C   0  0  0  0  0  0  0  0  0  0  0  0
   52.2390  151.6330   26.7620 C   0  0  0  0  0  0  0  0  0  0  0  0
   52.8540  150.6830   25.9450 C   0  0  0  0  0  0  0  0  0  0  0  0
   53.8140  151.0780   25.0110 C   0  0  0  0  0  0  0  0  0  0  0  0
   54.1560  152.4220   24.8950 C   0  0  0  0  0  0  0  0  0  0  0  0
   55.1020  152.7400   23.9600 O   0  0  0  0  0  0  0  0  0  0  0  0
   53.5410  153.3730   25.7120 C   0  0  0  0  0  0  0  0  0  0  0  0
   53.8710  154.7960   25.6230 C   0  0  0  0  0  0  0  0  0  0  0  0
   54.6990  155.2240   24.8210 O   0  0  0  0  0  0  0  0  0  0  0  0
   53.1680  155.7220   26.5400 C   0  0  0  0  0  0  0  0  0  0  0  0
   53.4770  157.0660   26.4400 O   0  0  0  0  0  0  0  0  0  0  0  0
   51.9250  157.3280   28.7140 C   0  0  0  0  0  0  0  0  0  0  0  0
   51.2070  158.1110   29.6390 C   0  0  0  0  0  0  0  0  0  0  0  0
   51.7070  159.5000   29.9680 C   0  0  0  0  0  0  0  0  0  0  0  0
   51.8780  159.7140   31.3040 F   0  0  0  0  0  0  0  0  0  0  0  0
   50.8650  160.4860   29.5510 F   0  0  0  0  0  0  0  0  0  0  0  0
   49.5089  158.0871   32.2213 H   0  0  0  0  0  0  0  0  0  0  0  0
   49.3886  159.4499   31.0572 H   0  0  0  0  0  0  0  0  0  0  0  0
   48.1426  158.1560   31.0572 H   0  0  0  0  0  0  0  0  0  0  0  0
   48.6980  155.8802   30.3085 H   0  0  0  0  0  0  0  0  0  0  0  0
   49.9972  154.5204   28.6856 H   0  0  0  0  0  0  0  0  0  0  0  0
   51.4839  151.3200   27.4981 H   0  0  0  0  0  0  0  0  0  0  0  0
   52.5819  149.6212   26.0370 H   0  0  0  0  0  0  0  0  0  0  0  0
   54.2989  150.3284   24.3683 H   0  0  0  0  0  0  0  0  0  0  0  0
   55.1680  153.6190   23.6400 H   0  0  0  0  0  0  0  0  0  0  0  0
   52.8740  157.7110   26.7530 H   0  0  0  0  0  0  0  0  0  0  0  0
   52.8433  157.7352   28.2659 H   0  0  0  0  0  0  0  0  0  0  0  0
   52.6686  159.5438   29.4356 H   0  0  0  0  0  0  0  0  0  0  0  0
  1  2  1  0
  2  3  2  0
  3  4  1  0
  4  5  2  0
  5  6  1  0
  6  7  1  0
  7  8  1  0
  8  9  2  0
  9 10  1  0
 10 11  2  0
 11 12  1  0
 12 13  1  0
 12 14  2  0
 14 15  1  0
 15 16  2  0
 15 17  1  0
 17 18  1  0
  5 19  1  0
 19 20  2  0
 20 21  1  0
 21 22  1  0
 21 23  1  0
 20  2  1  0
 17  6  2  0
 14  8  1  0
  1 24  1  0
  1 25  1  0
  1 26  1  0
  3 27  1  0
  4 28  1  0
  9 29  1  0
 10 30  1  0
 11 31  1  0
 13 32  1  0
 18 33  1  0
 19 34  1  0
 21 35  1  0
M  END
>  <meeko>  (6) 
{"is_sidechain": [false], "free_energy": -8.524, "intermolecular_energy": -10.366, "internal_energy": 0.232}

$$$$
cand_014_out
     RDKit          3D

 35 37  0  0  0  0  0  0  0  0999 V2000
   53.8990  153.9830   25.5650 C   0  0  0  0  0  0  0  0  0  0  0  0
   53.1900  154.8780   26.5450 C   0  0  0  0  0  0  0  0  0  0  0  0
   53.3370  156.2680   26.4260 C   0  0  0  0  0  0  0  0  0  0  0  0
   52.7050  157.1350   27.3210 C   0  0  0  0  0  0  0  0  0  0  0  0
   51.9090  156.6370   28.3580 C   0  0  0  0  0  0  0  0  0  0  0  0
   51.2650  157.5700   29.3050 C   0  0  0  0  0  0  0  0  0  0  0  0
   52.0400  158.6920   29.5720 O   0  0  0  0  0  0  0  0  0  0  0  0
   51.5570  159.6370   30.4410 C   0  0  0  0  0  0  0  0  0  0  0  0
   52.3730  160.7400   30.6950 C   0  0  0  0  0  0  0  0  0  0  0  0
   51.9410  161.7410   31.5670 C   0  0  0  0  0  0  0  0  0  0  0  0
   50.6920  161.6400   32.1850 C   0  0  0  0  0  0  0  0  0  0  0  0
   49.8800  160.5400   31.9290 C   0  0  0  0  0  0  0  0  0  0  0  0
   48.6690  160.5050   32.5660 O   0  0  0  0  0  0  0  0  0  0  0  0
   50.3120  159.5380   31.0570 C   0  0  0  0  0  0  0  0  0  0  0  0
   49.4890  158.3650   30.7610 C   0  0  0  0  0  0  0  0  0  0  0  0
   48.3750  158.2070   31.2580 O   0  0  0  0  0  0  0  0  0  0  0  0
   50.0440  157.3550   29.8290 C   0  0  0  0  0  0  0  0  0  0  0  0
   49.2540  156.2570   29.5460 O   0  0  0  0  0  0  0  0  0  0  0  0
   51.7810  155.2470   28.4900 C   0  0  0  0  0  0  0  0  0  0  0  0
   52.4160  154.3560   27.6020 C   0  0  0  0  0  0  0  0  0  0  0  0
   52.2130  152.8690   27.7860 C   0  0  0  0  0  0  0  0  0  0  0  0
   51.5260  152.2840   26.7640 F   0  0  0  0  0  0  0  0  0  0  0  0
   51.5150  152.5580   28.9130 F   0  0  0  0  0  0  0  0  0  0  0  0
   54.4912  153.2355   26.1132 H   0  0  0  0  0  0  0  0  0  0  0  0
   53.1580  153.4719   24.9327 H   0  0  0  0  0  0  0  0  0  0  0  0
   54.5661  154.5873   24.9327 H   0  0  0  0  0  0  0  0  0  0  0  0
   53.9580  156.6808   25.6174 H   0  0  0  0  0  0  0  0  0  0  0  0
   52.8348  158.2215   27.2089 H   0  0  0  0  0  0  0  0  0  0  0  0
   53.3562  160.8208   30.2084 H   0  0  0  0  0  0  0  0  0  0  0  0
   52.5846  162.6102   31.7677 H   0  0  0  0  0  0  0  0  0  0  0  0
   50.3516  162.4285   32.8723 H   0  0  0  0  0  0  0  0  0  0  0  0
   48.4970  159.8440   33.2090 H   0  0  0  0  0  0  0  0  0  0  0  0
   49.5950  155.5540   29.0290 H   0  0  0  0  0  0  0  0  0  0  0  0
   51.1685  154.8412   29.3086 H   0  0  0  0  0  0  0  0  0  0  0  0
   53.2437  152.4882   27.8370 H   0  0  0  0  0  0  0  0  0  0  0  0
  1  2  1  0
  2  3  2  0
  3  4  1  0
  4  5  2  0
  5  6  1  0
  6  7  1  0
  7  8  1  0
  8  9  2  0
  9 10  1  0
 10 11  2  0
 11 12  1  0
 12 13  1  0
 12 14  2  0
 14 15  1  0
 15 16  2  0
 15 17  1  0
 17 18  1  0
  5 19  1  0
 19 20  2  0
 20 21  1  0
 21 22  1  0
 21 23  1  0
 20  2  1  0
 17  6  2  0
 14  8  1  0
  1 24  1  0
  1 25  1  0
  1 26  1  0
  3 27  1  0
  4 28  1  0
  9 29  1  0
 10 30  1  0
 11 31  1  0
 13 32  1  0
 18 33  1  0
 19 34  1  0
 21 35  1  0
M  END
>  <meeko>  (7) 
{"is_sidechain": [false], "free_energy": -8.498, "intermolecular_energy": -10.02, "internal_energy": -0.084}

$$$$
cand_014_out
     RDKit          3D

 35 37  0  0  0  0  0  0  0  0999 V2000
   50.9240  159.4410   30.8370 C   0  0  0  0  0  0  0  0  0  0  0  0
   51.3730  158.3590   29.8940 C   0  0  0  0  0  0  0  0  0  0  0  0
   52.6440  158.4510   29.3090 C   0  0  0  0  0  0  0  0  0  0  0  0
   53.0970  157.4740   28.4190 C   0  0  0  0  0  0  0  0  0  0  0  0
   52.2920  156.3780   28.0910 C   0  0  0  0  0  0  0  0  0  0  0  0
   52.7830  155.3650   27.1340 C   0  0  0  0  0  0  0  0  0  0  0  0
   52.3450  154.0800   27.4320 O   0  0  0  0  0  0  0  0  0  0  0  0
   52.7320  153.0440   26.6210 C   0  0  0  0  0  0  0  0  0  0  0  0
   52.2850  151.7680   26.9660 C   0  0  0  0  0  0  0  0  0  0  0  0
   52.6400  150.6700   26.1810 C   0  0  0  0  0  0  0  0  0  0  0  0
   53.4430  150.8460   25.0520 C   0  0  0  0  0  0  0  0  0  0  0  0
   53.8880  152.1200   24.7100 C   0  0  0  0  0  0  0  0  0  0  0  0
   54.6680  152.2220   23.5910 O   0  0  0  0  0  0  0  0  0  0  0  0
   53.5320  153.2190   25.4950 C   0  0  0  0  0  0  0  0  0  0  0  0
   53.9780  154.5740   25.1710 C   0  0  0  0  0  0  0  0  0  0  0  0
   54.6790  154.8130   24.1890 O   0  0  0  0  0  0  0  0  0  0  0  0
   53.5540  155.6700   26.0730 C   0  0  0  0  0  0  0  0  0  0  0  0
   53.9690  156.9490   25.7520 O   0  0  0  0  0  0  0  0  0  0  0  0
   51.0130  156.2970   28.6580 C   0  0  0  0  0  0  0  0  0  0  0  0
   50.5360  157.2760   29.5520 C   0  0  0  0  0  0  0  0  0  0  0  0
   49.1560  157.1140   30.1480 C   0  0  0  0  0  0  0  0  0  0  0  0
   48.4530  156.0730   29.6170 F   0  0  0  0  0  0  0  0  0  0  0  0
   48.3640  158.2080   29.9740 F   0  0  0  0  0  0  0  0  0  0  0  0
   51.0638  159.1042   31.8748 H   0  0  0  0  0  0  0  0  0  0  0  0
   51.5195  160.3494   30.6630 H   0  0  0  0  0  0  0  0  0  0  0  0
   49.8603  159.6609   30.6630 H   0  0  0  0  0  0  0  0  0  0  0  0
   53.2934  159.3043   29.5542 H   0  0  0  0  0  0  0  0  0  0  0  0
   54.0974  157.5676   27.9714 H   0  0  0  0  0  0  0  0  0  0  0  0
   51.6535  151.6277   27.8557 H   0  0  0  0  0  0  0  0  0  0  0  0
   52.2867  149.6642   26.4520 H   0  0  0  0  0  0  0  0  0  0  0  0
   53.7232  149.9799   24.4344 H   0  0  0  0  0  0  0  0  0  0  0  0
   55.0630  151.4540   23.2240 H   0  0  0  0  0  0  0  0  0  0  0  0
   53.5190  157.4360   25.0890 H   0  0  0  0  0  0  0  0  0  0  0  0
   50.3647  155.4471   28.3984 H   0  0  0  0  0  0  0  0  0  0  0  0
   49.3714  156.9420   31.2129 H   0  0  0  0  0  0  0  0  0  0  0  0
  1  2  1  0
  2  3  2  0
  3  4  1  0
  4  5  2  0
  5  6  1  0
  6  7  1  0
  7  8  1  0
  8  9  2  0
  9 10  1  0
 10 11  2  0
 11 12  1  0
 12 13  1  0
 12 14  2  0
 14 15  1  0
 15 16  2  0
 15 17  1  0
 17 18  1  0
  5 19  1  0
 19 20  2  0
 20 21  1  0
 21 22  1  0
 21 23  1  0
 20  2  1  0
 17  6  2  0
 14  8  1  0
  1 24  1  0
  1 25  1  0
  1 26  1  0
  3 27  1  0
  4 28  1  0
  9 29  1  0
 10 30  1  0
 11 31  1  0
 13 32  1  0
 18 33  1  0
 19 34  1  0
 21 35  1  0
M  END
>  <meeko>  (8) 
{"is_sidechain": [false], "free_energy": -7.98, "intermolecular_energy": -9.594, "internal_energy": 0.1}

$$$$
