cand_030_out
     RDKit          3D

 38 40  0  0  0  0  0  0  0  0999 V2000
   50.2410  161.1340   32.9700 C   0  0  0  0  0  0  0  0  0  0  0  0
   50.0570  161.2200   31.4620 C   0  0  0  0  0  0  0  0  0  0  0  0
   50.4790  159.9450   30.7650 C   0  0  0  0  0  0  0  0  0  0  0  0
   51.8040  159.8490   30.3050 C   0  0  0  0  0  0  0  0  0  0  0  0
   52.2570  158.7030   29.6480 C   0  0  0  0  0  0  0  0  0  0  0  0
   51.4010  157.6170   29.4350 C   0  0  0  0  0  0  0  0  0  0  0  0
   51.8930  156.4210   28.7220 C   0  0  0  0  0  0  0  0  0  0  0  0
   52.4630  156.7200   27.4900 O   0  0  0  0  0  0  0  0  0  0  0  0
   52.9580  155.6950   26.7230 C   0  0  0  0  0  0  0  0  0  0  0  0
   53.5060  156.0380   25.4870 C   0  0  0  0  0  0  0  0  0  0  0  0
   54.0290  155.0430   24.6580 C   0  0  0  0  0  0  0  0  0  0  0  0
   54.0040  153.7070   25.0640 C   0  0  0  0  0  0  0  0  0  0  0  0
   53.4560  153.3680   26.2990 C   0  0  0  0  0  0  0  0  0  0  0  0
   53.4640  152.0420   26.6350 O   0  0  0  0  0  0  0  0  0  0  0  0
   52.9320  154.3640   27.1270 C   0  0  0  0  0  0  0  0  0  0  0  0
   52.3470  154.0500   28.4320 C   0  0  0  0  0  0  0  0  0  0  0  0
   52.2940  152.9020   28.8640 O   0  0  0  0  0  0  0  0  0  0  0  0
   51.8120  155.1780   29.2310 C   0  0  0  0  0  0  0  0  0  0  0  0
   51.2720  154.8750   30.4670 O   0  0  0  0  0  0  0  0  0  0  0  0
   50.0750  157.7180   29.8770 C   0  0  0  0  0  0  0  0  0  0  0  0
   49.5970  158.8690   30.5380 C   0  0  0  0  0  0  0  0  0  0  0  0
   48.1610  158.8880   31.0130 C   0  0  0  0  0  0  0  0  0  0  0  0
   48.0440  158.8570   32.3700 F   0  0  0  0  0  0  0  0  0  0  0  0
   47.4700  159.9960   30.6190 F   0  0  0  0  0  0  0  0  0  0  0  0
   49.3542  161.5485   33.4718 H   0  0  0  0  0  0  0  0  0  0  0  0
   50.3706  160.0820   33.2642 H   0  0  0  0  0  0  0  0  0  0  0  0
   51.1312  161.7093   33.2642 H   0  0  0  0  0  0  0  0  0  0  0  0
   48.9955  161.4090   31.2441 H   0  0  0  0  0  0  0  0  0  0  0  0
   50.6919  162.0370   31.0887 H   0  0  0  0  0  0  0  0  0  0  0  0
   52.4948  160.6899   30.4651 H   0  0  0  0  0  0  0  0  0  0  0  0
   53.2974  158.6536   29.2943 H   0  0  0  0  0  0  0  0  0  0  0  0
   53.5262  157.0899   25.1659 H   0  0  0  0  0  0  0  0  0  0  0  0
   54.4616  155.3123   23.6831 H   0  0  0  0  0  0  0  0  0  0  0  0
   54.4161  152.9243   24.4101 H   0  0  0  0  0  0  0  0  0  0  0  0
   52.7830  151.4770   26.3280 H   0  0  0  0  0  0  0  0  0  0  0  0
   51.7130  154.2750   31.0360 H   0  0  0  0  0  0  0  0  0  0  0  0
   49.3879  156.8766   29.7038 H   0  0  0  0  0  0  0  0  0  0  0  0
   47.7439  157.9798   30.5535 H   0  0  0  0  0  0  0  0  0  0  0  0
  1  2  1  0
  2  3  1  0
  3  4  2  0
  4  5  1  0
  5  6  2  0
  6  7  1  0
  7  8  1  0
  8  9  1  0
  9 10  2  0
 10 11  1  0
 11 12  2  0
 12 13  1  0
 13 14  1  0
 13 15  2  0
 15 16  1  0
 16 17  2  0
 16 18  1  0
 18 19  1  0
  6 20  1  0
 20 21  2  0
 21 22  1  0
 22 23  1  0
 22 24  1  0
 21  3  1  0
 18  7  2  0
 15  9  1  0
  1 25  1  0
  1 26  1  0
  1 27  1  0
  2 28  1  0
  2 29  1  0
  4 30  1  0
  5 31  1  0
 10 32  1  0
 11 33  1  0
 12 34  1  0
 14 35  1  0
 19 36  1  0
 20 37  1  0
 22 38  1  0
M  END
>  <meeko>  (1) 
{"is_sidechain": [false], "free_energy": -11.501, "intermolecular_energy": -14.191, "internal_energy": -0.383}

$$$$
cand_030_out
     RDKit          3D

 38 40  0  0  0  0  0  0  0  0999 V2000
   47.4400  159.8430   31.6350 C   0  0  0  0  0  0  0  0  0  0  0  0
   48.9320  160.1370   31.6540 C   0  0  0  0  0  0  0  0  0  0  0  0
   49.7200  159.1310   30.8440 C   0  0  0  0  0  0  0  0  0  0  0  0
   49.0880  157.9280   30.4830 C   0  0  0  0  0  0  0  0  0  0  0  0
   49.7600  156.9550   29.7420 C   0  0  0  0  0  0  0  0  0  0  0  0
   51.0830  157.1550   29.3340 C   0  0  0  0  0  0  0  0  0  0  0  0
   51.7840  156.1070   28.5660 C   0  0  0  0  0  0  0  0  0  0  0  0
   52.3240  156.5770   27.3740 O   0  0  0  0  0  0  0  0  0  0  0  0
   53.0000  155.7020   26.5630 C   0  0  0  0  0  0  0  0  0  0  0  0
   53.5100  156.2120   25.3680 C   0  0  0  0  0  0  0  0  0  0  0  0
   54.2110  155.3750   24.4970 C   0  0  0  0  0  0  0  0  0  0  0  0
   54.4020  154.0290   24.8200 C   0  0  0  0  0  0  0  0  0  0  0  0
   53.8910  153.5230   26.0130 C   0  0  0  0  0  0  0  0  0  0  0  0
   54.1150  152.1980   26.2670 O   0  0  0  0  0  0  0  0  0  0  0  0
   53.1890  154.3610   26.8840 C   0  0  0  0  0  0  0  0  0  0  0  0
   52.6360  153.8690   28.1470 C   0  0  0  0  0  0  0  0  0  0  0  0
   52.7680  152.7020   28.5050 O   0  0  0  0  0  0  0  0  0  0  0  0
   51.9020  154.8360   28.9950 C   0  0  0  0  0  0  0  0  0  0  0  0
   51.3930  154.3680   30.1920 O   0  0  0  0  0  0  0  0  0  0  0  0
   51.7210  158.3460   29.7070 C   0  0  0  0  0  0  0  0  0  0  0  0
   51.0620  159.3390   30.4610 C   0  0  0  0  0  0  0  0  0  0  0  0
   51.8090  160.6110   30.7960 C   0  0  0  0  0  0  0  0  0  0  0  0
   51.3600  161.6950   30.1040 F   0  0  0  0  0  0  0  0  0  0  0  0
   51.7220  160.9640   32.1110 F   0  0  0  0  0  0  0  0  0  0  0  0
   47.0676  159.7696   32.6674 H   0  0  0  0  0  0  0  0  0  0  0  0
   46.9130  160.6546   31.1119 H   0  0  0  0  0  0  0  0  0  0  0  0
   47.2603  158.8922   31.1119 H   0  0  0  0  0  0  0  0  0  0  0  0
   49.1013  161.1401   31.2356 H   0  0  0  0  0  0  0  0  0  0  0  0
   49.2762  160.0766   32.6970 H   0  0  0  0  0  0  0  0  0  0  0  0
   48.0466  157.7509   30.7898 H   0  0  0  0  0  0  0  0  0  0  0  0
   49.2438  156.0208   29.4759 H   0  0  0  0  0  0  0  0  0  0  0  0
   53.3601  157.2714   25.1127 H   0  0  0  0  0  0  0  0  0  0  0  0
   54.6134  155.7761   23.5551 H   0  0  0  0  0  0  0  0  0  0  0  0
   54.9546  153.3705   24.1337 H   0  0  0  0  0  0  0  0  0  0  0  0
   54.0760  151.8770   27.1460 H   0  0  0  0  0  0  0  0  0  0  0  0
   50.5020  154.0820   30.2420 H   0  0  0  0  0  0  0  0  0  0  0  0
   52.7652  158.5108   29.4030 H   0  0  0  0  0  0  0  0  0  0  0  0
   52.8448  160.3616   30.5224 H   0  0  0  0  0  0  0  0  0  0  0  0
  1  2  1  0
  2  3  1  0
  3  4  2  0
  4  5  1  0
  5  6  2  0
  6  7  1  0
  7  8  1  0
  8  9  1  0
  9 10  2  0
 10 11  1  0
 11 12  2  0
 12 13  1  0
 13 14  1  0
 13 15  2  0
 15 16  1  0
 16 17  2  0
 16 18  1  0
 18 19  1  0
  6 20  1  0
 20 21  2  0
 21 22  1  0
 22 23  1  0
 22 24  1  0
 21  3  1  0
 18  7  2  0
 15  9  1  0
  1 25  1  0
  1 26  1  0
  1 27  1  0
  2 28  1  0
  2 29  1  0
  4 30  1  0
  5 31  1  0
 10 32  1  0
 11 33  1  0
 12 34  1  0
 14 35  1  0
 19 36  1  0
 20 37  1  0
 22 38  1  0
M  END
>  <meeko>  (2) 
{"is_sidechain": [false], "free_energy": -10.995, "intermolecular_energy": -13.668, "internal_energy": -0.281}

$$$$
cand_030_out
     RDKit          3D

 38 40  0  0  0  0  0  0  0  0999 V2000
   51.9700  152.7160   26.2740 C   0  0  0  0  0  0  0  0  0  0  0  0
   53.0690  153.3610   27.1060 C   0  0  0  0  0  0  0  0  0  0  0  0
   52.6010  154.6360   27.7750 C   0  0  0  0  0  0  0  0  0  0  0  0
   51.8960  154.5290   28.9860 C   0  0  0  0  0  0  0  0  0  0  0  0
   51.4310  155.6650   29.6520 C   0  0  0  0  0  0  0  0  0  0  0  0
   51.6610  156.9420   29.1300 C   0  0  0  0  0  0  0  0  0  0  0  0
   51.1460  158.1310   29.8380 C   0  0  0  0  0  0  0  0  0  0  0  0
   49.8150  158.0020   30.2180 O   0  0  0  0  0  0  0  0  0  0  0  0
   49.2120  159.0400   30.8830 C   0  0  0  0  0  0  0  0  0  0  0  0
   47.8710  158.8740   31.2300 C   0  0  0  0  0  0  0  0  0  0  0  0
   47.1980  159.8920   31.9110 C   0  0  0  0  0  0  0  0  0  0  0  0
   47.8660  161.0730   32.2450 C   0  0  0  0  0  0  0  0  0  0  0  0
   49.2050  161.2340   31.8960 C   0  0  0  0  0  0  0  0  0  0  0  0
   49.7980  162.4140   32.2540 O   0  0  0  0  0  0  0  0  0  0  0  0
   49.8770  160.2160   31.2140 C   0  0  0  0  0  0  0  0  0  0  0  0
   51.2840  160.3460   30.8300 C   0  0  0  0  0  0  0  0  0  0  0  0
   51.9420  161.3490   31.0940 O   0  0  0  0  0  0  0  0  0  0  0  0
   51.9020  159.2130   30.1030 C   0  0  0  0  0  0  0  0  0  0  0  0
   53.2340  159.3370   29.7540 O   0  0  0  0  0  0  0  0  0  0  0  0
   52.3480  157.0500   27.9130 C   0  0  0  0  0  0  0  0  0  0  0  0
   52.8210  155.9150   27.2220 C   0  0  0  0  0  0  0  0  0  0  0  0
   53.5830  156.1170   25.9310 C   0  0  0  0  0  0  0  0  0  0  0  0
   52.7750  156.1920   24.8370 F   0  0  0  0  0  0  0  0  0  0  0  0
   54.3240  157.2620   25.9090 F   0  0  0  0  0  0  0  0  0  0  0  0
   51.2162  152.2736   26.9419 H   0  0  0  0  0  0  0  0  0  0  0  0
   51.4951  153.4787   25.6393 H   0  0  0  0  0  0  0  0  0  0  0  0
   52.4043  151.9295   25.6393 H   0  0  0  0  0  0  0  0  0  0  0  0
   53.3903  152.6504   27.8818 H   0  0  0  0  0  0  0  0  0  0  0  0
   53.8994  153.6168   26.4315 H   0  0  0  0  0  0  0  0  0  0  0  0
   51.7074  153.5344   29.4163 H   0  0  0  0  0  0  0  0  0  0  0  0
   50.8783  155.5543   30.5966 H   0  0  0  0  0  0  0  0  0  0  0  0
   47.3447  157.9442   30.9682 H   0  0  0  0  0  0  0  0  0  0  0  0
   46.1404  159.7633   32.1846 H   0  0  0  0  0  0  0  0  0  0  0  0
   47.3360  161.8734   32.7821 H   0  0  0  0  0  0  0  0  0  0  0  0
   49.6020  162.8050   33.0820 H   0  0  0  0  0  0  0  0  0  0  0  0
   53.8950  159.3200   30.4190 H   0  0  0  0  0  0  0  0  0  0  0  0
   52.5232  158.0480   27.4848 H   0  0  0  0  0  0  0  0  0  0  0  0
   54.2298  155.2281   25.8911 H   0  0  0  0  0  0  0  0  0  0  0  0
  1  2  1  0
  2  3  1  0
  3  4  2  0
  4  5  1  0
  5  6  2  0
  6  7  1  0
  7  8  1  0
  8  9  1  0
  9 10  2  0
 10 11  1  0
 11 12  2  0
 12 13  1  0
 13 14  1  0
 13 15  2  0
 15 16  1  0
 16 17  2  0
 16 18  1  0
 18 19  1  0
  6 20  1  0
 20 21  2  0
 21 22  1  0
 22 23  1  0
 22 24  1  0
 21  3  1  0
 18  7  2  0
 15  9  1  0
  1 25  1  0
  1 26  1  0
  1 27  1  0
  2 28  1  0
  2 29  1  0
  4 30  1  0
  5 31  1  0
 10 32  1  0
 11 33  1  0
 12 34  1  0
 14 35  1  0
 19 36  1  0
 20 37  1  0
 22 38  1  0
M  END
>  <meeko>  (3) 
{"is_sidechain": [false], "free_energy": -10.686, "intermolecular_energy": -13.098, "internal_energy": -0.471}

$$$$
cand_030_out
     RDKit          3D

 38 40  0  0  0  0  0  0  0  0999 V2000
   52.9800  154.4200   24.8680 C   0  0  0  0  0  0  0  0  0  0  0  0
   53.4660  154.2400   26.2990 C   0  0  0  0  0  0  0  0  0  0  0  0
   52.8760  155.2730   27.2330 C   0  0  0  0  0  0  0  0  0  0  0  0
   52.9750  156.6280   26.8720 C   0  0  0  0  0  0  0  0  0  0  0  0
   52.4570  157.6330   27.6920 C   0  0  0  0  0  0  0  0  0  0  0  0
   51.8210  157.3130   28.8960 C   0  0  0  0  0  0  0  0  0  0  0  0
   51.2950  158.3900   29.7590 C   0  0  0  0  0  0  0  0  0  0  0  0
   49.9630  158.2020   30.1090 O   0  0  0  0  0  0  0  0  0  0  0  0
   49.3500  159.1340   30.9080 C   0  0  0  0  0  0  0  0  0  0  0  0
   48.0080  158.9150   31.2210 C   0  0  0  0  0  0  0  0  0  0  0  0
   47.3260  159.8250   32.0320 C   0  0  0  0  0  0  0  0  0  0  0  0
   47.9850  160.9510   32.5310 C   0  0  0  0  0  0  0  0  0  0  0  0
   49.3240  161.1670   32.2160 C   0  0  0  0  0  0  0  0  0  0  0  0
   49.9080  162.2890   32.7380 O   0  0  0  0  0  0  0  0  0  0  0  0
   50.0060  160.2570   31.4040 C   0  0  0  0  0  0  0  0  0  0  0  0
   51.4140  160.4460   31.0500 C   0  0  0  0  0  0  0  0  0  0  0  0
   52.0650  161.4060   31.4540 O   0  0  0  0  0  0  0  0  0  0  0  0
   52.0430  159.4280   30.1770 C   0  0  0  0  0  0  0  0  0  0  0  0
   53.3760  159.6070   29.8570 O   0  0  0  0  0  0  0  0  0  0  0  0
   51.7350  155.9640   29.2660 C   0  0  0  0  0  0  0  0  0  0  0  0
   52.2570  154.9350   28.4550 C   0  0  0  0  0  0  0  0  0  0  0  0
   52.0960  153.5010   28.9090 C   0  0  0  0  0  0  0  0  0  0  0  0
   51.4890  153.3880   30.1230 F   0  0  0  0  0  0  0  0  0  0  0  0
   51.3460  152.7410   28.0600 F   0  0  0  0  0  0  0  0  0  0  0  0
   51.9485  154.8020   24.8764 H   0  0  0  0  0  0  0  0  0  0  0  0
   53.6320  155.1363   24.3467 H   0  0  0  0  0  0  0  0  0  0  0  0
   53.0082  153.4518   24.3467 H   0  0  0  0  0  0  0  0  0  0  0  0
   53.1761  153.2383   26.6490 H   0  0  0  0  0  0  0  0  0  0  0  0
   54.5591  154.3629   26.3041 H   0  0  0  0  0  0  0  0  0  0  0  0
   53.4687  156.9014   25.9278 H   0  0  0  0  0  0  0  0  0  0  0  0
   52.5501  158.6861   27.3881 H   0  0  0  0  0  0  0  0  0  0  0  0
   47.4884  158.0278   30.8300 H   0  0  0  0  0  0  0  0  0  0  0  0
   46.2676  159.6546   32.2783 H   0  0  0  0  0  0  0  0  0  0  0  0
   47.4473  161.6656   33.1715 H   0  0  0  0  0  0  0  0  0  0  0  0
   49.4230  163.0880   32.7900 H   0  0  0  0  0  0  0  0  0  0  0  0
   54.0150  158.9900   30.1570 H   0  0  0  0  0  0  0  0  0  0  0  0
   51.2466  155.7003   30.2157 H   0  0  0  0  0  0  0  0  0  0  0  0
   53.1349  153.1413   28.9454 H   0  0  0  0  0  0  0  0  0  0  0  0
  1  2  1  0
  2  3  1  0
  3  4  2  0
  4  5  1  0
  5  6  2  0
  6  7  1  0
  7  8  1  0
  8  9  1  0
  9 10  2  0
 10 11  1  0
 11 12  2  0
 12 13  1  0
 13 14  1  0
 13 15  2  0
 15 16  1  0
 16 17  2  0
 16 18  1  0
 18 19  1  0
  6 20  1  0
 20 21  2  0
 21 22  1  0
 22 23  1  0
 22 24  1  0
 21  3  1  0
 18  7  2  0
 15  9  1  0
  1 25  1  0
  1 26  1  0
  1 27  1  0
  2 28  1  0
  2 29  1  0
  4 30  1  0
  5 31  1  0
 10 32  1  0
 11 33  1  0
 12 34  1  0
 14 35  1  0
 19 36  1  0
 20 37  1  0
 22 38  1  0
M  END
>  <meeko>  (4) 
{"is_sidechain": [false], "free_energy": -9.786, "intermolecular_energy": -12.059, "internal_energy": -0.399}

$$$$
cand_030_out
     RDKit          3D

 38 40  0  0  0  0  0  0  0  0999 V2000
   52.7580  152.2720   25.6700 C   0  0  0  0  0  0  0  0  0  0  0  0
   53.5880  152.8270   26.8180 C   0  0  0  0  0  0  0  0  0  0  0  0
   52.9210  154.0130   27.4810 C   0  0  0  0  0  0  0  0  0  0  0  0
   52.2150  153.7940   28.6770 C   0  0  0  0  0  0  0  0  0  0  0  0
   51.5710  154.8430   29.3360 C   0  0  0  0  0  0  0  0  0  0  0  0
   51.6170  156.1430   28.8220 C   0  0  0  0  0  0  0  0  0  0  0  0
   50.9150  157.2370   29.5230 C   0  0  0  0  0  0  0  0  0  0  0  0
   51.7480  158.3080   29.8280 O   0  0  0  0  0  0  0  0  0  0  0  0
   51.2200  159.3910   30.4840 C   0  0  0  0  0  0  0  0  0  0  0  0
   52.0950  160.4350   30.7860 C   0  0  0  0  0  0  0  0  0  0  0  0
   51.6220  161.5690   31.4510 C   0  0  0  0  0  0  0  0  0  0  0  0
   50.2760  161.6590   31.8130 C   0  0  0  0  0  0  0  0  0  0  0  0
   49.4050  160.6140   31.5100 C   0  0  0  0  0  0  0  0  0  0  0  0
   48.1010  160.7670   31.8920 O   0  0  0  0  0  0  0  0  0  0  0  0
   49.8800  159.4800   30.8460 C   0  0  0  0  0  0  0  0  0  0  0  0
   48.9980  158.3610   30.5090 C   0  0  0  0  0  0  0  0  0  0  0  0
   47.8010  158.3670   30.7860 O   0  0  0  0  0  0  0  0  0  0  0  0
   49.6010  157.2010   29.8110 C   0  0  0  0  0  0  0  0  0  0  0  0
   48.7600  156.1530   29.4850 O   0  0  0  0  0  0  0  0  0  0  0  0
   52.3060  156.3610   27.6210 C   0  0  0  0  0  0  0  0  0  0  0  0
   52.9580  155.3130   26.9370 C   0  0  0  0  0  0  0  0  0  0  0  0
   53.7070  155.6350   25.6630 C   0  0  0  0  0  0  0  0  0  0  0  0
   52.9620  155.4430   24.5390 F   0  0  0  0  0  0  0  0  0  0  0  0
   54.1330  156.9300   25.5930 F   0  0  0  0  0  0  0  0  0  0  0  0
   51.9075  151.7033   26.0739 H   0  0  0  0  0  0  0  0  0  0  0  0
   52.3840  153.1023   25.0530 H   0  0  0  0  0  0  0  0  0  0  0  0
   53.3825  151.6091   25.0530 H   0  0  0  0  0  0  0  0  0  0  0  0
   53.7304  152.0351   27.5680 H   0  0  0  0  0  0  0  0  0  0  0  0
   54.5508  153.1654   26.4074 H   0  0  0  0  0  0  0  0  0  0  0  0
   52.1693  152.7798   29.1004 H   0  0  0  0  0  0  0  0  0  0  0  0
   51.0221  154.6451   30.2685 H   0  0  0  0  0  0  0  0  0  0  0  0
   53.1552  160.3654   30.5011 H   0  0  0  0  0  0  0  0  0  0  0  0
   52.3110  162.3926   31.6899 H   0  0  0  0  0  0  0  0  0  0  0  0
   49.9043  162.5525   32.3360 H   0  0  0  0  0  0  0  0  0  0  0  0
   47.8940  160.9700   32.7830 H   0  0  0  0  0  0  0  0  0  0  0  0
   49.0660  155.4640   28.9280 H   0  0  0  0  0  0  0  0  0  0  0  0
   52.3394  157.3768   27.2002 H   0  0  0  0  0  0  0  0  0  0  0  0
   54.5592  154.9406   25.7029 H   0  0  0  0  0  0  0  0  0  0  0  0
  1  2  1  0
  2  3  1  0
  3  4  2  0
  4  5  1  0
  5  6  2  0
  6  7  1  0
  7  8  1  0
  8  9  1  0
  9 10  2  0
 10 11  1  0
 11 12  2  0
 12 13  1  0
 13 14  1  0
 13 15  2  0
 15 16  1  0
 16 17  2  0
 16 18  1  0
 18 19  1  0
  6 20  1  0
 20 21  2  0
 21 22  1  0
 22 23  1  0
 22 24  1  0
 21  3  1  0
 18  7  2  0
 15  9  1  0
  1 25  1  0
  1 26  1  0
  1 27  1  0
  2 28  1  0
  2 29  1  0
  4 30  1  0
  5 31  1  0
 10 32  1  0
 11 33  1  0
 12 34  1  0
 14 35  1  0
 19 36  1  0
 20 37  1  0
 22 38  1  0
M  END
>  <meeko>  (5) 
{"is_sidechain": [false], "free_energy": -9.011, "intermolecular_energy": -11.061, "internal_energy": -0.439}

$$$$
