cand_032_out
     RDKit          3D

 43 45  0  0  0  0  0  0  0  0999 V2000
   53.4250  154.2090   24.1780 C   0  0  0  0  0  0  0  0  0  0  0  0
   52.4540  154.8160   25.1810 C   0  0  0  0  0  0  0  0  0  0  0  0
   53.1890  155.3710   26.3340 N   0  0  0  0  0  0  0  0  0  0  0  0
   53.8430  156.6630   26.0890 C   0  0  0  0  0  0  0  0  0  0  0  0
   52.4070  155.4120   27.5110 C   0  0  0  0  0  0  0  0  0  0  0  0
   52.0670  156.6330   28.1270 C   0  0  0  0  0  0  0  0  0  0  0  0
   51.2870  156.6830   29.2920 C   0  0  0  0  0  0  0  0  0  0  0  0
   50.9490  157.9640   29.9460 C   0  0  0  0  0  0  0  0  0  0  0  0
   49.6470  157.9960   30.4330 O   0  0  0  0  0  0  0  0  0  0  0  0
   49.2020  159.1300   31.0640 C   0  0  0  0  0  0  0  0  0  0  0  0
   47.8950  159.1130   31.5500 C   0  0  0  0  0  0  0  0  0  0  0  0
   47.3780  160.2350   32.2010 C   0  0  0  0  0  0  0  0  0  0  0  0
   48.1700  161.3740   32.3670 C   0  0  0  0  0  0  0  0  0  0  0  0
   49.4750  161.3880   31.8820 C   0  0  0  0  0  0  0  0  0  0  0  0
   50.1940  162.5350   32.0770 O   0  0  0  0  0  0  0  0  0  0  0  0
   49.9910  160.2650   31.2300 C   0  0  0  0  0  0  0  0  0  0  0  0
   51.3570  160.2370   30.7050 C   0  0  0  0  0  0  0  0  0  0  0  0
   52.1130  161.2020   30.8060 O   0  0  0  0  0  0  0  0  0  0  0  0
   51.8100  158.9950   30.0380 C   0  0  0  0  0  0  0  0  0  0  0  0
   53.0980  158.9860   29.5340 O   0  0  0  0  0  0  0  0  0  0  0  0
   50.8590  155.4770   29.8560 C   0  0  0  0  0  0  0  0  0  0  0  0
   51.1880  154.2580   29.2620 C   0  0  0  0  0  0  0  0  0  0  0  0
   51.9610  154.2090   28.0880 C   0  0  0  0  0  0  0  0  0  0  0  0
   52.2960  152.8770   27.4610 C   0  0  0  0  0  0  0  0  0  0  0  0
   53.6170  152.7330   27.1530 F   0  0  0  0  0  0  0  0  0  0  0  0
   52.0160  151.8230   28.2900 F   0  0  0  0  0  0  0  0  0  0  0  0
   51.5980  152.6130   26.3190 F   0  0  0  0  0  0  0  0  0  0  0  0
   54.2383  153.7006   24.7166 H   0  0  0  0  0  0  0  0  0  0  0  0
   52.8931  153.4823   23.5463 H   0  0  0  0  0  0  0  0  0  0  0  0
   53.8453  155.0055   23.5463 H   0  0  0  0  0  0  0  0  0  0  0  0
   51.8837  155.6201   24.6930 H   0  0  0  0  0  0  0  0  0  0  0  0
   51.7700  154.0314   25.5367 H   0  0  0  0  0  0  0  0  0  0  0  0
   54.0844  157.1399   27.0504 H   0  0  0  0  0  0  0  0  0  0  0  0
   54.7685  156.5027   25.5166 H   0  0  0  0  0  0  0  0  0  0  0  0
   53.1659  157.3140   25.5166 H   0  0  0  0  0  0  0  0  0  0  0  0
   52.4233  157.5736   27.6817 H   0  0  0  0  0  0  0  0  0  0  0  0
   47.2715  158.2161   31.4206 H   0  0  0  0  0  0  0  0  0  0  0  0
   46.3467  160.2221   32.5833 H   0  0  0  0  0  0  0  0  0  0  0  0
   47.7633  162.2580   32.8799 H   0  0  0  0  0  0  0  0  0  0  0  0
   49.7610  163.3660   32.0780 H   0  0  0  0  0  0  0  0  0  0  0  0
   53.6890  159.6790   29.7480 H   0  0  0  0  0  0  0  0  0  0  0  0
   50.2572  155.4895   30.7767 H   0  0  0  0  0  0  0  0  0  0  0  0
   50.8374  153.3209   29.7190 H   0  0  0  0  0  0  0  0  0  0  0  0
  1  2  1  0
  2  3  1  0
  3  4  1  0
  3  5  1  0
  5  6  2  0
  6  7  1  0
  7  8  1  0
  8  9  1  0
  9 10  1  0
 10 11  2  0
 11 12  1  0
 12 13  2  0
 13 14  1  0
 14 15  1  0
 14 16  2  0
 16 17  1  0
 17 18  2  0
 17 19  1  0
 19 20  1  0
  7 21  2  0
 21 22  1  0
 22 23  2  0
 23 24  1  0
 24 25  1  0
 24 26  1  0
 24 27  1  0
 23  5  1  0
 19  8  2  0
 16 10  1  0
  1 28  1  0
  1 29  1  0
  1 30  1  0
  2 31  1  0
  2 32  1  0
  4 33  1  0
  4 34  1  0
  4 35  1  0
  6 36  1  0
 11 37  1  0
 12 38  1  0
 13 39  1  0
 15 40  1  0
 20 41  1  0
 21 42  1  0
 22 43  1  0
M  END
>  <meeko>  (1) 
{"is_sidechain": [false], "free_energy": -10.467, "intermolecular_energy": -13.526, "internal_energy": 0.782}

$$$$
cand_032_out
     RDKit          3D

 43 45  0  0  0  0  0  0  0  0999 V2000
   46.4570  160.0250   30.8960 C   0  0  0  0  0  0  0  0  0  0  0  0
   47.6730  159.2500   30.4070 C   0  0  0  0  0  0  0  0  0  0  0  0
   48.7710  159.3470   31.3880 N   0  0  0  0  0  0  0  0  0  0  0  0
   48.6140  158.5030   32.5800 C   0  0  0  0  0  0  0  0  0  0  0  0
   50.0450  159.1670   30.8010 C   0  0  0  0  0  0  0  0  0  0  0  0
   50.3710  157.9890   30.0990 C   0  0  0  0  0  0  0  0  0  0  0  0
   51.6300  157.8040   29.5090 C   0  0  0  0  0  0  0  0  0  0  0  0
   51.9770  156.5600   28.7900 C   0  0  0  0  0  0  0  0  0  0  0  0
   52.5110  156.7960   27.5280 O   0  0  0  0  0  0  0  0  0  0  0  0
   52.8760  155.7250   26.7520 C   0  0  0  0  0  0  0  0  0  0  0  0
   53.4210  156.0080   25.4990 C   0  0  0  0  0  0  0  0  0  0  0  0
   53.8110  154.9640   24.6580 C   0  0  0  0  0  0  0  0  0  0  0  0
   53.6570  153.6380   25.0690 C   0  0  0  0  0  0  0  0  0  0  0  0
   53.1130  153.3590   26.3200 C   0  0  0  0  0  0  0  0  0  0  0  0
   52.9890  152.0400   26.6600 O   0  0  0  0  0  0  0  0  0  0  0  0
   52.7220  154.4040   27.1610 C   0  0  0  0  0  0  0  0  0  0  0  0
   52.1460  154.1550   28.4840 C   0  0  0  0  0  0  0  0  0  0  0  0
   51.9720  153.0170   28.9150 O   0  0  0  0  0  0  0  0  0  0  0  0
   51.7730  155.3320   29.3010 C   0  0  0  0  0  0  0  0  0  0  0  0
   51.2170  155.0840   30.5430 O   0  0  0  0  0  0  0  0  0  0  0  0
   52.5840  158.8180   29.6480 C   0  0  0  0  0  0  0  0  0  0  0  0
   52.2800  159.9900   30.3430 C   0  0  0  0  0  0  0  0  0  0  0  0
   51.0130  160.1790   30.9240 C   0  0  0  0  0  0  0  0  0  0  0  0
   50.7070  161.4590   31.6630 C   0  0  0  0  0  0  0  0  0  0  0  0
   49.5480  162.0590   31.2640 F   0  0  0  0  0  0  0  0  0  0  0  0
   50.5480  161.2620   33.0100 F   0  0  0  0  0  0  0  0  0  0  0  0
   51.6880  162.4010   31.5650 F   0  0  0  0  0  0  0  0  0  0  0  0
   46.4451  160.0326   31.9959 H   0  0  0  0  0  0  0  0  0  0  0  0
   46.5064  161.0585   30.5227 H   0  0  0  0  0  0  0  0  0  0  0  0
   45.5410  159.5437   30.5227 H   0  0  0  0  0  0  0  0  0  0  0  0
   47.3994  158.1932   30.2720 H   0  0  0  0  0  0  0  0  0  0  0  0
   48.0089  159.6776   29.4508 H   0  0  0  0  0  0  0  0  0  0  0  0
   48.7287  159.1197   33.4836 H   0  0  0  0  0  0  0  0  0  0  0  0
   47.6149  158.0429   32.5745 H   0  0  0  0  0  0  0  0  0  0  0  0
   49.3809  157.7144   32.5745 H   0  0  0  0  0  0  0  0  0  0  0  0
   49.6172  157.1927   30.0114 H   0  0  0  0  0  0  0  0  0  0  0  0
   53.5432  157.0519   25.1744 H   0  0  0  0  0  0  0  0  0  0  0  0
   54.2403  155.1862   23.6699 H   0  0  0  0  0  0  0  0  0  0  0  0
   53.9648  152.8160   24.4059 H   0  0  0  0  0  0  0  0  0  0  0  0
   52.3300  151.5110   26.2550 H   0  0  0  0  0  0  0  0  0  0  0  0
   50.7300  154.2980   30.6900 H   0  0  0  0  0  0  0  0  0  0  0  0
   53.5830  158.6905   29.2055 H   0  0  0  0  0  0  0  0  0  0  0  0
   53.0425  160.7772   30.4376 H   0  0  0  0  0  0  0  0  0  0  0  0
  1  2  1  0
  2  3  1  0
  3  4  1  0
  3  5  1  0
  5  6  2  0
  6  7  1  0
  7  8  1  0
  8  9  1  0
  9 10  1  0
 10 11  2  0
 11 12  1  0
 12 13  2  0
 13 14  1  0
 14 15  1  0
 14 16  2  0
 16 17  1  0
 17 18  2  0
 17 19  1  0
 19 20  1  0
  7 21  2  0
 21 22  1  0
 22 23  2  0
 23 24  1  0
 24 25  1  0
 24 26  1  0
 24 27  1  0
 23  5  1  0
 19  8  2  0
 16 10  1  0
  1 28  1  0
  1 29  1  0
  1 30  1  0
  2 31  1  0
  2 32  1  0
  4 33  1  0
  4 34  1  0
  4 35  1  0
  6 36  1  0
 11 37  1  0
 12 38  1  0
 13 39  1  0
 15 40  1  0
 20 41  1  0
 21 42  1  0
 22 43  1  0
M  END
>  <meeko>  (2) 
{"is_sidechain": [false], "free_energy": -9.959, "intermolecular_energy": -11.613, "internal_energy": -0.475}

$$$$
cand_032_out
     RDKit          3D

 43 45  0  0  0  0  0  0  0  0999 V2000
   50.5490  162.0680   33.0080 C   0  0  0  0  0  0  0  0  0  0  0  0
   51.0190  160.7430   32.4230 C   0  0  0  0  0  0  0  0  0  0  0  0
   50.7540  160.7010   30.9720 N   0  0  0  0  0  0  0  0  0  0  0  0
   51.8760  161.1240   30.1240 C   0  0  0  0  0  0  0  0  0  0  0  0
   50.2380  159.4540   30.5480 C   0  0  0  0  0  0  0  0  0  0  0  0
   51.0560  158.4940   29.9200 C   0  0  0  0  0  0  0  0  0  0  0  0
   50.5530  157.2530   29.5010 C   0  0  0  0  0  0  0  0  0  0  0  0
   51.4090  156.2560   28.8250 C   0  0  0  0  0  0  0  0  0  0  0  0
   51.9250  156.7170   27.6190 O   0  0  0  0  0  0  0  0  0  0  0  0
   52.7370  155.8890   26.8850 C   0  0  0  0  0  0  0  0  0  0  0  0
   53.2450  156.3970   25.6900 C   0  0  0  0  0  0  0  0  0  0  0  0
   54.0760  155.6060   24.8940 C   0  0  0  0  0  0  0  0  0  0  0  0
   54.4000  154.3080   25.2940 C   0  0  0  0  0  0  0  0  0  0  0  0
   53.8920  153.8040   26.4890 C   0  0  0  0  0  0  0  0  0  0  0  0
   54.2490  152.5260   26.8210 O   0  0  0  0  0  0  0  0  0  0  0  0
   53.0600  154.5960   27.2840 C   0  0  0  0  0  0  0  0  0  0  0  0
   52.5050  154.1050   28.5470 C   0  0  0  0  0  0  0  0  0  0  0  0
   52.7380  152.9720   28.9640 O   0  0  0  0  0  0  0  0  0  0  0  0
   51.6410  155.0260   29.3200 C   0  0  0  0  0  0  0  0  0  0  0  0
   51.1110  154.5470   30.5040 O   0  0  0  0  0  0  0  0  0  0  0  0
   49.1950  156.9860   29.7020 C   0  0  0  0  0  0  0  0  0  0  0  0
   48.3690  157.9260   30.3200 C   0  0  0  0  0  0  0  0  0  0  0  0
   48.8770  159.1650   30.7500 C   0  0  0  0  0  0  0  0  0  0  0  0
   47.9630  160.1610   31.4220 C   0  0  0  0  0  0  0  0  0  0  0  0
   48.1160  161.4390   30.9700 F   0  0  0  0  0  0  0  0  0  0  0  0
   46.6380  159.8780   31.2170 F   0  0  0  0  0  0  0  0  0  0  0  0
   48.1000  160.2080   32.7780 F   0  0  0  0  0  0  0  0  0  0  0  0
   50.5690  162.0115   34.1064 H   0  0  0  0  0  0  0  0  0  0  0  0
   51.2157  162.8751   32.6701 H   0  0  0  0  0  0  0  0  0  0  0  0
   49.5228  162.2745   32.6701 H   0  0  0  0  0  0  0  0  0  0  0  0
   52.0993  160.6320   32.5979 H   0  0  0  0  0  0  0  0  0  0  0  0
   50.4720  159.9225   32.9105 H   0  0  0  0  0  0  0  0  0  0  0  0
   52.7164  161.4408   30.7590 H   0  0  0  0  0  0  0  0  0  0  0  0
   52.1928  160.2836   29.4889 H   0  0  0  0  0  0  0  0  0  0  0  0
   51.5591  161.9644   29.4889 H   0  0  0  0  0  0  0  0  0  0  0  0
   52.1188  158.7239   29.7535 H   0  0  0  0  0  0  0  0  0  0  0  0
   52.9914  157.4199   25.3746 H   0  0  0  0  0  0  0  0  0  0  0  0
   54.4759  156.0060   23.9506 H   0  0  0  0  0  0  0  0  0  0  0  0
   55.0548  153.6851   24.6669 H   0  0  0  0  0  0  0  0  0  0  0  0
   54.2180  151.8470   26.1750 H   0  0  0  0  0  0  0  0  0  0  0  0
   51.4510  154.8460   31.3230 H   0  0  0  0  0  0  0  0  0  0  0  0
   48.7738  156.0257   29.3698 H   0  0  0  0  0  0  0  0  0  0  0  0
   47.3046  157.6943   30.4731 H   0  0  0  0  0  0  0  0  0  0  0  0
  1  2  1  0
  2  3  1  0
  3  4  1  0
  3  5  1  0
  5  6  2  0
  6  7  1  0
  7  8  1  0
  8  9  1  0
  9 10  1  0
 10 11  2  0
 11 12  1  0
 12 13  2  0
 13 14  1  0
 14 15  1  0
 14 16  2  0
 16 17  1  0
 17 18  2  0
 17 19  1  0
 19 20  1  0
  7 21  2  0
 21 22  1  0
 22 23  2  0
 23 24  1  0
 24 25  1  0
 24 26  1  0
 24 27  1  0
 23  5  1  0
 19  8  2  0
 16 10  1  0
  1 28  1  0
  1 29  1  0
  1 30  1  0
  2 31  1  0
  2 32  1  0
  4 33  1  0
  4 34  1  0
  4 35  1  0
  6 36  1  0
 11 37  1  0
 12 38  1  0
 13 39  1  0
 15 40  1  0
 20 41  1  0
 21 42  1  0
 22 43  1  0
M  END
>  <meeko>  (3) 
{"is_sidechain": [false], "free_energy": -9.791, "intermolecular_energy": -11.791, "internal_energy": -0.081}

$$$$
